GAW.pdb
     RDKit          3D

 24 25  0  0  1  0  0  0  0  0999 V2000
   30.5271  -22.0589  -17.4664 N   0  0  0  0  0  0  0  0  0  0  0  0
   29.1109  -21.7645  -17.3756 C   0  0  0  0  0  0  0  0  0  0  0  0
   28.7909  -21.2511  -16.0230 C   0  0  0  0  0  0  0  0  0  0  0  0
   29.0202  -21.9722  -15.0366 O   0  0  0  0  0  0  0  0  0  0  0  0
   27.5150  -17.9400  -14.6907 C   0  0  0  0  0  0  0  0  0  0  0  0
   27.8707  -19.4023  -14.5861 C   0  0  2  0  0  0  0  0  0  0  0  0
   28.2382  -19.9699  -15.8735 N   0  0  0  0  0  0  0  0  0  0  0  0
   26.7604  -20.2233  -14.0282 C   0  0  0  0  0  0  0  0  0  0  0  0
   25.8571  -20.7112  -14.7860 O   0  0  0  0  0  0  0  0  0  0  0  0
   26.6296  -20.5150  -12.6509 N   0  0  0  0  0  0  0  0  0  0  0  0
   25.6263  -21.4335  -12.1430 C   0  0  1  0  0  0  0  0  0  0  0  0
   26.1901  -22.0060  -10.8578 C   0  0  0  0  0  0  0  0  0  0  0  0
   26.1943  -21.0653   -9.7398 C   0  0  0  0  0  0  0  0  0  0  0  0
   25.1692  -20.2613   -9.2954 C   0  0  0  0  0  0  0  0  0  0  0  0
   25.6238  -19.5666   -8.2411 N   0  0  0  0  0  0  0  0  0  0  0  0
   26.9020  -19.8709   -7.9640 C   0  0  0  0  0  0  0  0  0  0  0  0
   27.8239  -19.4663   -7.0245 C   0  0  0  0  0  0  0  0  0  0  0  0
   29.0748  -20.0117   -7.0509 C   0  0  0  0  0  0  0  0  0  0  0  0
   29.4805  -20.9555   -7.9717 C   0  0  0  0  0  0  0  0  0  0  0  0
   28.5444  -21.3498   -8.9058 C   0  0  0  0  0  0  0  0  0  0  0  0
   27.2711  -20.8228   -8.9124 C   0  0  0  0  0  0  0  0  0  0  0  0
   24.3871  -20.6683  -11.7440 C   0  0  0  0  0  0  0  0  0  0  0  0
   23.1947  -21.3088  -11.4521 O   0  0  0  0  0  0  0  0  0  0  0  0
   24.4054  -19.4154  -11.6653 O   0  0  0  0  0  0  0  0  0  0  0  0
  1  2  1  0
  3  2  1  0
  3  7  1  0
  4  3  2  0
  6  8  1  0
  6  7  1  0
  6  5  1  6
  8 10  1  0
  9  8  2  0
 10 11  1  0
 11 12  1  1
 12 13  1  0
 13 14  2  0
 13 21  1  0
 14 15  1  0
 15 16  1  0
 16 17  2  0
 17 18  1  0
 19 18  2  0
 20 19  1  0
 21 20  2  0
 21 16  1  0
 22 11  1  0
 23 22  1  0
 24 22  2  0
M  END
$$$$
