GAW.pdb
     RDKit          3D

 24 25  0  0  1  0  0  0  0  0999 V2000
   29.6962  -22.3824  -16.3811 N   0  0  0  0  0  0  0  0  0  0  0  0
   28.4314  -21.7083  -16.1656 C   0  0  0  0  0  0  0  0  0  0  0  0
   28.4125  -21.0965  -14.8162 C   0  0  0  0  0  0  0  0  0  0  0  0
   29.0307  -21.6559  -13.8939 O   0  0  0  0  0  0  0  0  0  0  0  0
   27.0257  -17.8806  -13.3797 C   0  0  0  0  0  0  0  0  0  0  0  0
   27.5589  -19.2888  -13.2887 C   0  0  2  0  0  0  0  0  0  0  0  0
   27.7038  -19.9051  -14.5978 N   0  0  0  0  0  0  0  0  0  0  0  0
   26.6944  -20.1763  -12.4622 C   0  0  0  0  0  0  0  0  0  0  0  0
   25.7862  -20.8952  -12.9975 O   0  0  0  0  0  0  0  0  0  0  0  0
   26.8142  -20.2842  -11.0575 N   0  0  0  0  0  0  0  0  0  0  0  0
   26.0350  -21.2324  -10.2817 C   0  0  1  0  0  0  0  0  0  0  0  0
   26.8680  -21.5633   -9.0595 C   0  0  0  0  0  0  0  0  0  0  0  0
   27.0185  -20.4511   -8.1240 C   0  0  0  0  0  0  0  0  0  0  0  0
   26.4976  -19.1803   -8.2161 C   0  0  0  0  0  0  0  0  0  0  0  0
   26.8926  -18.4982   -7.1300 N   0  0  0  0  0  0  0  0  0  0  0  0
   27.6512  -19.2553   -6.3210 C   0  0  0  0  0  0  0  0  0  0  0  0
   28.2966  -19.0628   -5.1199 C   0  0  0  0  0  0  0  0  0  0  0  0
   29.0012  -20.0980   -4.5769 C   0  0  0  0  0  0  0  0  0  0  0  0
   29.1098  -21.3423   -5.1626 C   0  0  0  0  0  0  0  0  0  0  0  0
   28.4570  -21.5181   -6.3657 C   0  0  0  0  0  0  0  0  0  0  0  0
   27.7353  -20.4978   -6.9463 C   0  0  0  0  0  0  0  0  0  0  0  0
   24.7862  -20.5629   -9.7598 C   0  0  0  0  0  0  0  0  0  0  0  0
   23.7955  -21.2736   -9.1033 O   0  0  0  0  0  0  0  0  0  0  0  0
   24.6107  -19.3288   -9.9092 O   0  0  0  0  0  0  0  0  0  0  0  0
  1  2  1  0
  3  2  1  0
  3  7  1  0
  4  3  2  0
  6  8  1  0
  6  7  1  0
  6  5  1  6
  8 10  1  0
  9  8  2  0
 10 11  1  0
 11 12  1  1
 12 13  1  0
 13 14  2  0
 13 21  1  0
 14 15  1  0
 15 16  1  0
 16 17  2  0
 17 18  1  0
 19 18  2  0
 20 19  1  0
 21 20  2  0
 21 16  1  0
 22 11  1  0
 23 22  1  0
 24 22  2  0
M  END
$$$$
