GAW.pdb
     RDKit          3D

 24 25  0  0  1  0  0  0  0  0999 V2000
   29.2352  -18.2994  -16.6457 N   0  0  0  0  0  0  0  0  0  0  0  0
   28.6794  -19.4721  -16.0003 C   0  0  0  0  0  0  0  0  0  0  0  0
   27.7829  -19.0591  -14.8952 C   0  0  0  0  0  0  0  0  0  0  0  0
   28.1858  -18.2123  -14.0789 O   0  0  0  0  0  0  0  0  0  0  0  0
   24.1250  -19.3608  -14.2198 C   0  0  0  0  0  0  0  0  0  0  0  0
   25.5534  -19.2557  -13.7463 C   0  0  2  0  0  0  0  0  0  0  0  0
   26.5030  -19.6236  -14.7843 N   0  0  0  0  0  0  0  0  0  0  0  0
   25.8269  -20.1098  -12.5572 C   0  0  0  0  0  0  0  0  0  0  0  0
   26.0974  -21.3502  -12.6856 O   0  0  0  0  0  0  0  0  0  0  0  0
   25.8073  -19.6199  -11.2311 N   0  0  0  0  0  0  0  0  0  0  0  0
   26.0076  -20.4831  -10.0807 C   0  0  1  0  0  0  0  0  0  0  0  0
   26.5769  -19.6025   -8.9864 C   0  0  0  0  0  0  0  0  0  0  0  0
   26.6762  -20.2605   -7.6855 C   0  0  0  0  0  0  0  0  0  0  0  0
   25.9339  -21.3139   -7.2016 C   0  0  0  0  0  0  0  0  0  0  0  0
   26.3729  -21.5870   -5.9633 N   0  0  0  0  0  0  0  0  0  0  0  0
   27.3714  -20.7650   -5.6016 C   0  0  0  0  0  0  0  0  0  0  0  0
   28.1548  -20.6098   -4.4797 C   0  0  0  0  0  0  0  0  0  0  0  0
   29.1043  -19.6294   -4.4694 C   0  0  0  0  0  0  0  0  0  0  0  0
   29.3326  -18.7719   -5.5257 C   0  0  0  0  0  0  0  0  0  0  0  0
   28.5390  -18.9413   -6.6419 C   0  0  0  0  0  0  0  0  0  0  0  0
   27.5696  -19.9195   -6.6913 C   0  0  0  0  0  0  0  0  0  0  0  0
   24.6734  -20.9683   -9.5665 C   0  0  0  0  0  0  0  0  0  0  0  0
   24.5459  -22.1625   -8.8773 O   0  0  0  0  0  0  0  0  0  0  0  0
   23.6311  -20.2934   -9.7524 O   0  0  0  0  0  0  0  0  0  0  0  0
  1  2  1  0
  3  2  1  0
  3  7  1  0
  4  3  2  0
  6  8  1  0
  6  7  1  0
  6  5  1  6
  8 10  1  0
  9  8  2  0
 10 11  1  0
 11 12  1  1
 12 13  1  0
 13 14  2  0
 13 21  1  0
 14 15  1  0
 15 16  1  0
 16 17  2  0
 17 18  1  0
 19 18  2  0
 20 19  1  0
 21 20  2  0
 21 16  1  0
 22 11  1  0
 23 22  1  0
 24 22  2  0
M  END
$$$$
