GAW.pdb
     RDKit          3D

 24 25  0  0  1  0  0  0  0  0999 V2000
   29.8882  -22.6549  -17.4698 N   0  0  0  0  0  0  0  0  0  0  0  0
   28.8433  -21.6521  -17.5254 C   0  0  0  0  0  0  0  0  0  0  0  0
   28.5147  -21.1934  -16.1553 C   0  0  0  0  0  0  0  0  0  0  0  0
   28.7383  -21.9535  -15.1972 O   0  0  0  0  0  0  0  0  0  0  0  0
   27.3207  -17.8964  -14.7168 C   0  0  0  0  0  0  0  0  0  0  0  0
   27.7024  -19.3540  -14.6433 C   0  0  2  0  0  0  0  0  0  0  0  0
   27.9602  -19.9196  -15.9580 N   0  0  0  0  0  0  0  0  0  0  0  0
   26.6567  -20.1875  -13.9876 C   0  0  0  0  0  0  0  0  0  0  0  0
   25.7059  -20.7036  -14.6642 O   0  0  0  0  0  0  0  0  0  0  0  0
   26.6418  -20.4610  -12.6005 N   0  0  0  0  0  0  0  0  0  0  0  0
   25.7542  -21.4484  -12.0126 C   0  0  1  0  0  0  0  0  0  0  0  0
   26.4244  -21.9103  -10.7341 C   0  0  0  0  0  0  0  0  0  0  0  0
   26.4085  -20.9171   -9.6625 C   0  0  0  0  0  0  0  0  0  0  0  0
   25.3709  -20.1040   -9.2660 C   0  0  0  0  0  0  0  0  0  0  0  0
   25.8086  -19.3546   -8.2425 N   0  0  0  0  0  0  0  0  0  0  0  0
   27.0874  -19.6311   -7.9402 C   0  0  0  0  0  0  0  0  0  0  0  0
   27.9964  -19.1718   -7.0134 C   0  0  0  0  0  0  0  0  0  0  0  0
   29.2532  -19.7040   -7.0029 C   0  0  0  0  0  0  0  0  0  0  0  0
   29.6772  -20.6864   -7.8737 C   0  0  0  0  0  0  0  0  0  0  0  0
   28.7539  -21.1353   -8.7958 C   0  0  0  0  0  0  0  0  0  0  0  0
   27.4752  -20.6233   -8.8386 C   0  0  0  0  0  0  0  0  0  0  0  0
   24.4648  -20.7882  -11.5863 C   0  0  0  0  0  0  0  0  0  0  0  0
   23.3429  -21.5259  -11.2477 O   0  0  0  0  0  0  0  0  0  0  0  0
   24.3746  -19.5374  -11.5268 O   0  0  0  0  0  0  0  0  0  0  0  0
  1  2  1  0
  3  2  1  0
  3  7  1  0
  4  3  2  0
  6  8  1  0
  6  7  1  0
  6  5  1  6
  8 10  1  0
  9  8  2  0
 10 11  1  0
 11 12  1  1
 12 13  1  0
 13 14  2  0
 13 21  1  0
 14 15  1  0
 15 16  1  0
 16 17  2  0
 17 18  1  0
 19 18  2  0
 20 19  1  0
 21 20  2  0
 21 16  1  0
 22 11  1  0
 23 22  1  0
 24 22  2  0
M  END
$$$$
