GAW.pdb
     RDKit          3D

 24 25  0  0  1  0  0  0  0  0999 V2000
   21.3664  -18.2412  -14.1685 N   0  0  0  0  0  0  0  0  0  0  0  0
   22.7372  -18.6730  -14.3554 C   0  0  0  0  0  0  0  0  0  0  0  0
   23.1703  -19.4850  -13.1941 C   0  0  0  0  0  0  0  0  0  0  0  0
   22.7101  -19.2197  -12.0700 O   0  0  0  0  0  0  0  0  0  0  0  0
   25.0251  -22.7342  -12.8142 C   0  0  0  0  0  0  0  0  0  0  0  0
   24.5241  -21.4076  -12.2995 C   0  0  2  0  0  0  0  0  0  0  0  0
   24.0858  -20.5329  -13.3754 N   0  0  0  0  0  0  0  0  0  0  0  0
   25.5519  -20.6749  -11.5089 C   0  0  0  0  0  0  0  0  0  0  0  0
   26.3549  -19.8573  -12.0699 O   0  0  0  0  0  0  0  0  0  0  0  0
   25.7088  -20.8284  -10.1121 N   0  0  0  0  0  0  0  0  0  0  0  0
   26.7469  -20.1396   -9.3664 C   0  0  1  0  0  0  0  0  0  0  0  0
   26.3025  -20.1488   -7.9174 C   0  0  0  0  0  0  0  0  0  0  0  0
   27.2231  -19.4687   -7.0091 C   0  0  0  0  0  0  0  0  0  0  0  0
   27.5833  -18.1402   -6.9939 C   0  0  0  0  0  0  0  0  0  0  0  0
   28.4505  -17.9645   -5.9851 N   0  0  0  0  0  0  0  0  0  0  0  0
   28.6837  -19.1131   -5.3295 C   0  0  0  0  0  0  0  0  0  0  0  0
   29.4613  -19.4884   -4.2568 C   0  0  0  0  0  0  0  0  0  0  0  0
   29.4475  -20.7934   -3.8572 C   0  0  0  0  0  0  0  0  0  0  0  0
   28.6937  -21.7743   -4.4677 C   0  0  0  0  0  0  0  0  0  0  0  0
   27.9202  -21.3811   -5.5408 C   0  0  0  0  0  0  0  0  0  0  0  0
   27.9068  -20.0733   -5.9748 C   0  0  0  0  0  0  0  0  0  0  0  0
   28.0259  -20.9412   -9.4099 C   0  0  0  0  0  0  0  0  0  0  0  0
   29.2702  -20.3350   -9.3719 O   0  0  0  0  0  0  0  0  0  0  0  0
   27.9945  -22.1942   -9.4826 O   0  0  0  0  0  0  0  0  0  0  0  0
  1  2  1  0
  3  2  1  0
  3  7  1  0
  4  3  2  0
  6  8  1  0
  6  7  1  0
  6  5  1  6
  8 10  1  0
  9  8  2  0
 10 11  1  0
 11 12  1  1
 12 13  1  0
 13 14  2  0
 13 21  1  0
 14 15  1  0
 15 16  1  0
 16 17  2  0
 17 18  1  0
 19 18  2  0
 20 19  1  0
 21 20  2  0
 21 16  1  0
 22 11  1  0
 23 22  1  0
 24 22  2  0
M  END
$$$$
