GAW.pdb
     RDKit          3D

 24 25  0  0  1  0  0  0  0  0999 V2000
   30.1927  -22.9959  -17.3266 N   0  0  0  0  0  0  0  0  0  0  0  0
   29.0605  -22.0919  -17.3640 C   0  0  0  0  0  0  0  0  0  0  0  0
   28.8339  -21.5157  -16.0178 C   0  0  0  0  0  0  0  0  0  0  0  0
   29.0351  -22.2268  -15.0180 O   0  0  0  0  0  0  0  0  0  0  0  0
   27.7800  -18.1044  -14.7405 C   0  0  0  0  0  0  0  0  0  0  0  0
   28.0245  -19.5880  -14.6184 C   0  0  2  0  0  0  0  0  0  0  0  0
   28.3989  -20.1878  -15.8891 N   0  0  0  0  0  0  0  0  0  0  0  0
   26.8371  -20.3236  -14.1014 C   0  0  0  0  0  0  0  0  0  0  0  0
   25.9529  -20.7877  -14.8957 O   0  0  0  0  0  0  0  0  0  0  0  0
   26.6087  -20.5555  -12.7255 N   0  0  0  0  0  0  0  0  0  0  0  0
   25.6005  -21.4867  -12.2513 C   0  0  1  0  0  0  0  0  0  0  0  0
   26.1386  -22.0700  -10.9601 C   0  0  0  0  0  0  0  0  0  0  0  0
   26.2666  -21.0980   -9.8767 C   0  0  0  0  0  0  0  0  0  0  0  0
   25.3239  -20.2106   -9.4087 C   0  0  0  0  0  0  0  0  0  0  0  0
   25.8803  -19.5175   -8.4034 N   0  0  0  0  0  0  0  0  0  0  0  0
   27.1476  -19.9021   -8.1813 C   0  0  0  0  0  0  0  0  0  0  0  0
   28.1436  -19.5344   -7.3042 C   0  0  0  0  0  0  0  0  0  0  0  0
   29.3510  -20.1668   -7.3754 C   0  0  0  0  0  0  0  0  0  0  0  0
   29.6417  -21.1647   -8.2826 C   0  0  0  0  0  0  0  0  0  0  0  0
   28.6326  -21.5209   -9.1539 C   0  0  0  0  0  0  0  0  0  0  0  0
   27.3998  -20.9063   -9.1139 C   0  0  0  0  0  0  0  0  0  0  0  0
   24.3471  -20.7346  -11.8724 C   0  0  0  0  0  0  0  0  0  0  0  0
   24.3058  -19.3508  -11.8419 O   0  0  0  0  0  0  0  0  0  0  0  0
   23.2960  -21.3516  -11.5712 O   0  0  0  0  0  0  0  0  0  0  0  0
  1  2  1  0
  3  2  1  0
  3  7  1  0
  4  3  2  0
  6  8  1  0
  6  7  1  0
  6  5  1  6
  8 10  1  0
  9  8  2  0
 10 11  1  0
 11 12  1  1
 12 13  1  0
 13 14  2  0
 13 21  1  0
 14 15  1  0
 15 16  1  0
 16 17  2  0
 17 18  1  0
 19 18  2  0
 20 19  1  0
 21 20  2  0
 21 16  1  0
 22 11  1  0
 23 22  1  0
 24 22  2  0
M  END
$$$$
