GAW.pdb
     RDKit          3D

 24 25  0  0  1  0  0  0  0  0999 V2000
   28.3577  -21.6490  -18.4982 N   0  0  0  0  0  0  0  0  0  0  0  0
   27.1158  -22.2496  -18.0537 C   0  0  0  0  0  0  0  0  0  0  0  0
   26.4184  -21.3303  -17.1241 C   0  0  0  0  0  0  0  0  0  0  0  0
   27.0929  -20.5396  -16.4419 O   0  0  0  0  0  0  0  0  0  0  0  0
   22.8162  -20.3760  -16.5616 C   0  0  0  0  0  0  0  0  0  0  0  0
   24.2585  -20.4993  -16.1372 C   0  0  2  0  0  0  0  0  0  0  0  0
   25.0189  -21.3633  -17.0260 N   0  0  0  0  0  0  0  0  0  0  0  0
   24.4050  -21.0298  -14.7533 C   0  0  0  0  0  0  0  0  0  0  0  0
   24.5293  -22.2813  -14.5375 O   0  0  0  0  0  0  0  0  0  0  0  0
   24.4168  -20.2048  -13.6051 N   0  0  0  0  0  0  0  0  0  0  0  0
   24.5121  -20.7452  -12.2608 C   0  0  1  0  0  0  0  0  0  0  0  0
   25.4313  -19.8142  -11.4957 C   0  0  0  0  0  0  0  0  0  0  0  0
   26.8334  -19.9010  -11.8973 C   0  0  0  0  0  0  0  0  0  0  0  0
   27.4105  -19.4961  -13.0796 C   0  0  0  0  0  0  0  0  0  0  0  0
   28.7225  -19.7687  -13.0071 N   0  0  0  0  0  0  0  0  0  0  0  0
   29.0443  -20.3353  -11.8330 C   0  0  0  0  0  0  0  0  0  0  0  0
   30.2044  -20.8006  -11.2550 C   0  0  0  0  0  0  0  0  0  0  0  0
   30.1476  -21.3344  -10.0002 C   0  0  0  0  0  0  0  0  0  0  0  0
   28.9860  -21.4393   -9.2634 C   0  0  0  0  0  0  0  0  0  0  0  0
   27.8328  -20.9683   -9.8574 C   0  0  0  0  0  0  0  0  0  0  0  0
   27.8487  -20.4224  -11.1225 C   0  0  0  0  0  0  0  0  0  0  0  0
   23.1696  -20.6530  -11.5757 C   0  0  0  0  0  0  0  0  0  0  0  0
   22.9265  -21.2658  -10.3581 O   0  0  0  0  0  0  0  0  0  0  0  0
   22.2263  -20.0102  -12.0986 O   0  0  0  0  0  0  0  0  0  0  0  0
  1  2  1  0
  3  2  1  0
  3  7  1  0
  4  3  2  0
  6  8  1  0
  6  7  1  0
  6  5  1  6
  8 10  1  0
  9  8  2  0
 10 11  1  0
 11 12  1  1
 12 13  1  0
 13 14  2  0
 13 21  1  0
 14 15  1  0
 15 16  1  0
 16 17  2  0
 17 18  1  0
 19 18  2  0
 20 19  1  0
 21 20  2  0
 21 16  1  0
 22 11  1  0
 23 22  1  0
 24 22  2  0
M  END
$$$$
