AEW.pdb
     RDKit          3D

 29 30  0  0  1  0  0  0  0  0999 V2000
    6.9382  -13.3432   19.3691 C   0  0  0  0  0  0  0  0  0  0  0  0
    8.2777  -13.4627   20.0649 C   0  0  2  0  0  0  0  0  0  0  0  0
    9.3026  -13.4899   19.0417 N   0  0  0  0  0  0  0  0  0  0  0  0
    8.3553  -14.6641   20.9380 C   0  0  0  0  0  0  0  0  0  0  0  0
    7.4824  -14.7962   21.8286 O   0  0  0  0  0  0  0  0  0  0  0  0
    9.3509  -15.6404   20.8073 N   0  0  0  0  0  0  0  0  0  0  0  0
    9.3856  -16.8330   21.6930 C   0  0  1  0  0  0  0  0  0  0  0  0
   10.1231  -17.8900   20.9253 C   0  0  0  0  0  0  0  0  0  0  0  0
   10.3720  -19.1586   21.6868 C   0  0  0  0  0  0  0  0  0  0  0  0
   11.6441  -19.7707   21.1892 C   0  0  0  0  0  0  0  0  0  0  0  0
   11.6756  -20.4524   20.1397 O   0  0  0  0  0  0  0  0  0  0  0  0
    9.9854  -16.4669   22.9891 C   0  0  0  0  0  0  0  0  0  0  0  0
   10.8654  -15.5510   22.9914 O   0  0  0  0  0  0  0  0  0  0  0  0
   12.8322  -19.5963   21.8852 O   0  0  0  0  0  0  0  0  0  0  0  0
    9.6830  -17.0260   24.2431 N   0  0  0  0  0  0  0  0  0  0  0  0
   10.2736  -16.5377   25.5064 C   0  0  1  0  0  0  0  0  0  0  0  0
    9.9542  -15.0947   25.6675 C   0  0  0  0  0  0  0  0  0  0  0  0
    8.5166  -14.7657   25.7443 C   0  0  0  0  0  0  0  0  0  0  0  0
    7.4940  -15.7162   25.5917 C   0  0  0  0  0  0  0  0  0  0  0  0
    6.2950  -15.1301   25.7435 N   0  0  0  0  0  0  0  0  0  0  0  0
    6.4632  -13.8149   25.9930 C   0  0  0  0  0  0  0  0  0  0  0  0
    5.5491  -12.8051   26.2109 C   0  0  0  0  0  0  0  0  0  0  0  0
    6.0285  -11.5323   26.4342 C   0  0  0  0  0  0  0  0  0  0  0  0
    7.4023  -11.3072   26.4329 C   0  0  0  0  0  0  0  0  0  0  0  0
    8.3070  -12.3220   26.2144 C   0  0  0  0  0  0  0  0  0  0  0  0
    7.8350  -13.6020   25.9907 C   0  0  0  0  0  0  0  0  0  0  0  0
    9.9858  -17.4254   26.6191 C   0  0  0  0  0  0  0  0  0  0  0  0
    9.2223  -18.4471   26.4985 O   0  0  0  0  0  0  0  0  0  0  0  0
   10.5074  -17.2503   27.8910 O   0  0  0  0  0  0  0  0  0  0  0  0
  2  4  1  0
  2  1  1  6
  3  2  1  0
  4  5  2  0
  6  4  1  0
  6  7  1  0
  7  8  1  6
  9 10  1  0
  9  8  1  0
 10 11  2  0
 12 15  1  0
 12  7  1  0
 13 12  2  0
 14 10  1  0
 16 17  1  1
 16 15  1  0
 18 17  1  0
 19 18  2  0
 20 19  1  0
 21 26  2  0
 21 20  1  0
 22 21  1  0
 23 22  2  0
 23 24  1  0
 24 25  2  0
 25 26  1  0
 26 18  1  0
 27 16  1  0
 27 29  1  0
 28 27  2  0
M  END
$$$$
