AEW.pdb
     RDKit          3D

 29 30  0  0  1  0  0  0  0  0999 V2000
    7.4107  -13.1155   18.4770 C   0  0  0  0  0  0  0  0  0  0  0  0
    8.4671  -13.9652   19.1514 C   0  0  2  0  0  0  0  0  0  0  0  0
    8.7538  -15.0841   18.2774 N   0  0  0  0  0  0  0  0  0  0  0  0
    8.0433  -14.4285   20.4995 C   0  0  0  0  0  0  0  0  0  0  0  0
    7.8351  -13.5578   21.3776 O   0  0  0  0  0  0  0  0  0  0  0  0
    7.8701  -15.7801   20.8232 N   0  0  0  0  0  0  0  0  0  0  0  0
    7.4108  -16.1994   22.1727 C   0  0  1  0  0  0  0  0  0  0  0  0
    7.1127  -17.6657   22.0648 C   0  0  0  0  0  0  0  0  0  0  0  0
    6.4725  -18.2660   23.2817 C   0  0  0  0  0  0  0  0  0  0  0  0
    6.3150  -19.7379   23.0596 C   0  0  0  0  0  0  0  0  0  0  0  0
    6.1733  -20.2148   21.9108 O   0  0  0  0  0  0  0  0  0  0  0  0
    8.4312  -15.8397   23.1743 C   0  0  0  0  0  0  0  0  0  0  0  0
    8.9107  -14.6644   23.1285 O   0  0  0  0  0  0  0  0  0  0  0  0
    6.3223  -20.6196   24.1315 O   0  0  0  0  0  0  0  0  0  0  0  0
    8.9371  -16.6661   24.1929 N   0  0  0  0  0  0  0  0  0  0  0  0
    9.8160  -16.1690   25.2716 C   0  0  1  0  0  0  0  0  0  0  0  0
    9.0013  -15.9291   26.4918 C   0  0  0  0  0  0  0  0  0  0  0  0
    7.8683  -14.9963   26.3274 C   0  0  0  0  0  0  0  0  0  0  0  0
    6.5479  -15.4133   26.0921 C   0  0  0  0  0  0  0  0  0  0  0  0
    5.7350  -14.3465   26.0189 N   0  0  0  0  0  0  0  0  0  0  0  0
    6.4532  -13.2180   26.1948 C   0  0  0  0  0  0  0  0  0  0  0  0
    6.0776  -11.8907   26.1988 C   0  0  0  0  0  0  0  0  0  0  0  0
    7.0550  -10.9398   26.3987 C   0  0  0  0  0  0  0  0  0  0  0  0
    8.3743  -11.3420   26.5878 C   0  0  0  0  0  0  0  0  0  0  0  0
    8.7395  -12.6697   26.5821 C   0  0  0  0  0  0  0  0  0  0  0  0
    7.7653  -13.6304   26.3834 C   0  0  0  0  0  0  0  0  0  0  0  0
   11.0190  -16.9712   25.4049 C   0  0  0  0  0  0  0  0  0  0  0  0
   11.1595  -18.0966   24.8090 O   0  0  0  0  0  0  0  0  0  0  0  0
   12.1077  -16.5940   26.1749 O   0  0  0  0  0  0  0  0  0  0  0  0
  2  4  1  0
  2  1  1  6
  3  2  1  0
  4  5  2  0
  6  4  1  0
  6  7  1  0
  7  8  1  6
  9 10  1  0
  9  8  1  0
 10 11  2  0
 12 15  1  0
 12  7  1  0
 13 12  2  0
 14 10  1  0
 16 17  1  1
 16 15  1  0
 18 17  1  0
 19 18  2  0
 20 19  1  0
 21 26  2  0
 21 20  1  0
 22 21  1  0
 23 22  2  0
 23 24  1  0
 24 25  2  0
 25 26  1  0
 26 18  1  0
 27 16  1  0
 27 29  1  0
 28 27  2  0
M  END
$$$$
