AEW.pdb
     RDKit          3D

 29 30  0  0  1  0  0  0  0  0999 V2000
   11.7468  -19.0715   19.7289 C   0  0  0  0  0  0  0  0  0  0  0  0
   10.5514  -18.2092   19.3826 C   0  0  2  0  0  0  0  0  0  0  0  0
   10.7389  -17.7215   18.0316 N   0  0  0  0  0  0  0  0  0  0  0  0
   10.3684  -17.0866   20.3407 C   0  0  0  0  0  0  0  0  0  0  0  0
   11.3975  -16.5261   20.7872 O   0  0  0  0  0  0  0  0  0  0  0  0
    9.1097  -16.6367   20.7588 N   0  0  0  0  0  0  0  0  0  0  0  0
    8.9663  -15.4474   21.6381 C   0  0  1  0  0  0  0  0  0  0  0  0
    7.6106  -14.8794   21.3383 C   0  0  0  0  0  0  0  0  0  0  0  0
    7.5724  -13.9281   20.1788 C   0  0  0  0  0  0  0  0  0  0  0  0
    7.7153  -14.7143   18.9130 C   0  0  0  0  0  0  0  0  0  0  0  0
    7.0156  -15.7281   18.6899 O   0  0  0  0  0  0  0  0  0  0  0  0
    9.1831  -15.8434   23.0417 C   0  0  0  0  0  0  0  0  0  0  0  0
    8.6083  -16.9001   23.4495 O   0  0  0  0  0  0  0  0  0  0  0  0
    8.6358  -14.3358   17.9457 O   0  0  0  0  0  0  0  0  0  0  0  0
    9.9716  -15.1717   23.9922 N   0  0  0  0  0  0  0  0  0  0  0  0
   10.1363  -15.6457   25.3820 C   0  0  1  0  0  0  0  0  0  0  0  0
    8.8351  -16.1687   25.8756 C   0  0  0  0  0  0  0  0  0  0  0  0
    7.7197  -15.2009   25.8773 C   0  0  0  0  0  0  0  0  0  0  0  0
    6.4114  -15.5242   25.4815 C   0  0  0  0  0  0  0  0  0  0  0  0
    5.6115  -14.4542   25.6201 N   0  0  0  0  0  0  0  0  0  0  0  0
    6.3268  -13.4134   26.0949 C   0  0  0  0  0  0  0  0  0  0  0  0
    5.9610  -12.1172   26.3928 C   0  0  0  0  0  0  0  0  0  0  0  0
    6.9326  -11.2599   26.8625 C   0  0  0  0  0  0  0  0  0  0  0  0
    8.2364  -11.7216   27.0198 C   0  0  0  0  0  0  0  0  0  0  0  0
    8.5919  -13.0177   26.7197 C   0  0  0  0  0  0  0  0  0  0  0  0
    7.6234  -13.8848   26.2489 C   0  0  0  0  0  0  0  0  0  0  0  0
   11.3086  -16.4894   25.5325 C   0  0  0  0  0  0  0  0  0  0  0  0
   11.6477  -16.9932   26.6606 O   0  0  0  0  0  0  0  0  0  0  0  0
   12.1502  -16.8225   24.4832 O   0  0  0  0  0  0  0  0  0  0  0  0
  2  4  1  0
  2  1  1  1
  3  2  1  0
  4  5  2  0
  6  4  1  0
  6  7  1  0
  7  8  1  1
  9 10  1  0
  9  8  1  0
 10 11  2  0
 12 15  1  0
 12  7  1  0
 13 12  2  0
 14 10  1  0
 16 17  1  6
 16 15  1  0
 18 17  1  0
 19 18  2  0
 20 19  1  0
 21 26  2  0
 21 20  1  0
 22 21  1  0
 23 22  2  0
 23 24  1  0
 24 25  2  0
 25 26  1  0
 26 18  1  0
 27 16  1  0
 27 29  1  0
 28 27  2  0
M  END
$$$$
