AEW.pdb
     RDKit          3D

 29 30  0  0  1  0  0  0  0  0999 V2000
    8.0906  -12.4833   20.0895 C   0  0  0  0  0  0  0  0  0  0  0  0
    7.9686  -13.8678   19.4888 C   0  0  2  0  0  0  0  0  0  0  0  0
    6.5956  -14.0411   19.0613 N   0  0  0  0  0  0  0  0  0  0  0  0
    8.3756  -14.9347   20.4417 C   0  0  0  0  0  0  0  0  0  0  0  0
    7.5143  -15.3552   21.2504 O   0  0  0  0  0  0  0  0  0  0  0  0
    9.6649  -15.4808   20.4718 N   0  0  0  0  0  0  0  0  0  0  0  0
    9.9865  -16.6583   21.3192 C   0  0  1  0  0  0  0  0  0  0  0  0
   11.1277  -17.3527   20.6367 C   0  0  0  0  0  0  0  0  0  0  0  0
   11.6810  -18.5307   21.3831 C   0  0  0  0  0  0  0  0  0  0  0  0
   12.8070  -19.1126   20.5869 C   0  0  0  0  0  0  0  0  0  0  0  0
   12.6751  -20.1843   19.9535 O   0  0  0  0  0  0  0  0  0  0  0  0
   10.2587  -16.2132   22.6982 C   0  0  0  0  0  0  0  0  0  0  0  0
   10.9326  -15.1473   22.8493 O   0  0  0  0  0  0  0  0  0  0  0  0
   14.0374  -18.4728   20.5301 O   0  0  0  0  0  0  0  0  0  0  0  0
    9.8446  -16.8468   23.8830 N   0  0  0  0  0  0  0  0  0  0  0  0
   10.2037  -16.3530   25.2285 C   0  0  1  0  0  0  0  0  0  0  0  0
    9.8338  -14.9170   25.3349 C   0  0  0  0  0  0  0  0  0  0  0  0
    8.3972  -14.6433   25.5403 C   0  0  0  0  0  0  0  0  0  0  0  0
    7.3959  -15.6203   25.4163 C   0  0  0  0  0  0  0  0  0  0  0  0
    6.1950  -15.0855   25.6917 N   0  0  0  0  0  0  0  0  0  0  0  0
    6.3413  -13.7797   25.9981 C   0  0  0  0  0  0  0  0  0  0  0  0
    5.4162  -12.8153   26.3402 C   0  0  0  0  0  0  0  0  0  0  0  0
    5.8718  -11.5395   26.5940 C   0  0  0  0  0  0  0  0  0  0  0  0
    7.2335  -11.2662   26.4986 C   0  0  0  0  0  0  0  0  0  0  0  0
    8.1493  -12.2359   26.1564 C   0  0  0  0  0  0  0  0  0  0  0  0
    7.7013  -13.5187   25.9011 C   0  0  0  0  0  0  0  0  0  0  0  0
    9.7494  -17.2508   26.2755 C   0  0  0  0  0  0  0  0  0  0  0  0
    9.1049  -18.3281   26.0199 O   0  0  0  0  0  0  0  0  0  0  0  0
    9.9731  -17.0267   27.6246 O   0  0  0  0  0  0  0  0  0  0  0  0
  2  4  1  0
  2  1  1  1
  3  2  1  0
  4  5  2  0
  6  4  1  0
  6  7  1  0
  7  8  1  6
  9 10  1  0
  9  8  1  0
 10 11  2  0
 12 15  1  0
 12  7  1  0
 13 12  2  0
 14 10  1  0
 16 17  1  1
 16 15  1  0
 18 17  1  0
 19 18  2  0
 20 19  1  0
 21 26  2  0
 21 20  1  0
 22 21  1  0
 23 22  2  0
 23 24  1  0
 24 25  2  0
 25 26  1  0
 26 18  1  0
 27 16  1  0
 27 29  1  0
 28 27  2  0
M  END
$$$$
