AEW.pdb
     RDKit          3D

 29 30  0  0  1  0  0  0  0  0999 V2000
    6.9331  -13.7031   21.7779 C   0  0  0  0  0  0  0  0  0  0  0  0
    7.2342  -14.9340   20.9491 C   0  0  2  0  0  0  0  0  0  0  0  0
    5.9686  -15.5193   20.5571 N   0  0  0  0  0  0  0  0  0  0  0  0
    8.0786  -15.9152   21.6814 C   0  0  0  0  0  0  0  0  0  0  0  0
    7.5421  -16.9870   22.0500 O   0  0  0  0  0  0  0  0  0  0  0  0
    9.4304  -15.6927   21.9721 N   0  0  0  0  0  0  0  0  0  0  0  0
   10.3448  -16.8157   22.3050 C   0  0  1  0  0  0  0  0  0  0  0  0
   11.5876  -16.5828   21.4978 C   0  0  0  0  0  0  0  0  0  0  0  0
   12.6602  -17.6147   21.6872 C   0  0  0  0  0  0  0  0  0  0  0  0
   13.9906  -16.9637   21.4702 C   0  0  0  0  0  0  0  0  0  0  0  0
   14.9371  -17.1258   22.2734 O   0  0  0  0  0  0  0  0  0  0  0  0
   10.5469  -16.8704   23.7644 C   0  0  0  0  0  0  0  0  0  0  0  0
   11.2219  -17.8413   24.2281 O   0  0  0  0  0  0  0  0  0  0  0  0
   14.2106  -16.1565   20.3628 O   0  0  0  0  0  0  0  0  0  0  0  0
   10.0704  -15.9496   24.7139 N   0  0  0  0  0  0  0  0  0  0  0  0
   10.1801  -16.1659   26.1714 C   0  0  1  0  0  0  0  0  0  0  0  0
    8.8190  -16.3526   26.7398 C   0  0  0  0  0  0  0  0  0  0  0  0
    7.8233  -15.3321   26.3551 C   0  0  0  0  0  0  0  0  0  0  0  0
    6.5540  -15.6421   25.8399 C   0  0  0  0  0  0  0  0  0  0  0  0
    5.8613  -14.5137   25.6140 N   0  0  0  0  0  0  0  0  0  0  0  0
    6.6124  -13.4463   25.9557 C   0  0  0  0  0  0  0  0  0  0  0  0
    6.3498  -12.0931   25.9018 C   0  0  0  0  0  0  0  0  0  0  0  0
    7.3344  -11.2234   26.3186 C   0  0  0  0  0  0  0  0  0  0  0  0
    8.5480  -11.7299   26.7752 C   0  0  0  0  0  0  0  0  0  0  0  0
    8.8008  -13.0826   26.8253 C   0  0  0  0  0  0  0  0  0  0  0  0
    7.8183  -13.9623   26.4101 C   0  0  0  0  0  0  0  0  0  0  0  0
   11.1942  -17.1523   26.4992 C   0  0  0  0  0  0  0  0  0  0  0  0
   11.4855  -17.4570   27.7090 O   0  0  0  0  0  0  0  0  0  0  0  0
   11.9237  -17.8442   25.5455 O   0  0  0  0  0  0  0  0  0  0  0  0
  2  4  1  0
  2  1  1  1
  3  2  1  0
  4  5  2  0
  6  4  1  0
  6  7  1  0
  7  8  1  6
  9 10  1  0
  9  8  1  0
 10 11  2  0
 12 15  1  0
 12  7  1  0
 13 12  2  0
 14 10  1  0
 16 17  1  6
 16 15  1  0
 18 17  1  0
 19 18  2  0
 20 19  1  0
 21 26  2  0
 21 20  1  0
 22 21  1  0
 23 22  2  0
 23 24  1  0
 24 25  2  0
 25 26  1  0
 26 18  1  0
 27 16  1  0
 27 29  1  0
 28 27  2  0
M  END
$$$$
