AEW.pdb
     RDKit          3D

 29 30  0  0  1  0  0  0  0  0999 V2000
    8.3145  -12.5962   19.2221 C   0  0  0  0  0  0  0  0  0  0  0  0
    8.5308  -13.9474   18.5740 C   0  0  2  0  0  0  0  0  0  0  0  0
    7.3707  -14.2316   17.7545 N   0  0  0  0  0  0  0  0  0  0  0  0
    8.7610  -15.0233   19.5746 C   0  0  0  0  0  0  0  0  0  0  0  0
    7.8264  -15.8315   19.7887 O   0  0  0  0  0  0  0  0  0  0  0  0
    9.9634  -15.1676   20.2781 N   0  0  0  0  0  0  0  0  0  0  0  0
   10.2396  -16.3758   21.0978 C   0  0  1  0  0  0  0  0  0  0  0  0
   10.9669  -17.3255   20.1925 C   0  0  0  0  0  0  0  0  0  0  0  0
   11.8155  -16.6668   19.1451 C   0  0  0  0  0  0  0  0  0  0  0  0
   13.1113  -17.4096   19.0459 C   0  0  0  0  0  0  0  0  0  0  0  0
   13.1538  -18.6044   18.6747 O   0  0  0  0  0  0  0  0  0  0  0  0
   10.9723  -15.9873   22.3168 C   0  0  0  0  0  0  0  0  0  0  0  0
   12.0625  -16.5900   22.5642 O   0  0  0  0  0  0  0  0  0  0  0  0
   14.3096  -16.7868   19.3659 O   0  0  0  0  0  0  0  0  0  0  0  0
   10.5929  -15.0049   23.2481 N   0  0  0  0  0  0  0  0  0  0  0  0
    9.6577  -15.2685   24.3612 C   0  0  1  0  0  0  0  0  0  0  0  0
    8.2633  -15.0840   23.8797 C   0  0  0  0  0  0  0  0  0  0  0  0
    7.3000  -14.6008   24.8894 C   0  0  0  0  0  0  0  0  0  0  0  0
    6.2576  -15.3875   25.4062 C   0  0  0  0  0  0  0  0  0  0  0  0
    5.5694  -14.6921   26.3264 N   0  0  0  0  0  0  0  0  0  0  0  0
    6.1041  -13.4601   26.4549 C   0  0  0  0  0  0  0  0  0  0  0  0
    5.7514  -12.3932   27.2550 C   0  0  0  0  0  0  0  0  0  0  0  0
    6.4939  -11.2360   27.1588 C   0  0  0  0  0  0  0  0  0  0  0  0
    7.5629  -11.1795   26.2689 C   0  0  0  0  0  0  0  0  0  0  0  0
    7.9073  -12.2500   25.4742 C   0  0  0  0  0  0  0  0  0  0  0  0
    7.1685  -13.4152   25.5650 C   0  0  0  0  0  0  0  0  0  0  0  0
    9.9778  -16.5011   25.0591 C   0  0  0  0  0  0  0  0  0  0  0  0
   10.2865  -16.5222   26.3023 O   0  0  0  0  0  0  0  0  0  0  0  0
    9.9741  -17.7465   24.4512 O   0  0  0  0  0  0  0  0  0  0  0  0
  2  4  1  0
  2  1  1  1
  3  2  1  0
  4  5  2  0
  6  4  1  0
  6  7  1  0
  7  8  1  6
  9 10  1  0
  9  8  1  0
 10 11  2  0
 12 15  1  0
 12  7  1  0
 13 12  2  0
 14 10  1  0
 16 17  1  6
 16 15  1  0
 18 17  1  0
 19 18  2  0
 20 19  1  0
 21 26  2  0
 21 20  1  0
 22 21  1  0
 23 22  2  0
 23 24  1  0
 24 25  2  0
 25 26  1  0
 26 18  1  0
 27 16  1  0
 27 29  1  0
 28 27  2  0
M  END
$$$$
