AEW.pdb
     RDKit          3D

 29 30  0  0  1  0  0  0  0  0999 V2000
   10.6103  -21.0573   20.8924 C   0  0  0  0  0  0  0  0  0  0  0  0
   10.4680  -20.4904   22.2892 C   0  0  2  0  0  0  0  0  0  0  0  0
    9.0941  -20.6863   22.7042 N   0  0  0  0  0  0  0  0  0  0  0  0
   10.8529  -19.0556   22.3582 C   0  0  0  0  0  0  0  0  0  0  0  0
   12.0497  -18.7602   22.1280 O   0  0  0  0  0  0  0  0  0  0  0  0
    9.9446  -18.0350   22.6662 N   0  0  0  0  0  0  0  0  0  0  0  0
   10.3824  -16.6199   22.7851 C   0  0  1  0  0  0  0  0  0  0  0  0
    9.4101  -15.8220   21.9675 C   0  0  0  0  0  0  0  0  0  0  0  0
    8.8046  -16.5648   20.8131 C   0  0  0  0  0  0  0  0  0  0  0  0
    7.8010  -15.6752   20.1484 C   0  0  0  0  0  0  0  0  0  0  0  0
    6.5723  -15.8139   20.3444 O   0  0  0  0  0  0  0  0  0  0  0  0
   10.4584  -16.2458   24.2092 C   0  0  0  0  0  0  0  0  0  0  0  0
   10.9797  -15.1234   24.4947 O   0  0  0  0  0  0  0  0  0  0  0  0
    8.2108  -14.6644   19.2900 O   0  0  0  0  0  0  0  0  0  0  0  0
   10.0067  -17.0050   25.3028 N   0  0  0  0  0  0  0  0  0  0  0  0
   10.1933  -16.5848   26.7071 C   0  0  1  0  0  0  0  0  0  0  0  0
    8.8633  -16.4663   27.3607 C   0  0  0  0  0  0  0  0  0  0  0  0
    7.8759  -15.6313   26.6477 C   0  0  0  0  0  0  0  0  0  0  0  0
    6.8030  -16.1578   25.9099 C   0  0  0  0  0  0  0  0  0  0  0  0
    6.0597  -15.1602   25.4036 N   0  0  0  0  0  0  0  0  0  0  0  0
    6.5872  -13.9733   25.7686 C   0  0  0  0  0  0  0  0  0  0  0  0
    6.1946  -12.6795   25.4952 C   0  0  0  0  0  0  0  0  0  0  0  0
    6.9525  -11.6488   26.0080 C   0  0  0  0  0  0  0  0  0  0  0  0
    8.0764  -11.9406   26.7759 C   0  0  0  0  0  0  0  0  0  0  0  0
    8.4603  -13.2357   27.0433 C   0  0  0  0  0  0  0  0  0  0  0  0
    7.7052  -14.2758   26.5339 C   0  0  0  0  0  0  0  0  0  0  0  0
   11.2125  -17.3718   27.3785 C   0  0  0  0  0  0  0  0  0  0  0  0
   11.7831  -18.3724   26.8176 O   0  0  0  0  0  0  0  0  0  0  0  0
   11.6544  -17.1113   28.6658 O   0  0  0  0  0  0  0  0  0  0  0  0
  2  4  1  0
  2  1  1  6
  3  2  1  0
  4  5  2  0
  6  4  1  0
  6  7  1  0
  7  8  1  6
  9 10  1  0
  9  8  1  0
 10 11  2  0
 12 15  1  0
 12  7  1  0
 13 12  2  0
 14 10  1  0
 16 17  1  1
 16 15  1  0
 18 17  1  0
 19 18  2  0
 20 19  1  0
 21 26  2  0
 21 20  1  0
 22 21  1  0
 23 22  2  0
 23 24  1  0
 24 25  2  0
 25 26  1  0
 26 18  1  0
 27 16  1  0
 27 29  1  0
 28 27  2  0
M  END
$$$$
