ADQ.pdb
     RDKit          3D

 23 22  0  0  1  0  0  0  0  0999 V2000
   24.7379  -20.9426  -10.6470 C   0  0  0  0  0  0  0  0  0  0  0  0
   25.3313  -21.4182  -11.9550 C   0  0  2  0  0  0  0  0  0  0  0  0
   26.7572  -21.4864  -11.8064 N   0  0  0  0  0  0  0  0  0  0  0  0
   24.9306  -20.5253  -13.0802 C   0  0  0  0  0  0  0  0  0  0  0  0
   25.0712  -19.2895  -12.9320 O   0  0  0  0  0  0  0  0  0  0  0  0
   24.4112  -21.0885  -14.2653 N   0  0  0  0  0  0  0  0  0  0  0  0
   23.9414  -20.2600  -15.3577 C   0  0  1  0  0  0  0  0  0  0  0  0
   24.6734  -20.5598  -16.6357 C   0  0  0  0  0  0  0  0  0  0  0  0
   26.0264  -19.9754  -16.5800 C   0  0  0  0  0  0  0  0  0  0  0  0
   27.0629  -20.5403  -17.0456 O   0  0  0  0  0  0  0  0  0  0  0  0
   22.4831  -20.4420  -15.5850 C   0  0  0  0  0  0  0  0  0  0  0  0
   22.1183  -21.5344  -16.0811 O   0  0  0  0  0  0  0  0  0  0  0  0
   26.2052  -18.7173  -15.9806 O   0  0  0  0  0  0  0  0  0  0  0  0
   20.0143  -22.7890  -11.7211 N   0  0  0  0  0  0  0  0  0  0  0  0
   19.0405  -22.8292  -12.7767 C   0  0  0  0  0  0  0  0  0  0  0  0
   18.1735  -23.7578  -12.7218 O   0  0  0  0  0  0  0  0  0  0  0  0
   19.0382  -21.8434  -13.8642 C   0  0  0  0  0  0  0  0  0  0  0  0
   20.1556  -20.8688  -13.8523 C   0  0  0  0  0  0  0  0  0  0  0  0
   20.1247  -19.8982  -14.9690 C   0  0  2  0  0  0  0  0  0  0  0  0
   21.5200  -19.4787  -15.2805 N   0  0  0  0  0  0  0  0  0  0  0  0
   19.3424  -18.6936  -14.8818 C   0  0  0  0  0  0  0  0  0  0  0  0
   19.8029  -17.6049  -14.4622 O   0  0  0  0  0  0  0  0  0  0  0  0
   17.9931  -18.6499  -15.2648 O   0  0  0  0  0  0  0  0  0  0  0  0
  2  4  1  0
  2  3  1  0
  2  1  1  1
  4  5  2  0
  6  7  1  0
  6  4  1  0
  7 11  1  0
  7  8  1  6
  9  8  1  0
 10  9  2  0
 11 20  1  0
 11 12  2  0
 13  9  1  0
 14 15  1  0
 15 17  1  0
 16 15  2  0
 17 18  1  0
 19 18  1  1
 20 19  1  0
 21 19  1  0
 21 23  1  0
 22 21  2  0
M  END
$$$$
