ADQ.pdb
     RDKit          3D

 23 22  0  0  1  0  0  0  0  0999 V2000
   14.2573  -12.7109  -13.9795 C   0  0  0  0  0  0  0  0  0  0  0  0
   15.6614  -12.5857  -14.5292 C   0  0  2  0  0  0  0  0  0  0  0  0
   16.2513  -13.8937  -14.5648 N   0  0  0  0  0  0  0  0  0  0  0  0
   16.4706  -11.6317  -13.7174 C   0  0  0  0  0  0  0  0  0  0  0  0
   17.2576  -12.1024  -12.8643 O   0  0  0  0  0  0  0  0  0  0  0  0
   16.3301  -10.2436  -13.9292 N   0  0  0  0  0  0  0  0  0  0  0  0
   17.1515   -9.2805  -13.2234 C   0  0  1  0  0  0  0  0  0  0  0  0
   18.1490   -8.6264  -14.1379 C   0  0  0  0  0  0  0  0  0  0  0  0
   19.0085   -7.7136  -13.3612 C   0  0  0  0  0  0  0  0  0  0  0  0
   19.4229   -7.9568  -12.1868 O   0  0  0  0  0  0  0  0  0  0  0  0
   16.3197   -8.2253  -12.5861 C   0  0  0  0  0  0  0  0  0  0  0  0
   15.4460   -7.6818  -13.3028 O   0  0  0  0  0  0  0  0  0  0  0  0
   19.4072   -6.4944  -13.9344 O   0  0  0  0  0  0  0  0  0  0  0  0
   14.6969   -7.6893   -6.5006 N   0  0  0  0  0  0  0  0  0  0  0  0
   14.1136   -6.5435   -7.1418 C   0  0  0  0  0  0  0  0  0  0  0  0
   13.4163   -5.7707   -6.4112 O   0  0  0  0  0  0  0  0  0  0  0  0
   14.3163   -6.2700   -8.5696 C   0  0  0  0  0  0  0  0  0  0  0  0
   15.1875   -7.2283   -9.2915 C   0  0  0  0  0  0  0  0  0  0  0  0
   15.5035   -6.8311  -10.6816 C   0  0  2  0  0  0  0  0  0  0  0  0
   16.4591   -7.8181  -11.2584 N   0  0  0  0  0  0  0  0  0  0  0  0
   16.0317   -5.5256  -10.9769 C   0  0  0  0  0  0  0  0  0  0  0  0
   15.3114   -4.5503  -11.2985 O   0  0  0  0  0  0  0  0  0  0  0  0
   17.4060   -5.2466  -10.9254 O   0  0  0  0  0  0  0  0  0  0  0  0
  2  4  1  0
  2  3  1  0
  2  1  1  1
  4  5  2  0
  6  7  1  0
  6  4  1  0
  7 11  1  0
  7  8  1  6
  9  8  1  0
 10  9  2  0
 11 20  1  0
 11 12  2  0
 13  9  1  0
 14 15  1  0
 15 17  1  0
 16 15  2  0
 17 18  1  0
 19 18  1  1
 20 19  1  0
 21 19  1  0
 21 23  1  0
 22 21  2  0
M  END
$$$$
