ADQ.pdb
     RDKit          3D

 23 22  0  0  1  0  0  0  0  0999 V2000
   19.1633  -14.6501  -15.0001 C   0  0  0  0  0  0  0  0  0  0  0  0
   18.3491  -14.2421  -16.2083 C   0  0  2  0  0  0  0  0  0  0  0  0
   18.6304  -15.1609  -17.2745 N   0  0  0  0  0  0  0  0  0  0  0  0
   18.6389  -12.8319  -16.5973 C   0  0  0  0  0  0  0  0  0  0  0  0
   19.7927  -12.5556  -16.9989 O   0  0  0  0  0  0  0  0  0  0  0  0
   17.6199  -11.8602  -16.5041 N   0  0  0  0  0  0  0  0  0  0  0  0
   17.8769  -10.4609  -16.7807 C   0  0  1  0  0  0  0  0  0  0  0  0
   16.6448   -9.7585  -17.2783 C   0  0  0  0  0  0  0  0  0  0  0  0
   16.2954  -10.2623  -18.6197 C   0  0  0  0  0  0  0  0  0  0  0  0
   15.3544  -11.0827  -18.8464 O   0  0  0  0  0  0  0  0  0  0  0  0
   18.3776   -9.7546  -15.5717 C   0  0  0  0  0  0  0  0  0  0  0  0
   17.9026  -10.1128  -14.4679 O   0  0  0  0  0  0  0  0  0  0  0  0
   17.0340   -9.8218  -19.7308 O   0  0  0  0  0  0  0  0  0  0  0  0
   22.0112   -4.9294  -14.7313 N   0  0  0  0  0  0  0  0  0  0  0  0
   22.1521   -5.6117  -13.4748 C   0  0  0  0  0  0  0  0  0  0  0  0
   22.5896   -4.9271  -12.4965 O   0  0  0  0  0  0  0  0  0  0  0  0
   21.8021   -7.0289  -13.3212 C   0  0  0  0  0  0  0  0  0  0  0  0
   21.2106   -7.6792  -14.5152 C   0  0  0  0  0  0  0  0  0  0  0  0
   19.8150   -8.1344  -14.3281 C   0  0  2  0  0  0  0  0  0  0  0  0
   19.3298   -8.7345  -15.6027 N   0  0  0  0  0  0  0  0  0  0  0  0
   18.7920   -7.2241  -13.8860 C   0  0  0  0  0  0  0  0  0  0  0  0
   18.1172   -6.5160  -14.6712 O   0  0  0  0  0  0  0  0  0  0  0  0
   18.4721   -7.0617  -12.5293 O   0  0  0  0  0  0  0  0  0  0  0  0
  2  4  1  0
  2  3  1  0
  2  1  1  1
  4  5  2  0
  6  7  1  0
  6  4  1  0
  7 11  1  0
  7  8  1  1
  9  8  1  0
 10  9  2  0
 11 20  1  0
 11 12  2  0
 13  9  1  0
 14 15  1  0
 15 17  1  0
 16 15  2  0
 17 18  1  0
 19 18  1  6
 20 19  1  0
 21 19  1  0
 21 23  1  0
 22 21  2  0
M  END
$$$$
