ADQ.pdb
     RDKit          3D

 23 22  0  0  1  0  0  0  0  0999 V2000
   22.1694  -12.8624  -17.5791 C   0  0  0  0  0  0  0  0  0  0  0  0
   20.6978  -12.5489  -17.4196 C   0  0  2  0  0  0  0  0  0  0  0  0
   20.0025  -13.0431  -18.5738 N   0  0  0  0  0  0  0  0  0  0  0  0
   20.4807  -11.0869  -17.2221 C   0  0  0  0  0  0  0  0  0  0  0  0
   20.8588  -10.3065  -18.1260 O   0  0  0  0  0  0  0  0  0  0  0  0
   19.8634  -10.6279  -16.0390 N   0  0  0  0  0  0  0  0  0  0  0  0
   19.4786   -9.2406  -15.8717 C   0  0  1  0  0  0  0  0  0  0  0  0
   18.2468   -9.1054  -15.0213 C   0  0  0  0  0  0  0  0  0  0  0  0
   17.7781   -7.7072  -15.0475 C   0  0  0  0  0  0  0  0  0  0  0  0
   17.9808   -6.9091  -16.0129 O   0  0  0  0  0  0  0  0  0  0  0  0
   20.5758   -8.4460  -15.2584 C   0  0  0  0  0  0  0  0  0  0  0  0
   21.2029   -8.9801  -14.3129 O   0  0  0  0  0  0  0  0  0  0  0  0
   17.0606   -7.2044  -13.9491 O   0  0  0  0  0  0  0  0  0  0  0  0
   24.9833   -5.6134  -18.3199 N   0  0  0  0  0  0  0  0  0  0  0  0
   25.2708   -5.2531  -16.9591 C   0  0  0  0  0  0  0  0  0  0  0  0
   26.3786   -4.6674  -16.7428 O   0  0  0  0  0  0  0  0  0  0  0  0
   24.3306   -5.5389  -15.8686 C   0  0  0  0  0  0  0  0  0  0  0  0
   23.1196   -6.3062  -16.2470 C   0  0  0  0  0  0  0  0  0  0  0  0
   22.1707   -6.5282  -15.1333 C   0  0  2  0  0  0  0  0  0  0  0  0
   20.9354   -7.1628  -15.6732 N   0  0  0  0  0  0  0  0  0  0  0  0
   21.7421   -5.4385  -14.2971 C   0  0  0  0  0  0  0  0  0  0  0  0
   20.7613   -4.7065  -14.5724 O   0  0  0  0  0  0  0  0  0  0  0  0
   22.3977   -5.1130  -13.0998 O   0  0  0  0  0  0  0  0  0  0  0  0
  2  4  1  0
  2  3  1  0
  2  1  1  6
  4  5  2  0
  6  7  1  0
  6  4  1  0
  7 11  1  0
  7  8  1  1
  9  8  1  0
 10  9  2  0
 11 20  1  0
 11 12  2  0
 13  9  1  0
 14 15  1  0
 15 17  1  0
 16 15  2  0
 17 18  1  0
 19 18  1  6
 20 19  1  0
 21 19  1  0
 21 23  1  0
 22 21  2  0
M  END
$$$$
