ADQ.pdb
     RDKit          3D

 23 22  0  0  1  0  0  0  0  0999 V2000
   17.9916   -9.9967  -20.0482 C   0  0  0  0  0  0  0  0  0  0  0  0
   19.2919   -9.7937  -19.3017 C   0  0  2  0  0  0  0  0  0  0  0  0
   19.8964  -11.0779  -19.0888 N   0  0  0  0  0  0  0  0  0  0  0  0
   19.0649   -9.0655  -18.0202 C   0  0  0  0  0  0  0  0  0  0  0  0
   18.6171   -7.8972  -18.0765 O   0  0  0  0  0  0  0  0  0  0  0  0
   19.3566   -9.7034  -16.7957 N   0  0  0  0  0  0  0  0  0  0  0  0
   19.1708   -9.0304  -15.5255 C   0  0  1  0  0  0  0  0  0  0  0  0
   18.7791   -9.9933  -14.4399 C   0  0  0  0  0  0  0  0  0  0  0  0
   17.3540  -10.3460  -14.5815 C   0  0  0  0  0  0  0  0  0  0  0  0
   16.4896   -9.5987  -15.1331 O   0  0  0  0  0  0  0  0  0  0  0  0
   20.4047   -8.3125  -15.1091 C   0  0  0  0  0  0  0  0  0  0  0  0
   21.4965   -8.8925  -15.3187 O   0  0  0  0  0  0  0  0  0  0  0  0
   16.9009  -11.5795  -14.0842 O   0  0  0  0  0  0  0  0  0  0  0  0
   23.2727   -5.0386  -18.1944 N   0  0  0  0  0  0  0  0  0  0  0  0
   23.9211   -4.6584  -16.9700 C   0  0  0  0  0  0  0  0  0  0  0  0
   24.9569   -3.9279  -17.0726 O   0  0  0  0  0  0  0  0  0  0  0  0
   23.4117   -5.0843  -15.6609 C   0  0  0  0  0  0  0  0  0  0  0  0
   22.1931   -5.9287  -15.6878 C   0  0  0  0  0  0  0  0  0  0  0  0
   21.6921   -6.3119  -14.3491 C   0  0  2  0  0  0  0  0  0  0  0  0
   20.4090   -7.0521  -14.5095 N   0  0  0  0  0  0  0  0  0  0  0  0
   21.4711   -5.3210  -13.3295 C   0  0  0  0  0  0  0  0  0  0  0  0
   20.3355   -4.8707  -13.0444 O   0  0  0  0  0  0  0  0  0  0  0  0
   22.5219   -4.7815  -12.5718 O   0  0  0  0  0  0  0  0  0  0  0  0
  2  4  1  0
  2  3  1  0
  2  1  1  1
  4  5  2  0
  6  7  1  0
  6  4  1  0
  7 11  1  0
  7  8  1  1
  9  8  1  0
 10  9  2  0
 11 20  1  0
 11 12  2  0
 13  9  1  0
 14 15  1  0
 15 17  1  0
 16 15  2  0
 17 18  1  0
 19 18  1  6
 20 19  1  0
 21 19  1  0
 21 23  1  0
 22 21  2  0
M  END
$$$$
