ADQ.pdb
     RDKit          3D

 23 22  0  0  1  0  0  0  0  0999 V2000
   14.9452  -13.1763  -14.5425 C   0  0  0  0  0  0  0  0  0  0  0  0
   14.4976  -11.7443  -14.3471 C   0  0  2  0  0  0  0  0  0  0  0  0
   14.1706  -11.1934  -15.6315 N   0  0  0  0  0  0  0  0  0  0  0  0
   15.5467  -10.9464  -13.6495 C   0  0  0  0  0  0  0  0  0  0  0  0
   15.9353  -11.3373  -12.5248 O   0  0  0  0  0  0  0  0  0  0  0  0
   16.0665   -9.7886  -14.2666 N   0  0  0  0  0  0  0  0  0  0  0  0
   17.0402   -8.9455  -13.6020 C   0  0  1  0  0  0  0  0  0  0  0  0
   18.0781   -8.4344  -14.5615 C   0  0  0  0  0  0  0  0  0  0  0  0
   19.0810   -9.4864  -14.8125 C   0  0  0  0  0  0  0  0  0  0  0  0
   19.3199   -9.9803  -15.9566 O   0  0  0  0  0  0  0  0  0  0  0  0
   16.3872   -7.7863  -12.9380 C   0  0  0  0  0  0  0  0  0  0  0  0
   15.4480   -7.2327  -13.5576 O   0  0  0  0  0  0  0  0  0  0  0  0
   19.8313   -9.9885  -13.7359 O   0  0  0  0  0  0  0  0  0  0  0  0
   15.3954   -6.7839   -6.7805 N   0  0  0  0  0  0  0  0  0  0  0  0
   14.2672   -6.7096   -7.6669 C   0  0  0  0  0  0  0  0  0  0  0  0
   13.1146   -6.7922   -7.1361 O   0  0  0  0  0  0  0  0  0  0  0  0
   14.4321   -6.5393   -9.1155 C   0  0  0  0  0  0  0  0  0  0  0  0
   15.8315   -6.4955   -9.6035 C   0  0  0  0  0  0  0  0  0  0  0  0
   15.9601   -6.2086  -11.0496 C   0  0  2  0  0  0  0  0  0  0  0  0
   16.7587   -7.2935  -11.6861 N   0  0  0  0  0  0  0  0  0  0  0  0
   16.5150   -4.9639  -11.5113 C   0  0  0  0  0  0  0  0  0  0  0  0
   17.6765   -4.8594  -11.9732 O   0  0  0  0  0  0  0  0  0  0  0  0
   15.7881   -3.7640  -11.4779 O   0  0  0  0  0  0  0  0  0  0  0  0
  2  4  1  0
  2  3  1  0
  2  1  1  6
  4  5  2  0
  6  7  1  0
  6  4  1  0
  7 11  1  0
  7  8  1  6
  9  8  1  0
 10  9  2  0
 11 20  1  0
 11 12  2  0
 13  9  1  0
 14 15  1  0
 15 17  1  0
 16 15  2  0
 17 18  1  0
 19 18  1  1
 20 19  1  0
 21 19  1  0
 21 23  1  0
 22 21  2  0
M  END
$$$$
