ADQ.pdb
     RDKit          3D

 23 22  0  0  1  0  0  0  0  0999 V2000
   15.9632  -13.9416  -18.3465 C   0  0  0  0  0  0  0  0  0  0  0  0
   16.5175  -12.5510  -18.5662 C   0  0  2  0  0  0  0  0  0  0  0  0
   17.0330  -12.4758  -19.9035 N   0  0  0  0  0  0  0  0  0  0  0  0
   17.5575  -12.2229  -17.5491 C   0  0  0  0  0  0  0  0  0  0  0  0
   17.2117  -12.1725  -16.3463 O   0  0  0  0  0  0  0  0  0  0  0  0
   18.8848  -11.9814  -17.9631 N   0  0  0  0  0  0  0  0  0  0  0  0
   19.9215  -11.6191  -17.0173 C   0  0  1  0  0  0  0  0  0  0  0  0
   21.1925  -12.3810  -17.2687 C   0  0  0  0  0  0  0  0  0  0  0  0
   22.1529  -12.1142  -16.1817 C   0  0  0  0  0  0  0  0  0  0  0  0
   21.8472  -11.5485  -15.0878 O   0  0  0  0  0  0  0  0  0  0  0  0
   20.2159  -10.1625  -17.0703 C   0  0  0  0  0  0  0  0  0  0  0  0
   19.9200   -9.5622  -18.1307 O   0  0  0  0  0  0  0  0  0  0  0  0
   23.4941  -12.5007  -16.3423 O   0  0  0  0  0  0  0  0  0  0  0  0
   16.5695   -6.6828  -16.6732 N   0  0  0  0  0  0  0  0  0  0  0  0
   17.5644   -5.7506  -16.2203 C   0  0  0  0  0  0  0  0  0  0  0  0
   17.1812   -4.5544  -16.0218 O   0  0  0  0  0  0  0  0  0  0  0  0
   18.9560   -6.1566  -15.9894 C   0  0  0  0  0  0  0  0  0  0  0  0
   19.2512   -7.5939  -16.2022 C   0  0  0  0  0  0  0  0  0  0  0  0
   20.6680   -7.9604  -15.9823 C   0  0  2  0  0  0  0  0  0  0  0  0
   20.7926   -9.4446  -16.0214 N   0  0  0  0  0  0  0  0  0  0  0  0
   21.3736   -7.5188  -14.8086 C   0  0  0  0  0  0  0  0  0  0  0  0
   21.6297   -6.3134  -14.5744 O   0  0  0  0  0  0  0  0  0  0  0  0
   21.8307   -8.4151  -13.8304 O   0  0  0  0  0  0  0  0  0  0  0  0
  2  4  1  0
  2  3  1  0
  2  1  1  1
  4  5  2  0
  6  7  1  0
  6  4  1  0
  7 11  1  0
  7  8  1  6
  9  8  1  0
 10  9  2  0
 11 20  1  0
 11 12  2  0
 13  9  1  0
 14 15  1  0
 15 17  1  0
 16 15  2  0
 17 18  1  0
 19 18  1  1
 20 19  1  0
 21 19  1  0
 21 23  1  0
 22 21  2  0
M  END
$$$$
