ELP.pdb
     RDKit          3D

 25 25  0  0  1  0  0  0  0  0999 V2000
   10.2397  -15.9243   20.3340 N   0  0  0  0  0  0  0  0  0  0  0  0
    9.2028  -16.2829   21.2417 C   0  0  1  0  0  0  0  0  0  0  0  0
    9.1517  -17.7484   21.5480 C   0  0  0  0  0  0  0  0  0  0  0  0
   10.4800  -18.3507   21.8642 C   0  0  0  0  0  0  0  0  0  0  0  0
   10.4457  -19.3395   22.9180 C   0  0  0  0  0  0  0  0  0  0  0  0
    9.4506  -19.9557   23.2865 O   0  0  0  0  0  0  0  0  0  0  0  0
    9.2896  -15.5010   22.5197 C   0  0  0  0  0  0  0  0  0  0  0  0
   10.4040  -14.9456   22.8011 O   0  0  0  0  0  0  0  0  0  0  0  0
   11.6472  -19.6358   23.5919 O   0  0  0  0  0  0  0  0  0  0  0  0
    7.5464  -11.6746   25.7484 C   0  0  0  0  0  0  0  0  0  0  0  0
    6.8908  -13.0043   26.0507 C   0  0  1  0  0  0  0  0  0  0  0  0
    5.5521  -12.7865   26.6448 C   0  0  0  0  0  0  0  0  0  0  0  0
    6.9743  -13.9603   24.9022 C   0  0  0  0  0  0  0  0  0  0  0  0
    8.3272  -14.5030   24.5973 C   0  0  2  0  0  0  0  0  0  0  0  0
    8.2183  -15.3531   23.4153 N   0  0  0  0  0  0  0  0  0  0  0  0
    8.8944  -15.3128   25.7038 C   0  0  0  0  0  0  0  0  0  0  0  0
    8.5730  -16.5396   25.7325 O   0  0  0  0  0  0  0  0  0  0  0  0
    9.7513  -14.8299   26.7104 N   0  0  0  0  0  0  0  0  0  0  0  0
   10.1131  -13.4974   27.1022 C   0  0  0  0  0  0  0  0  0  0  0  0
   10.2130  -13.6506   28.6254 C   0  0  0  0  0  0  0  0  0  0  0  0
   11.1876  -14.8432   28.6252 C   0  0  0  0  0  0  0  0  0  0  0  0
   10.4843  -15.7277   27.6244 C   0  0  1  0  0  0  0  0  0  0  0  0
    9.4982  -16.5758   28.3081 C   0  0  0  0  0  0  0  0  0  0  0  0
    9.8990  -17.6496   29.0775 O   0  0  0  0  0  0  0  0  0  0  0  0
    8.2724  -16.3331   28.2001 O   0  0  0  0  0  0  0  0  0  0  0  0
  2  1  1  6
  3  2  1  0
  4  3  1  0
  5  6  2  0
  5  4  1  0
  7  2  1  0
  7  8  2  0
  9  5  1  0
 11 12  1  6
 11 10  1  0
 13 11  1  0
 14 13  1  1
 15 14  1  0
 15  7  1  0
 16 14  1  0
 17 16  2  0
 18 16  1  0
 18 19  1  0
 20 19  1  0
 21 20  1  0
 22 21  1  0
 22 18  1  0
 22 23  1  1
 24 23  1  0
 25 23  2  0
M  END
$$$$
