ELP.pdb
     RDKit          3D

 25 25  0  0  1  0  0  0  0  0999 V2000
    7.7954  -17.7617   21.7634 N   0  0  0  0  0  0  0  0  0  0  0  0
    9.1423  -17.6501   22.2120 C   0  0  1  0  0  0  0  0  0  0  0  0
   10.1367  -17.5089   21.1006 C   0  0  0  0  0  0  0  0  0  0  0  0
    9.8402  -16.3912   20.1571 C   0  0  0  0  0  0  0  0  0  0  0  0
   10.8408  -16.2014   19.1314 C   0  0  0  0  0  0  0  0  0  0  0  0
   10.8091  -15.3453   18.2529 O   0  0  0  0  0  0  0  0  0  0  0  0
    9.3100  -16.5226   23.1882 C   0  0  0  0  0  0  0  0  0  0  0  0
   10.3936  -15.8497   23.1370 O   0  0  0  0  0  0  0  0  0  0  0  0
   11.9561  -17.0627   19.1222 O   0  0  0  0  0  0  0  0  0  0  0  0
    5.5155  -12.9537   25.7114 C   0  0  0  0  0  0  0  0  0  0  0  0
    6.7582  -13.4778   25.0258 C   0  0  1  0  0  0  0  0  0  0  0  0
    7.6933  -12.3635   24.7490 C   0  0  0  0  0  0  0  0  0  0  0  0
    7.3252  -14.6836   25.7074 C   0  0  0  0  0  0  0  0  0  0  0  0
    8.6262  -15.1831   25.1823 C   0  0  2  0  0  0  0  0  0  0  0  0
    8.3463  -16.1754   24.1485 N   0  0  0  0  0  0  0  0  0  0  0  0
    9.4703  -15.8196   26.2236 C   0  0  0  0  0  0  0  0  0  0  0  0
    9.6192  -17.0768   26.1440 O   0  0  0  0  0  0  0  0  0  0  0  0
   10.1106  -15.1432   27.2787 N   0  0  0  0  0  0  0  0  0  0  0  0
   10.0889  -13.7677   27.6876 C   0  0  0  0  0  0  0  0  0  0  0  0
   10.1349  -13.9091   29.2145 C   0  0  0  0  0  0  0  0  0  0  0  0
   11.3848  -14.8068   29.2769 C   0  0  0  0  0  0  0  0  0  0  0  0
   10.9968  -15.8309   28.2381 C   0  0  1  0  0  0  0  0  0  0  0  0
   10.2271  -16.9152   28.8635 C   0  0  0  0  0  0  0  0  0  0  0  0
   10.8398  -17.8316   29.6943 O   0  0  0  0  0  0  0  0  0  0  0  0
    8.9960  -17.0221   28.6485 O   0  0  0  0  0  0  0  0  0  0  0  0
  2  1  1  6
  3  2  1  0
  4  3  1  0
  5  6  2  0
  5  4  1  0
  7  2  1  0
  7  8  2  0
  9  5  1  0
 11 12  1  1
 11 10  1  0
 13 11  1  0
 14 13  1  1
 15 14  1  0
 15  7  1  0
 16 14  1  0
 17 16  2  0
 18 16  1  0
 18 19  1  0
 20 19  1  0
 21 20  1  0
 22 21  1  0
 22 18  1  0
 22 23  1  1
 24 23  1  0
 25 23  2  0
M  END
$$$$
