ELP.pdb
     RDKit          3D

 25 25  0  0  1  0  0  0  0  0999 V2000
    9.4011  -15.5810   20.5149 N   0  0  0  0  0  0  0  0  0  0  0  0
    9.1469  -16.3472   21.6879 C   0  0  1  0  0  0  0  0  0  0  0  0
    9.9745  -17.5921   21.7845 C   0  0  0  0  0  0  0  0  0  0  0  0
    9.7873  -18.5373   20.6448 C   0  0  0  0  0  0  0  0  0  0  0  0
   10.5280  -19.7719   20.7721 C   0  0  0  0  0  0  0  0  0  0  0  0
   11.2892  -20.0562   21.6917 O   0  0  0  0  0  0  0  0  0  0  0  0
    9.3175  -15.5276   22.9334 C   0  0  0  0  0  0  0  0  0  0  0  0
   10.3251  -14.7462   22.9962 O   0  0  0  0  0  0  0  0  0  0  0  0
   10.3769  -20.7455   19.7647 O   0  0  0  0  0  0  0  0  0  0  0  0
    5.4411  -12.7932   26.0353 C   0  0  0  0  0  0  0  0  0  0  0  0
    6.7168  -13.1448   25.3018 C   0  0  1  0  0  0  0  0  0  0  0  0
    7.6019  -11.9601   25.2268 C   0  0  0  0  0  0  0  0  0  0  0  0
    7.3303  -14.4180   25.7942 C   0  0  0  0  0  0  0  0  0  0  0  0
    8.6586  -14.7710   25.2208 C   0  0  2  0  0  0  0  0  0  0  0  0
    8.4355  -15.5782   24.0248 N   0  0  0  0  0  0  0  0  0  0  0  0
    9.5103  -15.5474   26.1555 C   0  0  0  0  0  0  0  0  0  0  0  0
    9.6219  -16.7896   25.9238 O   0  0  0  0  0  0  0  0  0  0  0  0
   10.1954  -15.0173   27.2647 N   0  0  0  0  0  0  0  0  0  0  0  0
   10.2515  -13.6916   27.8117 C   0  0  0  0  0  0  0  0  0  0  0  0
   10.3033  -13.9908   29.3154 C   0  0  0  0  0  0  0  0  0  0  0  0
   11.5035  -14.9548   29.2683 C   0  0  0  0  0  0  0  0  0  0  0  0
   11.0517  -15.8454   28.1363 C   0  0  1  0  0  0  0  0  0  0  0  0
   10.2302  -16.9458   28.6591 C   0  0  0  0  0  0  0  0  0  0  0  0
   10.8000  -17.9735   29.3836 O   0  0  0  0  0  0  0  0  0  0  0  0
    8.9933  -16.9652   28.4520 O   0  0  0  0  0  0  0  0  0  0  0  0
  2  1  1  6
  3  2  1  0
  4  3  1  0
  5  6  2  0
  5  4  1  0
  7  2  1  0
  7  8  2  0
  9  5  1  0
 11 12  1  1
 11 10  1  0
 13 11  1  0
 14 13  1  1
 15 14  1  0
 15  7  1  0
 16 14  1  0
 17 16  2  0
 18 16  1  0
 18 19  1  0
 20 19  1  0
 21 20  1  0
 22 21  1  0
 22 18  1  0
 22 23  1  1
 24 23  1  0
 25 23  2  0
M  END
$$$$
