TEV.pdb
     RDKit          3D

 24 23  0  0  1  0  0  0  0  0999 V2000
   22.8360  -16.4148  -15.2424 C   0  0  0  0  0  0  0  0  0  0  0  0
   22.2897  -16.9613  -16.5494 C   0  0  1  0  0  0  0  0  0  0  0  0
   21.5690  -16.0225  -17.2466 O   0  0  0  0  0  0  0  0  0  0  0  0
   23.3878  -17.5065  -17.4404 C   0  0  2  0  0  0  0  0  0  0  0  0
   22.8257  -18.0762  -18.6598 N   0  0  0  0  0  0  0  0  0  0  0  0
   24.1894  -18.5705  -16.7865 C   0  0  0  0  0  0  0  0  0  0  0  0
   23.6891  -19.7025  -16.5494 O   0  0  0  0  0  0  0  0  0  0  0  0
   25.5447  -18.3973  -16.3900 N   0  0  0  0  0  0  0  0  0  0  0  0
   26.2842  -19.4383  -15.6778 C   0  0  1  0  0  0  0  0  0  0  0  0
   27.7473  -19.1448  -15.8487 C   0  0  0  0  0  0  0  0  0  0  0  0
   28.6607  -20.1381  -15.2190 C   0  0  0  0  0  0  0  0  0  0  0  0
   28.7059  -21.3846  -15.9886 C   0  0  0  0  0  0  0  0  0  0  0  0
   28.5797  -21.4098  -17.2252 O   0  0  0  0  0  0  0  0  0  0  0  0
   25.9804  -19.3845  -14.2193 C   0  0  0  0  0  0  0  0  0  0  0  0
   25.9886  -18.2693  -13.6459 O   0  0  0  0  0  0  0  0  0  0  0  0
   28.8963  -22.5785  -15.3082 O   0  0  0  0  0  0  0  0  0  0  0  0
   23.9373  -20.9913  -10.1641 C   0  0  0  0  0  0  0  0  0  0  0  0
   24.1511  -21.1305  -11.6410 C   0  0  1  0  0  0  0  0  0  0  0  0
   22.9499  -20.6371  -12.3889 C   0  0  0  0  0  0  0  0  0  0  0  0
   25.4335  -20.4259  -12.0536 C   0  0  2  0  0  0  0  0  0  0  0  0
   25.6858  -20.5442  -13.4679 N   0  0  0  0  0  0  0  0  0  0  0  0
   26.5420  -20.9577  -11.2414 C   0  0  0  0  0  0  0  0  0  0  0  0
   26.7319  -20.4993   -9.9536 O   0  0  0  0  0  0  0  0  0  0  0  0
   27.3259  -21.8244  -11.6939 O   0  0  0  0  0  0  0  0  0  0  0  0
  2  1  1  1
  2  4  1  0
  2  3  1  0
  4  5  1  6
  6  8  1  0
  6  4  1  0
  7  6  2  0
  9  8  1  0
 10 11  1  0
  9 10  1  1
 12 11  1  0
 13 12  2  0
 14  9  1  0
 14 21  1  0
 15 14  2  0
 16 12  1  0
 18 20  1  0
 18 17  1  1
 19 18  1  0
 20 21  1  6
 20 22  1  0
 22 24  2  0
 22 23  1  0
M  END
$$$$
