TEV.pdb
     RDKit          3D

 24 23  0  0  1  0  0  0  0  0999 V2000
   19.3891  -11.8135  -19.3030 C   0  0  0  0  0  0  0  0  0  0  0  0
   18.6754  -11.9056  -17.9661 C   0  0  1  0  0  0  0  0  0  0  0  0
   18.3074  -13.1929  -17.6588 O   0  0  0  0  0  0  0  0  0  0  0  0
   19.5138  -11.3454  -16.8346 C   0  0  2  0  0  0  0  0  0  0  0  0
   19.1654  -11.9846  -15.5707 N   0  0  0  0  0  0  0  0  0  0  0  0
   19.3370   -9.8834  -16.6518 C   0  0  0  0  0  0  0  0  0  0  0  0
   19.5948   -9.0797  -17.5875 O   0  0  0  0  0  0  0  0  0  0  0  0
   18.8757   -9.2962  -15.4408 N   0  0  0  0  0  0  0  0  0  0  0  0
   18.7166   -7.8506  -15.2905 C   0  0  1  0  0  0  0  0  0  0  0  0
   17.4406   -7.6169  -14.5333 C   0  0  0  0  0  0  0  0  0  0  0  0
   16.1978   -7.8051  -15.3318 C   0  0  0  0  0  0  0  0  0  0  0  0
   15.0007   -7.5772  -14.5175 C   0  0  0  0  0  0  0  0  0  0  0  0
   14.4122   -6.4824  -14.4888 O   0  0  0  0  0  0  0  0  0  0  0  0
   19.8329   -7.2880  -14.4782 C   0  0  0  0  0  0  0  0  0  0  0  0
   20.2025   -7.9106  -13.4544 O   0  0  0  0  0  0  0  0  0  0  0  0
   14.5094   -8.6244  -13.7516 O   0  0  0  0  0  0  0  0  0  0  0  0
   23.2531   -7.1680  -15.0380 C   0  0  0  0  0  0  0  0  0  0  0  0
   22.9140   -5.7300  -14.7854 C   0  0  1  0  0  0  0  0  0  0  0  0
   22.9093   -4.9631  -16.0729 C   0  0  0  0  0  0  0  0  0  0  0  0
   21.5977   -5.6265  -14.0321 C   0  0  2  0  0  0  0  0  0  0  0  0
   20.4828   -6.0820  -14.8241 N   0  0  0  0  0  0  0  0  0  0  0  0
   21.4278   -4.2360  -13.5751 C   0  0  0  0  0  0  0  0  0  0  0  0
   22.1938   -3.7570  -12.5317 O   0  0  0  0  0  0  0  0  0  0  0  0
   20.5971   -3.4682  -14.1142 O   0  0  0  0  0  0  0  0  0  0  0  0
  2  1  1  6
  2  4  1  0
  2  3  1  0
  4  5  1  1
  6  8  1  0
  6  4  1  0
  7  6  2  0
  9  8  1  0
 10 11  1  0
  9 10  1  1
 12 11  1  0
 13 12  2  0
 14  9  1  0
 14 21  1  0
 15 14  2  0
 16 12  1  0
 18 20  1  0
 18 17  1  6
 19 18  1  0
 20 21  1  6
 20 22  1  0
 22 24  2  0
 22 23  1  0
M  END
$$$$
