TEV.pdb
     RDKit          3D

 24 23  0  0  1  0  0  0  0  0999 V2000
   27.6306  -22.9941  -16.5796 C   0  0  0  0  0  0  0  0  0  0  0  0
   28.6959  -22.1271  -17.2267 C   0  0  1  0  0  0  0  0  0  0  0  0
   29.3608  -22.7826  -18.2343 O   0  0  0  0  0  0  0  0  0  0  0  0
   28.1230  -20.8333  -17.7696 C   0  0  2  0  0  0  0  0  0  0  0  0
   29.1836  -19.9817  -18.2961 N   0  0  0  0  0  0  0  0  0  0  0  0
   27.3956  -20.0464  -16.7430 C   0  0  0  0  0  0  0  0  0  0  0  0
   28.0166  -19.4762  -15.8065 O   0  0  0  0  0  0  0  0  0  0  0  0
   25.9825  -19.8808  -16.7398 N   0  0  0  0  0  0  0  0  0  0  0  0
   25.2854  -19.1816  -15.6614 C   0  0  1  0  0  0  0  0  0  0  0  0
   24.0034  -18.6449  -16.2310 C   0  0  0  0  0  0  0  0  0  0  0  0
   22.8085  -19.5014  -15.9941 C   0  0  0  0  0  0  0  0  0  0  0  0
   21.6148  -18.9409  -16.6338 C   0  0  0  0  0  0  0  0  0  0  0  0
   20.7706  -18.2785  -16.0059 O   0  0  0  0  0  0  0  0  0  0  0  0
   24.9309  -20.1337  -14.5704 C   0  0  0  0  0  0  0  0  0  0  0  0
   24.6971  -21.3288  -14.8700 O   0  0  0  0  0  0  0  0  0  0  0  0
   21.4236  -19.1601  -17.9902 O   0  0  0  0  0  0  0  0  0  0  0  0
   25.1074  -21.4795   -9.8947 C   0  0  0  0  0  0  0  0  0  0  0  0
   25.4755  -20.5019  -10.9695 C   0  0  1  0  0  0  0  0  0  0  0  0
   26.9419  -20.5845  -11.2673 C   0  0  0  0  0  0  0  0  0  0  0  0
   24.6102  -20.7248  -12.1994 C   0  0  2  0  0  0  0  0  0  0  0  0
   24.8503  -19.7334  -13.2178 N   0  0  0  0  0  0  0  0  0  0  0  0
   23.1987  -20.7631  -11.7781 C   0  0  0  0  0  0  0  0  0  0  0  0
   22.6762  -21.9168  -11.2297 O   0  0  0  0  0  0  0  0  0  0  0  0
   22.4516  -19.7652  -11.9061 O   0  0  0  0  0  0  0  0  0  0  0  0
  2  1  1  6
  2  4  1  0
  2  3  1  0
  4  5  1  1
  6  8  1  0
  6  4  1  0
  7  6  2  0
  9  8  1  0
 10 11  1  0
  9 10  1  6
 12 11  1  0
 13 12  2  0
 14  9  1  0
 14 21  1  0
 15 14  2  0
 16 12  1  0
 18 20  1  0
 18 17  1  1
 19 18  1  0
 20 21  1  6
 20 22  1  0
 22 24  2  0
 22 23  1  0
M  END
$$$$
