TEV.pdb
     RDKit          3D

 24 23  0  0  1  0  0  0  0  0999 V2000
   18.8397  -12.8683  -16.2209 C   0  0  0  0  0  0  0  0  0  0  0  0
   19.0428  -11.5637  -15.4713 C   0  0  1  0  0  0  0  0  0  0  0  0
   20.2560  -10.9840  -15.7525 O   0  0  0  0  0  0  0  0  0  0  0  0
   17.9380  -10.5664  -15.7570 C   0  0  2  0  0  0  0  0  0  0  0  0
   17.9311  -10.1960  -17.1677 N   0  0  0  0  0  0  0  0  0  0  0  0
   18.0725   -9.3131  -14.9737 C   0  0  0  0  0  0  0  0  0  0  0  0
   17.8601   -9.3018  -13.7317 O   0  0  0  0  0  0  0  0  0  0  0  0
   18.4415   -8.0658  -15.5501 N   0  0  0  0  0  0  0  0  0  0  0  0
   18.5998   -6.8554  -14.7453 C   0  0  1  0  0  0  0  0  0  0  0  0
   20.0728   -6.5884  -14.6230 C   0  0  0  0  0  0  0  0  0  0  0  0
   20.4262   -5.4153  -13.7766 C   0  0  0  0  0  0  0  0  0  0  0  0
   21.8779   -5.2252  -13.7074 C   0  0  0  0  0  0  0  0  0  0  0  0
   22.6503   -6.1211  -13.3250 O   0  0  0  0  0  0  0  0  0  0  0  0
   17.9856   -5.6876  -15.4392 C   0  0  0  0  0  0  0  0  0  0  0  0
   18.2499   -5.5031  -16.6511 O   0  0  0  0  0  0  0  0  0  0  0  0
   22.4054   -3.9984  -14.0832 O   0  0  0  0  0  0  0  0  0  0  0  0
   14.4450   -4.9416  -16.1754 C   0  0  0  0  0  0  0  0  0  0  0  0
   14.9833   -3.7621  -15.4233 C   0  0  1  0  0  0  0  0  0  0  0  0
   14.4959   -3.7827  -14.0063 C   0  0  0  0  0  0  0  0  0  0  0  0
   16.4996   -3.7232  -15.5252 C   0  0  2  0  0  0  0  0  0  0  0  0
   17.1205   -4.7876  -14.7773 N   0  0  0  0  0  0  0  0  0  0  0  0
   16.9638   -2.3927  -15.0947 C   0  0  0  0  0  0  0  0  0  0  0  0
   16.7086   -1.2879  -15.8815 O   0  0  0  0  0  0  0  0  0  0  0  0
   17.5915   -2.2356  -14.0215 O   0  0  0  0  0  0  0  0  0  0  0  0
  2  1  1  6
  2  4  1  0
  2  3  1  0
  4  5  1  6
  6  8  1  0
  6  4  1  0
  7  6  2  0
  9  8  1  0
 10 11  1  0
  9 10  1  6
 12 11  1  0
 13 12  2  0
 14  9  1  0
 14 21  1  0
 15 14  2  0
 16 12  1  0
 18 20  1  0
 18 17  1  6
 19 18  1  0
 20 21  1  1
 20 22  1  0
 22 24  2  0
 22 23  1  0
M  END
$$$$
