TEV.pdb
     RDKit          3D

 24 23  0  0  1  0  0  0  0  0999 V2000
   17.0127  -12.3882  -16.5818 C   0  0  0  0  0  0  0  0  0  0  0  0
   16.5448  -12.1362  -15.1595 C   0  0  1  0  0  0  0  0  0  0  0  0
   17.5876  -12.1007  -14.2660 O   0  0  0  0  0  0  0  0  0  0  0  0
   15.7471  -10.8529  -15.0427 C   0  0  2  0  0  0  0  0  0  0  0  0
   14.5488  -10.9146  -15.8721 N   0  0  0  0  0  0  0  0  0  0  0  0
   16.5133   -9.6543  -15.4652 C   0  0  0  0  0  0  0  0  0  0  0  0
   16.8661   -9.5033  -16.6655 O   0  0  0  0  0  0  0  0  0  0  0  0
   16.8957   -8.6150  -14.5721 N   0  0  0  0  0  0  0  0  0  0  0  0
   17.7122   -7.4816  -15.0041 C   0  0  1  0  0  0  0  0  0  0  0  0
   16.9008   -6.2365  -14.7865 C   0  0  0  0  0  0  0  0  0  0  0  0
   15.8731   -5.9709  -15.8310 C   0  0  0  0  0  0  0  0  0  0  0  0
   15.1976   -4.6906  -15.6017 C   0  0  0  0  0  0  0  0  0  0  0  0
   14.8047   -4.3360  -14.4768 O   0  0  0  0  0  0  0  0  0  0  0  0
   18.9376   -7.3747  -14.1618 C   0  0  0  0  0  0  0  0  0  0  0  0
   18.8570   -7.6699  -12.9457 O   0  0  0  0  0  0  0  0  0  0  0  0
   14.9908   -3.8461  -16.6827 O   0  0  0  0  0  0  0  0  0  0  0  0
   22.1280   -9.2009  -14.2423 C   0  0  0  0  0  0  0  0  0  0  0  0
   22.4783   -7.7470  -14.3424 C   0  0  1  0  0  0  0  0  0  0  0  0
   22.8705   -7.4023  -15.7471 C   0  0  0  0  0  0  0  0  0  0  0  0
   21.3312   -6.8947  -13.8240 C   0  0  2  0  0  0  0  0  0  0  0  0
   20.1791   -6.9530  -14.6883 N   0  0  0  0  0  0  0  0  0  0  0  0
   21.8195   -5.5173  -13.6352 C   0  0  0  0  0  0  0  0  0  0  0  0
   22.6491   -5.2218  -12.5726 O   0  0  0  0  0  0  0  0  0  0  0  0
   21.4978   -4.5967  -14.4223 O   0  0  0  0  0  0  0  0  0  0  0  0
  2  1  1  6
  2  4  1  0
  2  3  1  0
  4  5  1  6
  6  8  1  0
  6  4  1  0
  7  6  2  0
  9  8  1  0
 10 11  1  0
  9 10  1  1
 12 11  1  0
 13 12  2  0
 14  9  1  0
 14 21  1  0
 15 14  2  0
 16 12  1  0
 18 20  1  0
 18 17  1  6
 19 18  1  0
 20 21  1  6
 20 22  1  0
 22 24  2  0
 22 23  1  0
M  END
$$$$
