TEV.pdb
     RDKit          3D

 24 23  0  0  1  0  0  0  0  0999 V2000
   23.9381  -35.7260   -9.6429 C   0  0  0  0  0  0  0  0  0  0  0  0
   24.2130  -34.4577  -10.4310 C   0  0  1  0  0  0  0  0  0  0  0  0
   23.9042  -34.5937  -11.7625 O   0  0  0  0  0  0  0  0  0  0  0  0
   23.4660  -33.2655   -9.8674 C   0  0  2  0  0  0  0  0  0  0  0  0
   23.7794  -32.0578  -10.6228 N   0  0  0  0  0  0  0  0  0  0  0  0
   23.7966  -32.9939   -8.4464 C   0  0  0  0  0  0  0  0  0  0  0  0
   24.7014  -32.1723   -8.1395 O   0  0  0  0  0  0  0  0  0  0  0  0
   23.1351  -33.6227   -7.3550 N   0  0  0  0  0  0  0  0  0  0  0  0
   23.4353  -33.2822   -5.9651 C   0  0  1  0  0  0  0  0  0  0  0  0
   22.2064  -33.5818   -5.1552 C   0  0  0  0  0  0  0  0  0  0  0  0
   22.3270  -33.2779   -3.7024 C   0  0  0  0  0  0  0  0  0  0  0  0
   21.0983  -33.6223   -2.9813 C   0  0  0  0  0  0  0  0  0  0  0  0
   21.1051  -34.2936   -1.9349 O   0  0  0  0  0  0  0  0  0  0  0  0
   24.5377  -34.1419   -5.4473 C   0  0  0  0  0  0  0  0  0  0  0  0
   24.5377  -35.3604   -5.7438 O   0  0  0  0  0  0  0  0  0  0  0  0
   19.8849  -33.1811   -3.4888 O   0  0  0  0  0  0  0  0  0  0  0  0
   28.2290  -32.5865   -4.0003 C   0  0  0  0  0  0  0  0  0  0  0  0
   28.0159  -33.9154   -4.6599 C   0  0  1  0  0  0  0  0  0  0  0  0
   29.1566  -34.8373   -4.3523 C   0  0  0  0  0  0  0  0  0  0  0  0
   26.6675  -34.4903   -4.2570 C   0  0  2  0  0  0  0  0  0  0  0  0
   25.5758  -33.6293   -4.6374 N   0  0  0  0  0  0  0  0  0  0  0  0
   26.6877  -34.7609   -2.8087 C   0  0  0  0  0  0  0  0  0  0  0  0
   27.4110  -35.8296   -2.3193 O   0  0  0  0  0  0  0  0  0  0  0  0
   26.0586  -34.0388   -2.0005 O   0  0  0  0  0  0  0  0  0  0  0  0
  2  1  1  1
  2  4  1  0
  2  3  1  0
  4  5  1  6
  6  8  1  0
  6  4  1  0
  7  6  2  0
  9  8  1  0
 10 11  1  0
  9 10  1  1
 12 11  1  0
 13 12  2  0
 14  9  1  0
 14 21  1  0
 15 14  2  0
 16 12  1  0
 18 20  1  0
 18 17  1  1
 19 18  1  0
 20 21  1  1
 20 22  1  0
 22 24  2  0
 22 23  1  0
M  END
$$$$
