TEV.pdb
     RDKit          3D

 24 23  0  0  1  0  0  0  0  0999 V2000
   24.2942  -13.8522  -14.7547 C   0  0  0  0  0  0  0  0  0  0  0  0
   23.6035  -12.5855  -15.2276 C   0  0  1  0  0  0  0  0  0  0  0  0
   24.4516  -11.7567  -15.9210 O   0  0  0  0  0  0  0  0  0  0  0  0
   22.3912  -12.8860  -16.0860 C   0  0  2  0  0  0  0  0  0  0  0  0
   22.7910  -13.5200  -17.3373 N   0  0  0  0  0  0  0  0  0  0  0  0
   21.6147  -11.6709  -16.4369 C   0  0  0  0  0  0  0  0  0  0  0  0
   21.8010  -11.0799  -17.5341 O   0  0  0  0  0  0  0  0  0  0  0  0
   20.6291  -11.0990  -15.5851 N   0  0  0  0  0  0  0  0  0  0  0  0
   19.8462   -9.9290  -15.9801 C   0  0  1  0  0  0  0  0  0  0  0  0
   18.4286  -10.1717  -15.5469 C   0  0  0  0  0  0  0  0  0  0  0  0
   17.6646  -11.1136  -16.4110 C   0  0  0  0  0  0  0  0  0  0  0  0
   16.6457  -11.8352  -15.6432 C   0  0  0  0  0  0  0  0  0  0  0  0
   15.4948  -11.3934  -15.4825 O   0  0  0  0  0  0  0  0  0  0  0  0
   20.3342   -8.7140  -15.2674 C   0  0  0  0  0  0  0  0  0  0  0  0
   20.7871   -8.8420  -14.1050 O   0  0  0  0  0  0  0  0  0  0  0  0
   16.9822  -13.0558  -15.0765 O   0  0  0  0  0  0  0  0  0  0  0  0
   22.4396   -4.4432  -15.0352 C   0  0  0  0  0  0  0  0  0  0  0  0
   21.9825   -5.6390  -15.8148 C   0  0  1  0  0  0  0  0  0  0  0  0
   23.1263   -6.5807  -16.0404 C   0  0  0  0  0  0  0  0  0  0  0  0
   20.8033   -6.2991  -15.1186 C   0  0  2  0  0  0  0  0  0  0  0  0
   20.3018   -7.4306  -15.8575 N   0  0  0  0  0  0  0  0  0  0  0  0
   19.7659   -5.2788  -14.8861 C   0  0  0  0  0  0  0  0  0  0  0  0
   19.8741   -4.4214  -13.8101 O   0  0  0  0  0  0  0  0  0  0  0  0
   18.7768   -5.1678  -15.6475 O   0  0  0  0  0  0  0  0  0  0  0  0
  2  1  1  6
  2  4  1  0
  2  3  1  0
  4  5  1  6
  6  8  1  0
  6  4  1  0
  7  6  2  0
  9  8  1  0
 10 11  1  0
  9 10  1  1
 12 11  1  0
 13 12  2  0
 14  9  1  0
 14 21  1  0
 15 14  2  0
 16 12  1  0
 18 20  1  0
 18 17  1  1
 19 18  1  0
 20 21  1  6
 20 22  1  0
 22 24  2  0
 22 23  1  0
M  END
$$$$
