QMT.pdb
     RDKit          3D

 25 24  0  0  1  0  0  0  0  0999 V2000
    8.5583  -11.8834   18.5851 N   0  0  0  0  0  0  0  0  0  0  0  0
    8.1890  -13.2096   18.2504 C   0  0  0  0  0  0  0  0  0  0  0  0
    8.1726  -13.5164   17.0375 O   0  0  0  0  0  0  0  0  0  0  0  0
    7.8526  -14.1285   19.3420 C   0  0  0  0  0  0  0  0  0  0  0  0
    8.9373  -15.1323   19.6436 C   0  0  0  0  0  0  0  0  0  0  0  0
    8.3617  -16.0654   20.7080 C   0  0  2  0  0  0  0  0  0  0  0  0
    6.9325  -16.1906   20.5262 N   0  0  0  0  0  0  0  0  0  0  0  0
    8.7249  -15.6844   22.0738 C   0  0  0  0  0  0  0  0  0  0  0  0
    9.9341  -15.6102   22.3935 O   0  0  0  0  0  0  0  0  0  0  0  0
    6.9309  -10.7720   26.1140 C   0  0  0  0  0  0  0  0  0  0  0  0
    6.2545  -12.2937   26.8033 S   0  0  0  0  0  0  0  0  0  0  0  0
    7.3702  -13.6824   26.4198 C   0  0  0  0  0  0  0  0  0  0  0  0
    7.1463  -14.0341   24.9746 C   0  0  0  0  0  0  0  0  0  0  0  0
    8.0633  -15.0796   24.4451 C   0  0  2  0  0  0  0  0  0  0  0  0
    7.7330  -15.3969   23.0459 N   0  0  0  0  0  0  0  0  0  0  0  0
    8.1284  -16.3259   25.2411 C   0  0  0  0  0  0  0  0  0  0  0  0
    7.1431  -17.0185   25.5296 O   0  0  0  0  0  0  0  0  0  0  0  0
    9.5893  -19.5120   24.4465 C   0  0  0  0  0  0  0  0  0  0  0  0
   10.3274  -19.0364   25.6929 C   0  0  1  0  0  0  0  0  0  0  0  0
   11.5215  -18.4263   25.3032 O   0  0  0  0  0  0  0  0  0  0  0  0
    9.5138  -18.0227   26.4540 C   0  0  2  0  0  0  0  0  0  0  0  0
    9.3932  -16.7853   25.7214 N   0  0  0  0  0  0  0  0  0  0  0  0
   10.2017  -17.7481   27.7452 C   0  0  0  0  0  0  0  0  0  0  0  0
   10.6735  -16.6134   27.9797 O   0  0  0  0  0  0  0  0  0  0  0  0
   10.3182  -18.7607   28.6924 O   0  0  0  0  0  0  0  0  0  0  0  0
  2  1  1  0
  2  3  2  0
  4  2  1  0
  5  4  1  0
  6  5  1  0
  6  7  1  1
  8  6  1  0
  8  9  2  0
 10 11  1  0
 11 12  1  0
 14 13  1  1
 13 12  1  0
 14 15  1  0
 15  8  1  0
 16 14  1  0
 17 16  2  0
 19 18  1  6
 19 21  1  0
 20 19  1  0
 21 23  1  0
 21 22  1  6
 22 16  1  0
 23 25  1  0
 24 23  2  0
M  END
$$$$
