QMT.pdb
     RDKit          3D

 25 24  0  0  1  0  0  0  0  0999 V2000
    7.0863  -19.7739   21.1184 N   0  0  0  0  0  0  0  0  0  0  0  0
    8.1573  -19.2444   20.3571 C   0  0  0  0  0  0  0  0  0  0  0  0
    8.7676  -20.0273   19.5953 O   0  0  0  0  0  0  0  0  0  0  0  0
    8.4772  -17.8222   20.5122 C   0  0  0  0  0  0  0  0  0  0  0  0
    7.5457  -17.0910   21.4464 C   0  0  0  0  0  0  0  0  0  0  0  0
    7.9657  -15.6228   21.3941 C   0  0  2  0  0  0  0  0  0  0  0  0
    8.8468  -15.4069   20.2678 N   0  0  0  0  0  0  0  0  0  0  0  0
    8.5300  -15.1337   22.6530 C   0  0  0  0  0  0  0  0  0  0  0  0
    9.7467  -14.8407   22.7121 O   0  0  0  0  0  0  0  0  0  0  0  0
    6.9122  -11.4918   27.8112 C   0  0  0  0  0  0  0  0  0  0  0  0
    6.0198  -11.3221   26.2547 S   0  0  0  0  0  0  0  0  0  0  0  0
    6.7089  -12.4823   25.0301 C   0  0  0  0  0  0  0  0  0  0  0  0
    7.2193  -13.6716   25.7966 C   0  0  0  0  0  0  0  0  0  0  0  0
    8.2554  -14.4666   25.0833 C   0  0  2  0  0  0  0  0  0  0  0  0
    7.7251  -14.9845   23.8112 N   0  0  0  0  0  0  0  0  0  0  0  0
    8.8542  -15.5717   25.8652 C   0  0  0  0  0  0  0  0  0  0  0  0
    9.2520  -15.4609   27.0327 O   0  0  0  0  0  0  0  0  0  0  0  0
    7.3550  -19.2570   26.1344 C   0  0  0  0  0  0  0  0  0  0  0  0
    8.7951  -19.2602   25.6340 C   0  0  1  0  0  0  0  0  0  0  0  0
    8.7871  -19.3558   24.2408 O   0  0  0  0  0  0  0  0  0  0  0  0
    9.5046  -17.9854   26.0086 C   0  0  2  0  0  0  0  0  0  0  0  0
    8.9959  -16.8595   25.2628 N   0  0  0  0  0  0  0  0  0  0  0  0
   10.9512  -18.1491   25.6986 C   0  0  0  0  0  0  0  0  0  0  0  0
   11.5080  -17.3953   24.8698 O   0  0  0  0  0  0  0  0  0  0  0  0
   11.6835  -19.1461   26.3356 O   0  0  0  0  0  0  0  0  0  0  0  0
  2  1  1  0
  2  3  2  0
  4  2  1  0
  5  4  1  0
  6  5  1  0
  6  7  1  6
  8  6  1  0
  8  9  2  0
 10 11  1  0
 11 12  1  0
 14 13  1  1
 13 12  1  0
 14 15  1  0
 15  8  1  0
 16 14  1  0
 17 16  2  0
 19 18  1  6
 19 21  1  0
 20 19  1  0
 21 23  1  0
 21 22  1  6
 22 16  1  0
 23 25  1  0
 24 23  2  0
M  END
$$$$
