QMT.pdb
     RDKit          3D

 25 24  0  0  1  0  0  0  0  0999 V2000
    8.4527  -20.6926   20.8637 N   0  0  0  0  0  0  0  0  0  0  0  0
    7.5523  -19.6618   20.4977 C   0  0  0  0  0  0  0  0  0  0  0  0
    6.3769  -19.9915   20.2234 O   0  0  0  0  0  0  0  0  0  0  0  0
    8.0556  -18.2853   20.4649 C   0  0  0  0  0  0  0  0  0  0  0  0
    6.9777  -17.2520   20.2518 C   0  0  0  0  0  0  0  0  0  0  0  0
    7.6754  -15.8949   20.3314 C   0  0  2  0  0  0  0  0  0  0  0  0
    8.6794  -15.8006   19.2948 N   0  0  0  0  0  0  0  0  0  0  0  0
    8.2074  -15.5912   21.6607 C   0  0  0  0  0  0  0  0  0  0  0  0
    9.3973  -15.8765   21.9299 O   0  0  0  0  0  0  0  0  0  0  0  0
    7.0504  -11.1350   28.0893 C   0  0  0  0  0  0  0  0  0  0  0  0
    6.4940  -11.7645   26.4948 S   0  0  0  0  0  0  0  0  0  0  0  0
    7.5620  -13.1491   25.9824 C   0  0  0  0  0  0  0  0  0  0  0  0
    7.0857  -13.5867   24.6245 C   0  0  0  0  0  0  0  0  0  0  0  0
    7.9068  -14.6583   23.9987 C   0  0  2  0  0  0  0  0  0  0  0  0
    7.4009  -14.9787   22.6536 N   0  0  0  0  0  0  0  0  0  0  0  0
    8.0396  -15.8995   24.7943 C   0  0  0  0  0  0  0  0  0  0  0  0
    7.0878  -16.6226   25.1181 O   0  0  0  0  0  0  0  0  0  0  0  0
    9.8324  -19.0056   24.0032 C   0  0  0  0  0  0  0  0  0  0  0  0
   10.4463  -18.4843   25.2978 C   0  0  1  0  0  0  0  0  0  0  0  0
   11.6227  -17.7965   24.9928 O   0  0  0  0  0  0  0  0  0  0  0  0
    9.5154  -17.5273   25.9951 C   0  0  2  0  0  0  0  0  0  0  0  0
    9.3345  -16.3162   25.2315 N   0  0  0  0  0  0  0  0  0  0  0  0
   10.1105  -17.1761   27.3135 C   0  0  0  0  0  0  0  0  0  0  0  0
   10.4562  -15.9984   27.5559 O   0  0  0  0  0  0  0  0  0  0  0  0
   10.2813  -18.1649   28.2775 O   0  0  0  0  0  0  0  0  0  0  0  0
  2  1  1  0
  2  3  2  0
  4  2  1  0
  5  4  1  0
  6  5  1  0
  6  7  1  6
  8  6  1  0
  8  9  2  0
 10 11  1  0
 11 12  1  0
 14 13  1  1
 13 12  1  0
 14 15  1  0
 15  8  1  0
 16 14  1  0
 17 16  2  0
 19 18  1  6
 19 21  1  0
 20 19  1  0
 21 23  1  0
 21 22  1  6
 22 16  1  0
 23 25  1  0
 24 23  2  0
M  END
$$$$
