QMT.pdb
     RDKit          3D

 25 24  0  0  1  0  0  0  0  0999 V2000
    8.5392  -12.3224   17.8120 N   0  0  0  0  0  0  0  0  0  0  0  0
    8.0102  -13.5931   17.4765 C   0  0  0  0  0  0  0  0  0  0  0  0
    7.8544  -13.8522   16.2623 O   0  0  0  0  0  0  0  0  0  0  0  0
    7.6824  -14.5143   18.5687 C   0  0  0  0  0  0  0  0  0  0  0  0
    8.1111  -14.0188   19.9273 C   0  0  0  0  0  0  0  0  0  0  0  0
    8.7990  -15.2014   20.6077 C   0  0  2  0  0  0  0  0  0  0  0  0
    8.0896  -16.4230   20.2982 N   0  0  0  0  0  0  0  0  0  0  0  0
    8.9945  -15.0120   22.0459 C   0  0  0  0  0  0  0  0  0  0  0  0
   10.0923  -14.5810   22.4687 O   0  0  0  0  0  0  0  0  0  0  0  0
    6.8819  -10.6852   27.0655 C   0  0  0  0  0  0  0  0  0  0  0  0
    6.6245  -12.4506   26.8100 S   0  0  0  0  0  0  0  0  0  0  0  0
    7.1985  -12.9129   25.1434 C   0  0  0  0  0  0  0  0  0  0  0  0
    6.9784  -14.3941   25.0028 C   0  0  0  0  0  0  0  0  0  0  0  0
    8.1318  -15.1370   24.4264 C   0  0  2  0  0  0  0  0  0  0  0  0
    7.9634  -15.3076   22.9738 N   0  0  0  0  0  0  0  0  0  0  0  0
    8.4197  -16.4454   25.0560 C   0  0  0  0  0  0  0  0  0  0  0  0
    7.5762  -17.3366   25.2236 O   0  0  0  0  0  0  0  0  0  0  0  0
   10.8718  -18.9701   23.9130 C   0  0  0  0  0  0  0  0  0  0  0  0
   11.2394  -18.6476   25.3571 C   0  0  1  0  0  0  0  0  0  0  0  0
   12.3040  -17.7440   25.3592 O   0  0  0  0  0  0  0  0  0  0  0  0
   10.0849  -18.0080   26.0830 C   0  0  2  0  0  0  0  0  0  0  0  0
    9.7448  -16.7283   25.5095 N   0  0  0  0  0  0  0  0  0  0  0  0
   10.4830  -17.8045   27.5028 C   0  0  0  0  0  0  0  0  0  0  0  0
   10.5618  -16.6492   27.9764 O   0  0  0  0  0  0  0  0  0  0  0  0
   10.7676  -18.9066   28.3031 O   0  0  0  0  0  0  0  0  0  0  0  0
  2  1  1  0
  2  3  2  0
  4  2  1  0
  5  4  1  0
  6  5  1  0
  6  7  1  1
  8  6  1  0
  8  9  2  0
 10 11  1  0
 11 12  1  0
 14 13  1  1
 13 12  1  0
 14 15  1  0
 15  8  1  0
 16 14  1  0
 17 16  2  0
 19 18  1  6
 19 21  1  0
 20 19  1  0
 21 23  1  0
 21 22  1  6
 22 16  1  0
 23 25  1  0
 24 23  2  0
M  END
$$$$
