QMT.pdb
     RDKit          3D

 25 24  0  0  1  0  0  0  0  0999 V2000
    9.0026  -13.0283   16.6540 N   0  0  0  0  0  0  0  0  0  0  0  0
    7.9280  -13.9397   16.8015 C   0  0  0  0  0  0  0  0  0  0  0  0
    7.3402  -14.3134   15.7620 O   0  0  0  0  0  0  0  0  0  0  0  0
    7.5785  -14.3814   18.1550 C   0  0  0  0  0  0  0  0  0  0  0  0
    8.4724  -13.8103   19.2273 C   0  0  0  0  0  0  0  0  0  0  0  0
    8.7122  -14.9450   20.2222 C   0  0  2  0  0  0  0  0  0  0  0  0
    7.6232  -15.8939   20.1523 N   0  0  0  0  0  0  0  0  0  0  0  0
    8.9670  -14.4788   21.5861 C   0  0  0  0  0  0  0  0  0  0  0  0
    9.9170  -13.6912   21.8025 O   0  0  0  0  0  0  0  0  0  0  0  0
    6.2488  -11.2256   27.8065 C   0  0  0  0  0  0  0  0  0  0  0  0
    5.9021  -12.2488   26.3640 S   0  0  0  0  0  0  0  0  0  0  0  0
    7.3260  -13.3375   26.0355 C   0  0  0  0  0  0  0  0  0  0  0  0
    7.1705  -13.8443   24.6279 C   0  0  0  0  0  0  0  0  0  0  0  0
    8.3971  -14.4632   24.0563 C   0  0  2  0  0  0  0  0  0  0  0  0
    8.1579  -14.9020   22.6714 N   0  0  0  0  0  0  0  0  0  0  0  0
    8.9696  -15.5776   24.8447 C   0  0  0  0  0  0  0  0  0  0  0  0
    9.0303  -15.5945   26.0816 O   0  0  0  0  0  0  0  0  0  0  0  0
    8.8033  -19.6356   23.6841 C   0  0  0  0  0  0  0  0  0  0  0  0
   10.1736  -19.0559   24.0169 C   0  0  1  0  0  0  0  0  0  0  0  0
   10.8011  -18.6742   22.8292 O   0  0  0  0  0  0  0  0  0  0  0  0
   10.0509  -17.8355   24.8912 C   0  0  2  0  0  0  0  0  0  0  0  0
    9.4936  -16.7199   24.1650 N   0  0  0  0  0  0  0  0  0  0  0  0
   11.4119  -17.4642   25.3661 C   0  0  0  0  0  0  0  0  0  0  0  0
   11.9167  -16.3672   25.0389 O   0  0  0  0  0  0  0  0  0  0  0  0
   12.1221  -18.3437   26.1773 O   0  0  0  0  0  0  0  0  0  0  0  0
  2  1  1  0
  2  3  2  0
  4  2  1  0
  5  4  1  0
  6  5  1  0
  6  7  1  1
  8  6  1  0
  8  9  2  0
 10 11  1  0
 11 12  1  0
 14 13  1  1
 13 12  1  0
 14 15  1  0
 15  8  1  0
 16 14  1  0
 17 16  2  0
 19 18  1  6
 19 21  1  0
 20 19  1  0
 21 23  1  0
 21 22  1  6
 22 16  1  0
 23 25  1  0
 24 23  2  0
M  END
$$$$
