QMT.pdb
     RDKit          3D

 25 24  0  0  1  0  0  0  0  0999 V2000
    8.4329  -12.4927   16.6056 N   0  0  0  0  0  0  0  0  0  0  0  0
    7.8840  -13.5591   17.3596 C   0  0  0  0  0  0  0  0  0  0  0  0
    7.5737  -14.6030   16.7436 O   0  0  0  0  0  0  0  0  0  0  0  0
    7.7173  -13.3689   18.8037 C   0  0  0  0  0  0  0  0  0  0  0  0
    8.9561  -13.6880   19.6029 C   0  0  0  0  0  0  0  0  0  0  0  0
    8.6209  -14.9375   20.4161 C   0  0  2  0  0  0  0  0  0  0  0  0
    7.2924  -15.3982   20.0779 N   0  0  0  0  0  0  0  0  0  0  0  0
    8.8065  -14.7609   21.8572 C   0  0  0  0  0  0  0  0  0  0  0  0
    9.8913  -14.3069   22.2893 O   0  0  0  0  0  0  0  0  0  0  0  0
    6.5247  -10.8591   26.2342 C   0  0  0  0  0  0  0  0  0  0  0  0
    7.6464  -12.2457   26.4939 S   0  0  0  0  0  0  0  0  0  0  0  0
    6.7560  -13.8091   26.2053 C   0  0  0  0  0  0  0  0  0  0  0  0
    6.7582  -14.0433   24.7195 C   0  0  0  0  0  0  0  0  0  0  0  0
    7.9043  -14.8531   24.2245 C   0  0  2  0  0  0  0  0  0  0  0  0
    7.7802  -15.0947   22.7775 N   0  0  0  0  0  0  0  0  0  0  0  0
    8.1247  -16.1352   24.9309 C   0  0  0  0  0  0  0  0  0  0  0  0
    7.2275  -16.9479   25.1922 O   0  0  0  0  0  0  0  0  0  0  0  0
   10.1221  -19.0008   23.8116 C   0  0  0  0  0  0  0  0  0  0  0  0
   10.7241  -18.5495   25.1377 C   0  0  1  0  0  0  0  0  0  0  0  0
   11.8143  -17.7168   24.8765 O   0  0  0  0  0  0  0  0  0  0  0  0
    9.7260  -17.7677   25.9508 C   0  0  2  0  0  0  0  0  0  0  0  0
    9.4446  -16.4859   25.3508 N   0  0  0  0  0  0  0  0  0  0  0  0
   10.3014  -17.5448   27.3054 C   0  0  0  0  0  0  0  0  0  0  0  0
   10.5736  -16.3867   27.6924 O   0  0  0  0  0  0  0  0  0  0  0  0
   10.5360  -18.6320   28.1415 O   0  0  0  0  0  0  0  0  0  0  0  0
  2  1  1  0
  2  3  2  0
  4  2  1  0
  5  4  1  0
  6  5  1  0
  6  7  1  1
  8  6  1  0
  8  9  2  0
 10 11  1  0
 11 12  1  0
 14 13  1  1
 13 12  1  0
 14 15  1  0
 15  8  1  0
 16 14  1  0
 17 16  2  0
 19 18  1  6
 19 21  1  0
 20 19  1  0
 21 23  1  0
 21 22  1  6
 22 16  1  0
 23 25  1  0
 24 23  2  0
M  END
$$$$
