QMT.pdb
     RDKit          3D

 25 24  0  0  1  0  0  0  0  0999 V2000
    8.2855  -12.0161   17.9387 N   0  0  0  0  0  0  0  0  0  0  0  0
    8.0763  -13.2529   17.2801 C   0  0  0  0  0  0  0  0  0  0  0  0
    8.3238  -13.3044   16.0547 O   0  0  0  0  0  0  0  0  0  0  0  0
    7.5864  -14.3834   18.0744 C   0  0  0  0  0  0  0  0  0  0  0  0
    7.3068  -14.0346   19.5149 C   0  0  0  0  0  0  0  0  0  0  0  0
    7.8523  -15.1977   20.3422 C   0  0  2  0  0  0  0  0  0  0  0  0
    6.8728  -16.2603   20.3959 N   0  0  0  0  0  0  0  0  0  0  0  0
    8.3233  -14.7977   21.6690 C   0  0  0  0  0  0  0  0  0  0  0  0
    9.4265  -14.2148   21.7832 O   0  0  0  0  0  0  0  0  0  0  0  0
    7.2436  -10.8603   27.2703 C   0  0  0  0  0  0  0  0  0  0  0  0
    6.3656  -12.4143   27.0209 S   0  0  0  0  0  0  0  0  0  0  0  0
    7.5187  -13.6652   26.3680 C   0  0  0  0  0  0  0  0  0  0  0  0
    7.1480  -13.8889   24.9275 C   0  0  0  0  0  0  0  0  0  0  0  0
    8.0615  -14.8036   24.1906 C   0  0  2  0  0  0  0  0  0  0  0  0
    7.5541  -15.0573   22.8319 N   0  0  0  0  0  0  0  0  0  0  0  0
    8.3510  -16.0882   24.8667 C   0  0  0  0  0  0  0  0  0  0  0  0
    7.4835  -16.8975   25.2221 O   0  0  0  0  0  0  0  0  0  0  0  0
   10.5120  -18.8871   23.6162 C   0  0  0  0  0  0  0  0  0  0  0  0
   11.0691  -18.4598   24.9696 C   0  0  1  0  0  0  0  0  0  0  0  0
   12.1605  -17.6143   24.7601 O   0  0  0  0  0  0  0  0  0  0  0  0
   10.0402  -17.7023   25.7673 C   0  0  2  0  0  0  0  0  0  0  0  0
    9.7069  -16.4457   25.1409 N   0  0  0  0  0  0  0  0  0  0  0  0
   10.6064  -17.4279   27.1163 C   0  0  0  0  0  0  0  0  0  0  0  0
   10.9163  -16.2613   27.4450 O   0  0  0  0  0  0  0  0  0  0  0  0
   10.7900  -18.4764   28.0125 O   0  0  0  0  0  0  0  0  0  0  0  0
  2  1  1  0
  2  3  2  0
  4  2  1  0
  5  4  1  0
  6  5  1  0
  6  7  1  1
  8  6  1  0
  8  9  2  0
 10 11  1  0
 11 12  1  0
 14 13  1  1
 13 12  1  0
 14 15  1  0
 15  8  1  0
 16 14  1  0
 17 16  2  0
 19 18  1  6
 19 21  1  0
 20 19  1  0
 21 23  1  0
 21 22  1  6
 22 16  1  0
 23 25  1  0
 24 23  2  0
M  END
$$$$
