QMT.pdb
     RDKit          3D

 25 24  0  0  1  0  0  0  0  0999 V2000
    8.1787  -13.8182   15.8254 N   0  0  0  0  0  0  0  0  0  0  0  0
    8.1275  -14.8789   16.7631 C   0  0  0  0  0  0  0  0  0  0  0  0
    7.5535  -15.9337   16.4120 O   0  0  0  0  0  0  0  0  0  0  0  0
    8.7472  -14.6704   18.0753 C   0  0  0  0  0  0  0  0  0  0  0  0
    7.7616  -14.3135   19.1599 C   0  0  0  0  0  0  0  0  0  0  0  0
    7.8027  -15.4673   20.1609 C   0  0  2  0  0  0  0  0  0  0  0  0
    6.5270  -16.1485   20.1733 N   0  0  0  0  0  0  0  0  0  0  0  0
    8.2384  -15.0622   21.4982 C   0  0  0  0  0  0  0  0  0  0  0  0
    9.3973  -14.6148   21.6612 O   0  0  0  0  0  0  0  0  0  0  0  0
    7.6519  -11.5366   28.0289 C   0  0  0  0  0  0  0  0  0  0  0  0
    7.2938  -11.9134   26.3033 S   0  0  0  0  0  0  0  0  0  0  0  0
    7.0577  -13.7100   26.1105 C   0  0  0  0  0  0  0  0  0  0  0  0
    6.7969  -13.9603   24.6505 C   0  0  0  0  0  0  0  0  0  0  0  0
    7.8027  -14.8319   23.9849 C   0  0  2  0  0  0  0  0  0  0  0  0
    7.3730  -15.1663   22.6169 N   0  0  0  0  0  0  0  0  0  0  0  0
    8.1516  -16.0693   24.7185 C   0  0  0  0  0  0  0  0  0  0  0  0
    7.3205  -16.8841   25.1418 O   0  0  0  0  0  0  0  0  0  0  0  0
   10.0854  -18.9423   23.4982 C   0  0  0  0  0  0  0  0  0  0  0  0
   10.8299  -18.4146   24.7196 C   0  0  1  0  0  0  0  0  0  0  0  0
   11.8652  -17.5817   24.2901 O   0  0  0  0  0  0  0  0  0  0  0  0
    9.9189  -17.6056   25.6051 C   0  0  2  0  0  0  0  0  0  0  0  0
    9.5254  -16.3710   24.9701 N   0  0  0  0  0  0  0  0  0  0  0  0
   10.6535  -17.2844   26.8593 C   0  0  0  0  0  0  0  0  0  0  0  0
   10.9120  -16.0958   27.1522 O   0  0  0  0  0  0  0  0  0  0  0  0
   11.0523  -18.3134   27.7067 O   0  0  0  0  0  0  0  0  0  0  0  0
  2  1  1  0
  2  3  2  0
  4  2  1  0
  5  4  1  0
  6  5  1  0
  6  7  1  1
  8  6  1  0
  8  9  2  0
 10 11  1  0
 11 12  1  0
 14 13  1  1
 13 12  1  0
 14 15  1  0
 15  8  1  0
 16 14  1  0
 17 16  2  0
 19 18  1  6
 19 21  1  0
 20 19  1  0
 21 23  1  0
 21 22  1  6
 22 16  1  0
 23 25  1  0
 24 23  2  0
M  END
$$$$
