QMT.pdb
     RDKit          3D

 25 24  0  0  1  0  0  0  0  0999 V2000
    6.6892  -19.6987   20.0125 N   0  0  0  0  0  0  0  0  0  0  0  0
    6.6831  -18.7538   18.9568 C   0  0  0  0  0  0  0  0  0  0  0  0
    6.3332  -19.1546   17.8243 O   0  0  0  0  0  0  0  0  0  0  0  0
    7.0851  -17.3772   19.2607 C   0  0  0  0  0  0  0  0  0  0  0  0
    7.4294  -17.1539   20.7121 C   0  0  0  0  0  0  0  0  0  0  0  0
    7.8123  -15.6793   20.8308 C   0  0  2  0  0  0  0  0  0  0  0  0
    8.6679  -15.3067   19.7261 N   0  0  0  0  0  0  0  0  0  0  0  0
    8.3863  -15.3301   22.1311 C   0  0  0  0  0  0  0  0  0  0  0  0
    9.6312  -15.2844   22.2647 O   0  0  0  0  0  0  0  0  0  0  0  0
    7.1525  -11.2707   27.4490 C   0  0  0  0  0  0  0  0  0  0  0  0
    6.0124  -11.7314   26.1315 S   0  0  0  0  0  0  0  0  0  0  0  0
    6.9089  -12.6720   24.8540 C   0  0  0  0  0  0  0  0  0  0  0  0
    7.1852  -14.0337   25.4298 C   0  0  0  0  0  0  0  0  0  0  0  0
    8.0949  -14.8776   24.6085 C   0  0  2  0  0  0  0  0  0  0  0  0
    7.5595  -15.0415   23.2468 N   0  0  0  0  0  0  0  0  0  0  0  0
    8.4197  -16.2024   25.1835 C   0  0  0  0  0  0  0  0  0  0  0  0
    7.5744  -17.0031   25.6055 O   0  0  0  0  0  0  0  0  0  0  0  0
   10.5879  -18.9664   23.5933 C   0  0  0  0  0  0  0  0  0  0  0  0
   11.1738  -18.5899   24.9496 C   0  0  1  0  0  0  0  0  0  0  0  0
   12.2368  -17.7064   24.7508 O   0  0  0  0  0  0  0  0  0  0  0  0
   10.1501  -17.8995   25.8122 C   0  0  2  0  0  0  0  0  0  0  0  0
    9.7857  -16.6123   25.2710 N   0  0  0  0  0  0  0  0  0  0  0  0
   10.7393  -17.6995   27.1644 C   0  0  0  0  0  0  0  0  0  0  0  0
   11.0786  -18.6848   27.8567 O   0  0  0  0  0  0  0  0  0  0  0  0
   10.9118  -16.4095   27.6567 O   0  0  0  0  0  0  0  0  0  0  0  0
  2  1  1  0
  2  3  2  0
  4  2  1  0
  5  4  1  0
  6  5  1  0
  6  7  1  6
  8  6  1  0
  8  9  2  0
 10 11  1  0
 11 12  1  0
 14 13  1  1
 13 12  1  0
 14 15  1  0
 15  8  1  0
 16 14  1  0
 17 16  2  0
 19 18  1  6
 19 21  1  0
 20 19  1  0
 21 23  1  0
 21 22  1  6
 22 16  1  0
 23 25  1  0
 24 23  2  0
M  END
$$$$
