GEC.pdb
     RDKit          3D

 20 19  0  0  1  0  0  0  0  0999 V2000
   24.1385  -16.4808  -18.1267 N   0  0  0  0  0  0  0  0  0  0  0  0
   24.3749  -17.8814  -17.8332 C   0  0  0  0  0  0  0  0  0  0  0  0
   24.1301  -18.0965  -16.3857 C   0  0  0  0  0  0  0  0  0  0  0  0
   24.1126  -17.1252  -15.5626 O   0  0  0  0  0  0  0  0  0  0  0  0
   23.9016  -19.3874  -15.8295 N   0  0  0  0  0  0  0  0  0  0  0  0
   23.6347  -19.5966  -14.4225 C   0  0  1  0  0  0  0  0  0  0  0  0
   22.4357  -20.4869  -14.1977 C   0  0  0  0  0  0  0  0  0  0  0  0
   21.4017  -20.3426  -15.2866 C   0  0  0  0  0  0  0  0  0  0  0  0
   20.2366  -21.1900  -14.9355 C   0  0  0  0  0  0  0  0  0  0  0  0
   19.8389  -22.1042  -15.7048 O   0  0  0  0  0  0  0  0  0  0  0  0
   24.8473  -20.0952  -13.7081 C   0  0  0  0  0  0  0  0  0  0  0  0
   25.6352  -20.9397  -14.2073 O   0  0  0  0  0  0  0  0  0  0  0  0
   19.5182  -21.0265  -13.7429 O   0  0  0  0  0  0  0  0  0  0  0  0
   25.1336  -19.6042  -12.4131 N   0  0  0  0  0  0  0  0  0  0  0  0
   25.9709  -20.2533  -11.4588 C   0  0  1  0  0  0  0  0  0  0  0  0
   25.5433  -19.7803  -10.0708 C   0  0  0  0  0  0  0  0  0  0  0  0
   26.6329  -20.4513   -8.8023 S   0  0  0  0  0  0  0  0  0  0  0  0
   25.7588  -21.7191  -11.5610 C   0  0  0  0  0  0  0  0  0  0  0  0
   26.8161  -22.6320  -11.4975 O   0  0  0  0  0  0  0  0  0  0  0  0
   24.6075  -22.2016  -11.7104 O   0  0  0  0  0  0  0  0  0  0  0  0
  2  1  1  0
  3  2  1  0
  4  3  2  0
  5  3  1  0
  6 11  1  0
  6  5  1  0
  6  7  1  6
  8  7  1  0
  9 10  2  0
  9  8  1  0
 11 12  2  0
 13  9  1  0
 14 15  1  0
 14 11  1  0
 15 16  1  1
 16 17  1  0
 18 19  1  0
 18 15  1  0
 20 18  2  0
M  END
$$$$
