GEC.pdb
     RDKit          3D

 20 19  0  0  1  0  0  0  0  0999 V2000
   22.0031  -12.6180  -19.7114 N   0  0  0  0  0  0  0  0  0  0  0  0
   22.9153  -11.7250  -19.0227 C   0  0  0  0  0  0  0  0  0  0  0  0
   22.1148  -10.6511  -18.3846 C   0  0  0  0  0  0  0  0  0  0  0  0
   22.1733   -9.4463  -18.7922 O   0  0  0  0  0  0  0  0  0  0  0  0
   21.2395  -10.8949  -17.2879 N   0  0  0  0  0  0  0  0  0  0  0  0
   20.5313   -9.8353  -16.6021 C   0  0  1  0  0  0  0  0  0  0  0  0
   19.3451  -10.3549  -15.8251 C   0  0  0  0  0  0  0  0  0  0  0  0
   18.5747   -9.2495  -15.1466 C   0  0  0  0  0  0  0  0  0  0  0  0
   17.4559   -9.8606  -14.3893 C   0  0  0  0  0  0  0  0  0  0  0  0
   17.2599  -11.1044  -14.4046 O   0  0  0  0  0  0  0  0  0  0  0  0
   21.4538   -9.0297  -15.7482 C   0  0  0  0  0  0  0  0  0  0  0  0
   22.3130   -9.5505  -14.9907 O   0  0  0  0  0  0  0  0  0  0  0  0
   16.5620   -9.1011  -13.6219 O   0  0  0  0  0  0  0  0  0  0  0  0
   21.3679   -7.6185  -15.7836 N   0  0  0  0  0  0  0  0  0  0  0  0
   22.2185   -6.7290  -15.0635 C   0  0  1  0  0  0  0  0  0  0  0  0
   22.9602   -5.8696  -16.0855 C   0  0  0  0  0  0  0  0  0  0  0  0
   23.8906   -4.5617  -15.2668 S   0  0  0  0  0  0  0  0  0  0  0  0
   21.3760   -5.8535  -14.2104 C   0  0  0  0  0  0  0  0  0  0  0  0
   21.8117   -5.3786  -12.9695 O   0  0  0  0  0  0  0  0  0  0  0  0
   20.2254   -5.5015  -14.5748 O   0  0  0  0  0  0  0  0  0  0  0  0
  2  1  1  0
  3  2  1  0
  4  3  2  0
  5  3  1  0
  6 11  1  0
  6  5  1  0
  6  7  1  1
  8  7  1  0
  9 10  2  0
  9  8  1  0
 11 12  2  0
 13  9  1  0
 14 15  1  0
 14 11  1  0
 15 16  1  6
 16 17  1  0
 18 19  1  0
 18 15  1  0
 20 18  2  0
M  END
$$$$
