GEC.pdb
     RDKit          3D

 20 19  0  0  1  0  0  0  0  0999 V2000
   11.3117  -12.9273  -10.1529 N   0  0  0  0  0  0  0  0  0  0  0  0
   11.8917  -12.3401  -11.3456 C   0  0  0  0  0  0  0  0  0  0  0  0
   13.1221  -11.6120  -10.9490 C   0  0  0  0  0  0  0  0  0  0  0  0
   13.4131  -11.4150   -9.7253 O   0  0  0  0  0  0  0  0  0  0  0  0
   14.0465  -11.0924  -11.8997 N   0  0  0  0  0  0  0  0  0  0  0  0
   15.2308  -10.3542  -11.5161 C   0  0  1  0  0  0  0  0  0  0  0  0
   16.2623  -10.3219  -12.6187 C   0  0  0  0  0  0  0  0  0  0  0  0
   16.4863  -11.6805  -13.2349 C   0  0  0  0  0  0  0  0  0  0  0  0
   17.4939  -11.5405  -14.3136 C   0  0  0  0  0  0  0  0  0  0  0  0
   17.4982  -12.3141  -15.3072 O   0  0  0  0  0  0  0  0  0  0  0  0
   14.8839   -8.9857  -11.0301 C   0  0  0  0  0  0  0  0  0  0  0  0
   13.9504   -8.3017  -11.5240 O   0  0  0  0  0  0  0  0  0  0  0  0
   18.4881  -10.5525  -14.2923 O   0  0  0  0  0  0  0  0  0  0  0  0
   15.6299   -8.4227   -9.9687 N   0  0  0  0  0  0  0  0  0  0  0  0
   15.3410   -7.1779   -9.3361 C   0  0  1  0  0  0  0  0  0  0  0  0
   15.8556   -7.2586   -7.9001 C   0  0  0  0  0  0  0  0  0  0  0  0
   15.5757   -5.7046   -7.0320 S   0  0  0  0  0  0  0  0  0  0  0  0
   16.0674   -6.1008  -10.0544 C   0  0  0  0  0  0  0  0  0  0  0  0
   15.4983   -4.8451  -10.2885 O   0  0  0  0  0  0  0  0  0  0  0  0
   17.2353   -6.2780  -10.4848 O   0  0  0  0  0  0  0  0  0  0  0  0
  2  1  1  0
  3  2  1  0
  4  3  2  0
  5  3  1  0
  6 11  1  0
  6  5  1  0
  6  7  1  6
  8  7  1  0
  9 10  2  0
  9  8  1  0
 11 12  2  0
 13  9  1  0
 14 15  1  0
 14 11  1  0
 15 16  1  1
 16 17  1  0
 18 19  1  0
 18 15  1  0
 20 18  2  0
M  END
$$$$
