GEC.pdb
     RDKit          3D

 20 19  0  0  1  0  0  0  0  0999 V2000
   21.3109  -30.3129  -10.6692 N   0  0  0  0  0  0  0  0  0  0  0  0
   22.7038  -30.0195  -10.3908 C   0  0  0  0  0  0  0  0  0  0  0  0
   23.2614  -31.1422   -9.5972 C   0  0  0  0  0  0  0  0  0  0  0  0
   22.5430  -32.1362   -9.2550 O   0  0  0  0  0  0  0  0  0  0  0  0
   24.6199  -31.1809   -9.1715 N   0  0  0  0  0  0  0  0  0  0  0  0
   25.1870  -32.3111   -8.4674 C   0  0  1  0  0  0  0  0  0  0  0  0
   26.6498  -32.5049   -8.7886 C   0  0  0  0  0  0  0  0  0  0  0  0
   26.8649  -33.0479  -10.1796 C   0  0  0  0  0  0  0  0  0  0  0  0
   26.9003  -34.5281  -10.0996 C   0  0  0  0  0  0  0  0  0  0  0  0
   26.9192  -35.2377  -11.1398 O   0  0  0  0  0  0  0  0  0  0  0  0
   24.9419  -32.2138   -6.9978 C   0  0  0  0  0  0  0  0  0  0  0  0
   25.1731  -31.1701   -6.3343 O   0  0  0  0  0  0  0  0  0  0  0  0
   26.9148  -35.2166   -8.8786 O   0  0  0  0  0  0  0  0  0  0  0  0
   24.4273  -33.3375   -6.3102 N   0  0  0  0  0  0  0  0  0  0  0  0
   24.1504  -33.3846   -4.9122 C   0  0  1  0  0  0  0  0  0  0  0  0
   22.6366  -33.5002   -4.7443 C   0  0  0  0  0  0  0  0  0  0  0  0
   22.1599  -33.2213   -3.0292 S   0  0  0  0  0  0  0  0  0  0  0  0
   24.7979  -34.5922   -4.3408 C   0  0  0  0  0  0  0  0  0  0  0  0
   25.1516  -34.6807   -2.9908 O   0  0  0  0  0  0  0  0  0  0  0  0
   25.0560  -35.5930   -5.0566 O   0  0  0  0  0  0  0  0  0  0  0  0
  2  1  1  0
  3  2  1  0
  4  3  2  0
  5  3  1  0
  6 11  1  0
  6  5  1  0
  6  7  1  1
  8  7  1  0
  9 10  2  0
  9  8  1  0
 11 12  2  0
 13  9  1  0
 14 15  1  0
 14 11  1  0
 15 16  1  6
 16 17  1  0
 18 19  1  0
 18 15  1  0
 20 18  2  0
M  END
$$$$
