GEC.pdb
     RDKit          3D

 20 19  0  0  1  0  0  0  0  0999 V2000
   15.2221  -10.4184  -14.9588 N   0  0  0  0  0  0  0  0  0  0  0  0
   16.3555  -11.0237  -14.2858 C   0  0  0  0  0  0  0  0  0  0  0  0
   17.5831  -10.3134  -14.7214 C   0  0  0  0  0  0  0  0  0  0  0  0
   18.7122  -10.5434  -14.1799 O   0  0  0  0  0  0  0  0  0  0  0  0
   17.5785   -9.3397  -15.7608 N   0  0  0  0  0  0  0  0  0  0  0  0
   18.7848   -8.6942  -16.2328 C   0  0  1  0  0  0  0  0  0  0  0  0
   18.7267   -8.3931  -17.7115 C   0  0  0  0  0  0  0  0  0  0  0  0
   18.7019   -9.6458  -18.5517 C   0  0  0  0  0  0  0  0  0  0  0  0
   18.5740   -9.2480  -19.9744 C   0  0  0  0  0  0  0  0  0  0  0  0
   19.2878   -9.7771  -20.8668 O   0  0  0  0  0  0  0  0  0  0  0  0
   19.1033   -7.4804  -15.4238 C   0  0  0  0  0  0  0  0  0  0  0  0
   18.2183   -6.7048  -14.9784 O   0  0  0  0  0  0  0  0  0  0  0  0
   17.6636   -8.2730  -20.4052 O   0  0  0  0  0  0  0  0  0  0  0  0
   20.4553   -7.1787  -15.1387 N   0  0  0  0  0  0  0  0  0  0  0  0
   20.8962   -6.1138  -14.2994 C   0  0  1  0  0  0  0  0  0  0  0  0
   21.8889   -6.6969  -13.2954 C   0  0  0  0  0  0  0  0  0  0  0  0
   22.5206   -5.4126  -12.2007 S   0  0  0  0  0  0  0  0  0  0  0  0
   21.5885   -5.1037  -15.1387 C   0  0  0  0  0  0  0  0  0  0  0  0
   21.5504   -3.7371  -14.8449 O   0  0  0  0  0  0  0  0  0  0  0  0
   22.2430   -5.4418  -16.1575 O   0  0  0  0  0  0  0  0  0  0  0  0
  2  1  1  0
  3  2  1  0
  4  3  2  0
  5  3  1  0
  6 11  1  0
  6  5  1  0
  6  7  1  6
  8  7  1  0
  9 10  2  0
  9  8  1  0
 11 12  2  0
 13  9  1  0
 14 15  1  0
 14 11  1  0
 15 16  1  1
 16 17  1  0
 18 19  1  0
 18 15  1  0
 20 18  2  0
M  END
$$$$
