NNQ.pdb
     RDKit          3D

 26 25  0  0  1  0  0  0  0  0999 V2000
   52.5410    0.2346  -54.0842 N   0  0  0  0  0  0  0  0  0  0  0  0
   52.3666    1.5415  -53.5485 C   0  0  0  0  0  0  0  0  0  0  0  0
   52.3748    1.6903  -52.3080 O   0  0  0  0  0  0  0  0  0  0  0  0
   52.1855    2.6583  -54.4894 C   0  0  0  0  0  0  0  0  0  0  0  0
   53.4969    2.9705  -55.1453 C   0  0  2  0  0  0  0  0  0  0  0  0
   54.1089    1.8037  -55.7036 N   0  0  0  0  0  0  0  0  0  0  0  0
   54.4598    3.6063  -54.1875 C   0  0  0  0  0  0  0  0  0  0  0  0
   54.0710    4.6050  -53.4958 O   0  0  0  0  0  0  0  0  0  0  0  0
   58.7091    4.4670  -51.3300 N   0  0  0  0  0  0  0  0  0  0  0  0
   58.9134    3.3031  -52.0836 C   0  0  0  0  0  0  0  0  0  0  0  0
   60.0368    2.7109  -52.0278 O   0  0  0  0  0  0  0  0  0  0  0  0
   57.8762    2.7301  -52.9399 C   0  0  0  0  0  0  0  0  0  0  0  0
   56.7082    3.6605  -53.0622 C   0  0  2  0  0  0  0  0  0  0  0  0
   55.7751    3.1069  -54.0546 N   0  0  0  0  0  0  0  0  0  0  0  0
   57.1051    4.9899  -53.6351 C   0  0  0  0  0  0  0  0  0  0  0  0
   57.8344    5.0377  -54.6313 O   0  0  0  0  0  0  0  0  0  0  0  0
   58.5869   10.7565  -55.0667 N   0  0  0  0  0  0  0  0  0  0  0  0
   59.1485    9.8458  -54.1580 C   0  0  0  0  0  0  0  0  0  0  0  0
   59.5777   10.2313  -53.0457 O   0  0  0  0  0  0  0  0  0  0  0  0
   59.2415    8.4017  -54.5073 C   0  0  0  0  0  0  0  0  0  0  0  0
   58.5681    7.5727  -53.4714 C   0  0  0  0  0  0  0  0  0  0  0  0
   57.0808    7.4765  -53.6914 C   0  0  2  0  0  0  0  0  0  0  0  0
   56.6586    6.2123  -53.0539 N   0  0  0  0  0  0  0  0  0  0  0  0
   56.8116    7.3757  -55.1404 C   0  0  0  0  0  0  0  0  0  0  0  0
   57.6977    6.5812  -55.9017 O   0  0  0  0  0  0  0  0  0  0  0  0
   55.8488    7.9553  -55.7023 O   0  0  0  0  0  0  0  0  0  0  0  0
  2  1  1  0
  2  3  2  0
  4  2  1  0
  5  7  1  0
  5  4  1  0
  5  6  1  1
  7  8  2  0
 10 11  2  0
 10  9  1  0
 12 10  1  0
 13 12  1  6
 14  7  1  0
 14 13  1  0
 15 16  2  0
 15 13  1  0
 17 18  1  0
 18 20  1  0
 19 18  2  0
 20 21  1  0
 22 21  1  6
 22 23  1  0
 23 15  1  0
 24 22  1  0
 24 25  1  0
 26 24  2  0
M  END
$$$$
