NNQ.pdb
     RDKit          3D

 26 25  0  0  1  0  0  0  0  0999 V2000
   23.2082  -16.1732  -17.3503 N   0  0  0  0  0  0  0  0  0  0  0  0
   22.0071  -16.3090  -18.1015 C   0  0  0  0  0  0  0  0  0  0  0  0
   21.7862  -17.3860  -18.6953 O   0  0  0  0  0  0  0  0  0  0  0  0
   21.0802  -15.1668  -18.1401 C   0  0  0  0  0  0  0  0  0  0  0  0
   21.6552  -14.0355  -17.3421 C   0  0  2  0  0  0  0  0  0  0  0  0
   21.7480  -14.3535  -15.9500 N   0  0  0  0  0  0  0  0  0  0  0  0
   20.8481  -12.7810  -17.4953 C   0  0  0  0  0  0  0  0  0  0  0  0
   20.6522  -12.3140  -18.6660 O   0  0  0  0  0  0  0  0  0  0  0  0
   16.2268  -11.3917  -16.6185 N   0  0  0  0  0  0  0  0  0  0  0  0
   17.3212  -11.8492  -15.8720 C   0  0  0  0  0  0  0  0  0  0  0  0
   17.3849  -13.0750  -15.5419 O   0  0  0  0  0  0  0  0  0  0  0  0
   18.4097  -10.9673  -15.4535 C   0  0  0  0  0  0  0  0  0  0  0  0
   19.4887  -10.9183  -16.4918 C   0  0  2  0  0  0  0  0  0  0  0  0
   20.3143  -12.1279  -16.3614 N   0  0  0  0  0  0  0  0  0  0  0  0
   20.4506   -9.7913  -16.2511 C   0  0  0  0  0  0  0  0  0  0  0  0
   21.3505   -9.9184  -15.4141 O   0  0  0  0  0  0  0  0  0  0  0  0
   21.3449   -4.9242  -20.0365 N   0  0  0  0  0  0  0  0  0  0  0  0
   22.1609   -4.5644  -18.9525 C   0  0  0  0  0  0  0  0  0  0  0  0
   22.8306   -3.5057  -18.9772 O   0  0  0  0  0  0  0  0  0  0  0  0
   22.2407   -5.4419  -17.7527 C   0  0  0  0  0  0  0  0  0  0  0  0
   21.3799   -6.6425  -17.9296 C   0  0  0  0  0  0  0  0  0  0  0  0
   21.3704   -7.5262  -16.7094 C   0  0  2  0  0  0  0  0  0  0  0  0
   20.3522   -8.5646  -16.9700 N   0  0  0  0  0  0  0  0  0  0  0  0
   20.9339   -6.7339  -15.5416 C   0  0  0  0  0  0  0  0  0  0  0  0
   21.9422   -6.0763  -14.8021 O   0  0  0  0  0  0  0  0  0  0  0  0
   19.7312   -6.6277  -15.1942 O   0  0  0  0  0  0  0  0  0  0  0  0
  2  1  1  0
  2  3  2  0
  4  2  1  0
  5  7  1  0
  5  4  1  0
  5  6  1  1
  7  8  2  0
 10 11  2  0
 10  9  1  0
 12 10  1  0
 13 12  1  1
 14  7  1  0
 14 13  1  0
 15 16  2  0
 15 13  1  0
 17 18  1  0
 18 20  1  0
 19 18  2  0
 20 21  1  0
 22 21  1  6
 22 23  1  0
 23 15  1  0
 24 22  1  0
 24 25  1  0
 26 24  2  0
M  END
$$$$
