NNQ.pdb
     RDKit          3D

 26 25  0  0  1  0  0  0  0  0999 V2000
   30.4135  -22.8816  -17.8298 N   0  0  0  0  0  0  0  0  0  0  0  0
   29.1823  -22.1999  -17.6186 C   0  0  0  0  0  0  0  0  0  0  0  0
   28.7875  -21.3873  -18.4817 O   0  0  0  0  0  0  0  0  0  0  0  0
   28.4315  -22.4897  -16.3866 C   0  0  0  0  0  0  0  0  0  0  0  0
   27.3428  -21.4726  -16.2197 C   0  0  2  0  0  0  0  0  0  0  0  0
   27.8643  -20.1676  -15.9503 N   0  0  0  0  0  0  0  0  0  0  0  0
   26.3959  -21.8480  -15.1191 C   0  0  0  0  0  0  0  0  0  0  0  0
   25.8544  -23.0026  -15.1400 O   0  0  0  0  0  0  0  0  0  0  0  0
   25.0223  -21.8358   -9.6466 N   0  0  0  0  0  0  0  0  0  0  0  0
   24.7143  -20.8909  -10.6349 C   0  0  0  0  0  0  0  0  0  0  0  0
   23.6131  -20.2590  -10.5747 O   0  0  0  0  0  0  0  0  0  0  0  0
   25.6178  -20.5932  -11.7451 C   0  0  0  0  0  0  0  0  0  0  0  0
   25.1679  -21.2771  -13.0000 C   0  0  2  0  0  0  0  0  0  0  0  0
   26.1091  -20.9372  -14.0774 N   0  0  0  0  0  0  0  0  0  0  0  0
   23.8493  -20.7500  -13.4865 C   0  0  0  0  0  0  0  0  0  0  0  0
   23.7609  -19.5825  -13.8810 O   0  0  0  0  0  0  0  0  0  0  0  0
   19.9253  -23.6091  -16.9608 N   0  0  0  0  0  0  0  0  0  0  0  0
   19.2266  -22.4081  -16.7607 C   0  0  0  0  0  0  0  0  0  0  0  0
   18.2249  -22.1248  -17.4580 O   0  0  0  0  0  0  0  0  0  0  0  0
   19.6703  -21.4507  -15.7108 C   0  0  0  0  0  0  0  0  0  0  0  0
   20.9666  -21.8868  -15.1249 C   0  0  0  0  0  0  0  0  0  0  0  0
   21.4298  -20.9776  -14.0165 C   0  0  2  0  0  0  0  0  0  0  0  0
   22.6832  -21.5693  -13.5052 N   0  0  0  0  0  0  0  0  0  0  0  0
   20.4323  -20.9956  -12.9272 C   0  0  0  0  0  0  0  0  0  0  0  0
   20.6321  -21.9368  -11.8927 O   0  0  0  0  0  0  0  0  0  0  0  0
   19.4413  -20.2242  -12.8903 O   0  0  0  0  0  0  0  0  0  0  0  0
  2  1  1  0
  2  3  2  0
  4  2  1  0
  5  7  1  0
  5  4  1  0
  5  6  1  1
  7  8  2  0
 10 11  2  0
 10  9  1  0
 12 10  1  0
 13 12  1  1
 14  7  1  0
 14 13  1  0
 15 16  2  0
 15 13  1  0
 17 18  1  0
 18 20  1  0
 19 18  2  0
 20 21  1  0
 22 21  1  6
 22 23  1  0
 23 15  1  0
 24 22  1  0
 24 25  1  0
 26 24  2  0
M  END
$$$$
