NNQ.pdb
     RDKit          3D

 26 25  0  0  1  0  0  0  0  0999 V2000
   27.8949  -12.3021  -16.1914 N   0  0  0  0  0  0  0  0  0  0  0  0
   28.0710  -10.9076  -16.4140 C   0  0  0  0  0  0  0  0  0  0  0  0
   29.2315  -10.4473  -16.4653 O   0  0  0  0  0  0  0  0  0  0  0  0
   26.8694  -10.0735  -16.5745 C   0  0  0  0  0  0  0  0  0  0  0  0
   25.6484  -10.9298  -16.4211 C   0  0  2  0  0  0  0  0  0  0  0  0
   25.6037  -11.9796  -17.3925 N   0  0  0  0  0  0  0  0  0  0  0  0
   24.3881  -10.1241  -16.5263 C   0  0  0  0  0  0  0  0  0  0  0  0
   24.1516   -9.4891  -17.6070 O   0  0  0  0  0  0  0  0  0  0  0  0
   20.7505  -11.3729  -16.5677 N   0  0  0  0  0  0  0  0  0  0  0  0
   20.5334  -11.0119  -15.2309 C   0  0  0  0  0  0  0  0  0  0  0  0
   19.7028  -11.6728  -14.5315 O   0  0  0  0  0  0  0  0  0  0  0  0
   21.2323   -9.8960  -14.5956 C   0  0  0  0  0  0  0  0  0  0  0  0
   22.2348   -9.2902  -15.5299 C   0  0  2  0  0  0  0  0  0  0  0  0
   23.4786  -10.0699  -15.4460 N   0  0  0  0  0  0  0  0  0  0  0  0
   22.6394   -7.9092  -15.1028 C   0  0  0  0  0  0  0  0  0  0  0  0
   23.4632   -7.7627  -14.1937 O   0  0  0  0  0  0  0  0  0  0  0  0
   23.7434   -3.2315  -18.6589 N   0  0  0  0  0  0  0  0  0  0  0  0
   23.7707   -2.5604  -17.4263 C   0  0  0  0  0  0  0  0  0  0  0  0
   24.1379   -1.3645  -17.3550 O   0  0  0  0  0  0  0  0  0  0  0  0
   23.3612   -3.2660  -16.1812 C   0  0  0  0  0  0  0  0  0  0  0  0
   22.9489   -4.6623  -16.4875 C   0  0  0  0  0  0  0  0  0  0  0  0
   22.5535   -5.4278  -15.2516 C   0  0  2  0  0  0  0  0  0  0  0  0
   22.0923   -6.7493  -15.7247 N   0  0  0  0  0  0  0  0  0  0  0  0
   21.4146   -4.7458  -14.6037 C   0  0  0  0  0  0  0  0  0  0  0  0
   21.7234   -3.7762  -13.6238 O   0  0  0  0  0  0  0  0  0  0  0  0
   20.2153   -4.9912  -14.8869 O   0  0  0  0  0  0  0  0  0  0  0  0
  2  1  1  0
  2  3  2  0
  4  2  1  0
  5  7  1  0
  5  4  1  0
  5  6  1  6
  7  8  2  0
 10 11  2  0
 10  9  1  0
 12 10  1  0
 13 12  1  1
 14  7  1  0
 14 13  1  0
 15 16  2  0
 15 13  1  0
 17 18  1  0
 18 20  1  0
 19 18  2  0
 20 21  1  0
 22 21  1  6
 22 23  1  0
 23 15  1  0
 24 22  1  0
 24 25  1  0
 26 24  2  0
M  END
$$$$
