NNQ.pdb
     RDKit          3D

 26 25  0  0  1  0  0  0  0  0999 V2000
   17.3206  -13.7023  -16.6514 N   0  0  0  0  0  0  0  0  0  0  0  0
   18.4485  -13.9589  -15.8223 C   0  0  0  0  0  0  0  0  0  0  0  0
   18.8324  -15.1388  -15.6753 O   0  0  0  0  0  0  0  0  0  0  0  0
   19.1100  -12.8137  -15.1771 C   0  0  0  0  0  0  0  0  0  0  0  0
   18.3867  -11.5530  -15.5443 C   0  0  2  0  0  0  0  0  0  0  0  0
   18.5126  -11.2483  -16.9368 N   0  0  0  0  0  0  0  0  0  0  0  0
   18.8771  -10.3796  -14.7498 C   0  0  0  0  0  0  0  0  0  0  0  0
   18.8322  -10.4364  -13.4763 O   0  0  0  0  0  0  0  0  0  0  0  0
   20.8503   -5.7313  -13.5487 N   0  0  0  0  0  0  0  0  0  0  0  0
   21.2827   -6.0921  -14.8322 C   0  0  0  0  0  0  0  0  0  0  0  0
   22.1589   -5.3828  -15.4195 O   0  0  0  0  0  0  0  0  0  0  0  0
   20.7661   -7.2663  -15.5335 C   0  0  0  0  0  0  0  0  0  0  0  0
   19.8716   -8.0722  -14.6418 C   0  0  2  0  0  0  0  0  0  0  0  0
   19.3800   -9.2311  -15.4017 N   0  0  0  0  0  0  0  0  0  0  0  0
   18.6250   -7.3233  -14.2698 C   0  0  0  0  0  0  0  0  0  0  0  0
   17.7132   -7.1980  -15.0941 O   0  0  0  0  0  0  0  0  0  0  0  0
   15.8283   -7.5568   -8.9605 N   0  0  0  0  0  0  0  0  0  0  0  0
   15.0848   -6.5182   -9.5427 C   0  0  0  0  0  0  0  0  0  0  0  0
   14.0407   -6.0922   -8.9964 O   0  0  0  0  0  0  0  0  0  0  0  0
   15.5308   -5.9064  -10.8244 C   0  0  0  0  0  0  0  0  0  0  0  0
   16.7418   -6.6018  -11.3378 C   0  0  0  0  0  0  0  0  0  0  0  0
   17.1849   -6.0696  -12.6758 C   0  0  2  0  0  0  0  0  0  0  0  0
   18.4634   -6.7459  -12.9768 N   0  0  0  0  0  0  0  0  0  0  0  0
   17.4453   -4.6204  -12.5579 C   0  0  0  0  0  0  0  0  0  0  0  0
   16.3711   -3.7516  -12.8531 O   0  0  0  0  0  0  0  0  0  0  0  0
   18.5573   -4.1479  -12.2134 O   0  0  0  0  0  0  0  0  0  0  0  0
  2  1  1  0
  2  3  2  0
  4  2  1  0
  5  7  1  0
  5  4  1  0
  5  6  1  6
  7  8  2  0
 10 11  2  0
 10  9  1  0
 12 10  1  0
 13 12  1  6
 14  7  1  0
 14 13  1  0
 15 16  2  0
 15 13  1  0
 17 18  1  0
 18 20  1  0
 19 18  2  0
 20 21  1  0
 22 21  1  1
 22 23  1  0
 23 15  1  0
 24 22  1  0
 24 25  1  0
 26 24  2  0
M  END
$$$$
