NNQ.pdb
     RDKit          3D

 26 25  0  0  1  0  0  0  0  0999 V2000
   30.0448  -19.4117  -11.2634 N   0  0  0  0  0  0  0  0  0  0  0  0
   29.6236  -20.6508  -11.8226 C   0  0  0  0  0  0  0  0  0  0  0  0
   30.3700  -21.6468  -11.7116 O   0  0  0  0  0  0  0  0  0  0  0  0
   28.3216  -20.6963  -12.5066 C   0  0  0  0  0  0  0  0  0  0  0  0
   27.2352  -20.8850  -11.4909 C   0  0  2  0  0  0  0  0  0  0  0  0
   27.4736  -22.0217  -10.6550 N   0  0  0  0  0  0  0  0  0  0  0  0
   25.8908  -21.0377  -12.1373 C   0  0  0  0  0  0  0  0  0  0  0  0
   25.7256  -21.9584  -13.0045 O   0  0  0  0  0  0  0  0  0  0  0  0
   22.3290  -20.3604   -9.1608 N   0  0  0  0  0  0  0  0  0  0  0  0
   22.1376  -20.6395  -10.5210 C   0  0  0  0  0  0  0  0  0  0  0  0
   21.6471  -21.7600  -10.8667 O   0  0  0  0  0  0  0  0  0  0  0  0
   22.4784  -19.6841  -11.5739 C   0  0  0  0  0  0  0  0  0  0  0  0
   23.5303  -20.2419  -12.4833 C   0  0  2  0  0  0  0  0  0  0  0  0
   24.8258  -20.1758  -11.7910 N   0  0  0  0  0  0  0  0  0  0  0  0
   23.7253  -19.3929  -13.7058 C   0  0  0  0  0  0  0  0  0  0  0  0
   24.2492  -18.2786  -13.6040 O   0  0  0  0  0  0  0  0  0  0  0  0
   28.0350  -19.4721  -16.1360 N   0  0  0  0  0  0  0  0  0  0  0  0
   27.4638  -18.7864  -17.2195 C   0  0  0  0  0  0  0  0  0  0  0  0
   28.1850  -18.2758  -18.1078 O   0  0  0  0  0  0  0  0  0  0  0  0
   25.9847  -18.6569  -17.3268 C   0  0  0  0  0  0  0  0  0  0  0  0
   25.3209  -19.3120  -16.1676 C   0  0  0  0  0  0  0  0  0  0  0  0
   23.8273  -19.1149  -16.1754 C   0  0  2  0  0  0  0  0  0  0  0  0
   23.3171  -19.8426  -14.9952 N   0  0  0  0  0  0  0  0  0  0  0  0
   23.2625  -19.7448  -17.3863 C   0  0  0  0  0  0  0  0  0  0  0  0
   23.3711  -19.0200  -18.5941 O   0  0  0  0  0  0  0  0  0  0  0  0
   22.7053  -20.8709  -17.3788 O   0  0  0  0  0  0  0  0  0  0  0  0
  2  1  1  0
  2  3  2  0
  4  2  1  0
  5  7  1  0
  5  4  1  0
  5  6  1  6
  7  8  2  0
 10 11  2  0
 10  9  1  0
 12 10  1  0
 13 12  1  1
 14  7  1  0
 14 13  1  0
 15 16  2  0
 15 13  1  0
 17 18  1  0
 18 20  1  0
 19 18  2  0
 20 21  1  0
 22 21  1  6
 22 23  1  0
 23 15  1  0
 24 22  1  0
 24 25  1  0
 26 24  2  0
M  END
$$$$
