NNQ.pdb
     RDKit          3D

 26 25  0  0  1  0  0  0  0  0999 V2000
   13.7640  -15.1009  -16.1701 N   0  0  0  0  0  0  0  0  0  0  0  0
   14.9633  -14.4334  -15.7940 C   0  0  0  0  0  0  0  0  0  0  0  0
   15.7636  -15.0160  -15.0315 O   0  0  0  0  0  0  0  0  0  0  0  0
   15.2016  -13.0826  -16.3268 C   0  0  0  0  0  0  0  0  0  0  0  0
   16.1460  -12.3524  -15.4201 C   0  0  2  0  0  0  0  0  0  0  0  0
   15.6264  -12.2268  -14.0927 N   0  0  0  0  0  0  0  0  0  0  0  0
   16.4696  -10.9838  -15.9406 C   0  0  0  0  0  0  0  0  0  0  0  0
   16.9682  -10.8716  -17.1093 O   0  0  0  0  0  0  0  0  0  0  0  0
   14.9089   -5.6479  -16.8292 N   0  0  0  0  0  0  0  0  0  0  0  0
   15.5505   -6.2336  -15.7292 C   0  0  0  0  0  0  0  0  0  0  0  0
   16.3719   -5.5460  -15.0451 O   0  0  0  0  0  0  0  0  0  0  0  0
   15.3106   -7.6184  -15.3263 C   0  0  0  0  0  0  0  0  0  0  0  0
   16.4866   -8.4847  -15.6597 C   0  0  2  0  0  0  0  0  0  0  0  0
   16.2259   -9.8387  -15.1492 N   0  0  0  0  0  0  0  0  0  0  0  0
   17.7276   -8.0528  -14.9340 C   0  0  0  0  0  0  0  0  0  0  0  0
   17.8869   -8.3634  -13.7488 O   0  0  0  0  0  0  0  0  0  0  0  0
   22.6424   -9.9331  -16.7981 N   0  0  0  0  0  0  0  0  0  0  0  0
   23.2102   -9.0718  -15.8460 C   0  0  0  0  0  0  0  0  0  0  0  0
   24.4234   -9.1584  -15.5451 O   0  0  0  0  0  0  0  0  0  0  0  0
   22.3720   -8.0386  -15.1782 C   0  0  0  0  0  0  0  0  0  0  0  0
   20.9603   -8.1392  -15.6371 C   0  0  0  0  0  0  0  0  0  0  0  0
   20.0539   -7.1727  -14.9202 C   0  0  2  0  0  0  0  0  0  0  0  0
   18.7381   -7.2850  -15.5825 N   0  0  0  0  0  0  0  0  0  0  0  0
   20.5565   -5.7982  -15.1210 C   0  0  0  0  0  0  0  0  0  0  0  0
   21.6601   -5.3996  -14.3343 O   0  0  0  0  0  0  0  0  0  0  0  0
   20.0507   -4.9952  -15.9444 O   0  0  0  0  0  0  0  0  0  0  0  0
  2  1  1  0
  2  3  2  0
  4  2  1  0
  5  7  1  0
  5  4  1  0
  5  6  1  1
  7  8  2  0
 10 11  2  0
 10  9  1  0
 12 10  1  0
 13 12  1  1
 14  7  1  0
 14 13  1  0
 15 16  2  0
 15 13  1  0
 17 18  1  0
 18 20  1  0
 19 18  2  0
 20 21  1  0
 22 21  1  6
 22 23  1  0
 23 15  1  0
 24 22  1  0
 24 25  1  0
 26 24  2  0
M  END
$$$$
