EWF.pdb
     RDKit          3D

 35 37  0  0  1  0  0  0  0  0999 V2000
    9.8053  -16.8081   18.6432 N   0  0  0  0  0  0  0  0  0  0  0  0
   10.5298  -17.5679   19.6678 C   0  0  1  0  0  0  0  0  0  0  0  0
   11.9642  -17.5983   19.2298 C   0  0  0  0  0  0  0  0  0  0  0  0
   12.4702  -18.9774   18.9252 C   0  0  0  0  0  0  0  0  0  0  0  0
   13.6017  -18.8068   17.9529 C   0  0  0  0  0  0  0  0  0  0  0  0
   13.6084  -19.5454   16.9502 O   0  0  0  0  0  0  0  0  0  0  0  0
   10.4376  -16.8731   20.9732 C   0  0  0  0  0  0  0  0  0  0  0  0
   10.9655  -15.7778   21.1565 O   0  0  0  0  0  0  0  0  0  0  0  0
   14.6152  -17.8804   18.1256 O   0  0  0  0  0  0  0  0  0  0  0  0
    9.7315  -17.4577   22.0577 N   0  0  0  0  0  0  0  0  0  0  0  0
    9.5339  -16.7787   23.3448 C   0  0  1  0  0  0  0  0  0  0  0  0
    8.0479  -16.7216   23.5604 C   0  0  0  0  0  0  0  0  0  0  0  0
    7.4341  -15.4180   23.3462 C   0  0  0  0  0  0  0  0  0  0  0  0
    7.0408  -14.8640   22.1493 C   0  0  0  0  0  0  0  0  0  0  0  0
    6.5194  -13.6319   22.4238 N   0  0  0  0  0  0  0  0  0  0  0  0
    6.5779  -13.4085   23.7474 C   0  0  0  0  0  0  0  0  0  0  0  0
    6.1735  -12.3145   24.4764 C   0  0  0  0  0  0  0  0  0  0  0  0
    6.3307  -12.2942   25.8564 C   0  0  0  0  0  0  0  0  0  0  0  0
    6.8937  -13.3818   26.4654 C   0  0  0  0  0  0  0  0  0  0  0  0
    7.2954  -14.4738   25.7234 C   0  0  0  0  0  0  0  0  0  0  0  0
    7.1436  -14.5076   24.3388 C   0  0  0  0  0  0  0  0  0  0  0  0
   10.2524  -17.5477   24.3858 C   0  0  0  0  0  0  0  0  0  0  0  0
   10.3026  -18.7957   24.3009 O   0  0  0  0  0  0  0  0  0  0  0  0
   10.8924  -16.9245   25.4868 N   0  0  0  0  0  0  0  0  0  0  0  0
   11.5833  -17.6629   26.5403 C   0  0  1  0  0  0  0  0  0  0  0  0
   12.4265  -16.7208   27.3498 C   0  0  0  0  0  0  0  0  0  0  0  0
   11.6218  -15.6465   27.9351 C   0  0  0  0  0  0  0  0  0  0  0  0
   11.1806  -15.7731   29.2495 C   0  0  0  0  0  0  0  0  0  0  0  0
   10.4302  -14.8119   29.8657 C   0  0  0  0  0  0  0  0  0  0  0  0
   10.1032  -13.6782   29.1504 C   0  0  0  0  0  0  0  0  0  0  0  0
   10.5169  -13.5077   27.8474 C   0  0  0  0  0  0  0  0  0  0  0  0
   11.2716  -14.4975   27.2597 C   0  0  0  0  0  0  0  0  0  0  0  0
   10.6055  -18.4334   27.3067 C   0  0  0  0  0  0  0  0  0  0  0  0
    9.2293  -18.3289   27.1607 O   0  0  0  0  0  0  0  0  0  0  0  0
   11.0152  -19.2613   28.1713 O   0  0  0  0  0  0  0  0  0  0  0  0
  2  1  1  6
  3  4  1  0
  3  2  1  0
  4  5  1  0
  5  6  2  0
  5  9  1  0
  7  8  2  0
  7  2  1  0
 10  7  1  0
 11 10  1  0
 11 12  1  1
 12 13  1  0
 13 14  2  0
 13 21  1  0
 14 15  1  0
 15 16  1  0
 16 17  2  0
 18 17  1  0
 19 18  2  0
 20 21  2  0
 20 19  1  0
 21 16  1  0
 22 11  1  0
 23 22  2  0
 24 22  1  0
 25 33  1  0
 25 24  1  0
 25 26  1  1
 26 27  1  0
 27 28  2  0
 28 29  1  0
 30 29  2  0
 31 30  1  0
 32 27  1  0
 32 31  2  0
 33 34  1  0
 35 33  2  0
M  END
$$$$
