EWF.pdb
     RDKit          3D

 35 37  0  0  1  0  0  0  0  0999 V2000
   10.4098  -19.0817   20.7827 N   0  0  0  0  0  0  0  0  0  0  0  0
   11.2689  -17.9036   20.6211 C   0  0  1  0  0  0  0  0  0  0  0  0
   11.0919  -17.4483   19.2028 C   0  0  0  0  0  0  0  0  0  0  0  0
   11.6400  -18.4103   18.1903 C   0  0  0  0  0  0  0  0  0  0  0  0
   11.4455  -17.7665   16.8478 C   0  0  0  0  0  0  0  0  0  0  0  0
   12.2167  -16.8371   16.5437 O   0  0  0  0  0  0  0  0  0  0  0  0
   10.8252  -16.8243   21.5341 C   0  0  0  0  0  0  0  0  0  0  0  0
   11.3310  -15.7041   21.4980 O   0  0  0  0  0  0  0  0  0  0  0  0
   10.4630  -18.1583   15.9555 O   0  0  0  0  0  0  0  0  0  0  0  0
    9.7951  -17.0555   22.4839 N   0  0  0  0  0  0  0  0  0  0  0  0
    9.3548  -16.0424   23.4516 C   0  0  1  0  0  0  0  0  0  0  0  0
    7.8534  -16.0344   23.3900 C   0  0  0  0  0  0  0  0  0  0  0  0
    7.2813  -15.6002   22.1227 C   0  0  0  0  0  0  0  0  0  0  0  0
    6.4157  -16.2981   21.3117 C   0  0  0  0  0  0  0  0  0  0  0  0
    6.1450  -15.5078   20.2312 N   0  0  0  0  0  0  0  0  0  0  0  0
    6.8132  -14.3482   20.3491 C   0  0  0  0  0  0  0  0  0  0  0  0
    6.8463  -13.2594   19.5093 C   0  0  0  0  0  0  0  0  0  0  0  0
    7.6170  -12.1492   19.8303 C   0  0  0  0  0  0  0  0  0  0  0  0
    8.3359  -12.1679   20.9937 C   0  0  0  0  0  0  0  0  0  0  0  0
    8.2946  -13.2659   21.8285 C   0  0  0  0  0  0  0  0  0  0  0  0
    7.5259  -14.3860   21.5190 C   0  0  0  0  0  0  0  0  0  0  0  0
    9.8892  -16.4131   24.7813 C   0  0  0  0  0  0  0  0  0  0  0  0
   10.0833  -17.6205   25.0490 O   0  0  0  0  0  0  0  0  0  0  0  0
   10.1933  -15.4488   25.7752 N   0  0  0  0  0  0  0  0  0  0  0  0
   10.0242  -15.6861   27.2061 C   0  0  1  0  0  0  0  0  0  0  0  0
    8.5982  -15.4268   27.5975 C   0  0  0  0  0  0  0  0  0  0  0  0
    8.1959  -14.0539   27.2853 C   0  0  0  0  0  0  0  0  0  0  0  0
    6.9139  -13.8212   26.7949 C   0  0  0  0  0  0  0  0  0  0  0  0
    6.4646  -12.5686   26.4852 C   0  0  0  0  0  0  0  0  0  0  0  0
    7.3207  -11.5022   26.6688 C   0  0  0  0  0  0  0  0  0  0  0  0
    8.5983  -11.6825   27.1516 C   0  0  0  0  0  0  0  0  0  0  0  0
    9.0160  -12.9591   27.4528 C   0  0  0  0  0  0  0  0  0  0  0  0
   10.5236  -17.0205   27.5335 C   0  0  0  0  0  0  0  0  0  0  0  0
   10.1171  -18.1904   26.9075 O   0  0  0  0  0  0  0  0  0  0  0  0
   11.3880  -17.1468   28.4488 O   0  0  0  0  0  0  0  0  0  0  0  0
  2  1  1  6
  3  4  1  0
  3  2  1  0
  4  5  1  0
  5  6  2  0
  5  9  1  0
  7  8  2  0
  7  2  1  0
 10  7  1  0
 11 10  1  0
 11 12  1  1
 12 13  1  0
 13 14  2  0
 13 21  1  0
 14 15  1  0
 15 16  1  0
 16 17  2  0
 18 17  1  0
 19 18  2  0
 20 21  2  0
 20 19  1  0
 21 16  1  0
 22 11  1  0
 23 22  2  0
 24 22  1  0
 25 33  1  0
 25 24  1  0
 25 26  1  6
 26 27  1  0
 27 28  2  0
 28 29  1  0
 30 29  2  0
 31 30  1  0
 32 27  1  0
 32 31  2  0
 33 34  1  0
 35 33  2  0
M  END
$$$$
