EWF.pdb
     RDKit          3D

 35 37  0  0  1  0  0  0  0  0999 V2000
    9.6840  -19.0702   19.4192 N   0  0  0  0  0  0  0  0  0  0  0  0
   10.8565  -18.2198   19.6515 C   0  0  1  0  0  0  0  0  0  0  0  0
   11.0205  -17.3866   18.4148 C   0  0  0  0  0  0  0  0  0  0  0  0
   12.2405  -16.5137   18.4362 C   0  0  0  0  0  0  0  0  0  0  0  0
   13.1735  -17.0666   17.3976 C   0  0  0  0  0  0  0  0  0  0  0  0
   14.2761  -16.5032   17.2636 O   0  0  0  0  0  0  0  0  0  0  0  0
   10.6126  -17.3258   20.8076 C   0  0  0  0  0  0  0  0  0  0  0  0
   11.4691  -16.5362   21.2010 O   0  0  0  0  0  0  0  0  0  0  0  0
   12.8610  -18.1543   16.6013 O   0  0  0  0  0  0  0  0  0  0  0  0
    9.3726  -17.3564   21.4991 N   0  0  0  0  0  0  0  0  0  0  0  0
    9.1108  -16.5693   22.7110 C   0  0  1  0  0  0  0  0  0  0  0  0
    7.6158  -16.4774   22.8316 C   0  0  0  0  0  0  0  0  0  0  0  0
    7.1238  -15.8438   24.0474 C   0  0  0  0  0  0  0  0  0  0  0  0
    6.5249  -16.4535   25.1261 C   0  0  0  0  0  0  0  0  0  0  0  0
    6.2270  -15.4755   26.0318 N   0  0  0  0  0  0  0  0  0  0  0  0
    6.6219  -14.2859   25.5484 C   0  0  0  0  0  0  0  0  0  0  0  0
    6.5283  -13.0318   26.1056 C   0  0  0  0  0  0  0  0  0  0  0  0
    7.0077  -11.9224   25.4208 C   0  0  0  0  0  0  0  0  0  0  0  0
    7.5703  -12.1091   24.1881 C   0  0  0  0  0  0  0  0  0  0  0  0
    7.6589  -13.3721   23.6394 C   0  0  0  0  0  0  0  0  0  0  0  0
    7.1822  -14.4935   24.3152 C   0  0  0  0  0  0  0  0  0  0  0  0
    9.7542  -17.2561   23.8536 C   0  0  0  0  0  0  0  0  0  0  0  0
    9.8059  -18.5069   23.8669 O   0  0  0  0  0  0  0  0  0  0  0  0
   10.3200  -16.5502   24.9454 N   0  0  0  0  0  0  0  0  0  0  0  0
   11.1894  -17.1700   25.9415 C   0  0  1  0  0  0  0  0  0  0  0  0
   11.8239  -16.1076   26.7915 C   0  0  0  0  0  0  0  0  0  0  0  0
   10.8386  -15.4448   27.6484 C   0  0  0  0  0  0  0  0  0  0  0  0
   10.7112  -15.8552   28.9726 C   0  0  0  0  0  0  0  0  0  0  0  0
    9.8184  -15.2826   29.8339 C   0  0  0  0  0  0  0  0  0  0  0  0
    9.0186  -14.2611   29.3640 C   0  0  0  0  0  0  0  0  0  0  0  0
    9.1084  -13.8204   28.0619 C   0  0  0  0  0  0  0  0  0  0  0  0
   10.0196  -14.4213   27.2232 C   0  0  0  0  0  0  0  0  0  0  0  0
   10.4319  -18.1813   26.6769 C   0  0  0  0  0  0  0  0  0  0  0  0
    9.0669  -18.3945   26.5458 O   0  0  0  0  0  0  0  0  0  0  0  0
   11.0387  -18.9287   27.4979 O   0  0  0  0  0  0  0  0  0  0  0  0
  2  1  1  6
  3  4  1  0
  3  2  1  0
  4  5  1  0
  5  6  2  0
  5  9  1  0
  7  8  2  0
  7  2  1  0
 10  7  1  0
 11 10  1  0
 11 12  1  1
 12 13  1  0
 13 14  2  0
 13 21  1  0
 14 15  1  0
 15 16  1  0
 16 17  2  0
 18 17  1  0
 19 18  2  0
 20 21  2  0
 20 19  1  0
 21 16  1  0
 22 11  1  0
 23 22  2  0
 24 22  1  0
 25 33  1  0
 25 24  1  0
 25 26  1  1
 26 27  1  0
 27 28  2  0
 28 29  1  0
 30 29  2  0
 31 30  1  0
 32 27  1  0
 32 31  2  0
 33 34  1  0
 35 33  2  0
M  END
$$$$
