EWF.pdb
     RDKit          3D

 35 37  0  0  1  0  0  0  0  0999 V2000
    9.8952  -18.7490   17.7612 N   0  0  0  0  0  0  0  0  0  0  0  0
    9.6733  -19.1954   19.1409 C   0  0  1  0  0  0  0  0  0  0  0  0
   10.6996  -20.2566   19.4074 C   0  0  0  0  0  0  0  0  0  0  0  0
   12.0758  -19.8938   18.9328 C   0  0  0  0  0  0  0  0  0  0  0  0
   12.9893  -20.0719   20.1112 C   0  0  0  0  0  0  0  0  0  0  0  0
   12.5509  -19.7388   21.2283 O   0  0  0  0  0  0  0  0  0  0  0  0
    9.8886  -18.0686   20.0785 C   0  0  0  0  0  0  0  0  0  0  0  0
   10.9496  -17.4477   20.1037 O   0  0  0  0  0  0  0  0  0  0  0  0
   14.2718  -20.5808   20.0048 O   0  0  0  0  0  0  0  0  0  0  0  0
    8.8673  -17.6713   20.9817 N   0  0  0  0  0  0  0  0  0  0  0  0
    9.0372  -16.5869   21.9573 C   0  0  1  0  0  0  0  0  0  0  0  0
    7.6916  -15.9308   22.0874 C   0  0  0  0  0  0  0  0  0  0  0  0
    7.6894  -14.6333   22.7496 C   0  0  0  0  0  0  0  0  0  0  0  0
    8.2068  -13.4498   22.2746 C   0  0  0  0  0  0  0  0  0  0  0  0
    7.9824  -12.4970   23.2271 N   0  0  0  0  0  0  0  0  0  0  0  0
    7.3449  -13.0527   24.2710 C   0  0  0  0  0  0  0  0  0  0  0  0
    6.9185  -12.4843   25.4488 C   0  0  0  0  0  0  0  0  0  0  0  0
    6.2708  -13.2555   26.4055 C   0  0  0  0  0  0  0  0  0  0  0  0
    6.0704  -14.5836   26.1472 C   0  0  0  0  0  0  0  0  0  0  0  0
    6.5026  -15.1425   24.9618 C   0  0  0  0  0  0  0  0  0  0  0  0
    7.1534  -14.3809   23.9936 C   0  0  0  0  0  0  0  0  0  0  0  0
    9.5303  -17.1785   23.2215 C   0  0  0  0  0  0  0  0  0  0  0  0
    8.9381  -18.1689   23.7068 O   0  0  0  0  0  0  0  0  0  0  0  0
   10.6563  -16.6653   23.9136 N   0  0  0  0  0  0  0  0  0  0  0  0
   10.7492  -16.6078   25.3698 C   0  0  1  0  0  0  0  0  0  0  0  0
    9.5363  -15.9212   25.9279 C   0  0  0  0  0  0  0  0  0  0  0  0
    9.8680  -15.1169   27.1057 C   0  0  0  0  0  0  0  0  0  0  0  0
    9.6224  -15.6409   28.3720 C   0  0  0  0  0  0  0  0  0  0  0  0
    9.9089  -14.9531   29.5172 C   0  0  0  0  0  0  0  0  0  0  0  0
   10.4616  -13.6939   29.4036 C   0  0  0  0  0  0  0  0  0  0  0  0
   10.7230  -13.1334   28.1726 C   0  0  0  0  0  0  0  0  0  0  0  0
   10.4210  -13.8563   27.0407 C   0  0  0  0  0  0  0  0  0  0  0  0
   10.9935  -17.9525   25.8886 C   0  0  0  0  0  0  0  0  0  0  0  0
   11.5407  -18.2304   27.1333 O   0  0  0  0  0  0  0  0  0  0  0  0
   10.6948  -18.9522   25.1729 O   0  0  0  0  0  0  0  0  0  0  0  0
  2  1  1  6
  3  4  1  0
  3  2  1  0
  4  5  1  0
  5  6  2  0
  5  9  1  0
  7  8  2  0
  7  2  1  0
 10  7  1  0
 11 10  1  0
 11 12  1  1
 12 13  1  0
 13 14  2  0
 13 21  1  0
 14 15  1  0
 15 16  1  0
 16 17  2  0
 18 17  1  0
 19 18  2  0
 20 21  2  0
 20 19  1  0
 21 16  1  0
 22 11  1  0
 23 22  2  0
 24 22  1  0
 25 33  1  0
 25 24  1  0
 25 26  1  1
 26 27  1  0
 27 28  2  0
 28 29  1  0
 30 29  2  0
 31 30  1  0
 32 27  1  0
 32 31  2  0
 33 34  1  0
 35 33  2  0
M  END
$$$$
