EWF.pdb
     RDKit          3D

 35 37  0  0  1  0  0  0  0  0999 V2000
   10.2498  -19.0780   19.5541 N   0  0  0  0  0  0  0  0  0  0  0  0
   11.3386  -18.1658   19.9208 C   0  0  1  0  0  0  0  0  0  0  0  0
   11.6653  -17.3852   18.6822 C   0  0  0  0  0  0  0  0  0  0  0  0
   11.6488  -18.2112   17.4299 C   0  0  0  0  0  0  0  0  0  0  0  0
   12.0995  -17.3051   16.3205 C   0  0  0  0  0  0  0  0  0  0  0  0
   11.4056  -17.2805   15.2866 O   0  0  0  0  0  0  0  0  0  0  0  0
   10.8819  -17.2303   20.9752 C   0  0  0  0  0  0  0  0  0  0  0  0
   11.5114  -16.2090   21.2442 O   0  0  0  0  0  0  0  0  0  0  0  0
   13.2321  -16.5141   16.4019 O   0  0  0  0  0  0  0  0  0  0  0  0
    9.6948  -17.4896   21.7103 N   0  0  0  0  0  0  0  0  0  0  0  0
    9.3160  -16.7366   22.9129 C   0  0  1  0  0  0  0  0  0  0  0  0
    7.8142  -16.6867   22.9156 C   0  0  0  0  0  0  0  0  0  0  0  0
    7.2141  -15.9638   24.0288 C   0  0  0  0  0  0  0  0  0  0  0  0
    6.5565  -16.4947   25.1149 C   0  0  0  0  0  0  0  0  0  0  0  0
    6.1620  -15.4502   25.9015 N   0  0  0  0  0  0  0  0  0  0  0  0
    6.5542  -14.2954   25.3377 C   0  0  0  0  0  0  0  0  0  0  0  0
    6.3804  -13.0002   25.7668 C   0  0  0  0  0  0  0  0  0  0  0  0
    6.8742  -11.9406   25.0165 C   0  0  0  0  0  0  0  0  0  0  0  0
    7.5320  -12.2175   23.8496 C   0  0  0  0  0  0  0  0  0  0  0  0
    7.7003  -13.5211   23.4295 C   0  0  0  0  0  0  0  0  0  0  0  0
    7.2103  -14.5934   24.1721 C   0  0  0  0  0  0  0  0  0  0  0  0
    9.8858  -17.4314   24.0893 C   0  0  0  0  0  0  0  0  0  0  0  0
    9.5176  -18.5994   24.3491 O   0  0  0  0  0  0  0  0  0  0  0  0
   10.8405  -16.8238   24.9435 N   0  0  0  0  0  0  0  0  0  0  0  0
   11.0319  -17.2077   26.3393 C   0  0  1  0  0  0  0  0  0  0  0  0
    9.8659  -16.7358   27.1589 C   0  0  0  0  0  0  0  0  0  0  0  0
   10.0162  -15.3327   27.5500 C   0  0  0  0  0  0  0  0  0  0  0  0
    8.9113  -14.4890   27.4745 C   0  0  0  0  0  0  0  0  0  0  0  0
    8.9720  -13.1701   27.8259 C   0  0  0  0  0  0  0  0  0  0  0  0
   10.1769  -12.6658   28.2706 C   0  0  0  0  0  0  0  0  0  0  0  0
   11.2976  -13.4617   28.3627 C   0  0  0  0  0  0  0  0  0  0  0  0
   11.1984  -14.7858   27.9998 C   0  0  0  0  0  0  0  0  0  0  0  0
   11.2982  -18.6434   26.4100 C   0  0  0  0  0  0  0  0  0  0  0  0
   12.0017  -19.2658   27.4316 O   0  0  0  0  0  0  0  0  0  0  0  0
   10.8687  -19.3954   25.4876 O   0  0  0  0  0  0  0  0  0  0  0  0
  2  1  1  6
  3  4  1  0
  3  2  1  0
  4  5  1  0
  5  6  2  0
  5  9  1  0
  7  8  2  0
  7  2  1  0
 10  7  1  0
 11 10  1  0
 11 12  1  1
 12 13  1  0
 13 14  2  0
 13 21  1  0
 14 15  1  0
 15 16  1  0
 16 17  2  0
 18 17  1  0
 19 18  2  0
 20 21  2  0
 20 19  1  0
 21 16  1  0
 22 11  1  0
 23 22  2  0
 24 22  1  0
 25 33  1  0
 25 24  1  0
 25 26  1  1
 26 27  1  0
 27 28  2  0
 28 29  1  0
 30 29  2  0
 31 30  1  0
 32 27  1  0
 32 31  2  0
 33 34  1  0
 35 33  2  0
M  END
$$$$
