EWF.pdb
     RDKit          3D

 35 37  0  0  1  0  0  0  0  0999 V2000
   10.6400  -18.7895   20.6308 N   0  0  0  0  0  0  0  0  0  0  0  0
   11.6147  -17.7933   21.0885 C   0  0  1  0  0  0  0  0  0  0  0  0
   11.6990  -16.7612   20.0031 C   0  0  0  0  0  0  0  0  0  0  0  0
   12.2358  -17.2945   18.7077 C   0  0  0  0  0  0  0  0  0  0  0  0
   12.3611  -16.1160   17.7855 C   0  0  0  0  0  0  0  0  0  0  0  0
   11.9120  -16.2448   16.6311 O   0  0  0  0  0  0  0  0  0  0  0  0
   11.1332  -17.1482   22.3325 C   0  0  0  0  0  0  0  0  0  0  0  0
   11.6241  -16.0983   22.7430 O   0  0  0  0  0  0  0  0  0  0  0  0
   12.9443  -14.9188   18.1619 O   0  0  0  0  0  0  0  0  0  0  0  0
   10.0829  -17.7294   23.0913 N   0  0  0  0  0  0  0  0  0  0  0  0
    9.5812  -17.1475   24.3428 C   0  0  1  0  0  0  0  0  0  0  0  0
    8.0821  -17.2067   24.2565 C   0  0  0  0  0  0  0  0  0  0  0  0
    7.4397  -16.0209   23.7058 C   0  0  0  0  0  0  0  0  0  0  0  0
    7.0793  -15.7953   22.3969 C   0  0  0  0  0  0  0  0  0  0  0  0
    6.5114  -14.5545   22.3400 N   0  0  0  0  0  0  0  0  0  0  0  0
    6.5095  -14.0091   23.5679 C   0  0  0  0  0  0  0  0  0  0  0  0
    6.0440  -12.7852   23.9891 C   0  0  0  0  0  0  0  0  0  0  0  0
    6.1444  -12.4187   25.3252 C   0  0  0  0  0  0  0  0  0  0  0  0
    6.7138  -13.2997   26.2028 C   0  0  0  0  0  0  0  0  0  0  0  0
    7.1770  -14.5249   25.7685 C   0  0  0  0  0  0  0  0  0  0  0  0
    7.0826  -14.9054   24.4315 C   0  0  0  0  0  0  0  0  0  0  0  0
   10.1390  -17.9288   25.4696 C   0  0  0  0  0  0  0  0  0  0  0  0
   10.7888  -18.9716   25.2301 O   0  0  0  0  0  0  0  0  0  0  0  0
    9.9664  -17.5423   26.8228 N   0  0  0  0  0  0  0  0  0  0  0  0
   10.5901  -18.2382   27.9449 C   0  0  1  0  0  0  0  0  0  0  0  0
   10.6960  -17.3106   29.1206 C   0  0  0  0  0  0  0  0  0  0  0  0
   10.8897  -15.9229   28.6950 C   0  0  0  0  0  0  0  0  0  0  0  0
    9.8667  -15.0028   28.9073 C   0  0  0  0  0  0  0  0  0  0  0  0
    9.9748  -13.6907   28.5422 C   0  0  0  0  0  0  0  0  0  0  0  0
   11.1447  -13.2725   27.9418 C   0  0  0  0  0  0  0  0  0  0  0  0
   12.1848  -14.1459   27.7111 C   0  0  0  0  0  0  0  0  0  0  0  0
   12.0397  -15.4604   28.0926 C   0  0  0  0  0  0  0  0  0  0  0  0
    9.8658  -19.4821   28.2006 C   0  0  0  0  0  0  0  0  0  0  0  0
   10.3332  -20.5174   28.9979 O   0  0  0  0  0  0  0  0  0  0  0  0
    8.7303  -19.6536   27.6696 O   0  0  0  0  0  0  0  0  0  0  0  0
  2  1  1  6
  3  4  1  0
  3  2  1  0
  4  5  1  0
  5  6  2  0
  5  9  1  0
  7  8  2  0
  7  2  1  0
 10  7  1  0
 11 10  1  0
 11 12  1  6
 12 13  1  0
 13 14  2  0
 13 21  1  0
 14 15  1  0
 15 16  1  0
 16 17  2  0
 18 17  1  0
 19 18  2  0
 20 21  2  0
 20 19  1  0
 21 16  1  0
 22 11  1  0
 23 22  2  0
 24 22  1  0
 25 33  1  0
 25 24  1  0
 25 26  1  1
 26 27  1  0
 27 28  2  0
 28 29  1  0
 30 29  2  0
 31 30  1  0
 32 27  1  0
 32 31  2  0
 33 34  1  0
 35 33  2  0
M  END
$$$$
