EWF.pdb
     RDKit          3D

 35 37  0  0  1  0  0  0  0  0999 V2000
    9.1998  -16.9380   18.1901 N   0  0  0  0  0  0  0  0  0  0  0  0
    9.7740  -17.7053   19.3007 C   0  0  1  0  0  0  0  0  0  0  0  0
   11.2205  -17.9132   18.9617 C   0  0  0  0  0  0  0  0  0  0  0  0
   11.4364  -18.7869   17.7614 C   0  0  0  0  0  0  0  0  0  0  0  0
   12.9229  -18.9324   17.6070 C   0  0  0  0  0  0  0  0  0  0  0  0
   13.3938  -18.7937   16.4624 O   0  0  0  0  0  0  0  0  0  0  0  0
    9.6794  -16.9256   20.5571 C   0  0  0  0  0  0  0  0  0  0  0  0
   10.2320  -15.8339   20.6787 O   0  0  0  0  0  0  0  0  0  0  0  0
   13.7706  -19.2090   18.6653 O   0  0  0  0  0  0  0  0  0  0  0  0
    8.9420  -17.4216   21.6648 N   0  0  0  0  0  0  0  0  0  0  0  0
    8.8594  -16.7196   22.9520 C   0  0  1  0  0  0  0  0  0  0  0  0
    7.5577  -17.1421   23.5726 C   0  0  0  0  0  0  0  0  0  0  0  0
    7.0275  -16.2425   24.5882 C   0  0  0  0  0  0  0  0  0  0  0  0
    6.0458  -16.5109   25.5146 C   0  0  0  0  0  0  0  0  0  0  0  0
    5.8702  -15.3798   26.2597 N   0  0  0  0  0  0  0  0  0  0  0  0
    6.7096  -14.4253   25.8246 C   0  0  0  0  0  0  0  0  0  0  0  0
    6.8855  -13.1354   26.2688 C   0  0  0  0  0  0  0  0  0  0  0  0
    7.8231  -12.3074   25.6649 C   0  0  0  0  0  0  0  0  0  0  0  0
    8.5600  -12.8048   24.6255 C   0  0  0  0  0  0  0  0  0  0  0  0
    8.3748  -14.1007   24.1888 C   0  0  0  0  0  0  0  0  0  0  0  0
    7.4381  -14.9421   24.7854 C   0  0  0  0  0  0  0  0  0  0  0  0
   10.0452  -17.0919   23.7561 C   0  0  0  0  0  0  0  0  0  0  0  0
   10.5459  -18.2310   23.6187 O   0  0  0  0  0  0  0  0  0  0  0  0
   10.6439  -16.2041   24.6854 N   0  0  0  0  0  0  0  0  0  0  0  0
   11.7961  -16.5579   25.5099 C   0  0  1  0  0  0  0  0  0  0  0  0
   12.3961  -15.3156   26.1018 C   0  0  0  0  0  0  0  0  0  0  0  0
   11.4543  -14.6355   26.9932 C   0  0  0  0  0  0  0  0  0  0  0  0
   11.3133  -15.0918   28.3010 C   0  0  0  0  0  0  0  0  0  0  0  0
   10.4590  -14.5069   29.1924 C   0  0  0  0  0  0  0  0  0  0  0  0
    9.7132  -13.4251   28.7711 C   0  0  0  0  0  0  0  0  0  0  0  0
    9.8185  -12.9375   27.4869 C   0  0  0  0  0  0  0  0  0  0  0  0
   10.6898  -13.5525   26.6168 C   0  0  0  0  0  0  0  0  0  0  0  0
   11.3973  -17.5762   26.4801 C   0  0  0  0  0  0  0  0  0  0  0  0
   10.0839  -17.9202   26.7678 O   0  0  0  0  0  0  0  0  0  0  0  0
   12.2924  -18.2035   27.1173 O   0  0  0  0  0  0  0  0  0  0  0  0
  2  1  1  6
  3  4  1  0
  3  2  1  0
  4  5  1  0
  5  6  2  0
  5  9  1  0
  7  8  2  0
  7  2  1  0
 10  7  1  0
 11 10  1  0
 11 12  1  1
 12 13  1  0
 13 14  2  0
 13 21  1  0
 14 15  1  0
 15 16  1  0
 16 17  2  0
 18 17  1  0
 19 18  2  0
 20 21  2  0
 20 19  1  0
 21 16  1  0
 22 11  1  0
 23 22  2  0
 24 22  1  0
 25 33  1  0
 25 24  1  0
 25 26  1  1
 26 27  1  0
 27 28  2  0
 28 29  1  0
 30 29  2  0
 31 30  1  0
 32 27  1  0
 32 31  2  0
 33 34  1  0
 35 33  2  0
M  END
$$$$
