EWF.pdb
     RDKit          3D

 35 37  0  0  1  0  0  0  0  0999 V2000
    9.6613  -19.5464   19.4577 N   0  0  0  0  0  0  0  0  0  0  0  0
   10.7586  -18.5735   19.4947 C   0  0  1  0  0  0  0  0  0  0  0  0
   10.9464  -18.1010   18.0834 C   0  0  0  0  0  0  0  0  0  0  0  0
   12.3743  -18.1326   17.6244 C   0  0  0  0  0  0  0  0  0  0  0  0
   12.3383  -18.0415   16.1260 C   0  0  0  0  0  0  0  0  0  0  0  0
   11.9019  -19.0288   15.5049 O   0  0  0  0  0  0  0  0  0  0  0  0
   10.3836  -17.4194   20.3449 C   0  0  0  0  0  0  0  0  0  0  0  0
   11.0313  -16.3744   20.3314 O   0  0  0  0  0  0  0  0  0  0  0  0
   12.7628  -16.9264   15.4248 O   0  0  0  0  0  0  0  0  0  0  0  0
    9.2565  -17.4889   21.2060 N   0  0  0  0  0  0  0  0  0  0  0  0
    8.9776  -16.4879   22.2438 C   0  0  1  0  0  0  0  0  0  0  0  0
    7.4939  -16.5341   22.4771 C   0  0  0  0  0  0  0  0  0  0  0  0
    7.0315  -15.8833   23.6955 C   0  0  0  0  0  0  0  0  0  0  0  0
    6.4616  -16.4779   24.7981 C   0  0  0  0  0  0  0  0  0  0  0  0
    6.1845  -15.4871   25.6963 N   0  0  0  0  0  0  0  0  0  0  0  0
    6.5641  -14.3040   25.1853 C   0  0  0  0  0  0  0  0  0  0  0  0
    6.4817  -13.0419   25.7259 C   0  0  0  0  0  0  0  0  0  0  0  0
    6.9409  -11.9420   25.0126 C   0  0  0  0  0  0  0  0  0  0  0  0
    7.4724  -12.1460   23.7689 C   0  0  0  0  0  0  0  0  0  0  0  0
    7.5500  -13.4169   23.2371 C   0  0  0  0  0  0  0  0  0  0  0  0
    7.0934  -14.5289   23.9414 C   0  0  0  0  0  0  0  0  0  0  0  0
    9.7748  -16.8333   23.4423 C   0  0  0  0  0  0  0  0  0  0  0  0
    9.6668  -17.9761   23.9420 O   0  0  0  0  0  0  0  0  0  0  0  0
   10.6645  -15.9150   24.0552 N   0  0  0  0  0  0  0  0  0  0  0  0
   10.8890  -15.8511   25.4966 C   0  0  1  0  0  0  0  0  0  0  0  0
    9.7092  -15.2067   26.1650 C   0  0  0  0  0  0  0  0  0  0  0  0
    9.9358  -15.0278   27.6006 C   0  0  0  0  0  0  0  0  0  0  0  0
    9.8162  -16.1282   28.4451 C   0  0  0  0  0  0  0  0  0  0  0  0
   10.0168  -16.0412   29.7937 C   0  0  0  0  0  0  0  0  0  0  0  0
   10.3495  -14.8134   30.3282 C   0  0  0  0  0  0  0  0  0  0  0  0
   10.4796  -13.6961   29.5329 C   0  0  0  0  0  0  0  0  0  0  0  0
   10.2700  -13.8221   28.1783 C   0  0  0  0  0  0  0  0  0  0  0  0
   11.2276  -17.1852   25.9892 C   0  0  0  0  0  0  0  0  0  0  0  0
   10.4361  -18.3127   25.8208 O   0  0  0  0  0  0  0  0  0  0  0  0
   12.3131  -17.3524   26.6174 O   0  0  0  0  0  0  0  0  0  0  0  0
  2  1  1  6
  3  4  1  0
  3  2  1  0
  4  5  1  0
  5  6  2  0
  5  9  1  0
  7  8  2  0
  7  2  1  0
 10  7  1  0
 11 10  1  0
 11 12  1  1
 12 13  1  0
 13 14  2  0
 13 21  1  0
 14 15  1  0
 15 16  1  0
 16 17  2  0
 18 17  1  0
 19 18  2  0
 20 21  2  0
 20 19  1  0
 21 16  1  0
 22 11  1  0
 23 22  2  0
 24 22  1  0
 25 33  1  0
 25 24  1  0
 25 26  1  1
 26 27  1  0
 27 28  2  0
 28 29  1  0
 30 29  2  0
 31 30  1  0
 32 27  1  0
 32 31  2  0
 33 34  1  0
 35 33  2  0
M  END
$$$$
