EWF.pdb
     RDKit          3D

 35 37  0  0  1  0  0  0  0  0999 V2000
    9.2790  -16.8384   18.3673 N   0  0  0  0  0  0  0  0  0  0  0  0
    9.2953  -17.7819   19.4905 C   0  0  1  0  0  0  0  0  0  0  0  0
   10.5191  -18.6298   19.3069 C   0  0  0  0  0  0  0  0  0  0  0  0
   11.6484  -17.9149   18.6255 C   0  0  0  0  0  0  0  0  0  0  0  0
   12.7664  -18.9100   18.5047 C   0  0  0  0  0  0  0  0  0  0  0  0
   13.8562  -18.6097   19.0275 O   0  0  0  0  0  0  0  0  0  0  0  0
    9.4065  -17.0436   20.7704 C   0  0  0  0  0  0  0  0  0  0  0  0
   10.1203  -16.0482   20.8778 O   0  0  0  0  0  0  0  0  0  0  0  0
   12.6343  -20.1213   17.8487 O   0  0  0  0  0  0  0  0  0  0  0  0
    8.6859  -17.4687   21.9179 N   0  0  0  0  0  0  0  0  0  0  0  0
    8.7091  -16.7420   23.1938 C   0  0  1  0  0  0  0  0  0  0  0  0
    7.4438  -17.1209   23.9104 C   0  0  0  0  0  0  0  0  0  0  0  0
    6.8476  -16.0707   24.7251 C   0  0  0  0  0  0  0  0  0  0  0  0
    5.7345  -16.1647   25.5290 C   0  0  0  0  0  0  0  0  0  0  0  0
    5.5412  -14.9392   26.1001 N   0  0  0  0  0  0  0  0  0  0  0  0
    6.4963  -14.0948   25.6760 C   0  0  0  0  0  0  0  0  0  0  0  0
    6.7018  -12.7696   25.9818 C   0  0  0  0  0  0  0  0  0  0  0  0
    7.7676  -12.0775   25.4209 C   0  0  0  0  0  0  0  0  0  0  0  0
    8.5998  -12.7434   24.5637 C   0  0  0  0  0  0  0  0  0  0  0  0
    8.3836  -14.0731   24.2647 C   0  0  0  0  0  0  0  0  0  0  0  0
    7.3188  -14.7794   24.8200 C   0  0  0  0  0  0  0  0  0  0  0  0
    9.9385  -17.1293   23.9216 C   0  0  0  0  0  0  0  0  0  0  0  0
   10.4005  -18.2834   23.7740 O   0  0  0  0  0  0  0  0  0  0  0  0
   10.6221  -16.2394   24.7884 N   0  0  0  0  0  0  0  0  0  0  0  0
   11.7667  -16.6317   25.6058 C   0  0  1  0  0  0  0  0  0  0  0  0
   12.3404  -15.4234   26.2875 C   0  0  0  0  0  0  0  0  0  0  0  0
   11.3687  -14.8035   27.1907 C   0  0  0  0  0  0  0  0  0  0  0  0
   10.5915  -13.7470   26.7238 C   0  0  0  0  0  0  0  0  0  0  0  0
    9.6615  -13.1212   27.5049 C   0  0  0  0  0  0  0  0  0  0  0  0
    9.4943  -13.5600   28.8023 C   0  0  0  0  0  0  0  0  0  0  0  0
   10.2397  -14.6018   29.3092 C   0  0  0  0  0  0  0  0  0  0  0  0
   11.1672  -15.2081   28.4926 C   0  0  0  0  0  0  0  0  0  0  0  0
   11.3679  -17.7168   26.5007 C   0  0  0  0  0  0  0  0  0  0  0  0
   10.0553  -18.0940   26.7470 O   0  0  0  0  0  0  0  0  0  0  0  0
   12.2624  -18.3751   27.1069 O   0  0  0  0  0  0  0  0  0  0  0  0
  2  1  1  6
  3  4  1  0
  3  2  1  0
  4  5  1  0
  5  6  2  0
  5  9  1  0
  7  8  2  0
  7  2  1  0
 10  7  1  0
 11 10  1  0
 11 12  1  1
 12 13  1  0
 13 14  2  0
 13 21  1  0
 14 15  1  0
 15 16  1  0
 16 17  2  0
 18 17  1  0
 19 18  2  0
 20 21  2  0
 20 19  1  0
 21 16  1  0
 22 11  1  0
 23 22  2  0
 24 22  1  0
 25 33  1  0
 25 24  1  0
 25 26  1  1
 26 27  1  0
 27 28  2  0
 28 29  1  0
 30 29  2  0
 31 30  1  0
 32 27  1  0
 32 31  2  0
 33 34  1  0
 35 33  2  0
M  END
$$$$
