IVR.pdb
     RDKit          3D

 27 26  0  0  1  0  0  0  0  0999 V2000
   11.6620  -14.9544   30.3852 C   0  0  0  0  0  0  0  0  0  0  0  0
   10.3060  -15.5716   30.2191 C   0  0  0  0  0  0  0  0  0  0  0  0
    9.8160  -15.5567   28.7835 C   0  0  2  0  0  0  0  0  0  0  0  0
    9.8187  -14.1478   28.2176 C   0  0  0  0  0  0  0  0  0  0  0  0
    8.4402  -16.1006   28.6325 C   0  0  2  0  0  0  0  0  0  0  0  0
    8.3622  -17.4378   29.1252 N   0  0  0  0  0  0  0  0  0  0  0  0
    7.8566  -15.9351   27.2863 C   0  0  0  0  0  0  0  0  0  0  0  0
    7.6317  -16.9772   26.6181 O   0  0  0  0  0  0  0  0  0  0  0  0
    6.0069  -12.4850   26.2875 C   0  0  0  0  0  0  0  0  0  0  0  0
    6.6992  -13.0846   25.0790 C   0  0  1  0  0  0  0  0  0  0  0  0
    7.8840  -12.2486   24.7133 C   0  0  0  0  0  0  0  0  0  0  0  0
    7.0903  -14.5284   25.3429 C   0  0  2  0  0  0  0  0  0  0  0  0
    7.5383  -14.6917   26.7067 N   0  0  0  0  0  0  0  0  0  0  0  0
    8.1720  -14.8621   24.3680 C   0  0  0  0  0  0  0  0  0  0  0  0
    9.3400  -14.4623   24.6149 O   0  0  0  0  0  0  0  0  0  0  0  0
    9.2210  -21.3124   20.1095 N   0  0  0  0  0  0  0  0  0  0  0  0
    9.5915  -20.6964   18.8858 C   0  0  0  0  0  0  0  0  0  0  0  0
   10.3449  -21.3401   18.0681 N   0  0  0  0  0  0  0  0  0  0  0  0
    9.1518  -19.3937   18.5507 N   0  0  0  0  0  0  0  0  0  0  0  0
    8.2837  -18.6424   19.4287 C   0  0  0  0  0  0  0  0  0  0  0  0
    9.0488  -17.9744   20.5370 C   0  0  0  0  0  0  0  0  0  0  0  0
    8.2205  -17.0873   21.3962 C   0  0  0  0  0  0  0  0  0  0  0  0
    8.9533  -16.4387   22.5443 C   0  0  2  0  0  0  0  0  0  0  0  0
    7.9657  -15.5944   23.1949 N   0  0  0  0  0  0  0  0  0  0  0  0
   10.1283  -15.6300   22.0902 C   0  0  0  0  0  0  0  0  0  0  0  0
   11.2765  -16.1449   22.2276 O   0  0  0  0  0  0  0  0  0  0  0  0
    9.9655  -14.3671   21.5403 O   0  0  0  0  0  0  0  0  0  0  0  0
  2  1  1  0
  2  3  1  0
  3  4  1  1
  3  5  1  0
  5  7  1  0
  5  6  1  6
  7  8  2  0
  7 13  1  0
 10  9  1  1
 10 12  1  0
 10 11  1  0
 12 14  1  0
 12 13  1  1
 14 24  1  0
 15 14  2  0
 17 19  1  0
 17 16  1  0
 18 17  2  0
 20 19  1  0
 21 20  1  0
 22 21  1  0
 23 25  1  0
 23 22  1  6
 24 23  1  0
 25 27  1  0
 26 25  2  0
M  END
$$$$
