IVR.pdb
     RDKit          3D

 27 26  0  0  1  0  0  0  0  0999 V2000
    6.9964  -15.7751   17.9386 C   0  0  0  0  0  0  0  0  0  0  0  0
    6.9039  -14.4964   18.7156 C   0  0  0  0  0  0  0  0  0  0  0  0
    7.5913  -14.5683   20.0660 C   0  0  2  0  0  0  0  0  0  0  0  0
    7.0417  -15.7111   20.9011 C   0  0  0  0  0  0  0  0  0  0  0  0
    7.4464  -13.3193   20.8600 C   0  0  2  0  0  0  0  0  0  0  0  0
    7.8603  -12.1819   20.1039 N   0  0  0  0  0  0  0  0  0  0  0  0
    8.0408  -13.3754   22.2105 C   0  0  0  0  0  0  0  0  0  0  0  0
    9.2781  -13.5880   22.2927 O   0  0  0  0  0  0  0  0  0  0  0  0
    6.7827  -11.4543   25.7673 C   0  0  0  0  0  0  0  0  0  0  0  0
    6.8976  -12.9661   25.7935 C   0  0  1  0  0  0  0  0  0  0  0  0
    5.5406  -13.5752   25.6390 C   0  0  0  0  0  0  0  0  0  0  0  0
    7.8571  -13.4525   24.7211 C   0  0  2  0  0  0  0  0  0  0  0  0
    7.3139  -13.2074   23.4050 N   0  0  0  0  0  0  0  0  0  0  0  0
    8.0641  -14.9120   24.9644 C   0  0  0  0  0  0  0  0  0  0  0  0
    7.1271  -15.7021   24.6770 O   0  0  0  0  0  0  0  0  0  0  0  0
   14.3936  -16.0471   21.4063 N   0  0  0  0  0  0  0  0  0  0  0  0
   14.8491  -15.8967   22.7420 C   0  0  0  0  0  0  0  0  0  0  0  0
   15.9799  -15.3247   22.9532 N   0  0  0  0  0  0  0  0  0  0  0  0
   14.0879  -16.3632   23.8401 N   0  0  0  0  0  0  0  0  0  0  0  0
   12.7954  -16.9821   23.6520 C   0  0  0  0  0  0  0  0  0  0  0  0
   11.8483  -16.6545   24.7726 C   0  0  0  0  0  0  0  0  0  0  0  0
   10.4907  -17.2389   24.6090 C   0  0  0  0  0  0  0  0  0  0  0  0
    9.4996  -16.8718   25.6855 C   0  0  2  0  0  0  0  0  0  0  0  0
    9.2390  -15.4554   25.4929 N   0  0  0  0  0  0  0  0  0  0  0  0
   10.0260  -17.1336   27.0622 C   0  0  0  0  0  0  0  0  0  0  0  0
   10.3442  -16.1291   27.7637 O   0  0  0  0  0  0  0  0  0  0  0  0
   10.1595  -18.4251   27.5499 O   0  0  0  0  0  0  0  0  0  0  0  0
  2  1  1  0
  2  3  1  0
  3  4  1  1
  3  5  1  0
  5  7  1  0
  5  6  1  6
  7  8  2  0
  7 13  1  0
 10  9  1  6
 10 12  1  0
 10 11  1  0
 12 14  1  0
 12 13  1  6
 14 24  1  0
 15 14  2  0
 17 19  1  0
 17 16  1  0
 18 17  2  0
 20 19  1  0
 21 20  1  0
 22 21  1  0
 23 25  1  0
 23 22  1  6
 24 23  1  0
 25 27  1  0
 26 25  2  0
M  END
$$$$
