IVR.pdb
     RDKit          3D

 27 26  0  0  1  0  0  0  0  0999 V2000
    6.2403  -11.1266   27.5822 C   0  0  0  0  0  0  0  0  0  0  0  0
    5.6217  -12.2394   26.7907 C   0  0  0  0  0  0  0  0  0  0  0  0
    6.6270  -13.0030   25.9495 C   0  0  2  0  0  0  0  0  0  0  0  0
    7.3801  -12.0725   25.0155 C   0  0  0  0  0  0  0  0  0  0  0  0
    6.0023  -14.0668   25.1191 C   0  0  2  0  0  0  0  0  0  0  0  0
    5.3181  -15.0168   25.9353 N   0  0  0  0  0  0  0  0  0  0  0  0
    6.9059  -14.6854   24.1286 C   0  0  0  0  0  0  0  0  0  0  0  0
    7.6529  -15.6169   24.5252 O   0  0  0  0  0  0  0  0  0  0  0  0
    8.4654  -12.8030   20.7798 C   0  0  0  0  0  0  0  0  0  0  0  0
    7.8658  -14.1692   20.5087 C   0  0  1  0  0  0  0  0  0  0  0  0
    8.6657  -14.8684   19.4564 C   0  0  0  0  0  0  0  0  0  0  0  0
    7.7839  -14.9852   21.7872 C   0  0  2  0  0  0  0  0  0  0  0  0
    6.9839  -14.3003   22.7762 N   0  0  0  0  0  0  0  0  0  0  0  0
    9.1880  -15.1805   22.2590 C   0  0  0  0  0  0  0  0  0  0  0  0
    9.7672  -14.2138   22.8202 O   0  0  0  0  0  0  0  0  0  0  0  0
   11.3446  -20.0206   28.1259 N   0  0  0  0  0  0  0  0  0  0  0  0
   12.4623  -20.3734   27.3257 C   0  0  0  0  0  0  0  0  0  0  0  0
   13.5917  -20.5943   27.8969 N   0  0  0  0  0  0  0  0  0  0  0  0
   12.3591  -20.4843   25.9186 N   0  0  0  0  0  0  0  0  0  0  0  0
   11.2713  -19.8695   25.1923 C   0  0  0  0  0  0  0  0  0  0  0  0
   11.7080  -18.6197   24.4800 C   0  0  0  0  0  0  0  0  0  0  0  0
   10.6416  -17.9851   23.6606 C   0  0  0  0  0  0  0  0  0  0  0  0
   11.0668  -16.7589   22.8915 C   0  0  2  0  0  0  0  0  0  0  0  0
    9.8997  -16.3754   22.1156 N   0  0  0  0  0  0  0  0  0  0  0  0
   12.2379  -17.0215   21.9968 C   0  0  0  0  0  0  0  0  0  0  0  0
   13.3904  -16.7814   22.4621 O   0  0  0  0  0  0  0  0  0  0  0  0
   12.0671  -17.5087   20.7094 O   0  0  0  0  0  0  0  0  0  0  0  0
  2  1  1  0
  2  3  1  0
  3  4  1  6
  3  5  1  0
  5  7  1  0
  5  6  1  1
  7  8  2  0
  7 13  1  0
 10  9  1  1
 10 12  1  0
 10 11  1  0
 12 14  1  0
 12 13  1  1
 14 24  1  0
 15 14  2  0
 17 19  1  0
 17 16  1  0
 18 17  2  0
 20 19  1  0
 21 20  1  0
 22 21  1  0
 23 25  1  0
 23 22  1  6
 24 23  1  0
 25 27  1  0
 26 25  2  0
M  END
$$$$
