IVR.pdb
     RDKit          3D

 27 26  0  0  1  0  0  0  0  0999 V2000
   10.7207  -14.5995   30.4896 C   0  0  0  0  0  0  0  0  0  0  0  0
    9.8416  -15.7110   30.0006 C   0  0  0  0  0  0  0  0  0  0  0  0
    9.7983  -15.8152   28.4878 C   0  0  2  0  0  0  0  0  0  0  0  0
    9.7963  -14.4405   27.8431 C   0  0  0  0  0  0  0  0  0  0  0  0
    8.6050  -16.5490   27.9889 C   0  0  2  0  0  0  0  0  0  0  0  0
    8.5462  -17.8642   28.5400 N   0  0  0  0  0  0  0  0  0  0  0  0
    8.4307  -16.5175   26.5229 C   0  0  0  0  0  0  0  0  0  0  0  0
    8.6957  -17.5681   25.8834 O   0  0  0  0  0  0  0  0  0  0  0  0
    7.9616  -12.9426   24.2197 C   0  0  0  0  0  0  0  0  0  0  0  0
    7.0170  -14.1034   23.9755 C   0  0  1  0  0  0  0  0  0  0  0  0
    6.6065  -14.1224   22.5377 C   0  0  0  0  0  0  0  0  0  0  0  0
    7.6564  -15.4159   24.3946 C   0  0  2  0  0  0  0  0  0  0  0  0
    7.9896  -15.3921   25.8002 N   0  0  0  0  0  0  0  0  0  0  0  0
    8.8743  -15.5869   23.5464 C   0  0  0  0  0  0  0  0  0  0  0  0
    9.8880  -14.8895   23.8128 O   0  0  0  0  0  0  0  0  0  0  0  0
    8.4836  -12.5530   18.1864 N   0  0  0  0  0  0  0  0  0  0  0  0
    8.2326  -13.6606   17.3354 C   0  0  0  0  0  0  0  0  0  0  0  0
    7.8338  -13.4441   16.1334 N   0  0  0  0  0  0  0  0  0  0  0  0
    8.4098  -14.9917   17.7821 N   0  0  0  0  0  0  0  0  0  0  0  0
    9.5629  -15.3768   18.5637 C   0  0  0  0  0  0  0  0  0  0  0  0
    9.3428  -15.1560   20.0344 C   0  0  0  0  0  0  0  0  0  0  0  0
   10.4686  -15.6139   20.8912 C   0  0  0  0  0  0  0  0  0  0  0  0
   10.1727  -16.8173   21.7514 C   0  0  2  0  0  0  0  0  0  0  0  0
    8.9574  -16.4777   22.4719 N   0  0  0  0  0  0  0  0  0  0  0  0
   11.2857  -17.1290   22.7027 C   0  0  0  0  0  0  0  0  0  0  0  0
   11.5407  -18.3498   22.9193 O   0  0  0  0  0  0  0  0  0  0  0  0
   12.0091  -16.1204   23.3218 O   0  0  0  0  0  0  0  0  0  0  0  0
  2  1  1  0
  2  3  1  0
  3  4  1  6
  3  5  1  0
  5  7  1  0
  5  6  1  6
  7  8  2  0
  7 13  1  0
 10  9  1  6
 10 12  1  0
 10 11  1  0
 12 14  1  0
 12 13  1  1
 14 24  1  0
 15 14  2  0
 17 19  1  0
 17 16  1  0
 18 17  2  0
 20 19  1  0
 21 20  1  0
 22 21  1  0
 23 25  1  0
 23 22  1  1
 24 23  1  0
 25 27  1  0
 26 25  2  0
M  END
$$$$
