IVR.pdb
     RDKit          3D

 27 26  0  0  1  0  0  0  0  0999 V2000
   10.4968  -20.5983   28.1987 C   0  0  0  0  0  0  0  0  0  0  0  0
    9.5686  -19.5394   28.7129 C   0  0  0  0  0  0  0  0  0  0  0  0
    8.8505  -18.7883   27.6077 C   0  0  2  0  0  0  0  0  0  0  0  0
    9.8366  -18.0855   26.6917 C   0  0  0  0  0  0  0  0  0  0  0  0
    7.9029  -17.7636   28.1210 C   0  0  2  0  0  0  0  0  0  0  0  0
    6.9100  -18.3582   28.9561 N   0  0  0  0  0  0  0  0  0  0  0  0
    7.3433  -16.8694   27.0878 C   0  0  0  0  0  0  0  0  0  0  0  0
    6.5293  -17.3668   26.2674 O   0  0  0  0  0  0  0  0  0  0  0  0
    7.2530  -12.3425   24.9593 C   0  0  0  0  0  0  0  0  0  0  0  0
    7.4308  -13.2026   26.1954 C   0  0  1  0  0  0  0  0  0  0  0  0
    6.4908  -12.7449   27.2647 C   0  0  0  0  0  0  0  0  0  0  0  0
    7.2317  -14.6714   25.8634 C   0  0  2  0  0  0  0  0  0  0  0  0
    7.6619  -15.5032   26.9635 N   0  0  0  0  0  0  0  0  0  0  0  0
    8.0291  -14.9413   24.6291 C   0  0  0  0  0  0  0  0  0  0  0  0
    9.2839  -14.8723   24.7041 O   0  0  0  0  0  0  0  0  0  0  0  0
    7.8694  -12.1485   16.4945 N   0  0  0  0  0  0  0  0  0  0  0  0
    8.5810  -13.3760   16.5294 C   0  0  0  0  0  0  0  0  0  0  0  0
    9.6107  -13.5201   15.7747 N   0  0  0  0  0  0  0  0  0  0  0  0
    8.1803  -14.4395   17.3727 N   0  0  0  0  0  0  0  0  0  0  0  0
    7.5689  -14.1919   18.6587 C   0  0  0  0  0  0  0  0  0  0  0  0
    8.2435  -14.9635   19.7584 C   0  0  0  0  0  0  0  0  0  0  0  0
    7.6115  -14.7937   21.0937 C   0  0  0  0  0  0  0  0  0  0  0  0
    8.2073  -15.6319   22.1975 C   0  0  2  0  0  0  0  0  0  0  0  0
    7.4648  -15.2676   23.3921 N   0  0  0  0  0  0  0  0  0  0  0  0
    9.6710  -15.3784   22.3827 C   0  0  0  0  0  0  0  0  0  0  0  0
   10.0242  -14.1984   22.6746 O   0  0  0  0  0  0  0  0  0  0  0  0
   10.6029  -16.3958   22.2407 O   0  0  0  0  0  0  0  0  0  0  0  0
  2  1  1  0
  2  3  1  0
  3  4  1  6
  3  5  1  0
  5  7  1  0
  5  6  1  6
  7  8  2  0
  7 13  1  0
 10  9  1  6
 10 12  1  0
 10 11  1  0
 12 14  1  0
 12 13  1  1
 14 24  1  0
 15 14  2  0
 17 19  1  0
 17 16  1  0
 18 17  2  0
 20 19  1  0
 21 20  1  0
 22 21  1  0
 23 25  1  0
 23 22  1  6
 24 23  1  0
 25 27  1  0
 26 25  2  0
M  END
$$$$
