IVR.pdb
     RDKit          3D

 27 26  0  0  1  0  0  0  0  0999 V2000
    6.9594  -10.0329   26.9968 C   0  0  0  0  0  0  0  0  0  0  0  0
    6.1158  -11.0742   26.3250 C   0  0  0  0  0  0  0  0  0  0  0  0
    6.9334  -12.1449   25.6277 C   0  0  2  0  0  0  0  0  0  0  0  0
    7.8126  -11.5454   24.5447 C   0  0  0  0  0  0  0  0  0  0  0  0
    6.0950  -13.1983   24.9960 C   0  0  2  0  0  0  0  0  0  0  0  0
    5.2307  -13.8071   25.9548 N   0  0  0  0  0  0  0  0  0  0  0  0
    6.8434  -14.1726   24.1770 C   0  0  0  0  0  0  0  0  0  0  0  0
    7.3538  -15.1588   24.7685 O   0  0  0  0  0  0  0  0  0  0  0  0
    6.7136  -14.3305   19.8225 C   0  0  0  0  0  0  0  0  0  0  0  0
    8.0086  -14.4855   20.5961 C   0  0  1  0  0  0  0  0  0  0  0  0
    8.7239  -13.1732   20.6453 C   0  0  0  0  0  0  0  0  0  0  0  0
    7.7430  -15.0332   21.9877 C   0  0  2  0  0  0  0  0  0  0  0  0
    7.0210  -14.0677   22.7838 N   0  0  0  0  0  0  0  0  0  0  0  0
    9.0765  -15.3466   22.5842 C   0  0  0  0  0  0  0  0  0  0  0  0
    9.7821  -14.3905   22.9999 O   0  0  0  0  0  0  0  0  0  0  0  0
   10.1771  -21.0487   26.8781 N   0  0  0  0  0  0  0  0  0  0  0  0
    9.0039  -20.4048   27.3504 C   0  0  0  0  0  0  0  0  0  0  0  0
    8.8006  -20.3324   28.6169 N   0  0  0  0  0  0  0  0  0  0  0  0
    8.0574  -19.8455   26.4592 N   0  0  0  0  0  0  0  0  0  0  0  0
    8.4406  -19.3884   25.1427 C   0  0  0  0  0  0  0  0  0  0  0  0
    9.4958  -18.3194   25.2053 C   0  0  0  0  0  0  0  0  0  0  0  0
   10.4576  -18.3502   24.0716 C   0  0  0  0  0  0  0  0  0  0  0  0
   10.7768  -17.0070   23.4635 C   0  0  2  0  0  0  0  0  0  0  0  0
    9.5896  -16.6411   22.7099 N   0  0  0  0  0  0  0  0  0  0  0  0
   11.9793  -17.0526   22.5730 C   0  0  0  0  0  0  0  0  0  0  0  0
   13.0982  -17.2826   23.1185 O   0  0  0  0  0  0  0  0  0  0  0  0
   11.8718  -16.8514   21.2049 O   0  0  0  0  0  0  0  0  0  0  0  0
  2  1  1  0
  2  3  1  0
  3  4  1  6
  3  5  1  0
  5  7  1  0
  5  6  1  1
  7  8  2  0
  7 13  1  0
 10  9  1  1
 10 12  1  0
 10 11  1  0
 12 14  1  0
 12 13  1  1
 14 24  1  0
 15 14  2  0
 17 19  1  0
 17 16  1  0
 18 17  2  0
 20 19  1  0
 21 20  1  0
 22 21  1  0
 23 25  1  0
 23 22  1  6
 24 23  1  0
 25 27  1  0
 26 25  2  0
M  END
$$$$
