IVR.pdb
     RDKit          3D

 27 26  0  0  1  0  0  0  0  0999 V2000
    7.3764  -15.6590   18.1381 C   0  0  0  0  0  0  0  0  0  0  0  0
    7.2385  -14.4086   18.9534 C   0  0  0  0  0  0  0  0  0  0  0  0
    7.7589  -14.5603   20.3703 C   0  0  2  0  0  0  0  0  0  0  0  0
    7.0020  -15.6423   21.1197 C   0  0  0  0  0  0  0  0  0  0  0  0
    7.6583  -13.3071   21.1645 C   0  0  2  0  0  0  0  0  0  0  0  0
    8.1762  -12.1959   20.4339 N   0  0  0  0  0  0  0  0  0  0  0  0
    8.1878  -13.4049   22.5395 C   0  0  0  0  0  0  0  0  0  0  0  0
    9.4092  -13.6750   22.6742 O   0  0  0  0  0  0  0  0  0  0  0  0
    7.2318  -11.3041   26.0376 C   0  0  0  0  0  0  0  0  0  0  0  0
    7.0152  -12.8045   26.0700 C   0  0  1  0  0  0  0  0  0  0  0  0
    5.5657  -13.1069   25.8607 C   0  0  0  0  0  0  0  0  0  0  0  0
    7.8883  -13.4977   25.0383 C   0  0  2  0  0  0  0  0  0  0  0  0
    7.4160  -13.2164   23.7023 N   0  0  0  0  0  0  0  0  0  0  0  0
    7.8298  -14.9591   25.3430 C   0  0  0  0  0  0  0  0  0  0  0  0
    7.0479  -15.6773   24.6665 O   0  0  0  0  0  0  0  0  0  0  0  0
   11.6410  -18.6390   20.1964 N   0  0  0  0  0  0  0  0  0  0  0  0
   12.2577  -18.9742   21.4299 C   0  0  0  0  0  0  0  0  0  0  0  0
   13.0549  -19.9809   21.4739 N   0  0  0  0  0  0  0  0  0  0  0  0
   12.0123  -18.2273   22.6067 N   0  0  0  0  0  0  0  0  0  0  0  0
   10.8881  -17.3244   22.7050 C   0  0  0  0  0  0  0  0  0  0  0  0
   10.0357  -17.6189   23.9078 C   0  0  0  0  0  0  0  0  0  0  0  0
   10.2223  -16.6630   25.0316 C   0  0  0  0  0  0  0  0  0  0  0  0
    9.2832  -16.8510   26.1972 C   0  0  2  0  0  0  0  0  0  0  0  0
    8.5934  -15.5798   26.3363 N   0  0  0  0  0  0  0  0  0  0  0  0
   10.0028  -17.2070   27.4608 C   0  0  0  0  0  0  0  0  0  0  0  0
   10.3974  -16.2532   28.1935 O   0  0  0  0  0  0  0  0  0  0  0  0
   10.2278  -18.5291   27.8147 O   0  0  0  0  0  0  0  0  0  0  0  0
  2  1  1  0
  2  3  1  0
  3  4  1  1
  3  5  1  0
  5  7  1  0
  5  6  1  6
  7  8  2  0
  7 13  1  0
 10  9  1  6
 10 12  1  0
 10 11  1  0
 12 14  1  0
 12 13  1  6
 14 24  1  0
 15 14  2  0
 17 19  1  0
 17 16  1  0
 18 17  2  0
 20 19  1  0
 21 20  1  0
 22 21  1  0
 23 25  1  0
 23 22  1  6
 24 23  1  0
 25 27  1  0
 26 25  2  0
M  END
$$$$
