IVR.pdb
     RDKit          3D

 27 26  0  0  1  0  0  0  0  0999 V2000
    8.1731  -16.4374   19.3182 C   0  0  0  0  0  0  0  0  0  0  0  0
    8.6040  -15.1369   19.9266 C   0  0  0  0  0  0  0  0  0  0  0  0
    7.4556  -14.1688   20.1395 C   0  0  2  0  0  0  0  0  0  0  0  0
    6.8345  -13.7554   18.8171 C   0  0  0  0  0  0  0  0  0  0  0  0
    7.8637  -12.9296   20.8530 C   0  0  2  0  0  0  0  0  0  0  0  0
    8.7823  -12.1679   20.0701 N   0  0  0  0  0  0  0  0  0  0  0  0
    8.3100  -13.1387   22.2449 C   0  0  0  0  0  0  0  0  0  0  0  0
    9.5387  -13.3268   22.4393 O   0  0  0  0  0  0  0  0  0  0  0  0
    6.5140  -11.6749   25.7806 C   0  0  0  0  0  0  0  0  0  0  0  0
    6.7702  -13.1673   25.7005 C   0  0  1  0  0  0  0  0  0  0  0  0
    5.5002  -13.8766   25.3538 C   0  0  0  0  0  0  0  0  0  0  0  0
    7.8743  -13.4720   24.7029 C   0  0  2  0  0  0  0  0  0  0  0  0
    7.4518  -13.1411   23.3615 N   0  0  0  0  0  0  0  0  0  0  0  0
    8.1798  -14.9283   24.8367 C   0  0  0  0  0  0  0  0  0  0  0  0
    7.2196  -15.7422   24.8174 O   0  0  0  0  0  0  0  0  0  0  0  0
   12.7250  -15.9258   19.7195 N   0  0  0  0  0  0  0  0  0  0  0  0
   13.5610  -15.3870   20.7320 C   0  0  0  0  0  0  0  0  0  0  0  0
   14.4011  -14.4661   20.4208 N   0  0  0  0  0  0  0  0  0  0  0  0
   13.4897  -15.8425   22.0700 N   0  0  0  0  0  0  0  0  0  0  0  0
   12.5089  -16.8212   22.4814 C   0  0  0  0  0  0  0  0  0  0  0  0
   11.6971  -16.3436   23.6530 C   0  0  0  0  0  0  0  0  0  0  0  0
   10.6184  -17.2805   24.0652 C   0  0  0  0  0  0  0  0  0  0  0  0
    9.7980  -16.8341   25.2499 C   0  0  2  0  0  0  0  0  0  0  0  0
    9.4714  -15.4439   24.9818 N   0  0  0  0  0  0  0  0  0  0  0  0
   10.5405  -16.9664   26.5431 C   0  0  0  0  0  0  0  0  0  0  0  0
   10.8391  -18.1357   26.9250 O   0  0  0  0  0  0  0  0  0  0  0  0
   10.8876  -15.8523   27.2928 O   0  0  0  0  0  0  0  0  0  0  0  0
  2  1  1  0
  2  3  1  0
  3  4  1  6
  3  5  1  0
  5  7  1  0
  5  6  1  6
  7  8  2  0
  7 13  1  0
 10  9  1  6
 10 12  1  0
 10 11  1  0
 12 14  1  0
 12 13  1  6
 14 24  1  0
 15 14  2  0
 17 19  1  0
 17 16  1  0
 18 17  2  0
 20 19  1  0
 21 20  1  0
 22 21  1  0
 23 25  1  0
 23 22  1  6
 24 23  1  0
 25 27  1  0
 26 25  2  0
M  END
$$$$
