IVR.pdb
     RDKit          3D

 27 26  0  0  1  0  0  0  0  0999 V2000
    6.9068  -21.0019   17.0342 C   0  0  0  0  0  0  0  0  0  0  0  0
    6.8071  -19.5144   16.8777 C   0  0  0  0  0  0  0  0  0  0  0  0
    7.7875  -18.7559   17.7522 C   0  0  2  0  0  0  0  0  0  0  0  0
    7.6168  -19.1248   19.2151 C   0  0  0  0  0  0  0  0  0  0  0  0
    7.6461  -17.2798   17.6400 C   0  0  2  0  0  0  0  0  0  0  0  0
    7.7767  -16.8553   16.2837 N   0  0  0  0  0  0  0  0  0  0  0  0
    8.4820  -16.5074   18.5808 C   0  0  0  0  0  0  0  0  0  0  0  0
    9.7245  -16.7023   18.5491 O   0  0  0  0  0  0  0  0  0  0  0  0
    7.7946  -12.6405   19.9303 C   0  0  0  0  0  0  0  0  0  0  0  0
    8.0508  -13.6643   21.0192 C   0  0  1  0  0  0  0  0  0  0  0  0
    6.7544  -14.0608   21.6504 C   0  0  0  0  0  0  0  0  0  0  0  0
    8.7965  -14.8659   20.4647 C   0  0  2  0  0  0  0  0  0  0  0  0
    7.9787  -15.5725   19.5060 N   0  0  0  0  0  0  0  0  0  0  0  0
    9.1402  -15.7308   21.6334 C   0  0  0  0  0  0  0  0  0  0  0  0
    8.2189  -16.4005   22.1697 O   0  0  0  0  0  0  0  0  0  0  0  0
   11.6767  -20.7848   20.5339 N   0  0  0  0  0  0  0  0  0  0  0  0
   12.5275  -20.1842   19.5697 C   0  0  0  0  0  0  0  0  0  0  0  0
   12.4622  -20.5805   18.3493 N   0  0  0  0  0  0  0  0  0  0  0  0
   13.4428  -19.1646   19.9236 N   0  0  0  0  0  0  0  0  0  0  0  0
   13.4556  -18.5911   21.2502 C   0  0  0  0  0  0  0  0  0  0  0  0
   12.1216  -18.0054   21.6210 C   0  0  0  0  0  0  0  0  0  0  0  0
   12.1136  -17.2949   22.9273 C   0  0  0  0  0  0  0  0  0  0  0  0
   10.7965  -16.6656   23.3080 C   0  0  2  0  0  0  0  0  0  0  0  0
   10.4270  -15.8427   22.1689 N   0  0  0  0  0  0  0  0  0  0  0  0
   10.8952  -15.8386   24.5520 C   0  0  0  0  0  0  0  0  0  0  0  0
   11.1054  -16.4492   25.6408 O   0  0  0  0  0  0  0  0  0  0  0  0
   10.7621  -14.4586   24.5133 O   0  0  0  0  0  0  0  0  0  0  0  0
  2  1  1  0
  2  3  1  0
  3  4  1  1
  3  5  1  0
  5  7  1  0
  5  6  1  6
  7  8  2  0
  7 13  1  0
 10  9  1  6
 10 12  1  0
 10 11  1  0
 12 14  1  0
 12 13  1  6
 14 24  1  0
 15 14  2  0
 17 19  1  0
 17 16  1  0
 18 17  2  0
 20 19  1  0
 21 20  1  0
 22 21  1  0
 23 25  1  0
 23 22  1  6
 24 23  1  0
 25 27  1  0
 26 25  2  0
M  END
$$$$
