IVR.pdb
     RDKit          3D

 27 26  0  0  1  0  0  0  0  0999 V2000
    7.2532  -10.7411   27.9082 C   0  0  0  0  0  0  0  0  0  0  0  0
    6.3527  -11.5778   27.0501 C   0  0  0  0  0  0  0  0  0  0  0  0
    7.1051  -12.5845   26.2005 C   0  0  2  0  0  0  0  0  0  0  0  0
    8.0949  -11.8939   25.2793 C   0  0  0  0  0  0  0  0  0  0  0  0
    6.2092  -13.4183   25.3559 C   0  0  2  0  0  0  0  0  0  0  0  0
    5.2142  -14.0645   26.1492 N   0  0  0  0  0  0  0  0  0  0  0  0
    6.9090  -14.3326   24.4314 C   0  0  0  0  0  0  0  0  0  0  0  0
    7.2308  -15.4674   24.8688 O   0  0  0  0  0  0  0  0  0  0  0  0
    6.5846  -13.9932   20.2238 C   0  0  0  0  0  0  0  0  0  0  0  0
    7.9514  -14.3257   20.7903 C   0  0  1  0  0  0  0  0  0  0  0  0
    8.7970  -13.0926   20.8172 C   0  0  0  0  0  0  0  0  0  0  0  0
    7.8260  -14.9511   22.1688 C   0  0  2  0  0  0  0  0  0  0  0  0
    7.2371  -14.0156   23.0990 N   0  0  0  0  0  0  0  0  0  0  0  0
    9.2060  -15.3426   22.5865 C   0  0  0  0  0  0  0  0  0  0  0  0
    9.9274  -14.4752   23.1452 O   0  0  0  0  0  0  0  0  0  0  0  0
    7.7781  -21.0232   23.9991 N   0  0  0  0  0  0  0  0  0  0  0  0
    7.7461  -20.4174   25.2821 C   0  0  0  0  0  0  0  0  0  0  0  0
    6.6232  -19.9985   25.7448 N   0  0  0  0  0  0  0  0  0  0  0  0
    8.9202  -20.2645   26.0573 N   0  0  0  0  0  0  0  0  0  0  0  0
   10.0737  -19.5591   25.5465 C   0  0  0  0  0  0  0  0  0  0  0  0
    9.7102  -18.6299   24.4220 C   0  0  0  0  0  0  0  0  0  0  0  0
   10.7678  -18.4893   23.3861 C   0  0  0  0  0  0  0  0  0  0  0  0
   11.0222  -17.0789   22.9153 C   0  0  2  0  0  0  0  0  0  0  0  0
    9.7465  -16.6178   22.3946 N   0  0  0  0  0  0  0  0  0  0  0  0
   12.0834  -17.0094   21.8616 C   0  0  0  0  0  0  0  0  0  0  0  0
   11.7024  -16.9455   20.6562 O   0  0  0  0  0  0  0  0  0  0  0  0
   13.4302  -17.0146   22.1929 O   0  0  0  0  0  0  0  0  0  0  0  0
  2  1  1  0
  2  3  1  0
  3  4  1  6
  3  5  1  0
  5  7  1  0
  5  6  1  1
  7  8  2  0
  7 13  1  0
 10  9  1  1
 10 12  1  0
 10 11  1  0
 12 14  1  0
 12 13  1  1
 14 24  1  0
 15 14  2  0
 17 19  1  0
 17 16  1  0
 18 17  2  0
 20 19  1  0
 21 20  1  0
 22 21  1  0
 23 25  1  0
 23 22  1  6
 24 23  1  0
 25 27  1  0
 26 25  2  0
M  END
$$$$
