IVR.pdb
     RDKit          3D

 27 26  0  0  1  0  0  0  0  0999 V2000
    7.1391  -11.4251   28.3163 C   0  0  0  0  0  0  0  0  0  0  0  0
    7.2752  -11.2501   26.8336 C   0  0  0  0  0  0  0  0  0  0  0  0
    6.6857  -12.4012   26.0408 C   0  0  2  0  0  0  0  0  0  0  0  0
    5.5230  -13.0384   26.7809 C   0  0  0  0  0  0  0  0  0  0  0  0
    7.6746  -13.4723   25.7472 C   0  0  2  0  0  0  0  0  0  0  0  0
    9.0052  -13.0233   26.0012 N   0  0  0  0  0  0  0  0  0  0  0  0
    7.5130  -14.1152   24.4278 C   0  0  0  0  0  0  0  0  0  0  0  0
    6.7493  -15.1125   24.3567 O   0  0  0  0  0  0  0  0  0  0  0  0
    9.6832  -12.8484   20.8787 C   0  0  0  0  0  0  0  0  0  0  0  0
    8.2177  -13.2372   20.8571 C   0  0  1  0  0  0  0  0  0  0  0  0
    7.8554  -13.7538   19.5013 C   0  0  0  0  0  0  0  0  0  0  0  0
    7.9132  -14.2524   21.9451 C   0  0  2  0  0  0  0  0  0  0  0  0
    8.1565  -13.6850   23.2513 N   0  0  0  0  0  0  0  0  0  0  0  0
    8.7951  -15.4307   21.6876 C   0  0  0  0  0  0  0  0  0  0  0  0
    9.9298  -15.4552   22.2322 O   0  0  0  0  0  0  0  0  0  0  0  0
    9.2208  -20.7829   15.3621 N   0  0  0  0  0  0  0  0  0  0  0  0
    9.4814  -21.8019   16.3149 C   0  0  0  0  0  0  0  0  0  0  0  0
   10.1098  -22.8581   15.9405 N   0  0  0  0  0  0  0  0  0  0  0  0
    9.0636  -21.6797   17.6615 N   0  0  0  0  0  0  0  0  0  0  0  0
    8.3503  -20.5116   18.1259 C   0  0  0  0  0  0  0  0  0  0  0  0
    9.1899  -19.6713   19.0473 C   0  0  0  0  0  0  0  0  0  0  0  0
    8.4934  -18.4668   19.5723 C   0  0  0  0  0  0  0  0  0  0  0  0
    9.2860  -17.6456   20.5587 C   0  0  2  0  0  0  0  0  0  0  0  0
    8.4353  -16.5114   20.8767 N   0  0  0  0  0  0  0  0  0  0  0  0
   10.5969  -17.1872   19.9997 C   0  0  0  0  0  0  0  0  0  0  0  0
   10.5693  -16.2606   19.1377 O   0  0  0  0  0  0  0  0  0  0  0  0
   11.7941  -17.7548   20.4100 O   0  0  0  0  0  0  0  0  0  0  0  0
  2  1  1  0
  2  3  1  0
  3  4  1  1
  3  5  1  0
  5  7  1  0
  5  6  1  6
  7  8  2  0
  7 13  1  0
 10  9  1  6
 10 12  1  0
 10 11  1  0
 12 14  1  0
 12 13  1  1
 14 24  1  0
 15 14  2  0
 17 19  1  0
 17 16  1  0
 18 17  2  0
 20 19  1  0
 21 20  1  0
 22 21  1  0
 23 25  1  0
 23 22  1  6
 24 23  1  0
 25 27  1  0
 26 25  2  0
M  END
$$$$
