IVR.pdb
     RDKit          3D

 27 26  0  0  1  0  0  0  0  0999 V2000
    9.1893  -20.8949   29.2096 C   0  0  0  0  0  0  0  0  0  0  0  0
    9.6744  -19.5248   28.8426 C   0  0  0  0  0  0  0  0  0  0  0  0
    8.9063  -18.9099   27.6880 C   0  0  2  0  0  0  0  0  0  0  0  0
    9.8305  -18.1372   26.7639 C   0  0  0  0  0  0  0  0  0  0  0  0
    7.8330  -17.9812   28.1319 C   0  0  2  0  0  0  0  0  0  0  0  0
    6.7915  -18.6879   28.8048 N   0  0  0  0  0  0  0  0  0  0  0  0
    7.3399  -17.0640   27.0851 C   0  0  0  0  0  0  0  0  0  0  0  0
    6.5268  -17.5260   26.2434 O   0  0  0  0  0  0  0  0  0  0  0  0
    7.3686  -12.5090   25.0342 C   0  0  0  0  0  0  0  0  0  0  0  0
    7.3837  -13.4084   26.2549 C   0  0  1  0  0  0  0  0  0  0  0  0
    6.2229  -13.0765   27.1372 C   0  0  0  0  0  0  0  0  0  0  0  0
    7.3788  -14.8714   25.8466 C   0  0  2  0  0  0  0  0  0  0  0  0
    7.7206  -15.7130   26.9701 N   0  0  0  0  0  0  0  0  0  0  0  0
    8.3716  -15.0082   24.7385 C   0  0  0  0  0  0  0  0  0  0  0  0
    9.5922  -15.0802   25.0384 O   0  0  0  0  0  0  0  0  0  0  0  0
    7.3601  -14.0354   16.1605 N   0  0  0  0  0  0  0  0  0  0  0  0
    7.9894  -13.3916   17.2576 C   0  0  0  0  0  0  0  0  0  0  0  0
    8.1452  -12.1167   17.2251 N   0  0  0  0  0  0  0  0  0  0  0  0
    8.4480  -14.1217   18.3798 N   0  0  0  0  0  0  0  0  0  0  0  0
    8.1169  -15.5174   18.5571 C   0  0  0  0  0  0  0  0  0  0  0  0
    8.6587  -16.0627   19.8490 C   0  0  0  0  0  0  0  0  0  0  0  0
    8.0710  -15.4386   21.0641 C   0  0  0  0  0  0  0  0  0  0  0  0
    8.7296  -15.8228   22.3659 C   0  0  2  0  0  0  0  0  0  0  0  0
    8.0265  -15.0619   23.3847 N   0  0  0  0  0  0  0  0  0  0  0  0
   10.1931  -15.5081   22.3820 C   0  0  0  0  0  0  0  0  0  0  0  0
   10.5292  -14.3194   22.6582 O   0  0  0  0  0  0  0  0  0  0  0  0
   11.1430  -16.4804   22.1059 O   0  0  0  0  0  0  0  0  0  0  0  0
  2  1  1  0
  2  3  1  0
  3  4  1  6
  3  5  1  0
  5  7  1  0
  5  6  1  6
  7  8  2  0
  7 13  1  0
 10  9  1  6
 10 12  1  0
 10 11  1  0
 12 14  1  0
 12 13  1  1
 14 24  1  0
 15 14  2  0
 17 19  1  0
 17 16  1  0
 18 17  2  0
 20 19  1  0
 21 20  1  0
 22 21  1  0
 23 25  1  0
 23 22  1  6
 24 23  1  0
 25 27  1  0
 26 25  2  0
M  END
$$$$
