IDR.pdb
     RDKit          3D

 28 27  0  0  1  0  0  0  0  0999 V2000
   18.6087  -19.3997  -18.0102 C   0  0  0  0  0  0  0  0  0  0  0  0
   18.4094  -18.6247  -16.7483 C   0  0  0  0  0  0  0  0  0  0  0  0
   17.9165  -17.2331  -17.0601 C   0  0  2  0  0  0  0  0  0  0  0  0
   18.8121  -16.4571  -17.9677 C   0  0  0  0  0  0  0  0  0  0  0  0
   17.6711  -16.4464  -15.7929 C   0  0  2  0  0  0  0  0  0  0  0  0
   17.1076  -17.2646  -14.7612 N   0  0  0  0  0  0  0  0  0  0  0  0
   16.8961  -15.2328  -16.0861 C   0  0  0  0  0  0  0  0  0  0  0  0
   17.4120  -14.3452  -16.8286 O   0  0  0  0  0  0  0  0  0  0  0  0
   15.6051  -15.0075  -15.5806 N   0  0  0  0  0  0  0  0  0  0  0  0
   14.8297  -13.8150  -15.9479 C   0  0  1  0  0  0  0  0  0  0  0  0
   13.4227  -14.0436  -15.4387 C   0  0  0  0  0  0  0  0  0  0  0  0
   12.5692  -12.8937  -15.8206 C   0  0  0  0  0  0  0  0  0  0  0  0
   12.9159  -11.9986  -16.6276 O   0  0  0  0  0  0  0  0  0  0  0  0
   15.4173  -12.6502  -15.2396 C   0  0  0  0  0  0  0  0  0  0  0  0
   15.7932  -12.7586  -14.0220 O   0  0  0  0  0  0  0  0  0  0  0  0
   11.2822  -12.7632  -15.2634 O   0  0  0  0  0  0  0  0  0  0  0  0
   22.7957   -9.3735  -14.1483 N   0  0  0  0  0  0  0  0  0  0  0  0
   22.0706   -8.1472  -14.3071 C   0  0  0  0  0  0  0  0  0  0  0  0
   22.6956   -7.0569  -14.1998 N   0  0  0  0  0  0  0  0  0  0  0  0
   20.6995   -8.0959  -14.5840 N   0  0  0  0  0  0  0  0  0  0  0  0
   19.8652   -9.1425  -14.9463 C   0  0  0  0  0  0  0  0  0  0  0  0
   18.4659   -9.0681  -15.2918 C   0  0  0  0  0  0  0  0  0  0  0  0
   17.5812  -10.1783  -15.6044 C   0  0  0  0  0  0  0  0  0  0  0  0
   16.1625  -10.2343  -15.1423 C   0  0  2  0  0  0  0  0  0  0  0  0
   15.5717  -11.4090  -15.8919 N   0  0  0  0  0  0  0  0  0  0  0  0
   15.2680   -9.1269  -15.4466 C   0  0  0  0  0  0  0  0  0  0  0  0
   15.4884   -7.9346  -15.0054 O   0  0  0  0  0  0  0  0  0  0  0  0
   14.1400   -9.2415  -16.2142 O   0  0  0  0  0  0  0  0  0  0  0  0
  2  1  1  0
  3  2  1  0
  3  4  1  6
  5  3  1  0
  5  6  1  1
  7  5  1  0
  8  7  2  0
  9  7  1  0
 10  9  1  0
 11 12  1  0
 10 11  1  1
 12 13  2  0
 14 10  1  0
 14 15  2  0
 16 12  1  0
 18 17  1  0
 19 18  2  0
 20 18  1  0
 21 20  1  0
 22 21  1  0
 23 22  1  0
 24 23  1  6
 24 25  1  0
 25 14  1  0
 26 24  1  0
 27 26  2  0
 28 26  1  0
M  END
$$$$
