IDR.pdb
     RDKit          3D

 28 27  0  0  1  0  0  0  0  0999 V2000
   28.9420  -19.3757   -4.6795 C   0  0  0  0  0  0  0  0  0  0  0  0
   28.1905  -18.6949   -5.7770 C   0  0  0  0  0  0  0  0  0  0  0  0
   27.6671  -19.7107   -6.7624 C   0  0  2  0  0  0  0  0  0  0  0  0
   28.7034  -20.6547   -7.2749 C   0  0  0  0  0  0  0  0  0  0  0  0
   26.9751  -19.0351   -7.9242 C   0  0  2  0  0  0  0  0  0  0  0  0
   26.2723  -17.8575   -7.5110 N   0  0  0  0  0  0  0  0  0  0  0  0
   26.1463  -20.0014   -8.6583 C   0  0  0  0  0  0  0  0  0  0  0  0
   26.7171  -20.9557   -9.2656 O   0  0  0  0  0  0  0  0  0  0  0  0
   24.7456  -19.9181   -8.7200 N   0  0  0  0  0  0  0  0  0  0  0  0
   23.9445  -20.9131   -9.4456 C   0  0  1  0  0  0  0  0  0  0  0  0
   22.8121  -21.3089   -8.5226 C   0  0  0  0  0  0  0  0  0  0  0  0
   23.3241  -22.2374   -7.4869 C   0  0  0  0  0  0  0  0  0  0  0  0
   24.4867  -22.7075   -7.4775 O   0  0  0  0  0  0  0  0  0  0  0  0
   23.3792  -20.2558  -10.6507 C   0  0  0  0  0  0  0  0  0  0  0  0
   22.7626  -19.1402  -10.5472 O   0  0  0  0  0  0  0  0  0  0  0  0
   22.4825  -22.6402   -6.4318 O   0  0  0  0  0  0  0  0  0  0  0  0
   26.0571  -16.6566  -17.8463 N   0  0  0  0  0  0  0  0  0  0  0  0
   24.6279  -16.7455  -17.7806 C   0  0  0  0  0  0  0  0  0  0  0  0
   23.9397  -15.9077  -18.4251 N   0  0  0  0  0  0  0  0  0  0  0  0
   23.9523  -17.7230  -17.0409 N   0  0  0  0  0  0  0  0  0  0  0  0
   24.4950  -18.6644  -16.1797 C   0  0  0  0  0  0  0  0  0  0  0  0
   23.8089  -19.7539  -15.5276 C   0  0  0  0  0  0  0  0  0  0  0  0
   23.9968  -20.2145  -14.1618 C   0  0  0  0  0  0  0  0  0  0  0  0
   22.9136  -20.1601  -13.1357 C   0  0  2  0  0  0  0  0  0  0  0  0
   23.5108  -20.8453  -11.9255 N   0  0  0  0  0  0  0  0  0  0  0  0
   21.6673  -20.8735  -13.3744 C   0  0  0  0  0  0  0  0  0  0  0  0
   21.5274  -22.1186  -13.0662 O   0  0  0  0  0  0  0  0  0  0  0  0
   20.5526  -20.3042  -13.9294 O   0  0  0  0  0  0  0  0  0  0  0  0
  2  1  1  0
  3  2  1  0
  3  4  1  6
  5  3  1  0
  5  6  1  1
  7  5  1  0
  8  7  2  0
  9  7  1  0
 10  9  1  0
 11 12  1  0
 10 11  1  1
 12 13  2  0
 14 10  1  0
 14 15  2  0
 16 12  1  0
 18 17  1  0
 19 18  2  0
 20 18  1  0
 21 20  1  0
 22 21  1  0
 23 22  1  0
 24 23  1  6
 24 25  1  0
 25 14  1  0
 26 24  1  0
 27 26  2  0
 28 26  1  0
M  END
$$$$
