IDR.pdb
     RDKit          3D

 28 27  0  0  1  0  0  0  0  0999 V2000
   26.8223  -14.5653  -16.4628 C   0  0  0  0  0  0  0  0  0  0  0  0
   25.5747  -14.0782  -17.1252 C   0  0  0  0  0  0  0  0  0  0  0  0
   25.1284  -12.7752  -16.5090 C   0  0  2  0  0  0  0  0  0  0  0  0
   24.8718  -12.8503  -15.0406 C   0  0  0  0  0  0  0  0  0  0  0  0
   23.9057  -12.2316  -17.2120 C   0  0  2  0  0  0  0  0  0  0  0  0
   24.0725  -12.2209  -18.6345 N   0  0  0  0  0  0  0  0  0  0  0  0
   23.5241  -10.9314  -16.6433 C   0  0  0  0  0  0  0  0  0  0  0  0
   23.2680  -10.8600  -15.4045 O   0  0  0  0  0  0  0  0  0  0  0  0
   23.4288   -9.7583  -17.4098 N   0  0  0  0  0  0  0  0  0  0  0  0
   22.9942   -8.4846  -16.8207 C   0  0  1  0  0  0  0  0  0  0  0  0
   23.4568   -7.3948  -17.7638 C   0  0  0  0  0  0  0  0  0  0  0  0
   23.1929   -6.0709  -17.1519 C   0  0  0  0  0  0  0  0  0  0  0  0
   23.2784   -4.9822  -17.7684 O   0  0  0  0  0  0  0  0  0  0  0  0
   21.5105   -8.4847  -16.7722 C   0  0  0  0  0  0  0  0  0  0  0  0
   20.8303   -8.6376  -17.8444 O   0  0  0  0  0  0  0  0  0  0  0  0
   22.8209   -5.9895  -15.7959 O   0  0  0  0  0  0  0  0  0  0  0  0
   20.0371  -14.2068  -14.7726 N   0  0  0  0  0  0  0  0  0  0  0  0
   18.7865  -14.0258  -15.4491 C   0  0  0  0  0  0  0  0  0  0  0  0
   18.0509  -15.0325  -15.6399 N   0  0  0  0  0  0  0  0  0  0  0  0
   18.3326  -12.7826  -15.9049 N   0  0  0  0  0  0  0  0  0  0  0  0
   18.8723  -11.5323  -15.6442 C   0  0  0  0  0  0  0  0  0  0  0  0
   18.5191  -10.6314  -14.5734 C   0  0  0  0  0  0  0  0  0  0  0  0
   18.9911   -9.2698  -14.3834 C   0  0  0  0  0  0  0  0  0  0  0  0
   19.3136   -8.3610  -15.5234 C   0  0  2  0  0  0  0  0  0  0  0  0
   20.8262   -8.3176  -15.5500 N   0  0  0  0  0  0  0  0  0  0  0  0
   18.9147   -6.9626  -15.4568 C   0  0  0  0  0  0  0  0  0  0  0  0
   19.7389   -6.0374  -15.0968 O   0  0  0  0  0  0  0  0  0  0  0  0
   17.6611   -6.5077  -15.7669 O   0  0  0  0  0  0  0  0  0  0  0  0
  2  1  1  0
  3  2  1  0
  3  4  1  1
  5  3  1  0
  5  6  1  6
  7  5  1  0
  8  7  2  0
  9  7  1  0
 10  9  1  0
 11 12  1  0
 10 11  1  6
 12 13  2  0
 14 10  1  0
 14 15  2  0
 16 12  1  0
 18 17  1  0
 19 18  2  0
 20 18  1  0
 21 20  1  0
 22 21  1  0
 23 22  1  0
 24 23  1  1
 24 25  1  0
 25 14  1  0
 26 24  1  0
 27 26  2  0
 28 26  1  0
M  END
$$$$
