IDR.pdb
     RDKit          3D

 28 27  0  0  1  0  0  0  0  0999 V2000
   21.3541  -19.7961   -8.9151 C   0  0  0  0  0  0  0  0  0  0  0  0
   20.8710  -20.9213   -9.7713 C   0  0  0  0  0  0  0  0  0  0  0  0
   21.6041  -20.9286  -11.0902 C   0  0  2  0  0  0  0  0  0  0  0  0
   23.0911  -20.9340  -10.9622 C   0  0  0  0  0  0  0  0  0  0  0  0
   21.1724  -19.7694  -11.9589 C   0  0  2  0  0  0  0  0  0  0  0  0
   19.7479  -19.6211  -11.9762 N   0  0  0  0  0  0  0  0  0  0  0  0
   21.7804  -19.8751  -13.2925 C   0  0  0  0  0  0  0  0  0  0  0  0
   23.0415  -19.9598  -13.3820 O   0  0  0  0  0  0  0  0  0  0  0  0
   21.0283  -19.8866  -14.4787 N   0  0  0  0  0  0  0  0  0  0  0  0
   21.6707  -19.9033  -15.7998 C   0  0  1  0  0  0  0  0  0  0  0  0
   20.5569  -20.0229  -16.8177 C   0  0  0  0  0  0  0  0  0  0  0  0
   21.1310  -19.9667  -18.1830 C   0  0  0  0  0  0  0  0  0  0  0  0
   20.6201  -19.3294  -19.1345 O   0  0  0  0  0  0  0  0  0  0  0  0
   22.3620  -18.6034  -15.9896 C   0  0  0  0  0  0  0  0  0  0  0  0
   21.7725  -17.5094  -15.6877 O   0  0  0  0  0  0  0  0  0  0  0  0
   22.3236  -20.6595  -18.4686 O   0  0  0  0  0  0  0  0  0  0  0  0
   26.8253  -20.8662  -12.1318 N   0  0  0  0  0  0  0  0  0  0  0  0
   27.7006  -20.5863  -13.2318 C   0  0  0  0  0  0  0  0  0  0  0  0
   28.2417  -21.5529  -13.8351 N   0  0  0  0  0  0  0  0  0  0  0  0
   27.9820  -19.2902  -13.6791 N   0  0  0  0  0  0  0  0  0  0  0  0
   27.0807  -18.2849  -13.9946 C   0  0  0  0  0  0  0  0  0  0  0  0
   26.1929  -18.2291  -15.1311 C   0  0  0  0  0  0  0  0  0  0  0  0
   25.2950  -17.1432  -15.4880 C   0  0  0  0  0  0  0  0  0  0  0  0
   24.3682  -17.2135  -16.6566 C   0  0  2  0  0  0  0  0  0  0  0  0
   23.6748  -18.5500  -16.5033 N   0  0  0  0  0  0  0  0  0  0  0  0
   24.9187  -17.2463  -18.0038 C   0  0  0  0  0  0  0  0  0  0  0  0
   25.0115  -18.3454  -18.6732 O   0  0  0  0  0  0  0  0  0  0  0  0
   25.3736  -16.1417  -18.6729 O   0  0  0  0  0  0  0  0  0  0  0  0
  2  1  1  0
  3  2  1  0
  3  4  1  1
  5  3  1  0
  5  6  1  6
  7  5  1  0
  8  7  2  0
  9  7  1  0
 10  9  1  0
 11 12  1  0
 10 11  1  6
 12 13  2  0
 14 10  1  0
 14 15  2  0
 16 12  1  0
 18 17  1  0
 19 18  2  0
 20 18  1  0
 21 20  1  0
 22 21  1  0
 23 22  1  0
 24 23  1  1
 24 25  1  0
 25 14  1  0
 26 24  1  0
 27 26  2  0
 28 26  1  0
M  END
$$$$
