SGS.pdb
     RDKit          3D

 17 16  0  0  1  0  0  0  0  0999 V2000
   16.0985  -13.4490  -14.5936 O   0  0  0  0  0  0  0  0  0  0  0  0
   16.5189  -12.6181  -15.6465 C   0  0  0  0  0  0  0  0  0  0  0  0
   16.0578  -11.2233  -15.3034 C   0  0  2  0  0  0  0  0  0  0  0  0
   14.6737  -11.1118  -15.6463 N   0  0  0  0  0  0  0  0  0  0  0  0
   16.9014  -10.1735  -15.9183 C   0  0  0  0  0  0  0  0  0  0  0  0
   16.9730  -10.1062  -17.1705 O   0  0  0  0  0  0  0  0  0  0  0  0
   17.6426   -9.2274  -15.1596 N   0  0  0  0  0  0  0  0  0  0  0  0
   18.6261   -8.3250  -15.7133 C   0  0  0  0  0  0  0  0  0  0  0  0
   19.3071   -7.4701  -14.7468 C   0  0  0  0  0  0  0  0  0  0  0  0
   18.8530   -7.3880  -13.5727 O   0  0  0  0  0  0  0  0  0  0  0  0
   21.9669   -7.8744  -12.8299 O   0  0  0  0  0  0  0  0  0  0  0  0
   22.3408   -6.7064  -13.4975 C   0  0  0  0  0  0  0  0  0  0  0  0
   21.1372   -5.9304  -13.9774 C   0  0  2  0  0  0  0  0  0  0  0  0
   20.4597   -6.7076  -15.0295 N   0  0  0  0  0  0  0  0  0  0  0  0
   21.5138   -4.5901  -14.4895 C   0  0  0  0  0  0  0  0  0  0  0  0
   21.5486   -4.2891  -15.7092 O   0  0  0  0  0  0  0  0  0  0  0  0
   21.8470   -3.6118  -13.5662 O   0  0  0  0  0  0  0  0  0  0  0  0
  2  3  1  0
  2  1  1  0
  3  4  1  6
  5  7  1  0
  5  3  1  0
  6  5  2  0
  8  9  1  0
  8  7  1  0
  9 10  2  0
 11 12  1  0
 13 12  1  6
 14 13  1  0
 14  9  1  0
 15 13  1  0
 15 17  1  0
 16 15  2  0
M  END
$$$$
