SGS.pdb
     RDKit          3D

 17 16  0  0  1  0  0  0  0  0999 V2000
   15.4264  -13.8513  -15.0446 O   0  0  0  0  0  0  0  0  0  0  0  0
   15.9988  -12.7292  -15.6682 C   0  0  0  0  0  0  0  0  0  0  0  0
   17.0324  -12.1870  -14.7124 C   0  0  2  0  0  0  0  0  0  0  0  0
   16.3542  -11.6766  -13.5612 N   0  0  0  0  0  0  0  0  0  0  0  0
   17.9374  -11.2013  -15.3458 C   0  0  0  0  0  0  0  0  0  0  0  0
   18.2496  -11.3499  -16.5533 O   0  0  0  0  0  0  0  0  0  0  0  0
   18.4776  -10.0837  -14.6534 N   0  0  0  0  0  0  0  0  0  0  0  0
   19.2947   -9.0602  -15.2641 C   0  0  0  0  0  0  0  0  0  0  0  0
   19.6028   -7.9144  -14.4149 C   0  0  0  0  0  0  0  0  0  0  0  0
   18.9006   -7.7049  -13.3880 O   0  0  0  0  0  0  0  0  0  0  0  0
   22.6087   -4.3592  -13.0207 O   0  0  0  0  0  0  0  0  0  0  0  0
   22.3269   -5.4448  -13.8524 C   0  0  0  0  0  0  0  0  0  0  0  0
   20.8723   -5.8435  -13.7733 C   0  0  2  0  0  0  0  0  0  0  0  0
   20.6477   -6.9988  -14.6591 N   0  0  0  0  0  0  0  0  0  0  0  0
   19.9730   -4.7250  -14.1483 C   0  0  0  0  0  0  0  0  0  0  0  0
   19.6786   -4.4281  -15.3335 O   0  0  0  0  0  0  0  0  0  0  0  0
   19.4250   -3.9622  -13.1292 O   0  0  0  0  0  0  0  0  0  0  0  0
  2  3  1  0
  2  1  1  0
  3  4  1  1
  5  7  1  0
  5  3  1  0
  6  5  2  0
  8  9  1  0
  8  7  1  0
  9 10  2  0
 11 12  1  0
 13 12  1  6
 14 13  1  0
 14  9  1  0
 15 13  1  0
 15 17  1  0
 16 15  2  0
M  END
$$$$
