SGS.pdb
     RDKit          3D

 17 16  0  0  1  0  0  0  0  0999 V2000
   18.0898  -14.2633  -15.4201 O   0  0  0  0  0  0  0  0  0  0  0  0
   17.6843  -12.9202  -15.5063 C   0  0  0  0  0  0  0  0  0  0  0  0
   18.7575  -12.1962  -16.2809 C   0  0  2  0  0  0  0  0  0  0  0  0
   20.0303  -12.6049  -15.7723 N   0  0  0  0  0  0  0  0  0  0  0  0
   18.5703  -10.7276  -16.2836 C   0  0  0  0  0  0  0  0  0  0  0  0
   17.4734  -10.2547  -16.6720 O   0  0  0  0  0  0  0  0  0  0  0  0
   19.5759   -9.8142  -15.8656 N   0  0  0  0  0  0  0  0  0  0  0  0
   19.4427   -8.3759  -15.9069 C   0  0  0  0  0  0  0  0  0  0  0  0
   20.5372   -7.6272  -15.2984 C   0  0  0  0  0  0  0  0  0  0  0  0
   21.2668   -8.1950  -14.4401 O   0  0  0  0  0  0  0  0  0  0  0  0
   21.1676   -3.4548  -15.6246 O   0  0  0  0  0  0  0  0  0  0  0  0
   22.2628   -4.3164  -15.7132 C   0  0  0  0  0  0  0  0  0  0  0  0
   22.0091   -5.6153  -14.9855 C   0  0  2  0  0  0  0  0  0  0  0  0
   20.8497   -6.2850  -15.5996 N   0  0  0  0  0  0  0  0  0  0  0  0
   21.7709   -5.3987  -13.5375 C   0  0  0  0  0  0  0  0  0  0  0  0
   20.6469   -5.5110  -12.9866 O   0  0  0  0  0  0  0  0  0  0  0  0
   22.8540   -5.0516  -12.7456 O   0  0  0  0  0  0  0  0  0  0  0  0
  2  3  1  0
  2  1  1  0
  3  4  1  1
  5  7  1  0
  5  3  1  0
  6  5  2  0
  8  9  1  0
  8  7  1  0
  9 10  2  0
 11 12  1  0
 13 12  1  6
 14 13  1  0
 14  9  1  0
 15 13  1  0
 15 17  1  0
 16 15  2  0
M  END
$$$$
