SGS.pdb
     RDKit          3D

 17 16  0  0  1  0  0  0  0  0999 V2000
   18.1590  -12.5020  -18.4108 O   0  0  0  0  0  0  0  0  0  0  0  0
   18.9562  -12.1017  -17.3245 C   0  0  0  0  0  0  0  0  0  0  0  0
   19.6929  -10.8615  -17.7662 C   0  0  2  0  0  0  0  0  0  0  0  0
   20.7427  -11.2561  -18.6538 N   0  0  0  0  0  0  0  0  0  0  0  0
   20.1638  -10.0391  -16.6288 C   0  0  0  0  0  0  0  0  0  0  0  0
   19.3168   -9.5399  -15.8470 O   0  0  0  0  0  0  0  0  0  0  0  0
   21.5376   -9.7813  -16.3711 N   0  0  0  0  0  0  0  0  0  0  0  0
   22.0294   -9.0122  -15.2509 C   0  0  0  0  0  0  0  0  0  0  0  0
   21.8786   -7.5658  -15.3689 C   0  0  0  0  0  0  0  0  0  0  0  0
   22.1116   -7.0128  -16.4786 O   0  0  0  0  0  0  0  0  0  0  0  0
   19.2738   -5.3738  -15.6268 O   0  0  0  0  0  0  0  0  0  0  0  0
   19.9400   -4.8572  -14.5137 C   0  0  0  0  0  0  0  0  0  0  0  0
   21.3962   -5.2579  -14.5014 C   0  0  2  0  0  0  0  0  0  0  0  0
   21.4859   -6.7161  -14.3137 N   0  0  0  0  0  0  0  0  0  0  0  0
   22.1525   -4.5544  -13.4367 C   0  0  0  0  0  0  0  0  0  0  0  0
   22.6204   -5.1208  -12.4170 O   0  0  0  0  0  0  0  0  0  0  0  0
   22.3547   -3.1905  -13.5762 O   0  0  0  0  0  0  0  0  0  0  0  0
  2  3  1  0
  2  1  1  0
  3  4  1  1
  5  7  1  0
  5  3  1  0
  6  5  2  0
  8  9  1  0
  8  7  1  0
  9 10  2  0
 11 12  1  0
 13 12  1  1
 14 13  1  0
 14  9  1  0
 15 13  1  0
 15 17  1  0
 16 15  2  0
M  END
$$$$
