SGS.pdb
     RDKit          3D

 17 16  0  0  1  0  0  0  0  0999 V2000
   14.4815  -12.3039  -17.5905 O   0  0  0  0  0  0  0  0  0  0  0  0
   14.9672  -13.6026  -17.3600 C   0  0  0  0  0  0  0  0  0  0  0  0
   16.0612  -13.4756  -16.3290 C   0  0  2  0  0  0  0  0  0  0  0  0
   15.4621  -13.1110  -15.0825 N   0  0  0  0  0  0  0  0  0  0  0  0
   17.1428  -12.5573  -16.7515 C   0  0  0  0  0  0  0  0  0  0  0  0
   17.8200  -12.8426  -17.7702 O   0  0  0  0  0  0  0  0  0  0  0  0
   17.4596  -11.3573  -16.0588 N   0  0  0  0  0  0  0  0  0  0  0  0
   18.4080  -10.3708  -16.5232 C   0  0  0  0  0  0  0  0  0  0  0  0
   18.6945   -9.2878  -15.5885 C   0  0  0  0  0  0  0  0  0  0  0  0
   17.9131   -9.0920  -14.6176 O   0  0  0  0  0  0  0  0  0  0  0  0
   22.1329   -8.2118  -13.9880 O   0  0  0  0  0  0  0  0  0  0  0  0
   21.4974   -7.1057  -14.5558 C   0  0  0  0  0  0  0  0  0  0  0  0
   20.0131   -7.3368  -14.7128 C   0  0  2  0  0  0  0  0  0  0  0  0
   19.8017   -8.4197  -15.6888 N   0  0  0  0  0  0  0  0  0  0  0  0
   19.3067   -6.1070  -15.1476 C   0  0  0  0  0  0  0  0  0  0  0  0
   19.1350   -5.7842  -16.3500 O   0  0  0  0  0  0  0  0  0  0  0  0
   18.8064   -5.2642  -14.1678 O   0  0  0  0  0  0  0  0  0  0  0  0
  2  3  1  0
  2  1  1  0
  3  4  1  1
  5  7  1  0
  5  3  1  0
  6  5  2  0
  8  9  1  0
  8  7  1  0
  9 10  2  0
 11 12  1  0
 13 12  1  6
 14 13  1  0
 14  9  1  0
 15 13  1  0
 15 17  1  0
 16 15  2  0
M  END
$$$$
