SGS.pdb
     RDKit          3D

 17 16  0  0  1  0  0  0  0  0999 V2000
   26.9824  -19.9219   -7.3735 O   0  0  0  0  0  0  0  0  0  0  0  0
   27.1695  -20.3417   -8.7019 C   0  0  0  0  0  0  0  0  0  0  0  0
   25.8152  -20.2883   -9.3642 C   0  0  2  0  0  0  0  0  0  0  0  0
   24.9375  -21.1722   -8.6614 N   0  0  0  0  0  0  0  0  0  0  0  0
   25.8777  -20.5569  -10.8188 C   0  0  0  0  0  0  0  0  0  0  0  0
   26.1851  -19.6208  -11.5978 O   0  0  0  0  0  0  0  0  0  0  0  0
   25.6056  -21.8309  -11.3872 N   0  0  0  0  0  0  0  0  0  0  0  0
   25.4557  -22.0799  -12.8028 C   0  0  0  0  0  0  0  0  0  0  0  0
   24.1089  -21.8958  -13.3326 C   0  0  0  0  0  0  0  0  0  0  0  0
   23.1191  -22.2111  -12.6168 O   0  0  0  0  0  0  0  0  0  0  0  0
   21.1035  -18.9276  -14.3106 O   0  0  0  0  0  0  0  0  0  0  0  0
   22.3436  -19.5303  -14.0898 C   0  0  0  0  0  0  0  0  0  0  0  0
   22.5088  -20.7826  -14.9178 C   0  0  2  0  0  0  0  0  0  0  0  0
   23.8193  -21.3830  -14.6144 N   0  0  0  0  0  0  0  0  0  0  0  0
   22.3949  -20.5024  -16.3700 C   0  0  0  0  0  0  0  0  0  0  0  0
   23.3509  -20.1129  -17.0867 O   0  0  0  0  0  0  0  0  0  0  0  0
   21.1591  -20.6814  -16.9713 O   0  0  0  0  0  0  0  0  0  0  0  0
  2  3  1  0
  2  1  1  0
  3  4  1  1
  5  7  1  0
  5  3  1  0
  6  5  2  0
  8  9  1  0
  8  7  1  0
  9 10  2  0
 11 12  1  0
 13 12  1  1
 14 13  1  0
 14  9  1  0
 15 13  1  0
 15 17  1  0
 16 15  2  0
M  END
$$$$
