CTI.pdb
     RDKit          3D

 22 21  0  0  1  0  0  0  0  0999 V2000
    8.7246  -15.4646   17.3545 N   0  0  0  0  0  0  0  0  0  0  0  0
    9.1240  -14.9144   18.6074 C   0  0  1  0  0  0  0  0  0  0  0  0
    9.3331  -13.4281   18.4410 C   0  0  0  0  0  0  0  0  0  0  0  0
    7.7959  -12.5334   18.1477 S   0  0  0  0  0  0  0  0  0  0  0  0
    8.2195  -15.2659   19.7310 C   0  0  0  0  0  0  0  0  0  0  0  0
    6.9805  -15.4580   19.5506 O   0  0  0  0  0  0  0  0  0  0  0  0
    6.6688  -17.4903   20.8590 C   0  0  0  0  0  0  0  0  0  0  0  0
    7.4748  -17.1756   22.0995 C   0  0  1  0  0  0  0  0  0  0  0  0
    8.4186  -18.1290   22.3652 O   0  0  0  0  0  0  0  0  0  0  0  0
    7.9587  -15.7926   22.2148 C   0  0  2  0  0  0  0  0  0  0  0  0
    8.7356  -15.3954   21.0393 N   0  0  0  0  0  0  0  0  0  0  0  0
    8.5643  -15.3416   23.4603 C   0  0  0  0  0  0  0  0  0  0  0  0
    9.8276  -15.2112   23.4972 O   0  0  0  0  0  0  0  0  0  0  0  0
    5.8460  -11.7970   26.5794 C   0  0  0  0  0  0  0  0  0  0  0  0
    6.8279  -12.5866   25.7440 C   0  0  0  0  0  0  0  0  0  0  0  0
    7.4525  -13.6430   26.6036 C   0  0  2  0  0  0  0  0  0  0  0  0
    8.1367  -12.9579   27.7665 C   0  0  0  0  0  0  0  0  0  0  0  0
    8.4151  -14.5273   25.8421 C   0  0  2  0  0  0  0  0  0  0  0  0
    7.8243  -15.0421   24.6201 N   0  0  0  0  0  0  0  0  0  0  0  0
    8.9019  -15.6282   26.7137 C   0  0  0  0  0  0  0  0  0  0  0  0
    8.2913  -16.7353   26.7901 O   0  0  0  0  0  0  0  0  0  0  0  0
   10.0447  -15.5127   27.4904 O   0  0  0  0  0  0  0  0  0  0  0  0
  2  1  1  6
  2  5  1  0
  3  2  1  0
  4  3  1  0
  5 11  1  0
  5  6  2  0
  8  7  1  6
  8 10  1  0
  8  9  1  0
 10 12  1  0
 10 11  1  6
 12 13  2  0
 14 15  1  0
 16 18  1  0
 16 15  1  0
 16 17  1  1
 18 20  1  0
 19 12  1  0
 18 19  1  6
 20 22  1  0
 21 20  2  0
M  END
$$$$
