CTI.pdb
     RDKit          3D

 22 21  0  0  1  0  0  0  0  0999 V2000
   12.3386  -16.9149   19.6409 N   0  0  0  0  0  0  0  0  0  0  0  0
   11.2162  -17.3799   20.3865 C   0  0  1  0  0  0  0  0  0  0  0  0
   11.6371  -18.5797   21.2011 C   0  0  0  0  0  0  0  0  0  0  0  0
   12.7332  -18.1494   22.5661 S   0  0  0  0  0  0  0  0  0  0  0  0
   10.5492  -16.3217   21.1864 C   0  0  0  0  0  0  0  0  0  0  0  0
   11.2017  -15.3597   21.6898 O   0  0  0  0  0  0  0  0  0  0  0  0
    7.1544  -14.5140   20.0859 C   0  0  0  0  0  0  0  0  0  0  0  0
    7.0854  -15.1077   21.4753 C   0  0  1  0  0  0  0  0  0  0  0  0
    6.1944  -16.1419   21.5578 O   0  0  0  0  0  0  0  0  0  0  0  0
    8.3776  -15.3652   22.1264 C   0  0  2  0  0  0  0  0  0  0  0  0
    9.1540  -16.3717   21.4003 N   0  0  0  0  0  0  0  0  0  0  0  0
    8.4334  -15.5542   23.5696 C   0  0  0  0  0  0  0  0  0  0  0  0
    8.9247  -16.6395   24.0112 O   0  0  0  0  0  0  0  0  0  0  0  0
    5.6647  -11.9525   27.0611 C   0  0  0  0  0  0  0  0  0  0  0  0
    6.0839  -13.1284   26.2083 C   0  0  0  0  0  0  0  0  0  0  0  0
    7.4237  -13.6099   26.6755 C   0  0  2  0  0  0  0  0  0  0  0  0
    8.4055  -12.4658   26.5440 C   0  0  0  0  0  0  0  0  0  0  0  0
    7.9021  -14.8343   25.9271 C   0  0  2  0  0  0  0  0  0  0  0  0
    7.9743  -14.5988   24.4964 N   0  0  0  0  0  0  0  0  0  0  0  0
    7.0357  -16.0003   26.2407 C   0  0  0  0  0  0  0  0  0  0  0  0
    7.0526  -16.5540   27.3797 O   0  0  0  0  0  0  0  0  0  0  0  0
    6.1627  -16.5495   25.3140 O   0  0  0  0  0  0  0  0  0  0  0  0
  2  1  1  1
  2  5  1  0
  3  2  1  0
  4  3  1  0
  5 11  1  0
  5  6  2  0
  8  7  1  6
  8 10  1  0
  8  9  1  0
 10 12  1  0
 10 11  1  6
 12 13  2  0
 14 15  1  0
 16 18  1  0
 16 15  1  0
 16 17  1  6
 18 20  1  0
 19 12  1  0
 18 19  1  6
 20 22  1  0
 21 20  2  0
M  END
$$$$
