CTI.pdb
     RDKit          3D

 22 21  0  0  1  0  0  0  0  0999 V2000
    8.0750  -15.4000   17.6101 N   0  0  0  0  0  0  0  0  0  0  0  0
    8.8038  -15.1199   18.8027 C   0  0  1  0  0  0  0  0  0  0  0  0
    9.3564  -13.7172   18.7165 C   0  0  0  0  0  0  0  0  0  0  0  0
    8.0699  -12.4548   18.7472 S   0  0  0  0  0  0  0  0  0  0  0  0
    8.0384  -15.3824   20.0475 C   0  0  0  0  0  0  0  0  0  0  0  0
    6.7759  -15.2852   20.0833 O   0  0  0  0  0  0  0  0  0  0  0  0
    7.0469  -18.2129   21.3947 C   0  0  0  0  0  0  0  0  0  0  0  0
    7.8745  -17.6270   22.5170 C   0  0  1  0  0  0  0  0  0  0  0  0
    9.0136  -18.3451   22.7560 O   0  0  0  0  0  0  0  0  0  0  0  0
    8.0714  -16.1712   22.4747 C   0  0  2  0  0  0  0  0  0  0  0  0
    8.7173  -15.7523   21.2295 N   0  0  0  0  0  0  0  0  0  0  0  0
    8.6092  -15.4817   23.6396 C   0  0  0  0  0  0  0  0  0  0  0  0
    9.8480  -15.1997   23.6476 O   0  0  0  0  0  0  0  0  0  0  0  0
    5.5973  -11.9121   26.4615 C   0  0  0  0  0  0  0  0  0  0  0  0
    6.6305  -12.6994   25.6881 C   0  0  0  0  0  0  0  0  0  0  0  0
    7.3514  -13.6098   26.6350 C   0  0  2  0  0  0  0  0  0  0  0  0
    7.9938  -12.7576   27.7079 C   0  0  0  0  0  0  0  0  0  0  0  0
    8.3721  -14.4871   25.9446 C   0  0  2  0  0  0  0  0  0  0  0  0
    7.8291  -15.1115   24.7518 N   0  0  0  0  0  0  0  0  0  0  0  0
    8.9041  -15.5011   26.8920 C   0  0  0  0  0  0  0  0  0  0  0  0
    8.3989  -16.6594   26.9790 O   0  0  0  0  0  0  0  0  0  0  0  0
    9.9769  -15.2444   27.7319 O   0  0  0  0  0  0  0  0  0  0  0  0
  2  1  1  6
  2  5  1  0
  3  2  1  0
  4  3  1  0
  5 11  1  0
  5  6  2  0
  8  7  1  6
  8 10  1  0
  8  9  1  0
 10 12  1  0
 10 11  1  6
 12 13  2  0
 14 15  1  0
 16 18  1  0
 16 15  1  0
 16 17  1  1
 18 20  1  0
 19 12  1  0
 18 19  1  6
 20 22  1  0
 21 20  2  0
M  END
$$$$
