CTI.pdb
     RDKit          3D

 22 21  0  0  1  0  0  0  0  0999 V2000
    9.5830  -17.0226   17.5775 N   0  0  0  0  0  0  0  0  0  0  0  0
   10.0389  -17.0105   18.9280 C   0  0  1  0  0  0  0  0  0  0  0  0
   11.4610  -16.5035   18.9564 C   0  0  0  0  0  0  0  0  0  0  0  0
   12.1601  -16.4726   20.6178 S   0  0  0  0  0  0  0  0  0  0  0  0
    9.1324  -16.2926   19.8593 C   0  0  0  0  0  0  0  0  0  0  0  0
    8.5375  -15.2278   19.5174 O   0  0  0  0  0  0  0  0  0  0  0  0
    6.1052  -17.8350   21.0530 C   0  0  0  0  0  0  0  0  0  0  0  0
    6.8474  -17.3761   22.2884 C   0  0  1  0  0  0  0  0  0  0  0  0
    7.2591  -18.4209   23.0688 O   0  0  0  0  0  0  0  0  0  0  0  0
    7.8661  -16.3386   22.0749 C   0  0  2  0  0  0  0  0  0  0  0  0
    8.9148  -16.7952   21.1611 N   0  0  0  0  0  0  0  0  0  0  0  0
    8.4015  -15.6075   23.2153 C   0  0  0  0  0  0  0  0  0  0  0  0
    9.6534  -15.6624   23.4255 O   0  0  0  0  0  0  0  0  0  0  0  0
    6.7452  -11.2122   27.2546 C   0  0  0  0  0  0  0  0  0  0  0  0
    7.7314  -12.3011   26.8977 C   0  0  0  0  0  0  0  0  0  0  0  0
    7.1550  -13.1301   25.7907 C   0  0  2  0  0  0  0  0  0  0  0  0
    5.8846  -13.7754   26.3002 C   0  0  0  0  0  0  0  0  0  0  0  0
    8.1251  -14.1649   25.2649 C   0  0  2  0  0  0  0  0  0  0  0  0
    7.6063  -14.8447   24.0918 N   0  0  0  0  0  0  0  0  0  0  0  0
    8.4792  -15.1304   26.3377 C   0  0  0  0  0  0  0  0  0  0  0  0
    7.9356  -16.2722   26.4106 O   0  0  0  0  0  0  0  0  0  0  0  0
    9.4183  -14.8438   27.3167 O   0  0  0  0  0  0  0  0  0  0  0  0
  2  1  1  6
  2  5  1  0
  3  2  1  0
  4  3  1  0
  5 11  1  0
  5  6  2  0
  8  7  1  6
  8 10  1  0
  8  9  1  0
 10 12  1  0
 10 11  1  1
 12 13  2  0
 14 15  1  0
 16 18  1  0
 16 15  1  0
 16 17  1  1
 18 20  1  0
 19 12  1  0
 18 19  1  6
 20 22  1  0
 21 20  2  0
M  END
$$$$
