ADG.pdb
     RDKit          3D

 18 17  0  0  1  0  0  0  0  0999 V2000
   19.3575  -11.2571  -14.9721 C   0  0  0  0  0  0  0  0  0  0  0  0
   18.6366  -10.0562  -15.5498 C   0  0  2  0  0  0  0  0  0  0  0  0
   18.9543   -9.9263  -16.9539 N   0  0  0  0  0  0  0  0  0  0  0  0
   19.1495   -8.8801  -14.8107 C   0  0  0  0  0  0  0  0  0  0  0  0
   18.9217   -8.7777  -13.5908 O   0  0  0  0  0  0  0  0  0  0  0  0
   19.8914   -7.8706  -15.4653 N   0  0  0  0  0  0  0  0  0  0  0  0
   20.2854   -6.6892  -14.7348 C   0  0  1  0  0  0  0  0  0  0  0  0
   21.7973   -6.6016  -14.8192 C   0  0  0  0  0  0  0  0  0  0  0  0
   22.2732   -5.4927  -13.9484 C   0  0  0  0  0  0  0  0  0  0  0  0
   21.8646   -5.3325  -12.7772 O   0  0  0  0  0  0  0  0  0  0  0  0
   19.6436   -5.4779  -15.2335 C   0  0  0  0  0  0  0  0  0  0  0  0
   19.5932   -5.2270  -16.4699 O   0  0  0  0  0  0  0  0  0  0  0  0
   23.2215   -4.6449  -14.5603 O   0  0  0  0  0  0  0  0  0  0  0  0
   19.0400   -4.5072  -14.3698 N   0  0  0  0  0  0  0  0  0  0  0  0
   18.3488   -3.3743  -14.9309 C   0  0  0  0  0  0  0  0  0  0  0  0
   19.2739   -2.2754  -15.2173 C   0  0  0  0  0  0  0  0  0  0  0  0
   19.5867   -1.9115  -16.3980 O   0  0  0  0  0  0  0  0  0  0  0  0
   19.8807   -1.5471  -14.1912 O   0  0  0  0  0  0  0  0  0  0  0  0
  2  1  1  1
  3  2  1  0
  4  2  1  0
  4  5  2  0
  6  4  1  0
  7  6  1  0
  7  8  1  6
  9 10  2  0
  9  8  1  0
 11  7  1  0
 12 11  2  0
 13  9  1  0
 14 11  1  0
 15 14  1  0
 16 15  1  0
 16 18  1  0
 17 16  2  0
M  END
$$$$
