ADG.pdb
     RDKit          3D

 18 17  0  0  1  0  0  0  0  0999 V2000
   15.8487   -9.6161  -15.4688 C   0  0  0  0  0  0  0  0  0  0  0  0
   16.8529  -10.6988  -15.8074 C   0  0  2  0  0  0  0  0  0  0  0  0
   16.6839  -11.8184  -14.9090 N   0  0  0  0  0  0  0  0  0  0  0  0
   18.1884  -10.0923  -15.6040 C   0  0  0  0  0  0  0  0  0  0  0  0
   18.6388   -9.9791  -14.4486 O   0  0  0  0  0  0  0  0  0  0  0  0
   18.9603   -9.6378  -16.6974 N   0  0  0  0  0  0  0  0  0  0  0  0
   20.3169   -9.1958  -16.4766 C   0  0  1  0  0  0  0  0  0  0  0  0
   21.1266   -9.6365  -17.6812 C   0  0  0  0  0  0  0  0  0  0  0  0
   21.2361  -11.1206  -17.6815 C   0  0  0  0  0  0  0  0  0  0  0  0
   21.8827  -11.7489  -16.8146 O   0  0  0  0  0  0  0  0  0  0  0  0
   20.4121   -7.7568  -16.2566 C   0  0  0  0  0  0  0  0  0  0  0  0
   19.8915   -6.9369  -17.0633 O   0  0  0  0  0  0  0  0  0  0  0  0
   20.5480  -11.7497  -18.7414 O   0  0  0  0  0  0  0  0  0  0  0  0
   21.0925   -7.1867  -15.1320 N   0  0  0  0  0  0  0  0  0  0  0  0
   21.2047   -5.7556  -15.0075 C   0  0  0  0  0  0  0  0  0  0  0  0
   21.8247   -5.3795  -13.7348 C   0  0  0  0  0  0  0  0  0  0  0  0
   22.1143   -6.2189  -12.8206 O   0  0  0  0  0  0  0  0  0  0  0  0
   22.1408   -4.0505  -13.4425 O   0  0  0  0  0  0  0  0  0  0  0  0
  2  1  1  1
  3  2  1  0
  4  2  1  0
  4  5  2  0
  6  4  1  0
  7  6  1  0
  7  8  1  6
  9 10  2  0
  9  8  1  0
 11  7  1  0
 12 11  2  0
 13  9  1  0
 14 11  1  0
 15 14  1  0
 16 15  1  0
 16 18  1  0
 17 16  2  0
M  END
$$$$
