ADG.pdb
     RDKit          3D

 18 17  0  0  1  0  0  0  0  0999 V2000
   18.7874  -12.5438  -17.8381 C   0  0  0  0  0  0  0  0  0  0  0  0
   19.5028  -12.1506  -16.5618 C   0  0  2  0  0  0  0  0  0  0  0  0
   18.6850  -12.4917  -15.4199 N   0  0  0  0  0  0  0  0  0  0  0  0
   19.6777  -10.6818  -16.6300 C   0  0  0  0  0  0  0  0  0  0  0  0
   20.3837  -10.1914  -17.5309 O   0  0  0  0  0  0  0  0  0  0  0  0
   19.0592   -9.8265  -15.6899 N   0  0  0  0  0  0  0  0  0  0  0  0
   19.2013   -8.3962  -15.8269 C   0  0  1  0  0  0  0  0  0  0  0  0
   17.8204   -7.7957  -15.6444 C   0  0  0  0  0  0  0  0  0  0  0  0
   16.9273   -8.2818  -16.7309 C   0  0  0  0  0  0  0  0  0  0  0  0
   17.1417   -8.0390  -17.9390 O   0  0  0  0  0  0  0  0  0  0  0  0
   20.1655   -7.8332  -14.8881 C   0  0  0  0  0  0  0  0  0  0  0  0
   20.1074   -8.0976  -13.6549 O   0  0  0  0  0  0  0  0  0  0  0  0
   15.8245   -9.0371  -16.2769 O   0  0  0  0  0  0  0  0  0  0  0  0
   21.2230   -6.9560  -15.2941 N   0  0  0  0  0  0  0  0  0  0  0  0
   22.2405   -6.5689  -14.3500 C   0  0  0  0  0  0  0  0  0  0  0  0
   21.8570   -5.3572  -13.6220 C   0  0  0  0  0  0  0  0  0  0  0  0
   20.7390   -4.7667  -13.7824 O   0  0  0  0  0  0  0  0  0  0  0  0
   22.7128   -4.7651  -12.6900 O   0  0  0  0  0  0  0  0  0  0  0  0
  2  1  1  6
  3  2  1  0
  4  2  1  0
  4  5  2  0
  6  4  1  0
  7  6  1  0
  7  8  1  1
  9 10  2  0
  9  8  1  0
 11  7  1  0
 12 11  2  0
 13  9  1  0
 14 11  1  0
 15 14  1  0
 16 15  1  0
 16 18  1  0
 17 16  2  0
M  END
$$$$
