ADG.pdb
     RDKit          3D

 18 17  0  0  1  0  0  0  0  0999 V2000
   17.8461  -11.2837  -16.9718 C   0  0  0  0  0  0  0  0  0  0  0  0
   18.0434   -9.8098  -17.2617 C   0  0  2  0  0  0  0  0  0  0  0  0
   18.3264   -9.6232  -18.6669 N   0  0  0  0  0  0  0  0  0  0  0  0
   19.2133   -9.3903  -16.4566 C   0  0  0  0  0  0  0  0  0  0  0  0
   19.1566   -9.4581  -15.2146 O   0  0  0  0  0  0  0  0  0  0  0  0
   20.3924   -8.9126  -17.0725 N   0  0  0  0  0  0  0  0  0  0  0  0
   21.5034   -8.4905  -16.2526 C   0  0  1  0  0  0  0  0  0  0  0  0
   22.7615   -9.0419  -16.8959 C   0  0  0  0  0  0  0  0  0  0  0  0
   22.7672  -10.5246  -16.7692 C   0  0  0  0  0  0  0  0  0  0  0  0
   22.6893  -11.1070  -15.6651 O   0  0  0  0  0  0  0  0  0  0  0  0
   21.5669   -7.0420  -16.0919 C   0  0  0  0  0  0  0  0  0  0  0  0
   21.3838   -6.2674  -17.0719 O   0  0  0  0  0  0  0  0  0  0  0  0
   22.8671  -11.2084  -18.0000 O   0  0  0  0  0  0  0  0  0  0  0  0
   21.8389   -6.4117  -14.8343 N   0  0  0  0  0  0  0  0  0  0  0  0
   21.8378   -4.9743  -14.7337 C   0  0  0  0  0  0  0  0  0  0  0  0
   22.0189   -4.5381  -13.3472 C   0  0  0  0  0  0  0  0  0  0  0  0
   22.1648   -3.3181  -13.0091 O   0  0  0  0  0  0  0  0  0  0  0  0
   22.0434   -5.4536  -12.2923 O   0  0  0  0  0  0  0  0  0  0  0  0
  2  1  1  6
  3  2  1  0
  4  2  1  0
  4  5  2  0
  6  4  1  0
  7  6  1  0
  7  8  1  6
  9 10  2  0
  9  8  1  0
 11  7  1  0
 12 11  2  0
 13  9  1  0
 14 11  1  0
 15 14  1  0
 16 15  1  0
 16 18  1  0
 17 16  2  0
M  END
$$$$
