ADG.pdb
     RDKit          3D

 18 17  0  0  1  0  0  0  0  0999 V2000
   16.5162  -10.8512  -14.8973 C   0  0  0  0  0  0  0  0  0  0  0  0
   16.9315   -9.3951  -14.9495 C   0  0  2  0  0  0  0  0  0  0  0  0
   16.6348   -8.8502  -16.2551 N   0  0  0  0  0  0  0  0  0  0  0  0
   18.3949   -9.3816  -14.7234 C   0  0  0  0  0  0  0  0  0  0  0  0
   18.8446   -9.7134  -13.6107 O   0  0  0  0  0  0  0  0  0  0  0  0
   19.2903   -8.9972  -15.7473 N   0  0  0  0  0  0  0  0  0  0  0  0
   20.7116   -9.0147  -15.4941 C   0  0  1  0  0  0  0  0  0  0  0  0
   21.3531   -9.7881  -16.6304 C   0  0  0  0  0  0  0  0  0  0  0  0
   22.8021   -9.9686  -16.3436 C   0  0  0  0  0  0  0  0  0  0  0  0
   23.2763   -9.8846  -15.1893 O   0  0  0  0  0  0  0  0  0  0  0  0
   21.2772   -7.6766  -15.3621 C   0  0  0  0  0  0  0  0  0  0  0  0
   22.5258   -7.4977  -15.3059 O   0  0  0  0  0  0  0  0  0  0  0  0
   23.5864  -10.2420  -17.4849 O   0  0  0  0  0  0  0  0  0  0  0  0
   20.4688   -6.4961  -15.2860 N   0  0  0  0  0  0  0  0  0  0  0  0
   21.0870   -5.2120  -15.0737 C   0  0  0  0  0  0  0  0  0  0  0  0
   21.3381   -4.9714  -13.6508 C   0  0  0  0  0  0  0  0  0  0  0  0
   21.8417   -3.8909  -13.2003 O   0  0  0  0  0  0  0  0  0  0  0  0
   21.0343   -5.9331  -12.6841 O   0  0  0  0  0  0  0  0  0  0  0  0
  2  1  1  6
  3  2  1  0
  4  2  1  0
  4  5  2  0
  6  4  1  0
  7  6  1  0
  7  8  1  6
  9 10  2  0
  9  8  1  0
 11  7  1  0
 12 11  2  0
 13  9  1  0
 14 11  1  0
 15 14  1  0
 16 15  1  0
 16 18  1  0
 17 16  2  0
M  END
$$$$
