IMH.pdb
     RDKit          3D

 27 27  0  0  1  0  0  0  0  0999 V2000
    6.9164  -12.8196   17.4852 C   0  0  0  0  0  0  0  0  0  0  0  0
    7.5397  -13.9348   18.2536 C   0  0  0  0  0  0  0  0  0  0  0  0
    7.6351  -13.6241   19.7534 C   0  0  2  0  0  0  0  0  0  0  0  0
    8.6360  -12.4881   19.8382 C   0  0  0  0  0  0  0  0  0  0  0  0
    8.1363  -14.8567   20.4143 C   0  0  2  0  0  0  0  0  0  0  0  0
    7.1891  -15.9578   20.1929 N   0  0  0  0  0  0  0  0  0  0  0  0
    8.4401  -14.8004   21.8362 C   0  0  0  0  0  0  0  0  0  0  0  0
    9.6225  -14.4391   22.2146 O   0  0  0  0  0  0  0  0  0  0  0  0
    8.3709  -12.5789   28.5456 C   0  0  0  0  0  0  0  0  0  0  0  0
    7.8854  -12.7169   26.7854 S   0  0  0  0  0  0  0  0  0  0  0  0
    7.1254  -14.3653   26.5861 C   0  0  0  0  0  0  0  0  0  0  0  0
    6.7789  -14.6342   25.1624 C   0  0  0  0  0  0  0  0  0  0  0  0
    7.9813  -14.9465   24.3338 C   0  0  2  0  0  0  0  0  0  0  0  0
    7.5769  -15.0995   22.9194 N   0  0  0  0  0  0  0  0  0  0  0  0
    8.7472  -16.1493   24.7539 C   0  0  0  0  0  0  0  0  0  0  0  0
    8.2257  -17.2922   24.7872 O   0  0  0  0  0  0  0  0  0  0  0  0
   10.1130  -16.0401   25.1363 N   0  0  0  0  0  0  0  0  0  0  0  0
   10.9378  -17.2216   25.4691 C   0  0  1  0  0  0  0  0  0  0  0  0
   12.3634  -16.9040   25.1584 C   0  0  0  0  0  0  0  0  0  0  0  0
   13.3157  -17.9401   25.5575 C   0  0  0  0  0  0  0  0  0  0  0  0
   13.1232  -19.1254   26.1984 C   0  0  0  0  0  0  0  0  0  0  0  0
   14.3287  -19.7577   26.2598 N   0  0  0  0  0  0  0  0  0  0  0  0
   15.2484  -19.0019   25.6785 C   0  0  0  0  0  0  0  0  0  0  0  0
   14.6423  -17.9055   25.2534 N   0  0  0  0  0  0  0  0  0  0  0  0
   10.7250  -17.4749   26.9432 C   0  0  0  0  0  0  0  0  0  0  0  0
   11.1764  -18.5335   27.4260 O   0  0  0  0  0  0  0  0  0  0  0  0
   10.0678  -16.6134   27.7613 O   0  0  0  0  0  0  0  0  0  0  0  0
  2  1  1  0
  3  2  1  0
  3  4  1  6
  5  3  1  0
  5  7  1  0
  5  6  1  1
  7  8  2  0
  9 10  1  0
 10 11  1  0
 11 12  1  0
 13 12  1  1
 13 15  1  0
 14 13  1  0
 14  7  1  0
 15 17  1  0
 15 16  2  0
 17 18  1  0
 18 25  1  0
 18 19  1  1
 20 24  1  0
 20 19  1  0
 21 20  2  0
 22 21  1  0
 22 23  1  0
 23 24  2  0
 25 26  2  0
 25 27  1  0
M  END
$$$$
