IMH.pdb
     RDKit          3D

 27 27  0  0  1  0  0  0  0  0999 V2000
    7.7433  -15.5845   16.7710 C   0  0  0  0  0  0  0  0  0  0  0  0
    7.4497  -14.5533   17.8070 C   0  0  0  0  0  0  0  0  0  0  0  0
    8.1681  -14.8408   19.1322 C   0  0  2  0  0  0  0  0  0  0  0  0
    7.7375  -16.2490   19.4944 C   0  0  0  0  0  0  0  0  0  0  0  0
    7.6741  -13.8395   20.1123 C   0  0  2  0  0  0  0  0  0  0  0  0
    8.0027  -12.4856   19.6458 N   0  0  0  0  0  0  0  0  0  0  0  0
    8.1078  -13.9588   21.4961 C   0  0  0  0  0  0  0  0  0  0  0  0
    9.3411  -13.7096   21.7942 O   0  0  0  0  0  0  0  0  0  0  0  0
    6.7769  -10.5201   26.9384 C   0  0  0  0  0  0  0  0  0  0  0  0
    7.1980  -12.2990   26.8312 S   0  0  0  0  0  0  0  0  0  0  0  0
    6.6186  -12.8702   25.1964 C   0  0  0  0  0  0  0  0  0  0  0  0
    6.8826  -14.3238   25.0049 C   0  0  0  0  0  0  0  0  0  0  0  0
    7.9126  -14.5810   23.9547 C   0  0  2  0  0  0  0  0  0  0  0  0
    7.3276  -14.3267   22.6203 N   0  0  0  0  0  0  0  0  0  0  0  0
    8.5118  -15.9412   23.9723 C   0  0  0  0  0  0  0  0  0  0  0  0
    7.8488  -16.9646   23.6678 O   0  0  0  0  0  0  0  0  0  0  0  0
    9.8734  -16.1273   24.3399 N   0  0  0  0  0  0  0  0  0  0  0  0
   10.4809  -17.4692   24.4707 C   0  0  1  0  0  0  0  0  0  0  0  0
   11.8950  -17.3949   23.9972 C   0  0  0  0  0  0  0  0  0  0  0  0
   12.6604  -18.6281   24.1790 C   0  0  0  0  0  0  0  0  0  0  0  0
   12.2828  -19.8472   24.6520 C   0  0  0  0  0  0  0  0  0  0  0  0
   13.3567  -20.6790   24.5426 N   0  0  0  0  0  0  0  0  0  0  0  0
   14.3743  -20.0117   24.0190 C   0  0  0  0  0  0  0  0  0  0  0  0
   13.9591  -18.7752   23.7979 N   0  0  0  0  0  0  0  0  0  0  0  0
   10.3952  -17.8228   25.9371 C   0  0  0  0  0  0  0  0  0  0  0  0
   10.4027  -19.0313   26.2488 O   0  0  0  0  0  0  0  0  0  0  0  0
   10.3075  -16.8952   26.9247 O   0  0  0  0  0  0  0  0  0  0  0  0
  2  1  1  0
  3  2  1  0
  3  4  1  1
  5  3  1  0
  5  7  1  0
  5  6  1  6
  7  8  2  0
  9 10  1  0
 10 11  1  0
 11 12  1  0
 13 12  1  1
 13 15  1  0
 14 13  1  0
 14  7  1  0
 15 17  1  0
 15 16  2  0
 17 18  1  0
 18 25  1  0
 18 19  1  1
 20 24  1  0
 20 19  1  0
 21 20  2  0
 22 21  1  0
 22 23  1  0
 23 24  2  0
 25 26  2  0
 25 27  1  0
M  END
$$$$
