IMH.pdb
     RDKit          3D

 27 27  0  0  1  0  0  0  0  0999 V2000
    5.9945  -19.8451   20.1347 C   0  0  0  0  0  0  0  0  0  0  0  0
    6.2046  -18.3691   20.1249 C   0  0  0  0  0  0  0  0  0  0  0  0
    7.1317  -17.9072   21.2572 C   0  0  2  0  0  0  0  0  0  0  0  0
    6.4471  -18.3877   22.5221 C   0  0  0  0  0  0  0  0  0  0  0  0
    7.1886  -16.4243   21.1852 C   0  0  2  0  0  0  0  0  0  0  0  0
    7.7410  -16.0121   19.8877 N   0  0  0  0  0  0  0  0  0  0  0  0
    7.9079  -15.7116   22.2301 C   0  0  0  0  0  0  0  0  0  0  0  0
    9.1368  -15.3652   22.0259 O   0  0  0  0  0  0  0  0  0  0  0  0
    5.3316  -12.1480   26.7545 C   0  0  0  0  0  0  0  0  0  0  0  0
    6.9713  -12.1709   27.5693 S   0  0  0  0  0  0  0  0  0  0  0  0
    8.0985  -13.0577   26.4389 C   0  0  0  0  0  0  0  0  0  0  0  0
    7.3422  -13.8127   25.4009 C   0  0  0  0  0  0  0  0  0  0  0  0
    8.2422  -14.5619   24.4742 C   0  0  2  0  0  0  0  0  0  0  0  0
    7.4250  -15.3226   23.5042 N   0  0  0  0  0  0  0  0  0  0  0  0
    9.2034  -15.4860   25.1313 C   0  0  0  0  0  0  0  0  0  0  0  0
   10.1010  -15.0713   25.9071 O   0  0  0  0  0  0  0  0  0  0  0  0
    9.1345  -16.8875   24.8977 N   0  0  0  0  0  0  0  0  0  0  0  0
   10.0194  -17.8490   25.5900 C   0  0  1  0  0  0  0  0  0  0  0  0
   11.4281  -17.5749   25.1774 C   0  0  0  0  0  0  0  0  0  0  0  0
   11.6990  -17.8038   23.7583 C   0  0  0  0  0  0  0  0  0  0  0  0
   10.8640  -18.1360   22.7360 C   0  0  0  0  0  0  0  0  0  0  0  0
   11.6042  -18.1517   21.5919 N   0  0  0  0  0  0  0  0  0  0  0  0
   12.8592  -17.8399   21.8794 C   0  0  0  0  0  0  0  0  0  0  0  0
   12.9210  -17.6289   23.1840 N   0  0  0  0  0  0  0  0  0  0  0  0
    9.8096  -17.6167   27.0680 C   0  0  0  0  0  0  0  0  0  0  0  0
   10.5123  -18.2676   27.8681 O   0  0  0  0  0  0  0  0  0  0  0  0
    8.8969  -16.7424   27.5640 O   0  0  0  0  0  0  0  0  0  0  0  0
  2  1  1  0
  3  2  1  0
  3  4  1  1
  5  3  1  0
  5  7  1  0
  5  6  1  6
  7  8  2  0
  9 10  1  0
 10 11  1  0
 11 12  1  0
 13 12  1  1
 13 15  1  0
 14 13  1  0
 14  7  1  0
 15 17  1  0
 15 16  2  0
 17 18  1  0
 18 25  1  0
 18 19  1  6
 20 24  1  0
 20 19  1  0
 21 20  2  0
 22 21  1  0
 22 23  1  0
 23 24  2  0
 25 26  2  0
 25 27  1  0
M  END
$$$$
