IMH.pdb
     RDKit          3D

 27 27  0  0  1  0  0  0  0  0999 V2000
    8.1787  -11.9843   19.1480 C   0  0  0  0  0  0  0  0  0  0  0  0
    7.5344  -12.8737   20.1562 C   0  0  0  0  0  0  0  0  0  0  0  0
    8.0359  -14.3207   20.0586 C   0  0  2  0  0  0  0  0  0  0  0  0
    7.5754  -14.7859   18.6907 C   0  0  0  0  0  0  0  0  0  0  0  0
    7.3756  -15.0768   21.1539 C   0  0  2  0  0  0  0  0  0  0  0  0
    5.9167  -15.0046   20.9964 N   0  0  0  0  0  0  0  0  0  0  0  0
    7.7003  -14.7231   22.5274 C   0  0  0  0  0  0  0  0  0  0  0  0
    8.1576  -13.5409   22.7829 O   0  0  0  0  0  0  0  0  0  0  0  0
    7.0186  -12.5895   28.0887 C   0  0  0  0  0  0  0  0  0  0  0  0
    5.8433  -12.4122   26.6958 S   0  0  0  0  0  0  0  0  0  0  0  0
    6.4492  -13.5064   25.3652 C   0  0  0  0  0  0  0  0  0  0  0  0
    7.1885  -14.6753   25.9187 C   0  0  0  0  0  0  0  0  0  0  0  0
    8.2197  -15.1958   24.9722 C   0  0  2  0  0  0  0  0  0  0  0  0
    7.5774  -15.5334   23.6834 N   0  0  0  0  0  0  0  0  0  0  0  0
    8.9894  -16.3720   25.4554 C   0  0  0  0  0  0  0  0  0  0  0  0
    8.5098  -17.5335   25.4393 O   0  0  0  0  0  0  0  0  0  0  0  0
   10.3110  -16.2150   25.9578 N   0  0  0  0  0  0  0  0  0  0  0  0
   11.0877  -17.3472   26.5071 C   0  0  1  0  0  0  0  0  0  0  0  0
   12.5233  -17.1543   26.1442 C   0  0  0  0  0  0  0  0  0  0  0  0
   12.8182  -17.3341   24.7228 C   0  0  0  0  0  0  0  0  0  0  0  0
   12.0804  -17.0397   23.6175 C   0  0  0  0  0  0  0  0  0  0  0  0
   12.8441  -17.3296   22.5268 N   0  0  0  0  0  0  0  0  0  0  0  0
   14.0207  -17.7884   22.9269 C   0  0  0  0  0  0  0  0  0  0  0  0
   14.0098  -17.7925   24.2499 N   0  0  0  0  0  0  0  0  0  0  0  0
   10.8744  -17.3107   28.0023 C   0  0  0  0  0  0  0  0  0  0  0  0
   10.2319  -16.3526   28.4784 O   0  0  0  0  0  0  0  0  0  0  0  0
   11.3480  -18.2621   28.8473 O   0  0  0  0  0  0  0  0  0  0  0  0
  2  1  1  0
  3  2  1  0
  3  4  1  6
  5  3  1  0
  5  7  1  0
  5  6  1  1
  7  8  2  0
  9 10  1  0
 10 11  1  0
 11 12  1  0
 13 12  1  1
 13 15  1  0
 14 13  1  0
 14  7  1  0
 15 17  1  0
 15 16  2  0
 17 18  1  0
 18 25  1  0
 18 19  1  1
 20 24  1  0
 20 19  1  0
 21 20  2  0
 22 21  1  0
 22 23  1  0
 23 24  2  0
 25 26  2  0
 25 27  1  0
M  END
$$$$
