IMH.pdb
     RDKit          3D

 27 27  0  0  1  0  0  0  0  0999 V2000
    7.5260  -16.7232   16.8252 C   0  0  0  0  0  0  0  0  0  0  0  0
    7.2447  -15.4874   17.6103 C   0  0  0  0  0  0  0  0  0  0  0  0
    7.9896  -15.4699   18.9518 C   0  0  2  0  0  0  0  0  0  0  0  0
    7.5506  -16.7472   19.6413 C   0  0  0  0  0  0  0  0  0  0  0  0
    7.5302  -14.2592   19.6802 C   0  0  2  0  0  0  0  0  0  0  0  0
    7.9551  -13.0539   18.9555 N   0  0  0  0  0  0  0  0  0  0  0  0
    7.9154  -14.1076   21.0751 C   0  0  0  0  0  0  0  0  0  0  0  0
    9.1515  -13.8626   21.3650 O   0  0  0  0  0  0  0  0  0  0  0  0
    7.5137  -12.2596   28.4124 C   0  0  0  0  0  0  0  0  0  0  0  0
    6.7066  -12.1502   26.7724 S   0  0  0  0  0  0  0  0  0  0  0  0
    6.9663  -13.7645   25.9592 C   0  0  0  0  0  0  0  0  0  0  0  0
    6.5309  -13.7306   24.5349 C   0  0  0  0  0  0  0  0  0  0  0  0
    7.6109  -14.1656   23.5998 C   0  0  2  0  0  0  0  0  0  0  0  0
    7.0828  -14.1933   22.2185 N   0  0  0  0  0  0  0  0  0  0  0  0
    8.2289  -15.4812   23.9112 C   0  0  0  0  0  0  0  0  0  0  0  0
    7.6619  -16.5665   23.6282 O   0  0  0  0  0  0  0  0  0  0  0  0
    9.4990  -15.5512   24.5481 N   0  0  0  0  0  0  0  0  0  0  0  0
   10.1869  -16.8356   24.8011 C   0  0  1  0  0  0  0  0  0  0  0  0
   11.5716  -16.7454   24.2497 C   0  0  0  0  0  0  0  0  0  0  0  0
   12.4332  -17.8782   24.5877 C   0  0  0  0  0  0  0  0  0  0  0  0
   13.0805  -18.1889   25.7440 C   0  0  0  0  0  0  0  0  0  0  0  0
   13.6869  -19.3956   25.5618 N   0  0  0  0  0  0  0  0  0  0  0  0
   13.4316  -19.8322   24.3374 C   0  0  0  0  0  0  0  0  0  0  0  0
   12.6759  -18.9210   23.7467 N   0  0  0  0  0  0  0  0  0  0  0  0
   10.1880  -17.0179   26.3009 C   0  0  0  0  0  0  0  0  0  0  0  0
    9.8733  -16.0397   27.0093 O   0  0  0  0  0  0  0  0  0  0  0  0
   10.5161  -18.1858   26.9106 O   0  0  0  0  0  0  0  0  0  0  0  0
  2  1  1  0
  3  2  1  0
  3  4  1  1
  5  3  1  0
  5  7  1  0
  5  6  1  6
  7  8  2  0
  9 10  1  0
 10 11  1  0
 11 12  1  0
 13 12  1  1
 13 15  1  0
 14 13  1  0
 14  7  1  0
 15 17  1  0
 15 16  2  0
 17 18  1  0
 18 25  1  0
 18 19  1  1
 20 24  1  0
 20 19  1  0
 21 20  2  0
 22 21  1  0
 22 23  1  0
 23 24  2  0
 25 26  2  0
 25 27  1  0
M  END
$$$$
