LPD.pdb
     RDKit          3D

 24 24  0  0  1  0  0  0  0  0999 V2000
   23.1916  -14.5554  -16.1088 C   0  0  0  0  0  0  0  0  0  0  0  0
   22.0617  -13.6497  -16.5786 C   0  0  2  0  0  0  0  0  0  0  0  0
   22.1877  -13.5297  -18.0852 C   0  0  0  0  0  0  0  0  0  0  0  0
   22.1186  -12.3041  -15.9080 C   0  0  0  0  0  0  0  0  0  0  0  0
   23.3934  -11.5783  -16.2812 C   0  0  2  0  0  0  0  0  0  0  0  0
   24.4211  -11.9072  -15.3536 N   0  0  0  0  0  0  0  0  0  0  0  0
   23.1910  -10.1524  -16.4776 C   0  0  0  0  0  0  0  0  0  0  0  0
   22.8277   -9.4810  -15.4648 O   0  0  0  0  0  0  0  0  0  0  0  0
   23.3777   -9.4847  -17.7381 N   0  0  0  0  0  0  0  0  0  0  0  0
   23.9688  -10.1333  -18.8768 C   0  0  0  0  0  0  0  0  0  0  0  0
   24.1681   -9.0544  -19.8964 C   0  0  0  0  0  0  0  0  0  0  0  0
   23.1744   -7.9813  -19.5303 C   0  0  0  0  0  0  0  0  0  0  0  0
   23.0598   -8.1386  -18.0559 C   0  0  1  0  0  0  0  0  0  0  0  0
   21.7281   -7.6766  -17.5685 C   0  0  0  0  0  0  0  0  0  0  0  0
   20.9323   -8.5220  -17.1172 O   0  0  0  0  0  0  0  0  0  0  0  0
   21.3507   -6.3214  -17.6054 N   0  0  0  0  0  0  0  0  0  0  0  0
   20.0049   -5.8621  -17.2117 C   0  0  1  0  0  0  0  0  0  0  0  0
   19.7214   -6.2441  -15.8052 C   0  0  0  0  0  0  0  0  0  0  0  0
   18.4137   -5.7904  -15.3074 C   0  0  0  0  0  0  0  0  0  0  0  0
   17.4199   -5.7652  -16.0424 O   0  0  0  0  0  0  0  0  0  0  0  0
   19.9272   -4.3991  -17.3723 C   0  0  0  0  0  0  0  0  0  0  0  0
   20.8588   -3.6401  -17.6575 O   0  0  0  0  0  0  0  0  0  0  0  0
   18.2540   -5.3682  -13.9685 O   0  0  0  0  0  0  0  0  0  0  0  0
   18.6692   -3.7920  -17.1846 O   0  0  0  0  0  0  0  0  0  0  0  0
  2  1  1  1
  2  3  1  0
  4  2  1  0
  5  4  1  0
  5  7  1  0
  5  6  1  1
  7  8  2  0
  7  9  1  0
  9 13  1  0
  9 10  1  0
 11 10  1  0
 12 13  1  0
 12 11  1  0
 13 14  1  6
 15 14  2  0
 16 14  1  0
 17 16  1  0
 17 21  1  0
 17 18  1  1
 19 18  1  0
 20 19  2  0
 21 24  1  0
 22 21  2  0
 23 19  1  0
M  END
$$$$
