LPD.pdb
     RDKit          3D

 24 24  0  0  1  0  0  0  0  0999 V2000
   17.2317  -14.6155  -16.0160 C   0  0  0  0  0  0  0  0  0  0  0  0
   16.9274  -13.1554  -16.3213 C   0  0  2  0  0  0  0  0  0  0  0  0
   16.7410  -13.0464  -17.8224 C   0  0  0  0  0  0  0  0  0  0  0  0
   18.0239  -12.2494  -15.8309 C   0  0  0  0  0  0  0  0  0  0  0  0
   19.2495  -12.3749  -16.7104 C   0  0  2  0  0  0  0  0  0  0  0  0
   20.0015  -13.5193  -16.3238 N   0  0  0  0  0  0  0  0  0  0  0  0
   20.0180  -11.1433  -16.7818 C   0  0  0  0  0  0  0  0  0  0  0  0
   20.7310  -10.8543  -15.7735 O   0  0  0  0  0  0  0  0  0  0  0  0
   20.0057  -10.2579  -17.9157 N   0  0  0  0  0  0  0  0  0  0  0  0
   19.3924  -10.6121  -19.1668 C   0  0  0  0  0  0  0  0  0  0  0  0
   19.7750   -9.5260  -20.1246 C   0  0  0  0  0  0  0  0  0  0  0  0
   20.0915   -8.3334  -19.2582 C   0  0  0  0  0  0  0  0  0  0  0  0
   20.5880   -8.9671  -18.0077 C   0  0  1  0  0  0  0  0  0  0  0  0
   20.3500   -8.0859  -16.8281 C   0  0  0  0  0  0  0  0  0  0  0  0
   19.2972   -8.2310  -16.1784 O   0  0  0  0  0  0  0  0  0  0  0  0
   21.2765   -7.1028  -16.4339 N   0  0  0  0  0  0  0  0  0  0  0  0
   21.0616   -6.2363  -15.2592 C   0  0  1  0  0  0  0  0  0  0  0  0
   22.2495   -6.2715  -14.3691 C   0  0  0  0  0  0  0  0  0  0  0  0
   22.1333   -5.4245  -13.1721 C   0  0  0  0  0  0  0  0  0  0  0  0
   21.0527   -4.9220  -12.8429 O   0  0  0  0  0  0  0  0  0  0  0  0
   20.8021   -4.8590  -15.7153 C   0  0  0  0  0  0  0  0  0  0  0  0
   20.2102   -3.9756  -15.0872 O   0  0  0  0  0  0  0  0  0  0  0  0
   23.2581   -5.1591  -12.3593 O   0  0  0  0  0  0  0  0  0  0  0  0
   21.2712   -4.5004  -16.9950 O   0  0  0  0  0  0  0  0  0  0  0  0
  2  1  1  6
  2  3  1  0
  4  2  1  0
  5  4  1  0
  5  7  1  0
  5  6  1  1
  7  8  2  0
  7  9  1  0
  9 13  1  0
  9 10  1  0
 11 10  1  0
 12 13  1  0
 12 11  1  0
 13 14  1  1
 15 14  2  0
 16 14  1  0
 17 16  1  0
 17 21  1  0
 17 18  1  1
 19 18  1  0
 20 19  2  0
 21 24  1  0
 22 21  2  0
 23 19  1  0
M  END
$$$$
