LPD.pdb
     RDKit          3D

 24 24  0  0  1  0  0  0  0  0999 V2000
   20.5954  -22.5921  -11.6145 C   0  0  0  0  0  0  0  0  0  0  0  0
   21.6323  -21.8030  -10.8271 C   0  0  2  0  0  0  0  0  0  0  0  0
   20.8819  -21.0223   -9.7653 C   0  0  0  0  0  0  0  0  0  0  0  0
   22.4313  -20.8955  -11.7225 C   0  0  0  0  0  0  0  0  0  0  0  0
   23.8592  -20.7884  -11.2319 C   0  0  2  0  0  0  0  0  0  0  0  0
   23.8734  -20.2610   -9.9103 N   0  0  0  0  0  0  0  0  0  0  0  0
   24.7244  -20.0917  -12.1692 C   0  0  0  0  0  0  0  0  0  0  0  0
   24.4178  -18.8933  -12.4490 O   0  0  0  0  0  0  0  0  0  0  0  0
   25.8833  -20.6857  -12.7806 N   0  0  0  0  0  0  0  0  0  0  0  0
   26.5628  -21.8180  -12.2122 C   0  0  0  0  0  0  0  0  0  0  0  0
   27.8097  -21.9886  -13.0242 C   0  0  0  0  0  0  0  0  0  0  0  0
   27.5082  -21.3320  -14.3475 C   0  0  0  0  0  0  0  0  0  0  0  0
   26.5425  -20.2674  -13.9656 C   0  0  1  0  0  0  0  0  0  0  0  0
   25.6370  -19.9312  -15.1021 C   0  0  0  0  0  0  0  0  0  0  0  0
   24.6735  -20.6842  -15.3394 O   0  0  0  0  0  0  0  0  0  0  0  0
   25.8417  -18.7948  -15.9064 N   0  0  0  0  0  0  0  0  0  0  0  0
   24.9368  -18.4344  -17.0147 C   0  0  1  0  0  0  0  0  0  0  0  0
   23.9416  -17.4301  -16.5611 C   0  0  0  0  0  0  0  0  0  0  0  0
   22.6452  -18.0004  -16.1639 C   0  0  0  0  0  0  0  0  0  0  0  0
   22.4423  -19.2195  -16.1970 O   0  0  0  0  0  0  0  0  0  0  0  0
   25.7325  -17.8997  -18.1342 C   0  0  0  0  0  0  0  0  0  0  0  0
   26.6424  -17.0680  -18.0583 O   0  0  0  0  0  0  0  0  0  0  0  0
   21.5888  -17.1681  -15.7306 O   0  0  0  0  0  0  0  0  0  0  0  0
   25.4360  -18.3769  -19.4267 O   0  0  0  0  0  0  0  0  0  0  0  0
  2  1  1  6
  2  3  1  0
  4  2  1  0
  5  4  1  0
  5  7  1  0
  5  6  1  1
  7  8  2  0
  7  9  1  0
  9 13  1  0
  9 10  1  0
 11 10  1  0
 12 13  1  0
 12 11  1  0
 13 14  1  6
 15 14  2  0
 16 14  1  0
 17 16  1  0
 17 21  1  0
 17 18  1  1
 19 18  1  0
 20 19  2  0
 21 24  1  0
 22 21  2  0
 23 19  1  0
M  END
$$$$
