LPD.pdb
     RDKit          3D

 24 24  0  0  1  0  0  0  0  0999 V2000
   20.7404  -13.7283  -19.4662 C   0  0  0  0  0  0  0  0  0  0  0  0
   19.4664  -12.9459  -19.1793 C   0  0  2  0  0  0  0  0  0  0  0  0
   18.9449  -12.4447  -20.5123 C   0  0  0  0  0  0  0  0  0  0  0  0
   19.7186  -11.8138  -18.2208 C   0  0  0  0  0  0  0  0  0  0  0  0
   20.0600  -12.3479  -16.8463 C   0  0  2  0  0  0  0  0  0  0  0  0
   19.0163  -13.2011  -16.3909 N   0  0  0  0  0  0  0  0  0  0  0  0
   20.4327  -11.2983  -15.9125 C   0  0  0  0  0  0  0  0  0  0  0  0
   19.5019  -10.5412  -15.5013 O   0  0  0  0  0  0  0  0  0  0  0  0
   21.7765  -11.0832  -15.4462 N   0  0  0  0  0  0  0  0  0  0  0  0
   22.8417  -12.0145  -15.7005 C   0  0  0  0  0  0  0  0  0  0  0  0
   24.0017  -11.5322  -14.8849 C   0  0  0  0  0  0  0  0  0  0  0  0
   23.7421  -10.0635  -14.6651 C   0  0  0  0  0  0  0  0  0  0  0  0
   22.2565   -9.9948  -14.6723 C   0  0  1  0  0  0  0  0  0  0  0  0
   21.7831   -8.6520  -15.1165 C   0  0  0  0  0  0  0  0  0  0  0  0
   21.1410   -8.5683  -16.1806 O   0  0  0  0  0  0  0  0  0  0  0  0
   22.0415   -7.4871  -14.3706 N   0  0  0  0  0  0  0  0  0  0  0  0
   21.5674   -6.1547  -14.7915 C   0  0  1  0  0  0  0  0  0  0  0  0
   20.0831   -6.1182  -14.8094 C   0  0  0  0  0  0  0  0  0  0  0  0
   19.5152   -4.8256  -15.2221 C   0  0  0  0  0  0  0  0  0  0  0  0
   19.1801   -3.9756  -14.3891 O   0  0  0  0  0  0  0  0  0  0  0  0
   22.0951   -5.1384  -13.8637 C   0  0  0  0  0  0  0  0  0  0  0  0
   22.3806   -5.3064  -12.6740 O   0  0  0  0  0  0  0  0  0  0  0  0
   19.3352   -4.5156  -16.5888 O   0  0  0  0  0  0  0  0  0  0  0  0
   22.2996   -3.8399  -14.3721 O   0  0  0  0  0  0  0  0  0  0  0  0
  2  1  1  6
  2  3  1  0
  4  2  1  0
  5  4  1  0
  5  7  1  0
  5  6  1  1
  7  8  2  0
  7  9  1  0
  9 13  1  0
  9 10  1  0
 11 10  1  0
 12 13  1  0
 12 11  1  0
 13 14  1  6
 15 14  2  0
 16 14  1  0
 17 16  1  0
 17 21  1  0
 17 18  1  1
 19 18  1  0
 20 19  2  0
 21 24  1  0
 22 21  2  0
 23 19  1  0
M  END
$$$$
