LPD.pdb
     RDKit          3D

 24 24  0  0  1  0  0  0  0  0999 V2000
   27.5173  -21.5805  -10.2662 C   0  0  0  0  0  0  0  0  0  0  0  0
   26.5176  -20.4855  -10.6115 C   0  0  2  0  0  0  0  0  0  0  0  0
   25.7272  -20.1939   -9.3505 C   0  0  0  0  0  0  0  0  0  0  0  0
   25.6197  -20.8967  -11.7467 C   0  0  0  0  0  0  0  0  0  0  0  0
   26.2899  -20.6292  -13.0773 C   0  0  2  0  0  0  0  0  0  0  0  0
   26.9874  -19.3902  -13.0220 N   0  0  0  0  0  0  0  0  0  0  0  0
   25.3779  -20.7589  -14.2016 C   0  0  0  0  0  0  0  0  0  0  0  0
   24.4932  -19.8590  -14.3278 O   0  0  0  0  0  0  0  0  0  0  0  0
   25.4306  -21.8363  -15.1535 N   0  0  0  0  0  0  0  0  0  0  0  0
   26.5840  -22.6816  -15.3017 C   0  0  0  0  0  0  0  0  0  0  0  0
   26.3154  -23.5207  -16.5129 C   0  0  0  0  0  0  0  0  0  0  0  0
   24.8147  -23.5316  -16.6568 C   0  0  0  0  0  0  0  0  0  0  0  0
   24.4269  -22.2158  -16.0822 C   0  0  1  0  0  0  0  0  0  0  0  0
   23.0430  -22.2589  -15.5277 C   0  0  0  0  0  0  0  0  0  0  0  0
   22.8978  -22.3567  -14.2944 O   0  0  0  0  0  0  0  0  0  0  0  0
   21.9068  -22.1928  -16.3552 N   0  0  0  0  0  0  0  0  0  0  0  0
   20.5382  -22.0798  -15.8154 C   0  0  1  0  0  0  0  0  0  0  0  0
   20.3857  -20.8104  -15.0603 C   0  0  0  0  0  0  0  0  0  0  0  0
   19.0340  -20.5834  -14.5264 C   0  0  0  0  0  0  0  0  0  0  0  0
   18.1966  -21.4922  -14.4897 O   0  0  0  0  0  0  0  0  0  0  0  0
   19.5735  -22.1346  -16.9283 C   0  0  0  0  0  0  0  0  0  0  0  0
   19.5423  -21.3884  -17.9119 O   0  0  0  0  0  0  0  0  0  0  0  0
   18.6511  -19.3144  -14.0370 O   0  0  0  0  0  0  0  0  0  0  0  0
   18.5814  -23.1344  -16.8780 O   0  0  0  0  0  0  0  0  0  0  0  0
  2  1  1  1
  2  3  1  0
  4  2  1  0
  5  4  1  0
  5  7  1  0
  5  6  1  1
  7  8  2  0
  7  9  1  0
  9 13  1  0
  9 10  1  0
 11 10  1  0
 12 13  1  0
 12 11  1  0
 13 14  1  1
 15 14  2  0
 16 14  1  0
 17 16  1  0
 17 21  1  0
 17 18  1  6
 19 18  1  0
 20 19  2  0
 21 24  1  0
 22 21  2  0
 23 19  1  0
M  END
$$$$
