LPD.pdb
     RDKit          3D

 24 24  0  0  1  0  0  0  0  0999 V2000
   25.1618  -16.3871  -15.7354 C   0  0  0  0  0  0  0  0  0  0  0  0
   26.2930  -17.2248  -15.1555 C   0  0  2  0  0  0  0  0  0  0  0  0
   27.3174  -16.2575  -14.5942 C   0  0  0  0  0  0  0  0  0  0  0  0
   26.8961  -18.1313  -16.1938 C   0  0  0  0  0  0  0  0  0  0  0  0
   27.2989  -19.4528  -15.5755 C   0  0  2  0  0  0  0  0  0  0  0  0
   27.9721  -20.2494  -16.5434 N   0  0  0  0  0  0  0  0  0  0  0  0
   26.1940  -20.1201  -14.9072 C   0  0  0  0  0  0  0  0  0  0  0  0
   25.1445  -20.3151  -15.5922 O   0  0  0  0  0  0  0  0  0  0  0  0
   26.2349  -20.5572  -13.5372 N   0  0  0  0  0  0  0  0  0  0  0  0
   27.4301  -20.4946  -12.7409 C   0  0  0  0  0  0  0  0  0  0  0  0
   27.1076  -21.2230  -11.4725 C   0  0  0  0  0  0  0  0  0  0  0  0
   25.6055  -21.1634  -11.3578 C   0  0  0  0  0  0  0  0  0  0  0  0
   25.1757  -21.1230  -12.7810 C   0  0  1  0  0  0  0  0  0  0  0  0
   23.8622  -20.4313  -12.9258 C   0  0  0  0  0  0  0  0  0  0  0  0
   23.8362  -19.1866  -12.8836 O   0  0  0  0  0  0  0  0  0  0  0  0
   22.6618  -21.1428  -13.1070 N   0  0  0  0  0  0  0  0  0  0  0  0
   21.3737  -20.4717  -13.3670 C   0  0  1  0  0  0  0  0  0  0  0  0
   21.4672  -19.6336  -14.5891 C   0  0  0  0  0  0  0  0  0  0  0  0
   20.2125  -18.9603  -14.9578 C   0  0  0  0  0  0  0  0  0  0  0  0
   19.3251  -18.7527  -14.1223 O   0  0  0  0  0  0  0  0  0  0  0  0
   20.3203  -21.4907  -13.5223 C   0  0  0  0  0  0  0  0  0  0  0  0
   19.2264  -21.5107  -12.9495 O   0  0  0  0  0  0  0  0  0  0  0  0
   19.9833  -18.5288  -16.2835 O   0  0  0  0  0  0  0  0  0  0  0  0
   20.5734  -22.5549  -14.4110 O   0  0  0  0  0  0  0  0  0  0  0  0
  2  1  1  6
  2  3  1  0
  4  2  1  0
  5  4  1  0
  5  7  1  0
  5  6  1  6
  7  8  2  0
  7  9  1  0
  9 13  1  0
  9 10  1  0
 11 10  1  0
 12 13  1  0
 12 11  1  0
 13 14  1  1
 15 14  2  0
 16 14  1  0
 17 16  1  0
 17 21  1  0
 17 18  1  6
 19 18  1  0
 20 19  2  0
 21 24  1  0
 22 21  2  0
 23 19  1  0
M  END
$$$$
