LPD.pdb
     RDKit          3D

 24 24  0  0  1  0  0  0  0  0999 V2000
   28.8059  -20.5365   -6.8961 C   0  0  0  0  0  0  0  0  0  0  0  0
   27.3838  -20.0210   -6.7246 C   0  0  2  0  0  0  0  0  0  0  0  0
   26.8102  -20.7039   -5.4980 C   0  0  0  0  0  0  0  0  0  0  0  0
   26.5498  -20.2861   -7.9485 C   0  0  0  0  0  0  0  0  0  0  0  0
   26.9640  -19.3717   -9.0814 C   0  0  2  0  0  0  0  0  0  0  0  0
   26.9292  -18.0187   -8.6423 N   0  0  0  0  0  0  0  0  0  0  0  0
   26.2269  -19.6275  -10.3077 C   0  0  0  0  0  0  0  0  0  0  0  0
   25.1623  -18.9614  -10.4852 O   0  0  0  0  0  0  0  0  0  0  0  0
   26.6389  -20.5799  -11.3042 N   0  0  0  0  0  0  0  0  0  0  0  0
   27.8484  -21.3480  -11.1865 C   0  0  0  0  0  0  0  0  0  0  0  0
   28.0106  -22.0478  -12.5008 C   0  0  0  0  0  0  0  0  0  0  0  0
   26.6222  -22.1098  -13.0853 C   0  0  0  0  0  0  0  0  0  0  0  0
   25.9817  -20.8912  -12.5228 C   0  0  1  0  0  0  0  0  0  0  0  0
   24.5043  -21.0633  -12.4128 C   0  0  0  0  0  0  0  0  0  0  0  0
   24.0486  -21.6961  -11.4414 O   0  0  0  0  0  0  0  0  0  0  0  0
   23.6195  -20.5337  -13.3703 N   0  0  0  0  0  0  0  0  0  0  0  0
   22.1536  -20.6401  -13.2399 C   0  0  1  0  0  0  0  0  0  0  0  0
   21.5004  -19.4090  -13.7522 C   0  0  0  0  0  0  0  0  0  0  0  0
   20.0348  -19.4055  -13.6272 C   0  0  0  0  0  0  0  0  0  0  0  0
   19.4405  -20.2961  -13.0090 O   0  0  0  0  0  0  0  0  0  0  0  0
   21.6858  -21.8198  -13.9894 C   0  0  0  0  0  0  0  0  0  0  0  0
   22.0229  -22.1465  -15.1316 O   0  0  0  0  0  0  0  0  0  0  0  0
   19.2593  -18.3795  -14.2123 O   0  0  0  0  0  0  0  0  0  0  0  0
   20.7605  -22.6692  -13.3501 O   0  0  0  0  0  0  0  0  0  0  0  0
  2  1  1  6
  2  3  1  0
  4  2  1  0
  5  4  1  0
  5  7  1  0
  5  6  1  1
  7  8  2  0
  7  9  1  0
  9 13  1  0
  9 10  1  0
 11 10  1  0
 12 13  1  0
 12 11  1  0
 13 14  1  1
 15 14  2  0
 16 14  1  0
 17 16  1  0
 17 21  1  0
 17 18  1  6
 19 18  1  0
 20 19  2  0
 21 24  1  0
 22 21  2  0
 23 19  1  0
M  END
$$$$
