DTC.pdb
     RDKit          3D

 22 21  0  0  1  0  0  0  0  0999 V2000
    8.5186  -16.7864   16.5490 N   0  0  0  0  0  0  0  0  0  0  0  0
    9.1928  -17.7050   17.4466 C   0  0  1  0  0  0  0  0  0  0  0  0
   10.3770  -18.3449   16.7569 C   0  0  0  0  0  0  0  0  0  0  0  0
    9.8903  -19.0317   15.5356 C   0  0  0  0  0  0  0  0  0  0  0  0
    8.7224  -19.4832   15.4552 O   0  0  0  0  0  0  0  0  0  0  0  0
    9.5936  -16.9623   18.6621 C   0  0  0  0  0  0  0  0  0  0  0  0
   10.7109  -16.3416   18.7189 O   0  0  0  0  0  0  0  0  0  0  0  0
   10.7392  -19.1869   14.4424 O   0  0  0  0  0  0  0  0  0  0  0  0
    7.0668  -14.7492   20.9098 C   0  0  0  0  0  0  0  0  0  0  0  0
    7.9145  -15.6800   21.7582 C   0  0  1  0  0  0  0  0  0  0  0  0
    7.1164  -16.7308   22.1449 O   0  0  0  0  0  0  0  0  0  0  0  0
    9.1518  -16.1338   21.0112 C   0  0  2  0  0  0  0  0  0  0  0  0
    8.7958  -16.8804   19.8286 N   0  0  0  0  0  0  0  0  0  0  0  0
    9.9995  -16.8734   21.9425 C   0  0  0  0  0  0  0  0  0  0  0  0
   10.2517  -18.0826   21.7107 O   0  0  0  0  0  0  0  0  0  0  0  0
   10.5831  -16.3150   23.1326 N   0  0  0  0  0  0  0  0  0  0  0  0
   11.4573  -17.0540   23.9943 C   0  0  1  0  0  0  0  0  0  0  0  0
   12.8821  -17.0942   23.4940 C   0  0  0  0  0  0  0  0  0  0  0  0
   13.6369  -15.4721   23.4165 S   0  0  0  0  0  0  0  0  0  0  0  0
   11.3660  -16.5047   25.3653 C   0  0  0  0  0  0  0  0  0  0  0  0
   10.6943  -15.4776   25.6259 O   0  0  0  0  0  0  0  0  0  0  0  0
   12.0420  -17.1440   26.3882 O   0  0  0  0  0  0  0  0  0  0  0  0
  2  1  1  6
  3  2  1  0
  3  4  1  0
  4  5  2  0
  6  2  1  0
  6 13  1  0
  7  6  2  0
  8  4  1  0
 10  9  1  6
 11 10  1  0
 12 10  1  0
 12 14  1  0
 12 13  1  6
 14 15  2  0
 16 14  1  0
 16 17  1  0
 17 20  1  0
 17 18  1  6
 19 18  1  0
 20 22  1  0
 21 20  2  0
M  END
$$$$
