DTC.pdb
     RDKit          3D

 22 21  0  0  1  0  0  0  0  0999 V2000
   10.1745  -18.0294   16.9894 N   0  0  0  0  0  0  0  0  0  0  0  0
   10.5113  -18.6105   18.2751 C   0  0  1  0  0  0  0  0  0  0  0  0
   11.9606  -19.0425   18.2968 C   0  0  0  0  0  0  0  0  0  0  0  0
   12.1391  -20.1267   17.3004 C   0  0  0  0  0  0  0  0  0  0  0  0
   11.1923  -20.5176   16.5759 O   0  0  0  0  0  0  0  0  0  0  0  0
   10.2126  -17.6172   19.3305 C   0  0  0  0  0  0  0  0  0  0  0  0
   11.1522  -17.0333   19.9733 O   0  0  0  0  0  0  0  0  0  0  0  0
   13.3831  -20.7356   17.1537 O   0  0  0  0  0  0  0  0  0  0  0  0
    6.8340  -14.8253   21.7440 C   0  0  0  0  0  0  0  0  0  0  0  0
    7.1313  -15.9143   20.7287 C   0  0  1  0  0  0  0  0  0  0  0  0
    6.7677  -15.4379   19.4911 O   0  0  0  0  0  0  0  0  0  0  0  0
    8.5844  -16.3386   20.7844 C   0  0  2  0  0  0  0  0  0  0  0  0
    8.8999  -17.2424   19.7045 N   0  0  0  0  0  0  0  0  0  0  0  0
    8.8464  -16.8908   22.1109 C   0  0  0  0  0  0  0  0  0  0  0  0
    9.0063  -18.1310   22.2357 O   0  0  0  0  0  0  0  0  0  0  0  0
    8.9381  -16.1095   23.3151 N   0  0  0  0  0  0  0  0  0  0  0  0
    9.7898  -16.4626   24.4118 C   0  0  1  0  0  0  0  0  0  0  0  0
   11.2253  -16.6825   23.9961 C   0  0  0  0  0  0  0  0  0  0  0  0
   12.2541  -17.2730   25.3377 S   0  0  0  0  0  0  0  0  0  0  0  0
    9.6698  -15.4352   25.4700 C   0  0  0  0  0  0  0  0  0  0  0  0
    9.1530  -14.3132   25.2508 O   0  0  0  0  0  0  0  0  0  0  0  0
   10.1420  -15.7224   26.7376 O   0  0  0  0  0  0  0  0  0  0  0  0
  2  1  1  6
  3  2  1  0
  3  4  1  0
  4  5  2  0
  6  2  1  0
  6 13  1  0
  7  6  2  0
  8  4  1  0
 10  9  1  1
 11 10  1  0
 12 10  1  0
 12 14  1  0
 12 13  1  6
 14 15  2  0
 16 14  1  0
 16 17  1  0
 17 20  1  0
 17 18  1  6
 19 18  1  0
 20 22  1  0
 21 20  2  0
M  END
$$$$
