DTC.pdb
     RDKit          3D

 22 21  0  0  1  0  0  0  0  0999 V2000
    8.5911  -17.6984   16.5686 N   0  0  0  0  0  0  0  0  0  0  0  0
    7.7468  -17.4576   17.7232 C   0  0  1  0  0  0  0  0  0  0  0  0
    7.2488  -18.7658   18.2962 C   0  0  0  0  0  0  0  0  0  0  0  0
    6.6812  -19.5738   17.1893 C   0  0  0  0  0  0  0  0  0  0  0  0
    5.8987  -19.0756   16.3446 O   0  0  0  0  0  0  0  0  0  0  0  0
    8.5202  -16.6768   18.7141 C   0  0  0  0  0  0  0  0  0  0  0  0
    9.7772  -16.8611   18.8650 O   0  0  0  0  0  0  0  0  0  0  0  0
    7.0159  -20.9206   17.0717 O   0  0  0  0  0  0  0  0  0  0  0  0
    7.5482  -12.8246   19.6527 C   0  0  0  0  0  0  0  0  0  0  0  0
    7.9161  -13.6438   20.8767 C   0  0  1  0  0  0  0  0  0  0  0  0
    6.7513  -13.9325   21.5480 O   0  0  0  0  0  0  0  0  0  0  0  0
    8.6910  -14.8883   20.4951 C   0  0  2  0  0  0  0  0  0  0  0  0
    7.9484  -15.6897   19.5522 N   0  0  0  0  0  0  0  0  0  0  0  0
    9.0448  -15.5977   21.7218 C   0  0  0  0  0  0  0  0  0  0  0  0
    8.1850  -16.3293   22.2741 O   0  0  0  0  0  0  0  0  0  0  0  0
   10.3298  -15.5242   22.3638 N   0  0  0  0  0  0  0  0  0  0  0  0
   10.7244  -16.4039   23.4236 C   0  0  1  0  0  0  0  0  0  0  0  0
   10.5703  -17.8635   23.0660 C   0  0  0  0  0  0  0  0  0  0  0  0
   10.9928  -18.9581   24.4189 S   0  0  0  0  0  0  0  0  0  0  0  0
   12.1074  -16.0769   23.8363 C   0  0  0  0  0  0  0  0  0  0  0  0
   12.9419  -15.5903   23.0359 O   0  0  0  0  0  0  0  0  0  0  0  0
   12.4891  -16.3155   25.1438 O   0  0  0  0  0  0  0  0  0  0  0  0
  2  1  1  6
  3  2  1  0
  3  4  1  0
  4  5  2  0
  6  2  1  0
  6 13  1  0
  7  6  2  0
  8  4  1  0
 10  9  1  6
 11 10  1  0
 12 10  1  0
 12 14  1  0
 12 13  1  6
 14 15  2  0
 16 14  1  0
 16 17  1  0
 17 20  1  0
 17 18  1  6
 19 18  1  0
 20 22  1  0
 21 20  2  0
M  END
$$$$
