DTC.pdb
     RDKit          3D

 22 21  0  0  1  0  0  0  0  0999 V2000
    7.3640  -20.2140   22.3731 N   0  0  0  0  0  0  0  0  0  0  0  0
    6.5762  -19.1164   22.9012 C   0  0  1  0  0  0  0  0  0  0  0  0
    6.1065  -19.4297   24.3043 C   0  0  0  0  0  0  0  0  0  0  0  0
    5.5549  -20.8066   24.3150 C   0  0  0  0  0  0  0  0  0  0  0  0
    4.4226  -21.0660   23.8411 O   0  0  0  0  0  0  0  0  0  0  0  0
    7.3963  -17.8857   22.8526 C   0  0  0  0  0  0  0  0  0  0  0  0
    8.5725  -17.8551   23.3551 O   0  0  0  0  0  0  0  0  0  0  0  0
    6.3009  -21.8482   24.8615 O   0  0  0  0  0  0  0  0  0  0  0  0
    7.9120  -13.1556   21.2618 C   0  0  0  0  0  0  0  0  0  0  0  0
    7.0962  -14.4349   21.3133 C   0  0  1  0  0  0  0  0  0  0  0  0
    6.9755  -14.9020   20.0257 O   0  0  0  0  0  0  0  0  0  0  0  0
    7.7235  -15.4520   22.2444 C   0  0  2  0  0  0  0  0  0  0  0  0
    6.9587  -16.6757   22.2626 N   0  0  0  0  0  0  0  0  0  0  0  0
    7.8763  -14.8325   23.5581 C   0  0  0  0  0  0  0  0  0  0  0  0
    6.8964  -14.2338   24.0689 O   0  0  0  0  0  0  0  0  0  0  0  0
    9.0879  -14.8533   24.3329 N   0  0  0  0  0  0  0  0  0  0  0  0
    9.2003  -14.2400   25.6229 C   0  0  1  0  0  0  0  0  0  0  0  0
    8.1468  -14.7158   26.5954 C   0  0  0  0  0  0  0  0  0  0  0  0
    8.4039  -14.0958   28.2557 S   0  0  0  0  0  0  0  0  0  0  0  0
   10.5700  -14.4496   26.1423 C   0  0  0  0  0  0  0  0  0  0  0  0
   11.4048  -15.1692   25.5429 O   0  0  0  0  0  0  0  0  0  0  0  0
   10.9388  -13.8329   27.3238 O   0  0  0  0  0  0  0  0  0  0  0  0
  2  1  1  1
  3  2  1  0
  3  4  1  0
  4  5  2  0
  6  2  1  0
  6 13  1  0
  7  6  2  0
  8  4  1  0
 10  9  1  6
 11 10  1  0
 12 10  1  0
 12 14  1  0
 12 13  1  1
 14 15  2  0
 16 14  1  0
 16 17  1  0
 17 20  1  0
 17 18  1  1
 19 18  1  0
 20 22  1  0
 21 20  2  0
M  END
$$$$
