DTC.pdb
     RDKit          3D

 22 21  0  0  1  0  0  0  0  0999 V2000
   11.2073  -17.7135   17.4140 N   0  0  0  0  0  0  0  0  0  0  0  0
   10.2567  -18.1701   18.4100 C   0  0  1  0  0  0  0  0  0  0  0  0
   10.7073  -19.4844   19.0077 C   0  0  0  0  0  0  0  0  0  0  0  0
   11.0172  -20.4193   17.8987 C   0  0  0  0  0  0  0  0  0  0  0  0
   10.2435  -20.5608   16.9212 O   0  0  0  0  0  0  0  0  0  0  0  0
   10.1111  -17.1146   19.4368 C   0  0  0  0  0  0  0  0  0  0  0  0
   11.0967  -16.7729   20.1775 O   0  0  0  0  0  0  0  0  0  0  0  0
   12.1927  -21.1658   17.9291 O   0  0  0  0  0  0  0  0  0  0  0  0
    7.3481  -13.4567   21.4390 C   0  0  0  0  0  0  0  0  0  0  0  0
    7.4690  -14.6054   20.4537 C   0  0  1  0  0  0  0  0  0  0  0  0
    7.4171  -14.0726   19.1872 O   0  0  0  0  0  0  0  0  0  0  0  0
    8.7303  -15.4089   20.6953 C   0  0  2  0  0  0  0  0  0  0  0  0
    8.9033  -16.4164   19.6766 N   0  0  0  0  0  0  0  0  0  0  0  0
    8.6744  -15.9460   22.0523 C   0  0  0  0  0  0  0  0  0  0  0  0
    8.5548  -17.1865   22.2139 O   0  0  0  0  0  0  0  0  0  0  0  0
    8.7471  -15.1492   23.2476 N   0  0  0  0  0  0  0  0  0  0  0  0
    9.1051  -15.6894   24.5254 C   0  0  1  0  0  0  0  0  0  0  0  0
   10.3977  -16.4704   24.4938 C   0  0  0  0  0  0  0  0  0  0  0  0
   10.8610  -17.1116   26.1004 S   0  0  0  0  0  0  0  0  0  0  0  0
    9.1417  -14.5959   25.5217 C   0  0  0  0  0  0  0  0  0  0  0  0
    9.2791  -13.3952   25.1852 O   0  0  0  0  0  0  0  0  0  0  0  0
    9.0208  -14.9092   26.8631 O   0  0  0  0  0  0  0  0  0  0  0  0
  2  1  1  6
  3  2  1  0
  3  4  1  0
  4  5  2  0
  6  2  1  0
  6 13  1  0
  7  6  2  0
  8  4  1  0
 10  9  1  1
 11 10  1  0
 12 10  1  0
 12 14  1  0
 12 13  1  6
 14 15  2  0
 16 14  1  0
 16 17  1  0
 17 20  1  0
 17 18  1  6
 19 18  1  0
 20 22  1  0
 21 20  2  0
M  END
$$$$
