DTC.pdb
     RDKit          3D

 22 21  0  0  1  0  0  0  0  0999 V2000
   14.0174  -16.8985   20.2906 N   0  0  0  0  0  0  0  0  0  0  0  0
   14.0748  -17.3637   21.6633 C   0  0  1  0  0  0  0  0  0  0  0  0
   15.4615  -17.1618   22.2325 C   0  0  0  0  0  0  0  0  0  0  0  0
   16.4256  -17.9085   21.3881 C   0  0  0  0  0  0  0  0  0  0  0  0
   16.1211  -18.9995   20.8485 O   0  0  0  0  0  0  0  0  0  0  0  0
   13.0443  -16.6447   22.4448 C   0  0  0  0  0  0  0  0  0  0  0  0
   12.8018  -15.4059   22.2365 O   0  0  0  0  0  0  0  0  0  0  0  0
   17.7048  -17.3985   21.1797 O   0  0  0  0  0  0  0  0  0  0  0  0
    9.3911  -17.0823   22.5962 C   0  0  0  0  0  0  0  0  0  0  0  0
    9.8926  -17.2487   24.0194 C   0  0  1  0  0  0  0  0  0  0  0  0
    9.9325  -18.5963   24.2901 O   0  0  0  0  0  0  0  0  0  0  0  0
   11.2363  -16.5767   24.2130 C   0  0  2  0  0  0  0  0  0  0  0  0
   12.2645  -17.2519   23.4582 N   0  0  0  0  0  0  0  0  0  0  0  0
   11.5072  -16.5063   25.6464 C   0  0  0  0  0  0  0  0  0  0  0  0
   12.4192  -17.2220   26.1317 O   0  0  0  0  0  0  0  0  0  0  0  0
   10.7965  -15.6627   26.5695 N   0  0  0  0  0  0  0  0  0  0  0  0
   11.1196  -15.5843   27.9632 C   0  0  1  0  0  0  0  0  0  0  0  0
   10.3916  -14.4684   28.6750 C   0  0  0  0  0  0  0  0  0  0  0  0
   10.4138  -12.9297   27.7590 S   0  0  0  0  0  0  0  0  0  0  0  0
   10.8712  -16.8998   28.5938 C   0  0  0  0  0  0  0  0  0  0  0  0
   10.2544  -17.8158   27.9986 O   0  0  0  0  0  0  0  0  0  0  0  0
   11.3336  -17.1238   29.8776 O   0  0  0  0  0  0  0  0  0  0  0  0
  2  1  1  6
  3  2  1  0
  3  4  1  0
  4  5  2  0
  6  2  1  0
  6 13  1  0
  7  6  2  0
  8  4  1  0
 10  9  1  6
 11 10  1  0
 12 10  1  0
 12 14  1  0
 12 13  1  6
 14 15  2  0
 16 14  1  0
 16 17  1  0
 17 20  1  0
 17 18  1  1
 19 18  1  0
 20 22  1  0
 21 20  2  0
M  END
$$$$
