DTC.pdb
     RDKit          3D

 22 21  0  0  1  0  0  0  0  0999 V2000
   12.8758  -16.7299   20.0271 N   0  0  0  0  0  0  0  0  0  0  0  0
   12.9222  -17.2767   21.3698 C   0  0  1  0  0  0  0  0  0  0  0  0
   14.3395  -17.2632   21.8976 C   0  0  0  0  0  0  0  0  0  0  0  0
   15.1045  -18.3303   21.2075 C   0  0  0  0  0  0  0  0  0  0  0  0
   15.5295  -18.1834   20.0362 O   0  0  0  0  0  0  0  0  0  0  0  0
   12.0039  -16.4937   22.2261 C   0  0  0  0  0  0  0  0  0  0  0  0
   12.2517  -15.2728   22.5173 O   0  0  0  0  0  0  0  0  0  0  0  0
   15.3655  -19.5311   21.8632 O   0  0  0  0  0  0  0  0  0  0  0  0
    7.5249  -15.9671   24.3280 C   0  0  0  0  0  0  0  0  0  0  0  0
    8.4908  -16.7874   23.4920 C   0  0  1  0  0  0  0  0  0  0  0  0
    8.0431  -16.7574   22.1922 O   0  0  0  0  0  0  0  0  0  0  0  0
    9.9105  -16.2773   23.6299 C   0  0  2  0  0  0  0  0  0  0  0  0
   10.8098  -17.0171   22.7775 N   0  0  0  0  0  0  0  0  0  0  0  0
   10.2725  -16.3168   25.0443 C   0  0  0  0  0  0  0  0  0  0  0  0
   10.7921  -17.3608   25.5130 O   0  0  0  0  0  0  0  0  0  0  0  0
   10.0772  -15.2300   25.9661 N   0  0  0  0  0  0  0  0  0  0  0  0
   10.3512  -15.3369   27.3683 C   0  0  1  0  0  0  0  0  0  0  0  0
    9.9436  -14.1063   28.1438 C   0  0  0  0  0  0  0  0  0  0  0  0
   11.1247  -13.6640   29.4152 S   0  0  0  0  0  0  0  0  0  0  0  0
    9.7113  -16.5624   27.8960 C   0  0  0  0  0  0  0  0  0  0  0  0
   10.3084  -17.3382   28.6805 O   0  0  0  0  0  0  0  0  0  0  0  0
    8.4167  -16.8594   27.5116 O   0  0  0  0  0  0  0  0  0  0  0  0
  2  1  1  6
  3  2  1  0
  3  4  1  0
  4  5  2  0
  6  2  1  0
  6 13  1  0
  7  6  2  0
  8  4  1  0
 10  9  1  1
 11 10  1  0
 12 10  1  0
 12 14  1  0
 12 13  1  6
 14 15  2  0
 16 14  1  0
 16 17  1  0
 17 20  1  0
 17 18  1  1
 19 18  1  0
 20 22  1  0
 21 20  2  0
M  END
$$$$
