RDD.pdb
     RDKit          3D

 28 27  0  0  1  0  0  0  0  0999 V2000
    6.9385  -13.0283   23.4948 N   0  0  0  0  0  0  0  0  0  0  0  0
    7.8429  -13.8809   22.8107 C   0  0  0  0  0  0  0  0  0  0  0  0
    8.3746  -14.8449   23.4648 N   0  0  0  0  0  0  0  0  0  0  0  0
    8.1709  -13.6877   21.4306 N   0  0  0  0  0  0  0  0  0  0  0  0
    7.3266  -14.2938   20.3882 C   0  0  0  0  0  0  0  0  0  0  0  0
    7.5449  -13.5367   19.1238 C   0  0  0  0  0  0  0  0  0  0  0  0
    8.9501  -13.2544   18.7536 C   0  0  0  0  0  0  0  0  0  0  0  0
    9.5521  -14.0865   17.6698 C   0  0  2  0  0  0  0  0  0  0  0  0
    8.5560  -14.8277   16.9785 N   0  0  0  0  0  0  0  0  0  0  0  0
   10.6970  -14.8582   18.1955 C   0  0  0  0  0  0  0  0  0  0  0  0
   10.8011  -16.1051   17.8897 O   0  0  0  0  0  0  0  0  0  0  0  0
    8.8548  -15.6413   23.0318 N   0  0  0  0  0  0  0  0  0  0  0  0
   11.7314  -14.3849   19.0245 C   0  0  2  0  0  0  0  0  0  0  0  0
   12.9360  -15.1896   19.3342 C   0  0  0  0  0  0  0  0  0  0  0  0
   14.0848  -14.2243   19.1781 C   0  0  0  0  0  0  0  0  0  0  0  0
   15.3489  -14.9158   19.4915 O   0  0  0  0  0  0  0  0  0  0  0  0
   15.5957  -16.1235   19.1707 C   0  0  0  0  0  0  0  0  0  0  0  0
   12.8838  -15.6703   20.7224 O   0  0  0  0  0  0  0  0  0  0  0  0
   13.8631  -16.2894   21.1919 O   0  0  0  0  0  0  0  0  0  0  0  0
   16.3300  -14.1798   20.1882 N   0  0  0  0  0  0  0  0  0  0  0  0
   11.7628  -15.4705   21.5813 C   0  0  2  0  0  0  0  0  0  0  0  0
   11.3510  -16.3707   22.6222 C   0  0  0  0  0  0  0  0  0  0  0  0
   10.6394  -17.5884   22.0950 C   0  0  0  0  0  0  0  0  0  0  0  0
    9.1730  -17.4258   21.9915 O   0  0  0  0  0  0  0  0  0  0  0  0
    8.6439  -16.3320   22.2726 C   0  0  0  0  0  0  0  0  0  0  0  0
   12.5205  -16.7225   23.4608 O   0  0  0  0  0  0  0  0  0  0  0  0
   13.4545  -17.4161   22.9706 O   0  0  0  0  0  0  0  0  0  0  0  0
    8.3753  -18.4780   21.5858 O   0  0  0  0  0  0  0  0  0  0  0  0
  1  2  1  0
  2  3  2  0
  4  2  1  0
  5  4  1  0
  6  5  1  0
  7  6  1  0
  8 10  1  0
  8  7  1  0
  8  9  1  1
 10 12  1  0
 11 10  2  0
 12 13  1  0
 13 14  1  1
 13 17  1  0
 15 19  1  0
 15 14  1  0
 16 15  2  0
 17 18  2  0
 17 20  1  0
 20 21  1  0
 21 25  1  0
 21 22  1  1
 23 22  1  0
 24 23  2  0
 25 28  1  0
 26 25  2  0
 27 23  1  0
M  END
$$$$
