RDD.pdb
     RDKit          3D

 28 27  0  0  1  0  0  0  0  0999 V2000
    9.0023  -15.3510   17.9597 N   0  0  0  0  0  0  0  0  0  0  0  0
    8.5320  -14.1525   17.3636 C   0  0  0  0  0  0  0  0  0  0  0  0
    8.8925  -13.8951   16.1621 N   0  0  0  0  0  0  0  0  0  0  0  0
    7.6816  -13.2394   18.0652 N   0  0  0  0  0  0  0  0  0  0  0  0
    7.0017  -13.6746   19.2961 C   0  0  0  0  0  0  0  0  0  0  0  0
    7.9283  -13.4406   20.4390 C   0  0  0  0  0  0  0  0  0  0  0  0
    7.4577  -13.8734   21.7741 C   0  0  0  0  0  0  0  0  0  0  0  0
    7.7227  -15.2895   22.1666 C   0  0  2  0  0  0  0  0  0  0  0  0
    6.5784  -15.8775   22.7700 N   0  0  0  0  0  0  0  0  0  0  0  0
    8.9852  -15.3798   22.9285 C   0  0  0  0  0  0  0  0  0  0  0  0
    9.2213  -14.5100   23.8487 O   0  0  0  0  0  0  0  0  0  0  0  0
    8.5898  -13.0705   15.6321 N   0  0  0  0  0  0  0  0  0  0  0  0
   10.0070  -16.3345   22.7691 C   0  0  1  0  0  0  0  0  0  0  0  0
   11.2587  -16.3023   23.5609 C   0  0  0  0  0  0  0  0  0  0  0  0
   11.1260  -17.4564   24.5234 C   0  0  0  0  0  0  0  0  0  0  0  0
   12.0540  -17.2592   25.6522 O   0  0  0  0  0  0  0  0  0  0  0  0
   12.8361  -16.2598   25.7619 C   0  0  0  0  0  0  0  0  0  0  0  0
   12.4196  -16.5232   22.6866 O   0  0  0  0  0  0  0  0  0  0  0  0
   12.4737  -17.5622   21.9935 O   0  0  0  0  0  0  0  0  0  0  0  0
   12.0616  -18.2465   26.6596 N   0  0  0  0  0  0  0  0  0  0  0  0
   13.5083  -15.6079   22.5800 C   0  0  1  0  0  0  0  0  0  0  0  0
   14.6755  -15.8063   21.7667 C   0  0  0  0  0  0  0  0  0  0  0  0
   14.9715  -14.6321   20.8718 C   0  0  0  0  0  0  0  0  0  0  0  0
   14.2733  -14.6825   19.5689 O   0  0  0  0  0  0  0  0  0  0  0  0
   13.5414  -15.6528   19.2889 C   0  0  0  0  0  0  0  0  0  0  0  0
   15.8256  -16.1569   22.6322 O   0  0  0  0  0  0  0  0  0  0  0  0
   16.9396  -16.4358   22.1080 O   0  0  0  0  0  0  0  0  0  0  0  0
   14.4232  -13.6619   18.6503 O   0  0  0  0  0  0  0  0  0  0  0  0
  1  2  1  0
  2  3  2  0
  4  2  1  0
  5  4  1  0
  6  5  1  0
  7  6  1  0
  8 10  1  0
  8  7  1  0
  8  9  1  1
 10 12  1  0
 11 10  2  0
 12 13  1  0
 13 14  1  6
 13 17  1  0
 15 19  1  0
 15 14  1  0
 16 15  2  0
 17 18  2  0
 17 20  1  0
 20 21  1  0
 21 25  1  0
 21 22  1  1
 23 22  1  0
 24 23  2  0
 25 28  1  0
 26 25  2  0
 27 23  1  0
M  END
$$$$
