RDD.pdb
     RDKit          3D

 28 27  0  0  1  0  0  0  0  0999 V2000
    7.8351  -13.9678   20.4607 N   0  0  0  0  0  0  0  0  0  0  0  0
    7.6271  -12.8528   19.6084 C   0  0  0  0  0  0  0  0  0  0  0  0
    6.5702  -12.1507   19.7815 N   0  0  0  0  0  0  0  0  0  0  0  0
    8.5547  -12.5045   18.5752 N   0  0  0  0  0  0  0  0  0  0  0  0
    9.2940  -13.5646   17.8706 C   0  0  0  0  0  0  0  0  0  0  0  0
    8.5646  -14.8471   18.0771 C   0  0  0  0  0  0  0  0  0  0  0  0
    9.3373  -15.9617   18.6704 C   0  0  0  0  0  0  0  0  0  0  0  0
   10.6759  -16.2570   18.0785 C   0  0  2  0  0  0  0  0  0  0  0  0
   10.5591  -16.6595   16.7206 N   0  0  0  0  0  0  0  0  0  0  0  0
   11.4387  -17.1584   18.9663 C   0  0  0  0  0  0  0  0  0  0  0  0
   11.4126  -16.9500   20.2372 O   0  0  0  0  0  0  0  0  0  0  0  0
    6.2963  -11.3622   19.1851 N   0  0  0  0  0  0  0  0  0  0  0  0
   12.2250  -18.2614   18.5843 C   0  0  1  0  0  0  0  0  0  0  0  0
   12.9859  -19.0745   19.5612 C   0  0  0  0  0  0  0  0  0  0  0  0
   13.7765  -20.0402   18.7138 C   0  0  0  0  0  0  0  0  0  0  0  0
   12.8518  -20.9813   18.0553 O   0  0  0  0  0  0  0  0  0  0  0  0
   12.8877  -21.2596   16.8128 C   0  0  0  0  0  0  0  0  0  0  0  0
   13.9087  -18.2215   20.3240 O   0  0  0  0  0  0  0  0  0  0  0  0
   14.4075  -17.2159   19.7736 O   0  0  0  0  0  0  0  0  0  0  0  0
   11.8768  -21.5994   18.8659 N   0  0  0  0  0  0  0  0  0  0  0  0
   14.2770  -18.4767   21.6780 C   0  0  2  0  0  0  0  0  0  0  0  0
   15.0283  -17.5797   22.5112 C   0  0  0  0  0  0  0  0  0  0  0  0
   14.5514  -17.5698   23.9394 C   0  0  0  0  0  0  0  0  0  0  0  0
   13.2547  -16.8850   24.1319 O   0  0  0  0  0  0  0  0  0  0  0  0
   12.6929  -16.3275   23.1680 C   0  0  0  0  0  0  0  0  0  0  0  0
   16.4711  -17.8982   22.4029 O   0  0  0  0  0  0  0  0  0  0  0  0
   16.8374  -18.9302   21.7749 O   0  0  0  0  0  0  0  0  0  0  0  0
   12.6533  -16.8534   25.3750 O   0  0  0  0  0  0  0  0  0  0  0  0
  1  2  1  0
  2  3  2  0
  4  2  1  0
  5  4  1  0
  6  5  1  0
  7  6  1  0
  8 10  1  0
  8  7  1  0
  8  9  1  6
 10 12  1  0
 11 10  2  0
 12 13  1  0
 13 14  1  1
 13 17  1  0
 15 19  1  0
 15 14  1  0
 16 15  2  0
 17 18  2  0
 17 20  1  0
 20 21  1  0
 21 25  1  0
 21 22  1  6
 23 22  1  0
 24 23  2  0
 25 28  1  0
 26 25  2  0
 27 23  1  0
M  END
$$$$
