RDD.pdb
     RDKit          3D

 28 27  0  0  1  0  0  0  0  0999 V2000
    7.0420  -14.2487   13.9159 N   0  0  0  0  0  0  0  0  0  0  0  0
    7.9339  -13.1685   14.1405 C   0  0  0  0  0  0  0  0  0  0  0  0
    8.3208  -12.4859   13.1285 N   0  0  0  0  0  0  0  0  0  0  0  0
    8.4052  -12.8337   15.4502 N   0  0  0  0  0  0  0  0  0  0  0  0
    7.7919  -13.4656   16.6298 C   0  0  0  0  0  0  0  0  0  0  0  0
    8.0666  -14.9282   16.5614 C   0  0  0  0  0  0  0  0  0  0  0  0
    9.0136  -15.4730   17.5603 C   0  0  0  0  0  0  0  0  0  0  0  0
    9.2102  -16.9530   17.5802 C   0  0  2  0  0  0  0  0  0  0  0  0
    8.0446  -17.6316   17.1326 N   0  0  0  0  0  0  0  0  0  0  0  0
    9.7556  -17.3776   18.8858 C   0  0  0  0  0  0  0  0  0  0  0  0
    9.8172  -16.5194   19.8443 O   0  0  0  0  0  0  0  0  0  0  0  0
    8.9941  -11.7133   13.1760 N   0  0  0  0  0  0  0  0  0  0  0  0
   10.2386  -18.6541   19.2300 C   0  0  1  0  0  0  0  0  0  0  0  0
   10.7572  -18.9727   20.5806 C   0  0  0  0  0  0  0  0  0  0  0  0
   10.0197  -20.2261   20.9818 C   0  0  0  0  0  0  0  0  0  0  0  0
    8.6032  -19.9003   21.2297 O   0  0  0  0  0  0  0  0  0  0  0  0
    8.2085  -19.0847   22.1250 C   0  0  0  0  0  0  0  0  0  0  0  0
   12.1995  -19.2499   20.5196 O   0  0  0  0  0  0  0  0  0  0  0  0
   12.8144  -19.5233   21.5732 O   0  0  0  0  0  0  0  0  0  0  0  0
    7.6435  -20.5399   20.4174 N   0  0  0  0  0  0  0  0  0  0  0  0
   12.9539  -19.2244   19.3094 C   0  0  1  0  0  0  0  0  0  0  0  0
   14.3883  -19.2235   19.2319 C   0  0  0  0  0  0  0  0  0  0  0  0
   14.9380  -17.9840   18.5770 C   0  0  0  0  0  0  0  0  0  0  0  0
   16.4082  -17.9950   18.4159 O   0  0  0  0  0  0  0  0  0  0  0  0
   17.0119  -19.0750   18.2590 C   0  0  0  0  0  0  0  0  0  0  0  0
   14.9550  -19.4433   20.5829 O   0  0  0  0  0  0  0  0  0  0  0  0
   14.5074  -18.7850   21.5627 O   0  0  0  0  0  0  0  0  0  0  0  0
   17.1273  -16.8159   18.4384 O   0  0  0  0  0  0  0  0  0  0  0  0
  1  2  1  0
  2  3  2  0
  4  2  1  0
  5  4  1  0
  6  5  1  0
  7  6  1  0
  8 10  1  0
  8  7  1  0
  8  9  1  1
 10 12  1  0
 11 10  2  0
 12 13  1  0
 13 14  1  1
 13 17  1  0
 15 19  1  0
 15 14  1  0
 16 15  2  0
 17 18  2  0
 17 20  1  0
 20 21  1  0
 21 25  1  0
 21 22  1  1
 23 22  1  0
 24 23  2  0
 25 28  1  0
 26 25  2  0
 27 23  1  0
M  END
$$$$
