RDD.pdb
     RDKit          3D

 28 27  0  0  1  0  0  0  0  0999 V2000
    7.1517  -13.2333   18.8778 N   0  0  0  0  0  0  0  0  0  0  0  0
    8.1678  -13.9190   18.1635 C   0  0  0  0  0  0  0  0  0  0  0  0
    9.0774  -13.2225   17.5914 N   0  0  0  0  0  0  0  0  0  0  0  0
    8.1952  -15.3471   18.0671 N   0  0  0  0  0  0  0  0  0  0  0  0
    7.9852  -16.1640   19.2735 C   0  0  0  0  0  0  0  0  0  0  0  0
    8.6093  -15.4519   20.4237 C   0  0  0  0  0  0  0  0  0  0  0  0
    8.6209  -16.1672   21.7196 C   0  0  0  0  0  0  0  0  0  0  0  0
    9.2038  -15.4492   22.8919 C   0  0  2  0  0  0  0  0  0  0  0  0
   10.5197  -14.9921   22.6112 N   0  0  0  0  0  0  0  0  0  0  0  0
    9.0374  -16.2558   24.1184 C   0  0  0  0  0  0  0  0  0  0  0  0
    9.7017  -15.9306   25.1729 O   0  0  0  0  0  0  0  0  0  0  0  0
    9.8091  -13.6122   16.9871 N   0  0  0  0  0  0  0  0  0  0  0  0
    8.2118  -17.3830   24.2882 C   0  0  1  0  0  0  0  0  0  0  0  0
    7.9557  -17.9910   25.6146 C   0  0  0  0  0  0  0  0  0  0  0  0
    6.8216  -18.9564   25.3744 C   0  0  0  0  0  0  0  0  0  0  0  0
    5.6983  -18.2413   24.7412 O   0  0  0  0  0  0  0  0  0  0  0  0
    5.6510  -16.9761   24.6007 C   0  0  0  0  0  0  0  0  0  0  0  0
    9.1409  -18.7301   26.0729 O   0  0  0  0  0  0  0  0  0  0  0  0
    9.5337  -18.5852   27.2509 O   0  0  0  0  0  0  0  0  0  0  0  0
    4.6218  -19.0216   24.2700 N   0  0  0  0  0  0  0  0  0  0  0  0
    9.8840  -19.6178   25.2397 C   0  0  1  0  0  0  0  0  0  0  0  0
   11.3158  -19.6375   25.1266 C   0  0  0  0  0  0  0  0  0  0  0  0
   11.8605  -18.4467   24.3832 C   0  0  0  0  0  0  0  0  0  0  0  0
   13.3363  -18.4250   24.2884 O   0  0  0  0  0  0  0  0  0  0  0  0
   14.0008  -17.6926   25.0483 C   0  0  0  0  0  0  0  0  0  0  0  0
   11.9148  -19.7807   26.4739 O   0  0  0  0  0  0  0  0  0  0  0  0
   13.1283  -20.1098   26.5862 O   0  0  0  0  0  0  0  0  0  0  0  0
   13.9935  -19.2102   23.3614 O   0  0  0  0  0  0  0  0  0  0  0  0
  1  2  1  0
  2  3  2  0
  4  2  1  0
  5  4  1  0
  6  5  1  0
  7  6  1  0
  8 10  1  0
  8  7  1  0
  8  9  1  6
 10 12  1  0
 11 10  2  0
 12 13  1  0
 13 14  1  1
 13 17  1  0
 15 19  1  0
 15 14  1  0
 16 15  2  0
 17 18  2  0
 17 20  1  0
 20 21  1  0
 21 25  1  0
 21 22  1  6
 23 22  1  0
 24 23  2  0
 25 28  1  0
 26 25  2  0
 27 23  1  0
M  END
$$$$
