RDD.pdb
     RDKit          3D

 28 27  0  0  1  0  0  0  0  0999 V2000
    5.1926  -13.2200   16.6362 N   0  0  0  0  0  0  0  0  0  0  0  0
    6.3041  -13.1603   17.5158 C   0  0  0  0  0  0  0  0  0  0  0  0
    6.2629  -12.3224   18.4832 N   0  0  0  0  0  0  0  0  0  0  0  0
    7.4518  -13.9990   17.3458 N   0  0  0  0  0  0  0  0  0  0  0  0
    7.8300  -14.9426   18.4103 C   0  0  0  0  0  0  0  0  0  0  0  0
    7.8248  -14.2018   19.7028 C   0  0  0  0  0  0  0  0  0  0  0  0
    8.3155  -14.9363   20.8906 C   0  0  0  0  0  0  0  0  0  0  0  0
    9.4783  -15.8526   20.6959 C   0  0  2  0  0  0  0  0  0  0  0  0
    9.1633  -16.8945   19.7823 N   0  0  0  0  0  0  0  0  0  0  0  0
   10.0235  -16.2700   22.0039 C   0  0  0  0  0  0  0  0  0  0  0  0
   10.2553  -15.3719   22.8977 O   0  0  0  0  0  0  0  0  0  0  0  0
    7.0136  -12.1966   19.1710 N   0  0  0  0  0  0  0  0  0  0  0  0
   10.3369  -17.5792   22.4148 C   0  0  1  0  0  0  0  0  0  0  0  0
   11.0300  -17.8697   23.6915 C   0  0  0  0  0  0  0  0  0  0  0  0
   10.4626  -19.1951   24.1357 C   0  0  0  0  0  0  0  0  0  0  0  0
   11.1212  -19.6127   25.3871 O   0  0  0  0  0  0  0  0  0  0  0  0
   11.8945  -20.6207   25.4802 C   0  0  0  0  0  0  0  0  0  0  0  0
   12.4762  -18.0056   23.4659 O   0  0  0  0  0  0  0  0  0  0  0  0
   12.8828  -18.5293   22.4060 O   0  0  0  0  0  0  0  0  0  0  0  0
   10.8673  -18.8380   26.5382 N   0  0  0  0  0  0  0  0  0  0  0  0
   13.4615  -17.5693   24.4002 C   0  0  2  0  0  0  0  0  0  0  0  0
   14.8411  -17.3199   24.0874 C   0  0  0  0  0  0  0  0  0  0  0  0
   15.0485  -16.0251   23.3474 C   0  0  0  0  0  0  0  0  0  0  0  0
   15.2663  -16.1952   21.8944 O   0  0  0  0  0  0  0  0  0  0  0  0
   15.4731  -15.1995   21.1724 C   0  0  0  0  0  0  0  0  0  0  0  0
   15.6488  -17.3940   25.3271 O   0  0  0  0  0  0  0  0  0  0  0  0
   15.0706  -17.5113   26.4432 O   0  0  0  0  0  0  0  0  0  0  0  0
   15.2424  -17.4519   21.3217 O   0  0  0  0  0  0  0  0  0  0  0  0
  1  2  1  0
  2  3  2  0
  4  2  1  0
  5  4  1  0
  6  5  1  0
  7  6  1  0
  8 10  1  0
  8  7  1  0
  8  9  1  1
 10 12  1  0
 11 10  2  0
 12 13  1  0
 13 14  1  1
 13 17  1  0
 15 19  1  0
 15 14  1  0
 16 15  2  0
 17 18  2  0
 17 20  1  0
 20 21  1  0
 21 25  1  0
 21 22  1  6
 23 22  1  0
 24 23  2  0
 25 28  1  0
 26 25  2  0
 27 23  1  0
M  END
$$$$
