RDD.pdb
     RDKit          3D

 28 27  0  0  1  0  0  0  0  0999 V2000
    8.5312  -13.2046   17.6902 N   0  0  0  0  0  0  0  0  0  0  0  0
    8.1150  -12.6840   18.9426 C   0  0  0  0  0  0  0  0  0  0  0  0
    8.5629  -11.5382   19.2979 N   0  0  0  0  0  0  0  0  0  0  0  0
    7.2243  -13.4010   19.8039 N   0  0  0  0  0  0  0  0  0  0  0  0
    7.7673  -14.3597   20.7801 C   0  0  0  0  0  0  0  0  0  0  0  0
    8.3390  -15.5094   20.0244 C   0  0  0  0  0  0  0  0  0  0  0  0
    8.9357  -16.6003   20.8275 C   0  0  0  0  0  0  0  0  0  0  0  0
    8.9695  -16.4189   22.3093 C   0  0  2  0  0  0  0  0  0  0  0  0
    8.8528  -15.0471   22.6611 N   0  0  0  0  0  0  0  0  0  0  0  0
   10.1171  -17.1486   22.8864 C   0  0  0  0  0  0  0  0  0  0  0  0
   10.1218  -18.4360   22.8445 O   0  0  0  0  0  0  0  0  0  0  0  0
    8.3177  -11.0691   20.1767 N   0  0  0  0  0  0  0  0  0  0  0  0
   11.2532  -16.5930   23.5041 C   0  0  2  0  0  0  0  0  0  0  0  0
   12.2752  -17.4209   24.1856 C   0  0  0  0  0  0  0  0  0  0  0  0
   13.4780  -16.5175   24.2994 C   0  0  0  0  0  0  0  0  0  0  0  0
   14.1093  -16.3767   22.9743 O   0  0  0  0  0  0  0  0  0  0  0  0
   13.8437  -17.1250   21.9784 C   0  0  0  0  0  0  0  0  0  0  0  0
   11.8131  -17.7949   25.5301 O   0  0  0  0  0  0  0  0  0  0  0  0
   10.7078  -17.3743   25.9353 O   0  0  0  0  0  0  0  0  0  0  0  0
   15.0610  -15.3470   22.8205 N   0  0  0  0  0  0  0  0  0  0  0  0
   12.5634  -18.6226   26.4168 C   0  0  2  0  0  0  0  0  0  0  0  0
   12.1042  -19.0904   27.6949 C   0  0  0  0  0  0  0  0  0  0  0  0
   10.7526  -19.7504   27.6252 C   0  0  0  0  0  0  0  0  0  0  0  0
   10.8120  -21.2237   27.5100 O   0  0  0  0  0  0  0  0  0  0  0  0
   11.9154  -21.8037   27.4702 C   0  0  0  0  0  0  0  0  0  0  0  0
   13.1308  -19.9744   28.2941 O   0  0  0  0  0  0  0  0  0  0  0  0
   14.0945  -20.3811   27.5873 O   0  0  0  0  0  0  0  0  0  0  0  0
    9.6527  -21.9717   27.4441 O   0  0  0  0  0  0  0  0  0  0  0  0
  1  2  1  0
  2  3  2  0
  4  2  1  0
  5  4  1  0
  6  5  1  0
  7  6  1  0
  8 10  1  0
  8  7  1  0
  8  9  1  6
 10 12  1  0
 11 10  2  0
 12 13  1  0
 13 14  1  6
 13 17  1  0
 15 19  1  0
 15 14  1  0
 16 15  2  0
 17 18  2  0
 17 20  1  0
 20 21  1  0
 21 25  1  0
 21 22  1  6
 23 22  1  0
 24 23  2  0
 25 28  1  0
 26 25  2  0
 27 23  1  0
M  END
$$$$
