RDD.pdb
     RDKit          3D

 28 27  0  0  1  0  0  0  0  0999 V2000
    7.1764  -12.0510   18.7177 N   0  0  0  0  0  0  0  0  0  0  0  0
    8.4762  -12.6194   18.7337 C   0  0  0  0  0  0  0  0  0  0  0  0
    9.4090  -12.0084   18.1040 N   0  0  0  0  0  0  0  0  0  0  0  0
    8.7613  -13.8412   19.4230 N   0  0  0  0  0  0  0  0  0  0  0  0
    7.6573  -14.7326   19.8148 C   0  0  0  0  0  0  0  0  0  0  0  0
    8.2492  -15.9452   20.4464 C   0  0  0  0  0  0  0  0  0  0  0  0
    9.5073  -15.7525   21.2022 C   0  0  0  0  0  0  0  0  0  0  0  0
   10.0885  -16.9498   21.8792 C   0  0  2  0  0  0  0  0  0  0  0  0
    9.5882  -18.1531   21.3125 N   0  0  0  0  0  0  0  0  0  0  0  0
    9.9676  -16.8156   23.3455 C   0  0  0  0  0  0  0  0  0  0  0  0
   10.7520  -16.0021   23.9636 O   0  0  0  0  0  0  0  0  0  0  0  0
   10.3443  -12.3960   17.9386 N   0  0  0  0  0  0  0  0  0  0  0  0
    9.0675  -17.4933   24.1890 C   0  0  1  0  0  0  0  0  0  0  0  0
    9.0517  -17.2998   25.6577 C   0  0  0  0  0  0  0  0  0  0  0  0
    7.5872  -17.2617   26.0174 C   0  0  0  0  0  0  0  0  0  0  0  0
    7.1072  -15.8686   25.9613 O   0  0  0  0  0  0  0  0  0  0  0  0
    7.8642  -14.8647   25.7572 C   0  0  0  0  0  0  0  0  0  0  0  0
    9.6925  -18.4404   26.3281 O   0  0  0  0  0  0  0  0  0  0  0  0
    9.0930  -19.5364   26.3762 O   0  0  0  0  0  0  0  0  0  0  0  0
    5.7253  -15.6555   26.1471 N   0  0  0  0  0  0  0  0  0  0  0  0
   10.9794  -18.3709   26.9390 C   0  0  1  0  0  0  0  0  0  0  0  0
   11.6167  -19.4483   27.6436 C   0  0  0  0  0  0  0  0  0  0  0  0
   13.1193  -19.3511   27.6259 C   0  0  0  0  0  0  0  0  0  0  0  0
   13.7079  -19.4365   26.2717 O   0  0  0  0  0  0  0  0  0  0  0  0
   12.9698  -19.5851   25.2774 C   0  0  0  0  0  0  0  0  0  0  0  0
   11.0750  -19.5255   29.0203 O   0  0  0  0  0  0  0  0  0  0  0  0
   10.3571  -18.5862   29.4626 O   0  0  0  0  0  0  0  0  0  0  0  0
   15.0750  -19.3546   26.0922 O   0  0  0  0  0  0  0  0  0  0  0  0
  1  2  1  0
  2  3  2  0
  4  2  1  0
  5  4  1  0
  6  5  1  0
  7  6  1  0
  8 10  1  0
  8  7  1  0
  8  9  1  6
 10 12  1  0
 11 10  2  0
 12 13  1  0
 13 14  1  1
 13 17  1  0
 15 19  1  0
 15 14  1  0
 16 15  2  0
 17 18  2  0
 17 20  1  0
 20 21  1  0
 21 25  1  0
 21 22  1  1
 23 22  1  0
 24 23  2  0
 25 28  1  0
 26 25  2  0
 27 23  1  0
M  END
$$$$
