RDD.pdb
     RDKit          3D

 28 27  0  0  1  0  0  0  0  0999 V2000
    7.4421  -12.1934   19.7431 N   0  0  0  0  0  0  0  0  0  0  0  0
    7.2909  -13.2514   18.8100 C   0  0  0  0  0  0  0  0  0  0  0  0
    7.7484  -13.0809   17.6262 N   0  0  0  0  0  0  0  0  0  0  0  0
    6.6462  -14.4817   19.1562 N   0  0  0  0  0  0  0  0  0  0  0  0
    7.4584  -15.6524   19.5258 C   0  0  0  0  0  0  0  0  0  0  0  0
    8.8473  -15.1820   19.7892 C   0  0  0  0  0  0  0  0  0  0  0  0
    9.8153  -16.2001   20.2558 C   0  0  0  0  0  0  0  0  0  0  0  0
    9.9781  -17.4243   19.4165 C   0  0  2  0  0  0  0  0  0  0  0  0
    9.0095  -18.4087   19.7516 N   0  0  0  0  0  0  0  0  0  0  0  0
   11.3887  -17.8633   19.4229 C   0  0  0  0  0  0  0  0  0  0  0  0
   11.7379  -18.8267   20.2033 O   0  0  0  0  0  0  0  0  0  0  0  0
    7.7700  -13.8098   16.9046 N   0  0  0  0  0  0  0  0  0  0  0  0
   12.4447  -17.3397   18.6537 C   0  0  2  0  0  0  0  0  0  0  0  0
   13.8478  -17.7858   18.8177 C   0  0  0  0  0  0  0  0  0  0  0  0
   14.5742  -17.1869   17.6389 C   0  0  0  0  0  0  0  0  0  0  0  0
   14.3598  -18.0349   16.4518 O   0  0  0  0  0  0  0  0  0  0  0  0
   14.0482  -19.2688   16.5078 C   0  0  0  0  0  0  0  0  0  0  0  0
   14.4100  -17.2487   20.0653 O   0  0  0  0  0  0  0  0  0  0  0  0
   14.3742  -16.0161   20.2708 O   0  0  0  0  0  0  0  0  0  0  0  0
   14.5137  -17.4258   15.1889 N   0  0  0  0  0  0  0  0  0  0  0  0
   15.0056  -18.0632   21.0733 C   0  0  1  0  0  0  0  0  0  0  0  0
   15.4426  -17.5958   22.3593 C   0  0  0  0  0  0  0  0  0  0  0  0
   14.7592  -18.3003   23.5012 C   0  0  0  0  0  0  0  0  0  0  0  0
   14.6280  -17.4740   24.7208 O   0  0  0  0  0  0  0  0  0  0  0  0
   15.2009  -16.3684   24.7915 C   0  0  0  0  0  0  0  0  0  0  0  0
   16.9186  -17.6915   22.4429 O   0  0  0  0  0  0  0  0  0  0  0  0
   17.5146  -17.2679   23.4720 O   0  0  0  0  0  0  0  0  0  0  0  0
   13.8746  -17.9144   25.7915 O   0  0  0  0  0  0  0  0  0  0  0  0
  1  2  1  0
  2  3  2  0
  4  2  1  0
  5  4  1  0
  6  5  1  0
  7  6  1  0
  8 10  1  0
  8  7  1  0
  8  9  1  1
 10 12  1  0
 11 10  2  0
 12 13  1  0
 13 14  1  1
 13 17  1  0
 15 19  1  0
 15 14  1  0
 16 15  2  0
 17 18  2  0
 17 20  1  0
 20 21  1  0
 21 25  1  0
 21 22  1  6
 23 22  1  0
 24 23  2  0
 25 28  1  0
 26 25  2  0
 27 23  1  0
M  END
$$$$
