RDD.pdb
     RDKit          3D

 28 27  0  0  1  0  0  0  0  0999 V2000
    7.4615  -15.5087   14.8001 N   0  0  0  0  0  0  0  0  0  0  0  0
    7.3394  -14.1041   14.9575 C   0  0  0  0  0  0  0  0  0  0  0  0
    6.9979  -13.4105   13.9367 N   0  0  0  0  0  0  0  0  0  0  0  0
    7.5889  -13.4567   16.2097 N   0  0  0  0  0  0  0  0  0  0  0  0
    7.1359  -14.0875   17.4602 C   0  0  0  0  0  0  0  0  0  0  0  0
    7.4041  -13.1377   18.5762 C   0  0  0  0  0  0  0  0  0  0  0  0
    8.0126  -13.7065   19.7999 C   0  0  0  0  0  0  0  0  0  0  0  0
    9.3111  -14.4275   19.6462 C   0  0  2  0  0  0  0  0  0  0  0  0
    9.2253  -15.4312   18.6438 N   0  0  0  0  0  0  0  0  0  0  0  0
    9.8136  -14.8604   20.9663 C   0  0  0  0  0  0  0  0  0  0  0  0
    9.8815  -13.9980   21.9206 O   0  0  0  0  0  0  0  0  0  0  0  0
    6.9218  -12.3875   13.9324 N   0  0  0  0  0  0  0  0  0  0  0  0
   10.2475  -16.1493   21.3291 C   0  0  1  0  0  0  0  0  0  0  0  0
   10.7942  -16.4581   22.6708 C   0  0  0  0  0  0  0  0  0  0  0  0
   10.2280  -17.8158   23.0055 C   0  0  0  0  0  0  0  0  0  0  0  0
    8.7784  -17.6939   23.2461 O   0  0  0  0  0  0  0  0  0  0  0  0
    8.2195  -16.6413   23.6958 C   0  0  0  0  0  0  0  0  0  0  0  0
   12.2610  -16.5376   22.6166 O   0  0  0  0  0  0  0  0  0  0  0  0
   12.9034  -16.7071   23.6757 O   0  0  0  0  0  0  0  0  0  0  0  0
    7.9803  -18.8200   22.9552 N   0  0  0  0  0  0  0  0  0  0  0  0
   13.0096  -16.4301   21.4073 C   0  0  2  0  0  0  0  0  0  0  0  0
   14.2477  -15.7159   21.2649 C   0  0  0  0  0  0  0  0  0  0  0  0
   14.0624  -14.3287   20.7094 C   0  0  0  0  0  0  0  0  0  0  0  0
   14.7727  -14.0960   19.4331 O   0  0  0  0  0  0  0  0  0  0  0  0
   14.2426  -14.4257   18.3535 C   0  0  0  0  0  0  0  0  0  0  0  0
   14.9657  -15.7109   22.5607 O   0  0  0  0  0  0  0  0  0  0  0  0
   16.1745  -15.3498   22.6035 O   0  0  0  0  0  0  0  0  0  0  0  0
   16.0257  -13.5148   19.4210 O   0  0  0  0  0  0  0  0  0  0  0  0
  1  2  1  0
  2  3  2  0
  4  2  1  0
  5  4  1  0
  6  5  1  0
  7  6  1  0
  8 10  1  0
  8  7  1  0
  8  9  1  6
 10 12  1  0
 11 10  2  0
 12 13  1  0
 13 14  1  1
 13 17  1  0
 15 19  1  0
 15 14  1  0
 16 15  2  0
 17 18  2  0
 17 20  1  0
 20 21  1  0
 21 25  1  0
 21 22  1  6
 23 22  1  0
 24 23  2  0
 25 28  1  0
 26 25  2  0
 27 23  1  0
M  END
$$$$
