RDD.pdb
     RDKit          3D

 28 27  0  0  1  0  0  0  0  0999 V2000
    6.9795  -12.8642   20.4189 N   0  0  0  0  0  0  0  0  0  0  0  0
    8.2957  -12.4520   20.0864 C   0  0  0  0  0  0  0  0  0  0  0  0
    8.5415  -11.1960   20.0446 N   0  0  0  0  0  0  0  0  0  0  0  0
    9.3351  -13.3931   19.7980 N   0  0  0  0  0  0  0  0  0  0  0  0
    9.0546  -14.8361   19.8742 C   0  0  0  0  0  0  0  0  0  0  0  0
    8.8454  -15.3364   18.4865 C   0  0  0  0  0  0  0  0  0  0  0  0
    9.8353  -14.9109   17.4716 C   0  0  0  0  0  0  0  0  0  0  0  0
   10.7489  -15.9585   16.9261 C   0  0  2  0  0  0  0  0  0  0  0  0
   10.0561  -17.1796   16.7061 N   0  0  0  0  0  0  0  0  0  0  0  0
   11.9774  -16.0395   17.7427 C   0  0  0  0  0  0  0  0  0  0  0  0
   12.2637  -17.1499   18.3292 O   0  0  0  0  0  0  0  0  0  0  0  0
    9.4474  -10.7929   19.7811 N   0  0  0  0  0  0  0  0  0  0  0  0
   12.9135  -15.0139   17.9726 C   0  0  2  0  0  0  0  0  0  0  0  0
   14.1412  -15.2206   18.7756 C   0  0  0  0  0  0  0  0  0  0  0  0
   15.0053  -14.0254   18.4581 C   0  0  0  0  0  0  0  0  0  0  0  0
   15.7485  -14.2788   17.2100 O   0  0  0  0  0  0  0  0  0  0  0  0
   16.1557  -15.4300   16.8475 C   0  0  0  0  0  0  0  0  0  0  0  0
   13.8167  -15.2248   20.2094 O   0  0  0  0  0  0  0  0  0  0  0  0
   12.6372  -15.0198   20.5695 O   0  0  0  0  0  0  0  0  0  0  0  0
   16.0147  -13.1681   16.3822 N   0  0  0  0  0  0  0  0  0  0  0  0
   14.7836  -15.4515   21.2330 C   0  0  1  0  0  0  0  0  0  0  0  0
   14.5085  -16.0520   22.5086 C   0  0  0  0  0  0  0  0  0  0  0  0
   13.7565  -17.3515   22.3934 C   0  0  0  0  0  0  0  0  0  0  0  0
   12.5628  -17.4304   23.2632 O   0  0  0  0  0  0  0  0  0  0  0  0
   12.3598  -16.5543   24.1273 C   0  0  0  0  0  0  0  0  0  0  0  0
   15.7726  -16.1998   23.2667 O   0  0  0  0  0  0  0  0  0  0  0  0
   16.6411  -17.0291   22.8773 O   0  0  0  0  0  0  0  0  0  0  0  0
   11.6633  -18.4703   23.1309 O   0  0  0  0  0  0  0  0  0  0  0  0
  1  2  1  0
  2  3  2  0
  4  2  1  0
  5  4  1  0
  6  5  1  0
  7  6  1  0
  8 10  1  0
  8  7  1  0
  8  9  1  1
 10 12  1  0
 11 10  2  0
 12 13  1  0
 13 14  1  6
 13 17  1  0
 15 19  1  0
 15 14  1  0
 16 15  2  0
 17 18  2  0
 17 20  1  0
 20 21  1  0
 21 25  1  0
 21 22  1  1
 23 22  1  0
 24 23  2  0
 25 28  1  0
 26 25  2  0
 27 23  1  0
M  END
$$$$
