RNC.pdb
     RDKit          3D

 26 25  0  0  1  0  0  0  0  0999 V2000
    9.6436  -14.0352   16.3214 N   0  0  0  0  0  0  0  0  0  0  0  0
    8.2806  -13.7132   16.0894 C   0  0  0  0  0  0  0  0  0  0  0  0
    7.7486  -13.7901   14.9234 N   0  0  0  0  0  0  0  0  0  0  0  0
    7.4378  -13.2855   17.1703 N   0  0  0  0  0  0  0  0  0  0  0  0
    7.9077  -13.2101   18.5345 C   0  0  0  0  0  0  0  0  0  0  0  0
    8.3109  -14.5728   18.9855 C   0  0  0  0  0  0  0  0  0  0  0  0
    9.2205  -14.6121   20.1741 C   0  0  0  0  0  0  0  0  0  0  0  0
    9.5373  -16.0244   20.5341 C   0  0  2  0  0  0  0  0  0  0  0  0
    8.4707  -16.8709   20.0363 N   0  0  0  0  0  0  0  0  0  0  0  0
    9.7307  -16.2147   22.0010 C   0  0  0  0  0  0  0  0  0  0  0  0
   10.5511  -15.5153   22.6375 O   0  0  0  0  0  0  0  0  0  0  0  0
    6.7949  -13.4765   14.7237 N   0  0  0  0  0  0  0  0  0  0  0  0
    5.6532  -17.0727   23.6789 C   0  0  0  0  0  0  0  0  0  0  0  0
    6.7000  -16.9612   24.6283 O   0  0  0  0  0  0  0  0  0  0  0  0
    6.6290  -15.9684   25.4052 C   0  0  0  0  0  0  0  0  0  0  0  0
    7.8277  -17.8672   24.7847 C   0  0  2  0  0  0  0  0  0  0  0  0
    9.1141  -17.4336   24.1317 N   0  0  0  0  0  0  0  0  0  0  0  0
    8.9905  -17.1975   22.7301 C   0  0  0  0  0  0  0  0  0  0  0  0
   10.3003  -18.2029   24.5417 O   0  0  0  0  0  0  0  0  0  0  0  0
   10.4886  -19.3400   24.0741 N   0  0  0  0  0  0  0  0  0  0  0  0
   11.2107  -17.6406   25.4626 C   0  0  1  0  0  0  0  0  0  0  0  0
   12.3575  -18.3658   25.9378 C   0  0  0  0  0  0  0  0  0  0  0  0
   13.6086  -17.5328   26.0771 S   0  0  0  0  0  0  0  0  0  0  0  0
   13.9375  -16.6062   24.5754 C   0  0  0  0  0  0  0  0  0  0  0  0
   12.0663  -19.1538   27.1656 O   0  0  0  0  0  0  0  0  0  0  0  0
   10.9346  -19.0979   27.7148 O   0  0  0  0  0  0  0  0  0  0  0  0
  2  1  1  0
  2  3  2  0
  4  2  1  0
  5  4  1  0
  6  5  1  0
  7  6  1  0
  8  7  1  0
  8  9  1  1
 10  8  1  0
 10 17  1  0
 11 10  2  0
 13 14  2  0
 13 12  1  0
 15 13  1  0
 16 17  1  0
 16 15  1  1
 18 16  1  0
 19 18  2  0
 20 18  1  0
 21 20  1  0
 21 24  1  0
 21 22  1  1
 23 22  1  0
 24 26  1  0
 25 24  2  0
M  END
$$$$
