RNC.pdb
     RDKit          3D

 26 25  0  0  1  0  0  0  0  0999 V2000
    5.9753  -12.0899   16.5756 N   0  0  0  0  0  0  0  0  0  0  0  0
    6.9831  -12.9603   17.0676 C   0  0  0  0  0  0  0  0  0  0  0  0
    7.3253  -14.0305   16.4464 N   0  0  0  0  0  0  0  0  0  0  0  0
    7.6654  -12.6658   18.2962 N   0  0  0  0  0  0  0  0  0  0  0  0
    8.7612  -13.4709   18.7847 C   0  0  0  0  0  0  0  0  0  0  0  0
    8.2140  -14.5933   19.5993 C   0  0  0  0  0  0  0  0  0  0  0  0
    8.0610  -14.3097   21.0614 C   0  0  0  0  0  0  0  0  0  0  0  0
    8.9434  -15.2117   21.8565 C   0  0  2  0  0  0  0  0  0  0  0  0
    9.0512  -16.4762   21.1555 N   0  0  0  0  0  0  0  0  0  0  0  0
    8.4534  -15.4133   23.2510 C   0  0  0  0  0  0  0  0  0  0  0  0
    8.2551  -14.4377   24.0102 O   0  0  0  0  0  0  0  0  0  0  0  0
    8.0585  -14.6606   16.7831 N   0  0  0  0  0  0  0  0  0  0  0  0
    7.3894  -19.8736   27.5308 C   0  0  0  0  0  0  0  0  0  0  0  0
    7.0289  -18.8004   26.6776 O   0  0  0  0  0  0  0  0  0  0  0  0
    6.0826  -18.0715   27.0872 C   0  0  0  0  0  0  0  0  0  0  0  0
    7.6360  -18.4699   25.3973 C   0  0  2  0  0  0  0  0  0  0  0  0
    7.8202  -17.0014   25.1172 N   0  0  0  0  0  0  0  0  0  0  0  0
    8.1938  -16.7207   23.7692 C   0  0  0  0  0  0  0  0  0  0  0  0
    8.5741  -16.2696   26.1483 O   0  0  0  0  0  0  0  0  0  0  0  0
    8.3980  -15.0463   26.2879 N   0  0  0  0  0  0  0  0  0  0  0  0
    9.4899  -16.9657   26.9667 C   0  0  2  0  0  0  0  0  0  0  0  0
   10.0343  -16.3846   28.1638 C   0  0  0  0  0  0  0  0  0  0  0  0
    9.2835  -15.1761   28.6680 S   0  0  0  0  0  0  0  0  0  0  0  0
   10.4108  -13.8406   29.0776 C   0  0  0  0  0  0  0  0  0  0  0  0
   10.2633  -17.3919   29.2343 O   0  0  0  0  0  0  0  0  0  0  0  0
   10.7705  -17.0573   30.3373 O   0  0  0  0  0  0  0  0  0  0  0  0
  2  1  1  0
  2  3  2  0
  4  2  1  0
  5  4  1  0
  6  5  1  0
  7  6  1  0
  8  7  1  0
  8  9  1  6
 10  8  1  0
 10 17  1  0
 11 10  2  0
 13 14  2  0
 13 12  1  0
 15 13  1  0
 16 17  1  0
 16 15  1  6
 18 16  1  0
 19 18  2  0
 20 18  1  0
 21 20  1  0
 21 24  1  0
 21 22  1  6
 23 22  1  0
 24 26  1  0
 25 24  2  0
M  END
$$$$
