RNC.pdb
     RDKit          3D

 26 25  0  0  1  0  0  0  0  0999 V2000
    7.5002  -12.1474   18.7005 N   0  0  0  0  0  0  0  0  0  0  0  0
    7.4854  -13.3188   17.8987 C   0  0  0  0  0  0  0  0  0  0  0  0
    7.4474  -13.2693   16.6163 N   0  0  0  0  0  0  0  0  0  0  0  0
    7.5151  -14.6194   18.5064 N   0  0  0  0  0  0  0  0  0  0  0  0
    7.6334  -14.8034   19.9345 C   0  0  0  0  0  0  0  0  0  0  0  0
    8.4352  -16.0318   20.2013 C   0  0  0  0  0  0  0  0  0  0  0  0
    8.6448  -16.3595   21.6471 C   0  0  0  0  0  0  0  0  0  0  0  0
    9.4379  -17.6155   21.7811 C   0  0  2  0  0  0  0  0  0  0  0  0
    8.5587  -18.7386   21.5207 N   0  0  0  0  0  0  0  0  0  0  0  0
   10.0895  -17.7449   23.1168 C   0  0  0  0  0  0  0  0  0  0  0  0
    9.4602  -18.2022   24.0976 O   0  0  0  0  0  0  0  0  0  0  0  0
    7.4755  -14.1042   16.0248 N   0  0  0  0  0  0  0  0  0  0  0  0
   15.0732  -15.4855   26.0697 C   0  0  0  0  0  0  0  0  0  0  0  0
   14.1049  -16.4988   25.8569 O   0  0  0  0  0  0  0  0  0  0  0  0
   13.7505  -17.1398   26.8854 C   0  0  0  0  0  0  0  0  0  0  0  0
   13.4959  -16.8620   24.5865 C   0  0  2  0  0  0  0  0  0  0  0  0
   11.9912  -16.9307   24.5751 N   0  0  0  0  0  0  0  0  0  0  0  0
   11.4493  -17.3536   23.3249 C   0  0  0  0  0  0  0  0  0  0  0  0
   11.3193  -15.7791   25.1990 O   0  0  0  0  0  0  0  0  0  0  0  0
   10.9923  -14.8039   24.4995 N   0  0  0  0  0  0  0  0  0  0  0  0
   11.0547  -15.7946   26.5856 C   0  0  1  0  0  0  0  0  0  0  0  0
   10.4591  -14.6726   27.2590 C   0  0  0  0  0  0  0  0  0  0  0  0
    9.0618  -14.3374   26.7966 S   0  0  0  0  0  0  0  0  0  0  0  0
    8.2691  -13.1846   27.9212 C   0  0  0  0  0  0  0  0  0  0  0  0
   10.5512  -14.7809   28.7398 O   0  0  0  0  0  0  0  0  0  0  0  0
   10.9700  -15.8359   29.2849 O   0  0  0  0  0  0  0  0  0  0  0  0
  2  1  1  0
  2  3  2  0
  4  2  1  0
  5  4  1  0
  6  5  1  0
  7  6  1  0
  8  7  1  0
  8  9  1  1
 10  8  1  0
 10 17  1  0
 11 10  2  0
 13 14  2  0
 13 12  1  0
 15 13  1  0
 16 17  1  0
 16 15  1  1
 18 16  1  0
 19 18  2  0
 20 18  1  0
 21 20  1  0
 21 24  1  0
 21 22  1  1
 23 22  1  0
 24 26  1  0
 25 24  2  0
M  END
$$$$
