RNC.pdb
     RDKit          3D

 26 25  0  0  1  0  0  0  0  0999 V2000
    7.7467  -13.0744   14.9071 N   0  0  0  0  0  0  0  0  0  0  0  0
    8.1576  -14.4167   15.1184 C   0  0  0  0  0  0  0  0  0  0  0  0
    8.0403  -15.3185   14.2121 N   0  0  0  0  0  0  0  0  0  0  0  0
    8.7294  -14.8157   16.3736 N   0  0  0  0  0  0  0  0  0  0  0  0
    8.9581  -13.8810   17.4514 C   0  0  0  0  0  0  0  0  0  0  0  0
    7.6557  -13.5636   18.1038 C   0  0  0  0  0  0  0  0  0  0  0  0
    7.4025  -14.2615   19.4040 C   0  0  0  0  0  0  0  0  0  0  0  0
    8.6744  -14.4008   20.1703 C   0  0  2  0  0  0  0  0  0  0  0  0
    9.4540  -15.4646   19.5681 N   0  0  0  0  0  0  0  0  0  0  0  0
    8.4464  -14.6605   21.6215 C   0  0  0  0  0  0  0  0  0  0  0  0
    7.7844  -13.8610   22.3215 O   0  0  0  0  0  0  0  0  0  0  0  0
    8.4049  -16.2689   14.3204 N   0  0  0  0  0  0  0  0  0  0  0  0
    9.8317  -19.2754   22.1726 C   0  0  0  0  0  0  0  0  0  0  0  0
    8.9058  -18.6006   23.0075 O   0  0  0  0  0  0  0  0  0  0  0  0
    7.6990  -18.9486   22.8775 C   0  0  0  0  0  0  0  0  0  0  0  0
    9.2127  -17.5624   23.9796 C   0  0  2  0  0  0  0  0  0  0  0  0
    8.7459  -16.1742   23.6277 N   0  0  0  0  0  0  0  0  0  0  0  0
    8.9725  -15.8254   22.2630 C   0  0  0  0  0  0  0  0  0  0  0  0
    9.1004  -15.1393   24.6126 O   0  0  0  0  0  0  0  0  0  0  0  0
   10.1547  -14.4938   24.4752 N   0  0  0  0  0  0  0  0  0  0  0  0
    8.2390  -14.8919   25.7034 C   0  0  1  0  0  0  0  0  0  0  0  0
    8.5518  -13.9188   26.7144 C   0  0  0  0  0  0  0  0  0  0  0  0
    7.7713  -12.6315   26.6041 S   0  0  0  0  0  0  0  0  0  0  0  0
    6.0065  -12.9512   26.5305 C   0  0  0  0  0  0  0  0  0  0  0  0
    8.5074  -14.4881   28.0881 O   0  0  0  0  0  0  0  0  0  0  0  0
    8.0335  -15.6361   28.2958 O   0  0  0  0  0  0  0  0  0  0  0  0
  2  1  1  0
  2  3  2  0
  4  2  1  0
  5  4  1  0
  6  5  1  0
  7  6  1  0
  8  7  1  0
  8  9  1  6
 10  8  1  0
 10 17  1  0
 11 10  2  0
 13 14  2  0
 13 12  1  0
 15 13  1  0
 16 17  1  0
 16 15  1  6
 18 16  1  0
 19 18  2  0
 20 18  1  0
 21 20  1  0
 21 24  1  0
 21 22  1  1
 23 22  1  0
 24 26  1  0
 25 24  2  0
M  END
$$$$
