RNC.pdb
     RDKit          3D

 26 25  0  0  1  0  0  0  0  0999 V2000
    7.1800  -13.8347   18.8356 N   0  0  0  0  0  0  0  0  0  0  0  0
    8.2114  -13.4730   17.9297 C   0  0  0  0  0  0  0  0  0  0  0  0
    8.8428  -12.3589   18.0216 N   0  0  0  0  0  0  0  0  0  0  0  0
    8.5898  -14.3578   16.8640 N   0  0  0  0  0  0  0  0  0  0  0  0
    7.9361  -15.6273   16.6435 C   0  0  0  0  0  0  0  0  0  0  0  0
    8.3437  -16.5768   17.7183 C   0  0  0  0  0  0  0  0  0  0  0  0
    9.5525  -17.4071   17.4162 C   0  0  0  0  0  0  0  0  0  0  0  0
    9.8896  -18.2707   18.5846 C   0  0  2  0  0  0  0  0  0  0  0  0
    8.6639  -18.5664   19.3003 N   0  0  0  0  0  0  0  0  0  0  0  0
   10.8997  -17.6474   19.4883 C   0  0  0  0  0  0  0  0  0  0  0  0
   11.7753  -18.3431   20.0508 O   0  0  0  0  0  0  0  0  0  0  0  0
    9.5605  -12.0677   17.3524 N   0  0  0  0  0  0  0  0  0  0  0  0
   14.2671  -14.5572   18.6792 C   0  0  0  0  0  0  0  0  0  0  0  0
   12.9277  -14.1526   18.9073 O   0  0  0  0  0  0  0  0  0  0  0  0
   12.3146  -13.7014   17.8999 C   0  0  0  0  0  0  0  0  0  0  0  0
   12.2099  -14.2066   20.1717 C   0  0  2  0  0  0  0  0  0  0  0  0
   11.8006  -15.5796   20.6367 N   0  0  0  0  0  0  0  0  0  0  0  0
   10.9049  -16.2403   19.7440 C   0  0  0  0  0  0  0  0  0  0  0  0
   11.4495  -15.6652   22.0637 O   0  0  0  0  0  0  0  0  0  0  0  0
   10.6065  -14.8833   22.5383 N   0  0  0  0  0  0  0  0  0  0  0  0
   12.0751  -16.6341   22.8777 C   0  0  1  0  0  0  0  0  0  0  0  0
   11.6456  -16.8868   24.2263 C   0  0  0  0  0  0  0  0  0  0  0  0
   10.1938  -17.2798   24.3554 S   0  0  0  0  0  0  0  0  0  0  0  0
    9.7780  -17.6630   26.0590 C   0  0  0  0  0  0  0  0  0  0  0  0
   12.5485  -17.8239   24.9471 O   0  0  0  0  0  0  0  0  0  0  0  0
   13.1919  -18.7083   24.3229 O   0  0  0  0  0  0  0  0  0  0  0  0
  2  1  1  0
  2  3  2  0
  4  2  1  0
  5  4  1  0
  6  5  1  0
  7  6  1  0
  8  7  1  0
  8  9  1  1
 10  8  1  0
 10 17  1  0
 11 10  2  0
 13 14  2  0
 13 12  1  0
 15 13  1  0
 16 17  1  0
 16 15  1  6
 18 16  1  0
 19 18  2  0
 20 18  1  0
 21 20  1  0
 21 24  1  0
 21 22  1  1
 23 22  1  0
 24 26  1  0
 25 24  2  0
M  END
$$$$
