RNC.pdb
     RDKit          3D

 26 25  0  0  1  0  0  0  0  0999 V2000
   10.5000  -14.1858   18.7491 N   0  0  0  0  0  0  0  0  0  0  0  0
    9.4967  -14.0114   17.7601 C   0  0  0  0  0  0  0  0  0  0  0  0
    9.7027  -14.2813   16.5219 N   0  0  0  0  0  0  0  0  0  0  0  0
    8.1958  -13.5208   18.1190 N   0  0  0  0  0  0  0  0  0  0  0  0
    7.8338  -13.2152   19.4839 C   0  0  0  0  0  0  0  0  0  0  0  0
    6.7531  -14.1452   19.9198 C   0  0  0  0  0  0  0  0  0  0  0  0
    6.9127  -14.7142   21.2955 C   0  0  0  0  0  0  0  0  0  0  0  0
    8.3565  -14.9340   21.5980 C   0  0  2  0  0  0  0  0  0  0  0  0
    8.8701  -15.9229   20.6704 N   0  0  0  0  0  0  0  0  0  0  0  0
    8.5912  -15.3528   23.0104 C   0  0  0  0  0  0  0  0  0  0  0  0
    7.9768  -14.8054   23.9539 O   0  0  0  0  0  0  0  0  0  0  0  0
    9.0147  -14.0925   15.7879 N   0  0  0  0  0  0  0  0  0  0  0  0
   12.2734  -18.8792   26.5386 C   0  0  0  0  0  0  0  0  0  0  0  0
   10.9843  -18.5833   26.0283 O   0  0  0  0  0  0  0  0  0  0  0  0
   10.0225  -18.7944   26.8188 C   0  0  0  0  0  0  0  0  0  0  0  0
   10.6741  -18.0708   24.7024 C   0  0  2  0  0  0  0  0  0  0  0  0
    9.7951  -16.8483   24.6597 N   0  0  0  0  0  0  0  0  0  0  0  0
    9.5213  -16.3890   23.3370 C   0  0  0  0  0  0  0  0  0  0  0  0
   10.1513  -15.8018   25.6318 O   0  0  0  0  0  0  0  0  0  0  0  0
   11.2833  -15.2876   25.5960 N   0  0  0  0  0  0  0  0  0  0  0  0
    9.2031  -15.3945   26.5951 C   0  0  1  0  0  0  0  0  0  0  0  0
    9.4952  -14.3759   27.5668 C   0  0  0  0  0  0  0  0  0  0  0  0
    8.3945  -13.3605   27.7563 S   0  0  0  0  0  0  0  0  0  0  0  0
    7.8875  -12.6573   26.1845 C   0  0  0  0  0  0  0  0  0  0  0  0
    9.9700  -14.9391   28.8593 O   0  0  0  0  0  0  0  0  0  0  0  0
   10.2880  -14.1830   29.8146 O   0  0  0  0  0  0  0  0  0  0  0  0
  2  1  1  0
  2  3  2  0
  4  2  1  0
  5  4  1  0
  6  5  1  0
  7  6  1  0
  8  7  1  0
  8  9  1  6
 10  8  1  0
 10 17  1  0
 11 10  2  0
 13 14  2  0
 13 12  1  0
 15 13  1  0
 16 17  1  0
 16 15  1  6
 18 16  1  0
 19 18  2  0
 20 18  1  0
 21 20  1  0
 21 24  1  0
 21 22  1  1
 23 22  1  0
 24 26  1  0
 25 24  2  0
M  END
$$$$
