RNC.pdb
     RDKit          3D

 26 25  0  0  1  0  0  0  0  0999 V2000
    9.5272  -19.8463   15.1016 N   0  0  0  0  0  0  0  0  0  0  0  0
    8.6302  -19.6650   16.1869 C   0  0  0  0  0  0  0  0  0  0  0  0
    7.3707  -19.4882   16.0110 N   0  0  0  0  0  0  0  0  0  0  0  0
    9.1104  -19.6756   17.5400 N   0  0  0  0  0  0  0  0  0  0  0  0
   10.5135  -19.5572   17.8638 C   0  0  0  0  0  0  0  0  0  0  0  0
   10.8486  -18.1168   18.0531 C   0  0  0  0  0  0  0  0  0  0  0  0
   11.3104  -17.7408   19.4268 C   0  0  0  0  0  0  0  0  0  0  0  0
   10.1772  -17.8259   20.3928 C   0  0  2  0  0  0  0  0  0  0  0  0
    8.9394  -17.8698   19.6391 N   0  0  0  0  0  0  0  0  0  0  0  0
   10.1685  -16.6991   21.3703 C   0  0  0  0  0  0  0  0  0  0  0  0
   11.1880  -16.4229   22.0423 O   0  0  0  0  0  0  0  0  0  0  0  0
    6.7058  -19.4043   16.7847 N   0  0  0  0  0  0  0  0  0  0  0  0
    6.6283  -13.5524   19.9482 C   0  0  0  0  0  0  0  0  0  0  0  0
    7.7048  -13.3745   20.8533 O   0  0  0  0  0  0  0  0  0  0  0  0
    8.6888  -12.7194   20.4094 C   0  0  0  0  0  0  0  0  0  0  0  0
    7.7789  -13.8699   22.2193 C   0  0  2  0  0  0  0  0  0  0  0  0
    8.9063  -14.8253   22.5113 N   0  0  0  0  0  0  0  0  0  0  0  0
    9.0019  -15.8974   21.5748 C   0  0  0  0  0  0  0  0  0  0  0  0
    9.0354  -15.2083   23.9268 O   0  0  0  0  0  0  0  0  0  0  0  0
    8.1864  -15.9572   24.4419 N   0  0  0  0  0  0  0  0  0  0  0  0
   10.1220  -14.7195   24.6840 C   0  0  2  0  0  0  0  0  0  0  0  0
    9.9961  -14.4078   26.0818 C   0  0  0  0  0  0  0  0  0  0  0  0
    8.9462  -13.3702   26.3975 S   0  0  0  0  0  0  0  0  0  0  0  0
    8.9805  -12.9257   28.1363 C   0  0  0  0  0  0  0  0  0  0  0  0
    9.8582  -15.6237   26.9278 O   0  0  0  0  0  0  0  0  0  0  0  0
    9.6017  -16.7432   26.4116 O   0  0  0  0  0  0  0  0  0  0  0  0
  2  1  1  0
  2  3  2  0
  4  2  1  0
  5  4  1  0
  6  5  1  0
  7  6  1  0
  8  7  1  0
  8  9  1  6
 10  8  1  0
 10 17  1  0
 11 10  2  0
 13 14  2  0
 13 12  1  0
 15 13  1  0
 16 17  1  0
 16 15  1  6
 18 16  1  0
 19 18  2  0
 20 18  1  0
 21 20  1  0
 21 24  1  0
 21 22  1  6
 23 22  1  0
 24 26  1  0
 25 24  2  0
M  END
$$$$
