RNC.pdb
     RDKit          3D

 26 25  0  0  1  0  0  0  0  0999 V2000
   10.1553  -13.1170   19.7421 N   0  0  0  0  0  0  0  0  0  0  0  0
    8.8583  -12.7148   20.1561 C   0  0  0  0  0  0  0  0  0  0  0  0
    8.6077  -11.5207   20.5559 N   0  0  0  0  0  0  0  0  0  0  0  0
    7.7655  -13.6460   20.1390 N   0  0  0  0  0  0  0  0  0  0  0  0
    7.9515  -15.0520   19.8630 C   0  0  0  0  0  0  0  0  0  0  0  0
    7.4684  -15.8442   21.0300 C   0  0  0  0  0  0  0  0  0  0  0  0
    7.6363  -17.3273   20.9121 C   0  0  0  0  0  0  0  0  0  0  0  0
    7.1100  -18.0042   22.1325 C   0  0  2  0  0  0  0  0  0  0  0  0
    5.7437  -17.5664   22.3419 N   0  0  0  0  0  0  0  0  0  0  0  0
    7.9460  -17.7443   23.3404 C   0  0  0  0  0  0  0  0  0  0  0  0
    7.5160  -17.0377   24.2801 O   0  0  0  0  0  0  0  0  0  0  0  0
    7.6932  -11.2332   20.9148 N   0  0  0  0  0  0  0  0  0  0  0  0
   12.0111  -18.0782   26.8692 C   0  0  0  0  0  0  0  0  0  0  0  0
   12.2962  -18.7425   25.6497 O   0  0  0  0  0  0  0  0  0  0  0  0
   13.4076  -19.3400   25.6004 C   0  0  0  0  0  0  0  0  0  0  0  0
   11.4433  -18.7958   24.4723 C   0  0  2  0  0  0  0  0  0  0  0  0
   10.1290  -18.0677   24.5797 N   0  0  0  0  0  0  0  0  0  0  0  0
    9.2619  -18.2897   23.4687 C   0  0  0  0  0  0  0  0  0  0  0  0
   10.2364  -16.6701   25.0292 O   0  0  0  0  0  0  0  0  0  0  0  0
   10.1892  -15.7494   24.1942 N   0  0  0  0  0  0  0  0  0  0  0  0
   10.3929  -16.3910   26.4042 C   0  0  1  0  0  0  0  0  0  0  0  0
   10.1629  -15.0789   26.9451 C   0  0  0  0  0  0  0  0  0  0  0  0
    8.8548  -14.4523   26.5272 S   0  0  0  0  0  0  0  0  0  0  0  0
    8.6420  -12.8380   27.2827 C   0  0  0  0  0  0  0  0  0  0  0  0
   10.3682  -15.0242   28.4175 O   0  0  0  0  0  0  0  0  0  0  0  0
   10.3127  -13.9291   29.0365 O   0  0  0  0  0  0  0  0  0  0  0  0
  2  1  1  0
  2  3  2  0
  4  2  1  0
  5  4  1  0
  6  5  1  0
  7  6  1  0
  8  7  1  0
  8  9  1  1
 10  8  1  0
 10 17  1  0
 11 10  2  0
 13 14  2  0
 13 12  1  0
 15 13  1  0
 16 17  1  0
 16 15  1  1
 18 16  1  0
 19 18  2  0
 20 18  1  0
 21 20  1  0
 21 24  1  0
 21 22  1  1
 23 22  1  0
 24 26  1  0
 25 24  2  0
M  END
$$$$
