PQC.pdb
     RDKit          3D

 23 23  0  0  1  0  0  0  0  0999 V2000
    8.3639  -15.4578   19.5939 N   0  0  0  0  0  0  0  0  0  0  0  0
    8.4950  -15.0902   18.1958 C   0  0  0  0  0  0  0  0  0  0  0  0
    7.8119  -13.7664   18.0311 C   0  0  0  0  0  0  0  0  0  0  0  0
    7.4058  -13.3716   19.4363 C   0  0  0  0  0  0  0  0  0  0  0  0
    8.3214  -14.1947   20.2820 C   0  0  1  0  0  0  0  0  0  0  0  0
    7.9141  -14.3171   21.6908 C   0  0  0  0  0  0  0  0  0  0  0  0
    7.7723  -13.3100   22.4484 O   0  0  0  0  0  0  0  0  0  0  0  0
    7.4351  -19.9449   24.5682 N   0  0  0  0  0  0  0  0  0  0  0  0
    7.0375  -19.0791   25.6059 C   0  0  0  0  0  0  0  0  0  0  0  0
    6.7365  -19.5581   26.7338 O   0  0  0  0  0  0  0  0  0  0  0  0
    6.9656  -17.5884   25.3909 C   0  0  0  0  0  0  0  0  0  0  0  0
    7.3049  -17.2960   23.9702 C   0  0  0  0  0  0  0  0  0  0  0  0
    7.2778  -15.8302   23.6195 C   0  0  2  0  0  0  0  0  0  0  0  0
    7.6664  -15.6053   22.2379 N   0  0  0  0  0  0  0  0  0  0  0  0
    8.0934  -15.0031   24.5147 C   0  0  0  0  0  0  0  0  0  0  0  0
    9.3341  -14.9471   24.5253 O   0  0  0  0  0  0  0  0  0  0  0  0
    7.4364  -14.1621   25.4870 N   0  0  0  0  0  0  0  0  0  0  0  0
    8.1985  -13.3053   26.3664 C   0  0  1  0  0  0  0  0  0  0  0  0
    7.4453  -12.0411   26.7192 C   0  0  0  0  0  0  0  0  0  0  0  0
    5.7266  -12.3986   27.1142 S   0  0  0  0  0  0  0  0  0  0  0  0
    8.5254  -14.0208   27.6173 C   0  0  0  0  0  0  0  0  0  0  0  0
    8.0132  -15.1416   27.8238 O   0  0  0  0  0  0  0  0  0  0  0  0
    9.3772  -13.4993   28.5718 O   0  0  0  0  0  0  0  0  0  0  0  0
  1  2  1  0
  2  3  1  0
  4  3  1  0
  5  4  1  0
  5  1  1  0
  6  7  2  0
  5  6  1  1
  8  9  1  0
  9 10  2  0
  9 11  1  0
 11 12  1  0
 13 12  1  1
 13 15  1  0
 13 14  1  0
 14  6  1  0
 15 17  1  0
 16 15  2  0
 17 18  1  0
 18 21  1  0
 18 19  1  1
 20 19  1  0
 21 22  2  0
 21 23  1  0
M  END
$$$$
