PQC.pdb
     RDKit          3D

 23 23  0  0  1  0  0  0  0  0999 V2000
    8.3942  -15.2839   19.7437 N   0  0  0  0  0  0  0  0  0  0  0  0
    8.5615  -14.8467   18.3697 C   0  0  0  0  0  0  0  0  0  0  0  0
    7.7619  -13.5884   18.2161 C   0  0  0  0  0  0  0  0  0  0  0  0
    7.2467  -13.2938   19.6101 C   0  0  0  0  0  0  0  0  0  0  0  0
    8.1929  -14.0607   20.4746 C   0  0  1  0  0  0  0  0  0  0  0  0
    7.7266  -14.2809   21.8529 C   0  0  0  0  0  0  0  0  0  0  0  0
    7.4048  -13.3263   22.6233 O   0  0  0  0  0  0  0  0  0  0  0  0
    7.1741  -20.1036   24.3225 N   0  0  0  0  0  0  0  0  0  0  0  0
    6.8282  -19.3069   25.4316 C   0  0  0  0  0  0  0  0  0  0  0  0
    6.5041  -19.8612   26.5179 O   0  0  0  0  0  0  0  0  0  0  0  0
    6.8388  -17.8018   25.3422 C   0  0  0  0  0  0  0  0  0  0  0  0
    7.2603  -17.4102   23.9681 C   0  0  0  0  0  0  0  0  0  0  0  0
    7.2546  -15.9229   23.7225 C   0  0  2  0  0  0  0  0  0  0  0  0
    7.6276  -15.6071   22.3544 N   0  0  0  0  0  0  0  0  0  0  0  0
    8.0975  -15.1753   24.6613 C   0  0  0  0  0  0  0  0  0  0  0  0
    9.3276  -15.0262   24.5754 O   0  0  0  0  0  0  0  0  0  0  0  0
    7.4840  -14.5386   25.8025 N   0  0  0  0  0  0  0  0  0  0  0  0
    8.2642  -13.7345   26.7151 C   0  0  1  0  0  0  0  0  0  0  0  0
    7.4104  -12.7290   27.4568 C   0  0  0  0  0  0  0  0  0  0  0  0
    6.1942  -11.9786   26.3634 S   0  0  0  0  0  0  0  0  0  0  0  0
    8.9386  -14.5983   27.7064 C   0  0  0  0  0  0  0  0  0  0  0  0
    8.6855  -15.8219   27.7130 O   0  0  0  0  0  0  0  0  0  0  0  0
    9.8410  -14.1068   28.6297 O   0  0  0  0  0  0  0  0  0  0  0  0
  1  2  1  0
  2  3  1  0
  4  3  1  0
  5  4  1  0
  5  1  1  0
  6  7  2  0
  5  6  1  1
  8  9  1  0
  9 10  2  0
  9 11  1  0
 11 12  1  0
 13 12  1  1
 13 15  1  0
 13 14  1  0
 14  6  1  0
 15 17  1  0
 16 15  2  0
 17 18  1  0
 18 21  1  0
 18 19  1  1
 20 19  1  0
 21 22  2  0
 21 23  1  0
M  END
$$$$
