PQC.pdb
     RDKit          3D

 23 23  0  0  1  0  0  0  0  0999 V2000
    8.3368  -15.2487   19.7238 N   0  0  0  0  0  0  0  0  0  0  0  0
    8.4438  -14.8219   18.3405 C   0  0  0  0  0  0  0  0  0  0  0  0
    7.6697  -13.5441   18.2213 C   0  0  0  0  0  0  0  0  0  0  0  0
    7.2349  -13.2304   19.6383 C   0  0  0  0  0  0  0  0  0  0  0  0
    8.2047  -14.0177   20.4572 C   0  0  1  0  0  0  0  0  0  0  0  0
    7.8048  -14.2199   21.8589 C   0  0  0  0  0  0  0  0  0  0  0  0
    7.4995  -13.2568   22.6254 O   0  0  0  0  0  0  0  0  0  0  0  0
    7.6010  -19.9918   24.4986 N   0  0  0  0  0  0  0  0  0  0  0  0
    7.1789  -19.1877   25.5754 C   0  0  0  0  0  0  0  0  0  0  0  0
    6.8852  -19.7284   26.6771 O   0  0  0  0  0  0  0  0  0  0  0  0
    7.0721  -17.6903   25.4333 C   0  0  0  0  0  0  0  0  0  0  0  0
    7.4643  -17.3153   24.0460 C   0  0  0  0  0  0  0  0  0  0  0  0
    7.3565  -15.8406   23.7528 C   0  0  2  0  0  0  0  0  0  0  0  0
    7.7538  -15.5379   22.3886 N   0  0  0  0  0  0  0  0  0  0  0  0
    8.1069  -15.0040   24.6950 C   0  0  0  0  0  0  0  0  0  0  0  0
    9.3323  -14.8026   24.6732 O   0  0  0  0  0  0  0  0  0  0  0  0
    7.3974  -14.3351   25.7596 N   0  0  0  0  0  0  0  0  0  0  0  0
    8.0887  -13.4642   26.6826 C   0  0  1  0  0  0  0  0  0  0  0  0
    7.1348  -12.5558   27.4275 C   0  0  0  0  0  0  0  0  0  0  0  0
    5.8309  -11.9546   26.3428 S   0  0  0  0  0  0  0  0  0  0  0  0
    8.8419  -14.2642   27.6707 C   0  0  0  0  0  0  0  0  0  0  0  0
    8.7459  -15.5096   27.6392 O   0  0  0  0  0  0  0  0  0  0  0  0
    9.6511  -13.6895   28.6317 O   0  0  0  0  0  0  0  0  0  0  0  0
  1  2  1  0
  2  3  1  0
  4  3  1  0
  5  4  1  0
  5  1  1  0
  6  7  2  0
  5  6  1  1
  8  9  1  0
  9 10  2  0
  9 11  1  0
 11 12  1  0
 13 12  1  1
 13 15  1  0
 13 14  1  0
 14  6  1  0
 15 17  1  0
 16 15  2  0
 17 18  1  0
 18 21  1  0
 18 19  1  1
 20 19  1  0
 21 22  2  0
 21 23  1  0
M  END
$$$$
