PQC.pdb
     RDKit          3D

 23 23  0  0  1  0  0  0  0  0999 V2000
    8.5433  -15.3007   19.5296 N   0  0  0  0  0  0  0  0  0  0  0  0
    8.6859  -14.9513   18.1280 C   0  0  0  0  0  0  0  0  0  0  0  0
    7.8227  -13.7489   17.8924 C   0  0  0  0  0  0  0  0  0  0  0  0
    7.2952  -13.3857   19.2654 C   0  0  0  0  0  0  0  0  0  0  0  0
    8.2808  -14.0420   20.1758 C   0  0  1  0  0  0  0  0  0  0  0  0
    7.8286  -14.1901   21.5683 C   0  0  0  0  0  0  0  0  0  0  0  0
    7.4777  -13.2001   22.2791 O   0  0  0  0  0  0  0  0  0  0  0  0
    7.8637  -19.7815   24.5406 N   0  0  0  0  0  0  0  0  0  0  0  0
    7.2104  -18.9810   25.4982 C   0  0  0  0  0  0  0  0  0  0  0  0
    6.8690  -19.4871   26.6025 O   0  0  0  0  0  0  0  0  0  0  0  0
    6.9124  -17.5284   25.2252 C   0  0  0  0  0  0  0  0  0  0  0  0
    7.3405  -17.2083   23.8347 C   0  0  0  0  0  0  0  0  0  0  0  0
    7.2816  -15.7410   23.4944 C   0  0  2  0  0  0  0  0  0  0  0  0
    7.7772  -15.4846   22.1531 N   0  0  0  0  0  0  0  0  0  0  0  0
    7.9818  -14.8909   24.4628 C   0  0  0  0  0  0  0  0  0  0  0  0
    9.2120  -14.7406   24.5438 O   0  0  0  0  0  0  0  0  0  0  0  0
    7.2109  -14.1431   25.4275 N   0  0  0  0  0  0  0  0  0  0  0  0
    7.8506  -13.2213   26.3383 C   0  0  1  0  0  0  0  0  0  0  0  0
    6.9378  -12.0763   26.7201 C   0  0  0  0  0  0  0  0  0  0  0  0
    5.4219  -12.6800   27.4787 S   0  0  0  0  0  0  0  0  0  0  0  0
    8.2604  -13.9253   27.5712 C   0  0  0  0  0  0  0  0  0  0  0  0
    7.8625  -15.0946   27.7599 O   0  0  0  0  0  0  0  0  0  0  0  0
    9.0685  -13.3414   28.5276 O   0  0  0  0  0  0  0  0  0  0  0  0
  1  2  1  0
  2  3  1  0
  4  3  1  0
  5  4  1  0
  5  1  1  0
  6  7  2  0
  5  6  1  1
  8  9  1  0
  9 10  2  0
  9 11  1  0
 11 12  1  0
 13 12  1  1
 13 15  1  0
 13 14  1  0
 14  6  1  0
 15 17  1  0
 16 15  2  0
 17 18  1  0
 18 21  1  0
 18 19  1  1
 20 19  1  0
 21 22  2  0
 21 23  1  0
M  END
$$$$
