PQC.pdb
     RDKit          3D

 23 23  0  0  1  0  0  0  0  0999 V2000
    8.8204  -14.8957   19.3665 N   0  0  0  0  0  0  0  0  0  0  0  0
    8.6900  -14.4061   18.0063 C   0  0  0  0  0  0  0  0  0  0  0  0
    7.5697  -13.4106   18.0108 C   0  0  0  0  0  0  0  0  0  0  0  0
    7.1740  -13.2913   19.4684 C   0  0  0  0  0  0  0  0  0  0  0  0
    8.3922  -13.7863   20.1769 C   0  0  1  0  0  0  0  0  0  0  0  0
    8.1794  -14.1487   21.5872 C   0  0  0  0  0  0  0  0  0  0  0  0
    7.6498  -13.3540   22.4218 O   0  0  0  0  0  0  0  0  0  0  0  0
   10.1996  -19.6571   24.0059 N   0  0  0  0  0  0  0  0  0  0  0  0
    9.5066  -19.1174   25.1073 C   0  0  0  0  0  0  0  0  0  0  0  0
    9.5010  -19.7411   26.2042 O   0  0  0  0  0  0  0  0  0  0  0  0
    8.7711  -17.8058   24.9969 C   0  0  0  0  0  0  0  0  0  0  0  0
    8.9661  -17.2655   23.6225 C   0  0  0  0  0  0  0  0  0  0  0  0
    8.3482  -15.9085   23.4007 C   0  0  2  0  0  0  0  0  0  0  0  0
    8.5765  -15.4337   22.0469 N   0  0  0  0  0  0  0  0  0  0  0  0
    8.7920  -14.9020   24.3706 C   0  0  0  0  0  0  0  0  0  0  0  0
    9.9210  -14.3868   24.4202 O   0  0  0  0  0  0  0  0  0  0  0  0
    7.8654  -14.4391   25.3763 N   0  0  0  0  0  0  0  0  0  0  0  0
    8.2334  -13.3926   26.3024 C   0  0  1  0  0  0  0  0  0  0  0  0
    7.1624  -12.3290   26.4109 C   0  0  0  0  0  0  0  0  0  0  0  0
    5.5370  -13.0660   26.6408 S   0  0  0  0  0  0  0  0  0  0  0  0
    8.4676  -13.9607   27.6463 C   0  0  0  0  0  0  0  0  0  0  0  0
    8.2268  -15.1712   27.8408 O   0  0  0  0  0  0  0  0  0  0  0  0
    8.9438  -13.2056   28.7006 O   0  0  0  0  0  0  0  0  0  0  0  0
  1  2  1  0
  2  3  1  0
  4  3  1  0
  5  4  1  0
  5  1  1  0
  6  7  2  0
  5  6  1  1
  8  9  1  0
  9 10  2  0
  9 11  1  0
 11 12  1  0
 13 12  1  1
 13 15  1  0
 13 14  1  0
 14  6  1  0
 15 17  1  0
 16 15  2  0
 17 18  1  0
 18 21  1  0
 18 19  1  1
 20 19  1  0
 21 22  2  0
 21 23  1  0
M  END
$$$$
