NWQ.pdb
     RDKit          3D

 32 33  0  0  1  0  0  0  0  0999 V2000
   28.6155  -19.4381  -16.2149 N   0  0  0  0  0  0  0  0  0  0  0  0
   27.3230  -18.9470  -15.8825 C   0  0  0  0  0  0  0  0  0  0  0  0
   26.8345  -18.0176  -16.5717 O   0  0  0  0  0  0  0  0  0  0  0  0
   26.5290  -19.4801  -14.7630 C   0  0  0  0  0  0  0  0  0  0  0  0
   27.4088  -20.5210  -14.0562 C   0  0  2  0  0  0  0  0  0  0  0  0
   27.4010  -21.7431  -14.8711 N   0  0  0  0  0  0  0  0  0  0  0  0
   26.8057  -20.8546  -12.7471 C   0  0  0  0  0  0  0  0  0  0  0  0
   25.8715  -21.6807  -12.6921 O   0  0  0  0  0  0  0  0  0  0  0  0
   27.2618  -20.2571  -11.5281 N   0  0  0  0  0  0  0  0  0  0  0  0
   26.5695  -20.5698  -10.3154 C   0  0  1  0  0  0  0  0  0  0  0  0
   27.2672  -19.8020   -9.2056 C   0  0  0  0  0  0  0  0  0  0  0  0
   26.7898  -20.1751   -7.8541 C   0  0  0  0  0  0  0  0  0  0  0  0
   25.6499  -20.9276   -7.5676 C   0  0  0  0  0  0  0  0  0  0  0  0
   25.5455  -21.0515   -6.2372 N   0  0  0  0  0  0  0  0  0  0  0  0
   26.5723  -20.4087   -5.6672 C   0  0  0  0  0  0  0  0  0  0  0  0
   26.9179  -20.2413   -4.3377 C   0  0  0  0  0  0  0  0  0  0  0  0
   28.0418  -19.5268   -4.0039 C   0  0  0  0  0  0  0  0  0  0  0  0
   28.8396  -18.9686   -4.9609 C   0  0  0  0  0  0  0  0  0  0  0  0
   28.5016  -19.1312   -6.2831 C   0  0  0  0  0  0  0  0  0  0  0  0
   27.3791  -19.8430   -6.6568 C   0  0  0  0  0  0  0  0  0  0  0  0
   25.1435  -20.1778  -10.4235 C   0  0  0  0  0  0  0  0  0  0  0  0
   24.9219  -18.9385  -10.6115 O   0  0  0  0  0  0  0  0  0  0  0  0
   21.2914  -21.9029  -14.3738 N   0  0  0  0  0  0  0  0  0  0  0  0
   22.1216  -20.7454  -14.2756 C   0  0  0  0  0  0  0  0  0  0  0  0
   22.4004  -20.1155  -15.3524 O   0  0  0  0  0  0  0  0  0  0  0  0
   22.6400  -20.2774  -12.9822 C   0  0  0  0  0  0  0  0  0  0  0  0
   22.1963  -21.0932  -11.8302 C   0  0  0  0  0  0  0  0  0  0  0  0
   22.6812  -20.6070  -10.5120 C   0  0  2  0  0  0  0  0  0  0  0  0
   24.0773  -21.0925  -10.3302 N   0  0  0  0  0  0  0  0  0  0  0  0
   21.9594  -20.9853   -9.3150 C   0  0  0  0  0  0  0  0  0  0  0  0
   22.4052  -21.8853   -8.5367 O   0  0  0  0  0  0  0  0  0  0  0  0
   20.7431  -20.4020   -8.9116 O   0  0  0  0  0  0  0  0  0  0  0  0
  2  1  1  0
  3  2  2  0
  4  5  1  0
  4  2  1  0
  5  6  1  6
  7  5  1  0
  7  8  2  0
  9  7  1  0
 10  9  1  0
 10 11  1  1
 12 11  1  0
 12 13  2  0
 14 13  1  0
 15 20  2  0
 15 14  1  0
 16 15  1  0
 17 18  1  0
 17 16  2  0
 18 19  2  0
 19 20  1  0
 20 12  1  0
 21 10  1  0
 22 21  2  0
 23 24  1  0
 24 26  1  0
 25 24  2  0
 27 26  1  0
 28 27  1  6
 28 29  1  0
 28 30  1  0
 29 21  1  0
 30 32  1  0
 31 30  2  0
M  END
$$$$
