NWQ.pdb
     RDKit          3D

 32 33  0  0  1  0  0  0  0  0999 V2000
   28.5572  -19.4559  -18.1053 N   0  0  0  0  0  0  0  0  0  0  0  0
   28.3830  -20.8520  -17.8984 C   0  0  0  0  0  0  0  0  0  0  0  0
   28.9939  -21.6542  -18.6472 O   0  0  0  0  0  0  0  0  0  0  0  0
   27.5160  -21.4015  -16.8429 C   0  0  0  0  0  0  0  0  0  0  0  0
   28.4182  -21.6765  -15.6315 C   0  0  2  0  0  0  0  0  0  0  0  0
   28.9478  -23.0400  -15.7664 N   0  0  0  0  0  0  0  0  0  0  0  0
   27.5992  -21.6367  -14.4001 C   0  0  0  0  0  0  0  0  0  0  0  0
   26.4071  -22.0045  -14.4412 O   0  0  0  0  0  0  0  0  0  0  0  0
   28.1326  -21.1868  -13.1493 N   0  0  0  0  0  0  0  0  0  0  0  0
   27.2949  -21.2463  -11.9907 C   0  0  1  0  0  0  0  0  0  0  0  0
   28.1038  -20.6742  -10.8391 C   0  0  0  0  0  0  0  0  0  0  0  0
   27.3437  -20.6170   -9.5692 C   0  0  0  0  0  0  0  0  0  0  0  0
   25.9570  -20.7072   -9.4405 C   0  0  0  0  0  0  0  0  0  0  0  0
   25.6432  -20.6092   -8.1413 N   0  0  0  0  0  0  0  0  0  0  0  0
   26.7737  -20.4606   -7.4396 C   0  0  0  0  0  0  0  0  0  0  0  0
   26.9908  -20.3189   -6.0802 C   0  0  0  0  0  0  0  0  0  0  0  0
   28.2689  -20.1811   -5.5985 C   0  0  0  0  0  0  0  0  0  0  0  0
   29.3477  -20.1799   -6.4353 C   0  0  0  0  0  0  0  0  0  0  0  0
   29.1388  -20.3201   -7.7864 C   0  0  0  0  0  0  0  0  0  0  0  0
   27.8678  -20.4610   -8.3074 C   0  0  0  0  0  0  0  0  0  0  0  0
   26.0546  -20.4649  -12.2142 C   0  0  0  0  0  0  0  0  0  0  0  0
   26.2128  -19.3032  -12.7099 O   0  0  0  0  0  0  0  0  0  0  0  0
   20.0690  -20.4072  -14.7024 N   0  0  0  0  0  0  0  0  0  0  0  0
   21.4653  -20.3803  -14.9998 C   0  0  0  0  0  0  0  0  0  0  0  0
   21.9133  -21.2259  -15.8474 O   0  0  0  0  0  0  0  0  0  0  0  0
   22.3691  -19.4111  -14.3641 C   0  0  0  0  0  0  0  0  0  0  0  0
   23.5909  -20.0192  -13.7924 C   0  0  0  0  0  0  0  0  0  0  0  0
   23.5754  -20.1500  -12.3119 C   0  0  2  0  0  0  0  0  0  0  0  0
   24.7673  -20.9473  -11.9102 N   0  0  0  0  0  0  0  0  0  0  0  0
   22.4346  -20.7730  -11.6737 C   0  0  0  0  0  0  0  0  0  0  0  0
   22.3854  -22.0308  -11.5007 O   0  0  0  0  0  0  0  0  0  0  0  0
   21.3173  -20.0643  -11.1924 O   0  0  0  0  0  0  0  0  0  0  0  0
  2  1  1  0
  3  2  2  0
  4  5  1  0
  4  2  1  0
  5  6  1  6
  7  5  1  0
  7  8  2  0
  9  7  1  0
 10  9  1  0
 10 11  1  1
 12 11  1  0
 12 13  2  0
 14 13  1  0
 15 20  2  0
 15 14  1  0
 16 15  1  0
 17 18  1  0
 17 16  2  0
 18 19  2  0
 19 20  1  0
 20 12  1  0
 21 10  1  0
 22 21  2  0
 23 24  1  0
 24 26  1  0
 25 24  2  0
 27 26  1  0
 28 27  1  6
 28 29  1  0
 28 30  1  0
 29 21  1  0
 30 32  1  0
 31 30  2  0
M  END
$$$$
