NWQ.pdb
     RDKit          3D

 32 33  0  0  1  0  0  0  0  0999 V2000
   27.0757  -24.8886  -18.3338 N   0  0  0  0  0  0  0  0  0  0  0  0
   27.1627  -25.5386  -17.0720 C   0  0  0  0  0  0  0  0  0  0  0  0
   27.6949  -26.6747  -17.0134 O   0  0  0  0  0  0  0  0  0  0  0  0
   26.6552  -24.9383  -15.8270 C   0  0  0  0  0  0  0  0  0  0  0  0
   26.0204  -23.5948  -16.2135 C   0  0  2  0  0  0  0  0  0  0  0  0
   27.1083  -22.6426  -16.4737 N   0  0  0  0  0  0  0  0  0  0  0  0
   25.2428  -23.0797  -15.0652 C   0  0  0  0  0  0  0  0  0  0  0  0
   24.4071  -23.8192  -14.5060 O   0  0  0  0  0  0  0  0  0  0  0  0
   25.4182  -21.7483  -14.5672 N   0  0  0  0  0  0  0  0  0  0  0  0
   24.6496  -21.3389  -13.4317 C   0  0  1  0  0  0  0  0  0  0  0  0
   25.3324  -20.1055  -12.8658 C   0  0  0  0  0  0  0  0  0  0  0  0
   26.5040  -20.4289  -12.0193 C   0  0  0  0  0  0  0  0  0  0  0  0
   27.7945  -20.6994  -12.4766 C   0  0  0  0  0  0  0  0  0  0  0  0
   28.5767  -20.9514  -11.4180 N   0  0  0  0  0  0  0  0  0  0  0  0
   27.8360  -20.8519  -10.3071 C   0  0  0  0  0  0  0  0  0  0  0  0
   28.1666  -21.0158   -8.9734 C   0  0  0  0  0  0  0  0  0  0  0  0
   27.2091  -20.8553   -8.0027 C   0  0  0  0  0  0  0  0  0  0  0  0
   25.9209  -20.5340   -8.3211 C   0  0  0  0  0  0  0  0  0  0  0  0
   25.5862  -20.3700   -9.6439 C   0  0  0  0  0  0  0  0  0  0  0  0
   26.5221  -20.5233  -10.6475 C   0  0  0  0  0  0  0  0  0  0  0  0
   23.2549  -21.0403  -13.8375 C   0  0  0  0  0  0  0  0  0  0  0  0
   23.1213  -20.3671  -14.9095 O   0  0  0  0  0  0  0  0  0  0  0  0
   17.4131  -22.9004  -13.9379 N   0  0  0  0  0  0  0  0  0  0  0  0
   18.3377  -23.6176  -13.1198 C   0  0  0  0  0  0  0  0  0  0  0  0
   17.8709  -24.4985  -12.3197 O   0  0  0  0  0  0  0  0  0  0  0  0
   19.7842  -23.3661  -13.1907 C   0  0  0  0  0  0  0  0  0  0  0  0
   20.1641  -22.3396  -14.1864 C   0  0  0  0  0  0  0  0  0  0  0  0
   20.7660  -21.1125  -13.6025 C   0  0  2  0  0  0  0  0  0  0  0  0
   22.1267  -21.4608  -13.1076 N   0  0  0  0  0  0  0  0  0  0  0  0
   20.0901  -20.4524  -12.5049 C   0  0  0  0  0  0  0  0  0  0  0  0
   18.9828  -19.8545  -12.6805 O   0  0  0  0  0  0  0  0  0  0  0  0
   20.5767  -20.4232  -11.1840 O   0  0  0  0  0  0  0  0  0  0  0  0
  2  1  1  0
  3  2  2  0
  4  5  1  0
  4  2  1  0
  5  6  1  1
  7  5  1  0
  7  8  2  0
  9  7  1  0
 10  9  1  0
 10 11  1  6
 12 11  1  0
 12 13  2  0
 14 13  1  0
 15 20  2  0
 15 14  1  0
 16 15  1  0
 17 18  1  0
 17 16  2  0
 18 19  2  0
 19 20  1  0
 20 12  1  0
 21 10  1  0
 22 21  2  0
 23 24  1  0
 24 26  1  0
 25 24  2  0
 27 26  1  0
 28 27  1  1
 28 29  1  0
 28 30  1  0
 29 21  1  0
 30 32  1  0
 31 30  2  0
M  END
$$$$
