NWQ.pdb
     RDKit          3D

 32 33  0  0  1  0  0  0  0  0999 V2000
   18.1922  -20.2876  -13.3974 N   0  0  0  0  0  0  0  0  0  0  0  0
   19.3913  -21.0061  -13.6584 C   0  0  0  0  0  0  0  0  0  0  0  0
   19.3094  -22.2030  -14.0304 O   0  0  0  0  0  0  0  0  0  0  0  0
   20.7291  -20.4088  -13.5115 C   0  0  0  0  0  0  0  0  0  0  0  0
   21.2591  -20.8492  -12.1395 C   0  0  2  0  0  0  0  0  0  0  0  0
   20.5480  -20.0747  -11.1138 N   0  0  0  0  0  0  0  0  0  0  0  0
   22.6945  -20.5043  -12.0427 C   0  0  0  0  0  0  0  0  0  0  0  0
   23.0481  -19.3103  -12.1277 O   0  0  0  0  0  0  0  0  0  0  0  0
   23.7028  -21.5034  -11.8518 N   0  0  0  0  0  0  0  0  0  0  0  0
   25.0693  -21.0858  -11.7730 C   0  0  1  0  0  0  0  0  0  0  0  0
   25.7788  -22.0858  -10.8761 C   0  0  0  0  0  0  0  0  0  0  0  0
   27.0636  -21.5767  -10.3435 C   0  0  0  0  0  0  0  0  0  0  0  0
   28.3137  -21.7182  -10.9478 C   0  0  0  0  0  0  0  0  0  0  0  0
   29.2322  -21.1333  -10.1666 N   0  0  0  0  0  0  0  0  0  0  0  0
   28.6168  -20.6261   -9.0911 C   0  0  0  0  0  0  0  0  0  0  0  0
   29.1114  -19.9331   -8.0001 C   0  0  0  0  0  0  0  0  0  0  0  0
   28.2595  -19.5101   -7.0102 C   0  0  0  0  0  0  0  0  0  0  0  0
   26.9183  -19.7576   -7.0728 C   0  0  0  0  0  0  0  0  0  0  0  0
   26.4209  -20.4455   -8.1536 C   0  0  0  0  0  0  0  0  0  0  0  0
   27.2470  -20.8865   -9.1683 C   0  0  0  0  0  0  0  0  0  0  0  0
   25.6750  -21.0560  -13.1262 C   0  0  0  0  0  0  0  0  0  0  0  0
   25.3385  -22.0046  -13.9054 O   0  0  0  0  0  0  0  0  0  0  0  0
   28.8237  -16.3405  -16.1007 N   0  0  0  0  0  0  0  0  0  0  0  0
   27.4046  -16.4964  -16.0814 C   0  0  0  0  0  0  0  0  0  0  0  0
   26.6873  -15.4914  -16.4125 O   0  0  0  0  0  0  0  0  0  0  0  0
   26.7751  -17.7693  -15.7021 C   0  0  0  0  0  0  0  0  0  0  0  0
   27.7351  -18.7964  -15.2408 C   0  0  0  0  0  0  0  0  0  0  0  0
   27.1220  -20.1158  -14.9366 C   0  0  2  0  0  0  0  0  0  0  0  0
   26.5682  -20.0558  -13.5554 N   0  0  0  0  0  0  0  0  0  0  0  0
   27.9480  -21.3039  -14.9928 C   0  0  0  0  0  0  0  0  0  0  0  0
   27.7488  -22.2007  -15.8706 O   0  0  0  0  0  0  0  0  0  0  0  0
   29.0191  -21.5605  -14.1157 O   0  0  0  0  0  0  0  0  0  0  0  0
  2  1  1  0
  3  2  2  0
  4  5  1  0
  4  2  1  0
  5  6  1  1
  7  5  1  0
  7  8  2  0
  9  7  1  0
 10  9  1  0
 10 11  1  1
 12 11  1  0
 12 13  2  0
 14 13  1  0
 15 20  2  0
 15 14  1  0
 16 15  1  0
 17 18  1  0
 17 16  2  0
 18 19  2  0
 19 20  1  0
 20 12  1  0
 21 10  1  0
 22 21  2  0
 23 24  1  0
 24 26  1  0
 25 24  2  0
 27 26  1  0
 28 27  1  1
 28 29  1  0
 28 30  1  0
 29 21  1  0
 30 32  1  0
 31 30  2  0
M  END
$$$$
