NWQ.pdb
     RDKit          3D

 32 33  0  0  1  0  0  0  0  0999 V2000
   25.8536  -22.2427  -18.7694 N   0  0  0  0  0  0  0  0  0  0  0  0
   26.1318  -21.6171  -17.5231 C   0  0  0  0  0  0  0  0  0  0  0  0
   27.0895  -20.8075  -17.4542 O   0  0  0  0  0  0  0  0  0  0  0  0
   25.3456  -21.8766  -16.3054 C   0  0  0  0  0  0  0  0  0  0  0  0
   26.3296  -22.4010  -15.2501 C   0  0  2  0  0  0  0  0  0  0  0  0
   26.5676  -23.8241  -15.5259 N   0  0  0  0  0  0  0  0  0  0  0  0
   25.7016  -22.3053  -13.9140 C   0  0  0  0  0  0  0  0  0  0  0  0
   24.9999  -23.2485  -13.4944 O   0  0  0  0  0  0  0  0  0  0  0  0
   25.8732  -21.1563  -13.0763 N   0  0  0  0  0  0  0  0  0  0  0  0
   25.0548  -21.0361  -11.9087 C   0  0  1  0  0  0  0  0  0  0  0  0
   25.7789  -20.0910  -10.9652 C   0  0  0  0  0  0  0  0  0  0  0  0
   27.0132  -20.6765  -10.3931 C   0  0  0  0  0  0  0  0  0  0  0  0
   27.9712  -21.4113  -11.0931 C   0  0  0  0  0  0  0  0  0  0  0  0
   28.9364  -21.7755  -10.2376 N   0  0  0  0  0  0  0  0  0  0  0  0
   28.6308  -21.3021   -9.0231 C   0  0  0  0  0  0  0  0  0  0  0  0
   29.2941  -21.4012   -7.8126 C   0  0  0  0  0  0  0  0  0  0  0  0
   28.7654  -20.8164   -6.6887 C   0  0  0  0  0  0  0  0  0  0  0  0
   27.5861  -20.1297   -6.7324 C   0  0  0  0  0  0  0  0  0  0  0  0
   26.9225  -20.0278   -7.9315 C   0  0  0  0  0  0  0  0  0  0  0  0
   27.4234  -20.6028   -9.0826 C   0  0  0  0  0  0  0  0  0  0  0  0
   23.7172  -20.5093  -12.2723 C   0  0  0  0  0  0  0  0  0  0  0  0
   23.6851  -19.7173  -13.2682 O   0  0  0  0  0  0  0  0  0  0  0  0
   21.3628  -24.5095  -14.7902 N   0  0  0  0  0  0  0  0  0  0  0  0
   20.1259  -23.8238  -14.5934 C   0  0  0  0  0  0  0  0  0  0  0  0
   19.0762  -24.3161  -15.1316 O   0  0  0  0  0  0  0  0  0  0  0  0
   20.0468  -22.5935  -13.7929 C   0  0  0  0  0  0  0  0  0  0  0  0
   21.3108  -22.2443  -13.1075 C   0  0  0  0  0  0  0  0  0  0  0  0
   21.2604  -20.9730  -12.3391 C   0  0  2  0  0  0  0  0  0  0  0  0
   22.5366  -20.8445  -11.5823 N   0  0  0  0  0  0  0  0  0  0  0  0
   20.1954  -20.7748  -11.3782 C   0  0  0  0  0  0  0  0  0  0  0  0
   19.2083  -20.0185  -11.6393 O   0  0  0  0  0  0  0  0  0  0  0  0
   20.1521  -21.3903  -10.1127 O   0  0  0  0  0  0  0  0  0  0  0  0
  2  1  1  0
  3  2  2  0
  4  5  1  0
  4  2  1  0
  5  6  1  6
  7  5  1  0
  7  8  2  0
  9  7  1  0
 10  9  1  0
 10 11  1  1
 12 11  1  0
 12 13  2  0
 14 13  1  0
 15 20  2  0
 15 14  1  0
 16 15  1  0
 17 18  1  0
 17 16  2  0
 18 19  2  0
 19 20  1  0
 20 12  1  0
 21 10  1  0
 22 21  2  0
 23 24  1  0
 24 26  1  0
 25 24  2  0
 27 26  1  0
 28 27  1  1
 28 29  1  0
 28 30  1  0
 29 21  1  0
 30 32  1  0
 31 30  2  0
M  END
$$$$
