NWQ.pdb
     RDKit          3D

 32 33  0  0  1  0  0  0  0  0999 V2000
   19.7591  -22.0143  -12.3017 N   0  0  0  0  0  0  0  0  0  0  0  0
   20.2242  -20.9321  -11.5049 C   0  0  0  0  0  0  0  0  0  0  0  0
   19.4614  -20.4566  -10.6277 O   0  0  0  0  0  0  0  0  0  0  0  0
   21.5637  -20.3415  -11.6624 C   0  0  0  0  0  0  0  0  0  0  0  0
   22.2091  -21.0316  -12.8725 C   0  0  2  0  0  0  0  0  0  0  0  0
   22.3110  -22.4655  -12.5700 N   0  0  0  0  0  0  0  0  0  0  0  0
   23.5841  -20.5144  -13.0472 C   0  0  0  0  0  0  0  0  0  0  0  0
   23.7585  -19.3099  -13.3239 O   0  0  0  0  0  0  0  0  0  0  0  0
   24.7341  -21.3567  -12.9075 N   0  0  0  0  0  0  0  0  0  0  0  0
   26.0115  -20.8336  -13.2848 C   0  0  1  0  0  0  0  0  0  0  0  0
   26.9809  -21.2121  -12.1781 C   0  0  0  0  0  0  0  0  0  0  0  0
   26.7658  -20.4425  -10.9311 C   0  0  0  0  0  0  0  0  0  0  0  0
   26.0279  -19.2637  -10.8137 C   0  0  0  0  0  0  0  0  0  0  0  0
   26.0662  -18.8636   -9.5353 N   0  0  0  0  0  0  0  0  0  0  0  0
   26.7980  -19.7398   -8.8359 C   0  0  0  0  0  0  0  0  0  0  0  0
   27.1357  -19.7799   -7.4944 C   0  0  0  0  0  0  0  0  0  0  0  0
   27.9118  -20.8040   -7.0109 C   0  0  0  0  0  0  0  0  0  0  0  0
   28.3665  -21.7985   -7.8283 C   0  0  0  0  0  0  0  0  0  0  0  0
   28.0347  -21.7643   -9.1616 C   0  0  0  0  0  0  0  0  0  0  0  0
   27.2563  -20.7504   -9.6838 C   0  0  0  0  0  0  0  0  0  0  0  0
   26.4349  -21.4043  -14.5863 C   0  0  0  0  0  0  0  0  0  0  0  0
   25.8851  -22.5043  -14.9147 O   0  0  0  0  0  0  0  0  0  0  0  0
   23.2711  -18.4032  -17.0147 N   0  0  0  0  0  0  0  0  0  0  0  0
   23.3891  -19.6828  -17.6371 C   0  0  0  0  0  0  0  0  0  0  0  0
   22.3745  -20.1375  -18.2680 O   0  0  0  0  0  0  0  0  0  0  0  0
   24.6347  -20.4600  -17.5688 C   0  0  0  0  0  0  0  0  0  0  0  0
   25.7299  -19.7716  -16.8506 C   0  0  0  0  0  0  0  0  0  0  0  0
   27.0200  -20.5098  -16.8474 C   0  0  2  0  0  0  0  0  0  0  0  0
   27.3816  -20.7938  -15.4309 N   0  0  0  0  0  0  0  0  0  0  0  0
   28.1838  -19.8927  -17.4489 C   0  0  0  0  0  0  0  0  0  0  0  0
   28.8467  -20.4868  -18.3557 O   0  0  0  0  0  0  0  0  0  0  0  0
   28.6651  -18.6156  -17.1032 O   0  0  0  0  0  0  0  0  0  0  0  0
  2  1  1  0
  3  2  2  0
  4  5  1  0
  4  2  1  0
  5  6  1  1
  7  5  1  0
  7  8  2  0
  9  7  1  0
 10  9  1  0
 10 11  1  1
 12 11  1  0
 12 13  2  0
 14 13  1  0
 15 20  2  0
 15 14  1  0
 16 15  1  0
 17 18  1  0
 17 16  2  0
 18 19  2  0
 19 20  1  0
 20 12  1  0
 21 10  1  0
 22 21  2  0
 23 24  1  0
 24 26  1  0
 25 24  2  0
 27 26  1  0
 28 27  1  1
 28 29  1  0
 28 30  1  0
 29 21  1  0
 30 32  1  0
 31 30  2  0
M  END
$$$$
