NWQ.pdb
     RDKit          3D

 32 33  0  0  1  0  0  0  0  0999 V2000
   29.3982  -17.8343  -15.0025 N   0  0  0  0  0  0  0  0  0  0  0  0
   28.0828  -18.1051  -15.4699 C   0  0  0  0  0  0  0  0  0  0  0  0
   27.6479  -17.4610  -16.4565 O   0  0  0  0  0  0  0  0  0  0  0  0
   27.2044  -19.1096  -14.8474 C   0  0  0  0  0  0  0  0  0  0  0  0
   28.0229  -19.7809  -13.7355 C   0  0  2  0  0  0  0  0  0  0  0  0
   28.9311  -20.7471  -14.3675 N   0  0  0  0  0  0  0  0  0  0  0  0
   27.1089  -20.5398  -12.8537 C   0  0  0  0  0  0  0  0  0  0  0  0
   26.6370  -21.6270  -13.2452 O   0  0  0  0  0  0  0  0  0  0  0  0
   26.7438  -20.0656  -11.5525 N   0  0  0  0  0  0  0  0  0  0  0  0
   25.7862  -20.8152  -10.7983 C   0  0  1  0  0  0  0  0  0  0  0  0
   25.8914  -20.3342   -9.3611 C   0  0  0  0  0  0  0  0  0  0  0  0
   27.2202  -20.5917   -8.7597 C   0  0  0  0  0  0  0  0  0  0  0  0
   28.2509  -21.3332   -9.3389 C   0  0  0  0  0  0  0  0  0  0  0  0
   29.2911  -21.3475   -8.4940 N   0  0  0  0  0  0  0  0  0  0  0  0
   28.9633  -20.6454   -7.4021 C   0  0  0  0  0  0  0  0  0  0  0  0
   29.6788  -20.3619   -6.2519 C   0  0  0  0  0  0  0  0  0  0  0  0
   29.1105  -19.6049   -5.2576 C   0  0  0  0  0  0  0  0  0  0  0  0
   27.8407  -19.1168   -5.3733 C   0  0  0  0  0  0  0  0  0  0  0  0
   27.1249  -19.3950   -6.5130 C   0  0  0  0  0  0  0  0  0  0  0  0
   27.6633  -20.1529   -7.5340 C   0  0  0  0  0  0  0  0  0  0  0  0
   24.4227  -20.5953  -11.3383 C   0  0  0  0  0  0  0  0  0  0  0  0
   24.0359  -19.3838  -11.3911 O   0  0  0  0  0  0  0  0  0  0  0  0
   23.9056  -25.4246  -14.0689 N   0  0  0  0  0  0  0  0  0  0  0  0
   23.0087  -24.3951  -14.4865 C   0  0  0  0  0  0  0  0  0  0  0  0
   22.8752  -24.1900  -15.7412 O   0  0  0  0  0  0  0  0  0  0  0  0
   22.2508  -23.5937  -13.5150 C   0  0  0  0  0  0  0  0  0  0  0  0
   22.3186  -22.1361  -13.7604 C   0  0  0  0  0  0  0  0  0  0  0  0
   22.3406  -21.3072  -12.5269 C   0  0  2  0  0  0  0  0  0  0  0  0
   23.5831  -21.6376  -11.7753 N   0  0  0  0  0  0  0  0  0  0  0  0
   21.2496  -21.4251  -11.5820 C   0  0  0  0  0  0  0  0  0  0  0  0
   20.0878  -20.9947  -11.8639 O   0  0  0  0  0  0  0  0  0  0  0  0
   21.3698  -22.0177  -10.3105 O   0  0  0  0  0  0  0  0  0  0  0  0
  2  1  1  0
  3  2  2  0
  4  5  1  0
  4  2  1  0
  5  6  1  6
  7  5  1  0
  7  8  2  0
  9  7  1  0
 10  9  1  0
 10 11  1  1
 12 11  1  0
 12 13  2  0
 14 13  1  0
 15 20  2  0
 15 14  1  0
 16 15  1  0
 17 18  1  0
 17 16  2  0
 18 19  2  0
 19 20  1  0
 20 12  1  0
 21 10  1  0
 22 21  2  0
 23 24  1  0
 24 26  1  0
 25 24  2  0
 27 26  1  0
 28 27  1  6
 28 29  1  0
 28 30  1  0
 29 21  1  0
 30 32  1  0
 31 30  2  0
M  END
$$$$
