NWQ.pdb
     RDKit          3D

 32 33  0  0  1  0  0  0  0  0999 V2000
   25.6812  -24.1163  -20.3337 N   0  0  0  0  0  0  0  0  0  0  0  0
   25.6377  -23.2007  -19.2465 C   0  0  0  0  0  0  0  0  0  0  0  0
   25.6805  -21.9696  -19.4916 O   0  0  0  0  0  0  0  0  0  0  0  0
   25.5449  -23.6320  -17.8417 C   0  0  0  0  0  0  0  0  0  0  0  0
   26.5187  -22.7513  -17.0460 C   0  0  2  0  0  0  0  0  0  0  0  0
   27.8315  -23.4103  -17.0571 N   0  0  0  0  0  0  0  0  0  0  0  0
   26.0674  -22.6812  -15.6389 C   0  0  0  0  0  0  0  0  0  0  0  0
   25.6647  -23.7161  -15.0690 O   0  0  0  0  0  0  0  0  0  0  0  0
   26.0775  -21.4543  -14.8999 N   0  0  0  0  0  0  0  0  0  0  0  0
   25.6846  -21.4844  -13.5243 C   0  0  1  0  0  0  0  0  0  0  0  0
   26.5912  -20.5103  -12.7914 C   0  0  0  0  0  0  0  0  0  0  0  0
   26.2854  -20.4098  -11.3457 C   0  0  0  0  0  0  0  0  0  0  0  0
   25.0373  -20.1228  -10.7911 C   0  0  0  0  0  0  0  0  0  0  0  0
   25.1572  -20.1128   -9.4564 N   0  0  0  0  0  0  0  0  0  0  0  0
   26.4301  -20.3818   -9.1405 C   0  0  0  0  0  0  0  0  0  0  0  0
   27.0622  -20.4873   -7.9139 C   0  0  0  0  0  0  0  0  0  0  0  0
   28.4024  -20.7790   -7.8537 C   0  0  0  0  0  0  0  0  0  0  0  0
   29.1399  -20.9707   -8.9866 C   0  0  0  0  0  0  0  0  0  0  0  0
   28.5180  -20.8671  -10.2078 C   0  0  0  0  0  0  0  0  0  0  0  0
   27.1721  -20.5752  -10.3077 C   0  0  0  0  0  0  0  0  0  0  0  0
   24.2600  -21.0954  -13.3894 C   0  0  0  0  0  0  0  0  0  0  0  0
   23.8757  -20.1329  -14.1285 O   0  0  0  0  0  0  0  0  0  0  0  0
   19.7352  -24.4549  -10.4024 N   0  0  0  0  0  0  0  0  0  0  0  0
   19.0192  -23.4364  -11.1014 C   0  0  0  0  0  0  0  0  0  0  0  0
   17.7481  -23.4010  -10.9708 O   0  0  0  0  0  0  0  0  0  0  0  0
   19.7103  -22.4486  -11.9423 C   0  0  0  0  0  0  0  0  0  0  0  0
   21.1856  -22.5523  -11.8960 C   0  0  0  0  0  0  0  0  0  0  0  0
   21.8983  -21.5077  -12.6771 C   0  0  2  0  0  0  0  0  0  0  0  0
   23.3614  -21.7300  -12.5107 N   0  0  0  0  0  0  0  0  0  0  0  0
   21.6603  -20.1135  -12.3664 C   0  0  0  0  0  0  0  0  0  0  0  0
   22.1225  -19.5895  -11.3052 O   0  0  0  0  0  0  0  0  0  0  0  0
   20.9283  -19.2371  -13.1901 O   0  0  0  0  0  0  0  0  0  0  0  0
  2  1  1  0
  3  2  2  0
  4  5  1  0
  4  2  1  0
  5  6  1  1
  7  5  1  0
  7  8  2  0
  9  7  1  0
 10  9  1  0
 10 11  1  1
 12 11  1  0
 12 13  2  0
 14 13  1  0
 15 20  2  0
 15 14  1  0
 16 15  1  0
 17 18  1  0
 17 16  2  0
 18 19  2  0
 19 20  1  0
 20 12  1  0
 21 10  1  0
 22 21  2  0
 23 24  1  0
 24 26  1  0
 25 24  2  0
 27 26  1  0
 28 27  1  1
 28 29  1  0
 28 30  1  0
 29 21  1  0
 30 32  1  0
 31 30  2  0
M  END
$$$$
