TLY.pdb
     RDKit          3D

 28 28  0  0  1  0  0  0  0  0999 V2000
   28.1222  -19.1345  -17.2509 C   0  0  0  0  0  0  0  0  0  0  0  0
   27.1222  -19.6916  -16.2945 C   0  0  1  0  0  0  0  0  0  0  0  0
   25.8451  -19.7924  -16.8569 O   0  0  0  0  0  0  0  0  0  0  0  0
   27.4830  -21.0339  -15.7242 C   0  0  2  0  0  0  0  0  0  0  0  0
   27.6480  -22.0227  -16.7529 N   0  0  0  0  0  0  0  0  0  0  0  0
   26.5759  -21.4750  -14.6471 C   0  0  0  0  0  0  0  0  0  0  0  0
   25.7360  -22.4004  -14.7939 O   0  0  0  0  0  0  0  0  0  0  0  0
   26.3094  -20.7632   -8.4640 C   0  0  0  0  0  0  0  0  0  0  0  0
   25.7233  -21.1919   -9.7596 C   0  0  1  0  0  0  0  0  0  0  0  0
   24.3385  -20.5584   -9.8723 C   0  0  0  0  0  0  0  0  0  0  0  0
   26.4641  -20.8783  -10.9877 C   0  0  0  0  0  0  0  0  0  0  0  0
   25.7703  -21.1294  -12.2884 C   0  0  2  0  0  0  0  0  0  0  0  0
   26.6433  -20.8434  -13.4009 N   0  0  0  0  0  0  0  0  0  0  0  0
   24.4609  -20.4480  -12.3761 C   0  0  0  0  0  0  0  0  0  0  0  0
   24.4323  -19.1987  -12.2878 O   0  0  0  0  0  0  0  0  0  0  0  0
   18.4202  -18.2689  -18.0476 O   0  0  0  0  0  0  0  0  0  0  0  0
   19.4376  -18.7803  -17.2569 C   0  0  0  0  0  0  0  0  0  0  0  0
   19.6593  -20.1336  -17.1289 C   0  0  0  0  0  0  0  0  0  0  0  0
   20.6835  -20.5747  -16.3304 C   0  0  0  0  0  0  0  0  0  0  0  0
   21.5305  -19.7152  -15.6262 C   0  0  0  0  0  0  0  0  0  0  0  0
   22.6197  -20.2415  -14.7697 C   0  0  0  0  0  0  0  0  0  0  0  0
   22.1390  -20.5843  -13.3814 C   0  0  2  0  0  0  0  0  0  0  0  0
   23.2130  -21.1016  -12.5551 N   0  0  0  0  0  0  0  0  0  0  0  0
   21.0182  -21.5358  -13.3397 C   0  0  0  0  0  0  0  0  0  0  0  0
   19.8671  -21.1063  -13.0941 O   0  0  0  0  0  0  0  0  0  0  0  0
   21.2823  -18.3714  -15.7754 C   0  0  0  0  0  0  0  0  0  0  0  0
   20.2593  -17.9049  -16.5723 C   0  0  0  0  0  0  0  0  0  0  0  0
   21.1468  -22.8989  -13.5576 O   0  0  0  0  0  0  0  0  0  0  0  0
  2  1  1  6
  2  3  1  0
  2  4  1  0
  4  5  1  6
  6  4  1  0
  6  7  2  0
  9  8  1  1
  9 11  1  0
  9 10  1  0
 12 11  1  1
 12 13  1  0
 13  6  1  0
 14 12  1  0
 15 14  2  0
 16 17  1  0
 17 27  2  0
 17 18  1  0
 18 19  2  0
 19 20  1  0
 20 21  1  0
 22 21  1  6
 22 23  1  0
 22 24  1  0
 23 14  1  0
 24 28  1  0
 25 24  2  0
 26 20  2  0
 27 26  1  0
M  END
$$$$
