TLY.pdb
     RDKit          3D

 28 28  0  0  1  0  0  0  0  0999 V2000
   25.7412  -18.8672  -17.3694 C   0  0  0  0  0  0  0  0  0  0  0  0
   26.0698  -19.9373  -18.3552 C   0  0  1  0  0  0  0  0  0  0  0  0
   26.3522  -19.4236  -19.6256 O   0  0  0  0  0  0  0  0  0  0  0  0
   27.2106  -20.8286  -17.9535 C   0  0  2  0  0  0  0  0  0  0  0  0
   27.4150  -21.8908  -18.8986 N   0  0  0  0  0  0  0  0  0  0  0  0
   27.1141  -21.3114  -16.5624 C   0  0  0  0  0  0  0  0  0  0  0  0
   26.3846  -22.2782  -16.2211 O   0  0  0  0  0  0  0  0  0  0  0  0
   28.8668  -22.1043  -11.4576 C   0  0  0  0  0  0  0  0  0  0  0  0
   29.0229  -20.7224  -11.9789 C   0  0  1  0  0  0  0  0  0  0  0  0
   30.3524  -20.1800  -11.4590 C   0  0  0  0  0  0  0  0  0  0  0  0
   28.9945  -20.5281  -13.4338 C   0  0  0  0  0  0  0  0  0  0  0  0
   27.7543  -20.9481  -14.1561 C   0  0  2  0  0  0  0  0  0  0  0  0
   27.8634  -20.6735  -15.5683 N   0  0  0  0  0  0  0  0  0  0  0  0
   26.5251  -20.4013  -13.5424 C   0  0  0  0  0  0  0  0  0  0  0  0
   26.2367  -19.2008  -13.7540 O   0  0  0  0  0  0  0  0  0  0  0  0
   18.2993  -18.9740  -11.0272 O   0  0  0  0  0  0  0  0  0  0  0  0
   19.4962  -19.4837  -11.5062 C   0  0  0  0  0  0  0  0  0  0  0  0
   20.2230  -18.8511  -12.4904 C   0  0  0  0  0  0  0  0  0  0  0  0
   21.4002  -19.4084  -12.9202 C   0  0  0  0  0  0  0  0  0  0  0  0
   21.9144  -20.6024  -12.4085 C   0  0  0  0  0  0  0  0  0  0  0  0
   23.1886  -21.1683  -12.9117 C   0  0  0  0  0  0  0  0  0  0  0  0
   24.3881  -20.5991  -12.1953 C   0  0  2  0  0  0  0  0  0  0  0  0
   25.6296  -21.1350  -12.7201 N   0  0  0  0  0  0  0  0  0  0  0  0
   24.3770  -20.7898  -10.7369 C   0  0  0  0  0  0  0  0  0  0  0  0
   24.8996  -21.8223  -10.2566 O   0  0  0  0  0  0  0  0  0  0  0  0
   21.1649  -21.2083  -11.4282 C   0  0  0  0  0  0  0  0  0  0  0  0
   19.9793  -20.6670  -10.9803 C   0  0  0  0  0  0  0  0  0  0  0  0
   23.8202  -19.8918   -9.8394 O   0  0  0  0  0  0  0  0  0  0  0  0
  2  1  1  1
  2  3  1  0
  2  4  1  0
  4  5  1  6
  6  4  1  0
  6  7  2  0
  9  8  1  6
  9 11  1  0
  9 10  1  0
 12 11  1  1
 12 13  1  0
 13  6  1  0
 14 12  1  0
 15 14  2  0
 16 17  1  0
 17 27  2  0
 17 18  1  0
 18 19  2  0
 19 20  1  0
 20 21  1  0
 22 21  1  6
 22 23  1  0
 22 24  1  0
 23 14  1  0
 24 28  1  0
 25 24  2  0
 26 20  2  0
 27 26  1  0
M  END
$$$$
