TLY.pdb
     RDKit          3D

 28 28  0  0  1  0  0  0  0  0999 V2000
   21.1130  -20.7960  -17.4399 C   0  0  0  0  0  0  0  0  0  0  0  0
   21.5595  -21.8124  -18.4362 C   0  0  1  0  0  0  0  0  0  0  0  0
   20.7217  -21.8659  -19.5555 O   0  0  0  0  0  0  0  0  0  0  0  0
   22.9695  -21.6333  -18.9229 C   0  0  2  0  0  0  0  0  0  0  0  0
   23.3187  -22.6115  -19.9151 N   0  0  0  0  0  0  0  0  0  0  0  0
   23.9589  -21.5474  -17.8314 C   0  0  0  0  0  0  0  0  0  0  0  0
   24.5100  -22.5586  -17.3243 O   0  0  0  0  0  0  0  0  0  0  0  0
   28.1586  -17.4503  -16.0599 C   0  0  0  0  0  0  0  0  0  0  0  0
   27.2542  -18.5758  -15.7118 C   0  0  1  0  0  0  0  0  0  0  0  0
   26.5542  -18.2180  -14.4027 C   0  0  0  0  0  0  0  0  0  0  0  0
   26.2233  -18.9570  -16.6851 C   0  0  0  0  0  0  0  0  0  0  0  0
   25.2937  -20.0631  -16.2995 C   0  0  2  0  0  0  0  0  0  0  0  0
   24.3086  -20.2898  -17.3290 N   0  0  0  0  0  0  0  0  0  0  0  0
   24.7083  -19.8722  -14.9551 C   0  0  0  0  0  0  0  0  0  0  0  0
   24.1062  -18.8005  -14.7141 O   0  0  0  0  0  0  0  0  0  0  0  0
   26.3416  -20.7869   -6.5055 O   0  0  0  0  0  0  0  0  0  0  0  0
   26.0421  -20.4564   -7.8182 C   0  0  0  0  0  0  0  0  0  0  0  0
   26.9711  -19.8925   -8.6644 C   0  0  0  0  0  0  0  0  0  0  0  0
   26.6105  -19.5891   -9.9524 C   0  0  0  0  0  0  0  0  0  0  0  0
   25.3322  -19.8230  -10.4655 C   0  0  0  0  0  0  0  0  0  0  0  0
   24.9892  -19.4705  -11.8638 C   0  0  0  0  0  0  0  0  0  0  0  0
   24.2468  -20.5802  -12.5663 C   0  0  2  0  0  0  0  0  0  0  0  0
   24.7724  -20.8174  -13.8972 N   0  0  0  0  0  0  0  0  0  0  0  0
   22.7938  -20.3754  -12.6679 C   0  0  0  0  0  0  0  0  0  0  0  0
   22.3453  -19.6660  -13.5981 O   0  0  0  0  0  0  0  0  0  0  0  0
   24.4292  -20.3862   -9.5954 C   0  0  0  0  0  0  0  0  0  0  0  0
   24.7686  -20.6998   -8.2970 C   0  0  0  0  0  0  0  0  0  0  0  0
   21.8683  -20.9220  -11.7924 O   0  0  0  0  0  0  0  0  0  0  0  0
  2  1  1  1
  2  3  1  0
  2  4  1  0
  4  5  1  6
  6  4  1  0
  6  7  2  0
  9  8  1  6
  9 11  1  0
  9 10  1  0
 12 11  1  6
 12 13  1  0
 13  6  1  0
 14 12  1  0
 15 14  2  0
 16 17  1  0
 17 27  2  0
 17 18  1  0
 18 19  2  0
 19 20  1  0
 20 21  1  0
 22 21  1  6
 22 23  1  0
 22 24  1  0
 23 14  1  0
 24 28  1  0
 25 24  2  0
 26 20  2  0
 27 26  1  0
M  END
$$$$
