TLY.pdb
     RDKit          3D

 28 28  0  0  1  0  0  0  0  0999 V2000
   18.2370  -27.2493   -8.6042 C   0  0  0  0  0  0  0  0  0  0  0  0
   18.2896  -25.8514   -9.1219 C   0  0  1  0  0  0  0  0  0  0  0  0
   17.2872  -25.5933  -10.0632 O   0  0  0  0  0  0  0  0  0  0  0  0
   18.2128  -24.7890   -8.0624 C   0  0  2  0  0  0  0  0  0  0  0  0
   16.9332  -24.7791   -7.4100 N   0  0  0  0  0  0  0  0  0  0  0  0
   18.6210  -23.4543   -8.5414 C   0  0  0  0  0  0  0  0  0  0  0  0
   17.7968  -22.5561   -8.8535 O   0  0  0  0  0  0  0  0  0  0  0  0
   22.3289  -19.2894   -8.8571 C   0  0  0  0  0  0  0  0  0  0  0  0
   22.6802  -20.6298   -9.3917 C   0  0  1  0  0  0  0  0  0  0  0  0
   24.1753  -20.8408   -9.1635 C   0  0  0  0  0  0  0  0  0  0  0  0
   21.9720  -21.7952   -8.8478 C   0  0  0  0  0  0  0  0  0  0  0  0
   20.5155  -21.9191   -9.1628 C   0  0  2  0  0  0  0  0  0  0  0  0
   19.9838  -23.1618   -8.6581 N   0  0  0  0  0  0  0  0  0  0  0  0
   20.2207  -21.6895  -10.5935 C   0  0  0  0  0  0  0  0  0  0  0  0
   20.3420  -22.6501  -11.3884 O   0  0  0  0  0  0  0  0  0  0  0  0
   17.6352  -18.1076  -18.2944 O   0  0  0  0  0  0  0  0  0  0  0  0
   17.8976  -18.3384  -16.9528 C   0  0  0  0  0  0  0  0  0  0  0  0
   17.2843  -19.3501  -16.2475 C   0  0  0  0  0  0  0  0  0  0  0  0
   17.5883  -19.5254  -14.9217 C   0  0  0  0  0  0  0  0  0  0  0  0
   18.5006  -18.7228  -14.2321 C   0  0  0  0  0  0  0  0  0  0  0  0
   18.7901  -18.9482  -12.7960 C   0  0  0  0  0  0  0  0  0  0  0  0
   19.5005  -20.2572  -12.5557 C   0  0  2  0  0  0  0  0  0  0  0  0
   19.8049  -20.4514  -11.1509 N   0  0  0  0  0  0  0  0  0  0  0  0
   20.7387  -20.4324  -13.3301 C   0  0  0  0  0  0  0  0  0  0  0  0
   21.8023  -19.9348  -12.8932 O   0  0  0  0  0  0  0  0  0  0  0  0
   19.0946  -17.7226  -14.9647 C   0  0  0  0  0  0  0  0  0  0  0  0
   18.8051  -17.5275  -16.2978 C   0  0  0  0  0  0  0  0  0  0  0  0
   20.8143  -21.1223  -14.5302 O   0  0  0  0  0  0  0  0  0  0  0  0
  2  1  1  1
  2  3  1  0
  2  4  1  0
  4  5  1  6
  6  4  1  0
  6  7  2  0
  9  8  1  1
  9 11  1  0
  9 10  1  0
 12 11  1  6
 12 13  1  0
 13  6  1  0
 14 12  1  0
 15 14  2  0
 16 17  1  0
 17 27  2  0
 17 18  1  0
 18 19  2  0
 19 20  1  0
 20 21  1  0
 22 21  1  1
 22 23  1  0
 22 24  1  0
 23 14  1  0
 24 28  1  0
 25 24  2  0
 26 20  2  0
 27 26  1  0
M  END
$$$$
