TLY.pdb
     RDKit          3D

 28 28  0  0  1  0  0  0  0  0999 V2000
   20.9082   -8.4783  -20.8667 C   0  0  0  0  0  0  0  0  0  0  0  0
   21.7859   -9.5039  -20.2318 C   0  0  1  0  0  0  0  0  0  0  0  0
   22.5552  -10.2015  -21.1694 O   0  0  0  0  0  0  0  0  0  0  0  0
   22.7146   -8.9672  -19.1799 C   0  0  2  0  0  0  0  0  0  0  0  0
   23.7490   -9.9084  -18.8524 N   0  0  0  0  0  0  0  0  0  0  0  0
   22.0135   -8.4504  -17.9888 C   0  0  0  0  0  0  0  0  0  0  0  0
   21.0146   -7.6882  -18.0579 O   0  0  0  0  0  0  0  0  0  0  0  0
   20.4653   -8.8333  -12.7382 C   0  0  0  0  0  0  0  0  0  0  0  0
   21.9285   -8.7728  -12.9857 C   0  0  1  0  0  0  0  0  0  0  0  0
   22.6071   -9.6890  -11.9700 C   0  0  0  0  0  0  0  0  0  0  0  0
   22.4166   -9.1396  -14.3209 C   0  0  0  0  0  0  0  0  0  0  0  0
   21.9192   -8.3320  -15.4770 C   0  0  2  0  0  0  0  0  0  0  0  0
   22.4704   -8.8176  -16.7188 N   0  0  0  0  0  0  0  0  0  0  0  0
   22.1047   -6.8786  -15.2780 C   0  0  0  0  0  0  0  0  0  0  0  0
   23.2342   -6.3858  -15.5029 O   0  0  0  0  0  0  0  0  0  0  0  0
   21.6677    1.5060  -17.0323 O   0  0  0  0  0  0  0  0  0  0  0  0
   21.6169    0.1288  -16.8824 C   0  0  0  0  0  0  0  0  0  0  0  0
   20.4555   -0.5883  -17.0673 C   0  0  0  0  0  0  0  0  0  0  0  0
   20.4727   -1.9499  -16.9035 C   0  0  0  0  0  0  0  0  0  0  0  0
   21.6208   -2.6651  -16.5536 C   0  0  0  0  0  0  0  0  0  0  0  0
   21.5865   -4.1368  -16.3814 C   0  0  0  0  0  0  0  0  0  0  0  0
   21.1772   -4.5387  -14.9860 C   0  0  2  0  0  0  0  0  0  0  0  0
   21.0932   -5.9800  -14.8466 N   0  0  0  0  0  0  0  0  0  0  0  0
   19.9095   -3.9508  -14.5272 C   0  0  0  0  0  0  0  0  0  0  0  0
   19.8462   -2.7127  -14.3453 O   0  0  0  0  0  0  0  0  0  0  0  0
   22.7624   -1.9198  -16.3764 C   0  0  0  0  0  0  0  0  0  0  0  0
   22.7693   -0.5509  -16.5357 C   0  0  0  0  0  0  0  0  0  0  0  0
   18.7583   -4.6820  -14.2780 O   0  0  0  0  0  0  0  0  0  0  0  0
  2  1  1  6
  2  3  1  0
  2  4  1  0
  4  5  1  1
  6  4  1  0
  6  7  2  0
  9  8  1  6
  9 11  1  0
  9 10  1  0
 12 11  1  1
 12 13  1  0
 13  6  1  0
 14 12  1  0
 15 14  2  0
 16 17  1  0
 17 27  2  0
 17 18  1  0
 18 19  2  0
 19 20  1  0
 20 21  1  0
 22 21  1  6
 22 23  1  0
 22 24  1  0
 23 14  1  0
 24 28  1  0
 25 24  2  0
 26 20  2  0
 27 26  1  0
M  END
$$$$
