CCC.pdb
     RDKit          3D

 19 18  0  0  1  0  0  0  0  0999 V2000
    9.0904  -17.6939   21.2052 N   0  0  0  0  0  0  0  0  0  0  0  0
    9.6582  -16.3891   20.9291 C   0  0  1  0  0  0  0  0  0  0  0  0
    9.0651  -15.7910   19.6736 C   0  0  0  0  0  0  0  0  0  0  0  0
    8.7537  -17.0380   18.4133 S   0  0  0  0  0  0  0  0  0  0  0  0
    9.3595  -15.5049   22.0896 C   0  0  0  0  0  0  0  0  0  0  0  0
    9.7344  -14.3025   22.1114 O   0  0  0  0  0  0  0  0  0  0  0  0
    8.6417  -15.9715   23.2214 N   0  0  0  0  0  0  0  0  0  0  0  0
    8.4519  -15.1186   24.4222 C   0  0  1  0  0  0  0  0  0  0  0  0
    6.9910  -15.1761   24.8118 C   0  0  0  0  0  0  0  0  0  0  0  0
    6.5456  -13.9853   26.0841 S   0  0  0  0  0  0  0  0  0  0  0  0
    9.3702  -15.5686   25.4937 C   0  0  0  0  0  0  0  0  0  0  0  0
   10.0134  -16.6653   25.3015 O   0  0  0  0  0  0  0  0  0  0  0  0
    9.5701  -14.8589   26.6962 N   0  0  0  0  0  0  0  0  0  0  0  0
   10.5300  -15.2885   27.6912 C   0  0  1  0  0  0  0  0  0  0  0  0
   10.5676  -14.3827   28.8946 C   0  0  0  0  0  0  0  0  0  0  0  0
   10.3933  -12.6730   28.2730 S   0  0  0  0  0  0  0  0  0  0  0  0
   10.1572  -16.6432   28.1687 C   0  0  0  0  0  0  0  0  0  0  0  0
   10.8954  -17.2476   28.9828 O   0  0  0  0  0  0  0  0  0  0  0  0
    9.0077  -17.2857   27.7488 O   0  0  0  0  0  0  0  0  0  0  0  0
  2  3  1  0
  2  1  1  1
  3  4  1  0
  5  2  1  0
  5  6  2  0
  7  5  1  0
  8  7  1  0
  9 10  1  0
  8  9  1  1
 11  8  1  0
 11 13  1  0
 12 11  2  0
 14 13  1  0
 14 17  1  0
 14 15  1  1
 16 15  1  0
 17 18  2  0
 17 19  1  0
M  END
$$$$
