CCC.pdb
     RDKit          3D

 19 18  0  0  1  0  0  0  0  0999 V2000
    8.2078  -12.8094   18.0066 N   0  0  0  0  0  0  0  0  0  0  0  0
    7.4789  -13.7570   18.8263 C   0  0  1  0  0  0  0  0  0  0  0  0
    7.3963  -15.1088   18.1542 C   0  0  0  0  0  0  0  0  0  0  0  0
    9.0240  -15.8257   17.8768 S   0  0  0  0  0  0  0  0  0  0  0  0
    8.1995  -13.8900   20.1227 C   0  0  0  0  0  0  0  0  0  0  0  0
    9.4077  -13.5528   20.2391 O   0  0  0  0  0  0  0  0  0  0  0  0
    7.5635  -14.4006   21.2841 N   0  0  0  0  0  0  0  0  0  0  0  0
    8.2643  -14.4461   22.5927 C   0  0  1  0  0  0  0  0  0  0  0  0
    7.2453  -14.1810   23.6794 C   0  0  0  0  0  0  0  0  0  0  0  0
    7.8966  -14.4165   25.3394 S   0  0  0  0  0  0  0  0  0  0  0  0
    8.9571  -15.7476   22.7332 C   0  0  0  0  0  0  0  0  0  0  0  0
    8.3422  -16.7952   22.3113 O   0  0  0  0  0  0  0  0  0  0  0  0
   10.2418  -15.8884   23.2982 N   0  0  0  0  0  0  0  0  0  0  0  0
   10.8632  -17.1833   23.4803 C   0  0  1  0  0  0  0  0  0  0  0  0
   12.2973  -17.2119   23.0193 C   0  0  0  0  0  0  0  0  0  0  0  0
   12.2832  -16.8432   21.2294 S   0  0  0  0  0  0  0  0  0  0  0  0
   10.8559  -17.5238   24.9246 C   0  0  0  0  0  0  0  0  0  0  0  0
   10.4071  -16.7043   25.7611 O   0  0  0  0  0  0  0  0  0  0  0  0
   11.3317  -18.7302   25.4030 O   0  0  0  0  0  0  0  0  0  0  0  0
  2  3  1  0
  2  1  1  6
  3  4  1  0
  5  2  1  0
  5  6  2  0
  7  5  1  0
  8  7  1  0
  9 10  1  0
  8  9  1  1
 11  8  1  0
 11 13  1  0
 12 11  2  0
 14 13  1  0
 14 17  1  0
 14 15  1  1
 16 15  1  0
 17 18  2  0
 17 19  1  0
M  END
$$$$
