CCC.pdb
     RDKit          3D

 19 18  0  0  1  0  0  0  0  0999 V2000
   -2.0974  -24.2667   23.9151 N   0  0  0  0  0  0  0  0  0  0  0  0
   -2.5190  -23.4287   25.0201 C   0  0  1  0  0  0  0  0  0  0  0  0
   -3.1645  -22.1550   24.5231 C   0  0  0  0  0  0  0  0  0  0  0  0
   -1.9480  -20.9690   23.9282 S   0  0  0  0  0  0  0  0  0  0  0  0
   -3.5018  -24.2000   25.8307 C   0  0  0  0  0  0  0  0  0  0  0  0
   -4.2957  -25.0180   25.2944 O   0  0  0  0  0  0  0  0  0  0  0  0
   -3.5913  -24.0519   27.2392 N   0  0  0  0  0  0  0  0  0  0  0  0
   -4.5337  -24.8698   28.0444 C   0  0  1  0  0  0  0  0  0  0  0  0
   -3.7383  -25.9532   28.7393 C   0  0  0  0  0  0  0  0  0  0  0  0
   -4.6393  -26.7529   30.0749 S   0  0  0  0  0  0  0  0  0  0  0  0
   -5.2761  -23.9887   28.9752 C   0  0  0  0  0  0  0  0  0  0  0  0
   -4.6441  -22.9858   29.4734 O   0  0  0  0  0  0  0  0  0  0  0  0
   -6.6247  -24.1951   29.3333 N   0  0  0  0  0  0  0  0  0  0  0  0
   -7.3205  -23.3134   30.2468 C   0  0  1  0  0  0  0  0  0  0  0  0
   -7.8601  -22.0803   29.5699 C   0  0  0  0  0  0  0  0  0  0  0  0
   -8.8059  -21.1571   30.8321 S   0  0  0  0  0  0  0  0  0  0  0  0
   -8.4756  -24.0380   30.8322 C   0  0  0  0  0  0  0  0  0  0  0  0
   -8.8649  -25.1157   30.3224 O   0  0  0  0  0  0  0  0  0  0  0  0
   -9.1589  -23.5704   31.9390 O   0  0  0  0  0  0  0  0  0  0  0  0
  2  3  1  0
  2  1  1  6
  3  4  1  0
  5  2  1  0
  5  6  2  0
  7  5  1  0
  8  7  1  0
  9 10  1  0
  8  9  1  1
 11  8  1  0
 11 13  1  0
 12 11  2  0
 14 13  1  0
 14 17  1  0
 14 15  1  6
 16 15  1  0
 17 18  2  0
 17 19  1  0
M  END
$$$$
