CCC.pdb
     RDKit          3D

 19 18  0  0  1  0  0  0  0  0999 V2000
    9.2246  -15.5751   20.6747 N   0  0  0  0  0  0  0  0  0  0  0  0
    8.0711  -15.6207   21.5513 C   0  0  1  0  0  0  0  0  0  0  0  0
    7.5862  -17.0402   21.7408 C   0  0  0  0  0  0  0  0  0  0  0  0
    7.2662  -17.8599   20.1705 S   0  0  0  0  0  0  0  0  0  0  0  0
    8.4740  -15.0535   22.8680 C   0  0  0  0  0  0  0  0  0  0  0  0
    9.6326  -15.2284   23.3305 O   0  0  0  0  0  0  0  0  0  0  0  0
    7.5769  -14.2924   23.6617 N   0  0  0  0  0  0  0  0  0  0  0  0
    7.9711  -13.7804   24.9988 C   0  0  1  0  0  0  0  0  0  0  0  0
    6.9105  -12.8038   25.4581 C   0  0  0  0  0  0  0  0  0  0  0  0
    7.0527  -12.3630   27.1961 S   0  0  0  0  0  0  0  0  0  0  0  0
    8.1675  -14.9214   25.9226 C   0  0  0  0  0  0  0  0  0  0  0  0
    7.3612  -15.9172   25.8147 O   0  0  0  0  0  0  0  0  0  0  0  0
    9.1843  -14.9659   26.8993 N   0  0  0  0  0  0  0  0  0  0  0  0
    9.4102  -16.1369   27.7201 C   0  0  1  0  0  0  0  0  0  0  0  0
   10.1742  -17.2164   26.9983 C   0  0  0  0  0  0  0  0  0  0  0  0
   10.4508  -18.5622   28.2033 S   0  0  0  0  0  0  0  0  0  0  0  0
   10.2102  -15.7474   28.9077 C   0  0  0  0  0  0  0  0  0  0  0  0
   10.6015  -14.5633   29.0409 O   0  0  0  0  0  0  0  0  0  0  0  0
   10.5527  -16.6493   29.8976 O   0  0  0  0  0  0  0  0  0  0  0  0
  2  3  1  0
  2  1  1  6
  3  4  1  0
  5  2  1  0
  5  6  2  0
  7  5  1  0
  8  7  1  0
  9 10  1  0
  8  9  1  1
 11  8  1  0
 11 13  1  0
 12 11  2  0
 14 13  1  0
 14 17  1  0
 14 15  1  6
 16 15  1  0
 17 18  2  0
 17 19  1  0
M  END
$$$$
