CCC.pdb
     RDKit          3D

 19 18  0  0  1  0  0  0  0  0999 V2000
    8.2685  -16.4905   21.0522 N   0  0  0  0  0  0  0  0  0  0  0  0
    8.6206  -15.1113   20.7787 C   0  0  1  0  0  0  0  0  0  0  0  0
    7.6876  -14.5028   19.7563 C   0  0  0  0  0  0  0  0  0  0  0  0
    7.3271  -15.6411   18.4092 S   0  0  0  0  0  0  0  0  0  0  0  0
    8.5215  -14.3516   22.0558 C   0  0  0  0  0  0  0  0  0  0  0  0
    8.7280  -13.1096   22.0977 O   0  0  0  0  0  0  0  0  0  0  0  0
    8.1913  -14.9865   23.2813 N   0  0  0  0  0  0  0  0  0  0  0  0
    8.0234  -14.2081   24.5348 C   0  0  1  0  0  0  0  0  0  0  0  0
    6.5687  -14.2860   24.9436 C   0  0  0  0  0  0  0  0  0  0  0  0
    6.1892  -13.3213   26.4135 S   0  0  0  0  0  0  0  0  0  0  0  0
    8.9572  -14.7248   25.5618 C   0  0  0  0  0  0  0  0  0  0  0  0
    9.1003  -15.9999   25.6453 O   0  0  0  0  0  0  0  0  0  0  0  0
    9.6872  -13.8946   26.4380 N   0  0  0  0  0  0  0  0  0  0  0  0
   10.3520  -14.4153   27.6140 C   0  0  1  0  0  0  0  0  0  0  0  0
   10.0830  -13.5935   28.8478 C   0  0  0  0  0  0  0  0  0  0  0  0
   10.9344  -14.4279   30.2330 S   0  0  0  0  0  0  0  0  0  0  0  0
    9.8570  -15.7886   27.8806 C   0  0  0  0  0  0  0  0  0  0  0  0
    8.6248  -16.0078   27.9605 O   0  0  0  0  0  0  0  0  0  0  0  0
   10.7100  -16.8632   28.0489 O   0  0  0  0  0  0  0  0  0  0  0  0
  2  3  1  0
  2  1  1  1
  3  4  1  0
  5  2  1  0
  5  6  2  0
  7  5  1  0
  8  7  1  0
  9 10  1  0
  8  9  1  1
 11  8  1  0
 11 13  1  0
 12 11  2  0
 14 13  1  0
 14 17  1  0
 14 15  1  1
 16 15  1  0
 17 18  2  0
 17 19  1  0
M  END
$$$$
