CCC.pdb
     RDKit          3D

 19 18  0  0  1  0  0  0  0  0999 V2000
    5.0948  -19.0330   19.2256 N   0  0  0  0  0  0  0  0  0  0  0  0
    4.7973  -17.8148   19.9528 C   0  0  1  0  0  0  0  0  0  0  0  0
    4.2572  -18.1209   21.3314 C   0  0  0  0  0  0  0  0  0  0  0  0
    3.2372  -19.6041   21.3432 S   0  0  0  0  0  0  0  0  0  0  0  0
    6.0601  -17.0351   20.0758 C   0  0  0  0  0  0  0  0  0  0  0  0
    7.1730  -17.6077   20.2191 O   0  0  0  0  0  0  0  0  0  0  0  0
    6.0711  -15.6165   20.0378 N   0  0  0  0  0  0  0  0  0  0  0  0
    7.3333  -14.8488   20.1883 C   0  0  1  0  0  0  0  0  0  0  0  0
    7.1008  -13.4542   19.6493 C   0  0  0  0  0  0  0  0  0  0  0  0
    8.4828  -12.3395   19.9372 S   0  0  0  0  0  0  0  0  0  0  0  0
    7.7565  -14.8737   21.6075 C   0  0  0  0  0  0  0  0  0  0  0  0
    6.8819  -14.5499   22.4927 O   0  0  0  0  0  0  0  0  0  0  0  0
    9.0546  -15.2330   22.0263 N   0  0  0  0  0  0  0  0  0  0  0  0
    9.4278  -15.2702   23.4247 C   0  0  1  0  0  0  0  0  0  0  0  0
    8.6032  -16.2467   24.2225 C   0  0  0  0  0  0  0  0  0  0  0  0
    7.8558  -15.3045   25.5986 S   0  0  0  0  0  0  0  0  0  0  0  0
   10.8455  -15.6945   23.5352 C   0  0  0  0  0  0  0  0  0  0  0  0
   11.4601  -16.1028   22.5211 O   0  0  0  0  0  0  0  0  0  0  0  0
   11.5372  -15.6603   24.7315 O   0  0  0  0  0  0  0  0  0  0  0  0
  2  3  1  0
  2  1  1  1
  3  4  1  0
  5  2  1  0
  5  6  2  0
  7  5  1  0
  8  7  1  0
  9 10  1  0
  8  9  1  1
 11  8  1  0
 11 13  1  0
 12 11  2  0
 14 13  1  0
 14 17  1  0
 14 15  1  1
 16 15  1  0
 17 18  2  0
 17 19  1  0
M  END
$$$$
