CCC.pdb
     RDKit          3D

 19 18  0  0  1  0  0  0  0  0999 V2000
    8.3421  -15.9836   20.6518 N   0  0  0  0  0  0  0  0  0  0  0  0
    7.7614  -16.3047   21.9404 C   0  0  1  0  0  0  0  0  0  0  0  0
    8.3348  -17.5904   22.4918 C   0  0  0  0  0  0  0  0  0  0  0  0
    8.0983  -18.9735   21.3643 S   0  0  0  0  0  0  0  0  0  0  0  0
    8.0676  -15.1843   22.8725 C   0  0  0  0  0  0  0  0  0  0  0  0
    9.0963  -14.4721   22.7262 O   0  0  0  0  0  0  0  0  0  0  0  0
    7.2199  -14.8662   23.9653 N   0  0  0  0  0  0  0  0  0  0  0  0
    7.5457  -13.7591   24.9000 C   0  0  1  0  0  0  0  0  0  0  0  0
    6.3486  -13.5363   25.7981 C   0  0  0  0  0  0  0  0  0  0  0  0
    6.5865  -12.2064   26.9855 S   0  0  0  0  0  0  0  0  0  0  0  0
    8.7875  -14.0888   25.6369 C   0  0  0  0  0  0  0  0  0  0  0  0
    9.8404  -13.4044   25.3605 O   0  0  0  0  0  0  0  0  0  0  0  0
    8.8664  -15.1023   26.6148 N   0  0  0  0  0  0  0  0  0  0  0  0
   10.1137  -15.4490   27.2628 C   0  0  1  0  0  0  0  0  0  0  0  0
   10.1599  -15.0200   28.7063 C   0  0  0  0  0  0  0  0  0  0  0  0
   10.1167  -13.1930   28.7149 S   0  0  0  0  0  0  0  0  0  0  0  0
   10.2796  -16.9234   27.2340 C   0  0  0  0  0  0  0  0  0  0  0  0
    9.3718  -17.6487   26.7621 O   0  0  0  0  0  0  0  0  0  0  0  0
   11.4143  -17.5500   27.7140 O   0  0  0  0  0  0  0  0  0  0  0  0
  2  3  1  0
  2  1  1  6
  3  4  1  0
  5  2  1  0
  5  6  2  0
  7  5  1  0
  8  7  1  0
  9 10  1  0
  8  9  1  1
 11  8  1  0
 11 13  1  0
 12 11  2  0
 14 13  1  0
 14 17  1  0
 14 15  1  1
 16 15  1  0
 17 18  2  0
 17 19  1  0
M  END
$$$$
