CCC.pdb
     RDKit          3D

 19 18  0  0  1  0  0  0  0  0999 V2000
    6.4151  -14.8093   19.8975 N   0  0  0  0  0  0  0  0  0  0  0  0
    7.6514  -14.6744   20.6421 C   0  0  1  0  0  0  0  0  0  0  0  0
    8.1463  -13.2458   20.6230 C   0  0  0  0  0  0  0  0  0  0  0  0
    8.2401  -12.5859   18.9509 S   0  0  0  0  0  0  0  0  0  0  0  0
    7.3871  -15.0897   22.0476 C   0  0  0  0  0  0  0  0  0  0  0  0
    6.2870  -14.8414   22.6089 O   0  0  0  0  0  0  0  0  0  0  0  0
    8.3565  -15.7818   22.8190 N   0  0  0  0  0  0  0  0  0  0  0  0
    8.0771  -16.2021   24.2156 C   0  0  1  0  0  0  0  0  0  0  0  0
    7.5887  -17.6339   24.1855 C   0  0  0  0  0  0  0  0  0  0  0  0
    8.7876  -18.8092   24.8308 S   0  0  0  0  0  0  0  0  0  0  0  0
    9.2925  -16.0067   25.0392 C   0  0  0  0  0  0  0  0  0  0  0  0
   10.2863  -15.3990   24.4947 O   0  0  0  0  0  0  0  0  0  0  0  0
    9.4074  -16.4482   26.3740 N   0  0  0  0  0  0  0  0  0  0  0  0
   10.0929  -15.6699   27.3842 C   0  0  1  0  0  0  0  0  0  0  0  0
    9.3328  -14.4312   27.7814 C   0  0  0  0  0  0  0  0  0  0  0  0
   10.4610  -13.4280   28.8113 S   0  0  0  0  0  0  0  0  0  0  0  0
   10.2566  -16.4987   28.6041 C   0  0  0  0  0  0  0  0  0  0  0  0
    9.4800  -17.4596   28.8197 O   0  0  0  0  0  0  0  0  0  0  0  0
   11.2480  -16.2561   29.5362 O   0  0  0  0  0  0  0  0  0  0  0  0
  2  3  1  0
  2  1  1  6
  3  4  1  0
  5  2  1  0
  5  6  2  0
  7  5  1  0
  8  7  1  0
  9 10  1  0
  8  9  1  6
 11  8  1  0
 11 13  1  0
 12 11  2  0
 14 13  1  0
 14 17  1  0
 14 15  1  1
 16 15  1  0
 17 18  2  0
 17 19  1  0
M  END
$$$$
