KQD.pdb
     RDKit          3D

 27 26  0  0  1  0  0  0  0  0999 V2000
   11.9059  -16.5780   15.0115 N   0  0  0  0  0  0  0  0  0  0  0  0
   11.7109  -15.5095   15.9742 C   0  0  1  0  0  0  0  0  0  0  0  0
   10.2886  -15.6386   16.4893 C   0  0  0  0  0  0  0  0  0  0  0  0
   10.0464  -17.0130   17.0666 C   0  0  0  0  0  0  0  0  0  0  0  0
    8.6009  -17.2452   17.4083 C   0  0  0  0  0  0  0  0  0  0  0  0
    8.3422  -18.6296   17.9445 C   0  0  0  0  0  0  0  0  0  0  0  0
    6.9226  -18.7123   18.2493 N   0  0  0  0  0  0  0  0  0  0  0  0
   12.6978  -15.6517   17.0716 C   0  0  0  0  0  0  0  0  0  0  0  0
   13.0176  -16.8465   17.3799 O   0  0  0  0  0  0  0  0  0  0  0  0
   16.9879  -11.7276   16.5490 N   0  0  0  0  0  0  0  0  0  0  0  0
   17.2809  -12.7706   17.4753 C   0  0  0  0  0  0  0  0  0  0  0  0
   18.3338  -12.7355   18.1889 O   0  0  0  0  0  0  0  0  0  0  0  0
   16.3083  -13.8852   17.5729 C   0  0  0  0  0  0  0  0  0  0  0  0
   15.2796  -13.7132   18.6118 C   0  0  0  0  0  0  0  0  0  0  0  0
   14.2625  -14.7561   18.8245 C   0  0  2  0  0  0  0  0  0  0  0  0
   13.2651  -14.5737   17.7498 N   0  0  0  0  0  0  0  0  0  0  0  0
   13.6280  -14.9250   20.1064 C   0  0  0  0  0  0  0  0  0  0  0  0
   12.7362  -14.1855   20.6000 O   0  0  0  0  0  0  0  0  0  0  0  0
   14.0298  -16.0352   20.9252 N   0  0  0  0  0  0  0  0  0  0  0  0
   13.4163  -16.1852   22.2643 C   0  0  1  0  0  0  0  0  0  0  0  0
   12.6556  -17.4691   22.2962 C   0  0  0  0  0  0  0  0  0  0  0  0
   12.1015  -17.8288   23.6181 C   0  0  0  0  0  0  0  0  0  0  0  0
   12.3761  -17.0919   24.6122 O   0  0  0  0  0  0  0  0  0  0  0  0
   14.5692  -16.3018   23.2118 C   0  0  0  0  0  0  0  0  0  0  0  0
   15.8879  -16.1815   22.8041 O   0  0  0  0  0  0  0  0  0  0  0  0
   11.2932  -18.9231   23.8759 O   0  0  0  0  0  0  0  0  0  0  0  0
   14.3495  -16.5160   24.4202 O   0  0  0  0  0  0  0  0  0  0  0  0
  2  1  1  6
  3  2  1  0
  4  3  1  0
  5  4  1  0
  6  5  1  0
  7  6  1  0
  8 16  1  0
  8  2  1  0
  9  8  2  0
 10 11  1  0
 11 12  2  0
 11 13  1  0
 13 14  1  0
 15 14  1  1
 15 16  1  0
 15 17  1  0
 17 18  2  0
 19 17  1  0
 19 20  1  0
 20 21  1  6
 21 22  1  0
 22 26  1  0
 23 22  2  0
 24 20  1  0
 24 25  1  0
 27 24  2  0
M  END
$$$$
