KQD.pdb
     RDKit          3D

 27 26  0  0  1  0  0  0  0  0999 V2000
    5.7464  -17.2114   20.5280 N   0  0  0  0  0  0  0  0  0  0  0  0
    7.0861  -16.7142   20.2742 C   0  0  1  0  0  0  0  0  0  0  0  0
    7.1765  -15.3466   20.9273 C   0  0  0  0  0  0  0  0  0  0  0  0
    7.2497  -14.2551   19.8860 C   0  0  0  0  0  0  0  0  0  0  0  0
    8.6635  -13.8383   19.5903 C   0  0  0  0  0  0  0  0  0  0  0  0
    8.7420  -12.6708   18.6406 C   0  0  0  0  0  0  0  0  0  0  0  0
   10.1520  -12.4132   18.3945 N   0  0  0  0  0  0  0  0  0  0  0  0
    8.0761  -17.6550   20.8515 C   0  0  0  0  0  0  0  0  0  0  0  0
    7.8707  -18.0052   22.0599 O   0  0  0  0  0  0  0  0  0  0  0  0
   10.5286  -22.0985   17.8538 N   0  0  0  0  0  0  0  0  0  0  0  0
   11.3503  -22.2789   19.0045 C   0  0  0  0  0  0  0  0  0  0  0  0
   12.2238  -23.2033   19.0465 O   0  0  0  0  0  0  0  0  0  0  0  0
   11.1468  -21.3448   20.1375 C   0  0  0  0  0  0  0  0  0  0  0  0
   10.1980  -20.2516   19.8691 C   0  0  0  0  0  0  0  0  0  0  0  0
   10.1431  -19.0843   20.7645 C   0  0  2  0  0  0  0  0  0  0  0  0
    9.1761  -18.1499   20.1524 N   0  0  0  0  0  0  0  0  0  0  0  0
   11.3449  -18.4035   21.1725 C   0  0  0  0  0  0  0  0  0  0  0  0
   12.4312  -18.9450   21.5078 O   0  0  0  0  0  0  0  0  0  0  0  0
   11.3356  -16.9672   21.2108 N   0  0  0  0  0  0  0  0  0  0  0  0
   12.5855  -16.2609   21.5723 C   0  0  1  0  0  0  0  0  0  0  0  0
   12.5971  -14.9359   20.8851 C   0  0  0  0  0  0  0  0  0  0  0  0
   13.4751  -14.8603   19.6989 C   0  0  0  0  0  0  0  0  0  0  0  0
   14.2631  -15.8251   19.4645 O   0  0  0  0  0  0  0  0  0  0  0  0
   12.4872  -16.0215   23.0465 C   0  0  0  0  0  0  0  0  0  0  0  0
   11.3309  -16.2679   23.7691 O   0  0  0  0  0  0  0  0  0  0  0  0
   13.5179  -13.8071   18.8009 O   0  0  0  0  0  0  0  0  0  0  0  0
   13.4779  -15.5827   23.6631 O   0  0  0  0  0  0  0  0  0  0  0  0
  2  1  1  1
  3  2  1  0
  4  3  1  0
  5  4  1  0
  6  5  1  0
  7  6  1  0
  8 16  1  0
  8  2  1  0
  9  8  2  0
 10 11  1  0
 11 12  2  0
 11 13  1  0
 13 14  1  0
 15 14  1  6
 15 16  1  0
 15 17  1  0
 17 18  2  0
 19 17  1  0
 19 20  1  0
 20 21  1  6
 21 22  1  0
 22 26  1  0
 23 22  2  0
 24 20  1  0
 24 25  1  0
 27 24  2  0
M  END
$$$$
