KQD.pdb
     RDKit          3D

 27 26  0  0  1  0  0  0  0  0999 V2000
    9.3000  -13.7264   25.3371 N   0  0  0  0  0  0  0  0  0  0  0  0
    8.4180  -14.8777   25.3922 C   0  0  1  0  0  0  0  0  0  0  0  0
    7.0566  -14.3657   25.8271 C   0  0  0  0  0  0  0  0  0  0  0  0
    7.1917  -13.1105   26.6561 C   0  0  0  0  0  0  0  0  0  0  0  0
    5.8660  -12.6077   27.1559 C   0  0  0  0  0  0  0  0  0  0  0  0
    5.9963  -11.3901   28.0343 C   0  0  0  0  0  0  0  0  0  0  0  0
    5.1732  -10.3464   27.4442 N   0  0  0  0  0  0  0  0  0  0  0  0
    8.3544  -15.5115   24.0532 C   0  0  0  0  0  0  0  0  0  0  0  0
    7.6208  -16.5502   23.9645 O   0  0  0  0  0  0  0  0  0  0  0  0
    6.8979  -13.2626   18.9861 N   0  0  0  0  0  0  0  0  0  0  0  0
    8.3031  -13.3070   18.7510 C   0  0  0  0  0  0  0  0  0  0  0  0
    8.8316  -12.6278   17.8136 O   0  0  0  0  0  0  0  0  0  0  0  0
    9.1142  -14.1679   19.6446 C   0  0  0  0  0  0  0  0  0  0  0  0
    8.3464  -14.8618   20.6916 C   0  0  0  0  0  0  0  0  0  0  0  0
    9.0318  -15.7514   21.6436 C   0  0  2  0  0  0  0  0  0  0  0  0
    9.0374  -15.0344   22.9354 N   0  0  0  0  0  0  0  0  0  0  0  0
   10.3279  -16.3034   21.3439 C   0  0  0  0  0  0  0  0  0  0  0  0
   10.6260  -17.0036   20.3406 O   0  0  0  0  0  0  0  0  0  0  0  0
   11.4060  -16.0483   22.2588 N   0  0  0  0  0  0  0  0  0  0  0  0
   12.7845  -16.3902   21.8409 C   0  0  1  0  0  0  0  0  0  0  0  0
   13.4681  -15.1407   21.3943 C   0  0  0  0  0  0  0  0  0  0  0  0
   14.0585  -15.2066   20.0412 C   0  0  0  0  0  0  0  0  0  0  0  0
   13.8896  -16.2595   19.3559 O   0  0  0  0  0  0  0  0  0  0  0  0
   13.4618  -16.8740   23.0849 C   0  0  0  0  0  0  0  0  0  0  0  0
   14.7683  -17.3352   23.0944 O   0  0  0  0  0  0  0  0  0  0  0  0
   14.7976  -14.2012   19.4408 O   0  0  0  0  0  0  0  0  0  0  0  0
   12.8376  -16.8678   24.1640 O   0  0  0  0  0  0  0  0  0  0  0  0
  2  1  1  6
  3  2  1  0
  4  3  1  0
  5  4  1  0
  6  5  1  0
  7  6  1  0
  8 16  1  0
  8  2  1  0
  9  8  2  0
 10 11  1  0
 11 12  2  0
 11 13  1  0
 13 14  1  0
 15 14  1  6
 15 16  1  0
 15 17  1  0
 17 18  2  0
 19 17  1  0
 19 20  1  0
 20 21  1  1
 21 22  1  0
 22 26  1  0
 23 22  2  0
 24 20  1  0
 24 25  1  0
 27 24  2  0
M  END
$$$$
