KQD.pdb
     RDKit          3D

 27 26  0  0  1  0  0  0  0  0999 V2000
   12.2683  -17.9350   18.9934 N   0  0  0  0  0  0  0  0  0  0  0  0
   11.0031  -17.9283   19.7045 C   0  0  1  0  0  0  0  0  0  0  0  0
   10.9668  -19.1920   20.5451 C   0  0  0  0  0  0  0  0  0  0  0  0
    9.9985  -20.1968   19.9674 C   0  0  0  0  0  0  0  0  0  0  0  0
    9.8492  -21.4146   20.8361 C   0  0  0  0  0  0  0  0  0  0  0  0
    8.8946  -22.4292   20.2611 C   0  0  0  0  0  0  0  0  0  0  0  0
    9.5348  -23.0026   19.0879 N   0  0  0  0  0  0  0  0  0  0  0  0
   10.9225  -16.7138   20.5511 C   0  0  0  0  0  0  0  0  0  0  0  0
   12.0368  -16.2369   20.9460 O   0  0  0  0  0  0  0  0  0  0  0  0
    7.5132  -11.8032   20.0420 N   0  0  0  0  0  0  0  0  0  0  0  0
    7.0850  -13.1092   19.6643 C   0  0  0  0  0  0  0  0  0  0  0  0
    6.0751  -13.2734   18.9076 O   0  0  0  0  0  0  0  0  0  0  0  0
    7.8665  -14.2568   20.1835 C   0  0  0  0  0  0  0  0  0  0  0  0
    8.9295  -13.8952   21.1357 C   0  0  0  0  0  0  0  0  0  0  0  0
    9.6802  -14.9478   21.8399 C   0  0  2  0  0  0  0  0  0  0  0  0
    9.7251  -16.0999   20.9160 N   0  0  0  0  0  0  0  0  0  0  0  0
    9.3147  -15.3569   23.1716 C   0  0  0  0  0  0  0  0  0  0  0  0
    9.1658  -14.6022   24.1687 O   0  0  0  0  0  0  0  0  0  0  0  0
    9.0915  -16.7546   23.4187 N   0  0  0  0  0  0  0  0  0  0  0  0
    8.7457  -17.1838   24.7928 C   0  0  1  0  0  0  0  0  0  0  0  0
    8.0085  -18.4793   24.7134 C   0  0  0  0  0  0  0  0  0  0  0  0
    6.5459  -18.3512   24.5461 C   0  0  0  0  0  0  0  0  0  0  0  0
    6.0249  -17.1982   24.6226 O   0  0  0  0  0  0  0  0  0  0  0  0
   10.0586  -17.4341   25.4665 C   0  0  0  0  0  0  0  0  0  0  0  0
   10.1998  -17.4586   26.8446 O   0  0  0  0  0  0  0  0  0  0  0  0
    5.6727  -19.3996   24.3098 O   0  0  0  0  0  0  0  0  0  0  0  0
   11.0756  -17.6301   24.7724 O   0  0  0  0  0  0  0  0  0  0  0  0
  2  1  1  1
  3  2  1  0
  4  3  1  0
  5  4  1  0
  6  5  1  0
  7  6  1  0
  8 16  1  0
  8  2  1  0
  9  8  2  0
 10 11  1  0
 11 12  2  0
 11 13  1  0
 13 14  1  0
 15 14  1  6
 15 16  1  0
 15 17  1  0
 17 18  2  0
 19 17  1  0
 19 20  1  0
 20 21  1  6
 21 22  1  0
 22 26  1  0
 23 22  2  0
 24 20  1  0
 24 25  1  0
 27 24  2  0
M  END
$$$$
