KQD.pdb
     RDKit          3D

 27 26  0  0  1  0  0  0  0  0999 V2000
    7.9663  -14.6104   17.0140 N   0  0  0  0  0  0  0  0  0  0  0  0
    8.6927  -13.9849   18.1038 C   0  0  1  0  0  0  0  0  0  0  0  0
    7.6723  -13.6581   19.1793 C   0  0  0  0  0  0  0  0  0  0  0  0
    8.3420  -13.0657   20.3965 C   0  0  0  0  0  0  0  0  0  0  0  0
    7.3556  -12.6807   21.4637 C   0  0  0  0  0  0  0  0  0  0  0  0
    8.0204  -12.2252   22.7371 C   0  0  0  0  0  0  0  0  0  0  0  0
    6.9665  -11.7790   23.6344 N   0  0  0  0  0  0  0  0  0  0  0  0
    9.7261  -14.9220   18.6062 C   0  0  0  0  0  0  0  0  0  0  0  0
    9.3349  -16.1155   18.8243 O   0  0  0  0  0  0  0  0  0  0  0  0
   16.6761  -14.8490   19.0726 N   0  0  0  0  0  0  0  0  0  0  0  0
   15.5471  -14.0703   18.6841 C   0  0  0  0  0  0  0  0  0  0  0  0
   15.6298  -13.2253   17.7363 O   0  0  0  0  0  0  0  0  0  0  0  0
   14.2819  -14.2923   19.4241 C   0  0  0  0  0  0  0  0  0  0  0  0
   13.3225  -15.1802   18.7471 C   0  0  0  0  0  0  0  0  0  0  0  0
   12.0409  -15.5118   19.3914 C   0  0  2  0  0  0  0  0  0  0  0  0
   11.0528  -14.5623   18.8392 N   0  0  0  0  0  0  0  0  0  0  0  0
   11.9326  -15.6081   20.8244 C   0  0  0  0  0  0  0  0  0  0  0  0
   11.5416  -14.7005   21.6051 O   0  0  0  0  0  0  0  0  0  0  0  0
   12.2985  -16.8465   21.4543 N   0  0  0  0  0  0  0  0  0  0  0  0
   12.1423  -16.9671   22.9216 C   0  0  1  0  0  0  0  0  0  0  0  0
   11.4536  -18.2571   23.2207 C   0  0  0  0  0  0  0  0  0  0  0  0
   11.4157  -18.6226   24.6520 C   0  0  0  0  0  0  0  0  0  0  0  0
   10.7532  -17.8914   25.4477 O   0  0  0  0  0  0  0  0  0  0  0  0
   13.5373  -17.0472   23.4582 C   0  0  0  0  0  0  0  0  0  0  0  0
   14.6536  -17.0831   22.6381 O   0  0  0  0  0  0  0  0  0  0  0  0
   12.0537  -19.7144   25.2162 O   0  0  0  0  0  0  0  0  0  0  0  0
   13.7181  -17.0839   24.6912 O   0  0  0  0  0  0  0  0  0  0  0  0
  2  1  1  6
  3  2  1  0
  4  3  1  0
  5  4  1  0
  6  5  1  0
  7  6  1  0
  8 16  1  0
  8  2  1  0
  9  8  2  0
 10 11  1  0
 11 12  2  0
 11 13  1  0
 13 14  1  0
 15 14  1  1
 15 16  1  0
 15 17  1  0
 17 18  2  0
 19 17  1  0
 19 20  1  0
 20 21  1  6
 21 22  1  0
 22 26  1  0
 23 22  2  0
 24 20  1  0
 24 25  1  0
 27 24  2  0
M  END
$$$$
