KQD.pdb
     RDKit          3D

 27 26  0  0  1  0  0  0  0  0999 V2000
    8.3511  -14.6587   13.9634 N   0  0  0  0  0  0  0  0  0  0  0  0
    8.9547  -15.6626   14.8204 C   0  0  1  0  0  0  0  0  0  0  0  0
    9.8352  -16.5237   13.9327 C   0  0  0  0  0  0  0  0  0  0  0  0
    9.1991  -17.8711   13.6859 C   0  0  0  0  0  0  0  0  0  0  0  0
   10.0338  -18.7443   12.7911 C   0  0  0  0  0  0  0  0  0  0  0  0
    9.4048  -20.0897   12.5354 C   0  0  0  0  0  0  0  0  0  0  0  0
   10.3365  -20.8493   11.7168 N   0  0  0  0  0  0  0  0  0  0  0  0
    9.7468  -14.9917   15.8792 C   0  0  0  0  0  0  0  0  0  0  0  0
   10.4411  -13.9907   15.5036 O   0  0  0  0  0  0  0  0  0  0  0  0
    7.5162  -12.1107   20.9533 N   0  0  0  0  0  0  0  0  0  0  0  0
    7.4686  -13.3474   20.2461 C   0  0  0  0  0  0  0  0  0  0  0  0
    6.6675  -14.2716   20.5972 O   0  0  0  0  0  0  0  0  0  0  0  0
    8.3826  -13.5039   19.0895 C   0  0  0  0  0  0  0  0  0  0  0  0
    9.5305  -14.3936   19.3301 C   0  0  0  0  0  0  0  0  0  0  0  0
   10.5008  -14.6554   18.2543 C   0  0  2  0  0  0  0  0  0  0  0  0
    9.7602  -15.3971   17.2131 N   0  0  0  0  0  0  0  0  0  0  0  0
   11.7722  -15.2717   18.5340 C   0  0  0  0  0  0  0  0  0  0  0  0
   12.0388  -16.4999   18.4541 O   0  0  0  0  0  0  0  0  0  0  0  0
   12.8618  -14.4308   18.9463 N   0  0  0  0  0  0  0  0  0  0  0  0
   14.1779  -15.0560   19.2086 C   0  0  1  0  0  0  0  0  0  0  0  0
   15.2327  -14.0060   19.0943 C   0  0  0  0  0  0  0  0  0  0  0  0
   16.6041  -14.4699   19.3908 C   0  0  0  0  0  0  0  0  0  0  0  0
   17.1450  -15.3056   18.6061 O   0  0  0  0  0  0  0  0  0  0  0  0
   14.1199  -15.5062   20.6349 C   0  0  0  0  0  0  0  0  0  0  0  0
   15.0871  -16.3198   21.2026 O   0  0  0  0  0  0  0  0  0  0  0  0
   17.3685  -14.0673   20.4729 O   0  0  0  0  0  0  0  0  0  0  0  0
   13.1684  -15.1424   21.3537 O   0  0  0  0  0  0  0  0  0  0  0  0
  2  1  1  6
  3  2  1  0
  4  3  1  0
  5  4  1  0
  6  5  1  0
  7  6  1  0
  8 16  1  0
  8  2  1  0
  9  8  2  0
 10 11  1  0
 11 12  2  0
 11 13  1  0
 13 14  1  0
 15 14  1  1
 15 16  1  0
 15 17  1  0
 17 18  2  0
 19 17  1  0
 19 20  1  0
 20 21  1  1
 21 22  1  0
 22 26  1  0
 23 22  2  0
 24 20  1  0
 24 25  1  0
 27 24  2  0
M  END
$$$$
