KQD.pdb
     RDKit          3D

 27 26  0  0  1  0  0  0  0  0999 V2000
    8.2008  -13.3086   17.4101 N   0  0  0  0  0  0  0  0  0  0  0  0
    9.3691  -13.1783   18.2613 C   0  0  1  0  0  0  0  0  0  0  0  0
    8.8654  -12.7877   19.6392 C   0  0  0  0  0  0  0  0  0  0  0  0
    8.6298  -14.0101   20.4942 C   0  0  0  0  0  0  0  0  0  0  0  0
    8.1552  -13.6601   21.8771 C   0  0  0  0  0  0  0  0  0  0  0  0
    7.9763  -14.8703   22.7573 C   0  0  0  0  0  0  0  0  0  0  0  0
    7.3598  -14.4137   23.9927 N   0  0  0  0  0  0  0  0  0  0  0  0
   10.0959  -14.4702   18.2980 C   0  0  0  0  0  0  0  0  0  0  0  0
    9.8557  -15.2703   17.3351 O   0  0  0  0  0  0  0  0  0  0  0  0
   15.3902  -13.1962   17.0347 N   0  0  0  0  0  0  0  0  0  0  0  0
   15.5027  -14.3197   17.9047 C   0  0  0  0  0  0  0  0  0  0  0  0
   16.4933  -14.4391   18.6946 O   0  0  0  0  0  0  0  0  0  0  0  0
   14.4196  -15.3304   17.8522 C   0  0  0  0  0  0  0  0  0  0  0  0
   13.0897  -14.8255   18.2313 C   0  0  0  0  0  0  0  0  0  0  0  0
   12.1837  -15.6615   19.0361 C   0  0  2  0  0  0  0  0  0  0  0  0
   10.9937  -14.8275   19.3030 N   0  0  0  0  0  0  0  0  0  0  0  0
   12.6442  -16.3174   20.2328 C   0  0  0  0  0  0  0  0  0  0  0  0
   13.3811  -17.3372   20.2875 O   0  0  0  0  0  0  0  0  0  0  0  0
   12.2413  -15.7803   21.5031 N   0  0  0  0  0  0  0  0  0  0  0  0
   12.5193  -16.5688   22.7249 C   0  0  1  0  0  0  0  0  0  0  0  0
   13.4967  -15.8145   23.5638 C   0  0  0  0  0  0  0  0  0  0  0  0
   14.8838  -15.8180   23.0541 C   0  0  0  0  0  0  0  0  0  0  0  0
   15.1520  -16.5139   22.0292 O   0  0  0  0  0  0  0  0  0  0  0  0
   11.2167  -16.6229   23.4603 C   0  0  0  0  0  0  0  0  0  0  0  0
   10.0825  -15.9578   23.0233 O   0  0  0  0  0  0  0  0  0  0  0  0
   15.9413  -15.1162   23.6077 O   0  0  0  0  0  0  0  0  0  0  0  0
   11.1336  -17.2896   24.5105 O   0  0  0  0  0  0  0  0  0  0  0  0
  2  1  1  6
  3  2  1  0
  4  3  1  0
  5  4  1  0
  6  5  1  0
  7  6  1  0
  8 16  1  0
  8  2  1  0
  9  8  2  0
 10 11  1  0
 11 12  2  0
 11 13  1  0
 13 14  1  0
 15 14  1  1
 15 16  1  0
 15 17  1  0
 17 18  2  0
 19 17  1  0
 19 20  1  0
 20 21  1  1
 21 22  1  0
 22 26  1  0
 23 22  2  0
 24 20  1  0
 24 25  1  0
 27 24  2  0
M  END
$$$$
