KQD.pdb
     RDKit          3D

 27 26  0  0  1  0  0  0  0  0999 V2000
    4.8763  -18.8741   18.1845 N   0  0  0  0  0  0  0  0  0  0  0  0
    4.7361  -18.6381   19.6097 C   0  0  1  0  0  0  0  0  0  0  0  0
    4.7035  -20.0009   20.2780 C   0  0  0  0  0  0  0  0  0  0  0  0
    4.0005  -19.9307   21.6128 C   0  0  0  0  0  0  0  0  0  0  0  0
    3.8633  -21.2804   22.2606 C   0  0  0  0  0  0  0  0  0  0  0  0
    3.3290  -21.2017   23.6675 C   0  0  0  0  0  0  0  0  0  0  0  0
    3.3253  -22.5549   24.2003 N   0  0  0  0  0  0  0  0  0  0  0  0
    5.8829  -17.8290   20.0881 C   0  0  0  0  0  0  0  0  0  0  0  0
    7.0397  -18.2984   19.8305 O   0  0  0  0  0  0  0  0  0  0  0  0
    8.2671  -12.2805   19.4519 N   0  0  0  0  0  0  0  0  0  0  0  0
    8.5954  -13.1151   20.5598 C   0  0  0  0  0  0  0  0  0  0  0  0
    9.7692  -13.5865   20.6989 O   0  0  0  0  0  0  0  0  0  0  0  0
    7.5182  -13.4013   21.5372 C   0  0  0  0  0  0  0  0  0  0  0  0
    6.5689  -14.4448   21.1166 C   0  0  0  0  0  0  0  0  0  0  0  0
    6.9170  -15.8668   21.2726 C   0  0  2  0  0  0  0  0  0  0  0  0
    5.7492  -16.6257   20.7794 N   0  0  0  0  0  0  0  0  0  0  0  0
    7.3846  -16.3834   22.5331 C   0  0  0  0  0  0  0  0  0  0  0  0
    6.7002  -16.5252   23.5806 O   0  0  0  0  0  0  0  0  0  0  0  0
    8.7603  -16.7846   22.6376 N   0  0  0  0  0  0  0  0  0  0  0  0
    9.2668  -17.2387   23.9525 C   0  0  1  0  0  0  0  0  0  0  0  0
   10.3298  -18.2613   23.7237 C   0  0  0  0  0  0  0  0  0  0  0  0
   11.0319  -18.7098   24.9443 C   0  0  0  0  0  0  0  0  0  0  0  0
   12.0719  -19.4233   24.8186 O   0  0  0  0  0  0  0  0  0  0  0  0
    9.9050  -16.0307   24.5642 C   0  0  0  0  0  0  0  0  0  0  0  0
   10.3008  -14.9338   23.8161 O   0  0  0  0  0  0  0  0  0  0  0  0
   10.6475  -18.4166   26.2418 O   0  0  0  0  0  0  0  0  0  0  0  0
   10.0946  -15.9958   25.7960 O   0  0  0  0  0  0  0  0  0  0  0  0
  2  1  1  6
  3  2  1  0
  4  3  1  0
  5  4  1  0
  6  5  1  0
  7  6  1  0
  8 16  1  0
  8  2  1  0
  9  8  2  0
 10 11  1  0
 11 12  2  0
 11 13  1  0
 13 14  1  0
 15 14  1  1
 15 16  1  0
 15 17  1  0
 17 18  2  0
 19 17  1  0
 19 20  1  0
 20 21  1  6
 21 22  1  0
 22 26  1  0
 23 22  2  0
 24 20  1  0
 24 25  1  0
 27 24  2  0
M  END
$$$$
