KQD.pdb
     RDKit          3D

 27 26  0  0  1  0  0  0  0  0999 V2000
    6.7813  -15.7315   19.6796 N   0  0  0  0  0  0  0  0  0  0  0  0
    7.8890  -14.7968   19.6030 C   0  0  1  0  0  0  0  0  0  0  0  0
    7.2959  -13.4423   19.2590 C   0  0  0  0  0  0  0  0  0  0  0  0
    7.6909  -13.0186   17.8642 C   0  0  0  0  0  0  0  0  0  0  0  0
    7.1286  -13.9281   16.8075 C   0  0  0  0  0  0  0  0  0  0  0  0
    7.6113  -13.5830   15.4222 C   0  0  0  0  0  0  0  0  0  0  0  0
    7.1745  -14.6518   14.5380 N   0  0  0  0  0  0  0  0  0  0  0  0
    8.5933  -14.7628   20.9073 C   0  0  0  0  0  0  0  0  0  0  0  0
    9.7086  -14.1456   20.9205 O   0  0  0  0  0  0  0  0  0  0  0  0
    6.0891  -15.0501   26.5491 N   0  0  0  0  0  0  0  0  0  0  0  0
    6.1891  -13.8603   25.7706 C   0  0  0  0  0  0  0  0  0  0  0  0
    5.5042  -12.8281   26.0618 O   0  0  0  0  0  0  0  0  0  0  0  0
    7.1239  -13.8781   24.6201 C   0  0  0  0  0  0  0  0  0  0  0  0
    7.7983  -15.1675   24.3970 C   0  0  0  0  0  0  0  0  0  0  0  0
    8.8304  -15.2908   23.3543 C   0  0  2  0  0  0  0  0  0  0  0  0
    8.1025  -15.3550   22.0701 N   0  0  0  0  0  0  0  0  0  0  0  0
    9.8479  -16.3072   23.4324 C   0  0  0  0  0  0  0  0  0  0  0  0
    9.7514  -17.4920   23.0167 O   0  0  0  0  0  0  0  0  0  0  0  0
   11.1059  -15.9677   24.0378 N   0  0  0  0  0  0  0  0  0  0  0  0
   12.1552  -17.0089   24.1202 C   0  0  1  0  0  0  0  0  0  0  0  0
   13.4879  -16.3508   23.9827 C   0  0  0  0  0  0  0  0  0  0  0  0
   14.6453  -17.2581   24.1277 C   0  0  0  0  0  0  0  0  0  0  0  0
   14.8195  -17.8473   25.2364 O   0  0  0  0  0  0  0  0  0  0  0  0
   12.0487  -17.5627   25.5067 C   0  0  0  0  0  0  0  0  0  0  0  0
   12.6244  -18.7672   25.8776 O   0  0  0  0  0  0  0  0  0  0  0  0
   15.5790  -17.5278   23.1413 O   0  0  0  0  0  0  0  0  0  0  0  0
   11.4195  -16.9254   26.3741 O   0  0  0  0  0  0  0  0  0  0  0  0
  2  1  1  1
  3  2  1  0
  4  3  1  0
  5  4  1  0
  6  5  1  0
  7  6  1  0
  8 16  1  0
  8  2  1  0
  9  8  2  0
 10 11  1  0
 11 12  2  0
 11 13  1  0
 13 14  1  0
 15 14  1  1
 15 16  1  0
 15 17  1  0
 17 18  2  0
 19 17  1  0
 19 20  1  0
 20 21  1  1
 21 22  1  0
 22 26  1  0
 23 22  2  0
 24 20  1  0
 24 25  1  0
 27 24  2  0
M  END
$$$$
