MQY.pdb
     RDKit          3D

 30 30  0  0  1  0  0  0  0  0999 V2000
    7.4900  -12.0428   21.3961 C   0  0  0  0  0  0  0  0  0  0  0  0
    6.7310  -13.1007   20.1444 S   0  0  0  0  0  0  0  0  0  0  0  0
    7.5882  -14.6782   20.0066 C   0  0  0  0  0  0  0  0  0  0  0  0
    8.1321  -15.1718   21.2991 C   0  0  0  0  0  0  0  0  0  0  0  0
    8.8425  -16.4927   21.1743 C   0  0  2  0  0  0  0  0  0  0  0  0
    8.0166  -17.2865   20.2465 N   0  0  0  0  0  0  0  0  0  0  0  0
    8.9946  -17.1681   22.4495 C   0  0  0  0  0  0  0  0  0  0  0  0
    8.5654  -18.3659   22.5637 O   0  0  0  0  0  0  0  0  0  0  0  0
   15.0074  -15.6337   23.7924 N   0  0  0  0  0  0  0  0  0  0  0  0
   14.2537  -16.2605   22.7679 C   0  0  0  0  0  0  0  0  0  0  0  0
   14.4112  -16.0240   21.5437 O   0  0  0  0  0  0  0  0  0  0  0  0
   13.2244  -17.2497   23.1849 C   0  0  0  0  0  0  0  0  0  0  0  0
   11.8324  -16.7557   22.7974 C   0  0  0  0  0  0  0  0  0  0  0  0
   10.9126  -17.0113   24.0009 C   0  0  2  0  0  0  0  0  0  0  0  0
    9.6074  -16.5750   23.6040 N   0  0  0  0  0  0  0  0  0  0  0  0
   11.4465  -16.3866   25.2106 C   0  0  0  0  0  0  0  0  0  0  0  0
   12.6171  -16.6615   25.5790 O   0  0  0  0  0  0  0  0  0  0  0  0
    6.2430  -10.9237   25.9846 O   0  0  0  0  0  0  0  0  0  0  0  0
    6.8658  -12.1222   26.3277 C   0  0  0  0  0  0  0  0  0  0  0  0
    8.1266  -12.1372   26.8809 C   0  0  0  0  0  0  0  0  0  0  0  0
    8.7648  -13.3160   27.2296 C   0  0  0  0  0  0  0  0  0  0  0  0
    8.1044  -14.5059   27.0100 C   0  0  0  0  0  0  0  0  0  0  0  0
    8.7096  -15.8048   27.3445 C   0  0  0  0  0  0  0  0  0  0  0  0
   10.2154  -15.8069   27.3414 C   0  0  2  0  0  0  0  0  0  0  0  0
   10.7348  -15.4740   26.0214 N   0  0  0  0  0  0  0  0  0  0  0  0
   10.8288  -17.0176   27.8874 C   0  0  0  0  0  0  0  0  0  0  0  0
   11.3815  -17.1167   29.1422 O   0  0  0  0  0  0  0  0  0  0  0  0
    6.8444  -14.4743   26.4563 C   0  0  0  0  0  0  0  0  0  0  0  0
    6.2038  -13.3092   26.1073 C   0  0  0  0  0  0  0  0  0  0  0  0
   10.8762  -18.0833   27.1803 O   0  0  0  0  0  0  0  0  0  0  0  0
  1  2  1  0
  2  3  1  0
  3  4  1  0
  5  4  1  0
  5  6  1  6
  7  5  1  0
  8  7  2  0
 10  9  1  0
 10 12  1  0
 11 10  2  0
 13 12  1  0
 14 13  1  6
 14 15  1  0
 15  7  1  0
 16 25  1  0
 16 14  1  0
 17 16  2  0
 18 19  1  0
 19 29  2  0
 19 20  1  0
 20 21  2  0
 21 22  1  0
 22 23  1  0
 24 23  1  6
 24 25  1  0
 26 24  1  0
 26 27  1  0
 28 22  2  0
 29 28  1  0
 30 26  2  0
M  END
$$$$
