MQY.pdb
     RDKit          3D

 30 30  0  0  1  0  0  0  0  0999 V2000
    5.4161  -12.6128   26.7706 C   0  0  0  0  0  0  0  0  0  0  0  0
    6.2910  -11.8520   25.3858 S   0  0  0  0  0  0  0  0  0  0  0  0
    6.4080  -12.9747   23.9829 C   0  0  0  0  0  0  0  0  0  0  0  0
    7.0334  -14.2806   24.3198 C   0  0  0  0  0  0  0  0  0  0  0  0
    8.4024  -14.4517   23.7184 C   0  0  2  0  0  0  0  0  0  0  0  0
    8.2042  -14.3040   22.2652 N   0  0  0  0  0  0  0  0  0  0  0  0
    8.9967  -15.7361   24.0385 C   0  0  0  0  0  0  0  0  0  0  0  0
    9.0274  -16.1100   25.2598 O   0  0  0  0  0  0  0  0  0  0  0  0
   11.2766  -20.1963   20.2028 N   0  0  0  0  0  0  0  0  0  0  0  0
   11.4047  -20.8059   21.4766 C   0  0  0  0  0  0  0  0  0  0  0  0
   11.7760  -21.9946   21.6455 O   0  0  0  0  0  0  0  0  0  0  0  0
   11.0771  -19.9766   22.6670 C   0  0  0  0  0  0  0  0  0  0  0  0
   10.5754  -18.6024   22.2289 C   0  0  0  0  0  0  0  0  0  0  0  0
   10.1723  -17.8433   23.5021 C   0  0  2  0  0  0  0  0  0  0  0  0
    9.5547  -16.6282   23.0623 N   0  0  0  0  0  0  0  0  0  0  0  0
   11.3154  -17.6817   24.4000 C   0  0  0  0  0  0  0  0  0  0  0  0
   11.1824  -17.9563   25.6200 O   0  0  0  0  0  0  0  0  0  0  0  0
   10.0897  -14.7675   30.0841 O   0  0  0  0  0  0  0  0  0  0  0  0
   10.9538  -15.2720   29.1141 C   0  0  0  0  0  0  0  0  0  0  0  0
   11.2288  -14.5625   27.9666 C   0  0  0  0  0  0  0  0  0  0  0  0
   12.0841  -15.0439   26.9891 C   0  0  0  0  0  0  0  0  0  0  0  0
   12.6724  -16.2751   27.1848 C   0  0  0  0  0  0  0  0  0  0  0  0
   13.5886  -16.8655   26.1963 C   0  0  0  0  0  0  0  0  0  0  0  0
   13.4177  -16.3348   24.7974 C   0  0  2  0  0  0  0  0  0  0  0  0
   12.5923  -17.2298   23.9972 N   0  0  0  0  0  0  0  0  0  0  0  0
   14.6642  -15.9785   24.1195 C   0  0  0  0  0  0  0  0  0  0  0  0
   15.0249  -16.4136   22.8664 O   0  0  0  0  0  0  0  0  0  0  0  0
   12.3874  -16.9722   28.3373 C   0  0  0  0  0  0  0  0  0  0  0  0
   11.5400  -16.5020   29.3122 C   0  0  0  0  0  0  0  0  0  0  0  0
   15.5079  -15.2097   24.6983 O   0  0  0  0  0  0  0  0  0  0  0  0
  1  2  1  0
  2  3  1  0
  3  4  1  0
  5  4  1  0
  5  6  1  6
  7  5  1  0
  8  7  2  0
 10  9  1  0
 10 12  1  0
 11 10  2  0
 13 12  1  0
 14 13  1  6
 14 15  1  0
 15  7  1  0
 16 25  1  0
 16 14  1  0
 17 16  2  0
 18 19  1  0
 19 29  2  0
 19 20  1  0
 20 21  2  0
 21 22  1  0
 22 23  1  0
 24 23  1  1
 24 25  1  0
 26 24  1  0
 26 27  1  0
 28 22  2  0
 29 28  1  0
 30 26  2  0
M  END
$$$$
