MQY.pdb
     RDKit          3D

 30 30  0  0  1  0  0  0  0  0999 V2000
    8.2741  -11.5315   20.5597 C   0  0  0  0  0  0  0  0  0  0  0  0
    7.4053  -12.2904   19.1700 S   0  0  0  0  0  0  0  0  0  0  0  0
    7.9668  -13.9769   18.8830 C   0  0  0  0  0  0  0  0  0  0  0  0
    8.2241  -14.7367   20.1347 C   0  0  0  0  0  0  0  0  0  0  0  0
    8.6541  -16.1571   19.8848 C   0  0  2  0  0  0  0  0  0  0  0  0
    7.5582  -16.7580   19.1031 N   0  0  0  0  0  0  0  0  0  0  0  0
    8.8878  -16.8944   21.1125 C   0  0  0  0  0  0  0  0  0  0  0  0
    8.2250  -17.9670   21.3189 O   0  0  0  0  0  0  0  0  0  0  0  0
   11.7569  -20.9076   21.9965 N   0  0  0  0  0  0  0  0  0  0  0  0
   12.5307  -19.7332   21.8158 C   0  0  0  0  0  0  0  0  0  0  0  0
   13.6980  -19.7333   21.3504 O   0  0  0  0  0  0  0  0  0  0  0  0
   11.9092  -18.4391   22.2044 C   0  0  0  0  0  0  0  0  0  0  0  0
   10.5111  -18.6759   22.7710 C   0  0  0  0  0  0  0  0  0  0  0  0
    9.9961  -17.3212   23.2803 C   0  0  2  0  0  0  0  0  0  0  0  0
    9.8291  -16.4974   22.1206 N   0  0  0  0  0  0  0  0  0  0  0  0
   10.8760  -16.7820   24.3166 C   0  0  0  0  0  0  0  0  0  0  0  0
   12.0495  -17.2228   24.4170 O   0  0  0  0  0  0  0  0  0  0  0  0
    6.0799  -11.0598   25.9902 O   0  0  0  0  0  0  0  0  0  0  0  0
    6.6678  -12.3162   26.1229 C   0  0  0  0  0  0  0  0  0  0  0  0
    6.2770  -13.3729   25.3313 C   0  0  0  0  0  0  0  0  0  0  0  0
    6.8471  -14.6301   25.4455 C   0  0  0  0  0  0  0  0  0  0  0  0
    7.8371  -14.8152   26.3867 C   0  0  0  0  0  0  0  0  0  0  0  0
    8.4927  -16.1183   26.5802 C   0  0  0  0  0  0  0  0  0  0  0  0
    9.9974  -16.0626   26.5755 C   0  0  2  0  0  0  0  0  0  0  0  0
   10.5047  -15.7784   25.2395 N   0  0  0  0  0  0  0  0  0  0  0  0
   10.6565  -17.2191   27.1825 C   0  0  0  0  0  0  0  0  0  0  0  0
   11.2155  -17.2306   28.4383 O   0  0  0  0  0  0  0  0  0  0  0  0
    8.2168  -13.7490   27.1704 C   0  0  0  0  0  0  0  0  0  0  0  0
    7.6565  -12.4983   27.0637 C   0  0  0  0  0  0  0  0  0  0  0  0
   10.7416  -18.3184   26.5329 O   0  0  0  0  0  0  0  0  0  0  0  0
  1  2  1  0
  2  3  1  0
  3  4  1  0
  5  4  1  0
  5  6  1  1
  7  5  1  0
  8  7  2  0
 10  9  1  0
 10 12  1  0
 11 10  2  0
 13 12  1  0
 14 13  1  6
 14 15  1  0
 15  7  1  0
 16 25  1  0
 16 14  1  0
 17 16  2  0
 18 19  1  0
 19 29  2  0
 19 20  1  0
 20 21  2  0
 21 22  1  0
 22 23  1  0
 24 23  1  6
 24 25  1  0
 26 24  1  0
 26 27  1  0
 28 22  2  0
 29 28  1  0
 30 26  2  0
M  END
$$$$
