MQY.pdb
     RDKit          3D

 30 30  0  0  1  0  0  0  0  0999 V2000
    8.4568  -11.4393   21.7839 C   0  0  0  0  0  0  0  0  0  0  0  0
    7.6737  -12.0922   20.2932 S   0  0  0  0  0  0  0  0  0  0  0  0
    6.7237  -13.5807   20.6454 C   0  0  0  0  0  0  0  0  0  0  0  0
    7.2492  -14.3602   21.7971 C   0  0  0  0  0  0  0  0  0  0  0  0
    7.5879  -15.7827   21.4413 C   0  0  2  0  0  0  0  0  0  0  0  0
    6.2990  -16.4094   21.0965 N   0  0  0  0  0  0  0  0  0  0  0  0
    8.2408  -16.4900   22.5272 C   0  0  0  0  0  0  0  0  0  0  0  0
    7.5202  -16.9708   23.4663 O   0  0  0  0  0  0  0  0  0  0  0  0
   13.2742  -20.7841   23.4608 N   0  0  0  0  0  0  0  0  0  0  0  0
   13.3349  -19.4971   24.0529 C   0  0  0  0  0  0  0  0  0  0  0  0
   14.4081  -18.8795   24.2678 O   0  0  0  0  0  0  0  0  0  0  0  0
   12.0467  -18.8589   24.4339 C   0  0  0  0  0  0  0  0  0  0  0  0
   11.5175  -18.0115   23.2790 C   0  0  0  0  0  0  0  0  0  0  0  0
   10.1936  -17.3887   23.7472 C   0  0  2  0  0  0  0  0  0  0  0  0
    9.6589  -16.6928   22.6153 N   0  0  0  0  0  0  0  0  0  0  0  0
   10.3912  -16.5803   24.9498 C   0  0  0  0  0  0  0  0  0  0  0  0
   11.0454  -15.5092   24.8700 O   0  0  0  0  0  0  0  0  0  0  0  0
    6.1771  -11.9166   24.8636 O   0  0  0  0  0  0  0  0  0  0  0  0
    6.8612  -12.8410   25.6506 C   0  0  0  0  0  0  0  0  0  0  0  0
    6.5430  -14.1802   25.6157 C   0  0  0  0  0  0  0  0  0  0  0  0
    7.2091  -15.1168   26.3888 C   0  0  0  0  0  0  0  0  0  0  0  0
    8.2216  -14.6798   27.2158 C   0  0  0  0  0  0  0  0  0  0  0  0
    8.9775  -15.6043   28.0757 C   0  0  0  0  0  0  0  0  0  0  0  0
   10.2194  -16.1691   27.4385 C   0  0  2  0  0  0  0  0  0  0  0  0
    9.8929  -16.9138   26.2294 N   0  0  0  0  0  0  0  0  0  0  0  0
   11.0803  -16.9324   28.3421 C   0  0  0  0  0  0  0  0  0  0  0  0
   11.5121  -18.2170   28.1119 O   0  0  0  0  0  0  0  0  0  0  0  0
    8.5279  -13.3378   27.2395 C   0  0  0  0  0  0  0  0  0  0  0  0
    7.8721  -12.4018   26.4758 C   0  0  0  0  0  0  0  0  0  0  0  0
   11.4830  -16.4051   29.4365 O   0  0  0  0  0  0  0  0  0  0  0  0
  1  2  1  0
  2  3  1  0
  3  4  1  0
  5  4  1  0
  5  6  1  1
  7  5  1  0
  8  7  2  0
 10  9  1  0
 10 12  1  0
 11 10  2  0
 13 12  1  0
 14 13  1  6
 14 15  1  0
 15  7  1  0
 16 25  1  0
 16 14  1  0
 17 16  2  0
 18 19  1  0
 19 29  2  0
 19 20  1  0
 20 21  2  0
 21 22  1  0
 22 23  1  0
 24 23  1  1
 24 25  1  0
 26 24  1  0
 26 27  1  0
 28 22  2  0
 29 28  1  0
 30 26  2  0
M  END
$$$$
