MQY.pdb
     RDKit          3D

 30 30  0  0  1  0  0  0  0  0999 V2000
    8.0304  -11.6340   19.4844 C   0  0  0  0  0  0  0  0  0  0  0  0
    7.0016  -12.4346   18.2343 S   0  0  0  0  0  0  0  0  0  0  0  0
    6.9319  -14.2169   18.4805 C   0  0  0  0  0  0  0  0  0  0  0  0
    6.8779  -14.6156   19.9117 C   0  0  0  0  0  0  0  0  0  0  0  0
    7.9631  -15.5853   20.2953 C   0  0  2  0  0  0  0  0  0  0  0  0
    7.6819  -16.8041   19.5153 N   0  0  0  0  0  0  0  0  0  0  0  0
    7.9833  -15.8668   21.7186 C   0  0  0  0  0  0  0  0  0  0  0  0
    7.6544  -14.9381   22.5318 O   0  0  0  0  0  0  0  0  0  0  0  0
    5.2701  -20.8365   23.6940 N   0  0  0  0  0  0  0  0  0  0  0  0
    6.5801  -20.3910   24.0037 C   0  0  0  0  0  0  0  0  0  0  0  0
    7.4637  -21.1263   24.5116 O   0  0  0  0  0  0  0  0  0  0  0  0
    6.9079  -18.9717   23.7035 C   0  0  0  0  0  0  0  0  0  0  0  0
    8.3547  -18.6728   24.0898 C   0  0  0  0  0  0  0  0  0  0  0  0
    8.6392  -17.2198   23.6805 C   0  0  2  0  0  0  0  0  0  0  0  0
    8.3476  -17.1362   22.2808 N   0  0  0  0  0  0  0  0  0  0  0  0
    9.9917  -16.8212   24.0686 C   0  0  0  0  0  0  0  0  0  0  0  0
   10.9660  -17.1811   23.3595 O   0  0  0  0  0  0  0  0  0  0  0  0
    9.2159  -16.0734   31.5000 O   0  0  0  0  0  0  0  0  0  0  0  0
    9.8315  -15.7183   30.3013 C   0  0  0  0  0  0  0  0  0  0  0  0
   11.1068  -16.1427   30.0022 C   0  0  0  0  0  0  0  0  0  0  0  0
   11.7384  -15.8023   28.8174 C   0  0  0  0  0  0  0  0  0  0  0  0
   11.0561  -15.0122   27.9173 C   0  0  0  0  0  0  0  0  0  0  0  0
   11.6526  -14.5977   26.6375 C   0  0  0  0  0  0  0  0  0  0  0  0
   11.6595  -15.6698   25.5802 C   0  0  2  0  0  0  0  0  0  0  0  0
   10.3015  -16.0431   25.2068 N   0  0  0  0  0  0  0  0  0  0  0  0
   12.4868  -16.8352   25.8929 C   0  0  0  0  0  0  0  0  0  0  0  0
   13.8614  -16.8380   25.9044 O   0  0  0  0  0  0  0  0  0  0  0  0
    9.7818  -14.5959   28.2308 C   0  0  0  0  0  0  0  0  0  0  0  0
    9.1477  -14.9290   29.4040 C   0  0  0  0  0  0  0  0  0  0  0  0
   11.9325  -17.9520   26.1813 O   0  0  0  0  0  0  0  0  0  0  0  0
  1  2  1  0
  2  3  1  0
  3  4  1  0
  5  4  1  0
  5  6  1  6
  7  5  1  0
  8  7  2  0
 10  9  1  0
 10 12  1  0
 11 10  2  0
 13 12  1  0
 14 13  1  6
 14 15  1  0
 15  7  1  0
 16 25  1  0
 16 14  1  0
 17 16  2  0
 18 19  1  0
 19 29  2  0
 19 20  1  0
 20 21  2  0
 21 22  1  0
 22 23  1  0
 24 23  1  1
 24 25  1  0
 26 24  1  0
 26 27  1  0
 28 22  2  0
 29 28  1  0
 30 26  2  0
M  END
$$$$
