MQY.pdb
     RDKit          3D

 30 30  0  0  1  0  0  0  0  0999 V2000
    7.6668  -11.5213   20.1179 C   0  0  0  0  0  0  0  0  0  0  0  0
    8.0758  -13.1034   20.8872 S   0  0  0  0  0  0  0  0  0  0  0  0
    6.6128  -14.1317   21.0980 C   0  0  0  0  0  0  0  0  0  0  0  0
    6.8584  -15.3516   21.9114 C   0  0  0  0  0  0  0  0  0  0  0  0
    8.0261  -16.1636   21.4193 C   0  0  2  0  0  0  0  0  0  0  0  0
    7.4636  -17.0637   20.3963 N   0  0  0  0  0  0  0  0  0  0  0  0
    8.6714  -16.9142   22.4803 C   0  0  0  0  0  0  0  0  0  0  0  0
    8.0303  -17.8728   23.0302 O   0  0  0  0  0  0  0  0  0  0  0  0
   13.8269  -16.8172   22.1630 N   0  0  0  0  0  0  0  0  0  0  0  0
   12.9985  -17.7454   21.4829 C   0  0  0  0  0  0  0  0  0  0  0  0
   13.1964  -18.1183   20.2991 O   0  0  0  0  0  0  0  0  0  0  0  0
   11.8359  -18.2976   22.2282 C   0  0  0  0  0  0  0  0  0  0  0  0
   11.8990  -17.8705   23.6930 C   0  0  0  0  0  0  0  0  0  0  0  0
   10.4940  -17.3862   24.0818 C   0  0  2  0  0  0  0  0  0  0  0  0
   10.0002  -16.6522   22.9555 N   0  0  0  0  0  0  0  0  0  0  0  0
   10.5235  -16.6552   25.3482 C   0  0  0  0  0  0  0  0  0  0  0  0
   11.2174  -15.6103   25.4388 O   0  0  0  0  0  0  0  0  0  0  0  0
    6.7350  -11.9349   24.6932 O   0  0  0  0  0  0  0  0  0  0  0  0
    7.2543  -12.8621   25.5946 C   0  0  0  0  0  0  0  0  0  0  0  0
    8.1980  -12.4966   26.5283 C   0  0  0  0  0  0  0  0  0  0  0  0
    8.7281  -13.4008   27.4339 C   0  0  0  0  0  0  0  0  0  0  0  0
    8.2874  -14.7061   27.3876 C   0  0  0  0  0  0  0  0  0  0  0  0
    8.8007  -15.7337   28.3072 C   0  0  0  0  0  0  0  0  0  0  0  0
   10.0383  -16.4398   27.8201 C   0  0  2  0  0  0  0  0  0  0  0  0
    9.8162  -17.0379   26.5102 N   0  0  0  0  0  0  0  0  0  0  0  0
   10.6174  -17.3895   28.7703 C   0  0  0  0  0  0  0  0  0  0  0  0
   11.0371  -17.0686   30.0394 O   0  0  0  0  0  0  0  0  0  0  0  0
    7.3435  -15.0559   26.4483 C   0  0  0  0  0  0  0  0  0  0  0  0
    6.8123  -14.1652   25.5461 C   0  0  0  0  0  0  0  0  0  0  0  0
   10.7626  -18.6167   28.4373 O   0  0  0  0  0  0  0  0  0  0  0  0
  1  2  1  0
  2  3  1  0
  3  4  1  0
  5  4  1  0
  5  6  1  6
  7  5  1  0
  8  7  2  0
 10  9  1  0
 10 12  1  0
 11 10  2  0
 13 12  1  0
 14 13  1  6
 14 15  1  0
 15  7  1  0
 16 25  1  0
 16 14  1  0
 17 16  2  0
 18 19  1  0
 19 29  2  0
 19 20  1  0
 20 21  2  0
 21 22  1  0
 22 23  1  0
 24 23  1  1
 24 25  1  0
 26 24  1  0
 26 27  1  0
 28 22  2  0
 29 28  1  0
 30 26  2  0
M  END
$$$$
