EEM.pdb
     RDKit          3D

 27 26  0  0  1  0  0  0  0  0999 V2000
    8.3006  -14.7733   19.6389 N   0  0  0  0  0  0  0  0  0  0  0  0
    7.4250  -15.7371   20.2694 C   0  0  1  0  0  0  0  0  0  0  0  0
    6.8637  -16.6672   19.2574 C   0  0  0  0  0  0  0  0  0  0  0  0
    7.8934  -17.1606   18.2986 C   0  0  0  0  0  0  0  0  0  0  0  0
    7.4063  -18.1471   17.3152 C   0  0  0  0  0  0  0  0  0  0  0  0
    7.3660  -19.3815   17.5122 O   0  0  0  0  0  0  0  0  0  0  0  0
    8.2571  -16.4679   21.2764 C   0  0  0  0  0  0  0  0  0  0  0  0
    7.6976  -17.3674   21.9470 O   0  0  0  0  0  0  0  0  0  0  0  0
    6.9546  -17.7008   16.0756 O   0  0  0  0  0  0  0  0  0  0  0  0
    9.6085  -16.2006   21.5025 N   0  0  0  0  0  0  0  0  0  0  0  0
   10.4212  -16.9085   22.5308 C   0  0  1  0  0  0  0  0  0  0  0  0
   11.8293  -16.8893   22.0317 C   0  0  0  0  0  0  0  0  0  0  0  0
   12.8842  -17.4373   22.9188 C   0  0  0  0  0  0  0  0  0  0  0  0
   14.2633  -17.2868   22.3538 C   0  0  0  0  0  0  0  0  0  0  0  0
   14.9783  -16.2861   22.4705 O   0  0  0  0  0  0  0  0  0  0  0  0
   10.1648  -16.2210   23.7906 C   0  0  0  0  0  0  0  0  0  0  0  0
   10.7625  -15.1220   24.0703 O   0  0  0  0  0  0  0  0  0  0  0  0
   14.7288  -18.4086   21.6425 O   0  0  0  0  0  0  0  0  0  0  0  0
    7.0270  -11.0800   26.4729 C   0  0  0  0  0  0  0  0  0  0  0  0
    6.6323  -12.8294   26.2715 S   0  0  0  0  0  0  0  0  0  0  0  0
    8.1678  -13.7880   26.2629 C   0  0  0  0  0  0  0  0  0  0  0  0
    7.9002  -15.2533   26.0768 C   0  0  0  0  0  0  0  0  0  0  0  0
    9.1598  -16.0565   26.0706 C   0  0  2  0  0  0  0  0  0  0  0  0
    9.2653  -16.7088   24.7496 N   0  0  0  0  0  0  0  0  0  0  0  0
    9.2552  -17.0796   27.1146 C   0  0  0  0  0  0  0  0  0  0  0  0
    9.0678  -18.2997   26.8979 O   0  0  0  0  0  0  0  0  0  0  0  0
    9.5655  -16.7156   28.4122 O   0  0  0  0  0  0  0  0  0  0  0  0
  2  1  1  6
  2  3  1  0
  4  3  1  0
  4  5  1  0
  5  6  2  0
  7  2  1  0
  7  8  2  0
  9  5  1  0
 10  7  1  0
 11 10  1  0
 11 12  1  6
 13 12  1  0
 14 13  1  0
 14 15  2  0
 16 11  1  0
 17 16  2  0
 18 14  1  0
 19 20  1  0
 20 21  1  0
 22 21  1  0
 23 22  1  6
 23 24  1  0
 24 16  1  0
 25 23  1  0
 26 25  2  0
 27 25  1  0
M  END
$$$$
