EEM.pdb
     RDKit          3D

 27 26  0  0  1  0  0  0  0  0999 V2000
    9.2634  -18.4719   19.2750 N   0  0  0  0  0  0  0  0  0  0  0  0
   10.0052  -19.0610   20.3686 C   0  0  1  0  0  0  0  0  0  0  0  0
   11.4526  -18.7585   20.2354 C   0  0  0  0  0  0  0  0  0  0  0  0
   11.7486  -17.8728   19.0731 C   0  0  0  0  0  0  0  0  0  0  0  0
   13.1696  -17.5075   18.9150 C   0  0  0  0  0  0  0  0  0  0  0  0
   13.5741  -16.4726   18.3408 O   0  0  0  0  0  0  0  0  0  0  0  0
    9.4412  -18.4750   21.6251 C   0  0  0  0  0  0  0  0  0  0  0  0
    8.5577  -17.5932   21.5074 O   0  0  0  0  0  0  0  0  0  0  0  0
   14.1476  -18.3544   19.4308 O   0  0  0  0  0  0  0  0  0  0  0  0
    9.8454  -18.8573   22.9055 N   0  0  0  0  0  0  0  0  0  0  0  0
    9.0884  -18.5087   24.1401 C   0  0  1  0  0  0  0  0  0  0  0  0
    9.4150  -19.5696   25.1402 C   0  0  0  0  0  0  0  0  0  0  0  0
    8.8954  -19.4024   26.5193 C   0  0  0  0  0  0  0  0  0  0  0  0
    9.3993  -20.4468   27.4675 C   0  0  0  0  0  0  0  0  0  0  0  0
   10.5872  -20.7337   27.6491 O   0  0  0  0  0  0  0  0  0  0  0  0
    9.4793  -17.1462   24.4813 C   0  0  0  0  0  0  0  0  0  0  0  0
   10.6753  -16.7359   24.2705 O   0  0  0  0  0  0  0  0  0  0  0  0
    8.3921  -21.1227   28.1813 O   0  0  0  0  0  0  0  0  0  0  0  0
    5.2924  -12.4443   26.3902 C   0  0  0  0  0  0  0  0  0  0  0  0
    6.7286  -11.5040   25.8337 S   0  0  0  0  0  0  0  0  0  0  0  0
    8.1856  -12.5779   25.8518 C   0  0  0  0  0  0  0  0  0  0  0  0
    7.8453  -13.9738   25.4171 C   0  0  0  0  0  0  0  0  0  0  0  0
    9.0470  -14.8609   25.3903 C   0  0  2  0  0  0  0  0  0  0  0  0
    8.5880  -16.2218   25.0451 N   0  0  0  0  0  0  0  0  0  0  0  0
    9.8101  -14.9196   26.6392 C   0  0  0  0  0  0  0  0  0  0  0  0
    9.6150  -15.7878   27.5218 O   0  0  0  0  0  0  0  0  0  0  0  0
   10.8008  -13.9872   26.8878 O   0  0  0  0  0  0  0  0  0  0  0  0
  2  1  1  6
  2  3  1  0
  4  3  1  0
  4  5  1  0
  5  6  2  0
  7  2  1  0
  7  8  2  0
  9  5  1  0
 10  7  1  0
 11 10  1  0
 11 12  1  1
 13 12  1  0
 14 13  1  0
 14 15  2  0
 16 11  1  0
 17 16  2  0
 18 14  1  0
 19 20  1  0
 20 21  1  0
 22 21  1  0
 23 22  1  1
 23 24  1  0
 24 16  1  0
 25 23  1  0
 26 25  2  0
 27 25  1  0
M  END
$$$$
