EEM.pdb
     RDKit          3D

 27 26  0  0  1  0  0  0  0  0999 V2000
   10.5869  -16.8149   18.8040 N   0  0  0  0  0  0  0  0  0  0  0  0
    9.2289  -16.3570   19.0025 C   0  0  1  0  0  0  0  0  0  0  0  0
    8.3311  -16.9347   17.9707 C   0  0  0  0  0  0  0  0  0  0  0  0
    8.8622  -16.7639   16.5880 C   0  0  0  0  0  0  0  0  0  0  0  0
    8.0819  -17.4401   15.5338 C   0  0  0  0  0  0  0  0  0  0  0  0
    7.0614  -18.1323   15.7431 O   0  0  0  0  0  0  0  0  0  0  0  0
    8.8316  -16.7978   20.3767 C   0  0  0  0  0  0  0  0  0  0  0  0
    7.6188  -16.7146   20.6837 O   0  0  0  0  0  0  0  0  0  0  0  0
    8.4869  -17.3159   14.2070 O   0  0  0  0  0  0  0  0  0  0  0  0
    9.7336  -17.2908   21.3212 N   0  0  0  0  0  0  0  0  0  0  0  0
    9.3235  -17.7741   22.6692 C   0  0  1  0  0  0  0  0  0  0  0  0
   10.3135  -18.8256   23.0517 C   0  0  0  0  0  0  0  0  0  0  0  0
   10.0650  -20.2112   22.5843 C   0  0  0  0  0  0  0  0  0  0  0  0
   11.1174  -21.1793   23.0306 C   0  0  0  0  0  0  0  0  0  0  0  0
   10.9108  -22.2115   23.6774 O   0  0  0  0  0  0  0  0  0  0  0  0
    9.2639  -16.5919   23.5204 C   0  0  0  0  0  0  0  0  0  0  0  0
   10.1787  -15.6959   23.4614 O   0  0  0  0  0  0  0  0  0  0  0  0
   12.4282  -20.8322   22.6536 O   0  0  0  0  0  0  0  0  0  0  0  0
    7.2454  -10.8301   27.1730 C   0  0  0  0  0  0  0  0  0  0  0  0
    7.4321  -12.0957   25.9002 S   0  0  0  0  0  0  0  0  0  0  0  0
    6.6705  -13.6339   26.4751 C   0  0  0  0  0  0  0  0  0  0  0  0
    6.8055  -14.7285   25.4567 C   0  0  0  0  0  0  0  0  0  0  0  0
    8.2252  -15.1598   25.2827 C   0  0  2  0  0  0  0  0  0  0  0  0
    8.2224  -16.3676   24.4323 N   0  0  0  0  0  0  0  0  0  0  0  0
    8.9469  -15.4539   26.5230 C   0  0  0  0  0  0  0  0  0  0  0  0
    9.5607  -14.5824   27.1821 O   0  0  0  0  0  0  0  0  0  0  0  0
    8.9718  -16.7449   27.0182 O   0  0  0  0  0  0  0  0  0  0  0  0
  2  1  1  6
  2  3  1  0
  4  3  1  0
  4  5  1  0
  5  6  2  0
  7  2  1  0
  7  8  2  0
  9  5  1  0
 10  7  1  0
 11 10  1  0
 11 12  1  1
 13 12  1  0
 14 13  1  0
 14 15  2  0
 16 11  1  0
 17 16  2  0
 18 14  1  0
 19 20  1  0
 20 21  1  0
 22 21  1  0
 23 22  1  1
 23 24  1  0
 24 16  1  0
 25 23  1  0
 26 25  2  0
 27 25  1  0
M  END
$$$$
