EEM.pdb
     RDKit          3D

 27 26  0  0  1  0  0  0  0  0999 V2000
   12.9306  -18.3583   20.5156 N   0  0  0  0  0  0  0  0  0  0  0  0
   12.4520  -17.0165   20.2634 C   0  0  1  0  0  0  0  0  0  0  0  0
   12.2742  -16.7951   18.8061 C   0  0  0  0  0  0  0  0  0  0  0  0
   12.2020  -18.0704   18.0370 C   0  0  0  0  0  0  0  0  0  0  0  0
   12.1891  -17.9126   16.5699 C   0  0  0  0  0  0  0  0  0  0  0  0
   11.9092  -18.8261   15.7628 O   0  0  0  0  0  0  0  0  0  0  0  0
   11.1526  -16.8874   20.9949 C   0  0  0  0  0  0  0  0  0  0  0  0
   10.2359  -16.2387   20.4374 O   0  0  0  0  0  0  0  0  0  0  0  0
   12.5060  -16.6730   16.0197 O   0  0  0  0  0  0  0  0  0  0  0  0
   10.9142  -17.4468   22.2515 N   0  0  0  0  0  0  0  0  0  0  0  0
    9.6144  -17.3229   22.9686 C   0  0  1  0  0  0  0  0  0  0  0  0
    9.0364  -18.6996   23.0200 C   0  0  0  0  0  0  0  0  0  0  0  0
    8.8272  -19.4095   21.7346 C   0  0  0  0  0  0  0  0  0  0  0  0
    8.2440  -20.7784   21.9077 C   0  0  0  0  0  0  0  0  0  0  0  0
    7.1819  -21.1705   21.4133 O   0  0  0  0  0  0  0  0  0  0  0  0
    9.9184  -16.6934   24.2480 C   0  0  0  0  0  0  0  0  0  0  0  0
   11.1154  -16.6864   24.7064 O   0  0  0  0  0  0  0  0  0  0  0  0
    9.0125  -21.6438   22.7085 O   0  0  0  0  0  0  0  0  0  0  0  0
    6.7706  -10.9132   25.2957 C   0  0  0  0  0  0  0  0  0  0  0  0
    6.6359  -12.4866   26.1693 S   0  0  0  0  0  0  0  0  0  0  0  0
    8.2309  -13.3401   26.1059 C   0  0  0  0  0  0  0  0  0  0  0  0
    8.1767  -14.6605   26.8180 C   0  0  0  0  0  0  0  0  0  0  0  0
    9.2761  -15.5754   26.3865 C   0  0  2  0  0  0  0  0  0  0  0  0
    8.9405  -16.0679   25.0350 N   0  0  0  0  0  0  0  0  0  0  0  0
    9.5165  -16.7231   27.2642 C   0  0  0  0  0  0  0  0  0  0  0  0
    9.1016  -17.8784   27.0113 O   0  0  0  0  0  0  0  0  0  0  0  0
   10.2322  -16.5586   28.4361 O   0  0  0  0  0  0  0  0  0  0  0  0
  2  1  1  6
  2  3  1  0
  4  3  1  0
  4  5  1  0
  5  6  2  0
  7  2  1  0
  7  8  2  0
  9  5  1  0
 10  7  1  0
 11 10  1  0
 11 12  1  1
 13 12  1  0
 14 13  1  0
 14 15  2  0
 16 11  1  0
 17 16  2  0
 18 14  1  0
 19 20  1  0
 20 21  1  0
 22 21  1  0
 23 22  1  1
 23 24  1  0
 24 16  1  0
 25 23  1  0
 26 25  2  0
 27 25  1  0
M  END
$$$$
