EEM.pdb
     RDKit          3D

 27 26  0  0  1  0  0  0  0  0999 V2000
    9.9838  -12.9945   19.1877 N   0  0  0  0  0  0  0  0  0  0  0  0
    8.6074  -13.3958   19.3820 C   0  0  1  0  0  0  0  0  0  0  0  0
    8.0015  -13.8107   18.0916 C   0  0  0  0  0  0  0  0  0  0  0  0
    8.9020  -14.6895   17.2917 C   0  0  0  0  0  0  0  0  0  0  0  0
    8.3503  -15.1316   15.9964 C   0  0  0  0  0  0  0  0  0  0  0  0
    7.2396  -14.7779   15.5430 O   0  0  0  0  0  0  0  0  0  0  0  0
    8.6321  -14.5288   20.3597 C   0  0  0  0  0  0  0  0  0  0  0  0
    7.5303  -14.9603   20.7743 O   0  0  0  0  0  0  0  0  0  0  0  0
    9.0960  -16.0017   15.2047 O   0  0  0  0  0  0  0  0  0  0  0  0
    9.8067  -15.1212   20.8268 N   0  0  0  0  0  0  0  0  0  0  0  0
    9.8253  -16.2115   21.8415 C   0  0  1  0  0  0  0  0  0  0  0  0
   10.9616  -17.1066   21.4677 C   0  0  0  0  0  0  0  0  0  0  0  0
   11.0143  -17.6107   20.0737 C   0  0  0  0  0  0  0  0  0  0  0  0
   12.4063  -17.9138   19.6109 C   0  0  0  0  0  0  0  0  0  0  0  0
   13.2022  -18.6653   20.1838 O   0  0  0  0  0  0  0  0  0  0  0  0
    9.9117  -15.5528   23.1393 C   0  0  0  0  0  0  0  0  0  0  0  0
   10.8658  -14.7365   23.3970 O   0  0  0  0  0  0  0  0  0  0  0  0
   12.7819  -17.2608   18.4220 O   0  0  0  0  0  0  0  0  0  0  0  0
    5.6485  -12.0683   26.2665 C   0  0  0  0  0  0  0  0  0  0  0  0
    7.3159  -11.7365   26.8718 S   0  0  0  0  0  0  0  0  0  0  0  0
    8.2629  -13.2791   26.8805 C   0  0  0  0  0  0  0  0  0  0  0  0
    8.2355  -13.9488   25.5373 C   0  0  0  0  0  0  0  0  0  0  0  0
    9.1525  -15.1268   25.4798 C   0  0  2  0  0  0  0  0  0  0  0  0
    8.9739  -15.7658   24.1601 N   0  0  0  0  0  0  0  0  0  0  0  0
    8.9475  -16.1316   26.5257 C   0  0  0  0  0  0  0  0  0  0  0  0
    8.4637  -17.2658   26.3015 O   0  0  0  0  0  0  0  0  0  0  0  0
    9.2939  -15.8473   27.8340 O   0  0  0  0  0  0  0  0  0  0  0  0
  2  1  1  6
  2  3  1  0
  4  3  1  0
  4  5  1  0
  5  6  2  0
  7  2  1  0
  7  8  2  0
  9  5  1  0
 10  7  1  0
 11 10  1  0
 11 12  1  6
 13 12  1  0
 14 13  1  0
 14 15  2  0
 16 11  1  0
 17 16  2  0
 18 14  1  0
 19 20  1  0
 20 21  1  0
 22 21  1  0
 23 22  1  1
 23 24  1  0
 24 16  1  0
 25 23  1  0
 26 25  2  0
 27 25  1  0
M  END
$$$$
