EEM.pdb
     RDKit          3D

 27 26  0  0  1  0  0  0  0  0999 V2000
    7.8028  -14.7213   18.2484 N   0  0  0  0  0  0  0  0  0  0  0  0
    8.7940  -14.3615   19.2391 C   0  0  1  0  0  0  0  0  0  0  0  0
    8.6072  -12.9534   19.6714 C   0  0  0  0  0  0  0  0  0  0  0  0
    9.4594  -12.0003   18.9044 C   0  0  0  0  0  0  0  0  0  0  0  0
   10.8764  -12.3933   18.7807 C   0  0  0  0  0  0  0  0  0  0  0  0
   11.4524  -12.6308   17.6962 O   0  0  0  0  0  0  0  0  0  0  0  0
    8.6112  -15.3097   20.3828 C   0  0  0  0  0  0  0  0  0  0  0  0
    7.4454  -15.4847   20.8094 O   0  0  0  0  0  0  0  0  0  0  0  0
   11.6480  -12.5154   19.9337 O   0  0  0  0  0  0  0  0  0  0  0  0
    9.6618  -16.0000   20.9898 N   0  0  0  0  0  0  0  0  0  0  0  0
    9.4797  -16.8980   22.1643 C   0  0  1  0  0  0  0  0  0  0  0  0
   10.5619  -17.9240   22.0735 C   0  0  0  0  0  0  0  0  0  0  0  0
   10.4262  -18.9819   21.0428 C   0  0  0  0  0  0  0  0  0  0  0  0
   11.5746  -19.9436   21.0334 C   0  0  0  0  0  0  0  0  0  0  0  0
   12.3827  -20.0829   20.1093 O   0  0  0  0  0  0  0  0  0  0  0  0
    9.4950  -16.0339   23.3385 C   0  0  0  0  0  0  0  0  0  0  0  0
   10.4535  -15.2042   23.5285 O   0  0  0  0  0  0  0  0  0  0  0  0
   11.6920  -20.7247   22.1983 O   0  0  0  0  0  0  0  0  0  0  0  0
    6.6136  -10.7140   27.5538 C   0  0  0  0  0  0  0  0  0  0  0  0
    6.6318  -11.7937   26.1078 S   0  0  0  0  0  0  0  0  0  0  0  0
    7.0498  -13.4764   26.6277 C   0  0  0  0  0  0  0  0  0  0  0  0
    7.1811  -14.3990   25.4508 C   0  0  0  0  0  0  0  0  0  0  0  0
    8.5031  -15.0944   25.4287 C   0  0  2  0  0  0  0  0  0  0  0  0
    8.4815  -16.0560   24.3076 N   0  0  0  0  0  0  0  0  0  0  0  0
    8.8564  -15.8069   26.6588 C   0  0  0  0  0  0  0  0  0  0  0  0
    8.9969  -15.2359   27.7656 O   0  0  0  0  0  0  0  0  0  0  0  0
    9.0513  -17.1758   26.6325 O   0  0  0  0  0  0  0  0  0  0  0  0
  2  1  1  6
  2  3  1  0
  4  3  1  0
  4  5  1  0
  5  6  2  0
  7  2  1  0
  7  8  2  0
  9  5  1  0
 10  7  1  0
 11 10  1  0
 11 12  1  1
 13 12  1  0
 14 13  1  0
 14 15  2  0
 16 11  1  0
 17 16  2  0
 18 14  1  0
 19 20  1  0
 20 21  1  0
 22 21  1  0
 23 22  1  1
 23 24  1  0
 24 16  1  0
 25 23  1  0
 26 25  2  0
 27 25  1  0
M  END
$$$$
