EEM.pdb
     RDKit          3D

 27 26  0  0  1  0  0  0  0  0999 V2000
    9.0067  -13.6115   19.0105 N   0  0  0  0  0  0  0  0  0  0  0  0
    7.8287  -14.3759   19.3589 C   0  0  1  0  0  0  0  0  0  0  0  0
    7.2492  -15.0146   18.1503 C   0  0  0  0  0  0  0  0  0  0  0  0
    8.1356  -14.8944   16.9575 C   0  0  0  0  0  0  0  0  0  0  0  0
    7.5748  -15.4428   15.7076 C   0  0  0  0  0  0  0  0  0  0  0  0
    8.1277  -15.3612   14.5887 O   0  0  0  0  0  0  0  0  0  0  0  0
    8.2705  -15.4011   20.3561 C   0  0  0  0  0  0  0  0  0  0  0  0
    7.3873  -16.1280   20.8695 O   0  0  0  0  0  0  0  0  0  0  0  0
    6.3480  -16.1010   15.7477 O   0  0  0  0  0  0  0  0  0  0  0  0
    9.6006  -15.5852   20.7376 N   0  0  0  0  0  0  0  0  0  0  0  0
   10.0250  -16.5627   21.7784 C   0  0  1  0  0  0  0  0  0  0  0  0
   11.3223  -17.1339   21.3063 C   0  0  0  0  0  0  0  0  0  0  0  0
   12.0421  -18.0582   22.2161 C   0  0  0  0  0  0  0  0  0  0  0  0
   13.3359  -18.5537   21.6468 C   0  0  0  0  0  0  0  0  0  0  0  0
   13.9277  -18.0597   20.6813 O   0  0  0  0  0  0  0  0  0  0  0  0
   10.0544  -15.8254   23.0358 C   0  0  0  0  0  0  0  0  0  0  0  0
   10.4673  -14.6125   23.0741 O   0  0  0  0  0  0  0  0  0  0  0  0
   13.8729  -19.6752   22.3062 O   0  0  0  0  0  0  0  0  0  0  0  0
    6.2159  -11.6016   27.3552 C   0  0  0  0  0  0  0  0  0  0  0  0
    6.5843  -12.6160   25.9088 S   0  0  0  0  0  0  0  0  0  0  0  0
    7.9329  -13.7550   26.3095 C   0  0  0  0  0  0  0  0  0  0  0  0
    8.3493  -14.5574   25.1110 C   0  0  0  0  0  0  0  0  0  0  0  0
    9.4373  -15.5279   25.4371 C   0  0  2  0  0  0  0  0  0  0  0  0
    9.6380  -16.3863   24.2519 N   0  0  0  0  0  0  0  0  0  0  0  0
    9.1888  -16.3787   26.6032 C   0  0  0  0  0  0  0  0  0  0  0  0
    8.7221  -17.5388   26.5185 O   0  0  0  0  0  0  0  0  0  0  0  0
    9.4719  -15.9101   27.8732 O   0  0  0  0  0  0  0  0  0  0  0  0
  2  1  1  6
  2  3  1  0
  4  3  1  0
  4  5  1  0
  5  6  2  0
  7  2  1  0
  7  8  2  0
  9  5  1  0
 10  7  1  0
 11 10  1  0
 11 12  1  6
 13 12  1  0
 14 13  1  0
 14 15  2  0
 16 11  1  0
 17 16  2  0
 18 14  1  0
 19 20  1  0
 20 21  1  0
 22 21  1  0
 23 22  1  6
 23 24  1  0
 24 16  1  0
 25 23  1  0
 26 25  2  0
 27 25  1  0
M  END
$$$$
