PPF.pdb
     RDKit          3D

 26 28  0  0  1  0  0  0  0  0999 V2000
   24.4330  -34.9690  -10.2637 N   0  0  0  0  0  0  0  0  0  0  0  0
   24.4429  -34.6002  -11.6977 C   0  0  0  0  0  0  0  0  0  0  0  0
   25.8763  -34.2647  -11.9509 C   0  0  0  0  0  0  0  0  0  0  0  0
   26.6395  -35.1937  -11.0321 C   0  0  0  0  0  0  0  0  0  0  0  0
   25.5343  -35.8647  -10.2192 C   0  0  1  0  0  0  0  0  0  0  0  0
   25.9687  -36.2599   -8.8710 C   0  0  0  0  0  0  0  0  0  0  0  0
   25.6356  -35.4171   -7.9586 O   0  0  0  0  0  0  0  0  0  0  0  0
   26.6713  -37.4261   -8.5764 N   0  0  0  0  0  0  0  0  0  0  0  0
   26.3496  -38.7770   -9.1077 C   0  0  0  0  0  0  0  0  0  0  0  0
   27.7466  -39.4005   -9.3475 C   0  0  0  0  0  0  0  0  0  0  0  0
   28.7346  -38.2992   -8.9108 C   0  0  0  0  0  0  0  0  0  0  0  0
   27.8497  -37.6656   -7.8246 C   0  0  1  0  0  0  0  0  0  0  0  0
   28.4806  -36.6275   -7.0591 C   0  0  0  0  0  0  0  0  0  0  0  0
   29.6996  -36.3614   -7.1354 O   0  0  0  0  0  0  0  0  0  0  0  0
   27.7224  -35.8123   -6.1345 N   0  0  0  0  0  0  0  0  0  0  0  0
   28.4111  -34.8170   -5.3563 C   0  0  1  0  0  0  0  0  0  0  0  0
   28.8759  -33.6685   -6.2479 C   0  0  0  0  0  0  0  0  0  0  0  0
   27.7061  -32.9631   -6.8126 C   0  0  0  0  0  0  0  0  0  0  0  0
   26.7078  -32.4797   -6.0000 C   0  0  0  0  0  0  0  0  0  0  0  0
   25.6052  -31.8154   -6.5453 C   0  0  0  0  0  0  0  0  0  0  0  0
   25.5160  -31.6423   -7.9084 C   0  0  0  0  0  0  0  0  0  0  0  0
   26.5056  -32.1205   -8.7240 C   0  0  0  0  0  0  0  0  0  0  0  0
   27.5958  -32.7771   -8.1874 C   0  0  0  0  0  0  0  0  0  0  0  0
   27.5743  -34.2956   -4.2580 C   0  0  0  0  0  0  0  0  0  0  0  0
   28.0200  -33.4574   -3.4568 O   0  0  0  0  0  0  0  0  0  0  0  0
   26.2585  -34.7515   -4.1157 O   0  0  0  0  0  0  0  0  0  0  0  0
  1  2  1  0
  3  2  1  0
  4  5  1  0
  4  3  1  0
  5  1  1  0
  5  6  1  1
  7  6  2  0
  8  6  1  0
  8 12  1  0
  9 10  1  0
  9  8  1  0
 10 11  1  0
 11 12  1  0
 12 13  1  6
 13 14  2  0
 15 16  1  0
 15 13  1  0
 16 24  1  0
 16 17  1  6
 18 17  1  0
 19 18  2  0
 20 19  1  0
 21 22  1  0
 21 20  2  0
 22 23  2  0
 23 18  1  0
 24 25  2  0
 24 26  1  0
M  END
$$$$
