PPF.pdb
     RDKit          3D

 26 28  0  0  1  0  0  0  0  0999 V2000
   27.5422  -19.7240  -16.6943 N   0  0  0  0  0  0  0  0  0  0  0  0
   28.2221  -18.5921  -17.3642 C   0  0  0  0  0  0  0  0  0  0  0  0
   28.1075  -17.4886  -16.3638 C   0  0  0  0  0  0  0  0  0  0  0  0
   28.1705  -18.1955  -15.0273 C   0  0  0  0  0  0  0  0  0  0  0  0
   28.1549  -19.6729  -15.4140 C   0  0  1  0  0  0  0  0  0  0  0  0
   27.5415  -20.5309  -14.3892 C   0  0  0  0  0  0  0  0  0  0  0  0
   26.2974  -20.7749  -14.6040 O   0  0  0  0  0  0  0  0  0  0  0  0
   28.2140  -21.0471  -13.2838 N   0  0  0  0  0  0  0  0  0  0  0  0
   29.5090  -21.7759  -13.3326 C   0  0  0  0  0  0  0  0  0  0  0  0
   30.2399  -21.2763  -12.0622 C   0  0  0  0  0  0  0  0  0  0  0  0
   29.2460  -20.2902  -11.4147 C   0  0  0  0  0  0  0  0  0  0  0  0
   27.9551  -20.9764  -11.8912 C   0  0  1  0  0  0  0  0  0  0  0  0
   26.7414  -20.4067  -11.3772 C   0  0  0  0  0  0  0  0  0  0  0  0
   26.5278  -19.1762  -11.3252 O   0  0  0  0  0  0  0  0  0  0  0  0
   25.6726  -21.2454  -10.8787 N   0  0  0  0  0  0  0  0  0  0  0  0
   24.5121  -20.6240  -10.2977 C   0  0  1  0  0  0  0  0  0  0  0  0
   23.2516  -21.0308  -11.0562 C   0  0  0  0  0  0  0  0  0  0  0  0
   23.2750  -20.4569  -12.4182 C   0  0  0  0  0  0  0  0  0  0  0  0
   22.7546  -19.2100  -12.6726 C   0  0  0  0  0  0  0  0  0  0  0  0
   22.7808  -18.6778  -13.9650 C   0  0  0  0  0  0  0  0  0  0  0  0
   23.3324  -19.4073  -14.9944 C   0  0  0  0  0  0  0  0  0  0  0  0
   23.8525  -20.6493  -14.7493 C   0  0  0  0  0  0  0  0  0  0  0  0
   23.8277  -21.1770  -13.4731 C   0  0  0  0  0  0  0  0  0  0  0  0
   24.3665  -20.9513   -8.8659 C   0  0  0  0  0  0  0  0  0  0  0  0
   23.4565  -20.4504   -8.1846 O   0  0  0  0  0  0  0  0  0  0  0  0
   25.2665  -21.8394   -8.2652 O   0  0  0  0  0  0  0  0  0  0  0  0
  1  2  1  0
  3  2  1  0
  4  5  1  0
  4  3  1  0
  5  1  1  0
  5  6  1  1
  7  6  2  0
  8  6  1  0
  8 12  1  0
  9 10  1  0
  9  8  1  0
 10 11  1  0
 11 12  1  0
 12 13  1  6
 13 14  2  0
 15 16  1  0
 15 13  1  0
 16 24  1  0
 16 17  1  6
 18 17  1  0
 19 18  2  0
 20 19  1  0
 21 22  1  0
 21 20  2  0
 22 23  2  0
 23 18  1  0
 24 25  2  0
 24 26  1  0
M  END
$$$$
