PPF.pdb
     RDKit          3D

 26 28  0  0  1  0  0  0  0  0999 V2000
   23.7757  -20.5057  -14.8183 N   0  0  0  0  0  0  0  0  0  0  0  0
   23.1010  -19.2958  -15.3413 C   0  0  0  0  0  0  0  0  0  0  0  0
   23.0988  -18.3746  -14.1653 C   0  0  0  0  0  0  0  0  0  0  0  0
   24.3800  -18.7097  -13.4330 C   0  0  0  0  0  0  0  0  0  0  0  0
   24.9110  -19.9208  -14.1970 C   0  0  1  0  0  0  0  0  0  0  0  0
   25.7056  -20.8296  -13.3571 C   0  0  0  0  0  0  0  0  0  0  0  0
   25.0000  -21.7266  -12.7645 O   0  0  0  0  0  0  0  0  0  0  0  0
   27.0876  -20.7551  -13.1990 N   0  0  0  0  0  0  0  0  0  0  0  0
   28.0393  -20.2358  -14.2164 C   0  0  0  0  0  0  0  0  0  0  0  0
   29.0859  -19.4789  -13.3625 C   0  0  0  0  0  0  0  0  0  0  0  0
   28.5956  -19.6603  -11.9111 C   0  0  0  0  0  0  0  0  0  0  0  0
   27.9385  -21.0376  -12.1001 C   0  0  1  0  0  0  0  0  0  0  0  0
   27.4410  -21.6414  -10.8961 C   0  0  0  0  0  0  0  0  0  0  0  0
   27.7849  -22.7774  -10.5040 O   0  0  0  0  0  0  0  0  0  0  0  0
   26.4910  -20.9521  -10.0495 N   0  0  0  0  0  0  0  0  0  0  0  0
   26.7416  -20.8812   -8.6344 C   0  0  1  0  0  0  0  0  0  0  0  0
   28.0693  -20.1794   -8.3611 C   0  0  0  0  0  0  0  0  0  0  0  0
   28.3189  -20.1213   -6.9053 C   0  0  0  0  0  0  0  0  0  0  0  0
   29.0656  -21.0875   -6.2736 C   0  0  0  0  0  0  0  0  0  0  0  0
   29.2939  -21.0233   -4.8959 C   0  0  0  0  0  0  0  0  0  0  0  0
   28.7671  -19.9836   -4.1626 C   0  0  0  0  0  0  0  0  0  0  0  0
   28.0226  -19.0179   -4.7842 C   0  0  0  0  0  0  0  0  0  0  0  0
   27.7959  -19.0794   -6.1452 C   0  0  0  0  0  0  0  0  0  0  0  0
   25.6516  -20.1967   -7.9122 C   0  0  0  0  0  0  0  0  0  0  0  0
   25.1118  -19.1813   -8.3821 O   0  0  0  0  0  0  0  0  0  0  0  0
   25.2185  -20.6979   -6.6790 O   0  0  0  0  0  0  0  0  0  0  0  0
  1  2  1  0
  3  2  1  0
  4  5  1  0
  4  3  1  0
  5  1  1  0
  5  6  1  1
  7  6  2  0
  8  6  1  0
  8 12  1  0
  9 10  1  0
  9  8  1  0
 10 11  1  0
 11 12  1  0
 12 13  1  1
 13 14  2  0
 15 16  1  0
 15 13  1  0
 16 24  1  0
 16 17  1  6
 18 17  1  0
 19 18  2  0
 20 19  1  0
 21 22  1  0
 21 20  2  0
 22 23  2  0
 23 18  1  0
 24 25  2  0
 24 26  1  0
M  END
$$$$
