PPF.pdb
     RDKit          3D

 26 28  0  0  1  0  0  0  0  0999 V2000
   26.7252  -17.3480  -15.1611 N   0  0  0  0  0  0  0  0  0  0  0  0
   27.7181  -17.1809  -16.2467 C   0  0  0  0  0  0  0  0  0  0  0  0
   29.0094  -17.5275  -15.5805 C   0  0  0  0  0  0  0  0  0  0  0  0
   28.6290  -18.5870  -14.5692 C   0  0  0  0  0  0  0  0  0  0  0  0
   27.1047  -18.6204  -14.6569 C   0  0  1  0  0  0  0  0  0  0  0  0
   26.4626  -19.0125  -13.3933 C   0  0  0  0  0  0  0  0  0  0  0  0
   26.5457  -18.1141  -12.4770 O   0  0  0  0  0  0  0  0  0  0  0  0
   25.8178  -20.2283  -13.1776 N   0  0  0  0  0  0  0  0  0  0  0  0
   24.8765  -20.8787  -14.1272 C   0  0  0  0  0  0  0  0  0  0  0  0
   25.2187  -22.3821  -13.9845 C   0  0  0  0  0  0  0  0  0  0  0  0
   26.3503  -22.4168  -12.9366 C   0  0  0  0  0  0  0  0  0  0  0  0
   25.9070  -21.1832  -12.1329 C   0  0  1  0  0  0  0  0  0  0  0  0
   26.6689  -20.9303  -10.9424 C   0  0  0  0  0  0  0  0  0  0  0  0
   27.8687  -21.2562  -10.8120 O   0  0  0  0  0  0  0  0  0  0  0  0
   26.0761  -20.2687   -9.8000 N   0  0  0  0  0  0  0  0  0  0  0  0
   26.6426  -20.4887   -8.4957 C   0  0  1  0  0  0  0  0  0  0  0  0
   27.5600  -19.3317   -8.1091 C   0  0  0  0  0  0  0  0  0  0  0  0
   28.0543  -19.5193   -6.7287 C   0  0  0  0  0  0  0  0  0  0  0  0
   29.0344  -20.4406   -6.4443 C   0  0  0  0  0  0  0  0  0  0  0  0
   29.4931  -20.6107   -5.1347 C   0  0  0  0  0  0  0  0  0  0  0  0
   28.9599  -19.8495   -4.1186 C   0  0  0  0  0  0  0  0  0  0  0  0
   27.9840  -18.9301   -4.3937 C   0  0  0  0  0  0  0  0  0  0  0  0
   27.5294  -18.7606   -5.6868 C   0  0  0  0  0  0  0  0  0  0  0  0
   25.6033  -20.6742   -7.4642 C   0  0  0  0  0  0  0  0  0  0  0  0
   24.4600  -20.2132   -7.6180 O   0  0  0  0  0  0  0  0  0  0  0  0
   25.9089  -21.3798   -6.2945 O   0  0  0  0  0  0  0  0  0  0  0  0
  1  2  1  0
  3  2  1  0
  4  5  1  0
  4  3  1  0
  5  1  1  0
  5  6  1  1
  7  6  2  0
  8  6  1  0
  8 12  1  0
  9 10  1  0
  9  8  1  0
 10 11  1  0
 11 12  1  0
 12 13  1  1
 13 14  2  0
 15 16  1  0
 15 13  1  0
 16 24  1  0
 16 17  1  1
 18 17  1  0
 19 18  2  0
 20 19  1  0
 21 22  1  0
 21 20  2  0
 22 23  2  0
 23 18  1  0
 24 25  2  0
 24 26  1  0
M  END
$$$$
