PPF.pdb
     RDKit          3D

 26 28  0  0  1  0  0  0  0  0999 V2000
   25.5067  -20.2414  -16.1918 N   0  0  0  0  0  0  0  0  0  0  0  0
   24.7875  -20.5295  -17.4536 C   0  0  0  0  0  0  0  0  0  0  0  0
   24.7843  -22.0223  -17.5080 C   0  0  0  0  0  0  0  0  0  0  0  0
   24.7045  -22.4432  -16.0567 C   0  0  0  0  0  0  0  0  0  0  0  0
   24.8330  -21.1209  -15.3033 C   0  0  1  0  0  0  0  0  0  0  0  0
   25.4518  -21.2702  -13.9776 C   0  0  0  0  0  0  0  0  0  0  0  0
   24.6915  -21.8550  -13.1211 O   0  0  0  0  0  0  0  0  0  0  0  0
   26.7335  -20.8343  -13.6493 N   0  0  0  0  0  0  0  0  0  0  0  0
   27.8339  -20.6009  -14.6215 C   0  0  0  0  0  0  0  0  0  0  0  0
   28.5396  -19.3439  -14.0562 C   0  0  0  0  0  0  0  0  0  0  0  0
   27.7357  -18.9951  -12.7866 C   0  0  0  0  0  0  0  0  0  0  0  0
   27.3182  -20.4295  -12.4224 C   0  0  1  0  0  0  0  0  0  0  0  0
   26.6196  -20.5583  -11.1746 C   0  0  0  0  0  0  0  0  0  0  0  0
   25.4418  -20.1757  -11.0035 O   0  0  0  0  0  0  0  0  0  0  0  0
   27.2551  -21.1519  -10.0179 N   0  0  0  0  0  0  0  0  0  0  0  0
   26.4815  -21.3461   -8.8203 C   0  0  1  0  0  0  0  0  0  0  0  0
   27.3222  -22.0304   -7.7457 C   0  0  0  0  0  0  0  0  0  0  0  0
   27.8848  -21.0196   -6.8256 C   0  0  0  0  0  0  0  0  0  0  0  0
   29.2375  -20.7781   -6.7768 C   0  0  0  0  0  0  0  0  0  0  0  0
   29.7587  -19.8208   -5.9015 C   0  0  0  0  0  0  0  0  0  0  0  0
   28.9113  -19.1118   -5.0796 C   0  0  0  0  0  0  0  0  0  0  0  0
   27.5636  -19.3462   -5.1222 C   0  0  0  0  0  0  0  0  0  0  0  0
   27.0466  -20.2916   -5.9863 C   0  0  0  0  0  0  0  0  0  0  0  0
   25.9360  -20.0767   -8.3011 C   0  0  0  0  0  0  0  0  0  0  0  0
   24.9367  -20.0642   -7.5631 O   0  0  0  0  0  0  0  0  0  0  0  0
   26.5528  -18.8679   -8.6444 O   0  0  0  0  0  0  0  0  0  0  0  0
  1  2  1  0
  3  2  1  0
  4  5  1  0
  4  3  1  0
  5  1  1  0
  5  6  1  1
  7  6  2  0
  8  6  1  0
  8 12  1  0
  9 10  1  0
  9  8  1  0
 10 11  1  0
 11 12  1  0
 12 13  1  1
 13 14  2  0
 15 16  1  0
 15 13  1  0
 16 24  1  0
 16 17  1  1
 18 17  1  0
 19 18  2  0
 20 19  1  0
 21 22  1  0
 21 20  2  0
 22 23  2  0
 23 18  1  0
 24 25  2  0
 24 26  1  0
M  END
$$$$
