PPF.pdb
     RDKit          3D

 26 28  0  0  1  0  0  0  0  0999 V2000
   24.5131  -21.7542  -15.9513 N   0  0  0  0  0  0  0  0  0  0  0  0
   23.9688  -20.8298  -16.9719 C   0  0  0  0  0  0  0  0  0  0  0  0
   23.6493  -19.6032  -16.1815 C   0  0  0  0  0  0  0  0  0  0  0  0
   24.7091  -19.5748  -15.1018 C   0  0  0  0  0  0  0  0  0  0  0  0
   25.4413  -20.9006  -15.2978 C   0  0  1  0  0  0  0  0  0  0  0  0
   26.0150  -21.4324  -14.0525 C   0  0  0  0  0  0  0  0  0  0  0  0
   25.2525  -22.2814  -13.4597 O   0  0  0  0  0  0  0  0  0  0  0  0
   27.2595  -21.0746  -13.5389 N   0  0  0  0  0  0  0  0  0  0  0  0
   28.5188  -20.9921  -14.3250 C   0  0  0  0  0  0  0  0  0  0  0  0
   29.2297  -19.7574  -13.7185 C   0  0  0  0  0  0  0  0  0  0  0  0
   28.2640  -19.2633  -12.6216 C   0  0  0  0  0  0  0  0  0  0  0  0
   27.6706  -20.6337  -12.2552 C   0  0  1  0  0  0  0  0  0  0  0  0
   26.7706  -20.6242  -11.1365 C   0  0  0  0  0  0  0  0  0  0  0  0
   25.6506  -20.0696  -11.1600 O   0  0  0  0  0  0  0  0  0  0  0  0
   27.1185  -21.2713   -9.8896 N   0  0  0  0  0  0  0  0  0  0  0  0
   26.1440  -21.3160   -8.8319 C   0  0  1  0  0  0  0  0  0  0  0  0
   26.7375  -21.9668   -7.5853 C   0  0  0  0  0  0  0  0  0  0  0  0
   27.5068  -20.9687   -6.8128 C   0  0  0  0  0  0  0  0  0  0  0  0
   27.0342  -19.6897   -6.6354 C   0  0  0  0  0  0  0  0  0  0  0  0
   27.7712  -18.7535   -5.9043 C   0  0  0  0  0  0  0  0  0  0  0  0
   28.9819  -19.1132   -5.3556 C   0  0  0  0  0  0  0  0  0  0  0  0
   29.4591  -20.3843   -5.5277 C   0  0  0  0  0  0  0  0  0  0  0  0
   28.7326  -21.3109   -6.2497 C   0  0  0  0  0  0  0  0  0  0  0  0
   25.6232  -19.9752   -8.5011 C   0  0  0  0  0  0  0  0  0  0  0  0
   26.2646  -18.9509   -8.7891 O   0  0  0  0  0  0  0  0  0  0  0  0
   24.3883  -19.8541   -7.8532 O   0  0  0  0  0  0  0  0  0  0  0  0
  1  2  1  0
  3  2  1  0
  4  5  1  0
  4  3  1  0
  5  1  1  0
  5  6  1  1
  7  6  2  0
  8  6  1  0
  8 12  1  0
  9 10  1  0
  9  8  1  0
 10 11  1  0
 11 12  1  0
 12 13  1  1
 13 14  2  0
 15 16  1  0
 15 13  1  0
 16 24  1  0
 16 17  1  1
 18 17  1  0
 19 18  2  0
 20 19  1  0
 21 22  1  0
 21 20  2  0
 22 23  2  0
 23 18  1  0
 24 25  2  0
 24 26  1  0
M  END
$$$$
