PPF.pdb
     RDKit          3D

 26 28  0  0  1  0  0  0  0  0999 V2000
   25.2764  -18.8993  -15.2468 N   0  0  0  0  0  0  0  0  0  0  0  0
   24.1714  -18.3014  -16.0304 C   0  0  0  0  0  0  0  0  0  0  0  0
   23.0191  -19.2045  -15.7339 C   0  0  0  0  0  0  0  0  0  0  0  0
   23.2612  -19.6545  -14.3096 C   0  0  0  0  0  0  0  0  0  0  0  0
   24.6375  -19.0746  -13.9906 C   0  0  1  0  0  0  0  0  0  0  0  0
   25.3874  -19.8744  -13.0105 C   0  0  0  0  0  0  0  0  0  0  0  0
   24.7318  -20.1035  -11.9282 O   0  0  0  0  0  0  0  0  0  0  0  0
   26.6807  -20.3541  -13.2046 N   0  0  0  0  0  0  0  0  0  0  0  0
   27.5091  -20.1173  -14.4165 C   0  0  0  0  0  0  0  0  0  0  0  0
   28.9323  -19.9293  -13.8362 C   0  0  0  0  0  0  0  0  0  0  0  0
   28.7459  -20.0865  -12.3130 C   0  0  0  0  0  0  0  0  0  0  0  0
   27.5677  -21.0733  -12.3635 C   0  0  1  0  0  0  0  0  0  0  0  0
   27.1506  -21.5841  -11.0881 C   0  0  0  0  0  0  0  0  0  0  0  0
   27.0752  -22.8044  -10.8277 O   0  0  0  0  0  0  0  0  0  0  0  0
   26.7854  -20.6935  -10.0074 N   0  0  0  0  0  0  0  0  0  0  0  0
   26.5761  -21.2412   -8.6934 C   0  0  1  0  0  0  0  0  0  0  0  0
   27.9086  -21.6258   -8.0560 C   0  0  0  0  0  0  0  0  0  0  0  0
   28.1574  -20.7892   -6.8630 C   0  0  0  0  0  0  0  0  0  0  0  0
   27.7051  -19.4925   -6.7981 C   0  0  0  0  0  0  0  0  0  0  0  0
   27.9476  -18.7098   -5.6653 C   0  0  0  0  0  0  0  0  0  0  0  0
   28.6457  -19.2405   -4.6036 C   0  0  0  0  0  0  0  0  0  0  0  0
   29.0992  -20.5305   -4.6606 C   0  0  0  0  0  0  0  0  0  0  0  0
   28.8607  -21.3055   -5.7788 C   0  0  0  0  0  0  0  0  0  0  0  0
   25.8475  -20.3069   -7.8133 C   0  0  0  0  0  0  0  0  0  0  0  0
   25.8175  -19.0893   -8.0579 O   0  0  0  0  0  0  0  0  0  0  0  0
   25.1797  -20.7986   -6.6855 O   0  0  0  0  0  0  0  0  0  0  0  0
  1  2  1  0
  3  2  1  0
  4  5  1  0
  4  3  1  0
  5  1  1  0
  5  6  1  1
  7  6  2  0
  8  6  1  0
  8 12  1  0
  9 10  1  0
  9  8  1  0
 10 11  1  0
 11 12  1  0
 12 13  1  1
 13 14  2  0
 15 16  1  0
 15 13  1  0
 16 24  1  0
 16 17  1  1
 18 17  1  0
 19 18  2  0
 20 19  1  0
 21 22  1  0
 21 20  2  0
 22 23  2  0
 23 18  1  0
 24 25  2  0
 24 26  1  0
M  END
$$$$
