PPF.pdb
     RDKit          3D

 26 28  0  0  1  0  0  0  0  0999 V2000
   28.9871  -17.0619  -17.3180 N   0  0  0  0  0  0  0  0  0  0  0  0
   29.4067  -17.2766  -18.7216 C   0  0  0  0  0  0  0  0  0  0  0  0
   29.1581  -18.7348  -18.9298 C   0  0  0  0  0  0  0  0  0  0  0  0
   27.9486  -19.0284  -18.0691 C   0  0  0  0  0  0  0  0  0  0  0  0
   27.7260  -17.7151  -17.3221 C   0  0  1  0  0  0  0  0  0  0  0  0
   27.1103  -17.9009  -15.9995 C   0  0  0  0  0  0  0  0  0  0  0  0
   27.8901  -18.4654  -15.1471 O   0  0  0  0  0  0  0  0  0  0  0  0
   25.8138  -17.5132  -15.6691 N   0  0  0  0  0  0  0  0  0  0  0  0
   25.1887  -16.2147  -16.0348 C   0  0  0  0  0  0  0  0  0  0  0  0
   23.7259  -16.6085  -16.3554 C   0  0  0  0  0  0  0  0  0  0  0  0
   23.6839  -18.1336  -16.1275 C   0  0  0  0  0  0  0  0  0  0  0  0
   24.7507  -18.1929  -15.0217 C   0  0  1  0  0  0  0  0  0  0  0  0
   24.9339  -19.4864  -14.4259 C   0  0  0  0  0  0  0  0  0  0  0  0
   25.5374  -20.4242  -14.9907 O   0  0  0  0  0  0  0  0  0  0  0  0
   24.4174  -19.7837  -13.1071 N   0  0  0  0  0  0  0  0  0  0  0  0
   24.4827  -21.1366  -12.6216 C   0  0  1  0  0  0  0  0  0  0  0  0
   25.8135  -21.3884  -11.9176 C   0  0  0  0  0  0  0  0  0  0  0  0
   25.8162  -20.7311  -10.5937 C   0  0  0  0  0  0  0  0  0  0  0  0
   26.2124  -19.4222  -10.4514 C   0  0  0  0  0  0  0  0  0  0  0  0
   26.2124  -18.8112   -9.1940 C   0  0  0  0  0  0  0  0  0  0  0  0
   25.8123  -19.5248   -8.0864 C   0  0  0  0  0  0  0  0  0  0  0  0
   25.4165  -20.8281   -8.2199 C   0  0  0  0  0  0  0  0  0  0  0  0
   25.4157  -21.4338   -9.4612 C   0  0  0  0  0  0  0  0  0  0  0  0
   23.3639  -21.4539  -11.7128 C   0  0  0  0  0  0  0  0  0  0  0  0
   23.2153  -22.5999  -11.2569 O   0  0  0  0  0  0  0  0  0  0  0  0
   22.4558  -20.4494  -11.3581 O   0  0  0  0  0  0  0  0  0  0  0  0
  1  2  1  0
  3  2  1  0
  4  5  1  0
  4  3  1  0
  5  1  1  0
  5  6  1  1
  7  6  2  0
  8  6  1  0
  8 12  1  0
  9 10  1  0
  9  8  1  0
 10 11  1  0
 11 12  1  0
 12 13  1  6
 13 14  2  0
 15 16  1  0
 15 13  1  0
 16 24  1  0
 16 17  1  1
 18 17  1  0
 19 18  2  0
 20 19  1  0
 21 22  1  0
 21 20  2  0
 22 23  2  0
 23 18  1  0
 24 25  2  0
 24 26  1  0
M  END
$$$$
