PPF.pdb
     RDKit          3D

 26 28  0  0  1  0  0  0  0  0999 V2000
   24.8029  -19.3148  -14.6612 N   0  0  0  0  0  0  0  0  0  0  0  0
   23.6369  -18.5964  -15.2240 C   0  0  0  0  0  0  0  0  0  0  0  0
   22.5001  -19.0912  -14.3908 C   0  0  0  0  0  0  0  0  0  0  0  0
   23.1164  -19.3241  -13.0285 C   0  0  0  0  0  0  0  0  0  0  0  0
   24.6044  -19.0835  -13.2740 C   0  0  1  0  0  0  0  0  0  0  0  0
   25.4705  -19.8631  -12.3768 C   0  0  0  0  0  0  0  0  0  0  0  0
   25.2562  -19.6315  -11.1302 O   0  0  0  0  0  0  0  0  0  0  0  0
   26.4360  -20.7725  -12.8025 N   0  0  0  0  0  0  0  0  0  0  0  0
   26.5984  -21.2586  -14.1982 C   0  0  0  0  0  0  0  0  0  0  0  0
   28.1355  -21.3522  -14.3596 C   0  0  0  0  0  0  0  0  0  0  0  0
   28.6898  -20.8952  -12.9945 C   0  0  0  0  0  0  0  0  0  0  0  0
   27.5191  -21.3970  -12.1331 C   0  0  1  0  0  0  0  0  0  0  0  0
   27.7089  -21.2628  -10.7162 C   0  0  0  0  0  0  0  0  0  0  0  0
   28.8339  -21.1722  -10.1789 O   0  0  0  0  0  0  0  0  0  0  0  0
   26.5815  -21.2242   -9.8096 N   0  0  0  0  0  0  0  0  0  0  0  0
   26.8244  -21.0488   -8.4023 C   0  0  1  0  0  0  0  0  0  0  0  0
   27.7147  -19.8327   -8.1609 C   0  0  0  0  0  0  0  0  0  0  0  0
   28.0513  -19.7308   -6.7252 C   0  0  0  0  0  0  0  0  0  0  0  0
   27.5996  -18.6798   -5.9625 C   0  0  0  0  0  0  0  0  0  0  0  0
   27.9256  -18.5929   -4.6059 C   0  0  0  0  0  0  0  0  0  0  0  0
   28.7061  -19.5679   -4.0258 C   0  0  0  0  0  0  0  0  0  0  0  0
   29.1596  -20.6173   -4.7783 C   0  0  0  0  0  0  0  0  0  0  0  0
   28.8388  -20.7051   -6.1188 C   0  0  0  0  0  0  0  0  0  0  0  0
   25.5702  -20.9152   -7.6359 C   0  0  0  0  0  0  0  0  0  0  0  0
   25.5525  -21.0784   -6.4045 O   0  0  0  0  0  0  0  0  0  0  0  0
   24.3818  -20.5999   -8.3051 O   0  0  0  0  0  0  0  0  0  0  0  0
  1  2  1  0
  3  2  1  0
  4  5  1  0
  4  3  1  0
  5  1  1  0
  5  6  1  1
  7  6  2  0
  8  6  1  0
  8 12  1  0
  9 10  1  0
  9  8  1  0
 10 11  1  0
 11 12  1  0
 12 13  1  1
 13 14  2  0
 15 16  1  0
 15 13  1  0
 16 24  1  0
 16 17  1  6
 18 17  1  0
 19 18  2  0
 20 19  1  0
 21 22  1  0
 21 20  2  0
 22 23  2  0
 23 18  1  0
 24 25  2  0
 24 26  1  0
M  END
$$$$
