PPF.pdb
     RDKit          3D

 26 28  0  0  1  0  0  0  0  0999 V2000
   31.8102  -22.2666  -13.2202 N   0  0  0  0  0  0  0  0  0  0  0  0
   33.0942  -22.9585  -12.9655 C   0  0  0  0  0  0  0  0  0  0  0  0
   33.3729  -22.6383  -11.5333 C   0  0  0  0  0  0  0  0  0  0  0  0
   32.0009  -22.5625  -10.8995 C   0  0  0  0  0  0  0  0  0  0  0  0
   31.0581  -22.6938  -12.0938 C   0  0  1  0  0  0  0  0  0  0  0  0
   29.7758  -22.0016  -11.8952 C   0  0  0  0  0  0  0  0  0  0  0  0
   29.0164  -22.5705  -11.0274 O   0  0  0  0  0  0  0  0  0  0  0  0
   29.3916  -20.8412  -12.5633 N   0  0  0  0  0  0  0  0  0  0  0  0
   30.3010  -19.9620  -13.3448 C   0  0  0  0  0  0  0  0  0  0  0  0
   29.4248  -19.5328  -14.5472 C   0  0  0  0  0  0  0  0  0  0  0  0
   28.0744  -20.2380  -14.3047 C   0  0  0  0  0  0  0  0  0  0  0  0
   28.1271  -20.2327  -12.7680 C   0  0  1  0  0  0  0  0  0  0  0  0
   26.9417  -20.7191  -12.1199 C   0  0  0  0  0  0  0  0  0  0  0  0
   26.2004  -21.5972  -12.6119 O   0  0  0  0  0  0  0  0  0  0  0  0
   26.5293  -20.2076  -10.8305 N   0  0  0  0  0  0  0  0  0  0  0  0
   25.4505  -20.8580  -10.1351 C   0  0  1  0  0  0  0  0  0  0  0  0
   25.9615  -21.5271   -8.8619 C   0  0  0  0  0  0  0  0  0  0  0  0
   26.6605  -20.5361   -8.0168 C   0  0  0  0  0  0  0  0  0  0  0  0
   26.0087  -19.4231   -7.5405 C   0  0  0  0  0  0  0  0  0  0  0  0
   26.6803  -18.4915   -6.7434 C   0  0  0  0  0  0  0  0  0  0  0  0
   28.0069  -18.6884   -6.4309 C   0  0  0  0  0  0  0  0  0  0  0  0
   28.6627  -19.7938   -6.9012 C   0  0  0  0  0  0  0  0  0  0  0  0
   28.0011  -20.7154   -7.6889 C   0  0  0  0  0  0  0  0  0  0  0  0
   24.3573  -19.9217   -9.8086 C   0  0  0  0  0  0  0  0  0  0  0  0
   24.4944  -18.6974   -9.9690 O   0  0  0  0  0  0  0  0  0  0  0  0
   23.1473  -20.4190   -9.3105 O   0  0  0  0  0  0  0  0  0  0  0  0
  1  2  1  0
  3  2  1  0
  4  5  1  0
  4  3  1  0
  5  1  1  0
  5  6  1  1
  7  6  2  0
  8  6  1  0
  8 12  1  0
  9 10  1  0
  9  8  1  0
 10 11  1  0
 11 12  1  0
 12 13  1  1
 13 14  2  0
 15 16  1  0
 15 13  1  0
 16 24  1  0
 16 17  1  1
 18 17  1  0
 19 18  2  0
 20 19  1  0
 21 22  1  0
 21 20  2  0
 22 23  2  0
 23 18  1  0
 24 25  2  0
 24 26  1  0
M  END
$$$$
