HYR.pdb
     RDKit          3D

 34 35  0  0  1  0  0  0  0  0999 V2000
    8.3197  -16.2257   19.9066 N   0  0  0  0  0  0  0  0  0  0  0  0
    9.6358  -15.6661   20.1490 C   0  0  1  0  0  0  0  0  0  0  0  0
    9.8852  -14.6192   19.0957 C   0  0  0  0  0  0  0  0  0  0  0  0
    9.0155  -14.9339   17.9419 C   0  0  0  0  0  0  0  0  0  0  0  0
    8.2252  -16.0411   17.7662 C   0  0  0  0  0  0  0  0  0  0  0  0
    7.5845  -15.9401   16.5625 N   0  0  0  0  0  0  0  0  0  0  0  0
    7.9761  -14.7857   16.0055 C   0  0  0  0  0  0  0  0  0  0  0  0
    8.8413  -14.1809   16.8431 N   0  0  0  0  0  0  0  0  0  0  0  0
    9.6433  -15.1254   21.5348 C   0  0  0  0  0  0  0  0  0  0  0  0
   10.6629  -14.6255   22.0766 O   0  0  0  0  0  0  0  0  0  0  0  0
    6.0608  -11.2728   28.6515 O   0  0  0  0  0  0  0  0  0  0  0  0
    6.3019  -11.8886   27.4268 C   0  0  0  0  0  0  0  0  0  0  0  0
    5.7304  -13.1077   27.1253 C   0  0  0  0  0  0  0  0  0  0  0  0
    5.9761  -13.7115   25.9065 C   0  0  0  0  0  0  0  0  0  0  0  0
    6.7904  -13.1168   24.9703 C   0  0  0  0  0  0  0  0  0  0  0  0
    7.0781  -13.7247   23.6744 C   0  0  0  0  0  0  0  0  0  0  0  0
    8.3366  -14.5632   23.6371 C   0  0  2  0  0  0  0  0  0  0  0  0
    8.4411  -15.1578   22.3278 N   0  0  0  0  0  0  0  0  0  0  0  0
    8.4234  -15.5546   24.7246 C   0  0  0  0  0  0  0  0  0  0  0  0
    8.3904  -15.2374   25.9416 O   0  0  0  0  0  0  0  0  0  0  0  0
    7.3534  -11.9008   25.2850 C   0  0  0  0  0  0  0  0  0  0  0  0
    7.1198  -11.2810   26.4987 C   0  0  0  0  0  0  0  0  0  0  0  0
    4.9197  -22.7594   26.7830 N   0  0  0  0  0  0  0  0  0  0  0  0
    5.9931  -22.6770   27.7051 C   0  0  0  0  0  0  0  0  0  0  0  0
    5.9802  -23.2614   28.8562 N   0  0  0  0  0  0  0  0  0  0  0  0
    7.1804  -21.9398   27.4338 N   0  0  0  0  0  0  0  0  0  0  0  0
    7.3596  -20.9989   26.4177 C   0  0  0  0  0  0  0  0  0  0  0  0
    8.6652  -20.3256   26.2665 C   0  0  0  0  0  0  0  0  0  0  0  0
    8.5655  -19.3498   25.1240 C   0  0  0  0  0  0  0  0  0  0  0  0
    8.6139  -17.9242   25.5383 C   0  0  2  0  0  0  0  0  0  0  0  0
    8.5538  -16.9670   24.4683 N   0  0  0  0  0  0  0  0  0  0  0  0
    9.8883  -17.7180   26.3174 C   0  0  0  0  0  0  0  0  0  0  0  0
   11.0737  -17.4762   25.6442 O   0  0  0  0  0  0  0  0  0  0  0  0
    9.9229  -17.7564   27.5697 O   0  0  0  0  0  0  0  0  0  0  0  0
  2  1  1  6
  2  9  1  0
  2  3  1  0
  4  3  1  0
  5  4  2  0
  6  7  1  0
  6  5  1  0
  7  8  2  0
  8  4  1  0
  9 10  2  0
 11 12  1  0
 12 22  2  0
 13 12  1  0
 13 14  2  0
 14 15  1  0
 15 21  2  0
 15 16  1  0
 17 16  1  6
 18 17  1  0
 18  9  1  0
 19 17  1  0
 20 19  2  0
 22 21  1  0
 23 24  1  0
 24 26  1  0
 25 24  2  0
 26 27  1  0
 27 28  1  0
 28 29  1  0
 30 29  1  6
 30 31  1  0
 31 19  1  0
 32 30  1  0
 32 33  1  0
 34 32  2  0
M  END
$$$$
