HYR.pdb
     RDKit          3D

 34 35  0  0  1  0  0  0  0  0999 V2000
   11.0905  -14.6479   19.2641 N   0  0  0  0  0  0  0  0  0  0  0  0
    9.7218  -14.4421   19.6981 C   0  0  1  0  0  0  0  0  0  0  0  0
    8.9032  -15.5955   19.1812 C   0  0  0  0  0  0  0  0  0  0  0  0
    8.5773  -15.3105   17.7672 C   0  0  0  0  0  0  0  0  0  0  0  0
    8.2057  -14.1093   17.2191 C   0  0  0  0  0  0  0  0  0  0  0  0
    7.9961  -14.2813   15.8789 N   0  0  0  0  0  0  0  0  0  0  0  0
    8.2358  -15.5716   15.6069 C   0  0  0  0  0  0  0  0  0  0  0  0
    8.5867  -16.1898   16.7516 N   0  0  0  0  0  0  0  0  0  0  0  0
    9.7336  -14.3425   21.1822 C   0  0  0  0  0  0  0  0  0  0  0  0
   10.7610  -14.5413   21.8806 O   0  0  0  0  0  0  0  0  0  0  0  0
    6.5156  -11.6901   29.0605 O   0  0  0  0  0  0  0  0  0  0  0  0
    6.6735  -12.0368   27.7218 C   0  0  0  0  0  0  0  0  0  0  0  0
    6.2603  -13.2690   27.2585 C   0  0  0  0  0  0  0  0  0  0  0  0
    6.4217  -13.6041   25.9273 C   0  0  0  0  0  0  0  0  0  0  0  0
    6.9940  -12.7244   25.0374 C   0  0  0  0  0  0  0  0  0  0  0  0
    7.1862  -13.0430   23.6256 C   0  0  0  0  0  0  0  0  0  0  0  0
    8.4815  -13.7584   23.3117 C   0  0  2  0  0  0  0  0  0  0  0  0
    8.5266  -14.0028   21.8914 N   0  0  0  0  0  0  0  0  0  0  0  0
    8.6953  -14.9794   24.1096 C   0  0  0  0  0  0  0  0  0  0  0  0
    8.7067  -14.9793   25.3676 O   0  0  0  0  0  0  0  0  0  0  0  0
    7.4012  -11.4989   25.5140 C   0  0  0  0  0  0  0  0  0  0  0  0
    7.2484  -11.1452   26.8419 C   0  0  0  0  0  0  0  0  0  0  0  0
   12.2842  -22.7570   21.9787 N   0  0  0  0  0  0  0  0  0  0  0  0
   10.9077  -22.4346   21.8750 C   0  0  0  0  0  0  0  0  0  0  0  0
   10.1236  -22.9649   20.9972 N   0  0  0  0  0  0  0  0  0  0  0  0
   10.2745  -21.4952   22.7371 N   0  0  0  0  0  0  0  0  0  0  0  0
   10.8922  -20.7306   23.7288 C   0  0  0  0  0  0  0  0  0  0  0  0
   10.0990  -19.7492   24.4960 C   0  0  0  0  0  0  0  0  0  0  0  0
    9.9287  -18.5140   23.6517 C   0  0  0  0  0  0  0  0  0  0  0  0
    9.1119  -17.4506   24.2908 C   0  0  2  0  0  0  0  0  0  0  0  0
    8.9084  -16.2681   23.5002 N   0  0  0  0  0  0  0  0  0  0  0  0
    9.7870  -17.0720   25.5848 C   0  0  0  0  0  0  0  0  0  0  0  0
   10.4772  -15.8752   25.6753 O   0  0  0  0  0  0  0  0  0  0  0  0
    9.7505  -17.8056   26.6005 O   0  0  0  0  0  0  0  0  0  0  0  0
  2  1  1  1
  2  9  1  0
  2  3  1  0
  4  3  1  0
  5  4  2  0
  6  7  1  0
  6  5  1  0
  7  8  2  0
  8  4  1  0
  9 10  2  0
 11 12  1  0
 12 22  2  0
 13 12  1  0
 13 14  2  0
 14 15  1  0
 15 21  2  0
 15 16  1  0
 17 16  1  6
 18 17  1  0
 18  9  1  0
 19 17  1  0
 20 19  2  0
 22 21  1  0
 23 24  1  0
 24 26  1  0
 25 24  2  0
 26 27  1  0
 27 28  1  0
 28 29  1  0
 30 29  1  6
 30 31  1  0
 31 19  1  0
 32 30  1  0
 32 33  1  0
 34 32  2  0
M  END
$$$$
