HYR.pdb
     RDKit          3D

 34 35  0  0  1  0  0  0  0  0999 V2000
    7.9219  -12.8039   18.4009 N   0  0  0  0  0  0  0  0  0  0  0  0
    7.2767  -13.4424   19.5323 C   0  0  1  0  0  0  0  0  0  0  0  0
    6.7238  -14.7596   19.0560 C   0  0  0  0  0  0  0  0  0  0  0  0
    7.8506  -15.5393   18.4999 C   0  0  0  0  0  0  0  0  0  0  0  0
    8.3257  -15.5236   17.2133 C   0  0  0  0  0  0  0  0  0  0  0  0
    9.3781  -16.3916   17.1203 N   0  0  0  0  0  0  0  0  0  0  0  0
    9.5476  -16.9338   18.3343 C   0  0  0  0  0  0  0  0  0  0  0  0
    8.6218  -16.4155   19.1650 N   0  0  0  0  0  0  0  0  0  0  0  0
    8.2950  -13.5817   20.6076 C   0  0  0  0  0  0  0  0  0  0  0  0
    9.5345  -13.5366   20.3964 O   0  0  0  0  0  0  0  0  0  0  0  0
    4.4535  -12.9071   27.6525 O   0  0  0  0  0  0  0  0  0  0  0  0
    5.5002  -12.8295   26.7384 C   0  0  0  0  0  0  0  0  0  0  0  0
    6.3067  -11.7114   26.6822 C   0  0  0  0  0  0  0  0  0  0  0  0
    7.3434  -11.6437   25.7706 C   0  0  0  0  0  0  0  0  0  0  0  0
    7.5956  -12.6813   24.9029 C   0  0  0  0  0  0  0  0  0  0  0  0
    8.6773  -12.6456   23.9230 C   0  0  0  0  0  0  0  0  0  0  0  0
    8.8013  -13.8924   23.0755 C   0  0  2  0  0  0  0  0  0  0  0  0
    7.8795  -13.7792   21.9727 N   0  0  0  0  0  0  0  0  0  0  0  0
    8.6359  -15.1459   23.8335 C   0  0  0  0  0  0  0  0  0  0  0  0
    7.6173  -15.8769   23.7298 O   0  0  0  0  0  0  0  0  0  0  0  0
    6.7829  -13.7902   24.9706 C   0  0  0  0  0  0  0  0  0  0  0  0
    5.7409  -13.8768   25.8753 C   0  0  0  0  0  0  0  0  0  0  0  0
   11.8087  -21.5505   20.9433 N   0  0  0  0  0  0  0  0  0  0  0  0
   12.7184  -20.8589   21.7820 C   0  0  0  0  0  0  0  0  0  0  0  0
   13.9273  -21.2597   21.9929 N   0  0  0  0  0  0  0  0  0  0  0  0
   12.3705  -19.6579   22.4626 N   0  0  0  0  0  0  0  0  0  0  0  0
   11.1503  -18.9833   22.3855 C   0  0  0  0  0  0  0  0  0  0  0  0
   10.9372  -17.7631   23.1894 C   0  0  0  0  0  0  0  0  0  0  0  0
    9.7925  -18.0129   24.1353 C   0  0  0  0  0  0  0  0  0  0  0  0
    9.6542  -16.9898   25.2033 C   0  0  2  0  0  0  0  0  0  0  0  0
    9.6365  -15.6252   24.7537 N   0  0  0  0  0  0  0  0  0  0  0  0
   10.7973  -17.1795   26.1681 C   0  0  0  0  0  0  0  0  0  0  0  0
   10.9432  -18.3856   26.8321 O   0  0  0  0  0  0  0  0  0  0  0  0
   11.6363  -16.2777   26.4001 O   0  0  0  0  0  0  0  0  0  0  0  0
  2  1  1  6
  2  9  1  0
  2  3  1  0
  4  3  1  0
  5  4  2  0
  6  7  1  0
  6  5  1  0
  7  8  2  0
  8  4  1  0
  9 10  2  0
 11 12  1  0
 12 22  2  0
 13 12  1  0
 13 14  2  0
 14 15  1  0
 15 21  2  0
 15 16  1  0
 17 16  1  1
 18 17  1  0
 18  9  1  0
 19 17  1  0
 20 19  2  0
 22 21  1  0
 23 24  1  0
 24 26  1  0
 25 24  2  0
 26 27  1  0
 27 28  1  0
 28 29  1  0
 30 29  1  6
 30 31  1  0
 31 19  1  0
 32 30  1  0
 32 33  1  0
 34 32  2  0
M  END
$$$$
