HYR.pdb
     RDKit          3D

 34 35  0  0  1  0  0  0  0  0999 V2000
    8.3931  -12.7842   17.9276 N   0  0  0  0  0  0  0  0  0  0  0  0
    8.0360  -14.0391   18.5612 C   0  0  1  0  0  0  0  0  0  0  0  0
    8.7052  -15.1447   17.7882 C   0  0  0  0  0  0  0  0  0  0  0  0
    7.9752  -15.2992   16.5116 C   0  0  0  0  0  0  0  0  0  0  0  0
    8.2282  -14.6678   15.3205 C   0  0  0  0  0  0  0  0  0  0  0  0
    7.3189  -15.0943   14.3925 N   0  0  0  0  0  0  0  0  0  0  0  0
    6.5174  -15.9764   15.0055 C   0  0  0  0  0  0  0  0  0  0  0  0
    6.9180  -16.0969   16.2865 N   0  0  0  0  0  0  0  0  0  0  0  0
    8.4707  -13.9625   19.9817 C   0  0  0  0  0  0  0  0  0  0  0  0
    9.6563  -13.7261   20.3303 O   0  0  0  0  0  0  0  0  0  0  0  0
    7.2398  -13.2903   28.7872 O   0  0  0  0  0  0  0  0  0  0  0  0
    7.0971  -13.3490   27.4039 C   0  0  0  0  0  0  0  0  0  0  0  0
    7.4908  -12.2927   26.6084 C   0  0  0  0  0  0  0  0  0  0  0  0
    7.3448  -12.3603   25.2357 C   0  0  0  0  0  0  0  0  0  0  0  0
    6.8073  -13.4740   24.6323 C   0  0  0  0  0  0  0  0  0  0  0  0
    6.6322  -13.5816   23.1868 C   0  0  0  0  0  0  0  0  0  0  0  0
    7.8493  -14.0807   22.4400 C   0  0  2  0  0  0  0  0  0  0  0  0
    7.5143  -14.1633   21.0401 N   0  0  0  0  0  0  0  0  0  0  0  0
    8.3987  -15.3407   22.9724 C   0  0  0  0  0  0  0  0  0  0  0  0
    7.8535  -16.4582   22.7803 O   0  0  0  0  0  0  0  0  0  0  0  0
    6.4192  -14.5200   25.4386 C   0  0  0  0  0  0  0  0  0  0  0  0
    6.5571  -14.4713   26.8135 C   0  0  0  0  0  0  0  0  0  0  0  0
   15.4390  -20.0286   21.7039 N   0  0  0  0  0  0  0  0  0  0  0  0
   14.2638  -19.8756   22.4816 C   0  0  0  0  0  0  0  0  0  0  0  0
   13.5007  -20.8644   22.8080 N   0  0  0  0  0  0  0  0  0  0  0  0
   13.8282  -18.6113   22.9698 N   0  0  0  0  0  0  0  0  0  0  0  0
   13.4923  -18.3015   24.2893 C   0  0  0  0  0  0  0  0  0  0  0  0
   12.0730  -18.1414   24.6644 C   0  0  0  0  0  0  0  0  0  0  0  0
   11.5526  -16.8823   24.0230 C   0  0  0  0  0  0  0  0  0  0  0  0
   10.1168  -16.6137   24.2921 C   0  0  2  0  0  0  0  0  0  0  0  0
    9.6074  -15.3813   23.7566 N   0  0  0  0  0  0  0  0  0  0  0  0
    9.9228  -16.6226   25.7873 C   0  0  0  0  0  0  0  0  0  0  0  0
   10.1359  -17.7897   26.5009 O   0  0  0  0  0  0  0  0  0  0  0  0
    9.5709  -15.6022   26.4245 O   0  0  0  0  0  0  0  0  0  0  0  0
  2  1  1  6
  2  9  1  0
  2  3  1  0
  4  3  1  0
  5  4  2  0
  6  7  1  0
  6  5  1  0
  7  8  2  0
  8  4  1  0
  9 10  2  0
 11 12  1  0
 12 22  2  0
 13 12  1  0
 13 14  2  0
 14 15  1  0
 15 21  2  0
 15 16  1  0
 17 16  1  1
 18 17  1  0
 18  9  1  0
 19 17  1  0
 20 19  2  0
 22 21  1  0
 23 24  1  0
 24 26  1  0
 25 24  2  0
 26 27  1  0
 27 28  1  0
 28 29  1  0
 30 29  1  1
 30 31  1  0
 31 19  1  0
 32 30  1  0
 32 33  1  0
 34 32  2  0
M  END
$$$$
