HYR.pdb
     RDKit          3D

 34 35  0  0  1  0  0  0  0  0999 V2000
   10.4998  -15.0084   18.8357 N   0  0  0  0  0  0  0  0  0  0  0  0
    9.2261  -14.5626   19.3675 C   0  0  1  0  0  0  0  0  0  0  0  0
    8.1475  -15.3826   18.7104 C   0  0  0  0  0  0  0  0  0  0  0  0
    8.0344  -14.9261   17.3084 C   0  0  0  0  0  0  0  0  0  0  0  0
    8.2000  -13.6527   16.8262 C   0  0  0  0  0  0  0  0  0  0  0  0
    8.0079  -13.6644   15.4724 N   0  0  0  0  0  0  0  0  0  0  0  0
    7.7277  -14.9288   15.1271 C   0  0  0  0  0  0  0  0  0  0  0  0
    7.7448  -15.6878   16.2404 N   0  0  0  0  0  0  0  0  0  0  0  0
    9.2768  -14.7259   20.8451 C   0  0  0  0  0  0  0  0  0  0  0  0
   10.0954  -15.4815   21.4298 O   0  0  0  0  0  0  0  0  0  0  0  0
    7.2811  -12.5811   29.2650 O   0  0  0  0  0  0  0  0  0  0  0  0
    7.2944  -12.6957   27.8779 C   0  0  0  0  0  0  0  0  0  0  0  0
    6.2442  -13.2898   27.2087 C   0  0  0  0  0  0  0  0  0  0  0  0
    6.2668  -13.3992   25.8311 C   0  0  0  0  0  0  0  0  0  0  0  0
    7.3288  -12.9220   25.0977 C   0  0  0  0  0  0  0  0  0  0  0  0
    7.3921  -13.0231   23.6426 C   0  0  0  0  0  0  0  0  0  0  0  0
    8.4242  -13.9992   23.1229 C   0  0  2  0  0  0  0  0  0  0  0  0
    8.3580  -13.9982   21.6827 N   0  0  0  0  0  0  0  0  0  0  0  0
    8.3088  -15.3507   23.7003 C   0  0  0  0  0  0  0  0  0  0  0  0
    7.3293  -16.1076   23.4755 O   0  0  0  0  0  0  0  0  0  0  0  0
    8.3692  -12.3317   25.7789 C   0  0  0  0  0  0  0  0  0  0  0  0
    8.3650  -12.2130   27.1565 C   0  0  0  0  0  0  0  0  0  0  0  0
   14.6960  -20.4388   23.1735 N   0  0  0  0  0  0  0  0  0  0  0  0
   13.7889  -20.1918   22.1126 C   0  0  0  0  0  0  0  0  0  0  0  0
   14.0244  -20.5329   20.8900 N   0  0  0  0  0  0  0  0  0  0  0  0
   12.5364  -19.5450   22.3112 N   0  0  0  0  0  0  0  0  0  0  0  0
   12.0139  -19.1031   23.5284 C   0  0  0  0  0  0  0  0  0  0  0  0
   10.6652  -18.5030   23.5705 C   0  0  0  0  0  0  0  0  0  0  0  0
   10.3705  -18.0991   24.9909 C   0  0  0  0  0  0  0  0  0  0  0  0
    9.1842  -17.2172   25.1367 C   0  0  2  0  0  0  0  0  0  0  0  0
    9.3168  -15.9035   24.5697 N   0  0  0  0  0  0  0  0  0  0  0  0
    8.8850  -17.0940   26.6094 C   0  0  0  0  0  0  0  0  0  0  0  0
    8.3650  -18.1769   27.2979 O   0  0  0  0  0  0  0  0  0  0  0  0
    9.0895  -16.0361   27.2496 O   0  0  0  0  0  0  0  0  0  0  0  0
  2  1  1  6
  2  9  1  0
  2  3  1  0
  4  3  1  0
  5  4  2  0
  6  7  1  0
  6  5  1  0
  7  8  2  0
  8  4  1  0
  9 10  2  0
 11 12  1  0
 12 22  2  0
 13 12  1  0
 13 14  2  0
 14 15  1  0
 15 21  2  0
 15 16  1  0
 17 16  1  1
 18 17  1  0
 18  9  1  0
 19 17  1  0
 20 19  2  0
 22 21  1  0
 23 24  1  0
 24 26  1  0
 25 24  2  0
 26 27  1  0
 27 28  1  0
 28 29  1  0
 30 29  1  1
 30 31  1  0
 31 19  1  0
 32 30  1  0
 32 33  1  0
 34 32  2  0
M  END
$$$$
