HYR.pdb
     RDKit          3D

 34 35  0  0  1  0  0  0  0  0999 V2000
   10.1176  -17.0259   18.5756 N   0  0  0  0  0  0  0  0  0  0  0  0
    9.2797  -17.4362   19.6862 C   0  0  1  0  0  0  0  0  0  0  0  0
    9.7033  -18.8249   20.0859 C   0  0  0  0  0  0  0  0  0  0  0  0
    9.1873  -19.7586   19.0618 C   0  0  0  0  0  0  0  0  0  0  0  0
    8.4788  -19.4506   17.9285 C   0  0  0  0  0  0  0  0  0  0  0  0
    8.1958  -20.6072   17.2563 N   0  0  0  0  0  0  0  0  0  0  0  0
    8.7235  -21.6132   17.9675 C   0  0  0  0  0  0  0  0  0  0  0  0
    9.3219  -21.0953   19.0582 N   0  0  0  0  0  0  0  0  0  0  0  0
    9.4491  -16.4307   20.7693 C   0  0  0  0  0  0  0  0  0  0  0  0
   10.5348  -15.8382   20.9993 O   0  0  0  0  0  0  0  0  0  0  0  0
    6.6577  -11.5656   27.7494 O   0  0  0  0  0  0  0  0  0  0  0  0
    6.7541  -12.3516   26.6047 C   0  0  0  0  0  0  0  0  0  0  0  0
    7.2673  -11.8328   25.4337 C   0  0  0  0  0  0  0  0  0  0  0  0
    7.3587  -12.6212   24.3021 C   0  0  0  0  0  0  0  0  0  0  0  0
    6.9436  -13.9330   24.3145 C   0  0  0  0  0  0  0  0  0  0  0  0
    7.0193  -14.7960   23.1393 C   0  0  0  0  0  0  0  0  0  0  0  0
    8.4249  -15.1507   22.7074 C   0  0  2  0  0  0  0  0  0  0  0  0
    8.3360  -16.0917   21.6186 N   0  0  0  0  0  0  0  0  0  0  0  0
    9.2829  -15.6274   23.8073 C   0  0  0  0  0  0  0  0  0  0  0  0
    9.3486  -15.0477   24.9220 O   0  0  0  0  0  0  0  0  0  0  0  0
    6.4340  -14.4367   25.4898 C   0  0  0  0  0  0  0  0  0  0  0  0
    6.3344  -13.6641   26.6322 C   0  0  0  0  0  0  0  0  0  0  0  0
   10.8687  -21.2346   30.8710 N   0  0  0  0  0  0  0  0  0  0  0  0
   10.6172  -20.0373   30.1551 C   0  0  0  0  0  0  0  0  0  0  0  0
   10.9246  -18.8677   30.6072 N   0  0  0  0  0  0  0  0  0  0  0  0
   10.0030  -20.0279   28.8709 N   0  0  0  0  0  0  0  0  0  0  0  0
    9.7523  -18.9058   28.0785 C   0  0  0  0  0  0  0  0  0  0  0  0
   10.7156  -18.5233   27.0267 C   0  0  0  0  0  0  0  0  0  0  0  0
    9.9516  -17.9006   25.8882 C   0  0  0  0  0  0  0  0  0  0  0  0
   10.8121  -17.3509   24.8095 C   0  0  2  0  0  0  0  0  0  0  0  0
   10.1132  -16.7989   23.6818 N   0  0  0  0  0  0  0  0  0  0  0  0
   11.7175  -18.4603   24.3374 C   0  0  0  0  0  0  0  0  0  0  0  0
   12.8241  -18.8120   25.0915 O   0  0  0  0  0  0  0  0  0  0  0  0
   11.5093  -19.0897   23.2737 O   0  0  0  0  0  0  0  0  0  0  0  0
  2  1  1  6
  2  9  1  0
  2  3  1  0
  4  3  1  0
  5  4  2  0
  6  7  1  0
  6  5  1  0
  7  8  2  0
  8  4  1  0
  9 10  2  0
 11 12  1  0
 12 22  2  0
 13 12  1  0
 13 14  2  0
 14 15  1  0
 15 21  2  0
 15 16  1  0
 17 16  1  1
 18 17  1  0
 18  9  1  0
 19 17  1  0
 20 19  2  0
 22 21  1  0
 23 24  1  0
 24 26  1  0
 25 24  2  0
 26 27  1  0
 27 28  1  0
 28 29  1  0
 30 29  1  1
 30 31  1  0
 31 19  1  0
 32 30  1  0
 32 33  1  0
 34 32  2  0
M  END
$$$$
