HYR.pdb
     RDKit          3D

 34 35  0  0  1  0  0  0  0  0999 V2000
   10.6634  -14.6749   19.7237 N   0  0  0  0  0  0  0  0  0  0  0  0
    9.2679  -14.5502   20.0990 C   0  0  1  0  0  0  0  0  0  0  0  0
    8.4934  -15.5770   19.3157 C   0  0  0  0  0  0  0  0  0  0  0  0
    8.2717  -15.0277   17.9608 C   0  0  0  0  0  0  0  0  0  0  0  0
    8.6958  -13.8205   17.4668 C   0  0  0  0  0  0  0  0  0  0  0  0
    8.2789  -13.7028   16.1698 N   0  0  0  0  0  0  0  0  0  0  0  0
    7.6071  -14.8234   15.8707 C   0  0  0  0  0  0  0  0  0  0  0  0
    7.6054  -15.6213   16.9566 N   0  0  0  0  0  0  0  0  0  0  0  0
    9.1823  -14.7406   21.5718 C   0  0  0  0  0  0  0  0  0  0  0  0
   10.1420  -15.1535   22.2727 O   0  0  0  0  0  0  0  0  0  0  0  0
    6.4115  -12.1758   29.5777 O   0  0  0  0  0  0  0  0  0  0  0  0
    6.6608  -12.3849   28.2244 C   0  0  0  0  0  0  0  0  0  0  0  0
    7.9050  -12.7949   27.7912 C   0  0  0  0  0  0  0  0  0  0  0  0
    8.1429  -12.9997   26.4451 C   0  0  0  0  0  0  0  0  0  0  0  0
    7.1529  -12.8014   25.5103 C   0  0  0  0  0  0  0  0  0  0  0  0
    7.3662  -13.0021   24.0800 C   0  0  0  0  0  0  0  0  0  0  0  0
    7.8500  -14.3849   23.7029 C   0  0  2  0  0  0  0  0  0  0  0  0
    7.9547  -14.4476   22.2663 N   0  0  0  0  0  0  0  0  0  0  0  0
    7.0326  -15.4751   24.2654 C   0  0  0  0  0  0  0  0  0  0  0  0
    6.5304  -15.4269   25.4180 O   0  0  0  0  0  0  0  0  0  0  0  0
    5.9168  -12.3926   25.9573 C   0  0  0  0  0  0  0  0  0  0  0  0
    5.6593  -12.1824   27.2994 C   0  0  0  0  0  0  0  0  0  0  0  0
   12.9547  -20.3415   20.9153 N   0  0  0  0  0  0  0  0  0  0  0  0
   11.7257  -21.0476   20.9026 C   0  0  0  0  0  0  0  0  0  0  0  0
   11.5061  -22.0670   20.1414 N   0  0  0  0  0  0  0  0  0  0  0  0
   10.6278  -20.6885   21.7347 N   0  0  0  0  0  0  0  0  0  0  0  0
   10.5652  -19.5948   22.6006 C   0  0  0  0  0  0  0  0  0  0  0  0
    9.3926  -19.4264   23.4823 C   0  0  0  0  0  0  0  0  0  0  0  0
    8.6721  -18.1677   23.0771 C   0  0  0  0  0  0  0  0  0  0  0  0
    7.4152  -17.9198   23.8287 C   0  0  2  0  0  0  0  0  0  0  0  0
    6.7498  -16.6818   23.5295 N   0  0  0  0  0  0  0  0  0  0  0  0
    7.7463  -17.9622   25.2991 C   0  0  0  0  0  0  0  0  0  0  0  0
    7.1002  -18.8680   26.1231 O   0  0  0  0  0  0  0  0  0  0  0  0
    8.5956  -17.2004   25.8180 O   0  0  0  0  0  0  0  0  0  0  0  0
  2  1  1  6
  2  9  1  0
  2  3  1  0
  4  3  1  0
  5  4  2  0
  6  7  1  0
  6  5  1  0
  7  8  2  0
  8  4  1  0
  9 10  2  0
 11 12  1  0
 12 22  2  0
 13 12  1  0
 13 14  2  0
 14 15  1  0
 15 21  2  0
 15 16  1  0
 17 16  1  6
 18 17  1  0
 18  9  1  0
 19 17  1  0
 20 19  2  0
 22 21  1  0
 23 24  1  0
 24 26  1  0
 25 24  2  0
 26 27  1  0
 27 28  1  0
 28 29  1  0
 30 29  1  6
 30 31  1  0
 31 19  1  0
 32 30  1  0
 32 33  1  0
 34 32  2  0
M  END
$$$$
