PGI.pdb
     RDKit          3D

 20 20  0  0  1  0  0  0  0  0999 V2000
    8.6246  -15.0906   18.5261 N   0  0  0  0  0  0  0  0  0  0  0  0
    7.5130  -14.8552   17.6593 C   0  0  0  0  0  0  0  0  0  0  0  0
    7.4787  -13.3339   17.5087 C   0  0  0  0  0  0  0  0  0  0  0  0
    7.9453  -12.8496   18.8444 C   0  0  0  0  0  0  0  0  0  0  0  0
    8.6892  -14.0188   19.4478 C   0  0  1  0  0  0  0  0  0  0  0  0
    8.0955  -14.3665   20.7622 C   0  0  0  0  0  0  0  0  0  0  0  0
    7.9771  -13.4353   21.6470 O   0  0  0  0  0  0  0  0  0  0  0  0
    7.6643  -15.6810   21.0527 N   0  0  0  0  0  0  0  0  0  0  0  0
    7.0119  -15.9112   22.3065 C   0  0  0  0  0  0  0  0  0  0  0  0
    7.8802  -15.5746   23.4687 C   0  0  0  0  0  0  0  0  0  0  0  0
    9.1246  -15.6940   23.4518 O   0  0  0  0  0  0  0  0  0  0  0  0
    5.6289  -11.6864   26.3455 C   0  0  0  0  0  0  0  0  0  0  0  0
    6.5566  -12.6428   25.6321 C   0  0  0  0  0  0  0  0  0  0  0  0
    7.2207  -13.6111   26.5356 C   0  0  2  0  0  0  0  0  0  0  0  0
    7.9870  -12.9501   27.6638 C   0  0  0  0  0  0  0  0  0  0  0  0
    8.0151  -14.6513   25.8287 C   0  0  2  0  0  0  0  0  0  0  0  0
    7.2637  -15.1003   24.6376 N   0  0  0  0  0  0  0  0  0  0  0  0
    8.4731  -15.7934   26.6156 C   0  0  0  0  0  0  0  0  0  0  0  0
    9.7322  -15.8305   27.2491 O   0  0  0  0  0  0  0  0  0  0  0  0
    7.7916  -16.8298   26.7934 O   0  0  0  0  0  0  0  0  0  0  0  0
  1  2  1  0
  3  2  1  0
  4  5  1  0
  4  3  1  0
  5  1  1  0
  5  6  1  1
  6  7  2  0
  8  6  1  0
  9 10  1  0
  9  8  1  0
 10 17  1  0
 11 10  2  0
 12 13  1  0
 14 16  1  0
 14 15  1  1
 14 13  1  0
 16 17  1  6
 18 19  1  0
 18 16  1  0
 20 18  2  0
M  END
$$$$
