PGI.pdb
     RDKit          3D

 20 20  0  0  1  0  0  0  0  0999 V2000
    7.3306  -15.0203   19.9060 N   0  0  0  0  0  0  0  0  0  0  0  0
    6.3310  -14.1974   20.5112 C   0  0  0  0  0  0  0  0  0  0  0  0
    6.7521  -12.7744   20.1424 C   0  0  0  0  0  0  0  0  0  0  0  0
    8.2454  -12.8533   20.1344 C   0  0  0  0  0  0  0  0  0  0  0  0
    8.5600  -14.3220   19.9652 C   0  0  1  0  0  0  0  0  0  0  0  0
    9.4190  -14.7829   21.0835 C   0  0  0  0  0  0  0  0  0  0  0  0
   10.5398  -14.1771   21.2856 O   0  0  0  0  0  0  0  0  0  0  0  0
    9.0324  -15.8573   21.9167 N   0  0  0  0  0  0  0  0  0  0  0  0
   10.0423  -16.4832   22.7162 C   0  0  0  0  0  0  0  0  0  0  0  0
   10.1790  -15.8495   24.0569 C   0  0  0  0  0  0  0  0  0  0  0  0
   11.2694  -15.7515   24.6607 O   0  0  0  0  0  0  0  0  0  0  0  0
    6.5172  -12.0085   25.1309 C   0  0  0  0  0  0  0  0  0  0  0  0
    7.7336  -12.9008   25.0410 C   0  0  0  0  0  0  0  0  0  0  0  0
    7.8556  -13.8540   26.1687 C   0  0  2  0  0  0  0  0  0  0  0  0
    7.7913  -13.1860   27.5277 C   0  0  0  0  0  0  0  0  0  0  0  0
    8.9982  -14.7980   26.0420 C   0  0  2  0  0  0  0  0  0  0  0  0
    9.0217  -15.3391   24.6666 N   0  0  0  0  0  0  0  0  0  0  0  0
    9.0899  -15.8737   27.0256 C   0  0  0  0  0  0  0  0  0  0  0  0
    8.4504  -17.1193   26.8592 O   0  0  0  0  0  0  0  0  0  0  0  0
    9.7396  -15.7824   28.0932 O   0  0  0  0  0  0  0  0  0  0  0  0
  1  2  1  0
  3  2  1  0
  4  5  1  0
  4  3  1  0
  5  1  1  0
  5  6  1  1
  6  7  2  0
  8  6  1  0
  9 10  1  0
  9  8  1  0
 10 17  1  0
 11 10  2  0
 12 13  1  0
 14 16  1  0
 14 15  1  1
 14 13  1  0
 16 17  1  6
 18 19  1  0
 18 16  1  0
 20 18  2  0
M  END
$$$$
