PGI.pdb
     RDKit          3D

 20 20  0  0  1  0  0  0  0  0999 V2000
    6.6700  -18.7152   21.9264 N   0  0  0  0  0  0  0  0  0  0  0  0
    5.5033  -18.2397   22.6011 C   0  0  0  0  0  0  0  0  0  0  0  0
    4.5936  -17.7588   21.4700 C   0  0  0  0  0  0  0  0  0  0  0  0
    5.5600  -17.2351   20.4560 C   0  0  0  0  0  0  0  0  0  0  0  0
    6.8772  -17.8965   20.7909 C   0  0  1  0  0  0  0  0  0  0  0  0
    7.9140  -16.8608   21.0219 C   0  0  0  0  0  0  0  0  0  0  0  0
    8.1341  -15.9953   20.0910 O   0  0  0  0  0  0  0  0  0  0  0  0
    8.6502  -16.8097   22.2275 N   0  0  0  0  0  0  0  0  0  0  0  0
    9.6814  -15.8226   22.3423 C   0  0  0  0  0  0  0  0  0  0  0  0
    9.8932  -15.3837   23.7495 C   0  0  0  0  0  0  0  0  0  0  0  0
   11.0105  -15.0546   24.2041 O   0  0  0  0  0  0  0  0  0  0  0  0
    6.4253  -12.0780   25.5066 C   0  0  0  0  0  0  0  0  0  0  0  0
    7.6120  -12.9834   25.2697 C   0  0  0  0  0  0  0  0  0  0  0  0
    7.8277  -13.9746   26.3497 C   0  0  2  0  0  0  0  0  0  0  0  0
    8.0160  -13.3427   27.7143 C   0  0  0  0  0  0  0  0  0  0  0  0
    8.8646  -14.9942   26.0366 C   0  0  2  0  0  0  0  0  0  0  0  0
    8.7783  -15.3397   24.6020 N   0  0  0  0  0  0  0  0  0  0  0  0
    8.8885  -16.1995   26.8612 C   0  0  0  0  0  0  0  0  0  0  0  0
    9.6775  -16.3156   28.0239 O   0  0  0  0  0  0  0  0  0  0  0  0
    8.2152  -17.2255   26.6077 O   0  0  0  0  0  0  0  0  0  0  0  0
  1  2  1  0
  3  2  1  0
  4  5  1  0
  4  3  1  0
  5  1  1  0
  5  6  1  1
  6  7  2  0
  8  6  1  0
  9 10  1  0
  9  8  1  0
 10 17  1  0
 11 10  2  0
 12 13  1  0
 14 16  1  0
 14 15  1  1
 14 13  1  0
 16 17  1  6
 18 19  1  0
 18 16  1  0
 20 18  2  0
M  END
$$$$
