PGI.pdb
     RDKit          3D

 20 20  0  0  1  0  0  0  0  0999 V2000
    8.5100  -14.7371   18.0877 N   0  0  0  0  0  0  0  0  0  0  0  0
    7.5065  -13.9318   17.4658 C   0  0  0  0  0  0  0  0  0  0  0  0
    7.7002  -12.5511   18.0939 C   0  0  0  0  0  0  0  0  0  0  0  0
    8.1371  -12.8704   19.4880 C   0  0  0  0  0  0  0  0  0  0  0  0
    8.6627  -14.2859   19.4203 C   0  0  1  0  0  0  0  0  0  0  0  0
    7.9353  -15.1380   20.3928 C   0  0  0  0  0  0  0  0  0  0  0  0
    6.9025  -15.7927   19.9819 O   0  0  0  0  0  0  0  0  0  0  0  0
    8.3519  -15.2415   21.7395 N   0  0  0  0  0  0  0  0  0  0  0  0
    7.6796  -16.1872   22.5789 C   0  0  0  0  0  0  0  0  0  0  0  0
    8.1542  -16.1326   23.9894 C   0  0  0  0  0  0  0  0  0  0  0  0
    9.0786  -16.8502   24.4297 O   0  0  0  0  0  0  0  0  0  0  0  0
    5.8586  -11.9078   27.3735 C   0  0  0  0  0  0  0  0  0  0  0  0
    6.2511  -13.1725   26.6449 C   0  0  0  0  0  0  0  0  0  0  0  0
    7.5656  -13.0838   25.9672 C   0  0  2  0  0  0  0  0  0  0  0  0
    7.5197  -12.3015   24.6699 C   0  0  0  0  0  0  0  0  0  0  0  0
    8.2649  -14.3895   25.8305 C   0  0  2  0  0  0  0  0  0  0  0  0
    7.5279  -15.2283   24.8619 N   0  0  0  0  0  0  0  0  0  0  0  0
    8.5410  -15.1325   27.0573 C   0  0  0  0  0  0  0  0  0  0  0  0
    7.9370  -16.3716   27.3537 O   0  0  0  0  0  0  0  0  0  0  0  0
    9.3320  -14.7354   27.9444 O   0  0  0  0  0  0  0  0  0  0  0  0
  1  2  1  0
  3  2  1  0
  4  5  1  0
  4  3  1  0
  5  1  1  0
  5  6  1  1
  6  7  2  0
  8  6  1  0
  9 10  1  0
  9  8  1  0
 10 17  1  0
 11 10  2  0
 12 13  1  0
 14 16  1  0
 14 15  1  6
 14 13  1  0
 16 17  1  6
 18 19  1  0
 18 16  1  0
 20 18  2  0
M  END
$$$$
