PGI.pdb
     RDKit          3D

 20 20  0  0  1  0  0  0  0  0999 V2000
    8.4975  -15.1338   18.0412 N   0  0  0  0  0  0  0  0  0  0  0  0
    7.6177  -14.3025   17.2815 C   0  0  0  0  0  0  0  0  0  0  0  0
    7.9730  -12.8841   17.7286 C   0  0  0  0  0  0  0  0  0  0  0  0
    8.3371  -13.0627   19.1680 C   0  0  0  0  0  0  0  0  0  0  0  0
    8.6793  -14.5283   19.3073 C   0  0  1  0  0  0  0  0  0  0  0  0
    7.8296  -15.1442   20.3560 C   0  0  0  0  0  0  0  0  0  0  0  0
    6.5663  -14.8833   20.3528 O   0  0  0  0  0  0  0  0  0  0  0  0
    8.3757  -15.9987   21.3407 N   0  0  0  0  0  0  0  0  0  0  0  0
    7.6927  -16.0989   22.5954 C   0  0  0  0  0  0  0  0  0  0  0  0
    8.3639  -15.3179   23.6712 C   0  0  0  0  0  0  0  0  0  0  0  0
    9.5379  -14.8973   23.5822 O   0  0  0  0  0  0  0  0  0  0  0  0
    5.4684  -11.9075   27.2323 C   0  0  0  0  0  0  0  0  0  0  0  0
    6.0350  -13.1567   26.5977 C   0  0  0  0  0  0  0  0  0  0  0  0
    7.4144  -12.9885   26.0838 C   0  0  2  0  0  0  0  0  0  0  0  0
    7.4871  -12.1442   24.8272 C   0  0  0  0  0  0  0  0  0  0  0  0
    8.1770  -14.2605   25.9707 C   0  0  2  0  0  0  0  0  0  0  0  0
    7.6359  -15.0443   24.8403 N   0  0  0  0  0  0  0  0  0  0  0  0
    8.2844  -15.0856   27.1712 C   0  0  0  0  0  0  0  0  0  0  0  0
    9.1168  -14.7497   28.2585 O   0  0  0  0  0  0  0  0  0  0  0  0
    7.6508  -16.1541   27.3360 O   0  0  0  0  0  0  0  0  0  0  0  0
  1  2  1  0
  3  2  1  0
  4  5  1  0
  4  3  1  0
  5  1  1  0
  5  6  1  1
  6  7  2  0
  8  6  1  0
  9 10  1  0
  9  8  1  0
 10 17  1  0
 11 10  2  0
 12 13  1  0
 14 16  1  0
 14 15  1  6
 14 13  1  0
 16 17  1  6
 18 19  1  0
 18 16  1  0
 20 18  2  0
M  END
$$$$
