PGI.pdb
     RDKit          3D

 20 20  0  0  1  0  0  0  0  0999 V2000
    8.2827  -15.0953   18.3251 N   0  0  0  0  0  0  0  0  0  0  0  0
    7.4685  -14.1494   17.6289 C   0  0  0  0  0  0  0  0  0  0  0  0
    7.8895  -12.8003   18.2127 C   0  0  0  0  0  0  0  0  0  0  0  0
    8.2076  -13.1305   19.6361 C   0  0  0  0  0  0  0  0  0  0  0  0
    8.4658  -14.6197   19.6453 C   0  0  1  0  0  0  0  0  0  0  0  0
    7.5582  -15.2801   20.6154 C   0  0  0  0  0  0  0  0  0  0  0  0
    6.3022  -14.9887   20.5761 O   0  0  0  0  0  0  0  0  0  0  0  0
    8.0423  -16.2087   21.5648 N   0  0  0  0  0  0  0  0  0  0  0  0
    7.4210  -16.2347   22.8548 C   0  0  0  0  0  0  0  0  0  0  0  0
    8.2669  -15.6036   23.9054 C   0  0  0  0  0  0  0  0  0  0  0  0
    9.4716  -15.3161   23.7342 O   0  0  0  0  0  0  0  0  0  0  0  0
    5.8127  -11.8200   26.3767 C   0  0  0  0  0  0  0  0  0  0  0  0
    6.8199  -12.7868   25.7979 C   0  0  0  0  0  0  0  0  0  0  0  0
    7.5288  -13.5896   26.8217 C   0  0  2  0  0  0  0  0  0  0  0  0
    8.2393  -12.7444   27.8599 C   0  0  0  0  0  0  0  0  0  0  0  0
    8.3932  -14.6611   26.2583 C   0  0  2  0  0  0  0  0  0  0  0  0
    7.6755  -15.3204   25.1469 N   0  0  0  0  0  0  0  0  0  0  0  0
    8.9276  -15.6497   27.1912 C   0  0  0  0  0  0  0  0  0  0  0  0
    8.2364  -16.8296   27.5347 O   0  0  0  0  0  0  0  0  0  0  0  0
   10.0373  -15.5346   27.7617 O   0  0  0  0  0  0  0  0  0  0  0  0
  1  2  1  0
  3  2  1  0
  4  5  1  0
  4  3  1  0
  5  1  1  0
  5  6  1  1
  6  7  2  0
  8  6  1  0
  9 10  1  0
  9  8  1  0
 10 17  1  0
 11 10  2  0
 12 13  1  0
 14 16  1  0
 14 15  1  6
 14 13  1  0
 16 17  1  6
 18 19  1  0
 18 16  1  0
 20 18  2  0
M  END
$$$$
