PGI.pdb
     RDKit          3D

 20 20  0  0  1  0  0  0  0  0999 V2000
    8.6818  -15.3256   18.4529 N   0  0  0  0  0  0  0  0  0  0  0  0
    7.6813  -15.0369   17.4741 C   0  0  0  0  0  0  0  0  0  0  0  0
    7.8237  -13.5336   17.2337 C   0  0  0  0  0  0  0  0  0  0  0  0
    8.2219  -13.0109   18.5770 C   0  0  0  0  0  0  0  0  0  0  0  0
    8.7809  -14.2065   19.3135 C   0  0  1  0  0  0  0  0  0  0  0  0
    8.0416  -14.4033   20.5845 C   0  0  0  0  0  0  0  0  0  0  0  0
    7.9593  -13.4117   21.4057 O   0  0  0  0  0  0  0  0  0  0  0  0
    7.4358  -15.6403   20.9021 N   0  0  0  0  0  0  0  0  0  0  0  0
    6.7969  -15.7664   22.1775 C   0  0  0  0  0  0  0  0  0  0  0  0
    7.7102  -15.4331   23.3056 C   0  0  0  0  0  0  0  0  0  0  0  0
    8.9564  -15.4696   23.2122 O   0  0  0  0  0  0  0  0  0  0  0  0
    5.9983  -12.0399   27.6025 C   0  0  0  0  0  0  0  0  0  0  0  0
    6.1796  -13.1458   26.5885 C   0  0  0  0  0  0  0  0  0  0  0  0
    7.5779  -13.3026   26.1243 C   0  0  2  0  0  0  0  0  0  0  0  0
    7.9867  -12.2693   25.0936 C   0  0  0  0  0  0  0  0  0  0  0  0
    7.9298  -14.6909   25.7225 C   0  0  2  0  0  0  0  0  0  0  0  0
    7.1360  -15.0602   24.5314 N   0  0  0  0  0  0  0  0  0  0  0  0
    7.8416  -15.7272   26.7479 C   0  0  0  0  0  0  0  0  0  0  0  0
    8.8047  -15.8799   27.7662 O   0  0  0  0  0  0  0  0  0  0  0  0
    6.9097  -16.5627   26.8098 O   0  0  0  0  0  0  0  0  0  0  0  0
  1  2  1  0
  3  2  1  0
  4  5  1  0
  4  3  1  0
  5  1  1  0
  5  6  1  1
  6  7  2  0
  8  6  1  0
  9 10  1  0
  9  8  1  0
 10 17  1  0
 11 10  2  0
 12 13  1  0
 14 16  1  0
 14 15  1  6
 14 13  1  0
 16 17  1  6
 18 19  1  0
 18 16  1  0
 20 18  2  0
M  END
$$$$
