PGI.pdb
     RDKit          3D

 20 20  0  0  1  0  0  0  0  0999 V2000
    8.6368  -15.1948   18.5047 N   0  0  0  0  0  0  0  0  0  0  0  0
    7.5223  -15.0040   17.6307 C   0  0  0  0  0  0  0  0  0  0  0  0
    7.4650  -13.4889   17.4317 C   0  0  0  0  0  0  0  0  0  0  0  0
    7.9235  -12.9554   18.7514 C   0  0  0  0  0  0  0  0  0  0  0  0
    8.6847  -14.0933   19.3919 C   0  0  1  0  0  0  0  0  0  0  0  0
    8.0956  -14.4080   20.7166 C   0  0  0  0  0  0  0  0  0  0  0  0
    7.9637  -13.4512   21.5717 O   0  0  0  0  0  0  0  0  0  0  0  0
    7.6830  -15.7186   21.0482 N   0  0  0  0  0  0  0  0  0  0  0  0
    7.0765  -15.9271   22.3287 C   0  0  0  0  0  0  0  0  0  0  0  0
    7.9483  -15.4786   23.4497 C   0  0  0  0  0  0  0  0  0  0  0  0
    9.1972  -15.5159   23.4038 O   0  0  0  0  0  0  0  0  0  0  0  0
    5.6430  -11.5644   26.2818 C   0  0  0  0  0  0  0  0  0  0  0  0
    6.6180  -12.4839   25.5834 C   0  0  0  0  0  0  0  0  0  0  0  0
    7.2523  -13.4730   26.4860 C   0  0  2  0  0  0  0  0  0  0  0  0
    7.9699  -12.8388   27.6606 C   0  0  0  0  0  0  0  0  0  0  0  0
    8.0800  -14.4896   25.7831 C   0  0  2  0  0  0  0  0  0  0  0  0
    7.3300  -14.9912   24.6122 N   0  0  0  0  0  0  0  0  0  0  0  0
    8.5999  -15.5971   26.5808 C   0  0  0  0  0  0  0  0  0  0  0  0
    7.8900  -16.7997   26.7749 O   0  0  0  0  0  0  0  0  0  0  0  0
    9.7127  -15.5733   27.1566 O   0  0  0  0  0  0  0  0  0  0  0  0
  1  2  1  0
  3  2  1  0
  4  5  1  0
  4  3  1  0
  5  1  1  0
  5  6  1  1
  6  7  2  0
  8  6  1  0
  9 10  1  0
  9  8  1  0
 10 17  1  0
 11 10  2  0
 12 13  1  0
 14 16  1  0
 14 15  1  1
 14 13  1  0
 16 17  1  6
 18 19  1  0
 18 16  1  0
 20 18  2  0
M  END
$$$$
