DCI.pdb
     RDKit          3D

 23 22  0  0  1  0  0  0  0  0999 V2000
   16.1252  -12.3866  -13.9785 N   0  0  0  0  0  0  0  0  0  0  0  0
   15.3725  -11.1544  -13.8625 C   0  0  1  0  0  0  0  0  0  0  0  0
   13.9388  -11.3961  -13.4427 C   0  0  0  0  0  0  0  0  0  0  0  0
   13.1833  -12.0710  -14.5142 C   0  0  0  0  0  0  0  0  0  0  0  0
   12.5231  -13.1189  -14.2741 O   0  0  0  0  0  0  0  0  0  0  0  0
   15.9868  -10.2824  -12.8245 C   0  0  0  0  0  0  0  0  0  0  0  0
   16.2543  -10.7519  -11.7127 O   0  0  0  0  0  0  0  0  0  0  0  0
   13.1829  -11.5708  -15.8005 O   0  0  0  0  0  0  0  0  0  0  0  0
   16.2801   -8.9191  -13.0646 N   0  0  0  0  0  0  0  0  0  0  0  0
   17.0620   -8.0958  -12.1844 C   0  0  1  0  0  0  0  0  0  0  0  0
   18.1061   -7.2845  -12.9141 C   0  0  0  0  0  0  0  0  0  0  0  0
   19.3461   -8.3852  -13.6508 S   0  0  0  0  0  0  0  0  0  0  0  0
   16.1387   -7.2378  -11.4053 C   0  0  0  0  0  0  0  0  0  0  0  0
   15.1906   -6.6848  -12.0030 O   0  0  0  0  0  0  0  0  0  0  0  0
   13.1331   -7.8560   -8.7760 C   0  0  0  0  0  0  0  0  0  0  0  0
   14.2885   -7.8876   -7.8231 C   0  0  0  0  0  0  0  0  0  0  0  0
   15.1231   -6.6225   -7.8517 C   0  0  2  0  0  0  0  0  0  0  0  0
   14.2668   -5.5724   -7.1658 C   0  0  0  0  0  0  0  0  0  0  0  0
   15.3912   -6.1355   -9.2360 C   0  0  2  0  0  0  0  0  0  0  0  0
   16.2482   -6.9932  -10.0221 N   0  0  0  0  0  0  0  0  0  0  0  0
   15.9394   -4.7646   -9.1582 C   0  0  0  0  0  0  0  0  0  0  0  0
   15.1228   -3.6793   -9.3103 O   0  0  0  0  0  0  0  0  0  0  0  0
   17.1578   -4.6143   -8.9522 O   0  0  0  0  0  0  0  0  0  0  0  0
  2  1  1  1
  3  4  1  0
  3  2  1  0
  4  8  1  0
  5  4  2  0
  6  2  1  0
  6  9  1  0
  7  6  2  0
 10 11  1  6
 10  9  1  0
 10 13  1  0
 12 11  1  0
 13 20  1  0
 14 13  2  0
 16 15  1  0
 17 18  1  1
 17 16  1  0
 19 17  1  0
 19 20  1  1
 21 22  1  0
 21 19  1  0
 23 21  2  0
M  END
$$$$
