DCI.pdb
     RDKit          3D

 23 22  0  0  1  0  0  0  0  0999 V2000
   18.9240  -10.8173  -17.7399 N   0  0  0  0  0  0  0  0  0  0  0  0
   19.4813   -9.4803  -17.7175 C   0  0  1  0  0  0  0  0  0  0  0  0
   18.4921   -8.4392  -18.1948 C   0  0  0  0  0  0  0  0  0  0  0  0
   18.2289   -8.5860  -19.6383 C   0  0  0  0  0  0  0  0  0  0  0  0
   17.1782   -8.1131  -20.1521 O   0  0  0  0  0  0  0  0  0  0  0  0
   19.8590   -9.1131  -16.3255 C   0  0  0  0  0  0  0  0  0  0  0  0
   18.9940   -8.6935  -15.5485 O   0  0  0  0  0  0  0  0  0  0  0  0
   19.1256   -9.2431  -20.4561 O   0  0  0  0  0  0  0  0  0  0  0  0
   21.1873   -9.2274  -15.8514 N   0  0  0  0  0  0  0  0  0  0  0  0
   21.5900   -8.9346  -14.5038 C   0  0  1  0  0  0  0  0  0  0  0  0
   22.6268   -9.8994  -13.9792 C   0  0  0  0  0  0  0  0  0  0  0  0
   24.1656   -9.7342  -14.9262 S   0  0  0  0  0  0  0  0  0  0  0  0
   22.0631   -7.5314  -14.4527 C   0  0  0  0  0  0  0  0  0  0  0  0
   22.3935   -7.0530  -13.3462 O   0  0  0  0  0  0  0  0  0  0  0  0
   25.1709   -3.3973  -17.8283 C   0  0  0  0  0  0  0  0  0  0  0  0
   24.1578   -3.6519  -16.7546 C   0  0  0  0  0  0  0  0  0  0  0  0
   23.7098   -5.0984  -16.6848 C   0  0  2  0  0  0  0  0  0  0  0  0
   22.9779   -5.3456  -17.9924 C   0  0  0  0  0  0  0  0  0  0  0  0
   22.7377   -5.3522  -15.5821 C   0  0  2  0  0  0  0  0  0  0  0  0
   22.1712   -6.6815  -15.5711 N   0  0  0  0  0  0  0  0  0  0  0  0
   21.6771   -4.3236  -15.6395 C   0  0  0  0  0  0  0  0  0  0  0  0
   20.4330   -4.6332  -16.1131 O   0  0  0  0  0  0  0  0  0  0  0  0
   21.9355   -3.1701  -15.2497 O   0  0  0  0  0  0  0  0  0  0  0  0
  2  1  1  1
  3  4  1  0
  3  2  1  0
  4  8  1  0
  5  4  2  0
  6  2  1  0
  6  9  1  0
  7  6  2  0
 10 11  1  6
 10  9  1  0
 10 13  1  0
 12 11  1  0
 13 20  1  0
 14 13  2  0
 16 15  1  0
 17 18  1  6
 17 16  1  0
 19 17  1  0
 19 20  1  6
 21 22  1  0
 21 19  1  0
 23 21  2  0
M  END
$$$$
