DCI.pdb
     RDKit          3D

 23 22  0  0  1  0  0  0  0  0999 V2000
   29.0469  -32.2842  -15.7237 N   0  0  0  0  0  0  0  0  0  0  0  0
   28.6378  -31.3468  -16.7495 C   0  0  1  0  0  0  0  0  0  0  0  0
   27.2238  -31.5998  -17.2259 C   0  0  0  0  0  0  0  0  0  0  0  0
   27.1081  -32.9324  -17.8467 C   0  0  0  0  0  0  0  0  0  0  0  0
   27.7832  -33.2256  -18.8713 O   0  0  0  0  0  0  0  0  0  0  0  0
   28.6717  -29.9601  -16.2101 C   0  0  0  0  0  0  0  0  0  0  0  0
   28.3516  -29.7544  -15.0339 O   0  0  0  0  0  0  0  0  0  0  0  0
   26.2599  -33.8852  -17.3201 O   0  0  0  0  0  0  0  0  0  0  0  0
   29.0612  -28.8541  -17.0020 N   0  0  0  0  0  0  0  0  0  0  0  0
   29.2746  -27.5298  -16.4875 C   0  0  1  0  0  0  0  0  0  0  0  0
   30.5712  -26.9183  -16.9626 C   0  0  0  0  0  0  0  0  0  0  0  0
   31.5362  -26.3267  -15.5446 S   0  0  0  0  0  0  0  0  0  0  0  0
   28.1042  -26.6953  -16.8472 C   0  0  0  0  0  0  0  0  0  0  0  0
   28.0584  -25.5190  -16.4274 O   0  0  0  0  0  0  0  0  0  0  0  0
   24.3676  -25.6759  -21.6024 C   0  0  0  0  0  0  0  0  0  0  0  0
   24.5622  -25.6020  -20.1189 C   0  0  0  0  0  0  0  0  0  0  0  0
   25.7087  -26.4602  -19.6220 C   0  0  2  0  0  0  0  0  0  0  0  0
   25.2539  -27.8914  -19.8488 C   0  0  0  0  0  0  0  0  0  0  0  0
   25.9583  -26.3048  -18.1595 C   0  0  2  0  0  0  0  0  0  0  0  0
   27.0226  -27.1313  -17.6377 N   0  0  0  0  0  0  0  0  0  0  0  0
   24.6929  -26.5483  -17.4344 C   0  0  0  0  0  0  0  0  0  0  0  0
   23.7243  -25.5854  -17.3833 O   0  0  0  0  0  0  0  0  0  0  0  0
   24.5238  -27.6449  -16.8702 O   0  0  0  0  0  0  0  0  0  0  0  0
  2  1  1  1
  3  4  1  0
  3  2  1  0
  4  8  1  0
  5  4  2  0
  6  2  1  0
  6  9  1  0
  7  6  2  0
 10 11  1  6
 10  9  1  0
 10 13  1  0
 12 11  1  0
 13 20  1  0
 14 13  2  0
 16 15  1  0
 17 18  1  1
 17 16  1  0
 19 17  1  0
 19 20  1  1
 21 22  1  0
 21 19  1  0
 23 21  2  0
M  END
$$$$
