DCI.pdb
     RDKit          3D

 23 22  0  0  1  0  0  0  0  0999 V2000
   28.0718  -20.7936  -15.2430 N   0  0  0  0  0  0  0  0  0  0  0  0
   28.3725  -19.7259  -14.3113 C   0  0  1  0  0  0  0  0  0  0  0  0
   28.4429  -18.3754  -14.9907 C   0  0  0  0  0  0  0  0  0  0  0  0
   27.4754  -18.2935  -16.1005 C   0  0  0  0  0  0  0  0  0  0  0  0
   26.6427  -19.2205  -16.2979 O   0  0  0  0  0  0  0  0  0  0  0  0
   27.3020  -19.6373  -13.2811 C   0  0  0  0  0  0  0  0  0  0  0  0
   26.9113  -18.5282  -12.9001 O   0  0  0  0  0  0  0  0  0  0  0  0
   27.4608  -17.2023  -16.9452 O   0  0  0  0  0  0  0  0  0  0  0  0
   26.7067  -20.7888  -12.7138 N   0  0  0  0  0  0  0  0  0  0  0  0
   25.6536  -20.7536  -11.7373 C   0  0  1  0  0  0  0  0  0  0  0  0
   24.5203  -21.6973  -12.0632 C   0  0  0  0  0  0  0  0  0  0  0  0
   23.8510  -21.3212  -13.7071 S   0  0  0  0  0  0  0  0  0  0  0  0
   26.2418  -21.0334  -10.4064 C   0  0  0  0  0  0  0  0  0  0  0  0
   27.4421  -21.3761  -10.3446 O   0  0  0  0  0  0  0  0  0  0  0  0
   29.3262  -20.3475   -6.2171 C   0  0  0  0  0  0  0  0  0  0  0  0
   27.8314  -20.4387   -6.1800 C   0  0  0  0  0  0  0  0  0  0  0  0
   27.1799  -20.1409   -7.5159 C   0  0  2  0  0  0  0  0  0  0  0  0
   26.5184  -18.7857   -7.3358 C   0  0  0  0  0  0  0  0  0  0  0  0
   26.1034  -21.1124   -7.8659 C   0  0  2  0  0  0  0  0  0  0  0  0
   25.5426  -20.9418   -9.1867 N   0  0  0  0  0  0  0  0  0  0  0  0
   25.0508  -21.0470   -6.8297 C   0  0  0  0  0  0  0  0  0  0  0  0
   23.7861  -20.6379   -7.1479 O   0  0  0  0  0  0  0  0  0  0  0  0
   25.3349  -21.3700   -5.6616 O   0  0  0  0  0  0  0  0  0  0  0  0
  2  1  1  6
  3  4  1  0
  3  2  1  0
  4  8  1  0
  5  4  2  0
  6  2  1  0
  6  9  1  0
  7  6  2  0
 10 11  1  6
 10  9  1  0
 10 13  1  0
 12 11  1  0
 13 20  1  0
 14 13  2  0
 16 15  1  0
 17 18  1  1
 17 16  1  0
 19 17  1  0
 19 20  1  6
 21 22  1  0
 21 19  1  0
 23 21  2  0
M  END
$$$$
