DCI.pdb
     RDKit          3D

 23 22  0  0  1  0  0  0  0  0999 V2000
   28.0096  -22.4493  -16.4168 N   0  0  0  0  0  0  0  0  0  0  0  0
   27.7238  -21.2491  -15.6576 C   0  0  1  0  0  0  0  0  0  0  0  0
   27.0941  -20.1685  -16.5097 C   0  0  0  0  0  0  0  0  0  0  0  0
   28.1046  -19.5133  -17.3605 C   0  0  0  0  0  0  0  0  0  0  0  0
   29.2276  -19.1846  -16.8887 O   0  0  0  0  0  0  0  0  0  0  0  0
   26.7593  -21.5581  -14.5671 C   0  0  0  0  0  0  0  0  0  0  0  0
   25.7707  -22.2602  -14.8070 O   0  0  0  0  0  0  0  0  0  0  0  0
   27.8432  -19.2464  -18.6890 O   0  0  0  0  0  0  0  0  0  0  0  0
   26.9329  -21.0728  -13.2493 N   0  0  0  0  0  0  0  0  0  0  0  0
   26.0156  -21.3206  -12.1718 C   0  0  1  0  0  0  0  0  0  0  0  0
   26.5720  -20.9229  -10.8253 C   0  0  0  0  0  0  0  0  0  0  0  0
   25.2627  -20.9777   -9.5705 S   0  0  0  0  0  0  0  0  0  0  0  0
   24.7430  -20.6239  -12.4729 C   0  0  0  0  0  0  0  0  0  0  0  0
   24.7766  -19.3982  -12.7152 O   0  0  0  0  0  0  0  0  0  0  0  0
   20.3930  -19.8663  -16.1713 C   0  0  0  0  0  0  0  0  0  0  0  0
   20.6098  -20.0079  -14.6958 C   0  0  0  0  0  0  0  0  0  0  0  0
   21.9265  -20.6722  -14.3451 C   0  0  2  0  0  0  0  0  0  0  0  0
   21.7382  -22.1336  -14.7127 C   0  0  0  0  0  0  0  0  0  0  0  0
   22.2312  -20.6217  -12.8857 C   0  0  2  0  0  0  0  0  0  0  0  0
   23.4789  -21.2450  -12.5079 N   0  0  0  0  0  0  0  0  0  0  0  0
   21.0967  -21.2124  -12.1441 C   0  0  0  0  0  0  0  0  0  0  0  0
   21.1681  -22.4912  -11.6671 O   0  0  0  0  0  0  0  0  0  0  0  0
   20.0744  -20.5262  -11.9612 O   0  0  0  0  0  0  0  0  0  0  0  0
  2  1  1  6
  3  4  1  0
  3  2  1  0
  4  8  1  0
  5  4  2  0
  6  2  1  0
  6  9  1  0
  7  6  2  0
 10 11  1  1
 10  9  1  0
 10 13  1  0
 12 11  1  0
 13 20  1  0
 14 13  2  0
 16 15  1  0
 17 18  1  1
 17 16  1  0
 19 17  1  0
 19 20  1  6
 21 22  1  0
 21 19  1  0
 23 21  2  0
M  END
$$$$
