DCI.pdb
     RDKit          3D

 23 22  0  0  1  0  0  0  0  0999 V2000
   17.1121  -12.3320  -17.7403 N   0  0  0  0  0  0  0  0  0  0  0  0
   16.9196  -11.1795  -16.8841 C   0  0  1  0  0  0  0  0  0  0  0  0
   16.7593  -11.5664  -15.4298 C   0  0  0  0  0  0  0  0  0  0  0  0
   15.5144  -12.3290  -15.2223 C   0  0  0  0  0  0  0  0  0  0  0  0
   14.4336  -11.9533  -15.7537 O   0  0  0  0  0  0  0  0  0  0  0  0
   18.1060  -10.2847  -16.9662 C   0  0  0  0  0  0  0  0  0  0  0  0
   19.2357  -10.7761  -17.0682 O   0  0  0  0  0  0  0  0  0  0  0  0
   15.5058  -13.4681  -14.4432 O   0  0  0  0  0  0  0  0  0  0  0  0
   17.9890   -8.8750  -16.9314 N   0  0  0  0  0  0  0  0  0  0  0  0
   19.1018   -7.9713  -17.0255 C   0  0  1  0  0  0  0  0  0  0  0  0
   18.8543   -6.8351  -17.9892 C   0  0  0  0  0  0  0  0  0  0  0  0
   20.2204   -5.6438  -17.9102 S   0  0  0  0  0  0  0  0  0  0  0  0
   19.4225   -7.4827  -15.6639 C   0  0  0  0  0  0  0  0  0  0  0  0
   18.4814   -7.1447  -14.9142 O   0  0  0  0  0  0  0  0  0  0  0  0
   22.3467   -9.2782  -10.8271 C   0  0  0  0  0  0  0  0  0  0  0  0
   21.8982   -8.0621  -11.5782 C   0  0  0  0  0  0  0  0  0  0  0  0
   21.5666   -8.3437  -13.0303 C   0  0  2  0  0  0  0  0  0  0  0  0
   22.8887   -8.7387  -13.6647 C   0  0  0  0  0  0  0  0  0  0  0  0
   21.0732   -7.1380  -13.7571 C   0  0  2  0  0  0  0  0  0  0  0  0
   20.7256   -7.3677  -15.1407 N   0  0  0  0  0  0  0  0  0  0  0  0
   22.0827   -6.0647  -13.6345 C   0  0  0  0  0  0  0  0  0  0  0  0
   22.2327   -5.3820  -12.4600 O   0  0  0  0  0  0  0  0  0  0  0  0
   22.7940   -5.7920  -14.6189 O   0  0  0  0  0  0  0  0  0  0  0  0
  2  1  1  6
  3  4  1  0
  3  2  1  0
  4  8  1  0
  5  4  2  0
  6  2  1  0
  6  9  1  0
  7  6  2  0
 10 11  1  6
 10  9  1  0
 10 13  1  0
 12 11  1  0
 13 20  1  0
 14 13  2  0
 16 15  1  0
 17 18  1  6
 17 16  1  0
 19 17  1  0
 19 20  1  6
 21 22  1  0
 21 19  1  0
 23 21  2  0
M  END
$$$$
