EGQ.pdb
     RDKit          3D

 23 22  0  0  1  0  0  0  0  0999 V2000
   25.3653  -18.1586  -17.8806 N   0  0  0  0  0  0  0  0  0  0  0  0
   26.7130  -18.5895  -18.0669 C   0  0  1  0  0  0  0  0  0  0  0  0
   27.5371  -17.8008  -19.0212 C   0  0  0  0  0  0  0  0  0  0  0  0
   27.1320  -17.7730  -20.4376 C   0  0  0  0  0  0  0  0  0  0  0  0
   28.0327  -18.3721  -21.4126 C   0  0  0  0  0  0  0  0  0  0  0  0
   28.4832  -17.7466  -22.3821 O   0  0  0  0  0  0  0  0  0  0  0  0
   27.4474  -18.6041  -16.7715 C   0  0  0  0  0  0  0  0  0  0  0  0
   28.4022  -17.8266  -16.5786 O   0  0  0  0  0  0  0  0  0  0  0  0
   28.4098  -19.7146  -21.2520 O   0  0  0  0  0  0  0  0  0  0  0  0
   27.0406  -19.5114  -15.7742 N   0  0  0  0  0  0  0  0  0  0  0  0
   27.7481  -19.5542  -14.5345 C   0  0  0  0  0  0  0  0  0  0  0  0
   26.9630  -20.4319  -13.5915 C   0  0  0  0  0  0  0  0  0  0  0  0
   26.5215  -21.5414  -13.9714 O   0  0  0  0  0  0  0  0  0  0  0  0
   26.6061  -19.3540   -7.4168 N   0  0  0  0  0  0  0  0  0  0  0  0
   25.6746  -20.3979   -7.6173 C   0  0  0  0  0  0  0  0  0  0  0  0
   25.0643  -20.8646   -6.5956 O   0  0  0  0  0  0  0  0  0  0  0  0
   25.3667  -20.9662   -8.9260 C   0  0  0  0  0  0  0  0  0  0  0  0
   26.1240  -20.3958  -10.0455 C   0  0  0  0  0  0  0  0  0  0  0  0
   25.8520  -20.9163  -11.4325 C   0  0  2  0  0  0  0  0  0  0  0  0
   26.7081  -20.0276  -12.2674 N   0  0  0  0  0  0  0  0  0  0  0  0
   24.4595  -20.7638  -11.8327 C   0  0  0  0  0  0  0  0  0  0  0  0
   23.5587  -21.8227  -11.8556 O   0  0  0  0  0  0  0  0  0  0  0  0
   24.0144  -19.6219  -12.1927 O   0  0  0  0  0  0  0  0  0  0  0  0
  2  1  1  1
  2  3  1  0
  3  4  1  0
  5  4  1  0
  5  9  1  0
  6  5  2  0
  7  2  1  0
  7  8  2  0
 10  7  1  0
 11 10  1  0
 11 12  1  0
 12 20  1  0
 13 12  2  0
 15 17  1  0
 15 14  1  0
 16 15  2  0
 18 17  1  0
 19 18  1  1
 19 21  1  0
 20 19  1  0
 21 23  2  0
 21 22  1  0
M  END
$$$$
