EGQ.pdb
     RDKit          3D

 23 22  0  0  1  0  0  0  0  0999 V2000
   20.0871  -14.5326  -18.9249 N   0  0  0  0  0  0  0  0  0  0  0  0
   19.2280  -14.0082  -17.9131 C   0  0  1  0  0  0  0  0  0  0  0  0
   18.6755  -14.9858  -16.9380 C   0  0  0  0  0  0  0  0  0  0  0  0
   19.5206  -16.1227  -16.5326 C   0  0  0  0  0  0  0  0  0  0  0  0
   18.9480  -17.1018  -15.6193 C   0  0  0  0  0  0  0  0  0  0  0  0
   19.5254  -18.1553  -15.3177 O   0  0  0  0  0  0  0  0  0  0  0  0
   19.9235  -12.9554  -17.1222 C   0  0  0  0  0  0  0  0  0  0  0  0
   19.3303  -12.3641  -16.1993 O   0  0  0  0  0  0  0  0  0  0  0  0
   17.6890  -16.8463  -15.0536 O   0  0  0  0  0  0  0  0  0  0  0  0
   21.2602  -12.6447  -17.4388 N   0  0  0  0  0  0  0  0  0  0  0  0
   22.0050  -11.7880  -16.5724 C   0  0  0  0  0  0  0  0  0  0  0  0
   21.5994  -10.3672  -16.8769 C   0  0  0  0  0  0  0  0  0  0  0  0
   21.3036  -10.0249  -18.0455 O   0  0  0  0  0  0  0  0  0  0  0  0
   16.8387   -8.1175  -16.2911 N   0  0  0  0  0  0  0  0  0  0  0  0
   17.5243   -6.8916  -16.4481 C   0  0  0  0  0  0  0  0  0  0  0  0
   16.8303   -5.8276  -16.5908 O   0  0  0  0  0  0  0  0  0  0  0  0
   18.9791   -6.7734  -16.4488 C   0  0  0  0  0  0  0  0  0  0  0  0
   19.7060   -8.0398  -16.3066 C   0  0  0  0  0  0  0  0  0  0  0  0
   21.2111   -8.0001  -16.2635 C   0  0  2  0  0  0  0  0  0  0  0  0
   21.5437   -9.3953  -15.8602 N   0  0  0  0  0  0  0  0  0  0  0  0
   21.7258   -7.0712  -15.2662 C   0  0  0  0  0  0  0  0  0  0  0  0
   21.8595   -5.7072  -15.5006 O   0  0  0  0  0  0  0  0  0  0  0  0
   22.0876   -7.4958  -14.1170 O   0  0  0  0  0  0  0  0  0  0  0  0
  2  1  1  6
  2  3  1  0
  3  4  1  0
  5  4  1  0
  5  9  1  0
  6  5  2  0
  7  2  1  0
  7  8  2  0
 10  7  1  0
 11 10  1  0
 11 12  1  0
 12 20  1  0
 13 12  2  0
 15 17  1  0
 15 14  1  0
 16 15  2  0
 18 17  1  0
 19 18  1  1
 19 21  1  0
 20 19  1  0
 21 23  2  0
 21 22  1  0
M  END
$$$$
