EGQ.pdb
     RDKit          3D

 23 22  0  0  1  0  0  0  0  0999 V2000
   23.3400  -21.6444  -17.4430 N   0  0  0  0  0  0  0  0  0  0  0  0
   23.9725  -20.5846  -16.7264 C   0  0  1  0  0  0  0  0  0  0  0  0
   23.1502  -19.3722  -16.4699 C   0  0  0  0  0  0  0  0  0  0  0  0
   21.9379  -19.5116  -15.6439 C   0  0  0  0  0  0  0  0  0  0  0  0
   20.7491  -18.7778  -16.0549 C   0  0  0  0  0  0  0  0  0  0  0  0
   19.8504  -19.2865  -16.7390 O   0  0  0  0  0  0  0  0  0  0  0  0
   24.4646  -21.0604  -15.4038 C   0  0  0  0  0  0  0  0  0  0  0  0
   23.7785  -21.8445  -14.7200 O   0  0  0  0  0  0  0  0  0  0  0  0
   20.6100  -17.4374  -15.6622 O   0  0  0  0  0  0  0  0  0  0  0  0
   25.7168  -20.6069  -14.9458 N   0  0  0  0  0  0  0  0  0  0  0  0
   26.2805  -21.1788  -13.7649 C   0  0  0  0  0  0  0  0  0  0  0  0
   25.6326  -20.5078  -12.5791 C   0  0  0  0  0  0  0  0  0  0  0  0
   24.9789  -19.4486  -12.7242 O   0  0  0  0  0  0  0  0  0  0  0  0
   23.8244  -22.6138   -7.3477 N   0  0  0  0  0  0  0  0  0  0  0  0
   23.0779  -21.4229   -7.4955 C   0  0  0  0  0  0  0  0  0  0  0  0
   22.3304  -21.0566   -6.5254 O   0  0  0  0  0  0  0  0  0  0  0  0
   23.1194  -20.5860   -8.6906 C   0  0  0  0  0  0  0  0  0  0  0  0
   23.9839  -21.0816   -9.7672 C   0  0  0  0  0  0  0  0  0  0  0  0
   25.1845  -20.2598  -10.1567 C   0  0  2  0  0  0  0  0  0  0  0  0
   25.7462  -21.0527  -11.2862 N   0  0  0  0  0  0  0  0  0  0  0  0
   26.1750  -20.1627   -9.0928 C   0  0  0  0  0  0  0  0  0  0  0  0
   26.1485  -19.1663   -8.1233 O   0  0  0  0  0  0  0  0  0  0  0  0
   27.1289  -21.0093   -9.0218 O   0  0  0  0  0  0  0  0  0  0  0  0
  2  1  1  1
  2  3  1  0
  3  4  1  0
  5  4  1  0
  5  9  1  0
  6  5  2  0
  7  2  1  0
  7  8  2  0
 10  7  1  0
 11 10  1  0
 11 12  1  0
 12 20  1  0
 13 12  2  0
 15 17  1  0
 15 14  1  0
 16 15  2  0
 18 17  1  0
 19 18  1  1
 19 21  1  0
 20 19  1  0
 21 23  2  0
 21 22  1  0
M  END
$$$$
