EGQ.pdb
     RDKit          3D

 23 22  0  0  1  0  0  0  0  0999 V2000
   19.4260  -13.4950  -15.6638 N   0  0  0  0  0  0  0  0  0  0  0  0
   19.7593  -12.9457  -16.9381 C   0  0  1  0  0  0  0  0  0  0  0  0
   18.6274  -12.6888  -17.8679 C   0  0  0  0  0  0  0  0  0  0  0  0
   17.5291  -13.6697  -17.9201 C   0  0  0  0  0  0  0  0  0  0  0  0
   16.6267  -13.7389  -16.7792 C   0  0  0  0  0  0  0  0  0  0  0  0
   16.3185  -14.8065  -16.2320 O   0  0  0  0  0  0  0  0  0  0  0  0
   20.4921  -11.6585  -16.7837 C   0  0  0  0  0  0  0  0  0  0  0  0
   20.9868  -11.0909  -17.7769 O   0  0  0  0  0  0  0  0  0  0  0  0
   16.0800  -12.5489  -16.2740 O   0  0  0  0  0  0  0  0  0  0  0  0
   20.6126  -11.0996  -15.4966 N   0  0  0  0  0  0  0  0  0  0  0  0
   21.2580   -9.8356  -15.3388 C   0  0  0  0  0  0  0  0  0  0  0  0
   20.1915   -8.8144  -15.0296 C   0  0  0  0  0  0  0  0  0  0  0  0
   19.2234   -8.6477  -15.8077 O   0  0  0  0  0  0  0  0  0  0  0  0
   17.0256   -8.6641  -10.2345 N   0  0  0  0  0  0  0  0  0  0  0  0
   16.6921   -7.3898  -10.7466 C   0  0  0  0  0  0  0  0  0  0  0  0
   15.7348   -6.7496  -10.1917 O   0  0  0  0  0  0  0  0  0  0  0  0
   17.3846   -6.7627  -11.8680 C   0  0  0  0  0  0  0  0  0  0  0  0
   18.4550   -7.5677  -12.4666 C   0  0  0  0  0  0  0  0  0  0  0  0
   19.1850   -7.0128  -13.6615 C   0  0  2  0  0  0  0  0  0  0  0  0
   20.2574   -8.0270  -13.8646 N   0  0  0  0  0  0  0  0  0  0  0  0
   19.7898   -5.7128  -13.4034 C   0  0  0  0  0  0  0  0  0  0  0  0
   21.1414   -5.5499  -13.1212 O   0  0  0  0  0  0  0  0  0  0  0  0
   19.0741   -4.6548  -13.4211 O   0  0  0  0  0  0  0  0  0  0  0  0
  2  1  1  1
  2  3  1  0
  3  4  1  0
  5  4  1  0
  5  9  1  0
  6  5  2  0
  7  2  1  0
  7  8  2  0
 10  7  1  0
 11 10  1  0
 11 12  1  0
 12 20  1  0
 13 12  2  0
 15 17  1  0
 15 14  1  0
 16 15  2  0
 18 17  1  0
 19 18  1  1
 19 21  1  0
 20 19  1  0
 21 23  2  0
 21 22  1  0
M  END
$$$$
