EGQ.pdb
     RDKit          3D

 23 22  0  0  1  0  0  0  0  0999 V2000
   27.3306  -21.2800  -13.1415 N   0  0  0  0  0  0  0  0  0  0  0  0
   26.1926  -20.4330  -13.2972 C   0  0  1  0  0  0  0  0  0  0  0  0
   25.4395  -20.0973  -12.0594 C   0  0  0  0  0  0  0  0  0  0  0  0
   24.6995  -21.1738  -11.3777 C   0  0  0  0  0  0  0  0  0  0  0  0
   23.4709  -21.6502  -11.9977 C   0  0  0  0  0  0  0  0  0  0  0  0
   22.4011  -21.7441  -11.3804 O   0  0  0  0  0  0  0  0  0  0  0  0
   26.5770  -19.1421  -13.9323 C   0  0  0  0  0  0  0  0  0  0  0  0
   27.7733  -18.7968  -13.9860 O   0  0  0  0  0  0  0  0  0  0  0  0
   23.4938  -22.0200  -13.3516 O   0  0  0  0  0  0  0  0  0  0  0  0
   25.5634  -18.3245  -14.4686 N   0  0  0  0  0  0  0  0  0  0  0  0
   25.9221  -17.1472  -15.1928 C   0  0  0  0  0  0  0  0  0  0  0  0
   25.2045  -17.1912  -16.5190 C   0  0  0  0  0  0  0  0  0  0  0  0
   24.8511  -18.2855  -17.0170 O   0  0  0  0  0  0  0  0  0  0  0  0
   22.5730  -18.1852  -15.7693 N   0  0  0  0  0  0  0  0  0  0  0  0
   21.4056  -17.4255  -16.0086 C   0  0  0  0  0  0  0  0  0  0  0  0
   20.2737  -18.0080  -15.8917 O   0  0  0  0  0  0  0  0  0  0  0  0
   21.4214  -16.0125  -16.3742 C   0  0  0  0  0  0  0  0  0  0  0  0
   22.7558  -15.4375  -16.5767 C   0  0  0  0  0  0  0  0  0  0  0  0
   23.5429  -15.8646  -17.7878 C   0  0  2  0  0  0  0  0  0  0  0  0
   24.9155  -16.0091  -17.2267 N   0  0  0  0  0  0  0  0  0  0  0  0
   23.5532  -14.8587  -18.8415 C   0  0  0  0  0  0  0  0  0  0  0  0
   22.7062  -14.9083  -19.9430 O   0  0  0  0  0  0  0  0  0  0  0  0
   24.3696  -13.8777  -18.7872 O   0  0  0  0  0  0  0  0  0  0  0  0
  2  1  1  1
  2  3  1  0
  3  4  1  0
  5  4  1  0
  5  9  1  0
  6  5  2  0
  7  2  1  0
  7  8  2  0
 10  7  1  0
 11 10  1  0
 11 12  1  0
 12 20  1  0
 13 12  2  0
 15 17  1  0
 15 14  1  0
 16 15  2  0
 18 17  1  0
 19 18  1  1
 19 21  1  0
 20 19  1  0
 21 23  2  0
 21 22  1  0
M  END
$$$$
