IGN.pdb
     RDKit          3D

 21 20  0  0  1  0  0  0  0  0999 V2000
   27.6047  -24.4803  -16.2652 C   0  0  0  0  0  0  0  0  0  0  0  0
   26.1985  -24.0078  -16.1254 C   0  0  0  0  0  0  0  0  0  0  0  0
   25.2067  -24.7165  -17.0243 C   0  0  2  0  0  0  0  0  0  0  0  0
   25.6585  -24.3789  -18.4520 C   0  0  0  0  0  0  0  0  0  0  0  0
   23.7970  -24.2938  -16.7499 C   0  0  2  0  0  0  0  0  0  0  0  0
   23.6652  -22.8596  -17.0546 N   0  0  0  0  0  0  0  0  0  0  0  0
   23.3771  -24.4815  -15.3518 C   0  0  0  0  0  0  0  0  0  0  0  0
   23.0243  -23.4669  -14.6492 O   0  0  0  0  0  0  0  0  0  0  0  0
   23.3102  -25.7069  -14.6553 N   0  0  0  0  0  0  0  0  0  0  0  0
   22.9001  -25.8332  -13.2818 C   0  0  0  0  0  0  0  0  0  0  0  0
   21.4825  -26.1511  -13.1171 C   0  0  0  0  0  0  0  0  0  0  0  0
   20.7537  -26.2435  -14.1325 O   0  0  0  0  0  0  0  0  0  0  0  0
   20.6315  -29.0863  -10.7570 N   0  0  0  0  0  0  0  0  0  0  0  0
   19.9304  -28.2511   -9.8277 C   0  0  0  0  0  0  0  0  0  0  0  0
   19.9393  -28.6453   -8.6095 O   0  0  0  0  0  0  0  0  0  0  0  0
   19.2461  -27.0159  -10.2603 C   0  0  0  0  0  0  0  0  0  0  0  0
   19.4556  -26.6551  -11.7051 C   0  0  2  0  0  0  0  0  0  0  0  0
   20.8897  -26.3613  -11.8525 N   0  0  0  0  0  0  0  0  0  0  0  0
   18.6369  -25.5019  -12.0804 C   0  0  0  0  0  0  0  0  0  0  0  0
   17.3708  -25.6244  -12.6183 O   0  0  0  0  0  0  0  0  0  0  0  0
   19.1020  -24.3470  -11.9099 O   0  0  0  0  0  0  0  0  0  0  0  0
  1  2  1  0
  2  3  1  0
  3  4  1  6
  5  7  1  0
  5  3  1  0
  5  6  1  1
  7  8  2  0
  7  9  1  0
  9 10  1  0
 10 11  1  0
 11 12  2  0
 13 14  1  0
 14 15  2  0
 16 14  1  0
 17 16  1  1
 17 19  1  0
 18 11  1  0
 18 17  1  0
 19 21  2  0
 19 20  1  0
M  END
$$$$
