IGN.pdb
     RDKit          3D

 21 20  0  0  1  0  0  0  0  0999 V2000
   28.6310   -8.6786  -17.9751 C   0  0  0  0  0  0  0  0  0  0  0  0
   27.4211   -9.4082  -17.5022 C   0  0  0  0  0  0  0  0  0  0  0  0
   27.7127  -10.5764  -16.5832 C   0  0  2  0  0  0  0  0  0  0  0  0
   28.6159  -11.5072  -17.4044 C   0  0  0  0  0  0  0  0  0  0  0  0
   26.4605  -11.2512  -16.1167 C   0  0  2  0  0  0  0  0  0  0  0  0
   25.6900  -11.6852  -17.2937 N   0  0  0  0  0  0  0  0  0  0  0  0
   25.5788  -10.3884  -15.3140 C   0  0  0  0  0  0  0  0  0  0  0  0
   26.0146   -9.8661  -14.2255 O   0  0  0  0  0  0  0  0  0  0  0  0
   24.2430  -10.0466  -15.6140 N   0  0  0  0  0  0  0  0  0  0  0  0
   23.4964   -9.0274  -14.9250 C   0  0  0  0  0  0  0  0  0  0  0  0
   22.7874   -8.1116  -15.8174 C   0  0  0  0  0  0  0  0  0  0  0  0
   23.2137   -7.9402  -16.9834 O   0  0  0  0  0  0  0  0  0  0  0  0
   19.3066   -5.3508  -18.4207 N   0  0  0  0  0  0  0  0  0  0  0  0
   19.3451   -6.7791  -18.3155 C   0  0  0  0  0  0  0  0  0  0  0  0
   18.6965   -7.4204  -19.2141 O   0  0  0  0  0  0  0  0  0  0  0  0
   20.0903   -7.4562  -17.2350 C   0  0  0  0  0  0  0  0  0  0  0  0
   20.8923   -6.5381  -16.3546 C   0  0  2  0  0  0  0  0  0  0  0  0
   21.6314   -7.4033  -15.4219 N   0  0  0  0  0  0  0  0  0  0  0  0
   20.0205   -5.6077  -15.6369 C   0  0  0  0  0  0  0  0  0  0  0  0
   19.8623   -4.2877  -16.0114 O   0  0  0  0  0  0  0  0  0  0  0  0
   19.3868   -6.0219  -14.6338 O   0  0  0  0  0  0  0  0  0  0  0  0
  1  2  1  0
  2  3  1  0
  3  4  1  6
  5  7  1  0
  5  3  1  0
  5  6  1  6
  7  8  2  0
  7  9  1  0
  9 10  1  0
 10 11  1  0
 11 12  2  0
 13 14  1  0
 14 15  2  0
 16 14  1  0
 17 16  1  6
 17 19  1  0
 18 11  1  0
 18 17  1  0
 19 21  2  0
 19 20  1  0
M  END
$$$$
