IGN.pdb
     RDKit          3D

 21 20  0  0  1  0  0  0  0  0999 V2000
   25.6532  -15.2390  -17.6005 C   0  0  0  0  0  0  0  0  0  0  0  0
   24.3142  -14.6044  -17.4440 C   0  0  0  0  0  0  0  0  0  0  0  0
   24.3503  -13.1012  -17.2619 C   0  0  2  0  0  0  0  0  0  0  0  0
   25.1086  -12.8823  -15.9453 C   0  0  0  0  0  0  0  0  0  0  0  0
   22.9778  -12.5037  -17.2435 C   0  0  2  0  0  0  0  0  0  0  0  0
   22.3577  -12.7019  -18.5640 N   0  0  0  0  0  0  0  0  0  0  0  0
   22.9576  -11.0584  -16.9663 C   0  0  0  0  0  0  0  0  0  0  0  0
   23.1986  -10.6322  -15.7798 O   0  0  0  0  0  0  0  0  0  0  0  0
   22.6937  -10.0312  -17.8971 N   0  0  0  0  0  0  0  0  0  0  0  0
   22.7342   -8.6275  -17.5831 C   0  0  0  0  0  0  0  0  0  0  0  0
   21.5627   -8.1543  -16.8473 C   0  0  0  0  0  0  0  0  0  0  0  0
   20.4271   -8.5781  -17.1661 O   0  0  0  0  0  0  0  0  0  0  0  0
   19.5672   -9.2117  -14.1616 N   0  0  0  0  0  0  0  0  0  0  0  0
   20.1043   -8.2669  -13.2280 C   0  0  0  0  0  0  0  0  0  0  0  0
   20.1200   -8.6423  -12.0040 O   0  0  0  0  0  0  0  0  0  0  0  0
   20.6058   -6.9477  -13.6632 C   0  0  0  0  0  0  0  0  0  0  0  0
   20.4554   -6.6729  -15.1340 C   0  0  2  0  0  0  0  0  0  0  0  0
   21.6524   -7.2314  -15.7821 N   0  0  0  0  0  0  0  0  0  0  0  0
   20.3361   -5.2369  -15.3884 C   0  0  0  0  0  0  0  0  0  0  0  0
   21.3495   -4.4891  -15.9554 O   0  0  0  0  0  0  0  0  0  0  0  0
   19.2677   -4.6529  -15.0776 O   0  0  0  0  0  0  0  0  0  0  0  0
  1  2  1  0
  2  3  1  0
  3  4  1  1
  5  7  1  0
  5  3  1  0
  5  6  1  6
  7  8  2  0
  7  9  1  0
  9 10  1  0
 10 11  1  0
 11 12  2  0
 13 14  1  0
 14 15  2  0
 16 14  1  0
 17 16  1  1
 17 19  1  0
 18 11  1  0
 18 17  1  0
 19 21  2  0
 19 20  1  0
M  END
$$$$
