IGN.pdb
     RDKit          3D

 21 20  0  0  1  0  0  0  0  0999 V2000
   19.4586  -16.8079  -16.7655 C   0  0  0  0  0  0  0  0  0  0  0  0
   19.6395  -15.5931  -17.6089 C   0  0  0  0  0  0  0  0  0  0  0  0
   18.8746  -14.3770  -17.1290 C   0  0  2  0  0  0  0  0  0  0  0  0
   17.3959  -14.7753  -17.2347 C   0  0  0  0  0  0  0  0  0  0  0  0
   19.2018  -13.1548  -17.9292 C   0  0  2  0  0  0  0  0  0  0  0  0
   20.6048  -12.7865  -17.6781 N   0  0  0  0  0  0  0  0  0  0  0  0
   18.3779  -11.9820  -17.5947 C   0  0  0  0  0  0  0  0  0  0  0  0
   17.1090  -12.0176  -17.7849 O   0  0  0  0  0  0  0  0  0  0  0  0
   18.8390  -10.7603  -17.0600 N   0  0  0  0  0  0  0  0  0  0  0  0
   17.9972   -9.6208  -16.8077 C   0  0  0  0  0  0  0  0  0  0  0  0
   18.7163   -8.4625  -16.2793 C   0  0  0  0  0  0  0  0  0  0  0  0
   18.0981   -7.3868  -16.1018 O   0  0  0  0  0  0  0  0  0  0  0  0
   22.4933   -5.3914  -14.1919 N   0  0  0  0  0  0  0  0  0  0  0  0
   21.9832   -6.4933  -13.4313 C   0  0  0  0  0  0  0  0  0  0  0  0
   22.3034   -6.5088  -12.1917 O   0  0  0  0  0  0  0  0  0  0  0  0
   21.1415   -7.5374  -14.0498 C   0  0  0  0  0  0  0  0  0  0  0  0
   20.8150   -7.3039  -15.4990 C   0  0  2  0  0  0  0  0  0  0  0  0
   20.0905   -8.5002  -15.9560 N   0  0  0  0  0  0  0  0  0  0  0  0
   22.0326   -7.0903  -16.2818 C   0  0  0  0  0  0  0  0  0  0  0  0
   22.8237   -5.9663  -16.1462 O   0  0  0  0  0  0  0  0  0  0  0  0
   22.3774   -7.9636  -17.1170 O   0  0  0  0  0  0  0  0  0  0  0  0
  1  2  1  0
  2  3  1  0
  3  4  1  6
  5  7  1  0
  5  3  1  0
  5  6  1  1
  7  8  2  0
  7  9  1  0
  9 10  1  0
 10 11  1  0
 11 12  2  0
 13 14  1  0
 14 15  2  0
 16 14  1  0
 17 16  1  1
 17 19  1  0
 18 11  1  0
 18 17  1  0
 19 21  2  0
 19 20  1  0
M  END
$$$$
