IGN.pdb
     RDKit          3D

 21 20  0  0  1  0  0  0  0  0999 V2000
   17.8777   -9.5795  -19.4088 C   0  0  0  0  0  0  0  0  0  0  0  0
   18.7980  -10.2524  -18.4496 C   0  0  0  0  0  0  0  0  0  0  0  0
   19.0115   -9.4998  -17.1526 C   0  0  2  0  0  0  0  0  0  0  0  0
   19.7244   -8.2036  -17.5625 C   0  0  0  0  0  0  0  0  0  0  0  0
   19.7953  -10.3007  -16.1600 C   0  0  2  0  0  0  0  0  0  0  0  0
   19.1709  -11.6268  -16.0232 N   0  0  0  0  0  0  0  0  0  0  0  0
   19.8466   -9.7035  -14.8158 C   0  0  0  0  0  0  0  0  0  0  0  0
   18.7584   -9.4932  -14.1684 O   0  0  0  0  0  0  0  0  0  0  0  0
   21.0090   -9.3164  -14.1157 N   0  0  0  0  0  0  0  0  0  0  0  0
   20.9995   -8.6794  -12.8253 C   0  0  0  0  0  0  0  0  0  0  0  0
   21.0497   -7.2195  -12.8886 C   0  0  0  0  0  0  0  0  0  0  0  0
   20.9727   -6.5577  -11.8271 O   0  0  0  0  0  0  0  0  0  0  0  0
   23.3281   -2.4257  -14.7390 N   0  0  0  0  0  0  0  0  0  0  0  0
   22.3426   -3.2093  -15.4229 C   0  0  0  0  0  0  0  0  0  0  0  0
   21.5931   -2.5697  -16.2405 O   0  0  0  0  0  0  0  0  0  0  0  0
   22.2110   -4.6619  -15.1911 C   0  0  0  0  0  0  0  0  0  0  0  0
   21.1933   -5.0423  -14.1514 C   0  0  2  0  0  0  0  0  0  0  0  0
   21.1823   -6.5128  -14.1041 N   0  0  0  0  0  0  0  0  0  0  0  0
   19.8728   -4.5131  -14.4936 C   0  0  0  0  0  0  0  0  0  0  0  0
   19.4464   -3.2564  -14.1110 O   0  0  0  0  0  0  0  0  0  0  0  0
   19.0873   -5.2299  -15.1633 O   0  0  0  0  0  0  0  0  0  0  0  0
  1  2  1  0
  2  3  1  0
  3  4  1  6
  5  7  1  0
  5  3  1  0
  5  6  1  1
  7  8  2  0
  7  9  1  0
  9 10  1  0
 10 11  1  0
 11 12  2  0
 13 14  1  0
 14 15  2  0
 16 14  1  0
 17 16  1  6
 17 19  1  0
 18 11  1  0
 18 17  1  0
 19 21  2  0
 19 20  1  0
M  END
$$$$
