IGN.pdb
     RDKit          3D

 21 20  0  0  1  0  0  0  0  0999 V2000
   28.0166  -23.6810  -17.4036 C   0  0  0  0  0  0  0  0  0  0  0  0
   28.2316  -22.6216  -16.3782 C   0  0  0  0  0  0  0  0  0  0  0  0
   27.3745  -21.3866  -16.5635 C   0  0  2  0  0  0  0  0  0  0  0  0
   27.7696  -20.8364  -17.9410 C   0  0  0  0  0  0  0  0  0  0  0  0
   27.5779  -20.3908  -15.4643 C   0  0  2  0  0  0  0  0  0  0  0  0
   27.2353  -21.0258  -14.1811 N   0  0  0  0  0  0  0  0  0  0  0  0
   26.7446  -19.1839  -15.5882 C   0  0  0  0  0  0  0  0  0  0  0  0
   27.0323  -18.2969  -16.4703 O   0  0  0  0  0  0  0  0  0  0  0  0
   25.6069  -18.8693  -14.8151 N   0  0  0  0  0  0  0  0  0  0  0  0
   24.2835  -19.3643  -15.0881 C   0  0  0  0  0  0  0  0  0  0  0  0
   23.8157  -20.3585  -14.1234 C   0  0  0  0  0  0  0  0  0  0  0  0
   23.8208  -21.5706  -14.4422 O   0  0  0  0  0  0  0  0  0  0  0  0
   25.5771  -21.7767  -11.3920 N   0  0  0  0  0  0  0  0  0  0  0  0
   24.8623  -21.0689  -10.3718 C   0  0  0  0  0  0  0  0  0  0  0  0
   25.5251  -20.8079   -9.3078 O   0  0  0  0  0  0  0  0  0  0  0  0
   23.4514  -20.6704  -10.5493 C   0  0  0  0  0  0  0  0  0  0  0  0
   22.8623  -21.0249  -11.8868 C   0  0  2  0  0  0  0  0  0  0  0  0
   23.3532  -20.0124  -12.8347 N   0  0  0  0  0  0  0  0  0  0  0  0
   21.4003  -21.0324  -11.8291 C   0  0  0  0  0  0  0  0  0  0  0  0
   20.6701  -22.1448  -11.4591 O   0  0  0  0  0  0  0  0  0  0  0  0
   20.7763  -19.9840  -12.1304 O   0  0  0  0  0  0  0  0  0  0  0  0
  1  2  1  0
  2  3  1  0
  3  4  1  6
  5  7  1  0
  5  3  1  0
  5  6  1  1
  7  8  2  0
  7  9  1  0
  9 10  1  0
 10 11  1  0
 11 12  2  0
 13 14  1  0
 14 15  2  0
 16 14  1  0
 17 16  1  1
 17 19  1  0
 18 11  1  0
 18 17  1  0
 19 21  2  0
 19 20  1  0
M  END
$$$$
