ELH.pdb
     RDKit          3D

 28 28  0  0  1  0  0  0  0  0999 V2000
   44.1860  -11.0492   -6.5547 N   0  0  0  0  0  0  0  0  0  0  0  0
   43.0563  -10.4304   -5.9209 C   0  0  1  0  0  0  0  0  0  0  0  0
   43.3460   -9.2809   -5.0273 C   0  0  0  0  0  0  0  0  0  0  0  0
   44.1910   -9.5704   -3.8518 C   0  0  0  0  0  0  0  0  0  0  0  0
   44.3942   -8.5014   -2.8747 C   0  0  0  0  0  0  0  0  0  0  0  0
   44.3367   -8.6654   -1.6486 O   0  0  0  0  0  0  0  0  0  0  0  0
   42.0966  -10.0562   -7.0129 C   0  0  0  0  0  0  0  0  0  0  0  0
   42.5177   -9.7205   -8.1292 O   0  0  0  0  0  0  0  0  0  0  0  0
   44.6717   -7.2041   -3.3313 O   0  0  0  0  0  0  0  0  0  0  0  0
   38.4829  -12.1870   -8.9125 C   0  0  0  0  0  0  0  0  0  0  0  0
   38.4189  -11.7141   -7.4773 C   0  0  2  0  0  0  0  0  0  0  0  0
   37.0826  -12.1990   -6.9236 C   0  0  0  0  0  0  0  0  0  0  0  0
   38.3727  -10.1824   -7.4258 C   0  0  0  0  0  0  0  0  0  0  0  0
   39.7239   -9.5885   -7.5783 C   0  0  2  0  0  0  0  0  0  0  0  0
   40.7246  -10.1056   -6.7105 N   0  0  0  0  0  0  0  0  0  0  0  0
   39.7155   -8.0791   -7.6004 C   0  0  0  0  0  0  0  0  0  0  0  0
   39.4887   -7.3748   -6.5876 O   0  0  0  0  0  0  0  0  0  0  0  0
   39.9710   -7.3657   -8.8020 N   0  0  0  0  0  0  0  0  0  0  0  0
   39.9066   -5.8986   -8.8740 C   0  0  1  0  0  0  0  0  0  0  0  0
   41.2311   -5.3149   -9.2240 C   0  0  0  0  0  0  0  0  0  0  0  0
   41.1572   -3.8398   -9.2014 C   0  0  0  0  0  0  0  0  0  0  0  0
   41.5124   -3.0424   -8.1140 C   0  0  0  0  0  0  0  0  0  0  0  0
   41.3284   -1.7451   -8.4153 N   0  0  0  0  0  0  0  0  0  0  0  0
   40.8611   -1.7139   -9.6799 C   0  0  0  0  0  0  0  0  0  0  0  0
   40.7621   -2.9656  -10.1409 N   0  0  0  0  0  0  0  0  0  0  0  0
   38.8777   -5.5124   -9.8646 C   0  0  0  0  0  0  0  0  0  0  0  0
   38.4629   -4.1751   -9.9453 O   0  0  0  0  0  0  0  0  0  0  0  0
   38.3424   -6.3126  -10.6497 O   0  0  0  0  0  0  0  0  0  0  0  0
  2  3  1  0
  2  1  1  6
  4  3  1  0
  4  5  1  0
  5  6  2  0
  7  2  1  0
  8  7  2  0
  9  5  1  0
 11 10  1  6
 12 11  1  0
 13 11  1  0
 14 13  1  1
 14 15  1  0
 15  7  1  0
 16 17  2  0
 16 14  1  0
 18 16  1  0
 19 18  1  0
 19 20  1  6
 21 20  1  0
 22 21  2  0
 23 24  1  0
 23 22  1  0
 24 25  2  0
 25 21  1  0
 26 19  1  0
 27 26  1  0
 28 26  2  0
M  END
$$$$
