ELH.pdb
     RDKit          3D

 28 28  0  0  1  0  0  0  0  0999 V2000
   25.9654  -19.2311  -15.5660 N   0  0  0  0  0  0  0  0  0  0  0  0
   27.0447  -20.1470  -15.3272 C   0  0  1  0  0  0  0  0  0  0  0  0
   28.4156  -19.5787  -15.3638 C   0  0  0  0  0  0  0  0  0  0  0  0
   28.6279  -18.4576  -16.3006 C   0  0  0  0  0  0  0  0  0  0  0  0
   28.5236  -18.7331  -17.7330 C   0  0  0  0  0  0  0  0  0  0  0  0
   27.5211  -18.4798  -18.4145 O   0  0  0  0  0  0  0  0  0  0  0  0
   26.7590  -20.8230  -14.0177 C   0  0  0  0  0  0  0  0  0  0  0  0
   27.5633  -21.6391  -13.5453 O   0  0  0  0  0  0  0  0  0  0  0  0
   29.6124  -19.3197  -18.3955 O   0  0  0  0  0  0  0  0  0  0  0  0
   24.6184  -20.4092   -9.2426 C   0  0  0  0  0  0  0  0  0  0  0  0
   25.8259  -21.2227   -9.6522 C   0  0  2  0  0  0  0  0  0  0  0  0
   26.9449  -20.8490   -8.6850 C   0  0  0  0  0  0  0  0  0  0  0  0
   26.3044  -20.7961  -11.0451 C   0  0  0  0  0  0  0  0  0  0  0  0
   25.2339  -20.9465  -12.0615 C   0  0  2  0  0  0  0  0  0  0  0  0
   25.5577  -20.4891  -13.3683 N   0  0  0  0  0  0  0  0  0  0  0  0
   23.8913  -20.4360  -11.5970 C   0  0  0  0  0  0  0  0  0  0  0  0
   23.7542  -19.4581  -10.8235 O   0  0  0  0  0  0  0  0  0  0  0  0
   22.6870  -21.0556  -12.0258 N   0  0  0  0  0  0  0  0  0  0  0  0
   21.7329  -20.3841  -12.9206 C   0  0  1  0  0  0  0  0  0  0  0  0
   22.3731  -20.0089  -14.2116 C   0  0  0  0  0  0  0  0  0  0  0  0
   21.3962  -19.3231  -15.0818 C   0  0  0  0  0  0  0  0  0  0  0  0
   20.0999  -18.9761  -14.7029 C   0  0  0  0  0  0  0  0  0  0  0  0
   19.4701  -18.3667  -15.7224 N   0  0  0  0  0  0  0  0  0  0  0  0
   20.3533  -18.3248  -16.7407 C   0  0  0  0  0  0  0  0  0  0  0  0
   21.4980  -18.8965  -16.3509 N   0  0  0  0  0  0  0  0  0  0  0  0
   20.5743  -21.2773  -13.1424 C   0  0  0  0  0  0  0  0  0  0  0  0
   19.2740  -20.7641  -13.0297 O   0  0  0  0  0  0  0  0  0  0  0  0
   20.6776  -22.4817  -13.4288 O   0  0  0  0  0  0  0  0  0  0  0  0
  2  3  1  0
  2  1  1  1
  4  3  1  0
  4  5  1  0
  5  6  2  0
  7  2  1  0
  8  7  2  0
  9  5  1  0
 11 10  1  1
 12 11  1  0
 13 11  1  0
 14 13  1  1
 14 15  1  0
 15  7  1  0
 16 17  2  0
 16 14  1  0
 18 16  1  0
 19 18  1  0
 19 20  1  6
 21 20  1  0
 22 21  2  0
 23 24  1  0
 23 22  1  0
 24 25  2  0
 25 21  1  0
 26 19  1  0
 27 26  1  0
 28 26  2  0
M  END
$$$$
