ELH.pdb
     RDKit          3D

 28 28  0  0  1  0  0  0  0  0999 V2000
   12.7077  -14.2228    5.5082 N   0  0  0  0  0  0  0  0  0  0  0  0
   13.7068  -13.9047    6.4887 C   0  0  1  0  0  0  0  0  0  0  0  0
   13.3411  -14.1421    7.9077 C   0  0  0  0  0  0  0  0  0  0  0  0
   12.2566  -13.2984    8.4476 C   0  0  0  0  0  0  0  0  0  0  0  0
   12.6288  -12.0674    9.1439 C   0  0  0  0  0  0  0  0  0  0  0  0
   13.7977  -11.7301    9.3746 O   0  0  0  0  0  0  0  0  0  0  0  0
   14.9485  -14.6548    6.1027 C   0  0  0  0  0  0  0  0  0  0  0  0
   14.8778  -15.6409    5.3553 O   0  0  0  0  0  0  0  0  0  0  0  0
   11.6171  -11.2019    9.5865 O   0  0  0  0  0  0  0  0  0  0  0  0
   18.5528  -13.6070    3.8360 C   0  0  0  0  0  0  0  0  0  0  0  0
   18.4523  -12.9393    5.1894 C   0  0  2  0  0  0  0  0  0  0  0  0
   19.6619  -12.0167    5.3050 C   0  0  0  0  0  0  0  0  0  0  0  0
   18.5999  -13.9799    6.3058 C   0  0  0  0  0  0  0  0  0  0  0  0
   17.4061  -14.8564    6.3984 C   0  0  2  0  0  0  0  0  0  0  0  0
   16.1698  -14.1903    6.6214 N   0  0  0  0  0  0  0  0  0  0  0  0
   17.5957  -16.0298    7.3291 C   0  0  0  0  0  0  0  0  0  0  0  0
   17.4333  -15.9595    8.5709 O   0  0  0  0  0  0  0  0  0  0  0  0
   17.9770  -17.3035    6.8288 N   0  0  0  0  0  0  0  0  0  0  0  0
   18.2592  -18.4432    7.7139 C   0  0  1  0  0  0  0  0  0  0  0  0
   18.2868  -19.7242    6.9552 C   0  0  0  0  0  0  0  0  0  0  0  0
   16.9094  -20.1689    6.6604 C   0  0  0  0  0  0  0  0  0  0  0  0
   15.8937  -19.3444    6.1776 C   0  0  0  0  0  0  0  0  0  0  0  0
   14.7631  -20.0537    6.0160 N   0  0  0  0  0  0  0  0  0  0  0  0
   15.0527  -21.3162    6.3911 C   0  0  0  0  0  0  0  0  0  0  0  0
   16.3331  -21.3764    6.7735 N   0  0  0  0  0  0  0  0  0  0  0  0
   19.5468  -18.2068    8.4034 C   0  0  0  0  0  0  0  0  0  0  0  0
   20.3005  -17.0666    8.0890 O   0  0  0  0  0  0  0  0  0  0  0  0
   20.0178  -18.9691    9.2638 O   0  0  0  0  0  0  0  0  0  0  0  0
  2  3  1  0
  2  1  1  6
  4  3  1  0
  4  5  1  0
  5  6  2  0
  7  2  1  0
  8  7  2  0
  9  5  1  0
 11 10  1  6
 12 11  1  0
 13 11  1  0
 14 13  1  1
 14 15  1  0
 15  7  1  0
 16 17  2  0
 16 14  1  0
 18 16  1  0
 19 18  1  0
 19 20  1  6
 21 20  1  0
 22 21  2  0
 23 24  1  0
 23 22  1  0
 24 25  2  0
 25 21  1  0
 26 19  1  0
 27 26  1  0
 28 26  2  0
M  END
$$$$
