ELH.pdb
     RDKit          3D

 28 28  0  0  1  0  0  0  0  0999 V2000
   15.9827  -11.7426  -13.8132 N   0  0  0  0  0  0  0  0  0  0  0  0
   14.6223  -11.3789  -13.5343 C   0  0  1  0  0  0  0  0  0  0  0  0
   13.8004  -12.3877  -12.8198 C   0  0  0  0  0  0  0  0  0  0  0  0
   14.0294  -13.7962  -13.1981 C   0  0  0  0  0  0  0  0  0  0  0  0
   13.3588  -14.8333  -12.4147 C   0  0  0  0  0  0  0  0  0  0  0  0
   12.5870  -14.5993  -11.4751 O   0  0  0  0  0  0  0  0  0  0  0  0
   14.6645  -10.0731  -12.7950 C   0  0  0  0  0  0  0  0  0  0  0  0
   13.6492   -9.6382  -12.2329 O   0  0  0  0  0  0  0  0  0  0  0  0
   13.5895  -16.1811  -12.7289 O   0  0  0  0  0  0  0  0  0  0  0  0
   15.6881   -7.1601   -8.3479 C   0  0  0  0  0  0  0  0  0  0  0  0
   15.9672   -6.9914   -9.8248 C   0  0  2  0  0  0  0  0  0  0  0  0
   14.8840   -6.0622  -10.3640 C   0  0  0  0  0  0  0  0  0  0  0  0
   15.7862   -8.3279  -10.5542 C   0  0  0  0  0  0  0  0  0  0  0  0
   16.1009   -8.2097  -11.9995 C   0  0  2  0  0  0  0  0  0  0  0  0
   15.8897   -9.3840  -12.7730 N   0  0  0  0  0  0  0  0  0  0  0  0
   17.4487   -7.5858  -12.2697 C   0  0  0  0  0  0  0  0  0  0  0  0
   18.4871   -7.8815  -11.6312 O   0  0  0  0  0  0  0  0  0  0  0  0
   17.6091   -6.6079  -13.2876 N   0  0  0  0  0  0  0  0  0  0  0  0
   18.9014   -5.9621  -13.5606 C   0  0  1  0  0  0  0  0  0  0  0  0
   19.4424   -6.3720  -14.8860 C   0  0  0  0  0  0  0  0  0  0  0  0
   19.9360   -7.7628  -14.8244 C   0  0  0  0  0  0  0  0  0  0  0  0
   19.9897   -8.5369  -13.6659 C   0  0  0  0  0  0  0  0  0  0  0  0
   20.4885   -9.7532  -13.9479 N   0  0  0  0  0  0  0  0  0  0  0  0
   20.7506   -9.7561  -15.2708 C   0  0  0  0  0  0  0  0  0  0  0  0
   20.4186   -8.5670  -15.7854 N   0  0  0  0  0  0  0  0  0  0  0  0
   18.7281   -4.4945  -13.4887 C   0  0  0  0  0  0  0  0  0  0  0  0
   19.8584   -3.6643  -13.4799 O   0  0  0  0  0  0  0  0  0  0  0  0
   17.6212   -3.9332  -13.4340 O   0  0  0  0  0  0  0  0  0  0  0  0
  2  3  1  0
  2  1  1  1
  4  3  1  0
  4  5  1  0
  5  6  2  0
  7  2  1  0
  8  7  2  0
  9  5  1  0
 11 10  1  1
 12 11  1  0
 13 11  1  0
 14 13  1  1
 14 15  1  0
 15  7  1  0
 16 17  2  0
 16 14  1  0
 18 16  1  0
 19 18  1  0
 19 20  1  6
 21 20  1  0
 22 21  2  0
 23 24  1  0
 23 22  1  0
 24 25  2  0
 25 21  1  0
 26 19  1  0
 27 26  1  0
 28 26  2  0
M  END
$$$$
