ELH.pdb
     RDKit          3D

 28 28  0  0  1  0  0  0  0  0999 V2000
   27.4421  -20.9498  -17.8945 N   0  0  0  0  0  0  0  0  0  0  0  0
   26.9587  -19.9340  -17.0027 C   0  0  1  0  0  0  0  0  0  0  0  0
   26.1548  -18.8453  -17.6126 C   0  0  0  0  0  0  0  0  0  0  0  0
   26.8362  -18.0343  -18.6410 C   0  0  0  0  0  0  0  0  0  0  0  0
   26.1158  -16.8907  -19.1995 C   0  0  0  0  0  0  0  0  0  0  0  0
   24.9591  -16.5812  -18.8838 O   0  0  0  0  0  0  0  0  0  0  0  0
   26.2037  -20.6371  -15.9121 C   0  0  0  0  0  0  0  0  0  0  0  0
   25.4401  -21.5750  -16.1829 O   0  0  0  0  0  0  0  0  0  0  0  0
   26.7539  -16.0822  -20.1521 O   0  0  0  0  0  0  0  0  0  0  0  0
   25.4574  -20.1031   -9.7364 C   0  0  0  0  0  0  0  0  0  0  0  0
   25.0266  -20.6368  -11.0845 C   0  0  2  0  0  0  0  0  0  0  0  0
   25.1046  -22.1575  -10.9902 C   0  0  0  0  0  0  0  0  0  0  0  0
   26.0333  -20.2230  -12.1644 C   0  0  0  0  0  0  0  0  0  0  0  0
   25.5208  -20.5061  -13.5278 C   0  0  2  0  0  0  0  0  0  0  0  0
   26.4038  -20.1864  -14.5956 N   0  0  0  0  0  0  0  0  0  0  0  0
   24.1269  -19.9773  -13.7653 C   0  0  0  0  0  0  0  0  0  0  0  0
   23.8764  -18.7702  -13.9970 O   0  0  0  0  0  0  0  0  0  0  0  0
   23.0027  -20.8453  -13.7368 N   0  0  0  0  0  0  0  0  0  0  0  0
   21.6307  -20.3616  -13.9501 C   0  0  1  0  0  0  0  0  0  0  0  0
   21.0788  -20.8511  -15.2436 C   0  0  0  0  0  0  0  0  0  0  0  0
   20.8888  -19.7200  -16.1744 C   0  0  0  0  0  0  0  0  0  0  0  0
   21.2059  -18.3926  -15.8881 C   0  0  0  0  0  0  0  0  0  0  0  0
   20.9124  -17.6117  -16.9424 N   0  0  0  0  0  0  0  0  0  0  0  0
   20.4135  -18.4302  -17.8910 C   0  0  0  0  0  0  0  0  0  0  0  0
   20.4029  -19.6842  -17.4257 N   0  0  0  0  0  0  0  0  0  0  0  0
   20.7876  -20.7968  -12.8147 C   0  0  0  0  0  0  0  0  0  0  0  0
   20.9181  -22.1013  -12.3166 O   0  0  0  0  0  0  0  0  0  0  0  0
   19.9505  -20.0666  -12.2584 O   0  0  0  0  0  0  0  0  0  0  0  0
  2  3  1  0
  2  1  1  6
  4  3  1  0
  4  5  1  0
  5  6  2  0
  7  2  1  0
  8  7  2  0
  9  5  1  0
 11 10  1  1
 12 11  1  0
 13 11  1  0
 14 13  1  1
 14 15  1  0
 15  7  1  0
 16 17  2  0
 16 14  1  0
 18 16  1  0
 19 18  1  0
 19 20  1  6
 21 20  1  0
 22 21  2  0
 23 24  1  0
 23 22  1  0
 24 25  2  0
 25 21  1  0
 26 19  1  0
 27 26  1  0
 28 26  2  0
M  END
$$$$
