ELH.pdb
     RDKit          3D

 28 28  0  0  1  0  0  0  0  0999 V2000
   19.1039  -11.6780  -15.3037 N   0  0  0  0  0  0  0  0  0  0  0  0
   18.2520  -10.5230  -15.2681 C   0  0  1  0  0  0  0  0  0  0  0  0
   16.8108  -10.7547  -15.5379 C   0  0  0  0  0  0  0  0  0  0  0  0
   16.4736  -11.2327  -16.8934 C   0  0  0  0  0  0  0  0  0  0  0  0
   15.0591  -11.3641  -17.2409 C   0  0  0  0  0  0  0  0  0  0  0  0
   14.6512  -11.7288  -18.3518 O   0  0  0  0  0  0  0  0  0  0  0  0
   18.4684   -9.8648  -13.9363 C   0  0  0  0  0  0  0  0  0  0  0  0
   18.5006  -10.5435  -12.8999 O   0  0  0  0  0  0  0  0  0  0  0  0
   14.0886  -11.0637  -16.2733 O   0  0  0  0  0  0  0  0  0  0  0  0
   21.7663   -7.7598  -12.0034 C   0  0  0  0  0  0  0  0  0  0  0  0
   21.1345   -7.0272  -13.1660 C   0  0  2  0  0  0  0  0  0  0  0  0
   21.9511   -5.7545  -13.3677 C   0  0  0  0  0  0  0  0  0  0  0  0
   19.7172   -6.5723  -12.7983 C   0  0  0  0  0  0  0  0  0  0  0  0
   18.7758   -7.7171  -12.7277 C   0  0  2  0  0  0  0  0  0  0  0  0
   18.6298   -8.4683  -13.9261 N   0  0  0  0  0  0  0  0  0  0  0  0
   17.4432   -7.3595  -12.1150 C   0  0  0  0  0  0  0  0  0  0  0  0
   16.5182   -6.8006  -12.7517 O   0  0  0  0  0  0  0  0  0  0  0  0
   17.1665   -7.6469  -10.7516 N   0  0  0  0  0  0  0  0  0  0  0  0
   15.8677   -7.3442  -10.1325 C   0  0  1  0  0  0  0  0  0  0  0  0
   15.7453   -7.9808   -8.7919 C   0  0  0  0  0  0  0  0  0  0  0  0
   14.3983   -7.7385   -8.2364 C   0  0  0  0  0  0  0  0  0  0  0  0
   13.3843   -7.0364   -8.8870 C   0  0  0  0  0  0  0  0  0  0  0  0
   12.2853   -6.9932   -8.1137 N   0  0  0  0  0  0  0  0  0  0  0  0
   12.5934   -7.6595   -6.9824 C   0  0  0  0  0  0  0  0  0  0  0  0
   13.8536   -8.1003   -7.0635 N   0  0  0  0  0  0  0  0  0  0  0  0
   15.7123   -5.8758  -10.0390 C   0  0  0  0  0  0  0  0  0  0  0  0
   14.4621   -5.2948  -10.2967 O   0  0  0  0  0  0  0  0  0  0  0  0
   16.6377   -5.1026   -9.7403 O   0  0  0  0  0  0  0  0  0  0  0  0
  2  3  1  0
  2  1  1  1
  4  3  1  0
  4  5  1  0
  5  6  2  0
  7  2  1  0
  8  7  2  0
  9  5  1  0
 11 10  1  1
 12 11  1  0
 13 11  1  0
 14 13  1  6
 14 15  1  0
 15  7  1  0
 16 17  2  0
 16 14  1  0
 18 16  1  0
 19 18  1  0
 19 20  1  1
 21 20  1  0
 22 21  2  0
 23 24  1  0
 23 22  1  0
 24 25  2  0
 25 21  1  0
 26 19  1  0
 27 26  1  0
 28 26  2  0
M  END
$$$$
