TDK.pdb
     RDKit          3D

 25 24  0  0  1  0  0  0  0  0999 V2000
   17.2050   -8.8724  -17.3547 C   0  0  0  0  0  0  0  0  0  0  0  0
   17.4360   -8.6039  -15.9052 C   0  0  1  0  0  0  0  0  0  0  0  0
   16.3381   -9.0025  -15.1773 O   0  0  0  0  0  0  0  0  0  0  0  0
   18.6564   -9.3151  -15.3469 C   0  0  2  0  0  0  0  0  0  0  0  0
   18.5843  -10.7396  -15.4815 N   0  0  0  0  0  0  0  0  0  0  0  0
   18.8401   -8.8493  -13.9654 C   0  0  0  0  0  0  0  0  0  0  0  0
   18.5344   -9.6565  -13.0411 O   0  0  0  0  0  0  0  0  0  0  0  0
   19.3319   -7.5689  -13.5868 N   0  0  0  0  0  0  0  0  0  0  0  0
   19.3435   -7.1040  -12.2308 C   0  0  1  0  0  0  0  0  0  0  0  0
   20.3208   -5.9602  -12.1017 C   0  0  0  0  0  0  0  0  0  0  0  0
   21.7059   -6.3413  -12.4138 C   0  0  0  0  0  0  0  0  0  0  0  0
   22.3351   -5.6903  -13.2789 O   0  0  0  0  0  0  0  0  0  0  0  0
   17.9934   -6.7431  -11.7346 C   0  0  0  0  0  0  0  0  0  0  0  0
   17.1765   -6.1184  -12.4684 O   0  0  0  0  0  0  0  0  0  0  0  0
   22.3504   -7.3937  -11.7912 O   0  0  0  0  0  0  0  0  0  0  0  0
   17.5362   -7.0669  -10.4321 N   0  0  0  0  0  0  0  0  0  0  0  0
   16.2234   -6.6617   -9.9159 C   0  0  1  0  0  0  0  0  0  0  0  0
   15.4636   -7.8195   -9.4023 C   0  0  0  0  0  0  0  0  0  0  0  0
   14.1176   -7.4197   -8.8763 C   0  0  0  0  0  0  0  0  0  0  0  0
   13.3214   -8.6514   -8.4256 C   0  0  0  0  0  0  0  0  0  0  0  0
   12.0100   -8.1609   -7.8670 C   0  0  0  0  0  0  0  0  0  0  0  0
   11.1561   -9.2177   -7.4214 N   0  0  0  0  0  0  0  0  0  0  0  0
   16.4200   -5.6368   -8.8798 C   0  0  0  0  0  0  0  0  0  0  0  0
   17.4867   -5.6707   -8.1991 O   0  0  0  0  0  0  0  0  0  0  0  0
   15.5459   -4.6211   -8.5702 O   0  0  0  0  0  0  0  0  0  0  0  0
  2  1  1  6
  2  3  1  0
  4  2  1  0
  4  5  1  1
  6  8  1  0
  6  4  1  0
  7  6  2  0
  9 10  1  6
  9  8  1  0
 11 10  1  0
 12 11  2  0
 13 14  2  0
 13  9  1  0
 15 11  1  0
 16 13  1  0
 17 23  1  0
 17 16  1  0
 17 18  1  1
 19 20  1  0
 19 18  1  0
 20 21  1  0
 21 22  1  0
 23 25  1  0
 24 23  2  0
M  END
$$$$
