TDK.pdb
     RDKit          3D

 25 24  0  0  1  0  0  0  0  0999 V2000
   27.4898  -18.4122  -15.6096 C   0  0  0  0  0  0  0  0  0  0  0  0
   27.7738  -19.6113  -16.4509 C   0  0  1  0  0  0  0  0  0  0  0  0
   28.8016  -19.3348  -17.3234 O   0  0  0  0  0  0  0  0  0  0  0  0
   28.1578  -20.8384  -15.6424 C   0  0  2  0  0  0  0  0  0  0  0  0
   28.5343  -21.9524  -16.4607 N   0  0  0  0  0  0  0  0  0  0  0  0
   27.0499  -21.1173  -14.7181 C   0  0  0  0  0  0  0  0  0  0  0  0
   26.0879  -21.8059  -15.1650 O   0  0  0  0  0  0  0  0  0  0  0  0
   26.9738  -20.6765  -13.3674 N   0  0  0  0  0  0  0  0  0  0  0  0
   25.8386  -20.9207  -12.5267 C   0  0  1  0  0  0  0  0  0  0  0  0
   26.2303  -20.7128  -11.0832 C   0  0  0  0  0  0  0  0  0  0  0  0
   25.1477  -21.0197  -10.1373 C   0  0  0  0  0  0  0  0  0  0  0  0
   25.3432  -20.8458   -8.9127 O   0  0  0  0  0  0  0  0  0  0  0  0
   24.6563  -20.1099  -12.9064 C   0  0  0  0  0  0  0  0  0  0  0  0
   24.7432  -18.8568  -13.0410 O   0  0  0  0  0  0  0  0  0  0  0  0
   23.9143  -21.4953  -10.5410 O   0  0  0  0  0  0  0  0  0  0  0  0
   23.3758  -20.6722  -13.1396 N   0  0  0  0  0  0  0  0  0  0  0  0
   22.2494  -19.9088  -13.6893 C   0  0  1  0  0  0  0  0  0  0  0  0
   22.4743  -19.5577  -15.1063 C   0  0  0  0  0  0  0  0  0  0  0  0
   21.3452  -18.7488  -15.6709 C   0  0  0  0  0  0  0  0  0  0  0  0
   21.5519  -18.4978  -17.1705 C   0  0  0  0  0  0  0  0  0  0  0  0
   20.3766  -17.6899  -17.6586 C   0  0  0  0  0  0  0  0  0  0  0  0
   20.4084  -17.4415  -19.0663 N   0  0  0  0  0  0  0  0  0  0  0  0
   21.0174  -20.6921  -13.5118 C   0  0  0  0  0  0  0  0  0  0  0  0
   21.0947  -21.9535  -13.5831 O   0  0  0  0  0  0  0  0  0  0  0  0
   19.7632  -20.1834  -13.2676 O   0  0  0  0  0  0  0  0  0  0  0  0
  2  1  1  1
  2  3  1  0
  4  2  1  0
  4  5  1  6
  6  8  1  0
  6  4  1  0
  7  6  2  0
  9 10  1  1
  9  8  1  0
 11 10  1  0
 12 11  2  0
 13 14  2  0
 13  9  1  0
 15 11  1  0
 16 13  1  0
 17 23  1  0
 17 16  1  0
 17 18  1  6
 19 20  1  0
 19 18  1  0
 20 21  1  0
 21 22  1  0
 23 25  1  0
 24 23  2  0
M  END
$$$$
