TDK.pdb
     RDKit          3D

 25 24  0  0  1  0  0  0  0  0999 V2000
   17.9755  -13.6536  -14.9755 C   0  0  0  0  0  0  0  0  0  0  0  0
   18.0439  -12.2223  -15.3916 C   0  0  1  0  0  0  0  0  0  0  0  0
   18.4701  -12.1370  -16.6974 O   0  0  0  0  0  0  0  0  0  0  0  0
   16.7137  -11.4976  -15.2806 C   0  0  2  0  0  0  0  0  0  0  0  0
   15.7043  -12.0465  -16.1364 N   0  0  0  0  0  0  0  0  0  0  0  0
   16.9752  -10.0680  -15.4978 C   0  0  0  0  0  0  0  0  0  0  0  0
   16.9139   -9.6468  -16.6887 O   0  0  0  0  0  0  0  0  0  0  0  0
   17.2901   -9.1248  -14.4801 N   0  0  0  0  0  0  0  0  0  0  0  0
   17.6866   -7.7755  -14.7584 C   0  0  1  0  0  0  0  0  0  0  0  0
   16.7847   -6.8238  -14.0094 C   0  0  0  0  0  0  0  0  0  0  0  0
   17.1241   -5.4099  -14.2256 C   0  0  0  0  0  0  0  0  0  0  0  0
   17.7921   -4.8055  -13.3558 O   0  0  0  0  0  0  0  0  0  0  0  0
   19.1204   -7.5266  -14.4732 C   0  0  0  0  0  0  0  0  0  0  0  0
   19.6681   -7.9957  -13.4359 O   0  0  0  0  0  0  0  0  0  0  0  0
   16.7365   -4.7118  -15.3538 O   0  0  0  0  0  0  0  0  0  0  0  0
   19.9570   -6.7624  -15.3256 N   0  0  0  0  0  0  0  0  0  0  0  0
   21.4002   -6.6073  -15.1091 C   0  0  1  0  0  0  0  0  0  0  0  0
   22.1453   -6.6443  -16.3839 C   0  0  0  0  0  0  0  0  0  0  0  0
   23.6171   -6.4424  -16.1807 C   0  0  0  0  0  0  0  0  0  0  0  0
   24.3596   -6.4604  -17.5233 C   0  0  0  0  0  0  0  0  0  0  0  0
   25.8316   -6.3291  -17.2262 C   0  0  0  0  0  0  0  0  0  0  0  0
   26.6580   -6.5068  -18.3795 N   0  0  0  0  0  0  0  0  0  0  0  0
   21.6353   -5.3533  -14.3776 C   0  0  0  0  0  0  0  0  0  0  0  0
   20.8405   -4.3879  -14.5740 O   0  0  0  0  0  0  0  0  0  0  0  0
   22.6503   -5.1182  -13.4800 O   0  0  0  0  0  0  0  0  0  0  0  0
  2  1  1  6
  2  3  1  0
  4  2  1  0
  4  5  1  6
  6  8  1  0
  6  4  1  0
  7  6  2  0
  9 10  1  1
  9  8  1  0
 11 10  1  0
 12 11  2  0
 13 14  2  0
 13  9  1  0
 15 11  1  0
 16 13  1  0
 17 23  1  0
 17 16  1  0
 17 18  1  6
 19 20  1  0
 19 18  1  0
 20 21  1  0
 21 22  1  0
 23 25  1  0
 24 23  2  0
M  END
$$$$
