TDK.pdb
     RDKit          3D

 25 24  0  0  1  0  0  0  0  0999 V2000
   32.7746   -7.6488  -15.6303 C   0  0  0  0  0  0  0  0  0  0  0  0
   32.4397   -8.6012  -16.7289 C   0  0  1  0  0  0  0  0  0  0  0  0
   31.8429   -7.9230  -17.7671 O   0  0  0  0  0  0  0  0  0  0  0  0
   33.6493   -9.3372  -17.2789 C   0  0  2  0  0  0  0  0  0  0  0  0
   34.6681   -8.4547  -17.7645 N   0  0  0  0  0  0  0  0  0  0  0  0
   33.1597  -10.2986  -18.2767 C   0  0  0  0  0  0  0  0  0  0  0  0
   33.5248  -10.1203  -19.4743 O   0  0  0  0  0  0  0  0  0  0  0  0
   32.3120  -11.4083  -18.0039 N   0  0  0  0  0  0  0  0  0  0  0  0
   31.9110  -12.3523  -19.0055 C   0  0  1  0  0  0  0  0  0  0  0  0
   31.8957  -13.7394  -18.4090 C   0  0  0  0  0  0  0  0  0  0  0  0
   31.5161  -14.7823  -19.3729 C   0  0  0  0  0  0  0  0  0  0  0  0
   30.3622  -15.2660  -19.3220 O   0  0  0  0  0  0  0  0  0  0  0  0
   30.6167  -12.0033  -19.6398 C   0  0  0  0  0  0  0  0  0  0  0  0
   30.1853  -12.6498  -20.6356 O   0  0  0  0  0  0  0  0  0  0  0  0
   32.3815  -15.2573  -20.3404 O   0  0  0  0  0  0  0  0  0  0  0  0
   29.7925  -10.9439  -19.1828 N   0  0  0  0  0  0  0  0  0  0  0  0
   28.5473  -10.5472  -19.8507 C   0  0  1  0  0  0  0  0  0  0  0  0
   27.3629  -10.9116  -19.0470 C   0  0  0  0  0  0  0  0  0  0  0  0
   26.0840  -10.4983  -19.7116 C   0  0  0  0  0  0  0  0  0  0  0  0
   24.8713  -10.9493  -18.8869 C   0  0  0  0  0  0  0  0  0  0  0  0
   23.6351  -10.6083  -19.6792 C   0  0  0  0  0  0  0  0  0  0  0  0
   22.4463  -11.2051  -19.1548 N   0  0  0  0  0  0  0  0  0  0  0  0
   28.5973   -9.1027  -20.1221 C   0  0  0  0  0  0  0  0  0  0  0  0
   29.3085   -8.3763  -19.3679 O   0  0  0  0  0  0  0  0  0  0  0  0
   27.9387   -8.4466  -21.1356 O   0  0  0  0  0  0  0  0  0  0  0  0
  2  1  1  1
  2  3  1  0
  4  2  1  0
  4  5  1  6
  6  8  1  0
  6  4  1  0
  7  6  2  0
  9 10  1  1
  9  8  1  0
 11 10  1  0
 12 11  2  0
 13 14  2  0
 13  9  1  0
 15 11  1  0
 16 13  1  0
 17 23  1  0
 17 16  1  0
 17 18  1  1
 19 20  1  0
 19 18  1  0
 20 21  1  0
 21 22  1  0
 23 25  1  0
 24 23  2  0
M  END
$$$$
