TDK.pdb
     RDKit          3D

 25 24  0  0  1  0  0  0  0  0999 V2000
   18.6061  -14.4184  -16.9524 C   0  0  0  0  0  0  0  0  0  0  0  0
   18.3563  -12.9822  -16.6342 C   0  0  1  0  0  0  0  0  0  0  0  0
   18.1289  -12.8371  -15.2846 O   0  0  0  0  0  0  0  0  0  0  0  0
   19.5078  -12.0698  -17.0199 C   0  0  2  0  0  0  0  0  0  0  0  0
   20.7599  -12.4808  -16.4580 N   0  0  0  0  0  0  0  0  0  0  0  0
   19.1135  -10.6975  -16.6725 C   0  0  0  0  0  0  0  0  0  0  0  0
   17.9776  -10.3078  -17.0692 O   0  0  0  0  0  0  0  0  0  0  0  0
   19.9039   -9.7770  -15.9292 N   0  0  0  0  0  0  0  0  0  0  0  0
   19.4716   -8.4458  -15.6188 C   0  0  1  0  0  0  0  0  0  0  0  0
   18.1476   -8.5052  -14.8951 C   0  0  0  0  0  0  0  0  0  0  0  0
   17.6300   -7.1811  -14.5210 C   0  0  0  0  0  0  0  0  0  0  0  0
   18.4065   -6.3516  -13.9947 O   0  0  0  0  0  0  0  0  0  0  0  0
   20.4865   -7.6727  -14.8629 C   0  0  0  0  0  0  0  0  0  0  0  0
   20.8607   -8.0402  -13.7136 O   0  0  0  0  0  0  0  0  0  0  0  0
   16.3151   -6.8071  -14.7251 O   0  0  0  0  0  0  0  0  0  0  0  0
   21.0937   -6.4944  -15.3664 N   0  0  0  0  0  0  0  0  0  0  0  0
   22.2047   -5.8110  -14.6939 C   0  0  1  0  0  0  0  0  0  0  0  0
   22.8136   -4.7841  -15.5635 C   0  0  0  0  0  0  0  0  0  0  0  0
   21.8790   -3.6405  -15.8221 C   0  0  0  0  0  0  0  0  0  0  0  0
   22.5369   -2.5947  -16.7319 C   0  0  0  0  0  0  0  0  0  0  0  0
   21.4996   -1.5435  -17.0340 C   0  0  0  0  0  0  0  0  0  0  0  0
   21.9265   -0.5952  -18.0154 N   0  0  0  0  0  0  0  0  0  0  0  0
   21.7106   -5.2341  -13.4345 C   0  0  0  0  0  0  0  0  0  0  0  0
   20.4617   -5.2283  -13.2284 O   0  0  0  0  0  0  0  0  0  0  0  0
   22.4836   -4.6918  -12.4347 O   0  0  0  0  0  0  0  0  0  0  0  0
  2  1  1  1
  2  3  1  0
  4  2  1  0
  4  5  1  1
  6  8  1  0
  6  4  1  0
  7  6  2  0
  9 10  1  1
  9  8  1  0
 11 10  1  0
 12 11  2  0
 13 14  2  0
 13  9  1  0
 15 11  1  0
 16 13  1  0
 17 23  1  0
 17 16  1  0
 17 18  1  6
 19 20  1  0
 19 18  1  0
 20 21  1  0
 21 22  1  0
 23 25  1  0
 24 23  2  0
M  END
$$$$
