TDK.pdb
     RDKit          3D

 25 24  0  0  1  0  0  0  0  0999 V2000
   15.5668   -9.2149  -15.4106 C   0  0  0  0  0  0  0  0  0  0  0  0
   15.9303  -10.6588  -15.3150 C   0  0  1  0  0  0  0  0  0  0  0  0
   15.4051  -11.3431  -16.3874 O   0  0  0  0  0  0  0  0  0  0  0  0
   17.4292  -10.9030  -15.2873 C   0  0  2  0  0  0  0  0  0  0  0  0
   17.7706  -12.2936  -15.3327 N   0  0  0  0  0  0  0  0  0  0  0  0
   17.9671  -10.1887  -14.1211 C   0  0  0  0  0  0  0  0  0  0  0  0
   17.7750  -10.7135  -12.9866 O   0  0  0  0  0  0  0  0  0  0  0  0
   18.6831   -8.9599  -14.1666 N   0  0  0  0  0  0  0  0  0  0  0  0
   19.1551   -8.2847  -12.9934 C   0  0  1  0  0  0  0  0  0  0  0  0
   20.3470   -7.4301  -13.3527 C   0  0  0  0  0  0  0  0  0  0  0  0
   20.8755   -6.6624  -12.2159 C   0  0  0  0  0  0  0  0  0  0  0  0
   20.6515   -7.0675  -11.0524 O   0  0  0  0  0  0  0  0  0  0  0  0
   18.0937   -7.5042  -12.3125 C   0  0  0  0  0  0  0  0  0  0  0  0
   17.4454   -6.6123  -12.9290 O   0  0  0  0  0  0  0  0  0  0  0  0
   21.6141   -5.5048  -12.3739 O   0  0  0  0  0  0  0  0  0  0  0  0
   17.7411   -7.7005  -10.9532 N   0  0  0  0  0  0  0  0  0  0  0  0
   16.6151   -7.0161  -10.3069 C   0  0  1  0  0  0  0  0  0  0  0  0
   15.6521   -7.9799   -9.7364 C   0  0  0  0  0  0  0  0  0  0  0  0
   14.4744   -7.2942   -9.1112 C   0  0  0  0  0  0  0  0  0  0  0  0
   13.4545   -8.3207   -8.6009 C   0  0  0  0  0  0  0  0  0  0  0  0
   12.3302   -7.5548   -7.9517 C   0  0  0  0  0  0  0  0  0  0  0  0
   11.2768   -8.3955   -7.4740 N   0  0  0  0  0  0  0  0  0  0  0  0
   17.1435   -6.1035   -9.2818 C   0  0  0  0  0  0  0  0  0  0  0  0
   18.2479   -6.3927   -8.7350 O   0  0  0  0  0  0  0  0  0  0  0  0
   16.5493   -4.9410   -8.8497 O   0  0  0  0  0  0  0  0  0  0  0  0
  2  1  1  6
  2  3  1  0
  4  2  1  0
  4  5  1  1
  6  8  1  0
  6  4  1  0
  7  6  2  0
  9 10  1  6
  9  8  1  0
 11 10  1  0
 12 11  2  0
 13 14  2  0
 13  9  1  0
 15 11  1  0
 16 13  1  0
 17 23  1  0
 17 16  1  0
 17 18  1  1
 19 20  1  0
 19 18  1  0
 20 21  1  0
 21 22  1  0
 23 25  1  0
 24 23  2  0
M  END
$$$$
