QCS.pdb
     RDKit          3D

 22 21  0  0  1  0  0  0  0  0999 V2000
   15.2184  -19.5663   18.1405 N   0  0  0  0  0  0  0  0  0  0  0  0
   15.0087  -20.0032   16.7898 C   0  0  0  0  0  0  0  0  0  0  0  0
   15.4107  -21.1224   16.3952 O   0  0  0  0  0  0  0  0  0  0  0  0
   14.3076  -19.0923   15.8768 C   0  0  0  0  0  0  0  0  0  0  0  0
   13.8359  -17.8262   16.4765 C   0  0  0  0  0  0  0  0  0  0  0  0
   12.3883  -17.7007   16.7812 C   0  0  2  0  0  0  0  0  0  0  0  0
   11.5831  -17.1639   15.7485 N   0  0  0  0  0  0  0  0  0  0  0  0
   12.2894  -16.8831   18.0482 C   0  0  0  0  0  0  0  0  0  0  0  0
   12.3785  -15.6197   18.0092 O   0  0  0  0  0  0  0  0  0  0  0  0
   12.0958  -17.4718   19.3196 N   0  0  0  0  0  0  0  0  0  0  0  0
   12.0596  -16.6972   20.5450 C   0  0  1  0  0  0  0  0  0  0  0  0
   10.7330  -16.9147   21.2809 C   0  0  0  0  0  0  0  0  0  0  0  0
   10.2000  -18.6524   21.1161 S   0  0  0  0  0  0  0  0  0  0  0  0
   13.1384  -17.0611   21.4771 C   0  0  0  0  0  0  0  0  0  0  0  0
   13.5183  -18.2586   21.5365 O   0  0  0  0  0  0  0  0  0  0  0  0
   16.3042  -14.6287   22.4890 O   0  0  0  0  0  0  0  0  0  0  0  0
   15.7402  -15.2772   23.5651 C   0  0  0  0  0  0  0  0  0  0  0  0
   14.9123  -16.4813   23.1738 C   0  0  2  0  0  0  0  0  0  0  0  0
   13.8006  -16.1409   22.3366 N   0  0  0  0  0  0  0  0  0  0  0  0
   14.4012  -17.1278   24.4039 C   0  0  0  0  0  0  0  0  0  0  0  0
   13.0511  -17.1434   24.6646 O   0  0  0  0  0  0  0  0  0  0  0  0
   15.1862  -17.6736   25.2324 O   0  0  0  0  0  0  0  0  0  0  0  0
  1  2  1  0
  2  3  2  0
  4  5  1  0
  4  2  1  0
  6  8  1  0
  6  5  1  0
  6  7  1  6
  8 10  1  0
  9  8  2  0
 10 11  1  0
 11 14  1  0
 11 12  1  1
 13 12  1  0
 14 15  2  0
 14 19  1  0
 16 17  1  0
 18 17  1  1
 18 20  1  0
 19 18  1  0
 20 21  1  0
 22 20  2  0
M  END
$$$$
