QCS.pdb
     RDKit          3D

 22 21  0  0  1  0  0  0  0  0999 V2000
    9.4481  -14.1320   18.0886 N   0  0  0  0  0  0  0  0  0  0  0  0
    8.1891  -13.6386   18.5690 C   0  0  0  0  0  0  0  0  0  0  0  0
    7.6033  -12.6848   18.0059 O   0  0  0  0  0  0  0  0  0  0  0  0
    7.6055  -14.2866   19.7498 C   0  0  0  0  0  0  0  0  0  0  0  0
    8.4187  -15.3630   20.3541 C   0  0  0  0  0  0  0  0  0  0  0  0
    7.8720  -16.0582   21.5465 C   0  0  2  0  0  0  0  0  0  0  0  0
    6.4649  -16.2050   21.5860 N   0  0  0  0  0  0  0  0  0  0  0  0
    8.3887  -15.3066   22.7514 C   0  0  0  0  0  0  0  0  0  0  0  0
    9.6337  -15.1511   22.9295 O   0  0  0  0  0  0  0  0  0  0  0  0
    7.5284  -14.7476   23.7251 N   0  0  0  0  0  0  0  0  0  0  0  0
    8.0194  -14.1037   24.9281 C   0  0  1  0  0  0  0  0  0  0  0  0
    6.9943  -13.0938   25.4553 C   0  0  0  0  0  0  0  0  0  0  0  0
    7.5493  -12.4106   27.0541 S   0  0  0  0  0  0  0  0  0  0  0  0
    8.2852  -15.0602   26.0141 C   0  0  0  0  0  0  0  0  0  0  0  0
    7.3610  -15.8213   26.3997 O   0  0  0  0  0  0  0  0  0  0  0  0
   11.9300  -16.7424   26.5903 O   0  0  0  0  0  0  0  0  0  0  0  0
   10.7748  -17.2624   27.1305 C   0  0  0  0  0  0  0  0  0  0  0  0
    9.8262  -16.2049   27.6503 C   0  0  2  0  0  0  0  0  0  0  0  0
    9.5367  -15.1938   26.6774 N   0  0  0  0  0  0  0  0  0  0  0  0
   10.4339  -15.5624   28.8379 C   0  0  0  0  0  0  0  0  0  0  0  0
   10.8337  -16.3288   29.9074 O   0  0  0  0  0  0  0  0  0  0  0  0
   10.5969  -14.3092   28.8940 O   0  0  0  0  0  0  0  0  0  0  0  0
  1  2  1  0
  2  3  2  0
  4  5  1  0
  4  2  1  0
  6  8  1  0
  6  5  1  0
  6  7  1  6
  8 10  1  0
  9  8  2  0
 10 11  1  0
 11 14  1  0
 11 12  1  1
 13 12  1  0
 14 15  2  0
 14 19  1  0
 16 17  1  0
 18 17  1  6
 18 20  1  0
 19 18  1  0
 20 21  1  0
 22 20  2  0
M  END
$$$$
