QCS.pdb
     RDKit          3D

 22 21  0  0  1  0  0  0  0  0999 V2000
    7.2999  -13.0139   18.4651 N   0  0  0  0  0  0  0  0  0  0  0  0
    7.2196  -14.1871   17.6426 C   0  0  0  0  0  0  0  0  0  0  0  0
    6.9253  -14.1138   16.4269 O   0  0  0  0  0  0  0  0  0  0  0  0
    7.4909  -15.4848   18.2729 C   0  0  0  0  0  0  0  0  0  0  0  0
    7.8118  -15.4389   19.7151 C   0  0  0  0  0  0  0  0  0  0  0  0
    8.9959  -14.6490   20.1368 C   0  0  2  0  0  0  0  0  0  0  0  0
   10.2263  -15.0115   19.5388 N   0  0  0  0  0  0  0  0  0  0  0  0
    9.0577  -14.7462   21.6436 C   0  0  0  0  0  0  0  0  0  0  0  0
    9.9514  -15.4444   22.2088 O   0  0  0  0  0  0  0  0  0  0  0  0
    8.1405  -14.0766   22.4868 N   0  0  0  0  0  0  0  0  0  0  0  0
    8.2463  -14.0966   23.9330 C   0  0  1  0  0  0  0  0  0  0  0  0
    7.1052  -13.2944   24.5678 C   0  0  0  0  0  0  0  0  0  0  0  0
    7.1360  -13.4851   26.3826 S   0  0  0  0  0  0  0  0  0  0  0  0
    8.1808  -15.4583   24.4867 C   0  0  0  0  0  0  0  0  0  0  0  0
    7.1698  -16.1679   24.2491 O   0  0  0  0  0  0  0  0  0  0  0  0
   11.3819  -17.9256   24.9356 O   0  0  0  0  0  0  0  0  0  0  0  0
   10.0616  -18.3173   24.9426 C   0  0  0  0  0  0  0  0  0  0  0  0
    9.1687  -17.4034   25.7526 C   0  0  2  0  0  0  0  0  0  0  0  0
    9.1968  -16.0480   25.2892 N   0  0  0  0  0  0  0  0  0  0  0  0
    9.6131  -17.4328   27.1647 C   0  0  0  0  0  0  0  0  0  0  0  0
    9.6372  -18.6217   27.8552 O   0  0  0  0  0  0  0  0  0  0  0  0
    9.9761  -16.3772   27.7599 O   0  0  0  0  0  0  0  0  0  0  0  0
  1  2  1  0
  2  3  2  0
  4  5  1  0
  4  2  1  0
  6  8  1  0
  6  5  1  0
  6  7  1  6
  8 10  1  0
  9  8  2  0
 10 11  1  0
 11 14  1  0
 11 12  1  1
 13 12  1  0
 14 15  2  0
 14 19  1  0
 16 17  1  0
 18 17  1  6
 18 20  1  0
 19 18  1  0
 20 21  1  0
 22 20  2  0
M  END
$$$$
