QCS.pdb
     RDKit          3D

 22 21  0  0  1  0  0  0  0  0999 V2000
    9.1564  -12.5959   18.4146 N   0  0  0  0  0  0  0  0  0  0  0  0
    7.9165  -13.2995   18.2506 C   0  0  0  0  0  0  0  0  0  0  0  0
    7.1871  -13.1132   17.2491 O   0  0  0  0  0  0  0  0  0  0  0  0
    7.5239  -14.2480   19.2999 C   0  0  0  0  0  0  0  0  0  0  0  0
    8.4582  -14.3612   20.4398 C   0  0  0  0  0  0  0  0  0  0  0  0
    8.0618  -15.2292   21.5770 C   0  0  2  0  0  0  0  0  0  0  0  0
    6.6740  -15.4673   21.7192 N   0  0  0  0  0  0  0  0  0  0  0  0
    8.6501  -14.5994   22.8184 C   0  0  0  0  0  0  0  0  0  0  0  0
    9.8674  -14.2485   22.8487 O   0  0  0  0  0  0  0  0  0  0  0  0
    7.8895  -14.3720   23.9889 N   0  0  0  0  0  0  0  0  0  0  0  0
    8.4963  -14.1316   25.2839 C   0  0  1  0  0  0  0  0  0  0  0  0
    7.6027  -13.2253   26.1376 C   0  0  0  0  0  0  0  0  0  0  0  0
    5.8495  -13.6813   25.9158 S   0  0  0  0  0  0  0  0  0  0  0  0
    8.7131  -15.3711   26.0466 C   0  0  0  0  0  0  0  0  0  0  0  0
    7.8157  -16.2523   26.0510 O   0  0  0  0  0  0  0  0  0  0  0  0
   11.1963  -17.8354   25.5158 O   0  0  0  0  0  0  0  0  0  0  0  0
   11.2892  -17.6679   26.8797 C   0  0  0  0  0  0  0  0  0  0  0  0
   10.1287  -16.8978   27.4703 C   0  0  2  0  0  0  0  0  0  0  0  0
    9.8875  -15.6563   26.7972 N   0  0  0  0  0  0  0  0  0  0  0  0
   10.4189  -16.6181   28.8951 C   0  0  0  0  0  0  0  0  0  0  0  0
   10.4611  -15.3204   29.3481 O   0  0  0  0  0  0  0  0  0  0  0  0
   10.6320  -17.5557   29.7172 O   0  0  0  0  0  0  0  0  0  0  0  0
  1  2  1  0
  2  3  2  0
  4  5  1  0
  4  2  1  0
  6  8  1  0
  6  5  1  0
  6  7  1  1
  8 10  1  0
  9  8  2  0
 10 11  1  0
 11 14  1  0
 11 12  1  1
 13 12  1  0
 14 15  2  0
 14 19  1  0
 16 17  1  0
 18 17  1  6
 18 20  1  0
 19 18  1  0
 20 21  1  0
 22 20  2  0
M  END
$$$$
