QCS.pdb
     RDKit          3D

 22 21  0  0  1  0  0  0  0  0999 V2000
    7.7568  -17.6451   19.7866 N   0  0  0  0  0  0  0  0  0  0  0  0
    7.1330  -16.7750   18.8310 C   0  0  0  0  0  0  0  0  0  0  0  0
    6.6408  -17.2183   17.7675 O   0  0  0  0  0  0  0  0  0  0  0  0
    7.0914  -15.3399   19.1369 C   0  0  0  0  0  0  0  0  0  0  0  0
    7.6089  -14.9559   20.4674 C   0  0  0  0  0  0  0  0  0  0  0  0
    7.3837  -13.5608   20.9222 C   0  0  2  0  0  0  0  0  0  0  0  0
    7.8756  -12.5448   20.0685 N   0  0  0  0  0  0  0  0  0  0  0  0
    7.9801  -13.4633   22.3073 C   0  0  0  0  0  0  0  0  0  0  0  0
    8.7211  -12.4850   22.6230 O   0  0  0  0  0  0  0  0  0  0  0  0
    7.7480  -14.4382   23.3053 N   0  0  0  0  0  0  0  0  0  0  0  0
    8.2798  -14.3260   24.6497 C   0  0  1  0  0  0  0  0  0  0  0  0
    7.7042  -13.0935   25.3557 C   0  0  0  0  0  0  0  0  0  0  0  0
    5.8914  -13.2433   25.5044 S   0  0  0  0  0  0  0  0  0  0  0  0
    7.9595  -15.4943   25.4848 C   0  0  0  0  0  0  0  0  0  0  0  0
    6.8422  -16.0559   25.3495 O   0  0  0  0  0  0  0  0  0  0  0  0
   11.1438  -18.4644   24.9184 O   0  0  0  0  0  0  0  0  0  0  0  0
   10.4867  -17.2694   25.1109 C   0  0  0  0  0  0  0  0  0  0  0  0
    9.5388  -17.2887   26.2896 C   0  0  2  0  0  0  0  0  0  0  0  0
    8.8369  -16.0510   26.4566 N   0  0  0  0  0  0  0  0  0  0  0  0
   10.3147  -17.5654   27.5201 C   0  0  0  0  0  0  0  0  0  0  0  0
   10.7764  -18.8358   27.7728 O   0  0  0  0  0  0  0  0  0  0  0  0
   10.5669  -16.6500   28.3560 O   0  0  0  0  0  0  0  0  0  0  0  0
  1  2  1  0
  2  3  2  0
  4  5  1  0
  4  2  1  0
  6  8  1  0
  6  5  1  0
  6  7  1  6
  8 10  1  0
  9  8  2  0
 10 11  1  0
 11 14  1  0
 11 12  1  1
 13 12  1  0
 14 15  2  0
 14 19  1  0
 16 17  1  0
 18 17  1  6
 18 20  1  0
 19 18  1  0
 20 21  1  0
 22 20  2  0
M  END
$$$$
