QCS.pdb
     RDKit          3D

 22 21  0  0  1  0  0  0  0  0999 V2000
    6.3552  -20.3321   16.6583 N   0  0  0  0  0  0  0  0  0  0  0  0
    6.9994  -19.2733   15.9350 C   0  0  0  0  0  0  0  0  0  0  0  0
    6.4517  -18.7284   14.9486 O   0  0  0  0  0  0  0  0  0  0  0  0
    8.3298  -18.8471   16.3858 C   0  0  0  0  0  0  0  0  0  0  0  0
    8.5582  -18.9065   17.8451 C   0  0  0  0  0  0  0  0  0  0  0  0
    7.7926  -17.9694   18.7051 C   0  0  2  0  0  0  0  0  0  0  0  0
    6.8167  -17.1832   18.0474 N   0  0  0  0  0  0  0  0  0  0  0  0
    8.8145  -17.1117   19.4149 C   0  0  0  0  0  0  0  0  0  0  0  0
    9.8981  -16.7915   18.8411 O   0  0  0  0  0  0  0  0  0  0  0  0
    8.6205  -16.6297   20.7304 N   0  0  0  0  0  0  0  0  0  0  0  0
    9.6143  -15.8388   21.4302 C   0  0  1  0  0  0  0  0  0  0  0  0
    8.9430  -14.7241   22.2398 C   0  0  0  0  0  0  0  0  0  0  0  0
    7.5846  -15.4094   23.2477 S   0  0  0  0  0  0  0  0  0  0  0  0
   10.4141  -16.6383   22.3715 C   0  0  0  0  0  0  0  0  0  0  0  0
    9.8898  -17.6391   22.9241 O   0  0  0  0  0  0  0  0  0  0  0  0
   14.4638  -15.7125   23.3116 O   0  0  0  0  0  0  0  0  0  0  0  0
   14.0612  -17.0288   23.2663 C   0  0  0  0  0  0  0  0  0  0  0  0
   12.5822  -17.2133   23.5250 C   0  0  2  0  0  0  0  0  0  0  0  0
   11.7669  -16.3600   22.7128 N   0  0  0  0  0  0  0  0  0  0  0  0
   12.3076  -16.9183   24.9498 C   0  0  0  0  0  0  0  0  0  0  0  0
   12.8039  -17.7423   25.9324 O   0  0  0  0  0  0  0  0  0  0  0  0
   11.6185  -15.9136   25.2904 O   0  0  0  0  0  0  0  0  0  0  0  0
  1  2  1  0
  2  3  2  0
  4  5  1  0
  4  2  1  0
  6  8  1  0
  6  5  1  0
  6  7  1  6
  8 10  1  0
  9  8  2  0
 10 11  1  0
 11 14  1  0
 11 12  1  1
 13 12  1  0
 14 15  2  0
 14 19  1  0
 16 17  1  0
 18 17  1  6
 18 20  1  0
 19 18  1  0
 20 21  1  0
 22 20  2  0
M  END
$$$$
