QCS.pdb
     RDKit          3D

 22 21  0  0  1  0  0  0  0  0999 V2000
    7.5137  -15.1619   15.5229 N   0  0  0  0  0  0  0  0  0  0  0  0
    8.1363  -13.9618   16.0042 C   0  0  0  0  0  0  0  0  0  0  0  0
    8.9539  -13.3230   15.3018 O   0  0  0  0  0  0  0  0  0  0  0  0
    7.7872  -13.5037   17.3544 C   0  0  0  0  0  0  0  0  0  0  0  0
    8.7749  -13.8155   18.4092 C   0  0  0  0  0  0  0  0  0  0  0  0
    8.6117  -15.0874   19.1572 C   0  0  2  0  0  0  0  0  0  0  0  0
    7.3025  -15.6244   19.1862 N   0  0  0  0  0  0  0  0  0  0  0  0
    9.1417  -14.8334   20.5494 C   0  0  0  0  0  0  0  0  0  0  0  0
   10.3358  -14.4470   20.7244 O   0  0  0  0  0  0  0  0  0  0  0  0
    8.3499  -15.0093   21.7081 N   0  0  0  0  0  0  0  0  0  0  0  0
    8.9097  -15.0217   23.0458 C   0  0  1  0  0  0  0  0  0  0  0  0
    7.8113  -14.8006   24.0914 C   0  0  0  0  0  0  0  0  0  0  0  0
    7.0035  -13.1861   23.8234 S   0  0  0  0  0  0  0  0  0  0  0  0
    9.5698  -16.2957   23.3716 C   0  0  0  0  0  0  0  0  0  0  0  0
    8.9922  -17.3756   23.0848 O   0  0  0  0  0  0  0  0  0  0  0  0
   13.6690  -16.5239   23.8819 O   0  0  0  0  0  0  0  0  0  0  0  0
   12.9171  -17.6276   23.5455 C   0  0  0  0  0  0  0  0  0  0  0  0
   11.5456  -17.6368   24.1837 C   0  0  2  0  0  0  0  0  0  0  0  0
   10.8411  -16.4027   24.0011 N   0  0  0  0  0  0  0  0  0  0  0  0
   11.6975  -17.8878   25.6351 C   0  0  0  0  0  0  0  0  0  0  0  0
   12.3679  -19.0049   26.0751 O   0  0  0  0  0  0  0  0  0  0  0  0
   11.2195  -17.0893   26.4921 O   0  0  0  0  0  0  0  0  0  0  0  0
  1  2  1  0
  2  3  2  0
  4  5  1  0
  4  2  1  0
  6  8  1  0
  6  5  1  0
  6  7  1  1
  8 10  1  0
  9  8  2  0
 10 11  1  0
 11 14  1  0
 11 12  1  1
 13 12  1  0
 14 15  2  0
 14 19  1  0
 16 17  1  0
 18 17  1  6
 18 20  1  0
 19 18  1  0
 20 21  1  0
 22 20  2  0
M  END
$$$$
