QCS.pdb
     RDKit          3D

 22 21  0  0  1  0  0  0  0  0999 V2000
    7.8545  -17.4867   17.2122 N   0  0  0  0  0  0  0  0  0  0  0  0
    7.7874  -16.3820   16.2986 C   0  0  0  0  0  0  0  0  0  0  0  0
    7.5381  -16.5539   15.0828 O   0  0  0  0  0  0  0  0  0  0  0  0
    8.0244  -15.0359   16.8338 C   0  0  0  0  0  0  0  0  0  0  0  0
    8.4098  -14.9748   18.2597 C   0  0  0  0  0  0  0  0  0  0  0  0
    8.0571  -13.7501   19.0210 C   0  0  2  0  0  0  0  0  0  0  0  0
    8.4569  -12.5235   18.4392 N   0  0  0  0  0  0  0  0  0  0  0  0
    8.6381  -13.9271   20.4048 C   0  0  0  0  0  0  0  0  0  0  0  0
    9.8400  -13.6058   20.6456 O   0  0  0  0  0  0  0  0  0  0  0  0
    7.8871  -14.4497   21.4834 N   0  0  0  0  0  0  0  0  0  0  0  0
    8.4585  -14.6850   22.7953 C   0  0  1  0  0  0  0  0  0  0  0  0
    7.3736  -14.6165   23.8756 C   0  0  0  0  0  0  0  0  0  0  0  0
    7.0205  -12.8777   24.3029 S   0  0  0  0  0  0  0  0  0  0  0  0
    9.0988  -16.0052   22.9056 C   0  0  0  0  0  0  0  0  0  0  0  0
    8.5060  -17.0138   22.4438 O   0  0  0  0  0  0  0  0  0  0  0  0
   12.6793  -16.7165   21.9313 O   0  0  0  0  0  0  0  0  0  0  0  0
   12.4883  -17.4001   23.1115 C   0  0  0  0  0  0  0  0  0  0  0  0
   11.0347  -17.5016   23.5179 C   0  0  2  0  0  0  0  0  0  0  0  0
   10.3669  -16.2341   23.5085 N   0  0  0  0  0  0  0  0  0  0  0  0
   10.9607  -18.0683   24.8839 C   0  0  0  0  0  0  0  0  0  0  0  0
   11.4511  -19.3282   25.1350 O   0  0  0  0  0  0  0  0  0  0  0  0
   10.4508  -17.4135   25.8386 O   0  0  0  0  0  0  0  0  0  0  0  0
  1  2  1  0
  2  3  2  0
  4  5  1  0
  4  2  1  0
  6  8  1  0
  6  5  1  0
  6  7  1  6
  8 10  1  0
  9  8  2  0
 10 11  1  0
 11 14  1  0
 11 12  1  1
 13 12  1  0
 14 15  2  0
 14 19  1  0
 16 17  1  0
 18 17  1  1
 18 20  1  0
 19 18  1  0
 20 21  1  0
 22 20  2  0
M  END
$$$$
