QCS.pdb
     RDKit          3D

 22 21  0  0  1  0  0  0  0  0999 V2000
    9.6741  -14.1475   17.4840 N   0  0  0  0  0  0  0  0  0  0  0  0
    8.3177  -13.6997   17.3465 C   0  0  0  0  0  0  0  0  0  0  0  0
    7.7596  -13.6405   16.2263 O   0  0  0  0  0  0  0  0  0  0  0  0
    7.5997  -13.3070   18.5651 C   0  0  0  0  0  0  0  0  0  0  0  0
    8.3011  -13.5845   19.8364 C   0  0  0  0  0  0  0  0  0  0  0  0
    7.8863  -14.7820   20.6096 C   0  0  2  0  0  0  0  0  0  0  0  0
    6.4915  -14.9950   20.7191 N   0  0  0  0  0  0  0  0  0  0  0  0
    8.5406  -14.6601   21.9663 C   0  0  0  0  0  0  0  0  0  0  0  0
    9.7967  -14.5267   22.0671 O   0  0  0  0  0  0  0  0  0  0  0  0
    7.8014  -14.6876   23.1719 N   0  0  0  0  0  0  0  0  0  0  0  0
    8.4314  -14.7475   24.4767 C   0  0  1  0  0  0  0  0  0  0  0  0
    7.4984  -14.1802   25.5520 C   0  0  0  0  0  0  0  0  0  0  0  0
    6.5500  -12.7719   24.8826 S   0  0  0  0  0  0  0  0  0  0  0  0
    8.7728  -16.1212   24.8782 C   0  0  0  0  0  0  0  0  0  0  0  0
    7.9141  -17.0301   24.7426 O   0  0  0  0  0  0  0  0  0  0  0  0
   11.9593  -19.6264   25.1611 O   0  0  0  0  0  0  0  0  0  0  0  0
   11.5357  -18.3563   24.8385 C   0  0  0  0  0  0  0  0  0  0  0  0
   10.3968  -17.8652   25.7047 C   0  0  2  0  0  0  0  0  0  0  0  0
   10.0292  -16.5099   25.4208 N   0  0  0  0  0  0  0  0  0  0  0  0
   10.8038  -17.9603   27.1252 C   0  0  0  0  0  0  0  0  0  0  0  0
   11.0046  -19.1915   27.7038 O   0  0  0  0  0  0  0  0  0  0  0  0
   10.9737  -16.9232   27.8294 O   0  0  0  0  0  0  0  0  0  0  0  0
  1  2  1  0
  2  3  2  0
  4  5  1  0
  4  2  1  0
  6  8  1  0
  6  5  1  0
  6  7  1  1
  8 10  1  0
  9  8  2  0
 10 11  1  0
 11 14  1  0
 11 12  1  1
 13 12  1  0
 14 15  2  0
 14 19  1  0
 16 17  1  0
 18 17  1  6
 18 20  1  0
 19 18  1  0
 20 21  1  0
 22 20  2  0
M  END
$$$$
