QCS.pdb
     RDKit          3D

 22 21  0  0  1  0  0  0  0  0999 V2000
    8.0061  -19.2547   20.1710 N   0  0  0  0  0  0  0  0  0  0  0  0
    7.0693  -18.9164   19.1379 C   0  0  0  0  0  0  0  0  0  0  0  0
    6.8961  -19.6595   18.1441 O   0  0  0  0  0  0  0  0  0  0  0  0
    6.3173  -17.6637   19.2793 C   0  0  0  0  0  0  0  0  0  0  0  0
    6.4882  -16.9588   20.5673 C   0  0  0  0  0  0  0  0  0  0  0  0
    6.8574  -15.5215   20.5270 C   0  0  2  0  0  0  0  0  0  0  0  0
    7.3710  -15.0490   19.2957 N   0  0  0  0  0  0  0  0  0  0  0  0
    7.8326  -15.3006   21.6600 C   0  0  0  0  0  0  0  0  0  0  0  0
    9.0812  -15.2929   21.4440 O   0  0  0  0  0  0  0  0  0  0  0  0
    7.4130  -15.0945   22.9949 N   0  0  0  0  0  0  0  0  0  0  0  0
    8.3430  -14.8487   24.0801 C   0  0  1  0  0  0  0  0  0  0  0  0
    7.6174  -14.2368   25.2833 C   0  0  0  0  0  0  0  0  0  0  0  0
    6.8032  -12.6766   24.7999 S   0  0  0  0  0  0  0  0  0  0  0  0
    9.0031  -16.0772   24.5494 C   0  0  0  0  0  0  0  0  0  0  0  0
    8.3277  -17.1329   24.6557 O   0  0  0  0  0  0  0  0  0  0  0  0
   13.2069  -18.5007   25.0956 O   0  0  0  0  0  0  0  0  0  0  0  0
   12.4985  -17.3850   24.7084 C   0  0  0  0  0  0  0  0  0  0  0  0
   11.0603  -17.3944   25.1776 C   0  0  2  0  0  0  0  0  0  0  0  0
   10.3790  -16.1649   24.9004 N   0  0  0  0  0  0  0  0  0  0  0  0
   11.0379  -17.6319   26.6389 C   0  0  0  0  0  0  0  0  0  0  0  0
   10.5281  -16.6752   27.4851 O   0  0  0  0  0  0  0  0  0  0  0  0
   11.4820  -18.7074   27.1353 O   0  0  0  0  0  0  0  0  0  0  0  0
  1  2  1  0
  2  3  2  0
  4  5  1  0
  4  2  1  0
  6  8  1  0
  6  5  1  0
  6  7  1  6
  8 10  1  0
  9  8  2  0
 10 11  1  0
 11 14  1  0
 11 12  1  1
 13 12  1  0
 14 15  2  0
 14 19  1  0
 16 17  1  0
 18 17  1  1
 18 20  1  0
 19 18  1  0
 20 21  1  0
 22 20  2  0
M  END
$$$$
