YHC.pdb
     RDKit          3D

 29 30  0  0  1  0  0  0  0  0999 V2000
   22.8638  -13.9852  -21.9697 O   0  0  0  0  0  0  0  0  0  0  0  0
   22.4008  -12.7929  -21.3912 C   0  0  0  0  0  0  0  0  0  0  0  0
   22.9021  -12.3678  -20.1873 C   0  0  0  0  0  0  0  0  0  0  0  0
   22.4494  -11.2027  -19.6224 C   0  0  0  0  0  0  0  0  0  0  0  0
   21.4857  -10.4067  -20.2161 C   0  0  0  0  0  0  0  0  0  0  0  0
   21.0200   -9.1486  -19.5713 C   0  0  0  0  0  0  0  0  0  0  0  0
   20.4093   -9.5312  -18.2516 C   0  0  2  0  0  0  0  0  0  0  0  0
   19.2757  -10.3771  -18.5192 N   0  0  0  0  0  0  0  0  0  0  0  0
   20.0177   -8.4059  -17.4161 C   0  0  0  0  0  0  0  0  0  0  0  0
   18.9352   -7.8215  -17.6670 O   0  0  0  0  0  0  0  0  0  0  0  0
   20.9890  -10.8450  -21.4271 C   0  0  0  0  0  0  0  0  0  0  0  0
   21.4389  -12.0240  -22.0112 C   0  0  0  0  0  0  0  0  0  0  0  0
   20.7683   -7.9012  -16.3199 N   0  0  0  0  0  0  0  0  0  0  0  0
   20.4065   -6.7949  -15.5035 C   0  0  1  0  0  0  0  0  0  0  0  0
   20.7523   -6.9423  -14.0526 C   0  0  0  0  0  0  0  0  0  0  0  0
   19.8792   -7.9006  -13.3417 C   0  0  0  0  0  0  0  0  0  0  0  0
   18.7810   -8.4915  -13.9319 C   0  0  0  0  0  0  0  0  0  0  0  0
   18.1928   -9.2985  -13.0630 N   0  0  0  0  0  0  0  0  0  0  0  0
   18.9056   -9.2300  -11.9187 C   0  0  0  0  0  0  0  0  0  0  0  0
   19.9364   -8.3747  -12.0913 N   0  0  0  0  0  0  0  0  0  0  0  0
   20.9118   -5.5104  -16.0539 C   0  0  0  0  0  0  0  0  0  0  0  0
   22.0369   -5.5190  -16.6151 O   0  0  0  0  0  0  0  0  0  0  0  0
   20.2043   -4.2990  -15.9802 N   0  0  0  0  0  0  0  0  0  0  0  0
   20.5946   -3.0828  -16.6608 C   0  0  1  0  0  0  0  0  0  0  0  0
   20.7693   -3.3762  -18.1442 C   0  0  0  0  0  0  0  0  0  0  0  0
   21.1430   -1.8424  -18.9990 S   0  0  0  0  0  0  0  0  0  0  0  0
   19.6010   -1.9963  -16.4377 C   0  0  0  0  0  0  0  0  0  0  0  0
   18.3832   -2.2412  -16.2688 O   0  0  0  0  0  0  0  0  0  0  0  0
   19.9864   -0.6592  -16.4075 O   0  0  0  0  0  0  0  0  0  0  0  0
  2  1  1  0
  3  2  2  0
  4  3  1  0
  5 11  1  0
  5  4  2  0
  6  5  1  0
  7  9  1  0
  7  6  1  0
  7  8  1  6
  9 10  2  0
 11 12  2  0
 12  2  1  0
 13 14  1  0
 13  9  1  0
 14 15  1  1
 16 15  1  0
 17 16  2  0
 18 19  1  0
 18 17  1  0
 19 20  2  0
 20 16  1  0
 21 22  2  0
 21 14  1  0
 23 21  1  0
 24 23  1  0
 24 27  1  0
 24 25  1  6
 26 25  1  0
 27 29  1  0
 28 27  2  0
M  END
$$$$
