YHC.pdb
     RDKit          3D

 29 30  0  0  1  0  0  0  0  0999 V2000
   23.3097  -18.8122  -14.8543 O   0  0  0  0  0  0  0  0  0  0  0  0
   23.4612  -17.4202  -14.9541 C   0  0  0  0  0  0  0  0  0  0  0  0
   24.5604  -16.8034  -14.4131 C   0  0  0  0  0  0  0  0  0  0  0  0
   24.7081  -15.4432  -14.5108 C   0  0  0  0  0  0  0  0  0  0  0  0
   23.7826  -14.6322  -15.1437 C   0  0  0  0  0  0  0  0  0  0  0  0
   23.9784  -13.1592  -15.2290 C   0  0  0  0  0  0  0  0  0  0  0  0
   24.3136  -12.8428  -16.6604 C   0  0  2  0  0  0  0  0  0  0  0  0
   25.7040  -13.1536  -16.8666 N   0  0  0  0  0  0  0  0  0  0  0  0
   24.0349  -11.4713  -17.0591 C   0  0  0  0  0  0  0  0  0  0  0  0
   24.8975  -10.5908  -16.8204 O   0  0  0  0  0  0  0  0  0  0  0  0
   22.6809  -15.2645  -15.6839 C   0  0  0  0  0  0  0  0  0  0  0  0
   22.5185  -16.6425  -15.5922 C   0  0  0  0  0  0  0  0  0  0  0  0
   22.8485  -11.0333  -17.7075 N   0  0  0  0  0  0  0  0  0  0  0  0
   22.5551   -9.6957  -18.0895 C   0  0  1  0  0  0  0  0  0  0  0  0
   22.1004   -9.5305  -19.5082 C   0  0  0  0  0  0  0  0  0  0  0  0
   23.1273   -9.9230  -20.4968 C   0  0  0  0  0  0  0  0  0  0  0  0
   24.3520   -9.2947  -20.5924 C   0  0  0  0  0  0  0  0  0  0  0  0
   25.0614   -9.8539  -21.5600 N   0  0  0  0  0  0  0  0  0  0  0  0
   24.3009  -10.8370  -22.0866 C   0  0  0  0  0  0  0  0  0  0  0  0
   23.1186  -10.8775  -21.4351 N   0  0  0  0  0  0  0  0  0  0  0  0
   21.6187   -9.0401  -17.1399 C   0  0  0  0  0  0  0  0  0  0  0  0
   20.5046   -9.5900  -16.9465 O   0  0  0  0  0  0  0  0  0  0  0  0
   21.9112   -7.8496  -16.4540 N   0  0  0  0  0  0  0  0  0  0  0  0
   21.0022   -7.1880  -15.5426 C   0  0  1  0  0  0  0  0  0  0  0  0
   21.4221   -7.4925  -14.1115 C   0  0  0  0  0  0  0  0  0  0  0  0
   20.3785   -6.5576  -12.9892 S   0  0  0  0  0  0  0  0  0  0  0  0
   20.9590   -5.7207  -15.7931 C   0  0  0  0  0  0  0  0  0  0  0  0
   19.8744   -5.0976  -15.8752 O   0  0  0  0  0  0  0  0  0  0  0  0
   22.1267   -4.9789  -15.9468 O   0  0  0  0  0  0  0  0  0  0  0  0
  2  1  1  0
  3  2  2  0
  4  3  1  0
  5 11  1  0
  5  4  2  0
  6  5  1  0
  7  9  1  0
  7  6  1  0
  7  8  1  1
  9 10  2  0
 11 12  2  0
 12  2  1  0
 13 14  1  0
 13  9  1  0
 14 15  1  6
 16 15  1  0
 17 16  2  0
 18 19  1  0
 18 17  1  0
 19 20  2  0
 20 16  1  0
 21 22  2  0
 21 14  1  0
 23 21  1  0
 24 23  1  0
 24 27  1  0
 24 25  1  1
 26 25  1  0
 27 29  1  0
 28 27  2  0
M  END
$$$$
