YHC.pdb
     RDKit          3D

 29 30  0  0  1  0  0  0  0  0999 V2000
   29.6060  -12.8789  -16.7400 O   0  0  0  0  0  0  0  0  0  0  0  0
   28.5807  -11.9377  -16.5571 C   0  0  0  0  0  0  0  0  0  0  0  0
   28.6639  -10.7011  -17.1447 C   0  0  0  0  0  0  0  0  0  0  0  0
   27.6618   -9.7816  -16.9657 C   0  0  0  0  0  0  0  0  0  0  0  0
   26.5365  -10.0382  -16.2024 C   0  0  0  0  0  0  0  0  0  0  0  0
   25.4701   -9.0140  -16.0320 C   0  0  0  0  0  0  0  0  0  0  0  0
   24.2319   -9.5549  -16.6919 C   0  0  2  0  0  0  0  0  0  0  0  0
   24.5525   -9.8371  -18.0666 N   0  0  0  0  0  0  0  0  0  0  0  0
   23.0708   -8.6816  -16.6097 C   0  0  0  0  0  0  0  0  0  0  0  0
   22.9326   -7.7852  -17.4779 O   0  0  0  0  0  0  0  0  0  0  0  0
   26.4643  -11.2859  -15.6164 C   0  0  0  0  0  0  0  0  0  0  0  0
   27.4728  -12.2275  -15.7894 C   0  0  0  0  0  0  0  0  0  0  0  0
   22.0602   -8.7565  -15.6133 N   0  0  0  0  0  0  0  0  0  0  0  0
   20.9064   -7.9294  -15.5353 C   0  0  1  0  0  0  0  0  0  0  0  0
   19.6890   -8.5972  -14.9711 C   0  0  0  0  0  0  0  0  0  0  0  0
   19.1241   -9.6286  -15.8671 C   0  0  0  0  0  0  0  0  0  0  0  0
   19.6180   -9.8717  -17.1323 C   0  0  0  0  0  0  0  0  0  0  0  0
   18.9211  -10.8436  -17.6997 N   0  0  0  0  0  0  0  0  0  0  0  0
   17.9829  -11.2264  -16.8078 C   0  0  0  0  0  0  0  0  0  0  0  0
   18.1089  -10.4822  -15.6880 N   0  0  0  0  0  0  0  0  0  0  0  0
   21.1902   -6.6449  -14.8441 C   0  0  0  0  0  0  0  0  0  0  0  0
   22.1582   -6.6157  -14.0421 O   0  0  0  0  0  0  0  0  0  0  0  0
   20.4401   -5.4732  -15.0385 N   0  0  0  0  0  0  0  0  0  0  0  0
   20.7813   -4.1830  -14.4781 C   0  0  1  0  0  0  0  0  0  0  0  0
   22.1920   -3.8092  -14.9109 C   0  0  0  0  0  0  0  0  0  0  0  0
   22.5679   -2.1621  -14.3038 S   0  0  0  0  0  0  0  0  0  0  0  0
   19.7974   -3.1411  -14.8830 C   0  0  0  0  0  0  0  0  0  0  0  0
   19.1477   -3.2277  -15.9516 O   0  0  0  0  0  0  0  0  0  0  0  0
   19.5585   -2.0242  -14.0874 O   0  0  0  0  0  0  0  0  0  0  0  0
  2  1  1  0
  3  2  2  0
  4  3  1  0
  5 11  1  0
  5  4  2  0
  6  5  1  0
  7  9  1  0
  7  6  1  0
  7  8  1  6
  9 10  2  0
 11 12  2  0
 12  2  1  0
 13 14  1  0
 13  9  1  0
 14 15  1  1
 16 15  1  0
 17 16  2  0
 18 19  1  0
 18 17  1  0
 19 20  2  0
 20 16  1  0
 21 22  2  0
 21 14  1  0
 23 21  1  0
 24 23  1  0
 24 27  1  0
 24 25  1  6
 26 25  1  0
 27 29  1  0
 28 27  2  0
M  END
$$$$
