YHC.pdb
     RDKit          3D

 29 30  0  0  1  0  0  0  0  0999 V2000
   22.1631  -16.3796  -24.3522 O   0  0  0  0  0  0  0  0  0  0  0  0
   21.7119  -17.1357  -23.2590 C   0  0  0  0  0  0  0  0  0  0  0  0
   21.5070  -16.5377  -22.0416 C   0  0  0  0  0  0  0  0  0  0  0  0
   21.0662  -17.2769  -20.9736 C   0  0  0  0  0  0  0  0  0  0  0  0
   20.8081  -18.6339  -21.0564 C   0  0  0  0  0  0  0  0  0  0  0  0
   20.3305  -19.4019  -19.8743 C   0  0  0  0  0  0  0  0  0  0  0  0
   21.5099  -19.5761  -18.9578 C   0  0  2  0  0  0  0  0  0  0  0  0
   22.4253  -20.4920  -19.5867 N   0  0  0  0  0  0  0  0  0  0  0  0
   21.1736  -20.0334  -17.6179 C   0  0  0  0  0  0  0  0  0  0  0  0
   21.0173  -21.2644  -17.4265 O   0  0  0  0  0  0  0  0  0  0  0  0
   21.0180  -19.2241  -22.2864 C   0  0  0  0  0  0  0  0  0  0  0  0
   21.4647  -18.4869  -23.3776 C   0  0  0  0  0  0  0  0  0  0  0  0
   21.0035  -19.1919  -16.4853 N   0  0  0  0  0  0  0  0  0  0  0  0
   20.6875  -19.6241  -15.1683 C   0  0  1  0  0  0  0  0  0  0  0  0
   21.0821  -18.6716  -14.0804 C   0  0  0  0  0  0  0  0  0  0  0  0
   20.7817  -19.1806  -12.7253 C   0  0  0  0  0  0  0  0  0  0  0  0
   21.4016  -20.2905  -12.1890 C   0  0  0  0  0  0  0  0  0  0  0  0
   20.9371  -20.5101  -10.9691 N   0  0  0  0  0  0  0  0  0  0  0  0
   20.0230  -19.5490  -10.7181 C   0  0  0  0  0  0  0  0  0  0  0  0
   19.9296  -18.7372  -11.7932 N   0  0  0  0  0  0  0  0  0  0  0  0
   19.2632  -20.0295  -15.0441 C   0  0  0  0  0  0  0  0  0  0  0  0
   18.4004  -19.3073  -15.6052 O   0  0  0  0  0  0  0  0  0  0  0  0
   18.8354  -21.1668  -14.3392 N   0  0  0  0  0  0  0  0  0  0  0  0
   17.4490  -21.5396  -14.1551 C   0  0  1  0  0  0  0  0  0  0  0  0
   17.3741  -23.0160  -13.7922 C   0  0  0  0  0  0  0  0  0  0  0  0
   15.6557  -23.4612  -13.5244 S   0  0  0  0  0  0  0  0  0  0  0  0
   16.7955  -20.6939  -13.1181 C   0  0  0  0  0  0  0  0  0  0  0  0
   17.3929  -20.3590  -12.0681 O   0  0  0  0  0  0  0  0  0  0  0  0
   15.4892  -20.2394  -13.2738 O   0  0  0  0  0  0  0  0  0  0  0  0
  2  1  1  0
  3  2  2  0
  4  3  1  0
  5 11  1  0
  5  4  2  0
  6  5  1  0
  7  9  1  0
  7  6  1  0
  7  8  1  6
  9 10  2  0
 11 12  2  0
 12  2  1  0
 13 14  1  0
 13  9  1  0
 14 15  1  1
 16 15  1  0
 17 16  2  0
 18 19  1  0
 18 17  1  0
 19 20  2  0
 20 16  1  0
 21 22  2  0
 21 14  1  0
 23 21  1  0
 24 23  1  0
 24 27  1  0
 24 25  1  1
 26 25  1  0
 27 29  1  0
 28 27  2  0
M  END
$$$$
