YHC.pdb
     RDKit          3D

 29 30  0  0  1  0  0  0  0  0999 V2000
   24.7369  -33.1521  -10.7072 O   0  0  0  0  0  0  0  0  0  0  0  0
   25.3232  -33.2292  -11.9803 C   0  0  0  0  0  0  0  0  0  0  0  0
   26.6403  -33.5878  -12.1149 C   0  0  0  0  0  0  0  0  0  0  0  0
   27.2128  -33.6629  -13.3591 C   0  0  0  0  0  0  0  0  0  0  0  0
   26.5159  -33.3890  -14.5228 C   0  0  0  0  0  0  0  0  0  0  0  0
   27.1728  -33.4817  -15.8552 C   0  0  0  0  0  0  0  0  0  0  0  0
   28.0313  -32.2566  -16.0080 C   0  0  2  0  0  0  0  0  0  0  0  0
   27.1695  -31.1535  -16.3434 N   0  0  0  0  0  0  0  0  0  0  0  0
   29.0993  -32.3836  -16.9882 C   0  0  0  0  0  0  0  0  0  0  0  0
   28.8897  -31.9797  -18.1584 O   0  0  0  0  0  0  0  0  0  0  0  0
   25.1916  -33.0294  -14.3744 C   0  0  0  0  0  0  0  0  0  0  0  0
   24.5984  -32.9492  -13.1192 C   0  0  0  0  0  0  0  0  0  0  0  0
   30.3836  -32.9355  -16.7315 N   0  0  0  0  0  0  0  0  0  0  0  0
   31.4429  -33.0496  -17.6727 C   0  0  1  0  0  0  0  0  0  0  0  0
   32.7884  -32.6316  -17.1614 C   0  0  0  0  0  0  0  0  0  0  0  0
   33.0268  -31.1769  -17.2748 C   0  0  0  0  0  0  0  0  0  0  0  0
   32.1735  -30.3299  -17.9519 C   0  0  0  0  0  0  0  0  0  0  0  0
   32.6370  -29.0917  -17.8879 N   0  0  0  0  0  0  0  0  0  0  0  0
   33.7821  -29.1373  -17.1744 C   0  0  0  0  0  0  0  0  0  0  0  0
   34.0185  -30.4133  -16.8005 N   0  0  0  0  0  0  0  0  0  0  0  0
   31.4930  -34.4001  -18.2907 C   0  0  0  0  0  0  0  0  0  0  0  0
   30.8960  -35.3348  -17.6984 O   0  0  0  0  0  0  0  0  0  0  0  0
   32.1662  -34.6834  -19.4906 N   0  0  0  0  0  0  0  0  0  0  0  0
   32.2276  -35.9936  -20.1026 C   0  0  1  0  0  0  0  0  0  0  0  0
   30.8117  -36.5012  -20.3364 C   0  0  0  0  0  0  0  0  0  0  0  0
   30.8953  -38.1048  -21.1391 S   0  0  0  0  0  0  0  0  0  0  0  0
   33.0070  -35.9612  -21.3711 C   0  0  0  0  0  0  0  0  0  0  0  0
   32.9937  -34.9616  -22.1276 O   0  0  0  0  0  0  0  0  0  0  0  0
   33.7849  -37.0444  -21.7696 O   0  0  0  0  0  0  0  0  0  0  0  0
  2  1  1  0
  3  2  2  0
  4  3  1  0
  5 11  1  0
  5  4  2  0
  6  5  1  0
  7  9  1  0
  7  6  1  0
  7  8  1  6
  9 10  2  0
 11 12  2  0
 12  2  1  0
 13 14  1  0
 13  9  1  0
 14 15  1  1
 16 15  1  0
 17 16  2  0
 18 19  1  0
 18 17  1  0
 19 20  2  0
 20 16  1  0
 21 22  2  0
 21 14  1  0
 23 21  1  0
 24 23  1  0
 24 27  1  0
 24 25  1  6
 26 25  1  0
 27 29  1  0
 28 27  2  0
M  END
$$$$
