YHC.pdb
     RDKit          3D

 29 30  0  0  1  0  0  0  0  0999 V2000
   21.8229  -30.3135  -21.1482 O   0  0  0  0  0  0  0  0  0  0  0  0
   22.1535  -30.8287  -19.8849 C   0  0  0  0  0  0  0  0  0  0  0  0
   23.4350  -30.7212  -19.4077 C   0  0  0  0  0  0  0  0  0  0  0  0
   23.7576  -31.2249  -18.1733 C   0  0  0  0  0  0  0  0  0  0  0  0
   22.8355  -31.8549  -17.3562 C   0  0  0  0  0  0  0  0  0  0  0  0
   23.2245  -32.3886  -16.0223 C   0  0  0  0  0  0  0  0  0  0  0  0
   23.8800  -33.7214  -16.2565 C   0  0  2  0  0  0  0  0  0  0  0  0
   22.8437  -34.6774  -16.5470 N   0  0  0  0  0  0  0  0  0  0  0  0
   24.7101  -34.1900  -15.1569 C   0  0  0  0  0  0  0  0  0  0  0  0
   24.1863  -34.9194  -14.2794 O   0  0  0  0  0  0  0  0  0  0  0  0
   21.5496  -31.9569  -17.8474 C   0  0  0  0  0  0  0  0  0  0  0  0
   21.2086  -31.4509  -19.0970 C   0  0  0  0  0  0  0  0  0  0  0  0
   26.0883  -33.8881  -14.9865 N   0  0  0  0  0  0  0  0  0  0  0  0
   26.9147  -34.3462  -13.9242 C   0  0  1  0  0  0  0  0  0  0  0  0
   28.3739  -34.4365  -14.2546 C   0  0  0  0  0  0  0  0  0  0  0  0
   28.6886  -35.5266  -15.2024 C   0  0  0  0  0  0  0  0  0  0  0  0
   27.7478  -36.4412  -15.6293 C   0  0  0  0  0  0  0  0  0  0  0  0
   28.3110  -37.2956  -16.4689 N   0  0  0  0  0  0  0  0  0  0  0  0
   29.6070  -36.9363  -16.5843 C   0  0  0  0  0  0  0  0  0  0  0  0
   29.8358  -35.8544  -15.8091 N   0  0  0  0  0  0  0  0  0  0  0  0
   26.6883  -33.5764  -12.6734 C   0  0  0  0  0  0  0  0  0  0  0  0
   26.1741  -32.4337  -12.7771 O   0  0  0  0  0  0  0  0  0  0  0  0
   27.0157  -34.0549  -11.3939 N   0  0  0  0  0  0  0  0  0  0  0  0
   26.7472  -33.3431  -10.1626 C   0  0  1  0  0  0  0  0  0  0  0  0
   25.2462  -33.1285  -10.0284 C   0  0  0  0  0  0  0  0  0  0  0  0
   24.9128  -32.3275   -8.4568 S   0  0  0  0  0  0  0  0  0  0  0  0
   27.2967  -34.0724   -8.9863 C   0  0  0  0  0  0  0  0  0  0  0  0
   27.6509  -33.4715   -7.9447 O   0  0  0  0  0  0  0  0  0  0  0  0
   27.4396  -35.4570   -8.9963 O   0  0  0  0  0  0  0  0  0  0  0  0
  2  1  1  0
  3  2  2  0
  4  3  1  0
  5 11  1  0
  5  4  2  0
  6  5  1  0
  7  9  1  0
  7  6  1  0
  7  8  1  1
  9 10  2  0
 11 12  2  0
 12  2  1  0
 13 14  1  0
 13  9  1  0
 14 15  1  6
 16 15  1  0
 17 16  2  0
 18 19  1  0
 18 17  1  0
 19 20  2  0
 20 16  1  0
 21 22  2  0
 21 14  1  0
 23 21  1  0
 24 23  1  0
 24 27  1  0
 24 25  1  1
 26 25  1  0
 27 29  1  0
 28 27  2  0
M  END
$$$$
