YHC.pdb
     RDKit          3D

 29 30  0  0  1  0  0  0  0  0999 V2000
   18.9836  -21.5369  -18.0221 O   0  0  0  0  0  0  0  0  0  0  0  0
   19.6517  -20.4292  -17.4768 C   0  0  0  0  0  0  0  0  0  0  0  0
   19.4639  -20.0864  -16.1620 C   0  0  0  0  0  0  0  0  0  0  0  0
   20.1168  -19.0040  -15.6296 C   0  0  0  0  0  0  0  0  0  0  0  0
   20.9812  -18.2131  -16.3660 C   0  0  0  0  0  0  0  0  0  0  0  0
   21.6714  -17.0461  -15.7521 C   0  0  0  0  0  0  0  0  0  0  0  0
   23.1241  -17.1476  -16.1270 C   0  0  2  0  0  0  0  0  0  0  0  0
   23.6590  -18.3292  -15.5026 N   0  0  0  0  0  0  0  0  0  0  0  0
   23.9228  -15.9824  -15.7780 C   0  0  0  0  0  0  0  0  0  0  0  0
   24.3111  -15.8559  -14.5908 O   0  0  0  0  0  0  0  0  0  0  0  0
   21.1618  -18.5681  -17.6876 C   0  0  0  0  0  0  0  0  0  0  0  0
   20.5064  -19.6629  -18.2404 C   0  0  0  0  0  0  0  0  0  0  0  0
   24.3091  -14.9554  -16.6813 N   0  0  0  0  0  0  0  0  0  0  0  0
   25.0454  -13.7865  -16.3456 C   0  0  1  0  0  0  0  0  0  0  0  0
   26.2650  -13.5473  -17.1835 C   0  0  0  0  0  0  0  0  0  0  0  0
   27.0007  -12.3229  -16.8023 C   0  0  0  0  0  0  0  0  0  0  0  0
   27.7388  -12.2252  -15.6406 C   0  0  0  0  0  0  0  0  0  0  0  0
   28.2837  -11.0214  -15.5630 N   0  0  0  0  0  0  0  0  0  0  0  0
   27.9008  -10.3451  -16.6667 C   0  0  0  0  0  0  0  0  0  0  0  0
   27.1163  -11.1428  -17.4231 N   0  0  0  0  0  0  0  0  0  0  0  0
   24.1785  -12.5807  -16.2929 C   0  0  0  0  0  0  0  0  0  0  0  0
   23.3472  -12.4191  -17.2223 O   0  0  0  0  0  0  0  0  0  0  0  0
   24.2391  -11.6216  -15.2683 N   0  0  0  0  0  0  0  0  0  0  0  0
   23.4679  -10.3970  -15.2496 C   0  0  1  0  0  0  0  0  0  0  0  0
   23.3885   -9.8800  -13.8201 C   0  0  0  0  0  0  0  0  0  0  0  0
   22.4084   -8.3761  -13.8006 S   0  0  0  0  0  0  0  0  0  0  0  0
   24.0532   -9.3762  -16.1622 C   0  0  0  0  0  0  0  0  0  0  0  0
   25.2927   -9.2339  -16.2836 O   0  0  0  0  0  0  0  0  0  0  0  0
   23.2437   -8.5354  -16.9206 O   0  0  0  0  0  0  0  0  0  0  0  0
  2  1  1  0
  3  2  2  0
  4  3  1  0
  5 11  1  0
  5  4  2  0
  6  5  1  0
  7  9  1  0
  7  6  1  0
  7  8  1  1
  9 10  2  0
 11 12  2  0
 12  2  1  0
 13 14  1  0
 13  9  1  0
 14 15  1  6
 16 15  1  0
 17 16  2  0
 18 19  1  0
 18 17  1  0
 19 20  2  0
 20 16  1  0
 21 22  2  0
 21 14  1  0
 23 21  1  0
 24 23  1  0
 24 27  1  0
 24 25  1  1
 26 25  1  0
 27 29  1  0
 28 27  2  0
M  END
$$$$
