FGD.pdb
     RDKit          3D

 24 24  0  0  1  0  0  0  0  0999 V2000
   25.0270  -28.6158  -16.7806 N   0  0  0  0  0  0  0  0  0  0  0  0
   26.2401  -27.8740  -16.5615 C   0  0  1  0  0  0  0  0  0  0  0  0
   27.4027  -28.5690  -17.2314 C   0  0  0  0  0  0  0  0  0  0  0  0
   27.5413  -29.9356  -16.7238 C   0  0  0  0  0  0  0  0  0  0  0  0
   28.2246  -30.1692  -15.5455 C   0  0  0  0  0  0  0  0  0  0  0  0
   28.3591  -31.4614  -15.0600 C   0  0  0  0  0  0  0  0  0  0  0  0
   27.7950  -32.5062  -15.7810 C   0  0  0  0  0  0  0  0  0  0  0  0
   27.1209  -32.2485  -16.9488 C   0  0  0  0  0  0  0  0  0  0  0  0
   26.9760  -30.9709  -17.4486 C   0  0  0  0  0  0  0  0  0  0  0  0
   26.1251  -26.4632  -17.0148 C   0  0  0  0  0  0  0  0  0  0  0  0
   25.7126  -26.2584  -18.1806 O   0  0  0  0  0  0  0  0  0  0  0  0
   26.4534  -25.3565  -16.2071 N   0  0  0  0  0  0  0  0  0  0  0  0
   26.2885  -23.9884  -16.5588 C   0  0  0  0  0  0  0  0  0  0  0  0
   24.9084  -23.5087  -16.6823 C   0  0  0  0  0  0  0  0  0  0  0  0
   24.7436  -22.2411  -16.7271 O   0  0  0  0  0  0  0  0  0  0  0  0
   23.7379  -24.2854  -16.7595 N   0  0  0  0  0  0  0  0  0  0  0  0
   22.4053  -23.7540  -16.9617 C   0  0  1  0  0  0  0  0  0  0  0  0
   21.4376  -24.7800  -17.4985 C   0  0  0  0  0  0  0  0  0  0  0  0
   20.9991  -25.7319  -16.4539 C   0  0  0  0  0  0  0  0  0  0  0  0
   21.3306  -25.5222  -15.2638 O   0  0  0  0  0  0  0  0  0  0  0  0
   21.9257  -23.2059  -15.6714 C   0  0  0  0  0  0  0  0  0  0  0  0
   20.8962  -22.2881  -15.6624 O   0  0  0  0  0  0  0  0  0  0  0  0
   20.2439  -26.8297  -16.7569 O   0  0  0  0  0  0  0  0  0  0  0  0
   22.4335  -23.5561  -14.5807 O   0  0  0  0  0  0  0  0  0  0  0  0
  2  1  1  6
  3  2  1  0
  4  9  2  0
  4  3  1  0
  5  4  1  0
  6  7  1  0
  6  5  2  0
  7  8  2  0
  8  9  1  0
 10  2  1  0
 10 12  1  0
 11 10  2  0
 13 12  1  0
 13 14  1  0
 14 16  1  0
 15 14  2  0
 16 17  1  0
 17 21  1  0
 17 18  1  1
 19 18  1  0
 20 19  2  0
 21 24  2  0
 21 22  1  0
 23 19  1  0
M  END
$$$$
