FGD.pdb
     RDKit          3D

 24 24  0  0  1  0  0  0  0  0999 V2000
   25.6954  -14.8374  -15.6694 N   0  0  0  0  0  0  0  0  0  0  0  0
   24.7127  -14.3988  -16.6244 C   0  0  1  0  0  0  0  0  0  0  0  0
   24.2886  -15.5537  -17.5016 C   0  0  0  0  0  0  0  0  0  0  0  0
   25.4467  -16.1167  -18.1991 C   0  0  0  0  0  0  0  0  0  0  0  0
   26.0597  -17.2558  -17.7128 C   0  0  0  0  0  0  0  0  0  0  0  0
   27.1568  -17.7935  -18.3692 C   0  0  0  0  0  0  0  0  0  0  0  0
   27.6204  -17.1643  -19.5176 C   0  0  0  0  0  0  0  0  0  0  0  0
   26.9943  -16.0339  -19.9809 C   0  0  0  0  0  0  0  0  0  0  0  0
   25.9021  -15.4834  -19.3429 C   0  0  0  0  0  0  0  0  0  0  0  0
   23.5393  -13.7627  -15.9705 C   0  0  0  0  0  0  0  0  0  0  0  0
   23.0400  -14.3440  -14.9786 O   0  0  0  0  0  0  0  0  0  0  0  0
   22.9668  -12.5514  -16.4062 N   0  0  0  0  0  0  0  0  0  0  0  0
   21.8323  -11.9115  -15.8352 C   0  0  0  0  0  0  0  0  0  0  0  0
   21.5273  -10.5642  -16.3271 C   0  0  0  0  0  0  0  0  0  0  0  0
   22.3373  -10.0696  -17.1845 O   0  0  0  0  0  0  0  0  0  0  0  0
   20.4398   -9.7485  -15.9645 N   0  0  0  0  0  0  0  0  0  0  0  0
   20.1445   -8.4566  -16.5501 C   0  0  1  0  0  0  0  0  0  0  0  0
   18.8111   -7.9025  -16.1116 C   0  0  0  0  0  0  0  0  0  0  0  0
   18.6187   -8.0076  -14.6481 C   0  0  0  0  0  0  0  0  0  0  0  0
   19.0770   -7.1053  -13.9092 O   0  0  0  0  0  0  0  0  0  0  0  0
   21.2414   -7.5263  -16.1940 C   0  0  0  0  0  0  0  0  0  0  0  0
   21.3309   -6.3050  -16.8286 O   0  0  0  0  0  0  0  0  0  0  0  0
   17.9550   -9.0621  -14.0871 O   0  0  0  0  0  0  0  0  0  0  0  0
   22.0957   -7.8211  -15.3260 O   0  0  0  0  0  0  0  0  0  0  0  0
  2  1  1  1
  3  2  1  0
  4  9  2  0
  4  3  1  0
  5  4  1  0
  6  7  1  0
  6  5  2  0
  7  8  2  0
  8  9  1  0
 10  2  1  0
 10 12  1  0
 11 10  2  0
 13 12  1  0
 13 14  1  0
 14 16  1  0
 15 14  2  0
 16 17  1  0
 17 21  1  0
 17 18  1  1
 19 18  1  0
 20 19  2  0
 21 24  2  0
 21 22  1  0
 23 19  1  0
M  END
$$$$
