FGD.pdb
     RDKit          3D

 24 24  0  0  1  0  0  0  0  0999 V2000
   28.0528  -21.4942   -8.4533 N   0  0  0  0  0  0  0  0  0  0  0  0
   26.7909  -20.8067   -8.3854 C   0  0  1  0  0  0  0  0  0  0  0  0
   26.9883  -19.4098   -7.8439 C   0  0  0  0  0  0  0  0  0  0  0  0
   27.6506  -19.4575   -6.5386 C   0  0  0  0  0  0  0  0  0  0  0  0
   29.0105  -19.2305   -6.4449 C   0  0  0  0  0  0  0  0  0  0  0  0
   29.6431  -19.2744   -5.2113 C   0  0  0  0  0  0  0  0  0  0  0  0
   28.8826  -19.5498   -4.0820 C   0  0  0  0  0  0  0  0  0  0  0  0
   27.5331  -19.7718   -4.2010 C   0  0  0  0  0  0  0  0  0  0  0  0
   26.8852  -19.7327   -5.4183 C   0  0  0  0  0  0  0  0  0  0  0  0
   26.0949  -20.7796   -9.6983 C   0  0  0  0  0  0  0  0  0  0  0  0
   24.9046  -20.3870   -9.7180 O   0  0  0  0  0  0  0  0  0  0  0  0
   26.7008  -21.1693  -10.9091 N   0  0  0  0  0  0  0  0  0  0  0  0
   26.0223  -21.6227  -12.0739 C   0  0  0  0  0  0  0  0  0  0  0  0
   24.8850  -20.8133  -12.5226 C   0  0  0  0  0  0  0  0  0  0  0  0
   24.8718  -19.5885  -12.1542 O   0  0  0  0  0  0  0  0  0  0  0  0
   23.8012  -21.2296  -13.3173 N   0  0  0  0  0  0  0  0  0  0  0  0
   22.7667  -20.3534  -13.8284 C   0  0  1  0  0  0  0  0  0  0  0  0
   22.0942  -20.8959  -15.0657 C   0  0  0  0  0  0  0  0  0  0  0  0
   21.7528  -22.3294  -14.9307 C   0  0  0  0  0  0  0  0  0  0  0  0
   21.9944  -22.9116  -13.8477 O   0  0  0  0  0  0  0  0  0  0  0  0
   21.7765  -20.1291  -12.7493 C   0  0  0  0  0  0  0  0  0  0  0  0
   21.8062  -20.9238  -11.6224 O   0  0  0  0  0  0  0  0  0  0  0  0
   21.1824  -23.0293  -15.9564 O   0  0  0  0  0  0  0  0  0  0  0  0
   20.9068  -19.2309  -12.8333 O   0  0  0  0  0  0  0  0  0  0  0  0
  2  1  1  6
  3  2  1  0
  4  9  2  0
  4  3  1  0
  5  4  1  0
  6  7  1  0
  6  5  2  0
  7  8  2  0
  8  9  1  0
 10  2  1  0
 10 12  1  0
 11 10  2  0
 13 12  1  0
 13 14  1  0
 14 16  1  0
 15 14  2  0
 16 17  1  0
 17 21  1  0
 17 18  1  6
 19 18  1  0
 20 19  2  0
 21 24  2  0
 21 22  1  0
 23 19  1  0
M  END
$$$$
