FGD.pdb
     RDKit          3D

 24 24  0  0  1  0  0  0  0  0999 V2000
   17.4146  -15.5077  -15.5570 N   0  0  0  0  0  0  0  0  0  0  0  0
   18.3167  -14.4896  -16.0257 C   0  0  1  0  0  0  0  0  0  0  0  0
   19.3416  -15.0924  -16.9582 C   0  0  0  0  0  0  0  0  0  0  0  0
   20.0268  -16.2117  -16.3083 C   0  0  0  0  0  0  0  0  0  0  0  0
   21.0718  -15.9702  -15.4368 C   0  0  0  0  0  0  0  0  0  0  0  0
   21.7244  -17.0263  -14.8185 C   0  0  0  0  0  0  0  0  0  0  0  0
   21.3055  -18.3217  -15.0943 C   0  0  0  0  0  0  0  0  0  0  0  0
   20.2650  -18.5357  -15.9637 C   0  0  0  0  0  0  0  0  0  0  0  0
   19.6029  -17.4994  -16.5888 C   0  0  0  0  0  0  0  0  0  0  0  0
   17.6005  -13.3600  -16.6738 C   0  0  0  0  0  0  0  0  0  0  0  0
   16.6184  -13.6353  -17.4025 O   0  0  0  0  0  0  0  0  0  0  0  0
   17.9672  -12.0095  -16.5112 N   0  0  0  0  0  0  0  0  0  0  0  0
   17.3048  -10.8897  -17.0856 C   0  0  0  0  0  0  0  0  0  0  0  0
   17.7616   -9.5669  -16.6481 C   0  0  0  0  0  0  0  0  0  0  0  0
   18.5881   -9.5393  -15.6724 O   0  0  0  0  0  0  0  0  0  0  0  0
   17.3956   -8.3175  -17.1814 N   0  0  0  0  0  0  0  0  0  0  0  0
   17.9557   -7.0466  -16.7685 C   0  0  1  0  0  0  0  0  0  0  0  0
   18.0850   -6.0631  -17.9057 C   0  0  0  0  0  0  0  0  0  0  0  0
   18.6976   -4.7879  -17.4718 C   0  0  0  0  0  0  0  0  0  0  0  0
   17.9523   -3.8184  -17.1982 O   0  0  0  0  0  0  0  0  0  0  0  0
   17.1016   -6.4934  -15.6916 C   0  0  0  0  0  0  0  0  0  0  0  0
   17.6893   -5.8957  -14.5962 O   0  0  0  0  0  0  0  0  0  0  0  0
   20.0522   -4.6446  -17.3634 O   0  0  0  0  0  0  0  0  0  0  0  0
   15.8514   -6.5542  -15.7494 O   0  0  0  0  0  0  0  0  0  0  0  0
  2  1  1  6
  3  2  1  0
  4  9  2  0
  4  3  1  0
  5  4  1  0
  6  7  1  0
  6  5  2  0
  7  8  2  0
  8  9  1  0
 10  2  1  0
 10 12  1  0
 11 10  2  0
 13 12  1  0
 13 14  1  0
 14 16  1  0
 15 14  2  0
 16 17  1  0
 17 21  1  0
 17 18  1  6
 19 18  1  0
 20 19  2  0
 21 24  2  0
 21 22  1  0
 23 19  1  0
M  END
$$$$
