FGD.pdb
     RDKit          3D

 24 24  0  0  1  0  0  0  0  0999 V2000
   28.7234  -21.7347   -8.7579 N   0  0  0  0  0  0  0  0  0  0  0  0
   27.5762  -20.8885   -8.9515 C   0  0  1  0  0  0  0  0  0  0  0  0
   27.8653  -19.4959   -8.4410 C   0  0  0  0  0  0  0  0  0  0  0  0
   28.1334  -19.5257   -7.0016 C   0  0  0  0  0  0  0  0  0  0  0  0
   29.3673  -19.1310   -6.5202 C   0  0  0  0  0  0  0  0  0  0  0  0
   29.6269  -19.1571   -5.1580 C   0  0  0  0  0  0  0  0  0  0  0  0
   28.6249  -19.5859   -4.2968 C   0  0  0  0  0  0  0  0  0  0  0  0
   27.4075  -19.9730   -4.7994 C   0  0  0  0  0  0  0  0  0  0  0  0
   27.1293  -19.9544   -6.1505 C   0  0  0  0  0  0  0  0  0  0  0  0
   27.1336  -20.8586  -10.3701 C   0  0  0  0  0  0  0  0  0  0  0  0
   28.0038  -21.0355  -11.2549 O   0  0  0  0  0  0  0  0  0  0  0  0
   25.7985  -20.6436  -10.7649 N   0  0  0  0  0  0  0  0  0  0  0  0
   25.3117  -20.6512  -12.1012 C   0  0  0  0  0  0  0  0  0  0  0  0
   23.9011  -20.2951  -12.2834 C   0  0  0  0  0  0  0  0  0  0  0  0
   23.2012  -20.1625  -11.2211 O   0  0  0  0  0  0  0  0  0  0  0  0
   23.2246  -20.0794  -13.4980 N   0  0  0  0  0  0  0  0  0  0  0  0
   21.8578  -19.6123  -13.6111 C   0  0  1  0  0  0  0  0  0  0  0  0
   21.5895  -18.8849  -14.9057 C   0  0  0  0  0  0  0  0  0  0  0  0
   20.2019  -18.3763  -14.9813 C   0  0  0  0  0  0  0  0  0  0  0  0
   19.6922  -18.1679  -16.1069 O   0  0  0  0  0  0  0  0  0  0  0  0
   20.9572  -20.7804  -13.4698 C   0  0  0  0  0  0  0  0  0  0  0  0
   19.9310  -20.7412  -12.5491 O   0  0  0  0  0  0  0  0  0  0  0  0
   19.4672  -18.1299  -13.8558 O   0  0  0  0  0  0  0  0  0  0  0  0
   21.1037  -21.8099  -14.1690 O   0  0  0  0  0  0  0  0  0  0  0  0
  2  1  1  6
  3  2  1  0
  4  9  2  0
  4  3  1  0
  5  4  1  0
  6  7  1  0
  6  5  2  0
  7  8  2  0
  8  9  1  0
 10  2  1  0
 10 12  1  0
 11 10  2  0
 13 12  1  0
 13 14  1  0
 14 16  1  0
 15 14  2  0
 16 17  1  0
 17 21  1  0
 17 18  1  6
 19 18  1  0
 20 19  2  0
 21 24  2  0
 21 22  1  0
 23 19  1  0
M  END
$$$$
