FGD.pdb
     RDKit          3D

 24 24  0  0  1  0  0  0  0  0999 V2000
   20.7557  -20.5177  -16.1173 N   0  0  0  0  0  0  0  0  0  0  0  0
   21.6916  -20.0673  -15.1218 C   0  0  1  0  0  0  0  0  0  0  0  0
   22.2464  -18.7147  -15.5040 C   0  0  0  0  0  0  0  0  0  0  0  0
   22.9709  -18.8008  -16.7738 C   0  0  0  0  0  0  0  0  0  0  0  0
   24.2076  -19.4155  -16.8236 C   0  0  0  0  0  0  0  0  0  0  0  0
   24.8984  -19.4999  -18.0233 C   0  0  0  0  0  0  0  0  0  0  0  0
   24.3215  -18.9560  -19.1639 C   0  0  0  0  0  0  0  0  0  0  0  0
   23.0919  -18.3504  -19.0888 C   0  0  0  0  0  0  0  0  0  0  0  0
   22.3888  -18.2561  -17.9056 C   0  0  0  0  0  0  0  0  0  0  0  0
   21.0930  -20.0367  -13.7617 C   0  0  0  0  0  0  0  0  0  0  0  0
   19.9658  -19.5034  -13.6339 O   0  0  0  0  0  0  0  0  0  0  0  0
   21.7236  -20.5719  -12.6212 N   0  0  0  0  0  0  0  0  0  0  0  0
   21.1913  -20.5857  -11.3024 C   0  0  0  0  0  0  0  0  0  0  0  0
   20.5050  -21.8138  -10.8891 C   0  0  0  0  0  0  0  0  0  0  0  0
   20.4824  -22.7712  -11.7368 O   0  0  0  0  0  0  0  0  0  0  0  0
   19.8665  -22.0632   -9.6605 N   0  0  0  0  0  0  0  0  0  0  0  0
   19.2353  -23.3155   -9.2965 C   0  0  1  0  0  0  0  0  0  0  0  0
   18.9118  -23.4058   -7.8253 C   0  0  0  0  0  0  0  0  0  0  0  0
   19.1051  -24.7740   -7.2957 C   0  0  0  0  0  0  0  0  0  0  0  0
   19.3884  -25.6988   -8.0922 O   0  0  0  0  0  0  0  0  0  0  0  0
   18.0086  -23.4691  -10.1132 C   0  0  0  0  0  0  0  0  0  0  0  0
   17.7528  -24.6722  -10.7373 O   0  0  0  0  0  0  0  0  0  0  0  0
   18.9819  -25.0500   -5.9631 O   0  0  0  0  0  0  0  0  0  0  0  0
   17.1917  -22.5293  -10.2532 O   0  0  0  0  0  0  0  0  0  0  0  0
  2  1  1  6
  3  2  1  0
  4  9  2  0
  4  3  1  0
  5  4  1  0
  6  7  1  0
  6  5  2  0
  7  8  2  0
  8  9  1  0
 10  2  1  0
 10 12  1  0
 11 10  2  0
 13 12  1  0
 13 14  1  0
 14 16  1  0
 15 14  2  0
 16 17  1  0
 17 21  1  0
 17 18  1  1
 19 18  1  0
 20 19  2  0
 21 24  2  0
 21 22  1  0
 23 19  1  0
M  END
$$$$
