FGD.pdb
     RDKit          3D

 24 24  0  0  1  0  0  0  0  0999 V2000
   24.6635  -32.2254    0.6458 N   0  0  0  0  0  0  0  0  0  0  0  0
   25.2487  -33.0325   -0.3915 C   0  0  1  0  0  0  0  0  0  0  0  0
   26.0730  -32.1699   -1.3186 C   0  0  0  0  0  0  0  0  0  0  0  0
   25.2343  -31.1429   -1.9403 C   0  0  0  0  0  0  0  0  0  0  0  0
   25.1264  -29.8937   -1.3591 C   0  0  0  0  0  0  0  0  0  0  0  0
   24.3336  -28.9172   -1.9434 C   0  0  0  0  0  0  0  0  0  0  0  0
   23.6564  -29.2229   -3.1171 C   0  0  0  0  0  0  0  0  0  0  0  0
   23.7797  -30.4711   -3.6751 C   0  0  0  0  0  0  0  0  0  0  0  0
   24.5630  -31.4560   -3.1099 C   0  0  0  0  0  0  0  0  0  0  0  0
   26.0558  -34.1534    0.1575 C   0  0  0  0  0  0  0  0  0  0  0  0
   27.0075  -33.8657    0.9209 O   0  0  0  0  0  0  0  0  0  0  0  0
   25.8064  -35.5088   -0.1349 N   0  0  0  0  0  0  0  0  0  0  0  0
   26.4520  -36.6247    0.4656 C   0  0  0  0  0  0  0  0  0  0  0  0
   27.7694  -36.9819   -0.0700 C   0  0  0  0  0  0  0  0  0  0  0  0
   28.2250  -36.2449   -1.0108 O   0  0  0  0  0  0  0  0  0  0  0  0
   28.5959  -38.0462    0.3344 N   0  0  0  0  0  0  0  0  0  0  0  0
   29.8757  -38.3713   -0.2618 C   0  0  1  0  0  0  0  0  0  0  0  0
   31.0241  -38.2564    0.7103 C   0  0  0  0  0  0  0  0  0  0  0  0
   30.7157  -38.8863    2.0133 C   0  0  0  0  0  0  0  0  0  0  0  0
   29.6348  -39.5058    2.1474 O   0  0  0  0  0  0  0  0  0  0  0  0
   29.7925  -39.7434   -0.8149 C   0  0  0  0  0  0  0  0  0  0  0  0
   28.7082  -40.5375   -0.5051 O   0  0  0  0  0  0  0  0  0  0  0  0
   31.5798  -38.8078    3.0690 O   0  0  0  0  0  0  0  0  0  0  0  0
   30.6867  -40.2050   -1.5616 O   0  0  0  0  0  0  0  0  0  0  0  0
  2  1  1  1
  3  2  1  0
  4  9  2  0
  4  3  1  0
  5  4  1  0
  6  7  1  0
  6  5  2  0
  7  8  2  0
  8  9  1  0
 10  2  1  0
 10 12  1  0
 11 10  2  0
 13 12  1  0
 13 14  1  0
 14 16  1  0
 15 14  2  0
 16 17  1  0
 17 21  1  0
 17 18  1  1
 19 18  1  0
 20 19  2  0
 21 24  2  0
 21 22  1  0
 23 19  1  0
M  END
$$$$
