FGD.pdb
     RDKit          3D

 24 24  0  0  1  0  0  0  0  0999 V2000
   22.6922   -8.8110  -18.1459 N   0  0  0  0  0  0  0  0  0  0  0  0
   22.9417   -9.6976  -17.0407 C   0  0  1  0  0  0  0  0  0  0  0  0
   23.6752   -8.9646  -15.9416 C   0  0  0  0  0  0  0  0  0  0  0  0
   25.0880   -9.3501  -15.9259 C   0  0  0  0  0  0  0  0  0  0  0  0
   25.5369  -10.2934  -15.0212 C   0  0  0  0  0  0  0  0  0  0  0  0
   26.8738  -10.6623  -15.0017 C   0  0  0  0  0  0  0  0  0  0  0  0
   27.7429  -10.0655  -15.9061 C   0  0  0  0  0  0  0  0  0  0  0  0
   27.2728   -9.1310  -16.7950 C   0  0  0  0  0  0  0  0  0  0  0  0
   25.9473   -8.7504  -16.8306 C   0  0  0  0  0  0  0  0  0  0  0  0
   21.6938  -10.3219  -16.5290 C   0  0  0  0  0  0  0  0  0  0  0  0
   21.7887  -11.0861  -15.5399 O   0  0  0  0  0  0  0  0  0  0  0  0
   20.4229  -10.0994  -17.0949 N   0  0  0  0  0  0  0  0  0  0  0  0
   19.3157   -9.4871  -16.4456 C   0  0  0  0  0  0  0  0  0  0  0  0
   19.2396   -8.0250  -16.5259 C   0  0  0  0  0  0  0  0  0  0  0  0
   19.7474   -7.4805  -17.5659 O   0  0  0  0  0  0  0  0  0  0  0  0
   18.6681   -7.1466  -15.5871 N   0  0  0  0  0  0  0  0  0  0  0  0
   18.5685   -5.7107  -15.7528 C   0  0  1  0  0  0  0  0  0  0  0  0
   17.2592   -5.1500  -15.2541 C   0  0  0  0  0  0  0  0  0  0  0  0
   16.9933   -3.7963  -15.7893 C   0  0  0  0  0  0  0  0  0  0  0  0
   17.8255   -3.2777  -16.5695 O   0  0  0  0  0  0  0  0  0  0  0  0
   19.7101   -5.0838  -15.0464 C   0  0  0  0  0  0  0  0  0  0  0  0
   20.5663   -5.8706  -14.3045 O   0  0  0  0  0  0  0  0  0  0  0  0
   15.8653   -3.1022  -15.4531 O   0  0  0  0  0  0  0  0  0  0  0  0
   19.9203   -3.8499  -15.1050 O   0  0  0  0  0  0  0  0  0  0  0  0
  2  1  1  6
  3  2  1  0
  4  9  2  0
  4  3  1  0
  5  4  1  0
  6  7  1  0
  6  5  2  0
  7  8  2  0
  8  9  1  0
 10  2  1  0
 10 12  1  0
 11 10  2  0
 13 12  1  0
 13 14  1  0
 14 16  1  0
 15 14  2  0
 16 17  1  0
 17 21  1  0
 17 18  1  1
 19 18  1  0
 20 19  2  0
 21 24  2  0
 21 22  1  0
 23 19  1  0
M  END
$$$$
