FGD.pdb
     RDKit          3D

 24 24  0  0  1  0  0  0  0  0999 V2000
   15.0916  -10.3989   -9.5414 N   0  0  0  0  0  0  0  0  0  0  0  0
   14.8084   -8.9886   -9.5145 C   0  0  1  0  0  0  0  0  0  0  0  0
   13.6652   -8.7059   -8.5678 C   0  0  0  0  0  0  0  0  0  0  0  0
   12.3940   -9.1220   -9.1642 C   0  0  0  0  0  0  0  0  0  0  0  0
   11.7943   -8.3370  -10.1305 C   0  0  0  0  0  0  0  0  0  0  0  0
   10.5904   -8.7260  -10.6989 C   0  0  0  0  0  0  0  0  0  0  0  0
   10.0073   -9.9139  -10.2765 C   0  0  0  0  0  0  0  0  0  0  0  0
   10.6226  -10.6764   -9.3150 C   0  0  0  0  0  0  0  0  0  0  0  0
   11.8198  -10.3072   -8.7375 C   0  0  0  0  0  0  0  0  0  0  0  0
   16.0067   -8.1820   -9.1645 C   0  0  0  0  0  0  0  0  0  0  0  0
   16.5873   -8.4412   -8.0842 O   0  0  0  0  0  0  0  0  0  0  0  0
   16.5166   -7.1514   -9.9785 N   0  0  0  0  0  0  0  0  0  0  0  0
   17.2119   -5.9965   -9.5252 C   0  0  0  0  0  0  0  0  0  0  0  0
   18.4023   -5.6103  -10.2893 C   0  0  0  0  0  0  0  0  0  0  0  0
   19.0185   -4.5597   -9.8990 O   0  0  0  0  0  0  0  0  0  0  0  0
   18.9495   -6.2662  -11.4072 N   0  0  0  0  0  0  0  0  0  0  0  0
   19.9141   -5.6828  -12.3174 C   0  0  1  0  0  0  0  0  0  0  0  0
   21.1333   -6.5491  -12.5176 C   0  0  0  0  0  0  0  0  0  0  0  0
   22.0937   -5.9474  -13.4692 C   0  0  0  0  0  0  0  0  0  0  0  0
   22.3439   -4.7225  -13.3861 O   0  0  0  0  0  0  0  0  0  0  0  0
   19.2347   -5.4275  -13.6091 C   0  0  0  0  0  0  0  0  0  0  0  0
   17.9676   -5.9290  -13.8225 O   0  0  0  0  0  0  0  0  0  0  0  0
   22.7110   -6.6948  -14.4323 O   0  0  0  0  0  0  0  0  0  0  0  0
   19.7837   -4.7637  -14.5192 O   0  0  0  0  0  0  0  0  0  0  0  0
  2  1  1  1
  3  2  1  0
  4  9  2  0
  4  3  1  0
  5  4  1  0
  6  7  1  0
  6  5  2  0
  7  8  2  0
  8  9  1  0
 10  2  1  0
 10 12  1  0
 11 10  2  0
 13 12  1  0
 13 14  1  0
 14 16  1  0
 15 14  2  0
 16 17  1  0
 17 21  1  0
 17 18  1  6
 19 18  1  0
 20 19  2  0
 21 24  2  0
 21 22  1  0
 23 19  1  0
M  END
$$$$
