FGD.pdb
     RDKit          3D

 24 24  0  0  1  0  0  0  0  0999 V2000
   24.3837  -17.2345  -15.9389 N   0  0  0  0  0  0  0  0  0  0  0  0
   25.1160  -18.1757  -15.1341 C   0  0  1  0  0  0  0  0  0  0  0  0
   26.2668  -17.4831  -14.4418 C   0  0  0  0  0  0  0  0  0  0  0  0
   27.1921  -16.9215  -15.4282 C   0  0  0  0  0  0  0  0  0  0  0  0
   27.9147  -17.7611  -16.2544 C   0  0  0  0  0  0  0  0  0  0  0  0
   28.7926  -17.2349  -17.1904 C   0  0  0  0  0  0  0  0  0  0  0  0
   28.9265  -15.8549  -17.2763 C   0  0  0  0  0  0  0  0  0  0  0  0
   28.1976  -15.0418  -16.4443 C   0  0  0  0  0  0  0  0  0  0  0  0
   27.3195  -15.5452  -15.5070 C   0  0  0  0  0  0  0  0  0  0  0  0
   24.2437  -18.8754  -14.1550 C   0  0  0  0  0  0  0  0  0  0  0  0
   23.6361  -18.1742  -13.3121 O   0  0  0  0  0  0  0  0  0  0  0  0
   24.0680  -20.2730  -14.1281 N   0  0  0  0  0  0  0  0  0  0  0  0
   23.2381  -20.9926  -13.2248 C   0  0  0  0  0  0  0  0  0  0  0  0
   21.8928  -21.3283  -13.7017 C   0  0  0  0  0  0  0  0  0  0  0  0
   21.5994  -20.9659  -14.8927 O   0  0  0  0  0  0  0  0  0  0  0  0
   20.8820  -22.0082  -12.9978 N   0  0  0  0  0  0  0  0  0  0  0  0
   19.6118  -22.4155  -13.5633 C   0  0  1  0  0  0  0  0  0  0  0  0
   19.0111  -23.6092  -12.8624 C   0  0  0  0  0  0  0  0  0  0  0  0
   17.7444  -24.0448  -13.4913 C   0  0  0  0  0  0  0  0  0  0  0  0
   16.6589  -23.6399  -13.0139 O   0  0  0  0  0  0  0  0  0  0  0  0
   18.6895  -21.2572  -13.5095 C   0  0  0  0  0  0  0  0  0  0  0  0
   18.7492  -20.3887  -12.4397 O   0  0  0  0  0  0  0  0  0  0  0  0
   17.7322  -24.8753  -14.5764 O   0  0  0  0  0  0  0  0  0  0  0  0
   17.8509  -21.0437  -14.4158 O   0  0  0  0  0  0  0  0  0  0  0  0
  2  1  1  1
  3  2  1  0
  4  9  2  0
  4  3  1  0
  5  4  1  0
  6  7  1  0
  6  5  2  0
  7  8  2  0
  8  9  1  0
 10  2  1  0
 10 12  1  0
 11 10  2  0
 13 12  1  0
 13 14  1  0
 14 16  1  0
 15 14  2  0
 16 17  1  0
 17 21  1  0
 17 18  1  1
 19 18  1  0
 20 19  2  0
 21 24  2  0
 21 22  1  0
 23 19  1  0
M  END
$$$$
