NPP.pdb
     RDKit          3D

 23 24  0  0  1  0  0  0  0  0999 V2000
    9.4904  -18.6819   28.0206 N   0  0  0  0  0  0  0  0  0  0  0  0
    9.4387  -19.0078   26.6475 C   0  0  0  0  0  0  0  0  0  0  0  0
    9.8256  -20.1807   26.3123 O   0  0  0  0  0  0  0  0  0  0  0  0
    8.9572  -18.0079   25.6738 C   0  0  0  0  0  0  0  0  0  0  0  0
    7.4274  -17.9221   25.6842 C   0  0  2  0  0  0  0  0  0  0  0  0
    6.8291  -19.1972   25.7813 N   0  0  0  0  0  0  0  0  0  0  0  0
    6.9467  -17.0545   24.5980 C   0  0  0  0  0  0  0  0  0  0  0  0
    6.3977  -17.7333   23.6430 O   0  0  0  0  0  0  0  0  0  0  0  0
    7.0028  -15.6583   24.4730 N   0  0  0  0  0  0  0  0  0  0  0  0
    6.5860  -14.7093   25.5272 C   0  0  0  0  0  0  0  0  0  0  0  0
    7.6379  -13.5899   25.4266 C   0  0  0  0  0  0  0  0  0  0  0  0
    8.5230  -14.0103   24.2429 C   0  0  0  0  0  0  0  0  0  0  0  0
    7.4247  -14.7562   23.4453 C   0  0  1  0  0  0  0  0  0  0  0  0
    7.8621  -15.2083   22.1696 C   0  0  0  0  0  0  0  0  0  0  0  0
    7.9390  -16.3813   21.6965 O   0  0  0  0  0  0  0  0  0  0  0  0
    8.2965  -14.1831   21.2315 N   0  0  0  0  0  0  0  0  0  0  0  0
    8.3685  -12.7556   21.4391 C   0  0  0  0  0  0  0  0  0  0  0  0
    8.0498  -12.1293   20.0910 C   0  0  0  0  0  0  0  0  0  0  0  0
    8.0488  -13.2751   19.1099 C   0  0  0  0  0  0  0  0  0  0  0  0
    8.7528  -14.3754   19.8644 C   0  0  1  0  0  0  0  0  0  0  0  0
   10.2137  -14.1578   19.7442 C   0  0  0  0  0  0  0  0  0  0  0  0
   10.8294  -14.5740   18.7354 O   0  0  0  0  0  0  0  0  0  0  0  0
   10.9508  -13.4997   20.7171 O   0  0  0  0  0  0  0  0  0  0  0  0
  2  1  1  0
  3  2  2  0
  4  5  1  0
  4  2  1  0
  5  6  1  6
  7  9  1  0
  7  5  1  0
  8  7  2  0
  9 13  1  0
 10 11  1  0
 10  9  1  0
 11 12  1  0
 12 13  1  0
 13 14  1  6
 14 16  1  0
 15 14  2  0
 16 20  1  0
 16 17  1  0
 17 18  1  0
 19 18  1  0
 20 19  1  0
 21 23  1  0
 20 21  1  1
 22 21  2  0
M  END
$$$$
