NPP.pdb
     RDKit          3D

 23 24  0  0  1  0  0  0  0  0999 V2000
    9.2976  -20.0961   21.5855 N   0  0  0  0  0  0  0  0  0  0  0  0
    9.7874  -18.7750   21.4907 C   0  0  0  0  0  0  0  0  0  0  0  0
    9.9492  -18.2968   20.3148 O   0  0  0  0  0  0  0  0  0  0  0  0
   10.0911  -18.0152   22.7196 C   0  0  0  0  0  0  0  0  0  0  0  0
   10.5240  -16.5832   22.3884 C   0  0  2  0  0  0  0  0  0  0  0  0
   10.8745  -15.8576   23.5477 N   0  0  0  0  0  0  0  0  0  0  0  0
    9.5578  -15.9429   21.4827 C   0  0  0  0  0  0  0  0  0  0  0  0
    9.5977  -16.4519   20.2938 O   0  0  0  0  0  0  0  0  0  0  0  0
    8.6454  -14.9068   21.7311 N   0  0  0  0  0  0  0  0  0  0  0  0
    7.9147  -14.1688   20.6789 C   0  0  0  0  0  0  0  0  0  0  0  0
    6.5188  -13.9687   21.2963 C   0  0  0  0  0  0  0  0  0  0  0  0
    6.6386  -14.5763   22.7026 C   0  0  0  0  0  0  0  0  0  0  0  0
    8.1425  -14.2699   22.9099 C   0  0  1  0  0  0  0  0  0  0  0  0
    8.6117  -14.6003   24.2113 C   0  0  0  0  0  0  0  0  0  0  0  0
    9.6450  -15.2380   24.5740 O   0  0  0  0  0  0  0  0  0  0  0  0
    7.7977  -14.1459   25.3297 N   0  0  0  0  0  0  0  0  0  0  0  0
    6.5382  -13.4402   25.2885 C   0  0  0  0  0  0  0  0  0  0  0  0
    6.5435  -12.5225   26.5006 C   0  0  0  0  0  0  0  0  0  0  0  0
    7.7398  -12.9464   27.3158 C   0  0  0  0  0  0  0  0  0  0  0  0
    8.0817  -14.3011   26.7472 C   0  0  1  0  0  0  0  0  0  0  0  0
    7.1888  -15.3046   27.3729 C   0  0  0  0  0  0  0  0  0  0  0  0
    6.0821  -15.5729   26.8499 O   0  0  0  0  0  0  0  0  0  0  0  0
    7.5261  -15.9781   28.5371 O   0  0  0  0  0  0  0  0  0  0  0  0
  2  1  1  0
  3  2  2  0
  4  5  1  0
  4  2  1  0
  5  6  1  1
  7  9  1  0
  7  5  1  0
  8  7  2  0
  9 13  1  0
 10 11  1  0
 10  9  1  0
 11 12  1  0
 12 13  1  0
 13 14  1  1
 14 16  1  0
 15 14  2  0
 16 20  1  0
 16 17  1  0
 17 18  1  0
 19 18  1  0
 20 19  1  0
 21 23  1  0
 20 21  1  1
 22 21  2  0
M  END
$$$$
