NPP.pdb
     RDKit          3D

 23 24  0  0  1  0  0  0  0  0999 V2000
    7.3214  -21.4832   24.6050 N   0  0  0  0  0  0  0  0  0  0  0  0
    6.5740  -20.8900   25.6460 C   0  0  0  0  0  0  0  0  0  0  0  0
    5.9247  -21.6772   26.4183 O   0  0  0  0  0  0  0  0  0  0  0  0
    6.5657  -19.4217   25.7985 C   0  0  0  0  0  0  0  0  0  0  0  0
    7.4275  -18.7518   24.7232 C   0  0  2  0  0  0  0  0  0  0  0  0
    8.7526  -18.5443   25.1642 N   0  0  0  0  0  0  0  0  0  0  0  0
    6.7367  -17.5845   24.1540 C   0  0  0  0  0  0  0  0  0  0  0  0
    5.6705  -17.9224   23.5035 O   0  0  0  0  0  0  0  0  0  0  0  0
    7.0680  -16.2232   24.2247 N   0  0  0  0  0  0  0  0  0  0  0  0
    7.1412  -15.4468   25.4807 C   0  0  0  0  0  0  0  0  0  0  0  0
    8.3576  -14.5305   25.2558 C   0  0  0  0  0  0  0  0  0  0  0  0
    8.8120  -14.8529   23.8237 C   0  0  0  0  0  0  0  0  0  0  0  0
    7.4156  -15.2210   23.2640 C   0  0  1  0  0  0  0  0  0  0  0  0
    7.4179  -15.4775   21.8650 C   0  0  0  0  0  0  0  0  0  0  0  0
    6.9621  -16.4620   21.2103 O   0  0  0  0  0  0  0  0  0  0  0  0
    8.0339  -14.4642   21.0203 N   0  0  0  0  0  0  0  0  0  0  0  0
    8.5625  -13.1778   21.4100 C   0  0  0  0  0  0  0  0  0  0  0  0
    8.2975  -12.2528   20.2329 C   0  0  0  0  0  0  0  0  0  0  0  0
    7.8331  -13.1534   19.1155 C   0  0  0  0  0  0  0  0  0  0  0  0
    8.2489  -14.5258   19.5836 C   0  0  1  0  0  0  0  0  0  0  0  0
    9.6822  -14.7119   19.2568 C   0  0  0  0  0  0  0  0  0  0  0  0
   10.5602  -14.4493   20.1114 O   0  0  0  0  0  0  0  0  0  0  0  0
   10.1101  -15.1741   18.0214 O   0  0  0  0  0  0  0  0  0  0  0  0
  2  1  1  0
  3  2  2  0
  4  5  1  0
  4  2  1  0
  5  6  1  1
  7  9  1  0
  7  5  1  0
  8  7  2  0
  9 13  1  0
 10 11  1  0
 10  9  1  0
 11 12  1  0
 12 13  1  0
 13 14  1  6
 14 16  1  0
 15 14  2  0
 16 20  1  0
 16 17  1  0
 17 18  1  0
 19 18  1  0
 20 19  1  0
 21 23  1  0
 20 21  1  1
 22 21  2  0
M  END
$$$$
