NPP.pdb
     RDKit          3D

 23 24  0  0  1  0  0  0  0  0999 V2000
   10.5970  -17.2895   27.0839 N   0  0  0  0  0  0  0  0  0  0  0  0
   10.6377  -17.9391   25.8306 C   0  0  0  0  0  0  0  0  0  0  0  0
   11.7847  -18.3182   25.4082 O   0  0  0  0  0  0  0  0  0  0  0  0
    9.3889  -18.1475   25.0714 C   0  0  0  0  0  0  0  0  0  0  0  0
    8.1797  -17.6078   25.8422 C   0  0  2  0  0  0  0  0  0  0  0  0
    7.5213  -18.6243   26.5679 N   0  0  0  0  0  0  0  0  0  0  0  0
    7.3364  -16.7741   24.9718 C   0  0  0  0  0  0  0  0  0  0  0  0
    6.6774  -17.4827   24.1130 O   0  0  0  0  0  0  0  0  0  0  0  0
    7.1633  -15.3820   24.9564 N   0  0  0  0  0  0  0  0  0  0  0  0
    7.1904  -14.5249   26.1606 C   0  0  0  0  0  0  0  0  0  0  0  0
    7.9295  -13.2642   25.6768 C   0  0  0  0  0  0  0  0  0  0  0  0
    8.1876  -13.5284   24.1852 C   0  0  0  0  0  0  0  0  0  0  0  0
    6.9376  -14.4073   23.9331 C   0  0  1  0  0  0  0  0  0  0  0  0
    6.7654  -14.7652   22.5673 C   0  0  0  0  0  0  0  0  0  0  0  0
    5.9716  -15.5939   22.0297 O   0  0  0  0  0  0  0  0  0  0  0  0
    7.6224  -14.0869   21.6055 N   0  0  0  0  0  0  0  0  0  0  0  0
    8.3912  -12.8784   21.7912 C   0  0  0  0  0  0  0  0  0  0  0  0
    8.3859  -12.1784   20.4417 C   0  0  0  0  0  0  0  0  0  0  0  0
    7.7971  -13.1776   19.4772 C   0  0  0  0  0  0  0  0  0  0  0  0
    7.8898  -14.4806   20.2316 C   0  0  1  0  0  0  0  0  0  0  0  0
    9.2656  -15.0086   20.0762 C   0  0  0  0  0  0  0  0  0  0  0  0
    9.5938  -15.6060   19.0247 O   0  0  0  0  0  0  0  0  0  0  0  0
   10.2316  -14.8705   21.0615 O   0  0  0  0  0  0  0  0  0  0  0  0
  2  1  1  0
  3  2  2  0
  4  5  1  0
  4  2  1  0
  5  6  1  6
  7  9  1  0
  7  5  1  0
  8  7  2  0
  9 13  1  0
 10 11  1  0
 10  9  1  0
 11 12  1  0
 12 13  1  0
 13 14  1  6
 14 16  1  0
 15 14  2  0
 16 20  1  0
 16 17  1  0
 17 18  1  0
 19 18  1  0
 20 19  1  0
 21 23  1  0
 20 21  1  1
 22 21  2  0
M  END
$$$$
