NPP.pdb
     RDKit          3D

 23 24  0  0  1  0  0  0  0  0999 V2000
   11.8562  -19.7875   21.7203 N   0  0  0  0  0  0  0  0  0  0  0  0
   11.0719  -18.7105   22.1883 C   0  0  0  0  0  0  0  0  0  0  0  0
   11.4018  -18.1950   23.3122 O   0  0  0  0  0  0  0  0  0  0  0  0
    9.9273  -18.2339   21.3869 C   0  0  0  0  0  0  0  0  0  0  0  0
   10.2330  -16.8775   20.7431 C   0  0  2  0  0  0  0  0  0  0  0  0
   11.5183  -16.8494   20.1595 N   0  0  0  0  0  0  0  0  0  0  0  0
    9.9085  -15.7781   21.6649 C   0  0  0  0  0  0  0  0  0  0  0  0
   10.9315  -15.4213   22.3722 O   0  0  0  0  0  0  0  0  0  0  0  0
    8.6957  -15.1013   21.8629 N   0  0  0  0  0  0  0  0  0  0  0  0
    7.8417  -14.5842   20.7725 C   0  0  0  0  0  0  0  0  0  0  0  0
    6.4162  -14.8713   21.2779 C   0  0  0  0  0  0  0  0  0  0  0  0
    6.6268  -15.4779   22.6739 C   0  0  0  0  0  0  0  0  0  0  0  0
    7.9333  -14.7178   23.0116 C   0  0  1  0  0  0  0  0  0  0  0  0
    8.3918  -14.9453   24.3387 C   0  0  0  0  0  0  0  0  0  0  0  0
    9.3164  -15.6968   24.7702 O   0  0  0  0  0  0  0  0  0  0  0  0
    7.7116  -14.2101   25.3954 N   0  0  0  0  0  0  0  0  0  0  0  0
    6.5875  -13.3111   25.2766 C   0  0  0  0  0  0  0  0  0  0  0  0
    6.7957  -12.2518   26.3470 C   0  0  0  0  0  0  0  0  0  0  0  0
    7.9363  -12.7598   27.1935 C   0  0  0  0  0  0  0  0  0  0  0  0
    8.0230  -14.2176   26.8157 C   0  0  1  0  0  0  0  0  0  0  0  0
    7.0008  -14.9585   27.5915 C   0  0  0  0  0  0  0  0  0  0  0  0
    5.8599  -15.1460   27.1083 O   0  0  0  0  0  0  0  0  0  0  0  0
    7.2509  -15.4673   28.8570 O   0  0  0  0  0  0  0  0  0  0  0  0
  2  1  1  0
  3  2  2  0
  4  5  1  0
  4  2  1  0
  5  6  1  1
  7  9  1  0
  7  5  1  0
  8  7  2  0
  9 13  1  0
 10 11  1  0
 10  9  1  0
 11 12  1  0
 12 13  1  0
 13 14  1  1
 14 16  1  0
 15 14  2  0
 16 20  1  0
 16 17  1  0
 17 18  1  0
 19 18  1  0
 20 19  1  0
 21 23  1  0
 20 21  1  1
 22 21  2  0
M  END
$$$$
