NPP.pdb
     RDKit          3D

 23 24  0  0  1  0  0  0  0  0999 V2000
   11.3336  -18.8725   21.4854 N   0  0  0  0  0  0  0  0  0  0  0  0
    9.9613  -19.1711   21.3370 C   0  0  0  0  0  0  0  0  0  0  0  0
    9.5675  -20.3184   21.7449 O   0  0  0  0  0  0  0  0  0  0  0  0
    9.0558  -18.1764   20.7286 C   0  0  0  0  0  0  0  0  0  0  0  0
    9.8088  -16.8893   20.3766 C   0  0  2  0  0  0  0  0  0  0  0  0
   11.0792  -17.1575   19.8218 N   0  0  0  0  0  0  0  0  0  0  0  0
    9.7723  -15.9402   21.4997 C   0  0  0  0  0  0  0  0  0  0  0  0
   10.9253  -15.8268   22.0756 O   0  0  0  0  0  0  0  0  0  0  0  0
    8.7033  -15.1808   21.9985 N   0  0  0  0  0  0  0  0  0  0  0  0
    7.7115  -14.4817   21.1539 C   0  0  0  0  0  0  0  0  0  0  0  0
    6.3918  -14.6893   21.9188 C   0  0  0  0  0  0  0  0  0  0  0  0
    6.8077  -15.4500   23.1875 C   0  0  0  0  0  0  0  0  0  0  0  0
    8.2297  -14.8482   23.3073 C   0  0  1  0  0  0  0  0  0  0  0  0
    8.9144  -15.2486   24.4879 C   0  0  0  0  0  0  0  0  0  0  0  0
    9.7396  -16.1913   24.6785 O   0  0  0  0  0  0  0  0  0  0  0  0
    8.6482  -14.4694   25.6886 N   0  0  0  0  0  0  0  0  0  0  0  0
    7.5733  -13.5346   25.9262 C   0  0  0  0  0  0  0  0  0  0  0  0
    8.1564  -12.4619   26.8321 C   0  0  0  0  0  0  0  0  0  0  0  0
    9.5015  -12.9920   27.2622 C   0  0  0  0  0  0  0  0  0  0  0  0
    9.4185  -14.4593   26.9218 C   0  0  1  0  0  0  0  0  0  0  0  0
    8.6977  -15.1487   28.0176 C   0  0  0  0  0  0  0  0  0  0  0  0
    9.2738  -15.3655   29.1091 O   0  0  0  0  0  0  0  0  0  0  0  0
    7.3844  -15.5759   27.8916 O   0  0  0  0  0  0  0  0  0  0  0  0
  2  1  1  0
  3  2  2  0
  4  5  1  0
  4  2  1  0
  5  6  1  1
  7  9  1  0
  7  5  1  0
  8  7  2  0
  9 13  1  0
 10 11  1  0
 10  9  1  0
 11 12  1  0
 12 13  1  0
 13 14  1  1
 14 16  1  0
 15 14  2  0
 16 20  1  0
 16 17  1  0
 17 18  1  0
 19 18  1  0
 20 19  1  0
 21 23  1  0
 20 21  1  1
 22 21  2  0
M  END
$$$$
