VGS.pdb
     RDKit          3D

 18 17  0  0  1  0  0  0  0  0999 V2000
   18.9646  -13.6712  -16.9661 C   0  0  0  0  0  0  0  0  0  0  0  0
   18.9016  -12.4893  -16.0325 C   0  0  1  0  0  0  0  0  0  0  0  0
   20.2392  -11.9897  -15.6001 C   0  0  0  0  0  0  0  0  0  0  0  0
   18.0040  -11.3949  -16.5553 C   0  0  2  0  0  0  0  0  0  0  0  0
   18.4397  -10.9472  -17.8535 N   0  0  0  0  0  0  0  0  0  0  0  0
   17.8367  -10.2684  -15.6482 C   0  0  0  0  0  0  0  0  0  0  0  0
   17.2790  -10.4354  -14.5341 O   0  0  0  0  0  0  0  0  0  0  0  0
   18.3009   -8.9812  -16.0163 N   0  0  0  0  0  0  0  0  0  0  0  0
   18.3159   -7.8458  -15.1531 C   0  0  0  0  0  0  0  0  0  0  0  0
   19.6204   -7.4816  -14.5980 C   0  0  0  0  0  0  0  0  0  0  0  0
   20.3880   -8.4364  -14.2741 O   0  0  0  0  0  0  0  0  0  0  0  0
   23.6355   -5.9479  -15.2965 O   0  0  0  0  0  0  0  0  0  0  0  0
   22.2971   -6.2696  -15.5073 C   0  0  0  0  0  0  0  0  0  0  0  0
   21.5334   -5.8757  -14.2822 C   0  0  2  0  0  0  0  0  0  0  0  0
   20.1174   -6.1760  -14.3857 N   0  0  0  0  0  0  0  0  0  0  0  0
   21.7507   -4.4308  -13.9662 C   0  0  0  0  0  0  0  0  0  0  0  0
   22.7147   -4.1094  -13.0211 O   0  0  0  0  0  0  0  0  0  0  0  0
   21.1039   -3.5234  -14.5160 O   0  0  0  0  0  0  0  0  0  0  0  0
  2  1  1  6
  2  3  1  0
  4  2  1  0
  4  5  1  6
  6  8  1  0
  6  4  1  0
  7  6  2  0
  9  8  1  0
 10 15  1  0
 10  9  1  0
 11 10  2  0
 13 12  1  0
 14 13  1  6
 14 15  1  0
 16 17  1  0
 16 14  1  0
 18 16  2  0
M  END
$$$$
