VGS.pdb
     RDKit          3D

 18 17  0  0  1  0  0  0  0  0999 V2000
   24.1670  -14.6798  -14.7170 C   0  0  0  0  0  0  0  0  0  0  0  0
   24.0261  -13.4369  -15.5584 C   0  0  1  0  0  0  0  0  0  0  0  0
   24.9280  -13.4069  -16.7463 C   0  0  0  0  0  0  0  0  0  0  0  0
   22.5874  -13.1393  -15.9023 C   0  0  2  0  0  0  0  0  0  0  0  0
   21.9947  -14.2326  -16.6298 N   0  0  0  0  0  0  0  0  0  0  0  0
   22.3840  -11.8798  -16.6037 C   0  0  0  0  0  0  0  0  0  0  0  0
   22.1453  -11.8784  -17.8378 O   0  0  0  0  0  0  0  0  0  0  0  0
   22.4541  -10.6521  -15.8996 N   0  0  0  0  0  0  0  0  0  0  0  0
   22.2459   -9.3677  -16.4841 C   0  0  0  0  0  0  0  0  0  0  0  0
   22.4771   -8.2201  -15.6055 C   0  0  0  0  0  0  0  0  0  0  0  0
   22.7967   -8.4763  -14.4063 O   0  0  0  0  0  0  0  0  0  0  0  0
   22.9445   -4.5982  -16.9946 O   0  0  0  0  0  0  0  0  0  0  0  0
   22.6120   -4.4295  -15.6530 C   0  0  0  0  0  0  0  0  0  0  0  0
   22.6200   -5.7790  -15.0063 C   0  0  2  0  0  0  0  0  0  0  0  0
   22.3837   -6.8535  -15.9526 N   0  0  0  0  0  0  0  0  0  0  0  0
   21.6361   -5.8319  -13.8821 C   0  0  0  0  0  0  0  0  0  0  0  0
   21.9628   -5.1814  -12.7006 O   0  0  0  0  0  0  0  0  0  0  0  0
   20.5516   -6.4315  -13.9729 O   0  0  0  0  0  0  0  0  0  0  0  0
  2  1  1  6
  2  3  1  0
  4  2  1  0
  4  5  1  6
  6  8  1  0
  6  4  1  0
  7  6  2  0
  9  8  1  0
 10 15  1  0
 10  9  1  0
 11 10  2  0
 13 12  1  0
 14 13  1  6
 14 15  1  0
 16 17  1  0
 16 14  1  0
 18 16  2  0
M  END
$$$$
