VGS.pdb
     RDKit          3D

 18 17  0  0  1  0  0  0  0  0999 V2000
   19.2785  -12.6097  -18.1104 C   0  0  0  0  0  0  0  0  0  0  0  0
   18.3533  -13.3024  -17.1425 C   0  0  1  0  0  0  0  0  0  0  0  0
   18.4037  -14.7914  -17.2201 C   0  0  0  0  0  0  0  0  0  0  0  0
   18.5028  -12.7796  -15.7350 C   0  0  2  0  0  0  0  0  0  0  0  0
   17.7044  -13.5465  -14.8129 N   0  0  0  0  0  0  0  0  0  0  0  0
   18.2369  -11.3555  -15.5901 C   0  0  0  0  0  0  0  0  0  0  0  0
   17.0520  -10.9372  -15.5554 O   0  0  0  0  0  0  0  0  0  0  0  0
   19.3105  -10.4364  -15.4879 N   0  0  0  0  0  0  0  0  0  0  0  0
   19.1687   -9.0171  -15.5032 C   0  0  0  0  0  0  0  0  0  0  0  0
   20.3706   -8.2507  -15.1709 C   0  0  0  0  0  0  0  0  0  0  0  0
   21.3874   -8.9146  -14.8089 O   0  0  0  0  0  0  0  0  0  0  0  0
   21.0783   -4.2777  -16.0539 O   0  0  0  0  0  0  0  0  0  0  0  0
   22.1547   -5.1439  -15.8808 C   0  0  0  0  0  0  0  0  0  0  0  0
   21.7571   -6.1712  -14.8679 C   0  0  2  0  0  0  0  0  0  0  0  0
   20.5195   -6.8461  -15.2125 N   0  0  0  0  0  0  0  0  0  0  0  0
   21.6720   -5.5636  -13.5048 C   0  0  0  0  0  0  0  0  0  0  0  0
   22.8542   -5.1747  -12.8908 O   0  0  0  0  0  0  0  0  0  0  0  0
   20.5911   -5.3991  -12.9144 O   0  0  0  0  0  0  0  0  0  0  0  0
  2  1  1  6
  2  3  1  0
  4  2  1  0
  4  5  1  1
  6  8  1  0
  6  4  1  0
  7  6  2  0
  9  8  1  0
 10 15  1  0
 10  9  1  0
 11 10  2  0
 13 12  1  0
 14 13  1  6
 14 15  1  0
 16 17  1  0
 16 14  1  0
 18 16  2  0
M  END
$$$$
