VGS.pdb
     RDKit          3D

 18 17  0  0  1  0  0  0  0  0999 V2000
   12.1957   -9.0678   -9.4888 C   0  0  0  0  0  0  0  0  0  0  0  0
   13.3157   -8.0596   -9.4491 C   0  0  1  0  0  0  0  0  0  0  0  0
   13.5344   -7.4531   -8.1038 C   0  0  0  0  0  0  0  0  0  0  0  0
   14.5844   -8.5896  -10.0706 C   0  0  2  0  0  0  0  0  0  0  0  0
   15.0670   -9.7422   -9.3535 N   0  0  0  0  0  0  0  0  0  0  0  0
   15.6387   -7.5976  -10.2263 C   0  0  0  0  0  0  0  0  0  0  0  0
   15.5084   -6.6669  -11.0611 O   0  0  0  0  0  0  0  0  0  0  0  0
   16.8143   -7.6767   -9.4391 N   0  0  0  0  0  0  0  0  0  0  0  0
   17.8834   -6.7333   -9.4790 C   0  0  0  0  0  0  0  0  0  0  0  0
   18.9272   -6.9911  -10.4722 C   0  0  0  0  0  0  0  0  0  0  0  0
   19.3206   -8.1903  -10.5866 O   0  0  0  0  0  0  0  0  0  0  0  0
   19.7736   -8.5924  -13.0520 O   0  0  0  0  0  0  0  0  0  0  0  0
   19.6424   -7.2636  -13.4469 C   0  0  0  0  0  0  0  0  0  0  0  0
   20.3721   -6.4165  -12.4522 C   0  0  2  0  0  0  0  0  0  0  0  0
   19.5435   -6.0440  -11.3206 N   0  0  0  0  0  0  0  0  0  0  0  0
   20.9496   -5.2059  -13.1122 C   0  0  0  0  0  0  0  0  0  0  0  0
   22.1714   -5.3369  -13.7571 O   0  0  0  0  0  0  0  0  0  0  0  0
   20.3771   -4.1031  -13.1006 O   0  0  0  0  0  0  0  0  0  0  0  0
  2  1  1  1
  2  3  1  0
  4  2  1  0
  4  5  1  1
  6  8  1  0
  6  4  1  0
  7  6  2  0
  9  8  1  0
 10 15  1  0
 10  9  1  0
 11 10  2  0
 13 12  1  0
 14 13  1  6
 14 15  1  0
 16 17  1  0
 16 14  1  0
 18 16  2  0
M  END
$$$$
