FAG.pdb
     RDKit          3D

 21 21  0  0  1  0  0  0  0  0999 V2000
   25.4499  -20.6734   -7.0831 N   0  0  0  0  0  0  0  0  0  0  0  0
   26.3245  -20.2161   -8.1395 C   0  0  1  0  0  0  0  0  0  0  0  0
   27.7457  -20.5720   -7.7814 C   0  0  0  0  0  0  0  0  0  0  0  0
   28.0393  -19.9631   -6.4557 C   0  0  0  0  0  0  0  0  0  0  0  0
   28.0508  -18.5865   -6.2801 C   0  0  0  0  0  0  0  0  0  0  0  0
   28.3235  -18.0564   -5.0521 C   0  0  0  0  0  0  0  0  0  0  0  0
   28.5910  -18.8532   -3.9672 C   0  0  0  0  0  0  0  0  0  0  0  0
   28.5818  -20.2327   -4.1328 C   0  0  0  0  0  0  0  0  0  0  0  0
   28.3043  -20.7736   -5.3828 C   0  0  0  0  0  0  0  0  0  0  0  0
   25.8812  -20.8166   -9.4032 C   0  0  0  0  0  0  0  0  0  0  0  0
   25.9270  -22.0580   -9.6050 O   0  0  0  0  0  0  0  0  0  0  0  0
   23.5766  -20.0251  -12.0978 C   0  0  0  0  0  0  0  0  0  0  0  0
   24.9325  -20.6469  -11.7318 C   0  0  2  0  0  0  0  0  0  0  0  0
   25.3657  -20.0322  -10.4947 N   0  0  0  0  0  0  0  0  0  0  0  0
   25.8668  -20.2369  -12.8085 C   0  0  0  0  0  0  0  0  0  0  0  0
   25.7953  -20.8201  -13.9165 O   0  0  0  0  0  0  0  0  0  0  0  0
   26.8342  -19.2073  -12.6183 N   0  0  0  0  0  0  0  0  0  0  0  0
   27.6487  -18.8405  -13.7577 C   0  0  0  0  0  0  0  0  0  0  0  0
   27.0935  -17.6344  -14.4159 C   0  0  0  0  0  0  0  0  0  0  0  0
   25.8703  -17.3790  -14.4032 O   0  0  0  0  0  0  0  0  0  0  0  0
   27.9222  -16.7299  -15.0810 O   0  0  0  0  0  0  0  0  0  0  0  0
  2  1  1  1
  2  3  1  0
  3  4  1  0
  4  5  2  0
  5  6  1  0
  7  6  2  0
  8  7  1  0
  9  4  1  0
  9  8  2  0
 10 14  1  0
 10  2  1  0
 11 10  2  0
 13 12  1  6
 13 14  1  0
 15 13  1  0
 15 17  1  0
 16 15  2  0
 18 17  1  0
 18 19  1  0
 19 21  1  0
 20 19  2  0
M  END
$$$$
