FAG.pdb
     RDKit          3D

 21 21  0  0  1  0  0  0  0  0999 V2000
   24.2402   -8.2164  -18.7074 N   0  0  0  0  0  0  0  0  0  0  0  0
   23.5589   -7.6047  -17.5886 C   0  0  1  0  0  0  0  0  0  0  0  0
   24.5888   -7.0358  -16.6450 C   0  0  0  0  0  0  0  0  0  0  0  0
   25.3455   -8.1790  -16.0663 C   0  0  0  0  0  0  0  0  0  0  0  0
   26.6445   -8.4608  -16.4651 C   0  0  0  0  0  0  0  0  0  0  0  0
   27.3142   -9.5163  -15.9165 C   0  0  0  0  0  0  0  0  0  0  0  0
   26.7355  -10.3215  -14.9678 C   0  0  0  0  0  0  0  0  0  0  0  0
   25.4352  -10.0476  -14.5619 C   0  0  0  0  0  0  0  0  0  0  0  0
   24.7523   -8.9731  -15.1197 C   0  0  0  0  0  0  0  0  0  0  0  0
   22.6304   -6.5926  -18.1062 C   0  0  0  0  0  0  0  0  0  0  0  0
   22.9312   -5.8410  -19.0698 O   0  0  0  0  0  0  0  0  0  0  0  0
   18.9777   -5.8805  -17.7400 C   0  0  0  0  0  0  0  0  0  0  0  0
   20.3960   -5.4272  -18.1167 C   0  0  2  0  0  0  0  0  0  0  0  0
   21.3178   -6.3896  -17.5511 N   0  0  0  0  0  0  0  0  0  0  0  0
   20.5987   -4.1280  -17.4300 C   0  0  0  0  0  0  0  0  0  0  0  0
   20.9546   -4.1364  -16.2275 O   0  0  0  0  0  0  0  0  0  0  0  0
   20.4014   -2.8827  -18.0951 N   0  0  0  0  0  0  0  0  0  0  0  0
   20.5011   -1.6788  -17.2971 C   0  0  0  0  0  0  0  0  0  0  0  0
   21.8699   -1.1178  -17.3869 C   0  0  0  0  0  0  0  0  0  0  0  0
   22.0800    0.0532  -17.7692 O   0  0  0  0  0  0  0  0  0  0  0  0
   22.9862   -1.8822  -17.0453 O   0  0  0  0  0  0  0  0  0  0  0  0
  2  1  1  6
  2  3  1  0
  3  4  1  0
  4  5  2  0
  5  6  1  0
  7  6  2  0
  8  7  1  0
  9  4  1  0
  9  8  2  0
 10 14  1  0
 10  2  1  0
 11 10  2  0
 13 12  1  1
 13 14  1  0
 15 13  1  0
 15 17  1  0
 16 15  2  0
 18 17  1  0
 18 19  1  0
 19 21  1  0
 20 19  2  0
M  END
$$$$
