FAG.pdb
     RDKit          3D

 21 21  0  0  1  0  0  0  0  0999 V2000
   28.4337  -21.3615   -8.9658 N   0  0  0  0  0  0  0  0  0  0  0  0
   27.0997  -20.8048   -8.9869 C   0  0  1  0  0  0  0  0  0  0  0  0
   27.1169  -19.4758   -8.2740 C   0  0  0  0  0  0  0  0  0  0  0  0
   27.5990  -19.7178   -6.8872 C   0  0  0  0  0  0  0  0  0  0  0  0
   26.8265  -20.4094   -5.9647 C   0  0  0  0  0  0  0  0  0  0  0  0
   27.2949  -20.6163   -4.6993 C   0  0  0  0  0  0  0  0  0  0  0  0
   28.5252  -20.1554   -4.3027 C   0  0  0  0  0  0  0  0  0  0  0  0
   29.3061  -19.4618   -5.2190 C   0  0  0  0  0  0  0  0  0  0  0  0
   28.8302  -19.2505   -6.5077 C   0  0  0  0  0  0  0  0  0  0  0  0
   26.6596  -20.7038  -10.3834 C   0  0  0  0  0  0  0  0  0  0  0  0
   27.4768  -20.6571  -11.3394 O   0  0  0  0  0  0  0  0  0  0  0  0
   25.1833  -21.9192  -12.7944 C   0  0  0  0  0  0  0  0  0  0  0  0
   24.8591  -20.5674  -12.1415 C   0  0  2  0  0  0  0  0  0  0  0  0
   25.2700  -20.6514  -10.7558 N   0  0  0  0  0  0  0  0  0  0  0  0
   23.3814  -20.4447  -12.1830 C   0  0  0  0  0  0  0  0  0  0  0  0
   22.8238  -20.3093  -13.2982 O   0  0  0  0  0  0  0  0  0  0  0  0
   22.5867  -20.4763  -11.0000 N   0  0  0  0  0  0  0  0  0  0  0  0
   21.1935  -20.1023  -11.1238 C   0  0  0  0  0  0  0  0  0  0  0  0
   20.3971  -21.2522  -11.6134 C   0  0  0  0  0  0  0  0  0  0  0  0
   20.8094  -22.4283  -11.5212 O   0  0  0  0  0  0  0  0  0  0  0  0
   19.1456  -21.0643  -12.2013 O   0  0  0  0  0  0  0  0  0  0  0  0
  2  1  1  6
  2  3  1  0
  3  4  1  0
  4  5  2  0
  5  6  1  0
  7  6  2  0
  8  7  1  0
  9  4  1  0
  9  8  2  0
 10 14  1  0
 10  2  1  0
 11 10  2  0
 13 12  1  6
 13 14  1  0
 15 13  1  0
 15 17  1  0
 16 15  2  0
 18 17  1  0
 18 19  1  0
 19 21  1  0
 20 19  2  0
M  END
$$$$
