FAG.pdb
     RDKit          3D

 21 21  0  0  1  0  0  0  0  0999 V2000
   27.7609  -20.3293  -15.1817 N   0  0  0  0  0  0  0  0  0  0  0  0
   26.9867  -19.6030  -14.2003 C   0  0  1  0  0  0  0  0  0  0  0  0
   25.9439  -18.7813  -14.9158 C   0  0  0  0  0  0  0  0  0  0  0  0
   26.6143  -17.5562  -15.4298 C   0  0  0  0  0  0  0  0  0  0  0  0
   26.9090  -16.4893  -14.5927 C   0  0  0  0  0  0  0  0  0  0  0  0
   27.5247  -15.3782  -15.0924 C   0  0  0  0  0  0  0  0  0  0  0  0
   27.8676  -15.2797  -16.4176 C   0  0  0  0  0  0  0  0  0  0  0  0
   27.5768  -16.3427  -17.2638 C   0  0  0  0  0  0  0  0  0  0  0  0
   26.9499  -17.4746  -16.7561 C   0  0  0  0  0  0  0  0  0  0  0  0
   26.4115  -20.5673  -13.2551 C   0  0  0  0  0  0  0  0  0  0  0  0
   26.1087  -21.7396  -13.5984 O   0  0  0  0  0  0  0  0  0  0  0  0
   25.8370  -20.7384   -9.5478 C   0  0  0  0  0  0  0  0  0  0  0  0
   25.5138  -21.1825  -10.9821 C   0  0  2  0  0  0  0  0  0  0  0  0
   26.1548  -20.2417  -11.8765 N   0  0  0  0  0  0  0  0  0  0  0  0
   24.0447  -21.0368  -11.1268 C   0  0  0  0  0  0  0  0  0  0  0  0
   23.2999  -21.7500  -10.4131 O   0  0  0  0  0  0  0  0  0  0  0  0
   23.4634  -20.1162  -12.0469 N   0  0  0  0  0  0  0  0  0  0  0  0
   22.0196  -20.0094  -12.0594 C   0  0  0  0  0  0  0  0  0  0  0  0
   21.4489  -20.9146  -13.0847 C   0  0  0  0  0  0  0  0  0  0  0  0
   21.5912  -22.1546  -13.0239 O   0  0  0  0  0  0  0  0  0  0  0  0
   20.7248  -20.4126  -14.1668 O   0  0  0  0  0  0  0  0  0  0  0  0
  2  1  1  6
  2  3  1  0
  3  4  1  0
  4  5  2  0
  5  6  1  0
  7  6  2  0
  8  7  1  0
  9  4  1  0
  9  8  2  0
 10 14  1  0
 10  2  1  0
 11 10  2  0
 13 12  1  1
 13 14  1  0
 15 13  1  0
 15 17  1  0
 16 15  2  0
 18 17  1  0
 18 19  1  0
 19 21  1  0
 20 19  2  0
M  END
$$$$
