FAG.pdb
     RDKit          3D

 21 21  0  0  1  0  0  0  0  0999 V2000
   28.7824  -22.4716  -12.9081 N   0  0  0  0  0  0  0  0  0  0  0  0
   28.0999  -21.8850  -11.7768 C   0  0  1  0  0  0  0  0  0  0  0  0
   28.8729  -20.6738  -11.3180 C   0  0  0  0  0  0  0  0  0  0  0  0
   29.9410  -21.1471  -10.3964 C   0  0  0  0  0  0  0  0  0  0  0  0
   29.7036  -21.3087   -9.0386 C   0  0  0  0  0  0  0  0  0  0  0  0
   30.7029  -21.7445   -8.2171 C   0  0  0  0  0  0  0  0  0  0  0  0
   31.9556  -22.0330   -8.6976 C   0  0  0  0  0  0  0  0  0  0  0  0
   32.2032  -21.8744  -10.0556 C   0  0  0  0  0  0  0  0  0  0  0  0
   31.1865  -21.4307  -10.8930 C   0  0  0  0  0  0  0  0  0  0  0  0
   26.7224  -21.5722  -12.1754 C   0  0  0  0  0  0  0  0  0  0  0  0
   26.2594  -21.9069  -13.2968 O   0  0  0  0  0  0  0  0  0  0  0  0
   23.8547  -20.5229   -9.9624 C   0  0  0  0  0  0  0  0  0  0  0  0
   24.4316  -21.2832  -11.1657 C   0  0  2  0  0  0  0  0  0  0  0  0
   25.8092  -20.8646  -11.3165 N   0  0  0  0  0  0  0  0  0  0  0  0
   23.6680  -20.8081  -12.3454 C   0  0  0  0  0  0  0  0  0  0  0  0
   22.4590  -21.1268  -12.4430 O   0  0  0  0  0  0  0  0  0  0  0  0
   24.2670  -20.0067  -13.3608 N   0  0  0  0  0  0  0  0  0  0  0  0
   23.4245  -19.5868  -14.4608 C   0  0  0  0  0  0  0  0  0  0  0  0
   22.4780  -18.5398  -14.0090 C   0  0  0  0  0  0  0  0  0  0  0  0
   21.8422  -18.6418  -12.9380 O   0  0  0  0  0  0  0  0  0  0  0  0
   22.2584  -17.3900  -14.7686 O   0  0  0  0  0  0  0  0  0  0  0  0
  2  1  1  6
  2  3  1  0
  3  4  1  0
  4  5  2  0
  5  6  1  0
  7  6  2  0
  8  7  1  0
  9  4  1  0
  9  8  2  0
 10 14  1  0
 10  2  1  0
 11 10  2  0
 13 12  1  1
 13 14  1  0
 15 13  1  0
 15 17  1  0
 16 15  2  0
 18 17  1  0
 18 19  1  0
 19 21  1  0
 20 19  2  0
M  END
$$$$
