FAG.pdb
     RDKit          3D

 21 21  0  0  1  0  0  0  0  0999 V2000
   22.9979   -8.7673  -17.6812 N   0  0  0  0  0  0  0  0  0  0  0  0
   22.5779   -8.1704  -16.4332 C   0  0  1  0  0  0  0  0  0  0  0  0
   23.7482   -7.4363  -15.8280 C   0  0  0  0  0  0  0  0  0  0  0  0
   24.8489   -8.4211  -15.6463 C   0  0  0  0  0  0  0  0  0  0  0  0
   26.0351   -8.3178  -16.3591 C   0  0  0  0  0  0  0  0  0  0  0  0
   27.0275   -9.2361  -16.1716 C   0  0  0  0  0  0  0  0  0  0  0  0
   26.8886  -10.2757  -15.2865 C   0  0  0  0  0  0  0  0  0  0  0  0
   25.7046  -10.3878  -14.5680 C   0  0  0  0  0  0  0  0  0  0  0  0
   24.6934   -9.4533  -14.7581 C   0  0  0  0  0  0  0  0  0  0  0  0
   21.4265   -7.2997  -16.6983 C   0  0  0  0  0  0  0  0  0  0  0  0
   21.2939   -6.6803  -17.7858 O   0  0  0  0  0  0  0  0  0  0  0  0
   18.0284   -6.8523  -15.2777 C   0  0  0  0  0  0  0  0  0  0  0  0
   19.2262   -6.2636  -16.0375 C   0  0  2  0  0  0  0  0  0  0  0  0
   20.3736   -7.0942  -15.7383 N   0  0  0  0  0  0  0  0  0  0  0  0
   19.4558   -4.9215  -15.4489 C   0  0  0  0  0  0  0  0  0  0  0  0
   18.5049   -4.1039  -15.4353 O   0  0  0  0  0  0  0  0  0  0  0  0
   20.7167   -4.5409  -14.9037 N   0  0  0  0  0  0  0  0  0  0  0  0
   20.8513   -3.1817  -14.4235 C   0  0  0  0  0  0  0  0  0  0  0  0
   21.2740   -2.2887  -15.5281 C   0  0  0  0  0  0  0  0  0  0  0  0
   21.3763   -2.6967  -16.7049 O   0  0  0  0  0  0  0  0  0  0  0  0
   21.5768   -0.9467  -15.2948 O   0  0  0  0  0  0  0  0  0  0  0  0
  2  1  1  6
  2  3  1  0
  3  4  1  0
  4  5  2  0
  5  6  1  0
  7  6  2  0
  8  7  1  0
  9  4  1  0
  9  8  2  0
 10 14  1  0
 10  2  1  0
 11 10  2  0
 13 12  1  1
 13 14  1  0
 15 13  1  0
 15 17  1  0
 16 15  2  0
 18 17  1  0
 18 19  1  0
 19 21  1  0
 20 19  2  0
M  END
$$$$
