FAG.pdb
     RDKit          3D

 21 21  0  0  1  0  0  0  0  0999 V2000
   27.7336  -21.0608  -16.1361 N   0  0  0  0  0  0  0  0  0  0  0  0
   26.6917  -20.4633  -15.3315 C   0  0  1  0  0  0  0  0  0  0  0  0
   25.3922  -20.5274  -16.0942 C   0  0  0  0  0  0  0  0  0  0  0  0
   25.4728  -19.5352  -17.2004 C   0  0  0  0  0  0  0  0  0  0  0  0
   25.2815  -19.9109  -18.5226 C   0  0  0  0  0  0  0  0  0  0  0  0
   25.3615  -18.9787  -19.5165 C   0  0  0  0  0  0  0  0  0  0  0  0
   25.6295  -17.6600  -19.2468 C   0  0  0  0  0  0  0  0  0  0  0  0
   25.8226  -17.2739  -17.9261 C   0  0  0  0  0  0  0  0  0  0  0  0
   25.7414  -18.2223  -16.9133 C   0  0  0  0  0  0  0  0  0  0  0  0
   26.6388  -21.1646  -14.0433 C   0  0  0  0  0  0  0  0  0  0  0  0
   26.9705  -22.3730  -13.9267 O   0  0  0  0  0  0  0  0  0  0  0  0
   26.2294  -20.1985  -10.4493 C   0  0  0  0  0  0  0  0  0  0  0  0
   26.1421  -21.2409  -11.5737 C   0  0  2  0  0  0  0  0  0  0  0  0
   26.2061  -20.5231  -12.8293 N   0  0  0  0  0  0  0  0  0  0  0  0
   24.7952  -21.8507  -11.4533 C   0  0  0  0  0  0  0  0  0  0  0  0
   24.5335  -22.5248  -10.4286 O   0  0  0  0  0  0  0  0  0  0  0  0
   23.8007  -21.6920  -12.4621 N   0  0  0  0  0  0  0  0  0  0  0  0
   22.4718  -22.1870  -12.1704 C   0  0  0  0  0  0  0  0  0  0  0  0
   21.4651  -21.1295  -12.4244 C   0  0  0  0  0  0  0  0  0  0  0  0
   20.6770  -21.1865  -13.3926 O   0  0  0  0  0  0  0  0  0  0  0  0
   21.3577  -20.0198  -11.5851 O   0  0  0  0  0  0  0  0  0  0  0  0
  2  1  1  6
  2  3  1  0
  3  4  1  0
  4  5  2  0
  5  6  1  0
  7  6  2  0
  8  7  1  0
  9  4  1  0
  9  8  2  0
 10 14  1  0
 10  2  1  0
 11 10  2  0
 13 12  1  1
 13 14  1  0
 15 13  1  0
 15 17  1  0
 16 15  2  0
 18 17  1  0
 18 19  1  0
 19 21  1  0
 20 19  2  0
M  END
$$$$
