IAE.pdb
     RDKit          3D

 23 22  0  0  1  0  0  0  0  0999 V2000
   16.3042  -10.4609  -19.5692 C   0  0  0  0  0  0  0  0  0  0  0  0
   17.2174  -11.2521  -18.6908 C   0  0  0  0  0  0  0  0  0  0  0  0
   17.9448  -10.4538  -17.6489 C   0  0  2  0  0  0  0  0  0  0  0  0
   18.9385   -9.5685  -18.4097 C   0  0  0  0  0  0  0  0  0  0  0  0
   18.7212  -11.3033  -16.6904 C   0  0  2  0  0  0  0  0  0  0  0  0
   17.9542  -12.3050  -16.0056 N   0  0  0  0  0  0  0  0  0  0  0  0
   19.3669  -10.4264  -15.6857 C   0  0  0  0  0  0  0  0  0  0  0  0
   18.6404   -9.7278  -14.9283 O   0  0  0  0  0  0  0  0  0  0  0  0
   22.8332   -9.8507  -14.2372 C   0  0  0  0  0  0  0  0  0  0  0  0
   21.4254   -9.4850  -14.5979 C   0  0  2  0  0  0  0  0  0  0  0  0
   20.7822  -10.3407  -15.5426 N   0  0  0  0  0  0  0  0  0  0  0  0
   21.3801   -8.0667  -15.1249 C   0  0  0  0  0  0  0  0  0  0  0  0
   21.6135   -7.8803  -16.3385 O   0  0  0  0  0  0  0  0  0  0  0  0
   21.0839   -7.0260  -14.2345 N   0  0  0  0  0  0  0  0  0  0  0  0
   21.1266   -5.6125  -14.6362 C   0  0  1  0  0  0  0  0  0  0  0  0
   19.7696   -5.0181  -14.5961 C   0  0  0  0  0  0  0  0  0  0  0  0
   18.8620   -5.3647  -15.7315 C   0  0  0  0  0  0  0  0  0  0  0  0
   17.4937   -4.8160  -15.5335 C   0  0  0  0  0  0  0  0  0  0  0  0
   16.5359   -5.5802  -15.2585 O   0  0  0  0  0  0  0  0  0  0  0  0
   22.1683   -4.9008  -13.8645 C   0  0  0  0  0  0  0  0  0  0  0  0
   22.7647   -3.7181  -14.2424 O   0  0  0  0  0  0  0  0  0  0  0  0
   17.1961   -3.4440  -15.6358 O   0  0  0  0  0  0  0  0  0  0  0  0
   22.5536   -5.4121  -12.7616 O   0  0  0  0  0  0  0  0  0  0  0  0
  1  2  1  0
  2  3  1  0
  3  4  1  6
  3  5  1  0
  5  7  1  0
  5  6  1  1
  7  8  2  0
 10  9  1  6
 10 12  1  0
 11 10  1  0
 11  7  1  0
 12 13  2  0
 12 14  1  0
 14 15  1  0
 15 16  1  1
 16 17  1  0
 18 22  1  0
 18 17  1  0
 19 18  2  0
 20 15  1  0
 20 21  1  0
 23 20  2  0
M  END
$$$$
