IAE.pdb
     RDKit          3D

 23 22  0  0  1  0  0  0  0  0999 V2000
   27.4920  -15.6103  -16.0835 C   0  0  0  0  0  0  0  0  0  0  0  0
   26.0857  -15.3106  -15.6785 C   0  0  0  0  0  0  0  0  0  0  0  0
   25.5721  -13.9694  -16.1135 C   0  0  2  0  0  0  0  0  0  0  0  0
   26.4630  -12.9298  -15.4239 C   0  0  0  0  0  0  0  0  0  0  0  0
   24.1563  -13.7160  -15.6958 C   0  0  2  0  0  0  0  0  0  0  0  0
   23.2149  -14.7246  -16.0920 N   0  0  0  0  0  0  0  0  0  0  0  0
   23.7192  -12.4118  -16.2466 C   0  0  0  0  0  0  0  0  0  0  0  0
   24.3486  -11.3694  -15.9200 O   0  0  0  0  0  0  0  0  0  0  0  0
   21.0401  -11.0953  -18.6365 C   0  0  0  0  0  0  0  0  0  0  0  0
   22.0822  -11.0339  -17.5613 C   0  0  2  0  0  0  0  0  0  0  0  0
   22.6104  -12.2894  -17.1335 N   0  0  0  0  0  0  0  0  0  0  0  0
   21.5338  -10.3059  -16.3529 C   0  0  0  0  0  0  0  0  0  0  0  0
   21.0667  -10.9873  -15.4151 O   0  0  0  0  0  0  0  0  0  0  0  0
   21.5682   -8.9051  -16.3369 N   0  0  0  0  0  0  0  0  0  0  0  0
   21.0946   -8.1208  -15.1873 C   0  0  1  0  0  0  0  0  0  0  0  0
   21.8753   -6.8682  -15.0537 C   0  0  0  0  0  0  0  0  0  0  0  0
   21.5135   -5.9827  -13.9056 C   0  0  0  0  0  0  0  0  0  0  0  0
   22.2858   -4.7116  -13.9224 C   0  0  0  0  0  0  0  0  0  0  0  0
   23.3224   -4.6066  -14.6233 O   0  0  0  0  0  0  0  0  0  0  0  0
   19.6255   -7.9639  -15.2554 C   0  0  0  0  0  0  0  0  0  0  0  0
   18.7880   -7.8675  -14.1661 O   0  0  0  0  0  0  0  0  0  0  0  0
   21.9114   -3.5776  -13.1771 O   0  0  0  0  0  0  0  0  0  0  0  0
   19.0795   -7.9133  -16.4067 O   0  0  0  0  0  0  0  0  0  0  0  0
  1  2  1  0
  2  3  1  0
  3  4  1  1
  3  5  1  0
  5  7  1  0
  5  6  1  6
  7  8  2  0
 10  9  1  6
 10 12  1  0
 11 10  1  0
 11  7  1  0
 12 13  2  0
 12 14  1  0
 14 15  1  0
 15 16  1  6
 16 17  1  0
 18 22  1  0
 18 17  1  0
 19 18  2  0
 20 15  1  0
 20 21  1  0
 23 20  2  0
M  END
$$$$
