IAE.pdb
     RDKit          3D

 23 22  0  0  1  0  0  0  0  0999 V2000
   26.8567  -11.8175  -15.0615 C   0  0  0  0  0  0  0  0  0  0  0  0
   27.3790  -11.2107  -16.3227 C   0  0  0  0  0  0  0  0  0  0  0  0
   26.7002   -9.9405  -16.7443 C   0  0  2  0  0  0  0  0  0  0  0  0
   25.2392  -10.3121  -17.0225 C   0  0  0  0  0  0  0  0  0  0  0  0
   27.2747   -9.3520  -17.9960 C   0  0  2  0  0  0  0  0  0  0  0  0
   28.6650   -9.0025  -17.9221 N   0  0  0  0  0  0  0  0  0  0  0  0
   26.4972   -8.1443  -18.3597 C   0  0  0  0  0  0  0  0  0  0  0  0
   26.5208   -7.1477  -17.5879 O   0  0  0  0  0  0  0  0  0  0  0  0
   24.4515   -6.9030  -21.3378 C   0  0  0  0  0  0  0  0  0  0  0  0
   24.9978   -6.8977  -19.9423 C   0  0  2  0  0  0  0  0  0  0  0  0
   25.7201   -8.0656  -19.5518 N   0  0  0  0  0  0  0  0  0  0  0  0
   23.8768   -6.6714  -18.9507 C   0  0  0  0  0  0  0  0  0  0  0  0
   23.2776   -7.6710  -18.4992 O   0  0  0  0  0  0  0  0  0  0  0  0
   23.5556   -5.3575  -18.5846 N   0  0  0  0  0  0  0  0  0  0  0  0
   22.4275   -5.0431  -17.6961 C   0  0  1  0  0  0  0  0  0  0  0  0
   22.7713   -5.3520  -16.2880 C   0  0  0  0  0  0  0  0  0  0  0  0
   21.7183   -5.0556  -15.2699 C   0  0  0  0  0  0  0  0  0  0  0  0
   21.2470   -6.2895  -14.5860 C   0  0  0  0  0  0  0  0  0  0  0  0
   20.0214   -6.5583  -14.5325 O   0  0  0  0  0  0  0  0  0  0  0  0
   21.9471   -3.6692  -17.9588 C   0  0  0  0  0  0  0  0  0  0  0  0
   20.7503   -3.1504  -17.5163 O   0  0  0  0  0  0  0  0  0  0  0  0
   22.1210   -7.2090  -13.9760 O   0  0  0  0  0  0  0  0  0  0  0  0
   22.6895   -2.8947  -18.6483 O   0  0  0  0  0  0  0  0  0  0  0  0
  1  2  1  0
  2  3  1  0
  3  4  1  6
  3  5  1  0
  5  7  1  0
  5  6  1  1
  7  8  2  0
 10  9  1  6
 10 12  1  0
 11 10  1  0
 11  7  1  0
 12 13  2  0
 12 14  1  0
 14 15  1  0
 15 16  1  1
 16 17  1  0
 18 22  1  0
 18 17  1  0
 19 18  2  0
 20 15  1  0
 20 21  1  0
 23 20  2  0
M  END
$$$$
