IAE.pdb
     RDKit          3D

 23 22  0  0  1  0  0  0  0  0999 V2000
   28.8334  -20.1528   -4.1565 C   0  0  0  0  0  0  0  0  0  0  0  0
   27.4912  -20.0956   -4.8100 C   0  0  0  0  0  0  0  0  0  0  0  0
   27.5182  -19.9874   -6.3065 C   0  0  2  0  0  0  0  0  0  0  0  0
   28.1432  -18.6237   -6.6222 C   0  0  0  0  0  0  0  0  0  0  0  0
   26.1549  -20.0263   -6.9255 C   0  0  2  0  0  0  0  0  0  0  0  0
   25.3709  -21.1836   -6.5990 N   0  0  0  0  0  0  0  0  0  0  0  0
   26.2936  -19.9433   -8.3982 C   0  0  0  0  0  0  0  0  0  0  0  0
   26.7553  -18.8873   -8.9093 O   0  0  0  0  0  0  0  0  0  0  0  0
   26.6475  -22.1260  -11.3577 C   0  0  0  0  0  0  0  0  0  0  0  0
   26.0188  -20.9434  -10.6854 C   0  0  2  0  0  0  0  0  0  0  0  0
   25.9230  -21.0139   -9.2627 N   0  0  0  0  0  0  0  0  0  0  0  0
   24.6345  -20.7054  -11.2495 C   0  0  0  0  0  0  0  0  0  0  0  0
   23.6495  -21.0479  -10.5606 O   0  0  0  0  0  0  0  0  0  0  0  0
   24.5146  -20.1176  -12.5160 N   0  0  0  0  0  0  0  0  0  0  0  0
   23.2100  -19.8694  -13.1464 C   0  0  1  0  0  0  0  0  0  0  0  0
   23.3507  -18.9276  -14.2820 C   0  0  0  0  0  0  0  0  0  0  0  0
   22.0907  -18.5610  -14.9970 C   0  0  0  0  0  0  0  0  0  0  0  0
   22.3519  -17.6616  -16.1526 C   0  0  0  0  0  0  0  0  0  0  0  0
   22.4853  -18.1338  -17.3085 O   0  0  0  0  0  0  0  0  0  0  0  0
   22.5446  -21.1549  -13.4500 C   0  0  0  0  0  0  0  0  0  0  0  0
   21.1953  -21.3988  -13.3185 O   0  0  0  0  0  0  0  0  0  0  0  0
   22.4595  -16.2637  -16.0265 O   0  0  0  0  0  0  0  0  0  0  0  0
   23.2655  -22.1210  -13.8662 O   0  0  0  0  0  0  0  0  0  0  0  0
  1  2  1  0
  2  3  1  0
  3  4  1  1
  3  5  1  0
  5  7  1  0
  5  6  1  6
  7  8  2  0
 10  9  1  6
 10 12  1  0
 11 10  1  0
 11  7  1  0
 12 13  2  0
 12 14  1  0
 14 15  1  0
 15 16  1  6
 16 17  1  0
 18 22  1  0
 18 17  1  0
 19 18  2  0
 20 15  1  0
 20 21  1  0
 23 20  2  0
M  END
$$$$
