IAE.pdb
     RDKit          3D

 23 22  0  0  1  0  0  0  0  0999 V2000
   24.7567  -37.7204  -12.3525 C   0  0  0  0  0  0  0  0  0  0  0  0
   24.9998  -36.2469  -12.3884 C   0  0  0  0  0  0  0  0  0  0  0  0
   25.5575  -35.6647  -11.1227 C   0  0  2  0  0  0  0  0  0  0  0  0
   24.5008  -35.9123  -10.0400 C   0  0  0  0  0  0  0  0  0  0  0  0
   25.7964  -34.1886  -11.2075 C   0  0  2  0  0  0  0  0  0  0  0  0
   26.7544  -33.7828  -12.1965 N   0  0  0  0  0  0  0  0  0  0  0  0
   26.2407  -33.6971   -9.8822 C   0  0  0  0  0  0  0  0  0  0  0  0
   27.4315  -33.9026   -9.5227 O   0  0  0  0  0  0  0  0  0  0  0  0
   25.0015  -31.3906   -7.1438 C   0  0  0  0  0  0  0  0  0  0  0  0
   25.7657  -32.5552   -7.6965 C   0  0  2  0  0  0  0  0  0  0  0  0
   25.3709  -32.9996   -8.9945 N   0  0  0  0  0  0  0  0  0  0  0  0
   25.6826  -33.7264   -6.7412 C   0  0  0  0  0  0  0  0  0  0  0  0
   24.8397  -34.6194   -6.9741 O   0  0  0  0  0  0  0  0  0  0  0  0
   26.5465  -33.7594   -5.6384 N   0  0  0  0  0  0  0  0  0  0  0  0
   26.5337  -34.8592   -4.6631 C   0  0  1  0  0  0  0  0  0  0  0  0
   27.7991  -34.8869   -3.8921 C   0  0  0  0  0  0  0  0  0  0  0  0
   29.0338  -35.2325   -4.6598 C   0  0  0  0  0  0  0  0  0  0  0  0
   30.2297  -35.3096   -3.7788 C   0  0  0  0  0  0  0  0  0  0  0  0
   30.1359  -35.0453   -2.5548 O   0  0  0  0  0  0  0  0  0  0  0  0
   25.2899  -34.8097   -3.8644 C   0  0  0  0  0  0  0  0  0  0  0  0
   24.5962  -35.9095   -3.4100 O   0  0  0  0  0  0  0  0  0  0  0  0
   31.5050  -35.6767   -4.2484 O   0  0  0  0  0  0  0  0  0  0  0  0
   24.8118  -33.6654   -3.5672 O   0  0  0  0  0  0  0  0  0  0  0  0
  1  2  1  0
  2  3  1  0
  3  4  1  1
  3  5  1  0
  5  7  1  0
  5  6  1  6
  7  8  2  0
 10  9  1  1
 10 12  1  0
 11 10  1  0
 11  7  1  0
 12 13  2  0
 12 14  1  0
 14 15  1  0
 15 16  1  1
 16 17  1  0
 18 22  1  0
 18 17  1  0
 19 18  2  0
 20 15  1  0
 20 21  1  0
 23 20  2  0
M  END
$$$$
