IAE.pdb
     RDKit          3D

 23 22  0  0  1  0  0  0  0  0999 V2000
   28.0206  -19.4892   -6.9998 C   0  0  0  0  0  0  0  0  0  0  0  0
   27.0881  -20.4089   -7.7184 C   0  0  0  0  0  0  0  0  0  0  0  0
   26.6530  -19.9383   -9.0753 C   0  0  2  0  0  0  0  0  0  0  0  0
   25.7321  -18.7370   -8.8327 C   0  0  0  0  0  0  0  0  0  0  0  0
   25.8782  -20.9693   -9.8368 C   0  0  2  0  0  0  0  0  0  0  0  0
   26.4839  -22.2696   -9.8900 N   0  0  0  0  0  0  0  0  0  0  0  0
   25.6651  -20.4846  -11.2206 C   0  0  0  0  0  0  0  0  0  0  0  0
   24.9759  -19.4449  -11.4039 O   0  0  0  0  0  0  0  0  0  0  0  0
   26.9773  -21.1581  -14.7148 C   0  0  0  0  0  0  0  0  0  0  0  0
   25.9522  -20.7476  -13.7016 C   0  0  2  0  0  0  0  0  0  0  0  0
   26.2097  -21.1510  -12.3565 N   0  0  0  0  0  0  0  0  0  0  0  0
   24.5897  -21.2673  -14.1072 C   0  0  0  0  0  0  0  0  0  0  0  0
   24.3394  -22.4772  -13.9187 O   0  0  0  0  0  0  0  0  0  0  0  0
   23.6710  -20.3763  -14.6781 N   0  0  0  0  0  0  0  0  0  0  0  0
   22.2593  -20.7297  -14.8859 C   0  0  1  0  0  0  0  0  0  0  0  0
   21.6287  -21.1314  -13.6064 C   0  0  0  0  0  0  0  0  0  0  0  0
   20.1661  -20.8544  -13.4743 C   0  0  0  0  0  0  0  0  0  0  0  0
   19.3576  -22.1002  -13.5547 C   0  0  0  0  0  0  0  0  0  0  0  0
   19.7010  -23.1237  -12.9132 O   0  0  0  0  0  0  0  0  0  0  0  0
   21.5756  -19.6530  -15.6348 C   0  0  0  0  0  0  0  0  0  0  0  0
   20.4495  -19.8196  -16.4104 O   0  0  0  0  0  0  0  0  0  0  0  0
   18.1877  -22.2058  -14.3305 O   0  0  0  0  0  0  0  0  0  0  0  0
   22.0568  -18.4741  -15.5656 O   0  0  0  0  0  0  0  0  0  0  0  0
  1  2  1  0
  2  3  1  0
  3  4  1  1
  3  5  1  0
  5  7  1  0
  5  6  1  6
  7  8  2  0
 10  9  1  6
 10 12  1  0
 11 10  1  0
 11  7  1  0
 12 13  2  0
 12 14  1  0
 14 15  1  0
 15 16  1  1
 16 17  1  0
 18 22  1  0
 18 17  1  0
 19 18  2  0
 20 15  1  0
 20 21  1  0
 23 20  2  0
M  END
$$$$
