DKE.pdb
     RDKit          3D

 27 26  0  0  1  0  0  0  0  0999 V2000
   18.2269  -15.4144  -16.7156 N   0  0  0  0  0  0  0  0  0  0  0  0
   17.6488  -14.5500  -15.7343 C   0  0  1  0  0  0  0  0  0  0  0  0
   18.1570  -14.7067  -14.3464 C   0  0  0  0  0  0  0  0  0  0  0  0
   17.8886  -16.0758  -13.8608 C   0  0  0  0  0  0  0  0  0  0  0  0
   16.8285  -16.6486  -14.2396 O   0  0  0  0  0  0  0  0  0  0  0  0
   17.6729  -13.1527  -16.2505 C   0  0  0  0  0  0  0  0  0  0  0  0
   18.6477  -12.6853  -16.9054 O   0  0  0  0  0  0  0  0  0  0  0  0
   18.7291  -16.7725  -13.0135 O   0  0  0  0  0  0  0  0  0  0  0  0
   16.5792  -12.2368  -16.0317 N   0  0  0  0  0  0  0  0  0  0  0  0
   16.5882  -10.9016  -16.5797 C   0  0  1  0  0  0  0  0  0  0  0  0
   15.2224  -10.3466  -16.6646 C   0  0  0  0  0  0  0  0  0  0  0  0
   14.4748  -10.4867  -17.9348 C   0  0  0  0  0  0  0  0  0  0  0  0
   13.0533  -10.0594  -17.9436 C   0  0  0  0  0  0  0  0  0  0  0  0
   12.5031  -10.3823  -19.3437 C   0  0  0  0  0  0  0  0  0  0  0  0
   11.1407   -9.9376  -19.4729 N   0  0  0  0  0  0  0  0  0  0  0  0
   17.3481   -9.9741  -15.6474 C   0  0  0  0  0  0  0  0  0  0  0  0
   17.7429  -10.4784  -14.5774 O   0  0  0  0  0  0  0  0  0  0  0  0
   17.6077   -8.6248  -15.9429 N   0  0  0  0  0  0  0  0  0  0  0  0
   18.5855   -7.8728  -15.1853 C   0  0  1  0  0  0  0  0  0  0  0  0
   19.9185   -8.5313  -15.0694 C   0  0  0  0  0  0  0  0  0  0  0  0
   20.9766   -7.7918  -14.3449 C   0  0  0  0  0  0  0  0  0  0  0  0
   22.2676   -8.5096  -14.3472 C   0  0  0  0  0  0  0  0  0  0  0  0
   23.2133   -8.0622  -15.0206 O   0  0  0  0  0  0  0  0  0  0  0  0
   18.6414   -6.5081  -15.7124 C   0  0  0  0  0  0  0  0  0  0  0  0
   19.3358   -5.5227  -15.0418 O   0  0  0  0  0  0  0  0  0  0  0  0
   22.3787   -9.6657  -13.5906 O   0  0  0  0  0  0  0  0  0  0  0  0
   18.0555   -6.2275  -16.7819 O   0  0  0  0  0  0  0  0  0  0  0  0
  2  1  1  6
  2  3  1  0
  2  6  1  0
  4  3  1  0
  4  8  1  0
  5  4  2  0
  6  7  2  0
  9  6  1  0
  9 10  1  0
 10 11  1  1
 11 12  1  0
 13 12  1  0
 13 14  1  0
 14 15  1  0
 16 17  2  0
 16 10  1  0
 18 16  1  0
 19 20  1  6
 19 18  1  0
 20 21  1  0
 22 21  1  0
 22 23  2  0
 24 19  1  0
 25 24  1  0
 26 22  1  0
 27 24  2  0
M  END
$$$$
