DKE.pdb
     RDKit          3D

 27 26  0  0  1  0  0  0  0  0999 V2000
   23.6333  -11.8844  -17.6699 N   0  0  0  0  0  0  0  0  0  0  0  0
   23.1143  -11.1266  -18.7657 C   0  0  1  0  0  0  0  0  0  0  0  0
   22.5462  -11.9130  -19.8917 C   0  0  0  0  0  0  0  0  0  0  0  0
   23.5929  -12.7651  -20.4924 C   0  0  0  0  0  0  0  0  0  0  0  0
   24.7940  -12.5643  -20.1573 O   0  0  0  0  0  0  0  0  0  0  0  0
   22.2142  -10.0657  -18.2328 C   0  0  0  0  0  0  0  0  0  0  0  0
   21.6192   -9.2385  -18.9806 O   0  0  0  0  0  0  0  0  0  0  0  0
   23.3387  -13.7731  -21.4029 O   0  0  0  0  0  0  0  0  0  0  0  0
   21.9651   -9.9118  -16.8195 N   0  0  0  0  0  0  0  0  0  0  0  0
   21.0405   -8.9242  -16.3165 C   0  0  1  0  0  0  0  0  0  0  0  0
   20.1056   -9.5133  -15.3371 C   0  0  0  0  0  0  0  0  0  0  0  0
   19.0038  -10.3702  -15.8308 C   0  0  0  0  0  0  0  0  0  0  0  0
   18.1475  -11.0363  -14.8177 C   0  0  0  0  0  0  0  0  0  0  0  0
   17.1516  -11.9177  -15.5912 C   0  0  0  0  0  0  0  0  0  0  0  0
   16.3112  -12.6555  -14.6856 N   0  0  0  0  0  0  0  0  0  0  0  0
   21.8039   -7.8523  -15.5582 C   0  0  0  0  0  0  0  0  0  0  0  0
   22.7329   -8.2548  -14.8301 O   0  0  0  0  0  0  0  0  0  0  0  0
   21.5070   -6.4816  -15.6496 N   0  0  0  0  0  0  0  0  0  0  0  0
   22.2456   -5.5077  -14.8739 C   0  0  1  0  0  0  0  0  0  0  0  0
   22.2275   -4.1264  -15.4356 C   0  0  0  0  0  0  0  0  0  0  0  0
   22.8314   -3.9331  -16.7733 C   0  0  0  0  0  0  0  0  0  0  0  0
   22.5704   -2.5857  -17.3195 C   0  0  0  0  0  0  0  0  0  0  0  0
   21.8993   -1.7769  -16.6536 O   0  0  0  0  0  0  0  0  0  0  0  0
   21.8081   -5.5872  -13.4790 C   0  0  0  0  0  0  0  0  0  0  0  0
   22.4817   -4.9005  -12.4902 O   0  0  0  0  0  0  0  0  0  0  0  0
   23.0890   -2.2692  -18.5654 O   0  0  0  0  0  0  0  0  0  0  0  0
   20.8134   -6.2830  -13.1755 O   0  0  0  0  0  0  0  0  0  0  0  0
  2  1  1  1
  2  3  1  0
  2  6  1  0
  4  3  1  0
  4  8  1  0
  5  4  2  0
  6  7  2  0
  9  6  1  0
  9 10  1  0
 10 11  1  1
 11 12  1  0
 13 12  1  0
 13 14  1  0
 14 15  1  0
 16 17  2  0
 16 10  1  0
 18 16  1  0
 19 20  1  6
 19 18  1  0
 20 21  1  0
 22 21  1  0
 22 23  2  0
 24 19  1  0
 25 24  1  0
 26 22  1  0
 27 24  2  0
M  END
$$$$
