DKE.pdb
     RDKit          3D

 27 26  0  0  1  0  0  0  0  0999 V2000
   13.0124  -17.3341    4.2939 N   0  0  0  0  0  0  0  0  0  0  0  0
   14.3817  -17.7379    4.2157 C   0  0  1  0  0  0  0  0  0  0  0  0
   15.2798  -17.2078    5.2747 C   0  0  0  0  0  0  0  0  0  0  0  0
   15.4218  -15.7443    5.1318 C   0  0  0  0  0  0  0  0  0  0  0  0
   14.8565  -15.1805    4.1530 O   0  0  0  0  0  0  0  0  0  0  0  0
   14.4375  -19.2159    4.0366 C   0  0  0  0  0  0  0  0  0  0  0  0
   13.8818  -20.0204    4.8376 O   0  0  0  0  0  0  0  0  0  0  0  0
   16.1383  -14.9496    6.0063 O   0  0  0  0  0  0  0  0  0  0  0  0
   15.1366  -19.8273    2.9320 N   0  0  0  0  0  0  0  0  0  0  0  0
   15.1499  -21.2582    2.7427 C   0  0  1  0  0  0  0  0  0  0  0  0
   15.5862  -21.6155    1.3781 C   0  0  0  0  0  0  0  0  0  0  0  0
   14.6454  -22.3450    0.4979 C   0  0  0  0  0  0  0  0  0  0  0  0
   15.1462  -22.7784   -0.8305 C   0  0  0  0  0  0  0  0  0  0  0  0
   13.9907  -23.5285   -1.5156 C   0  0  0  0  0  0  0  0  0  0  0  0
   14.3749  -23.9678   -2.8309 N   0  0  0  0  0  0  0  0  0  0  0  0
   16.1718  -21.8852    3.6751 C   0  0  0  0  0  0  0  0  0  0  0  0
   17.2229  -21.2371    3.8490 O   0  0  0  0  0  0  0  0  0  0  0  0
   15.9756  -23.1192    4.3186 N   0  0  0  0  0  0  0  0  0  0  0  0
   16.9711  -23.6516    5.2247 C   0  0  1  0  0  0  0  0  0  0  0  0
   16.5021  -23.8199    6.6302 C   0  0  0  0  0  0  0  0  0  0  0  0
   16.6299  -22.6511    7.5296 C   0  0  0  0  0  0  0  0  0  0  0  0
   16.1007  -22.9209    8.8821 C   0  0  0  0  0  0  0  0  0  0  0  0
   15.6590  -24.0527    9.1498 O   0  0  0  0  0  0  0  0  0  0  0  0
   17.5390  -24.8672    4.6387 C   0  0  0  0  0  0  0  0  0  0  0  0
   18.5799  -25.5270    5.2584 O   0  0  0  0  0  0  0  0  0  0  0  0
   16.1172  -21.8930    9.8119 O   0  0  0  0  0  0  0  0  0  0  0  0
   17.0788  -25.3166    3.5655 O   0  0  0  0  0  0  0  0  0  0  0  0
  2  1  1  1
  2  3  1  0
  2  6  1  0
  4  3  1  0
  4  8  1  0
  5  4  2  0
  6  7  2  0
  9  6  1  0
  9 10  1  0
 10 11  1  6
 11 12  1  0
 13 12  1  0
 13 14  1  0
 14 15  1  0
 16 17  2  0
 16 10  1  0
 18 16  1  0
 19 20  1  1
 19 18  1  0
 20 21  1  0
 22 21  1  0
 22 23  2  0
 24 19  1  0
 25 24  1  0
 26 22  1  0
 27 24  2  0
M  END
$$$$
