DKE.pdb
     RDKit          3D

 27 26  0  0  1  0  0  0  0  0999 V2000
   24.7770  -13.1734  -17.8980 N   0  0  0  0  0  0  0  0  0  0  0  0
   24.5440  -12.5519  -16.6317 C   0  0  1  0  0  0  0  0  0  0  0  0
   25.7547  -12.1374  -15.8757 C   0  0  0  0  0  0  0  0  0  0  0  0
   26.6328  -13.3034  -15.6480 C   0  0  0  0  0  0  0  0  0  0  0  0
   26.0950  -14.4316  -15.4656 O   0  0  0  0  0  0  0  0  0  0  0  0
   23.5218  -11.4815  -16.8024 C   0  0  0  0  0  0  0  0  0  0  0  0
   23.4716  -10.7452  -17.8285 O   0  0  0  0  0  0  0  0  0  0  0  0
   28.0128  -13.2365  -15.6217 O   0  0  0  0  0  0  0  0  0  0  0  0
   22.5193  -11.2134  -15.7994 N   0  0  0  0  0  0  0  0  0  0  0  0
   21.5055  -10.2043  -15.9926 C   0  0  1  0  0  0  0  0  0  0  0  0
   20.2680  -10.5391  -15.2600 C   0  0  0  0  0  0  0  0  0  0  0  0
   19.0883   -9.6580  -15.4152 C   0  0  0  0  0  0  0  0  0  0  0  0
   17.8454  -10.0456  -14.7022 C   0  0  0  0  0  0  0  0  0  0  0  0
   16.8007   -8.9595  -15.0123 C   0  0  0  0  0  0  0  0  0  0  0  0
   15.5202   -9.3080  -14.4561 N   0  0  0  0  0  0  0  0  0  0  0  0
   21.9819   -8.8861  -15.4076 C   0  0  0  0  0  0  0  0  0  0  0  0
   22.6994   -8.9671  -14.3908 O   0  0  0  0  0  0  0  0  0  0  0  0
   21.6525   -7.6341  -15.9548 N   0  0  0  0  0  0  0  0  0  0  0  0
   22.3019   -6.4262  -15.4914 C   0  0  1  0  0  0  0  0  0  0  0  0
   23.3030   -5.8587  -16.4398 C   0  0  0  0  0  0  0  0  0  0  0  0
   24.0268   -4.6412  -16.0096 C   0  0  0  0  0  0  0  0  0  0  0  0
   24.9914   -4.1713  -17.0248 C   0  0  0  0  0  0  0  0  0  0  0  0
   25.2419   -4.8915  -18.0079 O   0  0  0  0  0  0  0  0  0  0  0  0
   21.2750   -5.4714  -15.0704 C   0  0  0  0  0  0  0  0  0  0  0  0
   20.1047   -5.3349  -15.7878 O   0  0  0  0  0  0  0  0  0  0  0  0
   25.5866   -2.9327  -16.8430 O   0  0  0  0  0  0  0  0  0  0  0  0
   21.4556   -4.7700  -14.0501 O   0  0  0  0  0  0  0  0  0  0  0  0
  2  1  1  6
  2  3  1  0
  2  6  1  0
  4  3  1  0
  4  8  1  0
  5  4  2  0
  6  7  2  0
  9  6  1  0
  9 10  1  0
 10 11  1  1
 11 12  1  0
 13 12  1  0
 13 14  1  0
 14 15  1  0
 16 17  2  0
 16 10  1  0
 18 16  1  0
 19 20  1  6
 19 18  1  0
 20 21  1  0
 22 21  1  0
 22 23  2  0
 24 19  1  0
 25 24  1  0
 26 22  1  0
 27 24  2  0
M  END
$$$$
