DKE.pdb
     RDKit          3D

 27 26  0  0  1  0  0  0  0  0999 V2000
   13.9389  -12.7171  -14.0432 N   0  0  0  0  0  0  0  0  0  0  0  0
   15.0525  -11.8382  -13.8649 C   0  0  1  0  0  0  0  0  0  0  0  0
   16.1770  -12.0073  -14.8220 C   0  0  0  0  0  0  0  0  0  0  0  0
   16.7573  -13.3592  -14.6870 C   0  0  0  0  0  0  0  0  0  0  0  0
   17.7352  -13.6675  -15.4245 O   0  0  0  0  0  0  0  0  0  0  0  0
   14.5477  -10.4420  -13.7403 C   0  0  0  0  0  0  0  0  0  0  0  0
   13.9901   -9.8315  -14.6963 O   0  0  0  0  0  0  0  0  0  0  0  0
   16.2944  -14.3123  -13.7999 O   0  0  0  0  0  0  0  0  0  0  0  0
   14.6668   -9.6916  -12.5132 N   0  0  0  0  0  0  0  0  0  0  0  0
   14.1027   -8.3702  -12.3756 C   0  0  1  0  0  0  0  0  0  0  0  0
   13.5416   -8.1636  -11.0255 C   0  0  0  0  0  0  0  0  0  0  0  0
   12.1890   -8.6876  -10.7289 C   0  0  0  0  0  0  0  0  0  0  0  0
   11.6033   -8.3614   -9.4046 C   0  0  0  0  0  0  0  0  0  0  0  0
   10.2879   -9.1520   -9.2960 C   0  0  0  0  0  0  0  0  0  0  0  0
    9.6500   -8.9118   -8.0287 N   0  0  0  0  0  0  0  0  0  0  0  0
   15.1999   -7.3306  -12.5248 C   0  0  0  0  0  0  0  0  0  0  0  0
   16.2038   -7.4881  -11.8018 O   0  0  0  0  0  0  0  0  0  0  0  0
   15.1201   -6.2455  -13.4144 N   0  0  0  0  0  0  0  0  0  0  0  0
   16.2351   -5.3375  -13.5813 C   0  0  1  0  0  0  0  0  0  0  0  0
   16.9456   -5.4629  -14.8864 C   0  0  0  0  0  0  0  0  0  0  0  0
   18.0931   -4.5576  -15.1207 C   0  0  0  0  0  0  0  0  0  0  0  0
   18.7147   -4.7672  -16.4442 C   0  0  0  0  0  0  0  0  0  0  0  0
   18.2745   -5.6601  -17.1904 O   0  0  0  0  0  0  0  0  0  0  0  0
   15.7845   -3.9778  -13.2788 C   0  0  0  0  0  0  0  0  0  0  0  0
   16.6950   -2.9831  -12.9885 O   0  0  0  0  0  0  0  0  0  0  0  0
   19.7749   -3.9524  -16.8094 O   0  0  0  0  0  0  0  0  0  0  0  0
   14.5623   -3.7099  -13.2829 O   0  0  0  0  0  0  0  0  0  0  0  0
  2  1  1  6
  2  3  1  0
  2  6  1  0
  4  3  1  0
  4  8  1  0
  5  4  2  0
  6  7  2  0
  9  6  1  0
  9 10  1  0
 10 11  1  1
 11 12  1  0
 13 12  1  0
 13 14  1  0
 14 15  1  0
 16 17  2  0
 16 10  1  0
 18 16  1  0
 19 20  1  6
 19 18  1  0
 20 21  1  0
 22 21  1  0
 22 23  2  0
 24 19  1  0
 25 24  1  0
 26 22  1  0
 27 24  2  0
M  END
$$$$
