DKE.pdb
     RDKit          3D

 27 26  0  0  1  0  0  0  0  0999 V2000
   19.4618  -13.1805  -15.9184 N   0  0  0  0  0  0  0  0  0  0  0  0
   19.8648  -12.1614  -16.8368 C   0  0  1  0  0  0  0  0  0  0  0  0
   20.0362  -12.5877  -18.2503 C   0  0  0  0  0  0  0  0  0  0  0  0
   21.2676  -13.3917  -18.3905 C   0  0  0  0  0  0  0  0  0  0  0  0
   21.8348  -13.8065  -17.3409 O   0  0  0  0  0  0  0  0  0  0  0  0
   18.9885  -10.9712  -16.6490 C   0  0  0  0  0  0  0  0  0  0  0  0
   19.0306   -9.9668  -17.4150 O   0  0  0  0  0  0  0  0  0  0  0  0
   21.8408  -13.7198  -19.6043 O   0  0  0  0  0  0  0  0  0  0  0  0
   18.0318  -10.8874  -15.5717 N   0  0  0  0  0  0  0  0  0  0  0  0
   17.1320   -9.7661  -15.4433 C   0  0  1  0  0  0  0  0  0  0  0  0
   15.8699  -10.1627  -14.7873 C   0  0  0  0  0  0  0  0  0  0  0  0
   14.8185  -10.8140  -15.6011 C   0  0  0  0  0  0  0  0  0  0  0  0
   13.5549  -11.1861  -14.9169 C   0  0  0  0  0  0  0  0  0  0  0  0
   12.6228  -11.7663  -15.9946 C   0  0  0  0  0  0  0  0  0  0  0  0
   11.3527  -12.1349  -15.4277 N   0  0  0  0  0  0  0  0  0  0  0  0
   17.7517   -8.7178  -14.5357 C   0  0  0  0  0  0  0  0  0  0  0  0
   18.5702   -9.1386  -13.6942 O   0  0  0  0  0  0  0  0  0  0  0  0
   17.4434   -7.3488  -14.6138 N   0  0  0  0  0  0  0  0  0  0  0  0
   18.3225   -6.3547  -14.0356 C   0  0  1  0  0  0  0  0  0  0  0  0
   19.7598   -6.5116  -14.4012 C   0  0  0  0  0  0  0  0  0  0  0  0
   20.7036   -5.4959  -13.8827 C   0  0  0  0  0  0  0  0  0  0  0  0
   22.0711   -5.6762  -14.4113 C   0  0  0  0  0  0  0  0  0  0  0  0
   22.6103   -4.7466  -15.0383 O   0  0  0  0  0  0  0  0  0  0  0  0
   17.7798   -5.0246  -14.3182 C   0  0  0  0  0  0  0  0  0  0  0  0
   18.0834   -3.9533  -13.5040 O   0  0  0  0  0  0  0  0  0  0  0  0
   22.7093   -6.8858  -14.1858 O   0  0  0  0  0  0  0  0  0  0  0  0
   17.0330   -4.8525  -15.3073 O   0  0  0  0  0  0  0  0  0  0  0  0
  2  1  1  1
  2  3  1  0
  2  6  1  0
  4  3  1  0
  4  8  1  0
  5  4  2  0
  6  7  2  0
  9  6  1  0
  9 10  1  0
 10 11  1  1
 11 12  1  0
 13 12  1  0
 13 14  1  0
 14 15  1  0
 16 17  2  0
 16 10  1  0
 18 16  1  0
 19 20  1  6
 19 18  1  0
 20 21  1  0
 22 21  1  0
 22 23  2  0
 24 19  1  0
 25 24  1  0
 26 22  1  0
 27 24  2  0
M  END
$$$$
