DKE.pdb
     RDKit          3D

 27 26  0  0  1  0  0  0  0  0999 V2000
   22.9016  -14.4790  -17.9893 N   0  0  0  0  0  0  0  0  0  0  0  0
   22.5907  -14.9279  -16.6679 C   0  0  1  0  0  0  0  0  0  0  0  0
   21.3300  -14.4037  -16.0805 C   0  0  0  0  0  0  0  0  0  0  0  0
   21.4683  -12.9618  -15.7902 C   0  0  0  0  0  0  0  0  0  0  0  0
   20.5172  -12.3756  -15.2010 O   0  0  0  0  0  0  0  0  0  0  0  0
   22.7293  -16.4105  -16.6189 C   0  0  0  0  0  0  0  0  0  0  0  0
   21.9165  -17.1898  -17.1930 O   0  0  0  0  0  0  0  0  0  0  0  0
   22.5787  -12.2105  -16.1251 O   0  0  0  0  0  0  0  0  0  0  0  0
   23.8055  -17.0556  -15.9056 N   0  0  0  0  0  0  0  0  0  0  0  0
   23.9125  -18.4932  -15.8348 C   0  0  1  0  0  0  0  0  0  0  0  0
   25.2549  -18.9102  -15.3824 C   0  0  0  0  0  0  0  0  0  0  0  0
   25.8545  -20.1324  -15.9643 C   0  0  0  0  0  0  0  0  0  0  0  0
   27.2349  -20.4837  -15.5467 C   0  0  0  0  0  0  0  0  0  0  0  0
   27.6348  -21.7343  -16.3486 C   0  0  0  0  0  0  0  0  0  0  0  0
   28.9786  -22.1381  -16.0300 N   0  0  0  0  0  0  0  0  0  0  0  0
   22.9466  -19.0244  -14.7900 C   0  0  0  0  0  0  0  0  0  0  0  0
   22.9412  -18.4254  -13.6962 O   0  0  0  0  0  0  0  0  0  0  0  0
   22.0969  -20.1220  -15.0106 N   0  0  0  0  0  0  0  0  0  0  0  0
   21.1893  -20.5785  -13.9794 C   0  0  1  0  0  0  0  0  0  0  0  0
   19.7909  -20.8091  -14.4433 C   0  0  0  0  0  0  0  0  0  0  0  0
   18.8391  -21.3784  -13.4629 C   0  0  0  0  0  0  0  0  0  0  0  0
   17.4927  -21.5794  -14.0365 C   0  0  0  0  0  0  0  0  0  0  0  0
   17.2325  -21.1131  -15.1603 O   0  0  0  0  0  0  0  0  0  0  0  0
   21.7875  -21.7301  -13.3017 C   0  0  0  0  0  0  0  0  0  0  0  0
   21.5135  -21.9855  -11.9741 O   0  0  0  0  0  0  0  0  0  0  0  0
   16.5607  -22.2879  -13.2945 O   0  0  0  0  0  0  0  0  0  0  0  0
   22.5553  -22.4937  -13.9286 O   0  0  0  0  0  0  0  0  0  0  0  0
  2  1  1  6
  2  3  1  0
  2  6  1  0
  4  3  1  0
  4  8  1  0
  5  4  2  0
  6  7  2  0
  9  6  1  0
  9 10  1  0
 10 11  1  1
 11 12  1  0
 13 12  1  0
 13 14  1  0
 14 15  1  0
 16 17  2  0
 16 10  1  0
 18 16  1  0
 19 20  1  6
 19 18  1  0
 20 21  1  0
 22 21  1  0
 22 23  2  0
 24 19  1  0
 25 24  1  0
 26 22  1  0
 27 24  2  0
M  END
$$$$
