DKE.pdb
     RDKit          3D

 27 26  0  0  1  0  0  0  0  0999 V2000
   25.9036  -20.0265  -14.2353 N   0  0  0  0  0  0  0  0  0  0  0  0
   25.2916  -19.8000  -15.5075 C   0  0  1  0  0  0  0  0  0  0  0  0
   25.9794  -20.4031  -16.6790 C   0  0  0  0  0  0  0  0  0  0  0  0
   27.4045  -20.0140  -16.6845 C   0  0  0  0  0  0  0  0  0  0  0  0
   28.1106  -20.3400  -17.6798 O   0  0  0  0  0  0  0  0  0  0  0  0
   23.8402  -20.1207  -15.4066 C   0  0  0  0  0  0  0  0  0  0  0  0
   23.0622  -20.0766  -16.4017 O   0  0  0  0  0  0  0  0  0  0  0  0
   28.0166  -19.3123  -15.6634 O   0  0  0  0  0  0  0  0  0  0  0  0
   23.2255  -20.5017  -14.1576 N   0  0  0  0  0  0  0  0  0  0  0  0
   21.8187  -20.8124  -14.0695 C   0  0  1  0  0  0  0  0  0  0  0  0
   21.4947  -21.4786  -12.7922 C   0  0  0  0  0  0  0  0  0  0  0  0
   20.1329  -22.0269  -12.6006 C   0  0  0  0  0  0  0  0  0  0  0  0
   19.8207  -22.6416  -11.2860 C   0  0  0  0  0  0  0  0  0  0  0  0
   18.4328  -23.2920  -11.4204 C   0  0  0  0  0  0  0  0  0  0  0  0
   18.0567  -23.9516  -10.1981 N   0  0  0  0  0  0  0  0  0  0  0  0
   21.0122  -19.5254  -14.0744 C   0  0  0  0  0  0  0  0  0  0  0  0
   21.4906  -18.5783  -13.4193 O   0  0  0  0  0  0  0  0  0  0  0  0
   19.7971  -19.3778  -14.7652 N   0  0  0  0  0  0  0  0  0  0  0  0
   19.1454  -18.0884  -14.8559 C   0  0  1  0  0  0  0  0  0  0  0  0
   19.6728  -17.2027  -15.9336 C   0  0  0  0  0  0  0  0  0  0  0  0
   19.8451  -15.7694  -15.6061 C   0  0  0  0  0  0  0  0  0  0  0  0
   20.3194  -14.9809  -16.7616 C   0  0  0  0  0  0  0  0  0  0  0  0
   20.4857  -15.5448  -17.8581 O   0  0  0  0  0  0  0  0  0  0  0  0
   17.6973  -18.2957  -14.9134 C   0  0  0  0  0  0  0  0  0  0  0  0
   16.8274  -17.2890  -14.5489 O   0  0  0  0  0  0  0  0  0  0  0  0
   20.5628  -13.6285  -16.5797 O   0  0  0  0  0  0  0  0  0  0  0  0
   17.2389  -19.3950  -15.2967 O   0  0  0  0  0  0  0  0  0  0  0  0
  2  1  1  1
  2  3  1  0
  2  6  1  0
  4  3  1  0
  4  8  1  0
  5  4  2  0
  6  7  2  0
  9  6  1  0
  9 10  1  0
 10 11  1  1
 11 12  1  0
 13 12  1  0
 13 14  1  0
 14 15  1  0
 16 17  2  0
 16 10  1  0
 18 16  1  0
 19 20  1  6
 19 18  1  0
 20 21  1  0
 22 21  1  0
 22 23  2  0
 24 19  1  0
 25 24  1  0
 26 22  1  0
 27 24  2  0
M  END
$$$$
