DKE.pdb
     RDKit          3D

 27 26  0  0  1  0  0  0  0  0999 V2000
   23.0819  -16.0282  -16.9799 N   0  0  0  0  0  0  0  0  0  0  0  0
   22.1425  -17.0821  -16.7542 C   0  0  1  0  0  0  0  0  0  0  0  0
   21.1711  -17.3360  -17.8502 C   0  0  0  0  0  0  0  0  0  0  0  0
   20.4923  -16.0788  -18.2259 C   0  0  0  0  0  0  0  0  0  0  0  0
   20.1071  -15.9402  -19.4208 O   0  0  0  0  0  0  0  0  0  0  0  0
   22.8782  -18.2894  -16.2844 C   0  0  0  0  0  0  0  0  0  0  0  0
   22.2889  -19.3391  -15.8992 O   0  0  0  0  0  0  0  0  0  0  0  0
   20.2515  -15.0397  -17.3473 O   0  0  0  0  0  0  0  0  0  0  0  0
   24.3199  -18.3366  -16.2358 N   0  0  0  0  0  0  0  0  0  0  0  0
   25.0243  -19.5101  -15.7777 C   0  0  1  0  0  0  0  0  0  0  0  0
   26.4490  -19.4660  -16.1632 C   0  0  0  0  0  0  0  0  0  0  0  0
   27.3338  -20.5779  -15.7476 C   0  0  0  0  0  0  0  0  0  0  0  0
   28.0250  -21.3399  -16.8176 C   0  0  0  0  0  0  0  0  0  0  0  0
   28.8899  -22.4016  -16.1162 C   0  0  0  0  0  0  0  0  0  0  0  0
   29.6375  -23.1685  -17.0773 N   0  0  0  0  0  0  0  0  0  0  0  0
   25.0135  -19.5497  -14.2595 C   0  0  0  0  0  0  0  0  0  0  0  0
   25.5163  -18.5645  -13.6836 O   0  0  0  0  0  0  0  0  0  0  0  0
   24.4770  -20.6166  -13.5183 N   0  0  0  0  0  0  0  0  0  0  0  0
   24.4716  -20.5877  -12.0710 C   0  0  1  0  0  0  0  0  0  0  0  0
   23.1400  -20.3039  -11.4626 C   0  0  0  0  0  0  0  0  0  0  0  0
   22.0602  -21.2854  -11.7117 C   0  0  0  0  0  0  0  0  0  0  0  0
   20.7521  -20.6379  -11.9385 C   0  0  0  0  0  0  0  0  0  0  0  0
   20.6594  -19.4007  -11.8455 O   0  0  0  0  0  0  0  0  0  0  0  0
   25.1031  -21.8112  -11.5733 C   0  0  0  0  0  0  0  0  0  0  0  0
   25.4173  -21.9472  -10.2370 O   0  0  0  0  0  0  0  0  0  0  0  0
   19.6661  -21.4407  -12.2506 O   0  0  0  0  0  0  0  0  0  0  0  0
   25.3621  -22.7460  -12.3637 O   0  0  0  0  0  0  0  0  0  0  0  0
  2  1  1  6
  2  3  1  0
  2  6  1  0
  4  3  1  0
  4  8  1  0
  5  4  2  0
  6  7  2  0
  9  6  1  0
  9 10  1  0
 10 11  1  1
 11 12  1  0
 13 12  1  0
 13 14  1  0
 14 15  1  0
 16 17  2  0
 16 10  1  0
 18 16  1  0
 19 20  1  1
 19 18  1  0
 20 21  1  0
 22 21  1  0
 22 23  2  0
 24 19  1  0
 25 24  1  0
 26 22  1  0
 27 24  2  0
M  END
$$$$
