DKE.pdb
     RDKit          3D

 27 26  0  0  1  0  0  0  0  0999 V2000
   16.9201  -16.3936  -15.9141 N   0  0  0  0  0  0  0  0  0  0  0  0
   16.8151  -15.0034  -16.2313 C   0  0  1  0  0  0  0  0  0  0  0  0
   15.7853  -14.2388  -15.4803 C   0  0  0  0  0  0  0  0  0  0  0  0
   14.4359  -14.7236  -15.8357 C   0  0  0  0  0  0  0  0  0  0  0  0
   14.3201  -15.5018  -16.8239 O   0  0  0  0  0  0  0  0  0  0  0  0
   18.1773  -14.4005  -16.2065 C   0  0  0  0  0  0  0  0  0  0  0  0
   18.9237  -14.4458  -15.1874 O   0  0  0  0  0  0  0  0  0  0  0  0
   13.2865  -14.3770  -15.1513 O   0  0  0  0  0  0  0  0  0  0  0  0
   18.7338  -13.7191  -17.3506 N   0  0  0  0  0  0  0  0  0  0  0  0
   20.1091  -13.2817  -17.3766 C   0  0  1  0  0  0  0  0  0  0  0  0
   20.8372  -13.8666  -18.5203 C   0  0  0  0  0  0  0  0  0  0  0  0
   21.2810  -15.2766  -18.4359 C   0  0  0  0  0  0  0  0  0  0  0  0
   22.0450  -15.8241  -19.5847 C   0  0  0  0  0  0  0  0  0  0  0  0
   22.3655  -17.2899  -19.2443 C   0  0  0  0  0  0  0  0  0  0  0  0
   23.1251  -17.9057  -20.2999 N   0  0  0  0  0  0  0  0  0  0  0  0
   20.1609  -11.7783  -17.5858 C   0  0  0  0  0  0  0  0  0  0  0  0
   19.3283  -11.3091  -18.3868 O   0  0  0  0  0  0  0  0  0  0  0  0
   21.0788  -10.9386  -16.9317 N   0  0  0  0  0  0  0  0  0  0  0  0
   21.0645   -9.5078  -17.1513 C   0  0  1  0  0  0  0  0  0  0  0  0
   21.5020   -8.6971  -15.9786 C   0  0  0  0  0  0  0  0  0  0  0  0
   20.5411   -8.5506  -14.8622 C   0  0  0  0  0  0  0  0  0  0  0  0
   21.1173   -7.8191  -13.7156 C   0  0  0  0  0  0  0  0  0  0  0  0
   21.2808   -8.4114  -12.6338 O   0  0  0  0  0  0  0  0  0  0  0  0
   21.7980   -9.2132  -18.3836 C   0  0  0  0  0  0  0  0  0  0  0  0
   22.5062  -10.2021  -19.0343 O   0  0  0  0  0  0  0  0  0  0  0  0
   21.4589   -6.4870  -13.8898 O   0  0  0  0  0  0  0  0  0  0  0  0
   21.7852   -8.0546  -18.8558 O   0  0  0  0  0  0  0  0  0  0  0  0
  2  1  1  1
  2  3  1  0
  2  6  1  0
  4  3  1  0
  4  8  1  0
  5  4  2  0
  6  7  2  0
  9  6  1  0
  9 10  1  0
 10 11  1  6
 11 12  1  0
 13 12  1  0
 13 14  1  0
 14 15  1  0
 16 17  2  0
 16 10  1  0
 18 16  1  0
 19 20  1  1
 19 18  1  0
 20 21  1  0
 22 21  1  0
 22 23  2  0
 24 19  1  0
 25 24  1  0
 26 22  1  0
 27 24  2  0
M  END
$$$$
