DKE.pdb
     RDKit          3D

 27 26  0  0  1  0  0  0  0  0999 V2000
   16.3374  -13.0144  -15.2680 N   0  0  0  0  0  0  0  0  0  0  0  0
   17.5681  -12.5709  -15.8451 C   0  0  1  0  0  0  0  0  0  0  0  0
   18.1932  -13.4881  -16.8336 C   0  0  0  0  0  0  0  0  0  0  0  0
   18.5255  -14.7754  -16.1896 C   0  0  0  0  0  0  0  0  0  0  0  0
   17.6383  -15.3430  -15.4925 O   0  0  0  0  0  0  0  0  0  0  0  0
   17.3987  -11.1687  -16.3194 C   0  0  0  0  0  0  0  0  0  0  0  0
   18.2913  -10.5588  -16.9742 O   0  0  0  0  0  0  0  0  0  0  0  0
   19.7528  -15.4004  -16.3026 O   0  0  0  0  0  0  0  0  0  0  0  0
   16.1984  -10.4115  -16.0570 N   0  0  0  0  0  0  0  0  0  0  0  0
   16.0623   -9.0376  -16.4780 C   0  0  1  0  0  0  0  0  0  0  0  0
   14.6706   -8.5664  -16.3318 C   0  0  0  0  0  0  0  0  0  0  0  0
   14.3225   -7.2124  -16.8191 C   0  0  0  0  0  0  0  0  0  0  0  0
   12.8990   -6.7997  -16.7365 C   0  0  0  0  0  0  0  0  0  0  0  0
   12.7959   -5.4274  -17.4244 C   0  0  0  0  0  0  0  0  0  0  0  0
   11.4246   -4.9997  -17.5094 N   0  0  0  0  0  0  0  0  0  0  0  0
   16.8928   -8.1438  -15.5735 C   0  0  0  0  0  0  0  0  0  0  0  0
   16.9827   -8.5037  -14.3829 O   0  0  0  0  0  0  0  0  0  0  0  0
   17.5342   -6.9756  -16.0197 N   0  0  0  0  0  0  0  0  0  0  0  0
   18.5296   -6.3154  -15.2018 C   0  0  1  0  0  0  0  0  0  0  0  0
   19.8503   -7.0064  -15.1558 C   0  0  0  0  0  0  0  0  0  0  0  0
   20.9482   -6.3182  -14.4399 C   0  0  0  0  0  0  0  0  0  0  0  0
   22.2342   -7.0351  -14.5587 C   0  0  0  0  0  0  0  0  0  0  0  0
   23.2026   -6.4663  -15.0940 O   0  0  0  0  0  0  0  0  0  0  0  0
   18.6090   -4.9089  -15.6004 C   0  0  0  0  0  0  0  0  0  0  0  0
   18.0188   -4.4744  -16.7691 O   0  0  0  0  0  0  0  0  0  0  0  0
   22.3152   -8.3272  -14.0634 O   0  0  0  0  0  0  0  0  0  0  0  0
   19.2166   -4.0885  -14.8769 O   0  0  0  0  0  0  0  0  0  0  0  0
  2  1  1  6
  2  3  1  0
  2  6  1  0
  4  3  1  0
  4  8  1  0
  5  4  2  0
  6  7  2  0
  9  6  1  0
  9 10  1  0
 10 11  1  1
 11 12  1  0
 13 12  1  0
 13 14  1  0
 14 15  1  0
 16 17  2  0
 16 10  1  0
 18 16  1  0
 19 20  1  6
 19 18  1  0
 20 21  1  0
 22 21  1  0
 22 23  2  0
 24 19  1  0
 25 24  1  0
 26 22  1  0
 27 24  2  0
M  END
$$$$
