KGY.pdb
     RDKit          3D

 26 26  0  0  1  0  0  0  0  0999 V2000
    7.8910  -18.9862   19.8649 N   0  0  0  0  0  0  0  0  0  0  0  0
    8.7097  -18.1163   19.0854 C   0  0  1  0  0  0  0  0  0  0  0  0
    8.4133  -18.1665   17.6113 C   0  0  0  0  0  0  0  0  0  0  0  0
    8.7012  -19.4918   16.9892 C   0  0  0  0  0  0  0  0  0  0  0  0
    8.3592  -19.5829   15.5372 C   0  0  0  0  0  0  0  0  0  0  0  0
    8.5036  -20.9703   14.9714 C   0  0  0  0  0  0  0  0  0  0  0  0
    8.0955  -21.0245   13.5812 N   0  0  0  0  0  0  0  0  0  0  0  0
    8.5729  -16.7152   19.5558 C   0  0  0  0  0  0  0  0  0  0  0  0
    9.3026  -15.7822   19.1394 O   0  0  0  0  0  0  0  0  0  0  0  0
    7.5766  -16.3762   20.5259 N   0  0  0  0  0  0  0  0  0  0  0  0
    7.4283  -15.0507   21.0552 C   0  0  0  0  0  0  0  0  0  0  0  0
    8.3951  -14.8459   22.1749 C   0  0  0  0  0  0  0  0  0  0  0  0
    9.5870  -14.4957   21.9435 O   0  0  0  0  0  0  0  0  0  0  0  0
   11.3559  -14.5718   30.4520 O   0  0  0  0  0  0  0  0  0  0  0  0
   10.5404  -14.6318   29.3190 C   0  0  0  0  0  0  0  0  0  0  0  0
   10.1094  -13.4873   28.6949 C   0  0  0  0  0  0  0  0  0  0  0  0
    9.3099  -13.5812   27.5847 C   0  0  0  0  0  0  0  0  0  0  0  0
    8.9211  -14.8160   27.0703 C   0  0  0  0  0  0  0  0  0  0  0  0
    8.0500  -14.9007   25.8865 C   0  0  0  0  0  0  0  0  0  0  0  0
    8.9086  -14.9591   24.6474 C   0  0  2  0  0  0  0  0  0  0  0  0
    7.9858  -15.0427   23.5200 N   0  0  0  0  0  0  0  0  0  0  0  0
    9.8561  -16.0926   24.6370 C   0  0  0  0  0  0  0  0  0  0  0  0
    9.5092  -17.4035   24.3757 O   0  0  0  0  0  0  0  0  0  0  0  0
    9.3687  -15.9417   27.7176 C   0  0  0  0  0  0  0  0  0  0  0  0
   10.1826  -15.8809   28.8483 C   0  0  0  0  0  0  0  0  0  0  0  0
   11.0831  -15.8387   24.8895 O   0  0  0  0  0  0  0  0  0  0  0  0
  2  3  1  0
  2  1  1  1
  4  5  1  0
  4  3  1  0
  6  7  1  0
  6  5  1  0
  8  2  1  0
  9  8  2  0
 10  8  1  0
 11 10  1  0
 12 11  1  0
 12 21  1  0
 13 12  2  0
 15 14  1  0
 16 15  2  0
 17 16  1  0
 18 17  2  0
 18 24  1  0
 19 18  1  0
 20 22  1  0
 20 21  1  0
 20 19  1  1
 22 23  1  0
 24 25  2  0
 25 15  1  0
 26 22  2  0
M  END
$$$$
