KGY.pdb
     RDKit          3D

 26 26  0  0  1  0  0  0  0  0999 V2000
    6.9135  -19.4966   22.4985 N   0  0  0  0  0  0  0  0  0  0  0  0
    6.3965  -18.5438   21.5714 C   0  0  1  0  0  0  0  0  0  0  0  0
    5.1823  -17.8101   22.0719 C   0  0  0  0  0  0  0  0  0  0  0  0
    4.0483  -18.7096   22.4341 C   0  0  0  0  0  0  0  0  0  0  0  0
    2.9012  -18.6780   21.4767 C   0  0  0  0  0  0  0  0  0  0  0  0
    1.7517  -19.5593   21.8863 C   0  0  0  0  0  0  0  0  0  0  0  0
    0.6538  -19.4767   20.9429 N   0  0  0  0  0  0  0  0  0  0  0  0
    7.4409  -17.5536   21.2083 C   0  0  0  0  0  0  0  0  0  0  0  0
    7.2369  -16.6122   20.4029 O   0  0  0  0  0  0  0  0  0  0  0  0
    8.7491  -17.6449   21.7818 N   0  0  0  0  0  0  0  0  0  0  0  0
    9.7958  -16.7110   21.4794 C   0  0  0  0  0  0  0  0  0  0  0  0
   10.3359  -16.1343   22.7468 C   0  0  0  0  0  0  0  0  0  0  0  0
   11.4584  -15.5541   22.7658 O   0  0  0  0  0  0  0  0  0  0  0  0
    4.6136  -13.1083   26.5886 O   0  0  0  0  0  0  0  0  0  0  0  0
    5.9456  -13.4189   26.3030 C   0  0  0  0  0  0  0  0  0  0  0  0
    6.8817  -13.5110   27.3031 C   0  0  0  0  0  0  0  0  0  0  0  0
    8.1808  -13.8178   26.9887 C   0  0  0  0  0  0  0  0  0  0  0  0
    8.5779  -14.0398   25.6721 C   0  0  0  0  0  0  0  0  0  0  0  0
    9.9794  -14.3535   25.3485 C   0  0  0  0  0  0  0  0  0  0  0  0
   10.1383  -15.8505   25.2508 C   0  0  2  0  0  0  0  0  0  0  0  0
    9.5920  -16.2308   23.9521 N   0  0  0  0  0  0  0  0  0  0  0  0
    9.4677  -16.5891   26.3404 C   0  0  0  0  0  0  0  0  0  0  0  0
    9.9067  -16.6275   27.6491 O   0  0  0  0  0  0  0  0  0  0  0  0
    7.6177  -13.9400   24.6950 C   0  0  0  0  0  0  0  0  0  0  0  0
    6.2885  -13.6300   24.9810 C   0  0  0  0  0  0  0  0  0  0  0  0
    8.4067  -17.2388   26.0474 O   0  0  0  0  0  0  0  0  0  0  0  0
  2  3  1  0
  2  1  1  1
  4  5  1  0
  4  3  1  0
  6  7  1  0
  6  5  1  0
  8  2  1  0
  9  8  2  0
 10  8  1  0
 11 10  1  0
 12 11  1  0
 12 21  1  0
 13 12  2  0
 15 14  1  0
 16 15  2  0
 17 16  1  0
 18 17  2  0
 18 24  1  0
 19 18  1  0
 20 22  1  0
 20 21  1  0
 20 19  1  1
 22 23  1  0
 24 25  2  0
 25 15  1  0
 26 22  2  0
M  END
$$$$
