KGY.pdb
     RDKit          3D

 26 26  0  0  1  0  0  0  0  0999 V2000
    5.3164  -18.5221   23.2729 N   0  0  0  0  0  0  0  0  0  0  0  0
    5.1861  -18.5731   21.8534 C   0  0  1  0  0  0  0  0  0  0  0  0
    3.7686  -18.4290   21.3705 C   0  0  0  0  0  0  0  0  0  0  0  0
    3.0042  -19.7103   21.3718 C   0  0  0  0  0  0  0  0  0  0  0  0
    1.5943  -19.5921   20.8902 C   0  0  0  0  0  0  0  0  0  0  0  0
    0.7918  -20.8536   21.0641 C   0  0  0  0  0  0  0  0  0  0  0  0
   -0.5752  -20.6827   20.6121 N   0  0  0  0  0  0  0  0  0  0  0  0
    6.0198  -17.5224   21.2177 C   0  0  0  0  0  0  0  0  0  0  0  0
    6.2424  -17.4836   19.9826 O   0  0  0  0  0  0  0  0  0  0  0  0
    6.6116  -16.4927   22.0164 N   0  0  0  0  0  0  0  0  0  0  0  0
    7.4257  -15.4502   21.4597 C   0  0  0  0  0  0  0  0  0  0  0  0
    8.5614  -15.1528   22.3828 C   0  0  0  0  0  0  0  0  0  0  0  0
    9.4697  -14.3401   22.0487 O   0  0  0  0  0  0  0  0  0  0  0  0
    6.2185  -11.1182   26.9911 O   0  0  0  0  0  0  0  0  0  0  0  0
    6.9926  -12.2528   26.7348 C   0  0  0  0  0  0  0  0  0  0  0  0
    8.3609  -12.1733   26.6533 C   0  0  0  0  0  0  0  0  0  0  0  0
    9.0914  -13.3060   26.4004 C   0  0  0  0  0  0  0  0  0  0  0  0
    8.4770  -14.5435   26.2229 C   0  0  0  0  0  0  0  0  0  0  0  0
    9.2735  -15.7482   25.9372 C   0  0  0  0  0  0  0  0  0  0  0  0
    9.7999  -15.6663   24.5258 C   0  0  2  0  0  0  0  0  0  0  0  0
    8.6359  -15.7821   23.6532 N   0  0  0  0  0  0  0  0  0  0  0  0
   10.8020  -16.7038   24.2067 C   0  0  0  0  0  0  0  0  0  0  0  0
   12.0711  -16.7624   24.7480 O   0  0  0  0  0  0  0  0  0  0  0  0
    7.1070  -14.5895   26.3103 C   0  0  0  0  0  0  0  0  0  0  0  0
    6.3351  -13.4566   26.5662 C   0  0  0  0  0  0  0  0  0  0  0  0
   10.4679  -17.6093   23.3688 O   0  0  0  0  0  0  0  0  0  0  0  0
  2  3  1  0
  2  1  1  1
  4  5  1  0
  4  3  1  0
  6  7  1  0
  6  5  1  0
  8  2  1  0
  9  8  2  0
 10  8  1  0
 11 10  1  0
 12 11  1  0
 12 21  1  0
 13 12  2  0
 15 14  1  0
 16 15  2  0
 17 16  1  0
 18 17  2  0
 18 24  1  0
 19 18  1  0
 20 22  1  0
 20 21  1  0
 20 19  1  1
 22 23  1  0
 24 25  2  0
 25 15  1  0
 26 22  2  0
M  END
$$$$
