KGY.pdb
     RDKit          3D

 26 26  0  0  1  0  0  0  0  0999 V2000
    7.3500  -17.2424   22.0476 N   0  0  0  0  0  0  0  0  0  0  0  0
    8.7431  -17.2938   21.7453 C   0  0  1  0  0  0  0  0  0  0  0  0
    9.2794  -16.0221   21.1466 C   0  0  0  0  0  0  0  0  0  0  0  0
    8.2325  -15.1797   20.4981 C   0  0  0  0  0  0  0  0  0  0  0  0
    8.7364  -13.8929   19.9289 C   0  0  0  0  0  0  0  0  0  0  0  0
    7.6430  -12.9889   19.4258 C   0  0  0  0  0  0  0  0  0  0  0  0
    8.1766  -11.7461   18.9035 N   0  0  0  0  0  0  0  0  0  0  0  0
    9.5267  -17.6196   22.9631 C   0  0  0  0  0  0  0  0  0  0  0  0
   10.7678  -17.8082   22.9447 O   0  0  0  0  0  0  0  0  0  0  0  0
    8.8720  -17.7318   24.2310 N   0  0  0  0  0  0  0  0  0  0  0  0
    9.5521  -18.1588   25.4203 C   0  0  0  0  0  0  0  0  0  0  0  0
   10.1754  -16.9802   26.0931 C   0  0  0  0  0  0  0  0  0  0  0  0
   11.2664  -16.4994   25.6742 O   0  0  0  0  0  0  0  0  0  0  0  0
    6.1684  -12.9706   23.6913 O   0  0  0  0  0  0  0  0  0  0  0  0
    6.8938  -13.3192   24.8334 C   0  0  0  0  0  0  0  0  0  0  0  0
    8.1596  -13.8423   24.7365 C   0  0  0  0  0  0  0  0  0  0  0  0
    8.8446  -14.1740   25.8773 C   0  0  0  0  0  0  0  0  0  0  0  0
    8.2858  -13.9926   27.1403 C   0  0  0  0  0  0  0  0  0  0  0  0
    9.0276  -14.3675   28.3555 C   0  0  0  0  0  0  0  0  0  0  0  0
   10.1560  -15.2942   27.9764 C   0  0  2  0  0  0  0  0  0  0  0  0
    9.5477  -16.3819   27.2172 N   0  0  0  0  0  0  0  0  0  0  0  0
   10.9069  -15.8176   29.1360 C   0  0  0  0  0  0  0  0  0  0  0  0
   11.7829  -15.0758   29.9038 O   0  0  0  0  0  0  0  0  0  0  0  0
    7.0181  -13.4675   27.2032 C   0  0  0  0  0  0  0  0  0  0  0  0
    6.2948  -13.1198   26.0628 C   0  0  0  0  0  0  0  0  0  0  0  0
   10.7320  -17.0448   29.4473 O   0  0  0  0  0  0  0  0  0  0  0  0
  2  3  1  0
  2  1  1  1
  4  5  1  0
  4  3  1  0
  6  7  1  0
  6  5  1  0
  8  2  1  0
  9  8  2  0
 10  8  1  0
 11 10  1  0
 12 11  1  0
 12 21  1  0
 13 12  2  0
 15 14  1  0
 16 15  2  0
 17 16  1  0
 18 17  2  0
 18 24  1  0
 19 18  1  0
 20 22  1  0
 20 21  1  0
 20 19  1  1
 22 23  1  0
 24 25  2  0
 25 15  1  0
 26 22  2  0
M  END
$$$$
