KGY.pdb
     RDKit          3D

 26 26  0  0  1  0  0  0  0  0999 V2000
    6.3926  -15.0517   19.9017 N   0  0  0  0  0  0  0  0  0  0  0  0
    7.0318  -16.1608   19.2725 C   0  0  1  0  0  0  0  0  0  0  0  0
    8.0679  -15.7649   18.2561 C   0  0  0  0  0  0  0  0  0  0  0  0
    7.7493  -14.4938   17.5427 C   0  0  0  0  0  0  0  0  0  0  0  0
    8.5126  -14.2859   16.2747 C   0  0  0  0  0  0  0  0  0  0  0  0
    8.1986  -12.9823   15.5907 C   0  0  0  0  0  0  0  0  0  0  0  0
    8.8927  -12.8644   14.3232 N   0  0  0  0  0  0  0  0  0  0  0  0
    7.6652  -17.0390   20.2877 C   0  0  0  0  0  0  0  0  0  0  0  0
    8.4057  -18.0067   19.9850 O   0  0  0  0  0  0  0  0  0  0  0  0
    7.4445  -16.8021   21.6819 N   0  0  0  0  0  0  0  0  0  0  0  0
    7.9784  -17.6521   22.7075 C   0  0  0  0  0  0  0  0  0  0  0  0
    8.9672  -16.8901   23.5272 C   0  0  0  0  0  0  0  0  0  0  0  0
    9.9557  -16.3211   22.9829 O   0  0  0  0  0  0  0  0  0  0  0  0
    5.9235  -11.1841   25.3939 O   0  0  0  0  0  0  0  0  0  0  0  0
    6.6831  -12.2944   25.7713 C   0  0  0  0  0  0  0  0  0  0  0  0
    6.4841  -13.5207   25.1867 C   0  0  0  0  0  0  0  0  0  0  0  0
    7.2468  -14.5903   25.5801 C   0  0  0  0  0  0  0  0  0  0  0  0
    8.2248  -14.4640   26.5639 C   0  0  0  0  0  0  0  0  0  0  0  0
    9.0256  -15.6249   26.9864 C   0  0  0  0  0  0  0  0  0  0  0  0
    9.7931  -16.1511   25.7991 C   0  0  2  0  0  0  0  0  0  0  0  0
    8.8089  -16.7945   24.9348 N   0  0  0  0  0  0  0  0  0  0  0  0
   10.8711  -17.0939   26.1618 C   0  0  0  0  0  0  0  0  0  0  0  0
   12.0974  -16.7236   26.6778 O   0  0  0  0  0  0  0  0  0  0  0  0
    8.3990  -13.2243   27.1292 C   0  0  0  0  0  0  0  0  0  0  0  0
    7.6405  -12.1166   26.7519 C   0  0  0  0  0  0  0  0  0  0  0  0
   10.6503  -18.3401   25.9829 O   0  0  0  0  0  0  0  0  0  0  0  0
  2  3  1  0
  2  1  1  1
  4  5  1  0
  4  3  1  0
  6  7  1  0
  6  5  1  0
  8  2  1  0
  9  8  2  0
 10  8  1  0
 11 10  1  0
 12 11  1  0
 12 21  1  0
 13 12  2  0
 15 14  1  0
 16 15  2  0
 17 16  1  0
 18 17  2  0
 18 24  1  0
 19 18  1  0
 20 22  1  0
 20 21  1  0
 20 19  1  1
 22 23  1  0
 24 25  2  0
 25 15  1  0
 26 22  2  0
M  END
$$$$
