KGY.pdb
     RDKit          3D

 26 26  0  0  1  0  0  0  0  0999 V2000
    5.2380  -17.7576   22.8994 N   0  0  0  0  0  0  0  0  0  0  0  0
    5.6601  -17.9835   21.5557 C   0  0  1  0  0  0  0  0  0  0  0  0
    4.6478  -17.5638   20.5250 C   0  0  0  0  0  0  0  0  0  0  0  0
    3.2623  -18.0291   20.8249 C   0  0  0  0  0  0  0  0  0  0  0  0
    2.8785  -19.3081   20.1536 C   0  0  0  0  0  0  0  0  0  0  0  0
    1.4409  -19.6955   20.3750 C   0  0  0  0  0  0  0  0  0  0  0  0
    1.1264  -20.9619   19.7429 N   0  0  0  0  0  0  0  0  0  0  0  0
    6.9390  -17.2792   21.2882 C   0  0  0  0  0  0  0  0  0  0  0  0
    7.6687  -17.5429   20.3011 O   0  0  0  0  0  0  0  0  0  0  0  0
    7.3915  -16.2491   22.1729 N   0  0  0  0  0  0  0  0  0  0  0  0
    8.6675  -15.6084   22.0296 C   0  0  0  0  0  0  0  0  0  0  0  0
    9.4113  -15.6756   23.3229 C   0  0  0  0  0  0  0  0  0  0  0  0
   10.6024  -15.2616   23.4055 O   0  0  0  0  0  0  0  0  0  0  0  0
    5.9260  -11.0297   26.1396 O   0  0  0  0  0  0  0  0  0  0  0  0
    6.5388  -12.2730   26.3157 C   0  0  0  0  0  0  0  0  0  0  0  0
    7.8141  -12.3698   26.8150 C   0  0  0  0  0  0  0  0  0  0  0  0
    8.3867  -13.6055   26.9756 C   0  0  0  0  0  0  0  0  0  0  0  0
    7.7032  -14.7729   26.6431 C   0  0  0  0  0  0  0  0  0  0  0  0
    8.3366  -16.0918   26.8071 C   0  0  0  0  0  0  0  0  0  0  0  0
    9.4385  -16.2381   25.7872 C   0  0  2  0  0  0  0  0  0  0  0  0
    8.7872  -16.2079   24.4816 N   0  0  0  0  0  0  0  0  0  0  0  0
   10.2350  -17.4717   25.9494 C   0  0  0  0  0  0  0  0  0  0  0  0
   10.2991  -18.4926   25.0216 O   0  0  0  0  0  0  0  0  0  0  0  0
    6.4295  -14.6421   26.1461 C   0  0  0  0  0  0  0  0  0  0  0  0
    5.8186  -13.4008   25.9706 C   0  0  0  0  0  0  0  0  0  0  0  0
   10.9105  -17.6009   27.0267 O   0  0  0  0  0  0  0  0  0  0  0  0
  2  3  1  0
  2  1  1  1
  4  5  1  0
  4  3  1  0
  6  7  1  0
  6  5  1  0
  8  2  1  0
  9  8  2  0
 10  8  1  0
 11 10  1  0
 12 11  1  0
 12 21  1  0
 13 12  2  0
 15 14  1  0
 16 15  2  0
 17 16  1  0
 18 17  2  0
 18 24  1  0
 19 18  1  0
 20 22  1  0
 20 21  1  0
 20 19  1  1
 22 23  1  0
 24 25  2  0
 25 15  1  0
 26 22  2  0
M  END
$$$$
