KGY.pdb
     RDKit          3D

 26 26  0  0  1  0  0  0  0  0999 V2000
   10.3325  -13.4209   19.4979 N   0  0  0  0  0  0  0  0  0  0  0  0
    8.9576  -13.1589   19.7732 C   0  0  1  0  0  0  0  0  0  0  0  0
    8.0797  -13.1901   18.5519 C   0  0  0  0  0  0  0  0  0  0  0  0
    8.5292  -14.1676   17.5181 C   0  0  0  0  0  0  0  0  0  0  0  0
    7.6957  -14.1861   16.2778 C   0  0  0  0  0  0  0  0  0  0  0  0
    8.0913  -15.2631   15.3035 C   0  0  0  0  0  0  0  0  0  0  0  0
    7.2612  -15.2384   14.1151 N   0  0  0  0  0  0  0  0  0  0  0  0
    8.4335  -14.1289   20.7669 C   0  0  0  0  0  0  0  0  0  0  0  0
    7.2866  -14.0370   21.2696 O   0  0  0  0  0  0  0  0  0  0  0  0
    9.2429  -15.2292   21.1942 N   0  0  0  0  0  0  0  0  0  0  0  0
    8.7516  -16.2648   22.0575 C   0  0  0  0  0  0  0  0  0  0  0  0
    9.2180  -16.0175   23.4545 C   0  0  0  0  0  0  0  0  0  0  0  0
   10.2421  -15.3117   23.6784 O   0  0  0  0  0  0  0  0  0  0  0  0
    5.9292  -10.8566   26.0706 O   0  0  0  0  0  0  0  0  0  0  0  0
    6.3493  -12.1806   26.2214 C   0  0  0  0  0  0  0  0  0  0  0  0
    5.6608  -13.2134   25.6347 C   0  0  0  0  0  0  0  0  0  0  0  0
    6.0999  -14.5018   25.8024 C   0  0  0  0  0  0  0  0  0  0  0  0
    7.2340  -14.7915   26.5575 C   0  0  0  0  0  0  0  0  0  0  0  0
    7.6847  -16.1810   26.7409 C   0  0  0  0  0  0  0  0  0  0  0  0
    8.9430  -16.3998   25.9381 C   0  0  2  0  0  0  0  0  0  0  0  0
    8.5139  -16.5747   24.5543 N   0  0  0  0  0  0  0  0  0  0  0  0
    9.7407  -17.5575   26.3919 C   0  0  0  0  0  0  0  0  0  0  0  0
   10.5320  -17.5706   27.5236 O   0  0  0  0  0  0  0  0  0  0  0  0
    7.9002  -13.7362   27.1313 C   0  0  0  0  0  0  0  0  0  0  0  0
    7.4802  -12.4150   26.9803 C   0  0  0  0  0  0  0  0  0  0  0  0
    9.6939  -18.6206   25.6838 O   0  0  0  0  0  0  0  0  0  0  0  0
  2  3  1  0
  2  1  1  6
  4  5  1  0
  4  3  1  0
  6  7  1  0
  6  5  1  0
  8  2  1  0
  9  8  2  0
 10  8  1  0
 11 10  1  0
 12 11  1  0
 12 21  1  0
 13 12  2  0
 15 14  1  0
 16 15  2  0
 17 16  1  0
 18 17  2  0
 18 24  1  0
 19 18  1  0
 20 22  1  0
 20 21  1  0
 20 19  1  1
 22 23  1  0
 24 25  2  0
 25 15  1  0
 26 22  2  0
M  END
$$$$
