PQS.pdb
     RDKit          3D

 23 23  0  0  1  0  0  0  0  0999 V2000
    9.3344  -14.0975   18.4526 N   0  0  0  0  0  0  0  0  0  0  0  0
    8.5508  -13.4232   17.4478 C   0  0  0  0  0  0  0  0  0  0  0  0
    7.2260  -13.0823   18.0476 C   0  0  0  0  0  0  0  0  0  0  0  0
    7.2396  -13.8233   19.3685 C   0  0  0  0  0  0  0  0  0  0  0  0
    8.7025  -13.8317   19.7180 C   0  0  1  0  0  0  0  0  0  0  0  0
    9.0241  -14.8848   20.7279 C   0  0  0  0  0  0  0  0  0  0  0  0
    8.3437  -14.9862   21.7792 O   0  0  0  0  0  0  0  0  0  0  0  0
   12.9852  -19.9510   20.0086 N   0  0  0  0  0  0  0  0  0  0  0  0
   12.2755  -19.2074   19.0465 C   0  0  0  0  0  0  0  0  0  0  0  0
   12.3699  -19.4864   17.8273 O   0  0  0  0  0  0  0  0  0  0  0  0
   11.3864  -18.0646   19.4207 C   0  0  0  0  0  0  0  0  0  0  0  0
   11.3190  -17.9144   20.8930 C   0  0  0  0  0  0  0  0  0  0  0  0
   10.4743  -16.8309   21.4406 C   0  0  2  0  0  0  0  0  0  0  0  0
   10.0980  -15.7896   20.5258 N   0  0  0  0  0  0  0  0  0  0  0  0
   10.8296  -16.3650   22.8008 C   0  0  0  0  0  0  0  0  0  0  0  0
   11.4836  -15.3071   22.9103 O   0  0  0  0  0  0  0  0  0  0  0  0
    9.9286  -15.5197   27.1974 O   0  0  0  0  0  0  0  0  0  0  0  0
    9.5298  -16.0270   25.9618 C   0  0  0  0  0  0  0  0  0  0  0  0
   10.7686  -16.5953   25.3045 C   0  0  2  0  0  0  0  0  0  0  0  0
   10.4562  -17.0786   23.9476 N   0  0  0  0  0  0  0  0  0  0  0  0
   11.1792  -17.7894   26.1024 C   0  0  0  0  0  0  0  0  0  0  0  0
   11.7312  -17.6690   27.3706 O   0  0  0  0  0  0  0  0  0  0  0  0
   11.0454  -18.9684   25.6648 O   0  0  0  0  0  0  0  0  0  0  0  0
  1  2  1  0
  2  3  1  0
  4  3  1  0
  5  4  1  0
  5  1  1  0
  5  6  1  1
  6  7  2  0
  9  8  1  0
  9 11  1  0
 10  9  2  0
 11 12  1  0
 13 12  1  6
 13 15  1  0
 13 14  1  0
 14  6  1  0
 15 16  2  0
 15 20  1  0
 17 18  1  0
 19 18  1  1
 19 21  1  0
 20 19  1  0
 21 23  2  0
 21 22  1  0
M  END
$$$$
