PQS.pdb
     RDKit          3D

 23 23  0  0  1  0  0  0  0  0999 V2000
    8.6273  -15.5806   18.9872 N   0  0  0  0  0  0  0  0  0  0  0  0
    8.1059  -16.4209   17.9382 C   0  0  0  0  0  0  0  0  0  0  0  0
    7.0120  -17.2569   18.5175 C   0  0  0  0  0  0  0  0  0  0  0  0
    7.1250  -16.9976   20.0055 C   0  0  0  0  0  0  0  0  0  0  0  0
    7.6547  -15.5906   20.0478 C   0  0  1  0  0  0  0  0  0  0  0  0
    8.2754  -15.2726   21.3692 C   0  0  0  0  0  0  0  0  0  0  0  0
    9.5070  -15.4423   21.5502 O   0  0  0  0  0  0  0  0  0  0  0  0
    5.3705  -12.2331   26.2020 N   0  0  0  0  0  0  0  0  0  0  0  0
    6.6229  -12.5654   26.7526 C   0  0  0  0  0  0  0  0  0  0  0  0
    6.9189  -12.2179   27.9209 O   0  0  0  0  0  0  0  0  0  0  0  0
    7.6497  -13.3373   25.9868 C   0  0  0  0  0  0  0  0  0  0  0  0
    7.1774  -13.6133   24.6100 C   0  0  0  0  0  0  0  0  0  0  0  0
    7.9936  -14.5117   23.7651 C   0  0  2  0  0  0  0  0  0  0  0  0
    7.4948  -14.7746   22.4441 N   0  0  0  0  0  0  0  0  0  0  0  0
    8.5781  -15.6853   24.4539 C   0  0  0  0  0  0  0  0  0  0  0  0
    7.8737  -16.7089   24.5768 O   0  0  0  0  0  0  0  0  0  0  0  0
   12.6671  -17.9867   25.3476 O   0  0  0  0  0  0  0  0  0  0  0  0
   12.0604  -16.7984   24.9439 C   0  0  0  0  0  0  0  0  0  0  0  0
   10.5988  -16.9064   25.3203 C   0  0  2  0  0  0  0  0  0  0  0  0
    9.8826  -15.6681   24.9655 N   0  0  0  0  0  0  0  0  0  0  0  0
   10.5375  -17.0277   26.8078 C   0  0  0  0  0  0  0  0  0  0  0  0
   11.0545  -18.1297   27.4753 O   0  0  0  0  0  0  0  0  0  0  0  0
   10.0126  -16.1348   27.5336 O   0  0  0  0  0  0  0  0  0  0  0  0
  1  2  1  0
  2  3  1  0
  4  3  1  0
  5  4  1  0
  5  1  1  0
  5  6  1  1
  6  7  2  0
  9  8  1  0
  9 11  1  0
 10  9  2  0
 11 12  1  0
 13 12  1  1
 13 15  1  0
 13 14  1  0
 14  6  1  0
 15 16  2  0
 15 20  1  0
 17 18  1  0
 19 18  1  1
 19 21  1  0
 20 19  1  0
 21 23  2  0
 21 22  1  0
M  END
$$$$
