PQS.pdb
     RDKit          3D

 23 23  0  0  1  0  0  0  0  0999 V2000
    8.0635  -15.0749   18.6430 N   0  0  0  0  0  0  0  0  0  0  0  0
    7.3251  -14.4499   17.5740 C   0  0  0  0  0  0  0  0  0  0  0  0
    7.4521  -12.9698   17.7295 C   0  0  0  0  0  0  0  0  0  0  0  0
    8.1056  -12.8159   19.0872 C   0  0  0  0  0  0  0  0  0  0  0  0
    8.9336  -14.0673   19.1896 C   0  0  1  0  0  0  0  0  0  0  0  0
    9.3075  -14.3691   20.6044 C   0  0  0  0  0  0  0  0  0  0  0  0
   10.1550  -13.6606   21.2028 O   0  0  0  0  0  0  0  0  0  0  0  0
    7.1363  -17.9841   26.7948 N   0  0  0  0  0  0  0  0  0  0  0  0
    7.0862  -17.4209   25.5055 C   0  0  0  0  0  0  0  0  0  0  0  0
    5.9881  -17.2625   24.9204 O   0  0  0  0  0  0  0  0  0  0  0  0
    8.3188  -16.9887   24.7772 C   0  0  0  0  0  0  0  0  0  0  0  0
    7.9677  -16.3531   23.4858 C   0  0  0  0  0  0  0  0  0  0  0  0
    9.0716  -15.8609   22.6336 C   0  0  2  0  0  0  0  0  0  0  0  0
    8.7188  -15.4554   21.3017 N   0  0  0  0  0  0  0  0  0  0  0  0
   10.3461  -16.6080   22.7388 C   0  0  0  0  0  0  0  0  0  0  0  0
   10.4695  -17.6607   22.0789 O   0  0  0  0  0  0  0  0  0  0  0  0
   15.0011  -16.5610   23.9090 O   0  0  0  0  0  0  0  0  0  0  0  0
   13.7950  -15.8654   23.9768 C   0  0  0  0  0  0  0  0  0  0  0  0
   12.7089  -16.8371   23.5693 C   0  0  2  0  0  0  0  0  0  0  0  0
   11.3967  -16.1663   23.5543 N   0  0  0  0  0  0  0  0  0  0  0  0
   12.6424  -17.8887   24.6280 C   0  0  0  0  0  0  0  0  0  0  0  0
   11.6140  -17.9266   25.5598 O   0  0  0  0  0  0  0  0  0  0  0  0
   13.5174  -18.7962   24.7294 O   0  0  0  0  0  0  0  0  0  0  0  0
  1  2  1  0
  2  3  1  0
  4  3  1  0
  5  4  1  0
  5  1  1  0
  5  6  1  1
  6  7  2  0
  9  8  1  0
  9 11  1  0
 10  9  2  0
 11 12  1  0
 13 12  1  6
 13 15  1  0
 13 14  1  0
 14  6  1  0
 15 16  2  0
 15 20  1  0
 17 18  1  0
 19 18  1  1
 19 21  1  0
 20 19  1  0
 21 23  2  0
 21 22  1  0
M  END
$$$$
