PQS.pdb
     RDKit          3D

 23 23  0  0  1  0  0  0  0  0999 V2000
    8.2525  -15.2730   19.3931 N   0  0  0  0  0  0  0  0  0  0  0  0
    8.0450  -14.9419   18.0054 C   0  0  0  0  0  0  0  0  0  0  0  0
    7.7046  -13.4898   17.9234 C   0  0  0  0  0  0  0  0  0  0  0  0
    7.5017  -13.0964   19.3719 C   0  0  0  0  0  0  0  0  0  0  0  0
    8.4360  -14.0290   20.0928 C   0  0  1  0  0  0  0  0  0  0  0  0
    8.0864  -14.1527   21.5402 C   0  0  0  0  0  0  0  0  0  0  0  0
    8.1788  -13.1592   22.3036 O   0  0  0  0  0  0  0  0  0  0  0  0
    5.7844  -19.7662   24.3792 N   0  0  0  0  0  0  0  0  0  0  0  0
    6.9778  -19.1207   24.7550 C   0  0  0  0  0  0  0  0  0  0  0  0
    7.5721  -19.4425   25.8117 O   0  0  0  0  0  0  0  0  0  0  0  0
    7.5902  -18.0353   23.9283 C   0  0  0  0  0  0  0  0  0  0  0  0
    6.6492  -16.9015   23.7734 C   0  0  0  0  0  0  0  0  0  0  0  0
    7.2122  -15.5750   23.4405 C   0  0  2  0  0  0  0  0  0  0  0  0
    7.6446  -15.3864   22.0840 N   0  0  0  0  0  0  0  0  0  0  0  0
    8.1006  -14.9793   24.4648 C   0  0  0  0  0  0  0  0  0  0  0  0
    9.3252  -15.2111   24.3909 O   0  0  0  0  0  0  0  0  0  0  0  0
    6.4493  -12.7818   27.3353 O   0  0  0  0  0  0  0  0  0  0  0  0
    7.7639  -12.3607   27.1415 C   0  0  0  0  0  0  0  0  0  0  0  0
    8.4902  -13.5012   26.4620 C   0  0  2  0  0  0  0  0  0  0  0  0
    7.6015  -14.1777   25.5003 N   0  0  0  0  0  0  0  0  0  0  0  0
    8.8205  -14.5023   27.5202 C   0  0  0  0  0  0  0  0  0  0  0  0
    9.7320  -14.2272   28.5306 O   0  0  0  0  0  0  0  0  0  0  0  0
    8.2881  -15.6492   27.5498 O   0  0  0  0  0  0  0  0  0  0  0  0
  1  2  1  0
  2  3  1  0
  4  3  1  0
  5  4  1  0
  5  1  1  0
  5  6  1  1
  6  7  2  0
  9  8  1  0
  9 11  1  0
 10  9  2  0
 11 12  1  0
 13 12  1  1
 13 15  1  0
 13 14  1  0
 14  6  1  0
 15 16  2  0
 15 20  1  0
 17 18  1  0
 19 18  1  1
 19 21  1  0
 20 19  1  0
 21 23  2  0
 21 22  1  0
M  END
$$$$
