PQS.pdb
     RDKit          3D

 23 23  0  0  1  0  0  0  0  0999 V2000
    8.2998  -15.2685   19.8006 N   0  0  0  0  0  0  0  0  0  0  0  0
    7.9576  -14.8152   18.4755 C   0  0  0  0  0  0  0  0  0  0  0  0
    7.5554  -13.3797   18.5685 C   0  0  0  0  0  0  0  0  0  0  0  0
    7.4664  -13.1379   20.0611 C   0  0  0  0  0  0  0  0  0  0  0  0
    8.4962  -14.0905   20.6035 C   0  0  1  0  0  0  0  0  0  0  0  0
    8.2812  -14.3698   22.0555 C   0  0  0  0  0  0  0  0  0  0  0  0
    8.3573  -13.4421   22.8992 O   0  0  0  0  0  0  0  0  0  0  0  0
    5.9961  -19.8452   26.5546 N   0  0  0  0  0  0  0  0  0  0  0  0
    6.9418  -19.3295   25.6481 C   0  0  0  0  0  0  0  0  0  0  0  0
    7.5647  -20.0932   24.8721 O   0  0  0  0  0  0  0  0  0  0  0  0
    7.2489  -17.8683   25.5634 C   0  0  0  0  0  0  0  0  0  0  0  0
    7.4305  -17.4527   24.1530 C   0  0  0  0  0  0  0  0  0  0  0  0
    7.7452  -16.0328   23.8846 C   0  0  2  0  0  0  0  0  0  0  0  0
    7.9878  -15.6800   22.5136 N   0  0  0  0  0  0  0  0  0  0  0  0
    8.6436  -15.3782   24.8633 C   0  0  0  0  0  0  0  0  0  0  0  0
    9.8727  -15.4041   24.6455 O   0  0  0  0  0  0  0  0  0  0  0  0
    6.9912  -13.2287   27.7162 O   0  0  0  0  0  0  0  0  0  0  0  0
    8.3363  -12.8823   27.5981 C   0  0  0  0  0  0  0  0  0  0  0  0
    9.0379  -14.0689   26.9741 C   0  0  2  0  0  0  0  0  0  0  0  0
    8.1496  -14.7449   26.0117 N   0  0  0  0  0  0  0  0  0  0  0  0
    9.3063  -15.0460   28.0715 C   0  0  0  0  0  0  0  0  0  0  0  0
   10.1294  -14.7344   29.1452 O   0  0  0  0  0  0  0  0  0  0  0  0
    8.7986  -16.2043   28.0788 O   0  0  0  0  0  0  0  0  0  0  0  0
  1  2  1  0
  2  3  1  0
  4  3  1  0
  5  4  1  0
  5  1  1  0
  5  6  1  1
  6  7  2  0
  9  8  1  0
  9 11  1  0
 10  9  2  0
 11 12  1  0
 13 12  1  6
 13 15  1  0
 13 14  1  0
 14  6  1  0
 15 16  2  0
 15 20  1  0
 17 18  1  0
 19 18  1  1
 19 21  1  0
 20 19  1  0
 21 23  2  0
 21 22  1  0
M  END
$$$$
