PQS.pdb
     RDKit          3D

 23 23  0  0  1  0  0  0  0  0999 V2000
    8.2945  -15.1586   19.7180 N   0  0  0  0  0  0  0  0  0  0  0  0
    7.9648  -14.6813   18.3982 C   0  0  0  0  0  0  0  0  0  0  0  0
    7.6000  -13.2370   18.5077 C   0  0  0  0  0  0  0  0  0  0  0  0
    7.5167  -13.0102   20.0030 C   0  0  0  0  0  0  0  0  0  0  0  0
    8.5212  -13.9955   20.5345 C   0  0  1  0  0  0  0  0  0  0  0  0
    8.2983  -14.2858   21.9831 C   0  0  0  0  0  0  0  0  0  0  0  0
    8.3626  -13.3632   22.8335 O   0  0  0  0  0  0  0  0  0  0  0  0
    6.4601  -19.9828   24.3232 N   0  0  0  0  0  0  0  0  0  0  0  0
    6.5843  -19.1924   25.4816 C   0  0  0  0  0  0  0  0  0  0  0  0
    6.2959  -19.6619   26.6085 O   0  0  0  0  0  0  0  0  0  0  0  0
    7.0587  -17.7751   25.4312 C   0  0  0  0  0  0  0  0  0  0  0  0
    7.2851  -17.3486   24.0306 C   0  0  0  0  0  0  0  0  0  0  0  0
    7.7366  -15.9603   23.7939 C   0  0  2  0  0  0  0  0  0  0  0  0
    8.0107  -15.6010   22.4306 N   0  0  0  0  0  0  0  0  0  0  0  0
    8.6959  -15.4195   24.7843 C   0  0  0  0  0  0  0  0  0  0  0  0
    9.9088  -15.6719   24.6299 O   0  0  0  0  0  0  0  0  0  0  0  0
    7.3035  -13.0533   27.6804 O   0  0  0  0  0  0  0  0  0  0  0  0
    8.6531  -12.7978   27.4434 C   0  0  0  0  0  0  0  0  0  0  0  0
    9.2316  -14.0525   26.8262 C   0  0  2  0  0  0  0  0  0  0  0  0
    8.2753  -14.6468   25.8751 N   0  0  0  0  0  0  0  0  0  0  0  0
    9.4105  -15.0416   27.9310 C   0  0  0  0  0  0  0  0  0  0  0  0
   10.2824  -14.8117   28.9866 O   0  0  0  0  0  0  0  0  0  0  0  0
    8.7784  -16.1367   27.9614 O   0  0  0  0  0  0  0  0  0  0  0  0
  1  2  1  0
  2  3  1  0
  4  3  1  0
  5  4  1  0
  5  1  1  0
  5  6  1  1
  6  7  2  0
  9  8  1  0
  9 11  1  0
 10  9  2  0
 11 12  1  0
 13 12  1  6
 13 15  1  0
 13 14  1  0
 14  6  1  0
 15 16  2  0
 15 20  1  0
 17 18  1  0
 19 18  1  1
 19 21  1  0
 20 19  1  0
 21 23  2  0
 21 22  1  0
M  END
$$$$
