PQS.pdb
     RDKit          3D

 23 23  0  0  1  0  0  0  0  0999 V2000
    9.3737  -13.5187   17.8373 N   0  0  0  0  0  0  0  0  0  0  0  0
    8.1243  -13.2184   17.1835 C   0  0  0  0  0  0  0  0  0  0  0  0
    7.0254  -13.4144   18.1760 C   0  0  0  0  0  0  0  0  0  0  0  0
    7.7255  -14.0728   19.3467 C   0  0  0  0  0  0  0  0  0  0  0  0
    9.1145  -13.5036   19.2528 C   0  0  1  0  0  0  0  0  0  0  0  0
   10.1043  -14.3331   20.0042 C   0  0  0  0  0  0  0  0  0  0  0  0
    9.8651  -14.6955   21.1831 O   0  0  0  0  0  0  0  0  0  0  0  0
   14.6335  -13.8714   16.4797 N   0  0  0  0  0  0  0  0  0  0  0  0
   14.8523  -14.9382   17.3719 C   0  0  0  0  0  0  0  0  0  0  0  0
   16.0162  -15.2516   17.7190 O   0  0  0  0  0  0  0  0  0  0  0  0
   13.7277  -15.7411   17.9439 C   0  0  0  0  0  0  0  0  0  0  0  0
   13.6597  -15.5730   19.4142 C   0  0  0  0  0  0  0  0  0  0  0  0
   12.3232  -15.5468   20.0471 C   0  0  2  0  0  0  0  0  0  0  0  0
   11.3298  -14.7289   19.4091 N   0  0  0  0  0  0  0  0  0  0  0  0
   12.3147  -15.4943   21.5272 C   0  0  0  0  0  0  0  0  0  0  0  0
   12.8050  -14.4907   22.0850 O   0  0  0  0  0  0  0  0  0  0  0  0
    9.6356  -17.3900   23.5135 O   0  0  0  0  0  0  0  0  0  0  0  0
   10.3502  -16.4827   24.2941 C   0  0  0  0  0  0  0  0  0  0  0  0
   11.7710  -16.4857   23.7737 C   0  0  2  0  0  0  0  0  0  0  0  0
   11.7800  -16.5334   22.3007 N   0  0  0  0  0  0  0  0  0  0  0  0
   12.4088  -17.7500   24.2489 C   0  0  0  0  0  0  0  0  0  0  0  0
   12.7281  -17.9528   25.5847 O   0  0  0  0  0  0  0  0  0  0  0  0
   12.6900  -18.6983   23.4607 O   0  0  0  0  0  0  0  0  0  0  0  0
  1  2  1  0
  2  3  1  0
  4  3  1  0
  5  4  1  0
  5  1  1  0
  5  6  1  1
  6  7  2  0
  9  8  1  0
  9 11  1  0
 10  9  2  0
 11 12  1  0
 13 12  1  6
 13 15  1  0
 13 14  1  0
 14  6  1  0
 15 16  2  0
 15 20  1  0
 17 18  1  0
 19 18  1  1
 19 21  1  0
 20 19  1  0
 21 23  2  0
 21 22  1  0
M  END
$$$$
