PQS.pdb
     RDKit          3D

 23 23  0  0  1  0  0  0  0  0999 V2000
    8.5774  -15.0895   19.6788 N   0  0  0  0  0  0  0  0  0  0  0  0
    8.2430  -14.5193   18.3976 C   0  0  0  0  0  0  0  0  0  0  0  0
    7.6014  -13.1918   18.6368 C   0  0  0  0  0  0  0  0  0  0  0  0
    7.3853  -13.1733   20.1358 C   0  0  0  0  0  0  0  0  0  0  0  0
    8.5262  -14.0161   20.6360 C   0  0  1  0  0  0  0  0  0  0  0  0
    8.2756  -14.5216   22.0196 C   0  0  0  0  0  0  0  0  0  0  0  0
    8.0554  -13.7178   22.9597 O   0  0  0  0  0  0  0  0  0  0  0  0
    5.9066  -19.8267   23.8921 N   0  0  0  0  0  0  0  0  0  0  0  0
    6.6555  -19.5200   25.0442 C   0  0  0  0  0  0  0  0  0  0  0  0
    6.3699  -20.0415   26.1486 O   0  0  0  0  0  0  0  0  0  0  0  0
    7.8119  -18.5722   25.0130 C   0  0  0  0  0  0  0  0  0  0  0  0
    7.9394  -17.9462   23.6763 C   0  0  0  0  0  0  0  0  0  0  0  0
    8.1241  -16.4802   23.6131 C   0  0  2  0  0  0  0  0  0  0  0  0
    8.2801  -15.9116   22.3035 N   0  0  0  0  0  0  0  0  0  0  0  0
    9.0048  -15.8987   24.6522 C   0  0  0  0  0  0  0  0  0  0  0  0
   10.2344  -15.8739   24.4375 O   0  0  0  0  0  0  0  0  0  0  0  0
    9.4824  -13.1671   28.5671 O   0  0  0  0  0  0  0  0  0  0  0  0
    8.5903  -13.7195   27.6494 C   0  0  0  0  0  0  0  0  0  0  0  0
    9.3604  -14.7606   26.8666 C   0  0  2  0  0  0  0  0  0  0  0  0
    8.4938  -15.3885   25.8533 N   0  0  0  0  0  0  0  0  0  0  0  0
    9.7457  -15.8359   27.8291 C   0  0  0  0  0  0  0  0  0  0  0  0
    9.1359  -17.0830   27.8174 O   0  0  0  0  0  0  0  0  0  0  0  0
   10.6450  -15.6657   28.7019 O   0  0  0  0  0  0  0  0  0  0  0  0
  1  2  1  0
  2  3  1  0
  4  3  1  0
  5  4  1  0
  5  1  1  0
  5  6  1  1
  6  7  2  0
  9  8  1  0
  9 11  1  0
 10  9  2  0
 11 12  1  0
 13 12  1  6
 13 15  1  0
 13 14  1  0
 14  6  1  0
 15 16  2  0
 15 20  1  0
 17 18  1  0
 19 18  1  1
 19 21  1  0
 20 19  1  0
 21 23  2  0
 21 22  1  0
M  END
$$$$
