CRV.pdb
     RDKit          3D

 25 24  0  0  1  0  0  0  0  0999 V2000
   28.2370  -20.7044  -14.2718 N   0  0  0  0  0  0  0  0  0  0  0  0
   27.2332  -21.1502  -13.3253 C   0  0  1  0  0  0  0  0  0  0  0  0
   27.8373  -21.0591  -11.9613 C   0  0  0  0  0  0  0  0  0  0  0  0
   26.7081  -21.5740  -10.6567 S   0  0  0  0  0  0  0  0  0  0  0  0
   25.9853  -20.4043  -13.5144 C   0  0  0  0  0  0  0  0  0  0  0  0
   26.0573  -19.1552  -13.7293 O   0  0  0  0  0  0  0  0  0  0  0  0
   23.2561  -17.1685  -17.9462 N   0  0  0  0  0  0  0  0  0  0  0  0
   21.9723  -17.5840  -18.4148 C   0  0  0  0  0  0  0  0  0  0  0  0
   21.4180  -17.0331  -19.4572 N   0  0  0  0  0  0  0  0  0  0  0  0
   21.2354  -18.6131  -17.7731 N   0  0  0  0  0  0  0  0  0  0  0  0
   21.8917  -19.8947  -17.3731 C   0  0  0  0  0  0  0  0  0  0  0  0
   22.1195  -19.7622  -15.9174 C   0  0  0  0  0  0  0  0  0  0  0  0
   23.2411  -20.3367  -15.2115 C   0  0  0  0  0  0  0  0  0  0  0  0
   23.4610  -20.2984  -13.7571 C   0  0  2  0  0  0  0  0  0  0  0  0
   24.7333  -21.0432  -13.4641 N   0  0  0  0  0  0  0  0  0  0  0  0
   22.4414  -21.0966  -13.0066 C   0  0  0  0  0  0  0  0  0  0  0  0
   22.3114  -22.3280  -13.1394 O   0  0  0  0  0  0  0  0  0  0  0  0
   20.5277  -17.4449  -19.8187 C   0  0  0  0  0  0  0  0  0  0  0  0
   21.3473  -20.6328   -9.1745 C   0  0  2  0  0  0  0  0  0  0  0  0
   20.1286  -20.7415  -10.0687 C   0  0  0  0  0  0  0  0  0  0  0  0
   19.5723  -19.3451  -10.2598 C   0  0  2  0  0  0  0  0  0  0  0  0
   20.5753  -21.3378  -11.3889 N   0  0  0  0  0  0  0  0  0  0  0  0
   21.5284  -20.4853  -12.0671 C   0  0  0  0  0  0  0  0  0  0  0  0
   19.3501  -21.5246  -12.2265 O   0  0  0  0  0  0  0  0  0  0  0  0
   18.3993  -22.4787  -11.9358 O   0  0  0  0  0  0  0  0  0  0  0  0
  2  5  1  0
  2  1  1  6
  3  4  1  0
  3  2  1  0
  5  6  2  0
  7  8  1  0
  8  9  2  0
  8 10  1  0
 10 11  1  0
 11 12  1  0
 12 13  1  0
 14 13  1  6
 15  5  1  0
 15 14  1  0
 16 14  1  0
 16 17  2  0
 19 18  1  1
 19 21  1  0
 20 19  1  0
 21 22  1  6
 21 23  1  0
 22 16  1  0
 23 24  1  0
 25 23  2  0
M  END
$$$$
