CRV.pdb
     RDKit          3D

 25 24  0  0  1  0  0  0  0  0999 V2000
   28.5621  -23.1688  -17.8083 N   0  0  0  0  0  0  0  0  0  0  0  0
   28.0477  -23.3405  -16.4636 C   0  0  1  0  0  0  0  0  0  0  0  0
   29.0771  -22.8036  -15.5224 C   0  0  0  0  0  0  0  0  0  0  0  0
   30.5953  -23.7717  -15.5145 S   0  0  0  0  0  0  0  0  0  0  0  0
   26.7133  -22.7446  -16.3468 C   0  0  0  0  0  0  0  0  0  0  0  0
   26.4900  -21.6468  -16.9437 O   0  0  0  0  0  0  0  0  0  0  0  0
   22.2309  -27.5903  -18.5397 N   0  0  0  0  0  0  0  0  0  0  0  0
   21.7329  -26.8900  -17.3986 C   0  0  0  0  0  0  0  0  0  0  0  0
   21.2365  -27.5246  -16.3747 N   0  0  0  0  0  0  0  0  0  0  0  0
   21.7513  -25.4733  -17.3198 N   0  0  0  0  0  0  0  0  0  0  0  0
   22.3940  -24.6514  -18.3898 C   0  0  0  0  0  0  0  0  0  0  0  0
   23.3602  -23.7904  -17.6733 C   0  0  0  0  0  0  0  0  0  0  0  0
   23.3933  -23.6189  -16.2395 C   0  0  0  0  0  0  0  0  0  0  0  0
   24.3239  -22.7593  -15.4909 C   0  0  2  0  0  0  0  0  0  0  0  0
   25.6960  -23.3635  -15.5981 N   0  0  0  0  0  0  0  0  0  0  0  0
   24.0709  -22.7963  -14.0163 C   0  0  0  0  0  0  0  0  0  0  0  0
   23.9299  -23.8563  -13.3781 O   0  0  0  0  0  0  0  0  0  0  0  0
   20.8643  -26.9604  -15.5772 C   0  0  0  0  0  0  0  0  0  0  0  0
   25.9160  -21.3500  -11.1004 C   0  0  2  0  0  0  0  0  0  0  0  0
   24.4890  -20.8659  -10.9386 C   0  0  0  0  0  0  0  0  0  0  0  0
   24.4465  -19.4107  -11.3590 C   0  0  2  0  0  0  0  0  0  0  0  0
   23.6075  -21.7187  -11.8296 N   0  0  0  0  0  0  0  0  0  0  0  0
   23.9716  -21.5906  -13.2246 C   0  0  0  0  0  0  0  0  0  0  0  0
   22.1965  -21.2720  -11.6129 O   0  0  0  0  0  0  0  0  0  0  0  0
   21.5515  -21.4331  -10.4058 O   0  0  0  0  0  0  0  0  0  0  0  0
  2  5  1  0
  2  1  1  6
  3  4  1  0
  3  2  1  0
  5  6  2  0
  7  8  1  0
  8  9  2  0
  8 10  1  0
 10 11  1  0
 11 12  1  0
 12 13  1  0
 14 13  1  6
 15  5  1  0
 15 14  1  0
 16 14  1  0
 16 17  2  0
 19 18  1  1
 19 21  1  0
 20 19  1  0
 21 22  1  1
 21 23  1  0
 22 16  1  0
 23 24  1  0
 25 23  2  0
M  END
$$$$
