CRV.pdb
     RDKit          3D

 25 24  0  0  1  0  0  0  0  0999 V2000
   24.5961  -22.4966  -11.5191 N   0  0  0  0  0  0  0  0  0  0  0  0
   24.9826  -21.1122  -11.7101 C   0  0  1  0  0  0  0  0  0  0  0  0
   25.6835  -20.6710  -10.4659 C   0  0  0  0  0  0  0  0  0  0  0  0
   24.5744  -20.4984   -9.0580 S   0  0  0  0  0  0  0  0  0  0  0  0
   25.7462  -20.9615  -12.9524 C   0  0  0  0  0  0  0  0  0  0  0  0
   26.7210  -21.7480  -13.1590 O   0  0  0  0  0  0  0  0  0  0  0  0
   28.3776  -24.0451  -17.9201 N   0  0  0  0  0  0  0  0  0  0  0  0
   27.2812  -24.4303  -17.0895 C   0  0  0  0  0  0  0  0  0  0  0  0
   27.3829  -25.4154  -16.2430 N   0  0  0  0  0  0  0  0  0  0  0  0
   26.0290  -23.7648  -17.1421 N   0  0  0  0  0  0  0  0  0  0  0  0
   25.8007  -22.6282  -18.0852 C   0  0  0  0  0  0  0  0  0  0  0  0
   26.2138  -21.4248  -17.3305 C   0  0  0  0  0  0  0  0  0  0  0  0
   25.7347  -21.0849  -16.0110 C   0  0  0  0  0  0  0  0  0  0  0  0
   26.1206  -19.9005  -15.2276 C   0  0  2  0  0  0  0  0  0  0  0  0
   25.4174  -19.9767  -13.9014 N   0  0  0  0  0  0  0  0  0  0  0  0
   25.5760  -18.6329  -15.8076 C   0  0  0  0  0  0  0  0  0  0  0  0
   24.3691  -18.3293  -15.7625 O   0  0  0  0  0  0  0  0  0  0  0  0
   26.5985  -25.5708  -15.5696 C   0  0  0  0  0  0  0  0  0  0  0  0
   26.9925  -15.0879  -15.5189 C   0  0  2  0  0  0  0  0  0  0  0  0
   26.6462  -15.2767  -16.9821 C   0  0  0  0  0  0  0  0  0  0  0  0
   27.9457  -15.4290  -17.7464 C   0  0  2  0  0  0  0  0  0  0  0  0
   25.7936  -16.5248  -17.0984 N   0  0  0  0  0  0  0  0  0  0  0  0
   26.4235  -17.6649  -16.4672 C   0  0  0  0  0  0  0  0  0  0  0  0
   25.5840  -16.7825  -18.5569 O   0  0  0  0  0  0  0  0  0  0  0  0
   24.8041  -15.9627  -19.3436 O   0  0  0  0  0  0  0  0  0  0  0  0
  2  5  1  0
  2  1  1  1
  3  4  1  0
  3  2  1  0
  5  6  2  0
  7  8  1  0
  8  9  2  0
  8 10  1  0
 10 11  1  0
 11 12  1  0
 12 13  1  0
 14 13  1  6
 15  5  1  0
 15 14  1  0
 16 14  1  0
 16 17  2  0
 19 18  1  6
 19 21  1  0
 20 19  1  0
 21 22  1  6
 21 23  1  0
 22 16  1  0
 23 24  1  0
 25 23  2  0
M  END
$$$$
