CRV.pdb
     RDKit          3D

 25 24  0  0  1  0  0  0  0  0999 V2000
   19.7227  -21.4897  -11.8446 N   0  0  0  0  0  0  0  0  0  0  0  0
   18.6496  -22.4566  -11.9697 C   0  0  1  0  0  0  0  0  0  0  0  0
   18.3365  -22.5868  -13.4253 C   0  0  0  0  0  0  0  0  0  0  0  0
   17.4281  -21.1758  -14.0778 S   0  0  0  0  0  0  0  0  0  0  0  0
   19.0034  -23.7042  -11.2858 C   0  0  0  0  0  0  0  0  0  0  0  0
   20.2068  -24.1035  -11.3464 O   0  0  0  0  0  0  0  0  0  0  0  0
   18.1444  -27.2982   -5.0954 N   0  0  0  0  0  0  0  0  0  0  0  0
   17.5351  -26.0964   -4.6212 C   0  0  0  0  0  0  0  0  0  0  0  0
   17.8446  -25.5889   -3.4618 N   0  0  0  0  0  0  0  0  0  0  0  0
   16.5647  -25.3950   -5.3828 N   0  0  0  0  0  0  0  0  0  0  0  0
   16.1125  -25.9073   -6.7119 C   0  0  0  0  0  0  0  0  0  0  0  0
   17.3088  -25.8151   -7.5772 C   0  0  0  0  0  0  0  0  0  0  0  0
   17.3165  -26.1053   -8.9922 C   0  0  0  0  0  0  0  0  0  0  0  0
   18.3899  -25.7669   -9.9401 C   0  0  2  0  0  0  0  0  0  0  0  0
   18.0450  -24.4489  -10.5749 N   0  0  0  0  0  0  0  0  0  0  0  0
   18.4218  -26.6915  -11.1166 C   0  0  0  0  0  0  0  0  0  0  0  0
   17.6166  -26.6132  -12.0634 O   0  0  0  0  0  0  0  0  0  0  0  0
   17.3029  -24.7608   -3.1248 C   0  0  0  0  0  0  0  0  0  0  0  0
   21.6051  -28.0038  -13.0939 C   0  0  2  0  0  0  0  0  0  0  0  0
   20.6997  -29.1706  -12.7542 C   0  0  0  0  0  0  0  0  0  0  0  0
   21.3149  -29.9034  -11.5793 C   0  0  2  0  0  0  0  0  0  0  0  0
   19.3373  -28.6100  -12.3966 N   0  0  0  0  0  0  0  0  0  0  0  0
   19.3998  -27.7496  -11.2343 C   0  0  0  0  0  0  0  0  0  0  0  0
   18.4342  -29.7743  -12.1390 O   0  0  0  0  0  0  0  0  0  0  0  0
   18.0101  -30.6129  -13.1470 O   0  0  0  0  0  0  0  0  0  0  0  0
  2  5  1  0
  2  1  1  6
  3  4  1  0
  3  2  1  0
  5  6  2  0
  7  8  1  0
  8  9  2  0
  8 10  1  0
 10 11  1  0
 11 12  1  0
 12 13  1  0
 14 13  1  1
 15  5  1  0
 15 14  1  0
 16 14  1  0
 16 17  2  0
 19 18  1  6
 19 21  1  0
 20 19  1  0
 21 22  1  6
 21 23  1  0
 22 16  1  0
 23 24  1  0
 25 23  2  0
M  END
$$$$
