CRV.pdb
     RDKit          3D

 25 24  0  0  1  0  0  0  0  0999 V2000
   13.3116   -7.8710   -8.6105 N   0  0  0  0  0  0  0  0  0  0  0  0
   14.6167   -7.2432   -8.6811 C   0  0  1  0  0  0  0  0  0  0  0  0
   15.1082   -7.0816   -7.2789 C   0  0  0  0  0  0  0  0  0  0  0  0
   14.0619   -6.0026   -6.2874 S   0  0  0  0  0  0  0  0  0  0  0  0
   15.4989   -7.9976   -9.5766 C   0  0  0  0  0  0  0  0  0  0  0  0
   15.2130   -9.2097   -9.8226 O   0  0  0  0  0  0  0  0  0  0  0  0
   17.1158   -5.1501  -15.8200 N   0  0  0  0  0  0  0  0  0  0  0  0
   16.5870   -6.1708  -16.6680 C   0  0  0  0  0  0  0  0  0  0  0  0
   16.9613   -6.2836  -17.9108 N   0  0  0  0  0  0  0  0  0  0  0  0
   15.6303   -7.1111  -16.2050 N   0  0  0  0  0  0  0  0  0  0  0  0
   15.0390   -6.9971  -14.8373 C   0  0  0  0  0  0  0  0  0  0  0  0
   16.1529   -7.3183  -13.9182 C   0  0  0  0  0  0  0  0  0  0  0  0
   16.0249   -7.4116  -12.4825 C   0  0  0  0  0  0  0  0  0  0  0  0
   17.0931   -7.7789  -11.5395 C   0  0  2  0  0  0  0  0  0  0  0  0
   16.6353   -7.4060  -10.1573 N   0  0  0  0  0  0  0  0  0  0  0  0
   18.3176   -6.9356  -11.7108 C   0  0  0  0  0  0  0  0  0  0  0  0
   18.3969   -5.7627  -11.2998 O   0  0  0  0  0  0  0  0  0  0  0  0
   16.5086   -7.0207  -18.4979 C   0  0  0  0  0  0  0  0  0  0  0  0
   21.9181   -7.7373  -10.7245 C   0  0  2  0  0  0  0  0  0  0  0  0
   21.9453   -7.2970  -12.1744 C   0  0  0  0  0  0  0  0  0  0  0  0
   22.0601   -8.5417  -13.0310 C   0  0  2  0  0  0  0  0  0  0  0  0
   20.6535   -6.5557  -12.4569 N   0  0  0  0  0  0  0  0  0  0  0  0
   19.5037   -7.4309  -12.3726 C   0  0  0  0  0  0  0  0  0  0  0  0
   20.7694   -5.9733  -13.8298 O   0  0  0  0  0  0  0  0  0  0  0  0
   21.6311   -4.9373  -14.1186 O   0  0  0  0  0  0  0  0  0  0  0  0
  2  5  1  0
  2  1  1  1
  3  4  1  0
  3  2  1  0
  5  6  2  0
  7  8  1  0
  8  9  2  0
  8 10  1  0
 10 11  1  0
 11 12  1  0
 12 13  1  0
 14 13  1  6
 15  5  1  0
 15 14  1  0
 16 14  1  0
 16 17  2  0
 19 18  1  1
 19 21  1  0
 20 19  1  0
 21 22  1  6
 21 23  1  0
 22 16  1  0
 23 24  1  0
 25 23  2  0
M  END
$$$$
