CRV.pdb
     RDKit          3D

 25 24  0  0  1  0  0  0  0  0999 V2000
   20.1145  -20.8644  -17.7435 N   0  0  0  0  0  0  0  0  0  0  0  0
   20.6168  -19.8384  -16.8505 C   0  0  1  0  0  0  0  0  0  0  0  0
   19.5607  -19.5881  -15.8229 C   0  0  0  0  0  0  0  0  0  0  0  0
   19.8795  -18.1196  -14.8309 S   0  0  0  0  0  0  0  0  0  0  0  0
   21.9320  -20.2173  -16.3251 C   0  0  0  0  0  0  0  0  0  0  0  0
   22.1411  -21.4387  -16.0496 O   0  0  0  0  0  0  0  0  0  0  0  0
   27.4333  -22.2267  -17.7173 N   0  0  0  0  0  0  0  0  0  0  0  0
   28.2435  -21.8077  -16.6181 C   0  0  0  0  0  0  0  0  0  0  0  0
   28.9020  -22.6665  -15.8926 N   0  0  0  0  0  0  0  0  0  0  0  0
   28.3734  -20.4410  -16.2587 N   0  0  0  0  0  0  0  0  0  0  0  0
   27.7076  -19.3685  -17.0586 C   0  0  0  0  0  0  0  0  0  0  0  0
   26.7200  -18.7687  -16.1347 C   0  0  0  0  0  0  0  0  0  0  0  0
   25.2915  -18.7809  -16.3475 C   0  0  0  0  0  0  0  0  0  0  0  0
   24.3234  -19.6646  -15.6788 C   0  0  2  0  0  0  0  0  0  0  0  0
   22.9465  -19.2631  -16.1283 N   0  0  0  0  0  0  0  0  0  0  0  0
   24.2615  -19.4264  -14.2025 C   0  0  0  0  0  0  0  0  0  0  0  0
   23.7258  -18.4213  -13.6990 O   0  0  0  0  0  0  0  0  0  0  0  0
   29.5174  -22.3003  -15.1310 C   0  0  0  0  0  0  0  0  0  0  0  0
   23.0143  -21.6868  -11.4805 C   0  0  2  0  0  0  0  0  0  0  0  0
   24.3669  -21.2055  -10.9953 C   0  0  0  0  0  0  0  0  0  0  0  0
   25.3478  -22.3489  -11.1590 C   0  0  2  0  0  0  0  0  0  0  0  0
   24.7667  -20.0158  -11.8456 N   0  0  0  0  0  0  0  0  0  0  0  0
   24.8261  -20.3571  -13.2510 C   0  0  0  0  0  0  0  0  0  0  0  0
   26.1051  -19.5561  -11.3608 O   0  0  0  0  0  0  0  0  0  0  0  0
   26.2800  -18.9811  -10.1207 O   0  0  0  0  0  0  0  0  0  0  0  0
  2  5  1  0
  2  1  1  6
  3  4  1  0
  3  2  1  0
  5  6  2  0
  7  8  1  0
  8  9  2  0
  8 10  1  0
 10 11  1  0
 11 12  1  0
 12 13  1  0
 14 13  1  6
 15  5  1  0
 15 14  1  0
 16 14  1  0
 16 17  2  0
 19 18  1  1
 19 21  1  0
 20 19  1  0
 21 22  1  1
 21 23  1  0
 22 16  1  0
 23 24  1  0
 25 23  2  0
M  END
$$$$
