CRV.pdb
     RDKit          3D

 25 24  0  0  1  0  0  0  0  0999 V2000
   27.3366  -20.5667   -9.9212 N   0  0  0  0  0  0  0  0  0  0  0  0
   25.9095  -20.7572  -10.0925 C   0  0  1  0  0  0  0  0  0  0  0  0
   25.2327  -20.1205   -8.9219 C   0  0  0  0  0  0  0  0  0  0  0  0
   25.4315  -21.0598   -7.3987 S   0  0  0  0  0  0  0  0  0  0  0  0
   25.4836  -20.2724  -11.4089 C   0  0  0  0  0  0  0  0  0  0  0  0
   25.7998  -19.0902  -11.7461 O   0  0  0  0  0  0  0  0  0  0  0  0
   25.7393  -24.3673  -18.0579 N   0  0  0  0  0  0  0  0  0  0  0  0
   26.1110  -24.5680  -16.6934 C   0  0  0  0  0  0  0  0  0  0  0  0
   26.0485  -25.7448  -16.1378 N   0  0  0  0  0  0  0  0  0  0  0  0
   26.5652  -23.5021  -15.8740 N   0  0  0  0  0  0  0  0  0  0  0  0
   26.7609  -22.1306  -16.4342 C   0  0  0  0  0  0  0  0  0  0  0  0
   26.1878  -21.2232  -15.4160 C   0  0  0  0  0  0  0  0  0  0  0  0
   25.0053  -21.5123  -14.6386 C   0  0  0  0  0  0  0  0  0  0  0  0
   24.3684  -20.6132  -13.6633 C   0  0  2  0  0  0  0  0  0  0  0  0
   24.7450  -21.0858  -12.2871 N   0  0  0  0  0  0  0  0  0  0  0  0
   22.8780  -20.7494  -13.6531 C   0  0  0  0  0  0  0  0  0  0  0  0
   22.2872  -21.7024  -13.1113 O   0  0  0  0  0  0  0  0  0  0  0  0
   26.3171  -25.8304  -15.1311 C   0  0  0  0  0  0  0  0  0  0  0  0
   20.2887  -18.2372  -12.4394 C   0  0  2  0  0  0  0  0  0  0  0  0
   19.8776  -18.6515  -13.8380 C   0  0  0  0  0  0  0  0  0  0  0  0
   20.3023  -17.5498  -14.7877 C   0  0  2  0  0  0  0  0  0  0  0  0
   20.5830  -19.9540  -14.1606 N   0  0  0  0  0  0  0  0  0  0  0  0
   22.0142  -19.7735  -14.2789 C   0  0  0  0  0  0  0  0  0  0  0  0
   20.0103  -20.4598  -15.4467 O   0  0  0  0  0  0  0  0  0  0  0  0
   20.7682  -20.5822  -16.5911 O   0  0  0  0  0  0  0  0  0  0  0  0
  2  5  1  0
  2  1  1  1
  3  4  1  0
  3  2  1  0
  5  6  2  0
  7  8  1  0
  8  9  2  0
  8 10  1  0
 10 11  1  0
 11 12  1  0
 12 13  1  0
 14 13  1  6
 15  5  1  0
 15 14  1  0
 16 14  1  0
 16 17  2  0
 19 18  1  1
 19 21  1  0
 20 19  1  0
 21 22  1  6
 21 23  1  0
 22 16  1  0
 23 24  1  0
 25 23  2  0
M  END
$$$$
