CRV.pdb
     RDKit          3D

 25 24  0  0  1  0  0  0  0  0999 V2000
   19.8833  -10.5268  -16.4986 N   0  0  0  0  0  0  0  0  0  0  0  0
   20.0898  -10.2829  -15.0843 C   0  0  1  0  0  0  0  0  0  0  0  0
   21.4123   -9.6020  -14.9395 C   0  0  0  0  0  0  0  0  0  0  0  0
   22.8034  -10.7414  -15.0319 S   0  0  0  0  0  0  0  0  0  0  0  0
   18.9443   -9.5650  -14.5169 C   0  0  0  0  0  0  0  0  0  0  0  0
   18.5470   -8.5094  -15.0993 O   0  0  0  0  0  0  0  0  0  0  0  0
   11.8012  -13.2583  -11.8328 N   0  0  0  0  0  0  0  0  0  0  0  0
   12.0408  -11.8657  -11.6234 C   0  0  0  0  0  0  0  0  0  0  0  0
   11.1969  -11.1220  -10.9661 N   0  0  0  0  0  0  0  0  0  0  0  0
   13.2041  -11.2210  -12.1182 N   0  0  0  0  0  0  0  0  0  0  0  0
   14.2551  -11.9881  -12.8532 C   0  0  0  0  0  0  0  0  0  0  0  0
   15.2386  -10.9673  -13.2766 C   0  0  0  0  0  0  0  0  0  0  0  0
   16.1093  -10.2498  -12.3747 C   0  0  0  0  0  0  0  0  0  0  0  0
   17.1372   -9.2697  -12.7593 C   0  0  2  0  0  0  0  0  0  0  0  0
   18.2910  -10.0237  -13.3588 N   0  0  0  0  0  0  0  0  0  0  0  0
   17.7665   -8.6103  -11.5722 C   0  0  0  0  0  0  0  0  0  0  0  0
   18.4263   -9.2338  -10.7198 O   0  0  0  0  0  0  0  0  0  0  0  0
   11.3714  -10.0919  -10.9289 C   0  0  0  0  0  0  0  0  0  0  0  0
   20.4282   -6.3187  -11.3680 C   0  0  2  0  0  0  0  0  0  0  0  0
   19.3598   -5.6090  -10.5608 C   0  0  0  0  0  0  0  0  0  0  0  0
   18.7630   -4.5272  -11.4382 C   0  0  2  0  0  0  0  0  0  0  0  0
   18.3151   -6.6364  -10.1721 N   0  0  0  0  0  0  0  0  0  0  0  0
   17.6493   -7.1894  -11.3322 C   0  0  0  0  0  0  0  0  0  0  0  0
   17.3301   -5.9492   -9.2803 O   0  0  0  0  0  0  0  0  0  0  0  0
   17.6560   -5.5337   -8.0074 O   0  0  0  0  0  0  0  0  0  0  0  0
  2  5  1  0
  2  1  1  6
  3  4  1  0
  3  2  1  0
  5  6  2  0
  7  8  1  0
  8  9  2  0
  8 10  1  0
 10 11  1  0
 11 12  1  0
 12 13  1  0
 14 13  1  1
 15  5  1  0
 15 14  1  0
 16 14  1  0
 16 17  2  0
 19 18  1  1
 19 21  1  0
 20 19  1  0
 21 22  1  1
 21 23  1  0
 22 16  1  0
 23 24  1  0
 25 23  2  0
M  END
$$$$
