CRV.pdb
     RDKit          3D

 25 24  0  0  1  0  0  0  0  0999 V2000
   29.0023  -26.0618  -16.3835 N   0  0  0  0  0  0  0  0  0  0  0  0
   28.1375  -27.0835  -16.9409 C   0  0  1  0  0  0  0  0  0  0  0  0
   27.6669  -26.5899  -18.2708 C   0  0  0  0  0  0  0  0  0  0  0  0
   26.6628  -25.0999  -18.1523 S   0  0  0  0  0  0  0  0  0  0  0  0
   28.8214  -28.3802  -16.9545 C   0  0  0  0  0  0  0  0  0  0  0  0
   30.0847  -28.3932  -17.0773 O   0  0  0  0  0  0  0  0  0  0  0  0
   25.7485  -35.0876  -12.6004 N   0  0  0  0  0  0  0  0  0  0  0  0
   26.2390  -33.7460  -12.6079 C   0  0  0  0  0  0  0  0  0  0  0  0
   25.9724  -32.9192  -11.6370 N   0  0  0  0  0  0  0  0  0  0  0  0
   27.0379  -33.2444  -13.6680 N   0  0  0  0  0  0  0  0  0  0  0  0
   27.3246  -34.0766  -14.8757 C   0  0  0  0  0  0  0  0  0  0  0  0
   28.1755  -33.2192  -15.7298 C   0  0  0  0  0  0  0  0  0  0  0  0
   28.0012  -31.7939  -15.8858 C   0  0  0  0  0  0  0  0  0  0  0  0
   28.8180  -30.9085  -16.7309 C   0  0  2  0  0  0  0  0  0  0  0  0
   28.1091  -29.5871  -16.8332 N   0  0  0  0  0  0  0  0  0  0  0  0
   28.8589  -31.3622  -18.1566 C   0  0  0  0  0  0  0  0  0  0  0  0
   27.8809  -31.2809  -18.9231 O   0  0  0  0  0  0  0  0  0  0  0  0
   26.3796  -31.9574  -11.6817 C   0  0  0  0  0  0  0  0  0  0  0  0
   30.7226  -30.2965  -21.2202 C   0  0  2  0  0  0  0  0  0  0  0  0
   31.0954  -31.7417  -20.9573 C   0  0  0  0  0  0  0  0  0  0  0  0
   32.4112  -31.7479  -20.2058 C   0  0  2  0  0  0  0  0  0  0  0  0
   29.9885  -32.3613  -20.1273 N   0  0  0  0  0  0  0  0  0  0  0  0
   30.0496  -31.9321  -18.7462 C   0  0  0  0  0  0  0  0  0  0  0  0
   30.1432  -33.8461  -20.2221 O   0  0  0  0  0  0  0  0  0  0  0  0
   30.5167  -34.6167  -19.1425 O   0  0  0  0  0  0  0  0  0  0  0  0
  2  5  1  0
  2  1  1  6
  3  4  1  0
  3  2  1  0
  5  6  2  0
  7  8  1  0
  8  9  2  0
  8 10  1  0
 10 11  1  0
 11 12  1  0
 12 13  1  0
 14 13  1  1
 15  5  1  0
 15 14  1  0
 16 14  1  0
 16 17  2  0
 19 18  1  6
 19 21  1  0
 20 19  1  0
 21 22  1  6
 21 23  1  0
 22 16  1  0
 23 24  1  0
 25 23  2  0
M  END
$$$$
