NWT.pdb
     RDKit          3D

 30 31  0  0  1  0  0  0  0  0999 V2000
    6.7626  -12.9709   18.2631 N   0  0  0  0  0  0  0  0  0  0  0  0
    7.9194  -13.6888   18.5445 C   0  0  0  0  0  0  0  0  0  0  0  0
    8.4864  -14.3431   17.6064 O   0  0  0  0  0  0  0  0  0  0  0  0
    8.5405  -13.7307   19.8967 C   0  0  0  0  0  0  0  0  0  0  0  0
    8.5934  -15.2434   20.3015 C   0  0  2  0  0  0  0  0  0  0  0  0
    7.2447  -15.6512   20.4779 N   0  0  0  0  0  0  0  0  0  0  0  0
    9.4327  -15.3176   21.5523 C   0  0  0  0  0  0  0  0  0  0  0  0
   10.5751  -14.8852   21.5206 O   0  0  0  0  0  0  0  0  0  0  0  0
    8.8860  -15.8962   22.7425 N   0  0  0  0  0  0  0  0  0  0  0  0
    9.4182  -16.0562   24.0038 C   0  0  1  0  0  0  0  0  0  0  0  0
    8.7039  -15.8920   25.2995 C   0  0  0  0  0  0  0  0  0  0  0  0
    7.5327  -15.0440   25.4126 C   0  0  0  0  0  0  0  0  0  0  0  0
    6.1796  -15.4502   25.3430 C   0  0  0  0  0  0  0  0  0  0  0  0
    5.3860  -14.4120   25.5943 N   0  0  0  0  0  0  0  0  0  0  0  0
    6.1812  -13.3212   25.8282 C   0  0  0  0  0  0  0  0  0  0  0  0
    5.8589  -11.9937   26.0935 C   0  0  0  0  0  0  0  0  0  0  0  0
    6.8648  -11.0873   26.2342 C   0  0  0  0  0  0  0  0  0  0  0  0
    8.1752  -11.4353   26.1293 C   0  0  0  0  0  0  0  0  0  0  0  0
    8.5057  -12.7625   25.8667 C   0  0  0  0  0  0  0  0  0  0  0  0
    7.4783  -13.7130   25.7145 C   0  0  0  0  0  0  0  0  0  0  0  0
   10.1740  -17.3794   24.1406 C   0  0  0  0  0  0  0  0  0  0  0  0
    9.4404  -18.3922   24.1880 O   0  0  0  0  0  0  0  0  0  0  0  0
   13.0864  -18.7006   22.0358 C   0  0  0  0  0  0  0  0  0  0  0  0
   13.5099  -18.7608   23.5215 C   0  0  1  0  0  0  0  0  0  0  0  0
   14.3316  -17.6758   23.7888 O   0  0  0  0  0  0  0  0  0  0  0  0
   12.2479  -18.7802   24.3227 C   0  0  2  0  0  0  0  0  0  0  0  0
   11.5567  -17.4827   24.2003 N   0  0  0  0  0  0  0  0  0  0  0  0
   12.6285  -18.9610   25.7669 C   0  0  0  0  0  0  0  0  0  0  0  0
   12.4381  -18.0225   26.5993 O   0  0  0  0  0  0  0  0  0  0  0  0
   13.1858  -20.1352   26.2198 O   0  0  0  0  0  0  0  0  0  0  0  0
  2  1  1  0
  2  3  2  0
  4  2  1  0
  5  7  1  0
  5  4  1  0
  5  6  1  1
  7  8  2  0
  9 10  1  0
  9  7  1  0
 10 21  1  0
 11 12  1  0
 10 11  1  1
 12 13  2  0
 14 13  1  0
 15 14  1  0
 16 15  2  0
 17 16  1  0
 18 19  1  0
 18 17  2  0
 19 20  2  0
 20 15  1  0
 20 12  1  0
 21 22  2  0
 24 23  1  6
 24 25  1  0
 24 26  1  0
 26 28  1  0
 26 27  1  1
 27 21  1  0
 28 29  2  0
 28 30  1  0
M  END
$$$$
