NWT.pdb
     RDKit          3D

 30 31  0  0  1  0  0  0  0  0999 V2000
    7.1094  -12.8928   18.1932 N   0  0  0  0  0  0  0  0  0  0  0  0
    8.0933  -13.7704   18.6345 C   0  0  0  0  0  0  0  0  0  0  0  0
    8.6044  -14.5959   17.8058 O   0  0  0  0  0  0  0  0  0  0  0  0
    8.5903  -13.7943   20.0374 C   0  0  0  0  0  0  0  0  0  0  0  0
    8.7907  -15.3054   20.3994 C   0  0  2  0  0  0  0  0  0  0  0  0
    7.4896  -15.8701   20.4671 N   0  0  0  0  0  0  0  0  0  0  0  0
    9.5468  -15.3313   21.7041 C   0  0  0  0  0  0  0  0  0  0  0  0
   10.6535  -14.8154   21.7529 O   0  0  0  0  0  0  0  0  0  0  0  0
    8.9656  -15.9618   22.8508 N   0  0  0  0  0  0  0  0  0  0  0  0
    9.4482  -16.1502   24.1280 C   0  0  1  0  0  0  0  0  0  0  0  0
    8.6699  -16.0747   25.3946 C   0  0  0  0  0  0  0  0  0  0  0  0
    7.5348  -15.1820   25.5300 C   0  0  0  0  0  0  0  0  0  0  0  0
    6.1691  -15.5134   25.3689 C   0  0  0  0  0  0  0  0  0  0  0  0
    5.4132  -14.4617   25.6740 N   0  0  0  0  0  0  0  0  0  0  0  0
    6.2458  -13.4348   26.0334 C   0  0  0  0  0  0  0  0  0  0  0  0
    5.9728  -12.1196   26.3970 C   0  0  0  0  0  0  0  0  0  0  0  0
    7.0116  -11.2790   26.6567 C   0  0  0  0  0  0  0  0  0  0  0  0
    8.3081  -11.6817   26.5781 C   0  0  0  0  0  0  0  0  0  0  0  0
    8.5893  -12.9972   26.2175 C   0  0  0  0  0  0  0  0  0  0  0  0
    7.5275  -13.8797   25.9416 C   0  0  0  0  0  0  0  0  0  0  0  0
   10.2607  -17.4413   24.2463 C   0  0  0  0  0  0  0  0  0  0  0  0
    9.6102  -18.4853   24.0159 O   0  0  0  0  0  0  0  0  0  0  0  0
   14.3821  -17.3669   24.4983 C   0  0  0  0  0  0  0  0  0  0  0  0
   13.6614  -18.5763   23.8595 C   0  0  1  0  0  0  0  0  0  0  0  0
   14.5026  -19.6770   23.9302 O   0  0  0  0  0  0  0  0  0  0  0  0
   12.3749  -18.7451   24.6018 C   0  0  2  0  0  0  0  0  0  0  0  0
   11.6093  -17.4845   24.5709 N   0  0  0  0  0  0  0  0  0  0  0  0
   12.7134  -19.0392   26.0379 C   0  0  0  0  0  0  0  0  0  0  0  0
   12.4920  -18.1712   26.9364 O   0  0  0  0  0  0  0  0  0  0  0  0
   13.2647  -20.2436   26.4123 O   0  0  0  0  0  0  0  0  0  0  0  0
  2  1  1  0
  2  3  2  0
  4  2  1  0
  5  7  1  0
  5  4  1  0
  5  6  1  1
  7  8  2  0
  9 10  1  0
  9  7  1  0
 10 21  1  0
 11 12  1  0
 10 11  1  1
 12 13  2  0
 14 13  1  0
 15 14  1  0
 16 15  2  0
 17 16  1  0
 18 19  1  0
 18 17  2  0
 19 20  2  0
 20 15  1  0
 20 12  1  0
 21 22  2  0
 24 23  1  1
 24 25  1  0
 24 26  1  0
 26 28  1  0
 26 27  1  1
 27 21  1  0
 28 29  2  0
 28 30  1  0
M  END
$$$$
