NWT.pdb
     RDKit          3D

 30 31  0  0  1  0  0  0  0  0999 V2000
   10.0460  -15.7484   18.0287 N   0  0  0  0  0  0  0  0  0  0  0  0
    9.0932  -15.9427   19.0223 C   0  0  0  0  0  0  0  0  0  0  0  0
    7.9784  -16.4832   18.7148 O   0  0  0  0  0  0  0  0  0  0  0  0
    9.3100  -15.5532   20.4425 C   0  0  0  0  0  0  0  0  0  0  0  0
    9.7226  -16.8654   21.1926 C   0  0  2  0  0  0  0  0  0  0  0  0
    8.5894  -17.7198   21.1438 N   0  0  0  0  0  0  0  0  0  0  0  0
   10.1256  -16.4482   22.5848 C   0  0  0  0  0  0  0  0  0  0  0  0
   10.9970  -15.6016   22.7160 O   0  0  0  0  0  0  0  0  0  0  0  0
    9.4936  -17.0515   23.7192 N   0  0  0  0  0  0  0  0  0  0  0  0
    9.6838  -16.8669   25.0717 C   0  0  1  0  0  0  0  0  0  0  0  0
    8.7053  -16.2998   26.0397 C   0  0  0  0  0  0  0  0  0  0  0  0
    7.6581  -15.3931   25.6095 C   0  0  0  0  0  0  0  0  0  0  0  0
    6.4368  -15.7402   24.9861 C   0  0  0  0  0  0  0  0  0  0  0  0
    5.6856  -14.6524   24.8342 N   0  0  0  0  0  0  0  0  0  0  0  0
    6.3809  -13.5864   25.3414 C   0  0  0  0  0  0  0  0  0  0  0  0
    6.0697  -12.2310   25.3916 C   0  0  0  0  0  0  0  0  0  0  0  0
    6.9820  -11.3647   25.9115 C   0  0  0  0  0  0  0  0  0  0  0  0
    8.1861  -11.7789   26.3887 C   0  0  0  0  0  0  0  0  0  0  0  0
    8.5037  -13.1342   26.3445 C   0  0  0  0  0  0  0  0  0  0  0  0
    7.5737  -14.0443   25.8067 C   0  0  0  0  0  0  0  0  0  0  0  0
   10.2160  -18.1304   25.7508 C   0  0  0  0  0  0  0  0  0  0  0  0
    9.4261  -19.1009   25.7306 O   0  0  0  0  0  0  0  0  0  0  0  0
   13.5473  -19.8979   25.2050 C   0  0  0  0  0  0  0  0  0  0  0  0
   13.4034  -19.6483   26.7240 C   0  0  1  0  0  0  0  0  0  0  0  0
   14.1806  -18.5512   27.0649 O   0  0  0  0  0  0  0  0  0  0  0  0
   11.9434  -19.4651   26.9880 C   0  0  2  0  0  0  0  0  0  0  0  0
   11.4684  -18.2276   26.3407 N   0  0  0  0  0  0  0  0  0  0  0  0
   11.7667  -19.3012   28.4730 C   0  0  0  0  0  0  0  0  0  0  0  0
   11.3705  -18.1942   28.9501 O   0  0  0  0  0  0  0  0  0  0  0  0
   12.0253  -20.3349   29.3442 O   0  0  0  0  0  0  0  0  0  0  0  0
  2  1  1  0
  2  3  2  0
  4  2  1  0
  5  7  1  0
  5  4  1  0
  5  6  1  1
  7  8  2  0
  9 10  1  0
  9  7  1  0
 10 21  1  0
 11 12  1  0
 10 11  1  1
 12 13  2  0
 14 13  1  0
 15 14  1  0
 16 15  2  0
 17 16  1  0
 18 19  1  0
 18 17  2  0
 19 20  2  0
 20 15  1  0
 20 12  1  0
 21 22  2  0
 24 23  1  6
 24 25  1  0
 24 26  1  0
 26 28  1  0
 26 27  1  6
 27 21  1  0
 28 29  2  0
 28 30  1  0
M  END
$$$$
