NWT.pdb
     RDKit          3D

 30 31  0  0  1  0  0  0  0  0999 V2000
    6.7296  -17.5768   18.2637 N   0  0  0  0  0  0  0  0  0  0  0  0
    7.7651  -16.6751   18.0453 C   0  0  0  0  0  0  0  0  0  0  0  0
    8.3524  -16.6684   16.9120 O   0  0  0  0  0  0  0  0  0  0  0  0
    8.2263  -15.7034   19.0744 C   0  0  0  0  0  0  0  0  0  0  0  0
    7.4107  -16.0283   20.3721 C   0  0  2  0  0  0  0  0  0  0  0  0
    6.2073  -15.2804   20.2784 N   0  0  0  0  0  0  0  0  0  0  0  0
    8.2921  -15.6425   21.5335 C   0  0  0  0  0  0  0  0  0  0  0  0
    8.9399  -14.6088   21.4623 O   0  0  0  0  0  0  0  0  0  0  0  0
    8.3623  -16.4899   22.6856 N   0  0  0  0  0  0  0  0  0  0  0  0
    9.0322  -16.3460   23.8814 C   0  0  1  0  0  0  0  0  0  0  0  0
    8.4240  -16.1341   25.2235 C   0  0  0  0  0  0  0  0  0  0  0  0
    7.3894  -15.1397   25.4339 C   0  0  0  0  0  0  0  0  0  0  0  0
    5.9967  -15.3690   25.5275 C   0  0  0  0  0  0  0  0  0  0  0  0
    5.3739  -14.2319   25.8270 N   0  0  0  0  0  0  0  0  0  0  0  0
    6.3215  -13.2482   25.9332 C   0  0  0  0  0  0  0  0  0  0  0  0
    6.2012  -11.8848   26.1845 C   0  0  0  0  0  0  0  0  0  0  0  0
    7.3227  -11.1131   26.1815 C   0  0  0  0  0  0  0  0  0  0  0  0
    8.5584  -11.6297   25.9461 C   0  0  0  0  0  0  0  0  0  0  0  0
    8.6872  -12.9938   25.6965 C   0  0  0  0  0  0  0  0  0  0  0  0
    7.5376  -13.8067   25.6921 C   0  0  0  0  0  0  0  0  0  0  0  0
   10.0665  -17.4535   24.0929 C   0  0  0  0  0  0  0  0  0  0  0  0
    9.5769  -18.5862   24.3016 O   0  0  0  0  0  0  0  0  0  0  0  0
   13.4647  -17.7552   22.1191 C   0  0  0  0  0  0  0  0  0  0  0  0
   13.7197  -17.9797   23.6274 C   0  0  1  0  0  0  0  0  0  0  0  0
   14.2730  -16.8231   24.1568 O   0  0  0  0  0  0  0  0  0  0  0  0
   12.4040  -18.3555   24.2295 C   0  0  2  0  0  0  0  0  0  0  0  0
   11.4392  -17.2535   24.0535 N   0  0  0  0  0  0  0  0  0  0  0  0
   12.6171  -18.5450   25.7067 C   0  0  0  0  0  0  0  0  0  0  0  0
   12.0543  -17.7684   26.5374 O   0  0  0  0  0  0  0  0  0  0  0  0
   13.4176  -19.5541   26.1919 O   0  0  0  0  0  0  0  0  0  0  0  0
  2  1  1  0
  2  3  2  0
  4  2  1  0
  5  7  1  0
  5  4  1  0
  5  6  1  6
  7  8  2  0
  9 10  1  0
  9  7  1  0
 10 21  1  0
 11 12  1  0
 10 11  1  1
 12 13  2  0
 14 13  1  0
 15 14  1  0
 16 15  2  0
 17 16  1  0
 18 19  1  0
 18 17  2  0
 19 20  2  0
 20 15  1  0
 20 12  1  0
 21 22  2  0
 24 23  1  6
 24 25  1  0
 24 26  1  0
 26 28  1  0
 26 27  1  1
 27 21  1  0
 28 29  2  0
 28 30  1  0
M  END
$$$$
