NWT.pdb
     RDKit          3D

 30 31  0  0  1  0  0  0  0  0999 V2000
   12.4038  -15.4518   18.8130 N   0  0  0  0  0  0  0  0  0  0  0  0
   11.2631  -15.7433   19.5523 C   0  0  0  0  0  0  0  0  0  0  0  0
   10.2744  -16.3040   18.9713 O   0  0  0  0  0  0  0  0  0  0  0  0
   11.1354  -15.4363   21.0033 C   0  0  0  0  0  0  0  0  0  0  0  0
   11.0916  -16.8205   21.7359 C   0  0  2  0  0  0  0  0  0  0  0  0
    9.9033  -17.4615   21.2961 N   0  0  0  0  0  0  0  0  0  0  0  0
   11.1234  -16.5186   23.2132 C   0  0  0  0  0  0  0  0  0  0  0  0
   12.1141  -15.9782   23.6819 O   0  0  0  0  0  0  0  0  0  0  0  0
   10.0072  -16.8749   24.0362 N   0  0  0  0  0  0  0  0  0  0  0  0
    9.7736  -16.6908   25.3820 C   0  0  1  0  0  0  0  0  0  0  0  0
    8.5647  -16.0817   26.0012 C   0  0  0  0  0  0  0  0  0  0  0  0
    7.7912  -15.0694   25.3079 C   0  0  0  0  0  0  0  0  0  0  0  0
    7.1101  -15.2154   24.0768 C   0  0  0  0  0  0  0  0  0  0  0  0
    6.4255  -14.1064   23.8084 N   0  0  0  0  0  0  0  0  0  0  0  0
    6.6372  -13.2226   24.8337 C   0  0  0  0  0  0  0  0  0  0  0  0
    6.1935  -11.9173   25.0231 C   0  0  0  0  0  0  0  0  0  0  0  0
    6.6058  -11.2352   26.1266 C   0  0  0  0  0  0  0  0  0  0  0  0
    7.4332  -11.7873   27.0539 C   0  0  0  0  0  0  0  0  0  0  0  0
    7.8793  -13.0941   26.8727 C   0  0  0  0  0  0  0  0  0  0  0  0
    7.4659  -13.8136   25.7352 C   0  0  0  0  0  0  0  0  0  0  0  0
   10.0194  -17.9703   26.1841 C   0  0  0  0  0  0  0  0  0  0  0  0
    9.1605  -18.8636   26.0100 O   0  0  0  0  0  0  0  0  0  0  0  0
   12.4677  -20.4645   25.9605 C   0  0  0  0  0  0  0  0  0  0  0  0
   12.5903  -20.0362   27.4410 C   0  0  1  0  0  0  0  0  0  0  0  0
   13.6847  -19.1930   27.5656 O   0  0  0  0  0  0  0  0  0  0  0  0
   11.2881  -19.4011   27.8089 C   0  0  2  0  0  0  0  0  0  0  0  0
   11.0995  -18.1595   27.0348 N   0  0  0  0  0  0  0  0  0  0  0  0
   11.3597  -19.0261   29.2641 C   0  0  0  0  0  0  0  0  0  0  0  0
   11.3691  -17.8049   29.6087 O   0  0  0  0  0  0  0  0  0  0  0  0
   11.4151  -19.9852   30.2497 O   0  0  0  0  0  0  0  0  0  0  0  0
  2  1  1  0
  2  3  2  0
  4  2  1  0
  5  7  1  0
  5  4  1  0
  5  6  1  1
  7  8  2  0
  9 10  1  0
  9  7  1  0
 10 21  1  0
 11 12  1  0
 10 11  1  6
 12 13  2  0
 14 13  1  0
 15 14  1  0
 16 15  2  0
 17 16  1  0
 18 19  1  0
 18 17  2  0
 19 20  2  0
 20 15  1  0
 20 12  1  0
 21 22  2  0
 24 23  1  6
 24 25  1  0
 24 26  1  0
 26 28  1  0
 26 27  1  6
 27 21  1  0
 28 29  2  0
 28 30  1  0
M  END
$$$$
