NWT.pdb
     RDKit          3D

 30 31  0  0  1  0  0  0  0  0999 V2000
    8.5359  -12.6118   17.9668 N   0  0  0  0  0  0  0  0  0  0  0  0
    7.8652  -13.6562   18.5932 C   0  0  0  0  0  0  0  0  0  0  0  0
    7.2246  -14.4982   17.8791 O   0  0  0  0  0  0  0  0  0  0  0  0
    7.8594  -13.8481   20.0694 C   0  0  0  0  0  0  0  0  0  0  0  0
    8.6080  -15.1990   20.3327 C   0  0  2  0  0  0  0  0  0  0  0  0
    7.6108  -16.2100   20.3240 N   0  0  0  0  0  0  0  0  0  0  0  0
    9.3177  -15.0389   21.6538 C   0  0  0  0  0  0  0  0  0  0  0  0
   10.2139  -14.2131   21.7438 O   0  0  0  0  0  0  0  0  0  0  0  0
    8.9402  -15.8555   22.7677 N   0  0  0  0  0  0  0  0  0  0  0  0
    9.4734  -15.9710   24.0334 C   0  0  1  0  0  0  0  0  0  0  0  0
    8.7427  -15.8383   25.3235 C   0  0  0  0  0  0  0  0  0  0  0  0
    7.5727  -14.9895   25.4435 C   0  0  0  0  0  0  0  0  0  0  0  0
    6.2195  -15.3877   25.3383 C   0  0  0  0  0  0  0  0  0  0  0  0
    5.4255  -14.3547   25.6088 N   0  0  0  0  0  0  0  0  0  0  0  0
    6.2205  -13.2751   25.8903 C   0  0  0  0  0  0  0  0  0  0  0  0
    5.8985  -11.9552   26.1918 C   0  0  0  0  0  0  0  0  0  0  0  0
    6.9051  -11.0579   26.3778 C   0  0  0  0  0  0  0  0  0  0  0  0
    8.2158  -11.4078   26.2841 C   0  0  0  0  0  0  0  0  0  0  0  0
    8.5461  -12.7274   25.9854 C   0  0  0  0  0  0  0  0  0  0  0  0
    7.5180  -13.6685   25.7862 C   0  0  0  0  0  0  0  0  0  0  0  0
   10.3075  -17.2444   24.1872 C   0  0  0  0  0  0  0  0  0  0  0  0
    9.6397  -18.2745   24.4305 O   0  0  0  0  0  0  0  0  0  0  0  0
   13.1586  -18.3266   21.8296 C   0  0  0  0  0  0  0  0  0  0  0  0
   13.6652  -18.4698   23.2833 C   0  0  1  0  0  0  0  0  0  0  0  0
   14.4929  -17.3939   23.5685 O   0  0  0  0  0  0  0  0  0  0  0  0
   12.4504  -18.5494   24.1508 C   0  0  2  0  0  0  0  0  0  0  0  0
   11.6891  -17.2888   24.0640 N   0  0  0  0  0  0  0  0  0  0  0  0
   12.9160  -18.7053   25.5728 C   0  0  0  0  0  0  0  0  0  0  0  0
   12.7056  -17.7826   26.4180 O   0  0  0  0  0  0  0  0  0  0  0  0
   13.5740  -19.8394   25.9914 O   0  0  0  0  0  0  0  0  0  0  0  0
  2  1  1  0
  2  3  2  0
  4  2  1  0
  5  7  1  0
  5  4  1  0
  5  6  1  1
  7  8  2  0
  9 10  1  0
  9  7  1  0
 10 21  1  0
 11 12  1  0
 10 11  1  1
 12 13  2  0
 14 13  1  0
 15 14  1  0
 16 15  2  0
 17 16  1  0
 18 19  1  0
 18 17  2  0
 19 20  2  0
 20 15  1  0
 20 12  1  0
 21 22  2  0
 24 23  1  6
 24 25  1  0
 24 26  1  0
 26 28  1  0
 26 27  1  1
 27 21  1  0
 28 29  2  0
 28 30  1  0
M  END
$$$$
