NWT.pdb
     RDKit          3D

 30 31  0  0  1  0  0  0  0  0999 V2000
    7.9436  -17.0827   17.7980 N   0  0  0  0  0  0  0  0  0  0  0  0
    7.9242  -15.7121   18.0301 C   0  0  0  0  0  0  0  0  0  0  0  0
    7.7435  -14.9193   17.0461 O   0  0  0  0  0  0  0  0  0  0  0  0
    8.1004  -15.1148   19.3822 C   0  0  0  0  0  0  0  0  0  0  0  0
    8.2585  -16.3206   20.3701 C   0  0  2  0  0  0  0  0  0  0  0  0
    6.9421  -16.6930   20.7507 N   0  0  0  0  0  0  0  0  0  0  0  0
    9.1166  -15.8260   21.5075 C   0  0  0  0  0  0  0  0  0  0  0  0
    9.9261  -14.9368   21.2901 O   0  0  0  0  0  0  0  0  0  0  0  0
    8.9769  -16.4069   22.8088 N   0  0  0  0  0  0  0  0  0  0  0  0
    9.6571  -16.1775   23.9853 C   0  0  1  0  0  0  0  0  0  0  0  0
    9.0698  -15.7536   25.2859 C   0  0  0  0  0  0  0  0  0  0  0  0
    7.7734  -15.1066   25.3525 C   0  0  0  0  0  0  0  0  0  0  0  0
    6.5079  -15.7234   25.2158 C   0  0  0  0  0  0  0  0  0  0  0  0
    5.5470  -14.8306   25.4400 N   0  0  0  0  0  0  0  0  0  0  0  0
    6.1448  -13.6305   25.7215 C   0  0  0  0  0  0  0  0  0  0  0  0
    5.6014  -12.3767   25.9845 C   0  0  0  0  0  0  0  0  0  0  0  0
    6.4408  -11.3232   26.1809 C   0  0  0  0  0  0  0  0  0  0  0  0
    7.7935  -11.4545   26.1339 C   0  0  0  0  0  0  0  0  0  0  0  0
    8.3450  -12.7067   25.8739 C   0  0  0  0  0  0  0  0  0  0  0  0
    7.4919  -13.8071   25.6646 C   0  0  0  0  0  0  0  0  0  0  0  0
   10.5920  -17.3359   24.3391 C   0  0  0  0  0  0  0  0  0  0  0  0
   10.0108  -18.4232   24.5538 O   0  0  0  0  0  0  0  0  0  0  0  0
   13.8561  -18.2309   22.5103 C   0  0  0  0  0  0  0  0  0  0  0  0
   14.1571  -18.2202   24.0268 C   0  0  1  0  0  0  0  0  0  0  0  0
   14.8219  -17.0424   24.3348 O   0  0  0  0  0  0  0  0  0  0  0  0
   12.8429  -18.3766   24.7219 C   0  0  2  0  0  0  0  0  0  0  0  0
   11.9733  -17.2252   24.4149 N   0  0  0  0  0  0  0  0  0  0  0  0
   13.1076  -18.3676   26.2028 C   0  0  0  0  0  0  0  0  0  0  0  0
   12.7422  -17.3797   26.9104 O   0  0  0  0  0  0  0  0  0  0  0  0
   13.7443  -19.4181   26.8237 O   0  0  0  0  0  0  0  0  0  0  0  0
  2  1  1  0
  2  3  2  0
  4  2  1  0
  5  7  1  0
  5  4  1  0
  5  6  1  1
  7  8  2  0
  9 10  1  0
  9  7  1  0
 10 21  1  0
 11 12  1  0
 10 11  1  1
 12 13  2  0
 14 13  1  0
 15 14  1  0
 16 15  2  0
 17 16  1  0
 18 19  1  0
 18 17  2  0
 19 20  2  0
 20 15  1  0
 20 12  1  0
 21 22  2  0
 24 23  1  6
 24 25  1  0
 24 26  1  0
 26 28  1  0
 26 27  1  1
 27 21  1  0
 28 29  2  0
 28 30  1  0
M  END
$$$$
