NWT.pdb
     RDKit          3D

 30 31  0  0  1  0  0  0  0  0999 V2000
    8.5248  -12.6587   17.9629 N   0  0  0  0  0  0  0  0  0  0  0  0
    7.8799  -13.6072   18.7486 C   0  0  0  0  0  0  0  0  0  0  0  0
    7.0752  -14.4282   18.1938 O   0  0  0  0  0  0  0  0  0  0  0  0
    8.0851  -13.7192   20.2187 C   0  0  0  0  0  0  0  0  0  0  0  0
    8.8524  -15.0661   20.4467 C   0  0  2  0  0  0  0  0  0  0  0  0
    7.8908  -16.0989   20.2881 N   0  0  0  0  0  0  0  0  0  0  0  0
    9.4514  -14.9832   21.8284 C   0  0  0  0  0  0  0  0  0  0  0  0
   10.3251  -14.1559   22.0419 O   0  0  0  0  0  0  0  0  0  0  0  0
    8.9980  -15.8724   22.8549 N   0  0  0  0  0  0  0  0  0  0  0  0
    9.4234  -16.0559   24.1530 C   0  0  1  0  0  0  0  0  0  0  0  0
    8.6105  -15.8895   25.3889 C   0  0  0  0  0  0  0  0  0  0  0  0
    7.4979  -14.9604   25.4401 C   0  0  0  0  0  0  0  0  0  0  0  0
    6.1298  -15.2612   25.2437 C   0  0  0  0  0  0  0  0  0  0  0  0
    5.3946  -14.1757   25.4712 N   0  0  0  0  0  0  0  0  0  0  0  0
    6.2435  -13.1563   25.8132 C   0  0  0  0  0  0  0  0  0  0  0  0
    5.9964  -11.8182   26.1047 C   0  0  0  0  0  0  0  0  0  0  0  0
    7.0493  -10.9953   26.3636 C   0  0  0  0  0  0  0  0  0  0  0  0
    8.3354  -11.4369   26.3522 C   0  0  0  0  0  0  0  0  0  0  0  0
    8.5907  -12.7753   26.0640 C   0  0  0  0  0  0  0  0  0  0  0  0
    7.5141  -13.6403   25.7901 C   0  0  0  0  0  0  0  0  0  0  0  0
   10.1391  -17.3959   24.3349 C   0  0  0  0  0  0  0  0  0  0  0  0
    9.4010  -18.3985   24.2077 O   0  0  0  0  0  0  0  0  0  0  0  0
   13.1389  -18.5533   22.4728 C   0  0  0  0  0  0  0  0  0  0  0  0
   13.4713  -18.7814   23.9654 C   0  0  1  0  0  0  0  0  0  0  0  0
   14.3100  -17.7614   24.3899 O   0  0  0  0  0  0  0  0  0  0  0  0
   12.1641  -18.8349   24.6886 C   0  0  2  0  0  0  0  0  0  0  0  0
   11.4935  -17.5233   24.6094 N   0  0  0  0  0  0  0  0  0  0  0  0
   12.4569  -19.1118   26.1380 C   0  0  0  0  0  0  0  0  0  0  0  0
   12.1416  -18.2625   27.0264 O   0  0  0  0  0  0  0  0  0  0  0  0
   13.0663  -20.2801   26.5357 O   0  0  0  0  0  0  0  0  0  0  0  0
  2  1  1  0
  2  3  2  0
  4  2  1  0
  5  7  1  0
  5  4  1  0
  5  6  1  1
  7  8  2  0
  9 10  1  0
  9  7  1  0
 10 21  1  0
 11 12  1  0
 10 11  1  1
 12 13  2  0
 14 13  1  0
 15 14  1  0
 16 15  2  0
 17 16  1  0
 18 19  1  0
 18 17  2  0
 19 20  2  0
 20 15  1  0
 20 12  1  0
 21 22  2  0
 24 23  1  6
 24 25  1  0
 24 26  1  0
 26 28  1  0
 26 27  1  1
 27 21  1  0
 28 29  2  0
 28 30  1  0
M  END
$$$$
