NWT.pdb
     RDKit          3D

 30 31  0  0  1  0  0  0  0  0999 V2000
    8.0731  -15.1993   16.4833 N   0  0  0  0  0  0  0  0  0  0  0  0
    9.2094  -15.9601   16.7340 C   0  0  0  0  0  0  0  0  0  0  0  0
    9.4574  -16.9675   15.9903 O   0  0  0  0  0  0  0  0  0  0  0  0
   10.1648  -15.6547   17.8340 C   0  0  0  0  0  0  0  0  0  0  0  0
   10.0097  -16.8146   18.8758 C   0  0  2  0  0  0  0  0  0  0  0  0
    8.8351  -17.5216   18.5060 N   0  0  0  0  0  0  0  0  0  0  0  0
    9.9379  -16.1586   20.2319 C   0  0  0  0  0  0  0  0  0  0  0  0
   10.9046  -15.5270   20.6317 O   0  0  0  0  0  0  0  0  0  0  0  0
    8.7534  -16.2926   21.0252 N   0  0  0  0  0  0  0  0  0  0  0  0
    8.4703  -15.8905   22.3127 C   0  0  1  0  0  0  0  0  0  0  0  0
    7.1462  -15.4632   22.8418 C   0  0  0  0  0  0  0  0  0  0  0  0
    6.9727  -15.0991   24.2350 C   0  0  0  0  0  0  0  0  0  0  0  0
    6.6238  -15.9605   25.3014 C   0  0  0  0  0  0  0  0  0  0  0  0
    6.6610  -15.2901   26.4502 N   0  0  0  0  0  0  0  0  0  0  0  0
    7.0256  -13.9990   26.1726 C   0  0  0  0  0  0  0  0  0  0  0  0
    7.1693  -12.8902   27.0012 C   0  0  0  0  0  0  0  0  0  0  0  0
    7.4950  -11.6909   26.4458 C   0  0  0  0  0  0  0  0  0  0  0  0
    7.6899  -11.5395   25.1085 C   0  0  0  0  0  0  0  0  0  0  0  0
    7.5505  -12.6450   24.2731 C   0  0  0  0  0  0  0  0  0  0  0  0
    7.2104  -13.8927   24.8297 C   0  0  0  0  0  0  0  0  0  0  0  0
    9.0032  -16.8810   23.3500 C   0  0  0  0  0  0  0  0  0  0  0  0
    8.5071  -18.0274   23.2738 O   0  0  0  0  0  0  0  0  0  0  0  0
   12.6767  -18.5771   25.9647 C   0  0  0  0  0  0  0  0  0  0  0  0
   12.0870  -17.5223   25.0003 C   0  0  1  0  0  0  0  0  0  0  0  0
   12.5409  -17.7960   23.7185 O   0  0  0  0  0  0  0  0  0  0  0  0
   10.6012  -17.5951   25.1480 C   0  0  2  0  0  0  0  0  0  0  0  0
    9.9626  -16.5684   24.3028 N   0  0  0  0  0  0  0  0  0  0  0  0
   10.2703  -17.2782   26.5810 C   0  0  0  0  0  0  0  0  0  0  0  0
    9.8337  -16.1292   26.8960 O   0  0  0  0  0  0  0  0  0  0  0  0
   10.4287  -18.2145   27.5773 O   0  0  0  0  0  0  0  0  0  0  0  0
  2  1  1  0
  2  3  2  0
  4  2  1  0
  5  7  1  0
  5  4  1  0
  5  6  1  6
  7  8  2  0
  9 10  1  0
  9  7  1  0
 10 21  1  0
 11 12  1  0
 10 11  1  6
 12 13  2  0
 14 13  1  0
 15 14  1  0
 16 15  2  0
 17 16  1  0
 18 19  1  0
 18 17  2  0
 19 20  2  0
 20 15  1  0
 20 12  1  0
 21 22  2  0
 24 23  1  1
 24 25  1  0
 24 26  1  0
 26 28  1  0
 26 27  1  6
 27 21  1  0
 28 29  2  0
 28 30  1  0
M  END
$$$$
