AGN.pdb
     RDKit          3D

 18 17  0  0  1  0  0  0  0  0999 V2000
   17.1144  -11.0075  -17.1064 C   0  0  0  0  0  0  0  0  0  0  0  0
   17.5057   -9.7418  -16.4203 C   0  0  2  0  0  0  0  0  0  0  0  0
   17.9677   -8.7752  -17.3605 N   0  0  0  0  0  0  0  0  0  0  0  0
   18.4409   -9.9335  -15.2767 C   0  0  0  0  0  0  0  0  0  0  0  0
   18.5793  -11.0341  -14.6857 O   0  0  0  0  0  0  0  0  0  0  0  0
   19.2435   -8.8550  -14.7853 N   0  0  0  0  0  0  0  0  0  0  0  0
   20.1593   -8.9776  -13.7010 C   0  0  0  0  0  0  0  0  0  0  0  0
   21.0060   -7.7908  -13.4674 C   0  0  0  0  0  0  0  0  0  0  0  0
   21.7559   -7.7205  -12.4710 O   0  0  0  0  0  0  0  0  0  0  0  0
   23.4255   -3.1979  -14.2972 N   0  0  0  0  0  0  0  0  0  0  0  0
   23.2407   -3.9454  -15.4813 C   0  0  0  0  0  0  0  0  0  0  0  0
   23.8486   -3.5340  -16.5199 O   0  0  0  0  0  0  0  0  0  0  0  0
   22.4054   -5.1505  -15.5839 C   0  0  0  0  0  0  0  0  0  0  0  0
   21.7960   -5.5195  -14.2739 C   0  0  2  0  0  0  0  0  0  0  0  0
   20.9664   -6.7185  -14.3858 N   0  0  0  0  0  0  0  0  0  0  0  0
   20.8717   -4.3953  -13.8723 C   0  0  0  0  0  0  0  0  0  0  0  0
   19.6425   -4.4008  -14.0357 O   0  0  0  0  0  0  0  0  0  0  0  0
   21.4136   -3.2655  -13.2766 O   0  0  0  0  0  0  0  0  0  0  0  0
  2  3  1  0
  2  1  1  6
  4  2  1  0
  5  4  2  0
  6  4  1  0
  7  6  1  0
  8  9  2  0
  8  7  1  0
 11 10  1  0
 11 12  2  0
 14 13  1  6
 13 11  1  0
 14 15  1  0
 15  8  1  0
 16 14  1  0
 17 16  2  0
 18 16  1  0
M  END
$$$$
