AGN.pdb
     RDKit          3D

 18 17  0  0  1  0  0  0  0  0999 V2000
   18.0233  -13.8744  -16.1109 C   0  0  0  0  0  0  0  0  0  0  0  0
   17.9392  -12.6699  -15.2345 C   0  0  2  0  0  0  0  0  0  0  0  0
   16.5869  -12.3923  -14.8797 N   0  0  0  0  0  0  0  0  0  0  0  0
   18.6565  -11.4782  -15.7677 C   0  0  0  0  0  0  0  0  0  0  0  0
   19.9032  -11.4458  -15.9244 O   0  0  0  0  0  0  0  0  0  0  0  0
   17.9494  -10.2891  -16.1353 N   0  0  0  0  0  0  0  0  0  0  0  0
   18.5769   -9.1240  -16.6627 C   0  0  0  0  0  0  0  0  0  0  0  0
   18.8630   -8.0703  -15.6688 C   0  0  0  0  0  0  0  0  0  0  0  0
   18.1870   -7.9703  -14.6232 O   0  0  0  0  0  0  0  0  0  0  0  0
   21.3127   -4.1064  -13.2296 N   0  0  0  0  0  0  0  0  0  0  0  0
   21.9958   -5.3342  -13.3756 C   0  0  0  0  0  0  0  0  0  0  0  0
   23.0600   -5.4827  -12.6953 O   0  0  0  0  0  0  0  0  0  0  0  0
   21.5575   -6.4327  -14.2485 C   0  0  0  0  0  0  0  0  0  0  0  0
   20.3000   -6.0981  -14.9768 C   0  0  2  0  0  0  0  0  0  0  0  0
   19.9177   -7.1611  -15.9053 N   0  0  0  0  0  0  0  0  0  0  0  0
   20.5757   -4.8744  -15.8170 C   0  0  0  0  0  0  0  0  0  0  0  0
   20.5797   -3.7109  -15.3879 O   0  0  0  0  0  0  0  0  0  0  0  0
   20.8462   -5.0386  -17.1679 O   0  0  0  0  0  0  0  0  0  0  0  0
  2  3  1  0
  2  1  1  6
  4  2  1  0
  5  4  2  0
  6  4  1  0
  7  6  1  0
  8  9  2  0
  8  7  1  0
 11 10  1  0
 11 12  2  0
 14 13  1  6
 13 11  1  0
 14 15  1  0
 15  8  1  0
 16 14  1  0
 17 16  2  0
 18 16  1  0
M  END
$$$$
