AGN.pdb
     RDKit          3D

 18 17  0  0  1  0  0  0  0  0999 V2000
   20.0127  -10.3164  -17.9608 C   0  0  0  0  0  0  0  0  0  0  0  0
   19.7144  -10.9620  -16.6493 C   0  0  2  0  0  0  0  0  0  0  0  0
   18.4541  -11.6271  -16.6847 N   0  0  0  0  0  0  0  0  0  0  0  0
   19.8598  -10.0543  -15.4771 C   0  0  0  0  0  0  0  0  0  0  0  0
   20.9422   -9.4868  -15.1838 O   0  0  0  0  0  0  0  0  0  0  0  0
   18.7543   -9.7777  -14.6109 N   0  0  0  0  0  0  0  0  0  0  0  0
   18.7858   -8.8052  -13.5703 C   0  0  0  0  0  0  0  0  0  0  0  0
   17.6460   -8.8626  -12.6335 C   0  0  0  0  0  0  0  0  0  0  0  0
   16.6632   -9.5996  -12.8592 O   0  0  0  0  0  0  0  0  0  0  0  0
   14.6527   -7.8751   -8.4089 N   0  0  0  0  0  0  0  0  0  0  0  0
   15.8463   -7.1242   -8.3273 C   0  0  0  0  0  0  0  0  0  0  0  0
   16.0194   -6.4354   -7.2723 O   0  0  0  0  0  0  0  0  0  0  0  0
   16.8840   -7.0934   -9.3679 C   0  0  0  0  0  0  0  0  0  0  0  0
   16.5913   -8.0481  -10.4754 C   0  0  2  0  0  0  0  0  0  0  0  0
   17.6684   -8.0708  -11.4641 N   0  0  0  0  0  0  0  0  0  0  0  0
   15.3618   -7.5453  -11.1930 C   0  0  0  0  0  0  0  0  0  0  0  0
   15.3461   -6.5830  -11.9750 O   0  0  0  0  0  0  0  0  0  0  0  0
   14.1521   -8.1898  -10.9775 O   0  0  0  0  0  0  0  0  0  0  0  0
  2  3  1  0
  2  1  1  6
  4  2  1  0
  5  4  2  0
  6  4  1  0
  7  6  1  0
  8  9  2  0
  8  7  1  0
 11 10  1  0
 11 12  2  0
 14 13  1  1
 13 11  1  0
 14 15  1  0
 15  8  1  0
 16 14  1  0
 17 16  2  0
 18 16  1  0
M  END
$$$$
