AGN.pdb
     RDKit          3D

 18 17  0  0  1  0  0  0  0  0999 V2000
   14.3513  -12.8186  -15.1095 C   0  0  0  0  0  0  0  0  0  0  0  0
   13.9135  -12.4987  -13.7195 C   0  0  2  0  0  0  0  0  0  0  0  0
   12.7159  -11.7257  -13.7284 N   0  0  0  0  0  0  0  0  0  0  0  0
   14.9814  -11.9061  -12.8664 C   0  0  0  0  0  0  0  0  0  0  0  0
   15.9601  -12.5692  -12.4396 O   0  0  0  0  0  0  0  0  0  0  0  0
   14.9459  -10.5273  -12.4836 N   0  0  0  0  0  0  0  0  0  0  0  0
   15.9876   -9.8776  -11.7609 C   0  0  0  0  0  0  0  0  0  0  0  0
   15.7319   -8.4577  -11.4470 C   0  0  0  0  0  0  0  0  0  0  0  0
   15.4278   -7.6441  -12.3446 O   0  0  0  0  0  0  0  0  0  0  0  0
   14.5248   -8.5088   -7.0336 N   0  0  0  0  0  0  0  0  0  0  0  0
   14.4542   -7.2129   -7.5912 C   0  0  0  0  0  0  0  0  0  0  0  0
   13.3239   -6.6314   -7.5492 O   0  0  0  0  0  0  0  0  0  0  0  0
   15.5885   -6.5066   -8.2037 C   0  0  0  0  0  0  0  0  0  0  0  0
   15.5882   -6.6346   -9.6895 C   0  0  2  0  0  0  0  0  0  0  0  0
   15.8335   -8.0134  -10.1101 N   0  0  0  0  0  0  0  0  0  0  0  0
   16.7424   -5.8150  -10.2143 C   0  0  0  0  0  0  0  0  0  0  0  0
   17.8644   -6.2691  -10.4839 O   0  0  0  0  0  0  0  0  0  0  0  0
   16.5582   -4.4548  -10.4170 O   0  0  0  0  0  0  0  0  0  0  0  0
  2  3  1  0
  2  1  1  6
  4  2  1  0
  5  4  2  0
  6  4  1  0
  7  6  1  0
  8  9  2  0
  8  7  1  0
 11 10  1  0
 11 12  2  0
 14 13  1  1
 13 11  1  0
 14 15  1  0
 15  8  1  0
 16 14  1  0
 17 16  2  0
 18 16  1  0
M  END
$$$$
