AGN.pdb
     RDKit          3D

 18 17  0  0  1  0  0  0  0  0999 V2000
   27.4417  -16.6452  -17.3221 C   0  0  0  0  0  0  0  0  0  0  0  0
   27.0562  -18.0324  -16.9309 C   0  0  2  0  0  0  0  0  0  0  0  0
   25.8280  -18.4119  -17.5468 N   0  0  0  0  0  0  0  0  0  0  0  0
   27.0690  -18.2759  -15.4613 C   0  0  0  0  0  0  0  0  0  0  0  0
   27.9926  -17.8717  -14.7108 O   0  0  0  0  0  0  0  0  0  0  0  0
   26.0111  -18.9949  -14.8188 N   0  0  0  0  0  0  0  0  0  0  0  0
   25.9354  -19.2057  -13.4119 C   0  0  0  0  0  0  0  0  0  0  0  0
   24.7186  -19.9059  -12.9546 C   0  0  0  0  0  0  0  0  0  0  0  0
   24.5664  -20.2158  -11.7542 O   0  0  0  0  0  0  0  0  0  0  0  0
   19.9444  -22.0695  -12.9556 N   0  0  0  0  0  0  0  0  0  0  0  0
   20.0521  -20.6839  -13.2083 C   0  0  0  0  0  0  0  0  0  0  0  0
   18.9790  -20.0043  -13.1447 O   0  0  0  0  0  0  0  0  0  0  0  0
   21.3075  -19.9912  -13.5320 C   0  0  0  0  0  0  0  0  0  0  0  0
   22.4714  -20.9235  -13.5443 C   0  0  2  0  0  0  0  0  0  0  0  0
   23.7115  -20.2303  -13.8902 N   0  0  0  0  0  0  0  0  0  0  0  0
   22.2279  -21.9366  -14.6369 C   0  0  0  0  0  0  0  0  0  0  0  0
   22.8445  -21.9758  -15.7120 O   0  0  0  0  0  0  0  0  0  0  0  0
   21.2496  -22.9019  -14.4469 O   0  0  0  0  0  0  0  0  0  0  0  0
  2  3  1  0
  2  1  1  1
  4  2  1  0
  5  4  2  0
  6  4  1  0
  7  6  1  0
  8  9  2  0
  8  7  1  0
 11 10  1  0
 11 12  2  0
 14 13  1  6
 13 11  1  0
 14 15  1  0
 15  8  1  0
 16 14  1  0
 17 16  2  0
 18 16  1  0
M  END
$$$$
