AGN.pdb
     RDKit          3D

 18 17  0  0  1  0  0  0  0  0999 V2000
   17.6828  -13.4639  -17.2069 C   0  0  0  0  0  0  0  0  0  0  0  0
   18.1038  -13.2560  -15.7908 C   0  0  2  0  0  0  0  0  0  0  0  0
   17.2155  -13.9178  -14.8936 N   0  0  0  0  0  0  0  0  0  0  0  0
   18.3394  -11.8302  -15.4291 C   0  0  0  0  0  0  0  0  0  0  0  0
   19.3721  -11.2011  -15.7719 O   0  0  0  0  0  0  0  0  0  0  0  0
   17.3844  -11.0920  -14.6598 N   0  0  0  0  0  0  0  0  0  0  0  0
   17.4707   -9.6900  -14.4219 C   0  0  0  0  0  0  0  0  0  0  0  0
   16.7965   -9.2272  -13.1926 C   0  0  0  0  0  0  0  0  0  0  0  0
   16.0736   -9.9970  -12.5255 O   0  0  0  0  0  0  0  0  0  0  0  0
   14.9833   -6.4065   -9.2608 N   0  0  0  0  0  0  0  0  0  0  0  0
   15.9686   -7.4158   -9.1846 C   0  0  0  0  0  0  0  0  0  0  0  0
   16.2078   -7.8978   -8.0323 O   0  0  0  0  0  0  0  0  0  0  0  0
   16.7192   -7.9359  -10.3365 C   0  0  0  0  0  0  0  0  0  0  0  0
   16.2819   -7.3078  -11.6164 C   0  0  2  0  0  0  0  0  0  0  0  0
   16.9721   -7.8924  -12.7652 N   0  0  0  0  0  0  0  0  0  0  0  0
   16.6863   -5.8540  -11.5681 C   0  0  0  0  0  0  0  0  0  0  0  0
   16.2280   -5.0208  -10.7723 O   0  0  0  0  0  0  0  0  0  0  0  0
   17.6367   -5.3948  -12.4687 O   0  0  0  0  0  0  0  0  0  0  0  0
  2  3  1  0
  2  1  1  6
  4  2  1  0
  5  4  2  0
  6  4  1  0
  7  6  1  0
  8  9  2  0
  8  7  1  0
 11 10  1  0
 11 12  2  0
 14 13  1  1
 13 11  1  0
 14 15  1  0
 15  8  1  0
 16 14  1  0
 17 16  2  0
 18 16  1  0
M  END
$$$$
