AGN.pdb
     RDKit          3D

 18 17  0  0  1  0  0  0  0  0999 V2000
   15.9752  -14.0933  -16.8963 C   0  0  0  0  0  0  0  0  0  0  0  0
   17.4428  -14.2866  -16.7104 C   0  0  2  0  0  0  0  0  0  0  0  0
   17.7634  -14.4538  -15.3316 N   0  0  0  0  0  0  0  0  0  0  0  0
   18.2823  -13.2550  -17.3813 C   0  0  0  0  0  0  0  0  0  0  0  0
   18.2825  -13.0794  -18.6259 O   0  0  0  0  0  0  0  0  0  0  0  0
   19.1456  -12.3963  -16.6288 N   0  0  0  0  0  0  0  0  0  0  0  0
   19.9111  -11.3407  -17.2026 C   0  0  0  0  0  0  0  0  0  0  0  0
   20.7717  -10.6107  -16.2505 C   0  0  0  0  0  0  0  0  0  0  0  0
   20.2854  -10.0294  -15.2577 O   0  0  0  0  0  0  0  0  0  0  0  0
   26.8417  -10.0922  -14.8333 N   0  0  0  0  0  0  0  0  0  0  0  0
   25.4430   -9.8980  -14.7985 C   0  0  0  0  0  0  0  0  0  0  0  0
   24.9681   -9.3334  -13.7626 O   0  0  0  0  0  0  0  0  0  0  0  0
   24.5193  -10.2991  -15.8693 C   0  0  0  0  0  0  0  0  0  0  0  0
   23.1116   -9.9121  -15.5650 C   0  0  2  0  0  0  0  0  0  0  0  0
   22.1668  -10.5694  -16.4670 N   0  0  0  0  0  0  0  0  0  0  0  0
   22.9852   -8.4293  -15.8189 C   0  0  0  0  0  0  0  0  0  0  0  0
   23.0440   -7.8981  -16.9379 O   0  0  0  0  0  0  0  0  0  0  0  0
   22.7891   -7.5809  -14.7387 O   0  0  0  0  0  0  0  0  0  0  0  0
  2  3  1  0
  2  1  1  1
  4  2  1  0
  5  4  2  0
  6  4  1  0
  7  6  1  0
  8  9  2  0
  8  7  1  0
 11 10  1  0
 11 12  2  0
 14 13  1  6
 13 11  1  0
 14 15  1  0
 15  8  1  0
 16 14  1  0
 17 16  2  0
 18 16  1  0
M  END
$$$$
