AGN.pdb
     RDKit          3D

 18 17  0  0  1  0  0  0  0  0999 V2000
   19.7143  -12.3671  -18.8332 C   0  0  0  0  0  0  0  0  0  0  0  0
   18.9574  -11.3441  -18.0544 C   0  0  2  0  0  0  0  0  0  0  0  0
   19.0825  -10.0555  -18.6509 N   0  0  0  0  0  0  0  0  0  0  0  0
   19.2617  -11.3415  -16.5962 C   0  0  0  0  0  0  0  0  0  0  0  0
   19.1885  -12.3732  -15.8821 O   0  0  0  0  0  0  0  0  0  0  0  0
   19.6603  -10.1427  -15.9232 N   0  0  0  0  0  0  0  0  0  0  0  0
   19.9881  -10.0820  -14.5381 C   0  0  0  0  0  0  0  0  0  0  0  0
   20.4374   -8.7575  -14.0650 C   0  0  0  0  0  0  0  0  0  0  0  0
   20.6868   -8.5552  -12.8579 O   0  0  0  0  0  0  0  0  0  0  0  0
   22.1966   -3.8063  -14.1650 N   0  0  0  0  0  0  0  0  0  0  0  0
   22.5672   -4.5355  -15.3166 C   0  0  0  0  0  0  0  0  0  0  0  0
   23.3688   -3.9656  -16.1229 O   0  0  0  0  0  0  0  0  0  0  0  0
   22.0935   -5.8906  -15.6328 C   0  0  0  0  0  0  0  0  0  0  0  0
   21.0895   -6.3754  -14.6425 C   0  0  2  0  0  0  0  0  0  0  0  0
   20.5869   -7.7031  -14.9928 N   0  0  0  0  0  0  0  0  0  0  0  0
   19.9061   -5.4398  -14.7031 C   0  0  0  0  0  0  0  0  0  0  0  0
   19.0539   -5.4385  -15.6039 O   0  0  0  0  0  0  0  0  0  0  0  0
   19.7398   -4.5065  -13.6900 O   0  0  0  0  0  0  0  0  0  0  0  0
  2  3  1  0
  2  1  1  6
  4  2  1  0
  5  4  2  0
  6  4  1  0
  7  6  1  0
  8  9  2  0
  8  7  1  0
 11 10  1  0
 11 12  2  0
 14 13  1  6
 13 11  1  0
 14 15  1  0
 15  8  1  0
 16 14  1  0
 17 16  2  0
 18 16  1  0
M  END
$$$$
