AGN.pdb
     RDKit          3D

 18 17  0  0  1  0  0  0  0  0999 V2000
   27.8079  -19.9176  -14.4796 C   0  0  0  0  0  0  0  0  0  0  0  0
   27.1838  -21.0114  -13.6794 C   0  0  2  0  0  0  0  0  0  0  0  0
   26.4303  -21.8866  -14.5150 N   0  0  0  0  0  0  0  0  0  0  0  0
   26.4171  -20.5366  -12.4938 C   0  0  0  0  0  0  0  0  0  0  0  0
   26.0564  -19.3414  -12.3485 O   0  0  0  0  0  0  0  0  0  0  0  0
   26.0457  -21.4338  -11.4421 N   0  0  0  0  0  0  0  0  0  0  0  0
   25.2188  -21.0671  -10.3415 C   0  0  0  0  0  0  0  0  0  0  0  0
   23.8025  -20.8275  -10.6830 C   0  0  0  0  0  0  0  0  0  0  0  0
   22.9569  -20.5902   -9.7948 O   0  0  0  0  0  0  0  0  0  0  0  0
   19.6370  -18.5018  -13.1359 N   0  0  0  0  0  0  0  0  0  0  0  0
   20.6934  -19.0545  -13.8934 C   0  0  0  0  0  0  0  0  0  0  0  0
   20.4487  -19.3148  -15.1140 O   0  0  0  0  0  0  0  0  0  0  0  0
   22.0359  -19.3394  -13.3668 C   0  0  0  0  0  0  0  0  0  0  0  0
   22.0466  -20.5468  -12.4917 C   0  0  2  0  0  0  0  0  0  0  0  0
   23.3984  -20.8679  -12.0357 N   0  0  0  0  0  0  0  0  0  0  0  0
   21.5879  -21.7164  -13.3289 C   0  0  0  0  0  0  0  0  0  0  0  0
   20.4140  -22.1074  -13.4108 O   0  0  0  0  0  0  0  0  0  0  0  0
   22.5291  -22.4191  -14.0676 O   0  0  0  0  0  0  0  0  0  0  0  0
  2  3  1  0
  2  1  1  6
  4  2  1  0
  5  4  2  0
  6  4  1  0
  7  6  1  0
  8  9  2  0
  8  7  1  0
 11 10  1  0
 11 12  2  0
 14 13  1  6
 13 11  1  0
 14 15  1  0
 15  8  1  0
 16 14  1  0
 17 16  2  0
 18 16  1  0
M  END
$$$$
