AGN.pdb
     RDKit          3D

 18 17  0  0  1  0  0  0  0  0999 V2000
   17.5176  -12.5774  -18.3497 C   0  0  0  0  0  0  0  0  0  0  0  0
   18.1565  -11.3497  -17.7926 C   0  0  2  0  0  0  0  0  0  0  0  0
   19.5507  -11.5545  -17.5777 N   0  0  0  0  0  0  0  0  0  0  0  0
   17.4609  -10.7892  -16.6005 C   0  0  0  0  0  0  0  0  0  0  0  0
   16.2542  -10.4381  -16.6172 O   0  0  0  0  0  0  0  0  0  0  0  0
   18.1440  -10.6197  -15.3540 N   0  0  0  0  0  0  0  0  0  0  0  0
   17.5385  -10.0746  -14.1854 C   0  0  0  0  0  0  0  0  0  0  0  0
   18.1516   -8.8240  -13.6954 C   0  0  0  0  0  0  0  0  0  0  0  0
   17.8569   -8.3581  -12.5746 O   0  0  0  0  0  0  0  0  0  0  0  0
   21.3704   -4.6419  -13.5275 N   0  0  0  0  0  0  0  0  0  0  0  0
   21.9914   -5.8480  -13.9210 C   0  0  0  0  0  0  0  0  0  0  0  0
   23.2629   -5.8567  -13.9463 O   0  0  0  0  0  0  0  0  0  0  0  0
   21.2701   -7.0734  -14.2936 C   0  0  0  0  0  0  0  0  0  0  0  0
   19.7987   -6.9368  -14.0936 C   0  0  2  0  0  0  0  0  0  0  0  0
   19.0857   -8.1443  -14.5080 N   0  0  0  0  0  0  0  0  0  0  0  0
   19.3207   -5.8258  -14.9973 C   0  0  0  0  0  0  0  0  0  0  0  0
   19.6063   -4.6277  -14.8532 O   0  0  0  0  0  0  0  0  0  0  0  0
   18.5026   -6.1440  -16.0718 O   0  0  0  0  0  0  0  0  0  0  0  0
  2  3  1  0
  2  1  1  1
  4  2  1  0
  5  4  2  0
  6  4  1  0
  7  6  1  0
  8  9  2  0
  8  7  1  0
 11 10  1  0
 11 12  2  0
 14 13  1  6
 13 11  1  0
 14 15  1  0
 15  8  1  0
 16 14  1  0
 17 16  2  0
 18 16  1  0
M  END
$$$$
