AGN.pdb
     RDKit          3D

 18 17  0  0  1  0  0  0  0  0999 V2000
   19.1340  -10.7462  -15.7786 C   0  0  0  0  0  0  0  0  0  0  0  0
   18.3214   -9.5917  -15.2961 C   0  0  2  0  0  0  0  0  0  0  0  0
   19.0221   -8.3641  -15.4803 N   0  0  0  0  0  0  0  0  0  0  0  0
   17.7909   -9.7563  -13.9139 C   0  0  0  0  0  0  0  0  0  0  0  0
   18.4641  -10.2614  -12.9804 O   0  0  0  0  0  0  0  0  0  0  0  0
   16.4644   -9.3398  -13.5735 N   0  0  0  0  0  0  0  0  0  0  0  0
   15.9066   -9.4570  -12.2678 C   0  0  0  0  0  0  0  0  0  0  0  0
   15.5561   -8.1743  -11.6260 C   0  0  0  0  0  0  0  0  0  0  0  0
   14.9299   -7.2918  -12.2499 O   0  0  0  0  0  0  0  0  0  0  0  0
   12.8399   -7.0261   -9.5062 N   0  0  0  0  0  0  0  0  0  0  0  0
   13.5955   -7.1709   -8.3215 C   0  0  0  0  0  0  0  0  0  0  0  0
   12.9585   -7.5034   -7.2722 O   0  0  0  0  0  0  0  0  0  0  0  0
   15.0483   -6.9671   -8.2299 C   0  0  0  0  0  0  0  0  0  0  0  0
   15.6591   -6.7010   -9.5640 C   0  0  2  0  0  0  0  0  0  0  0  0
   15.9357   -7.9424  -10.2855 N   0  0  0  0  0  0  0  0  0  0  0  0
   16.9942   -6.0374   -9.3260 C   0  0  0  0  0  0  0  0  0  0  0  0
   17.1425   -4.8553   -8.9820 O   0  0  0  0  0  0  0  0  0  0  0  0
   18.1512   -6.7835   -9.4986 O   0  0  0  0  0  0  0  0  0  0  0  0
  2  3  1  0
  2  1  1  1
  4  2  1  0
  5  4  2  0
  6  4  1  0
  7  6  1  0
  8  9  2  0
  8  7  1  0
 11 10  1  0
 11 12  2  0
 14 13  1  1
 13 11  1  0
 14 15  1  0
 15  8  1  0
 16 14  1  0
 17 16  2  0
 18 16  1  0
M  END
$$$$
