YSH.pdb
     RDKit          3D

 29 30  0  0  1  0  0  0  0  0999 V2000
   16.1469  -23.6734  -13.5808 O   0  0  0  0  0  0  0  0  0  0  0  0
   17.4658  -23.2197  -13.7083 C   0  0  0  0  0  0  0  0  0  0  0  0
   17.7982  -22.2084  -14.5856 C   0  0  0  0  0  0  0  0  0  0  0  0
   19.1085  -21.7757  -14.6951 C   0  0  0  0  0  0  0  0  0  0  0  0
   20.1282  -22.3271  -13.9436 C   0  0  0  0  0  0  0  0  0  0  0  0
   21.5405  -21.8585  -14.0636 C   0  0  0  0  0  0  0  0  0  0  0  0
   21.7744  -20.8385  -12.9952 C   0  0  2  0  0  0  0  0  0  0  0  0
   20.8827  -19.7295  -13.1929 N   0  0  0  0  0  0  0  0  0  0  0  0
   23.1901  -20.4232  -12.8858 C   0  0  0  0  0  0  0  0  0  0  0  0
   23.6101  -19.5374  -13.6595 O   0  0  0  0  0  0  0  0  0  0  0  0
   19.7848  -23.3393  -13.0679 C   0  0  0  0  0  0  0  0  0  0  0  0
   18.4803  -23.7735  -12.9557 C   0  0  0  0  0  0  0  0  0  0  0  0
   25.4720  -20.9853   -9.6666 O   0  0  0  0  0  0  0  0  0  0  0  0
   26.1694  -21.4444  -10.7995 C   0  0  0  0  0  0  0  0  0  0  0  0
   25.5329  -20.8260  -12.0270 C   0  0  2  0  0  0  0  0  0  0  0  0
   24.0963  -20.9798  -11.9465 N   0  0  0  0  0  0  0  0  0  0  0  0
   26.1017  -21.5106  -13.2119 C   0  0  0  0  0  0  0  0  0  0  0  0
   25.8081  -22.6662  -13.5710 O   0  0  0  0  0  0  0  0  0  0  0  0
   27.0486  -20.7894  -13.9873 N   0  0  0  0  0  0  0  0  0  0  0  0
   26.9932  -20.7286  -15.4295 C   0  0  1  0  0  0  0  0  0  0  0  0
   25.5791  -20.2526  -15.7772 C   0  0  0  0  0  0  0  0  0  0  0  0
   25.3663  -20.1970  -17.2460 C   0  0  0  0  0  0  0  0  0  0  0  0
   26.1949  -20.6904  -18.2267 C   0  0  0  0  0  0  0  0  0  0  0  0
   25.6572  -20.4466  -19.4336 N   0  0  0  0  0  0  0  0  0  0  0  0
   24.4763  -19.7932  -19.2363 C   0  0  0  0  0  0  0  0  0  0  0  0
   24.3135  -19.6491  -17.9040 N   0  0  0  0  0  0  0  0  0  0  0  0
   28.0158  -19.8461  -16.0030 C   0  0  0  0  0  0  0  0  0  0  0  0
   28.3601  -18.8189  -15.3753 O   0  0  0  0  0  0  0  0  0  0  0  0
   28.6155  -20.1103  -17.2177 O   0  0  0  0  0  0  0  0  0  0  0  0
  2  1  1  0
  3  2  2  0
  4  3  1  0
  5  4  2  0
  5 11  1  0
  6  7  1  0
  6  5  1  0
  7  8  1  6
  7  9  1  0
  9 10  2  0
 11 12  2  0
 12  2  1  0
 13 14  1  0
 15 14  1  1
 16  9  1  0
 16 15  1  0
 17 15  1  0
 17 18  2  0
 19 17  1  0
 20 19  1  0
 20 27  1  0
 20 21  1  1
 22 21  1  0
 22 26  1  0
 23 24  1  0
 23 22  2  0
 24 25  1  0
 25 26  2  0
 27 28  2  0
 27 29  1  0
M  END
$$$$
