YSH.pdb
     RDKit          3D

 29 30  0  0  1  0  0  0  0  0999 V2000
   34.7740  -32.1217  -22.5978 O   0  0  0  0  0  0  0  0  0  0  0  0
   33.6173  -31.7123  -21.9224 C   0  0  0  0  0  0  0  0  0  0  0  0
   33.4989  -30.4402  -21.4024 C   0  0  0  0  0  0  0  0  0  0  0  0
   32.3462  -30.0571  -20.7384 C   0  0  0  0  0  0  0  0  0  0  0  0
   31.2778  -30.9163  -20.5682 C   0  0  0  0  0  0  0  0  0  0  0  0
   30.0359  -30.5005  -19.8518 C   0  0  0  0  0  0  0  0  0  0  0  0
   30.3559  -30.4222  -18.3931 C   0  0  2  0  0  0  0  0  0  0  0  0
   30.4417  -31.7507  -17.8529 N   0  0  0  0  0  0  0  0  0  0  0  0
   29.4248  -29.5554  -17.6379 C   0  0  0  0  0  0  0  0  0  0  0  0
   28.5191  -30.0973  -16.9703 O   0  0  0  0  0  0  0  0  0  0  0  0
   31.4065  -32.1881  -21.0928 C   0  0  0  0  0  0  0  0  0  0  0  0
   32.5534  -32.5740  -21.7550 C   0  0  0  0  0  0  0  0  0  0  0  0
   29.1731  -25.6356  -18.5446 O   0  0  0  0  0  0  0  0  0  0  0  0
   28.9569  -25.8345  -17.1683 C   0  0  0  0  0  0  0  0  0  0  0  0
   28.5576  -27.2805  -16.9585 C   0  0  2  0  0  0  0  0  0  0  0  0
   29.5076  -28.1389  -17.6327 N   0  0  0  0  0  0  0  0  0  0  0  0
   27.1843  -27.4414  -17.4916 C   0  0  0  0  0  0  0  0  0  0  0  0
   26.9113  -27.8764  -18.6260 O   0  0  0  0  0  0  0  0  0  0  0  0
   26.1089  -27.0703  -16.6409 N   0  0  0  0  0  0  0  0  0  0  0  0
   24.7267  -27.1342  -17.0557 C   0  0  1  0  0  0  0  0  0  0  0  0
   23.9998  -27.9429  -15.9765 C   0  0  0  0  0  0  0  0  0  0  0  0
   22.5611  -28.1189  -16.3007 C   0  0  0  0  0  0  0  0  0  0  0  0
   22.0137  -28.4080  -17.5289 C   0  0  0  0  0  0  0  0  0  0  0  0
   20.6773  -28.4885  -17.4172 N   0  0  0  0  0  0  0  0  0  0  0  0
   20.3558  -28.2511  -16.1131 C   0  0  0  0  0  0  0  0  0  0  0  0
   21.5093  -28.0285  -15.4481 N   0  0  0  0  0  0  0  0  0  0  0  0
   24.1229  -25.8088  -17.2352 C   0  0  0  0  0  0  0  0  0  0  0  0
   23.4684  -25.5701  -18.2756 O   0  0  0  0  0  0  0  0  0  0  0  0
   24.2518  -24.8098  -16.2917 O   0  0  0  0  0  0  0  0  0  0  0  0
  2  1  1  0
  3  2  2  0
  4  3  1  0
  5  4  2  0
  5 11  1  0
  6  7  1  0
  6  5  1  0
  7  8  1  1
  7  9  1  0
  9 10  2  0
 11 12  2  0
 12  2  1  0
 13 14  1  0
 15 14  1  6
 16  9  1  0
 16 15  1  0
 17 15  1  0
 17 18  2  0
 19 17  1  0
 20 19  1  0
 20 27  1  0
 20 21  1  1
 22 21  1  0
 22 26  1  0
 23 24  1  0
 23 22  2  0
 24 25  1  0
 25 26  2  0
 27 28  2  0
 27 29  1  0
M  END
$$$$
