YSH.pdb
     RDKit          3D

 29 30  0  0  1  0  0  0  0  0999 V2000
   21.9831  -14.5836  -22.3665 O   0  0  0  0  0  0  0  0  0  0  0  0
   21.5524  -13.5801  -21.4894 C   0  0  0  0  0  0  0  0  0  0  0  0
   22.4502  -12.8026  -20.7877 C   0  0  0  0  0  0  0  0  0  0  0  0
   22.0021  -11.8163  -19.9260 C   0  0  0  0  0  0  0  0  0  0  0  0
   20.6571  -11.5681  -19.7313 C   0  0  0  0  0  0  0  0  0  0  0  0
   20.1765  -10.5037  -18.8015 C   0  0  0  0  0  0  0  0  0  0  0  0
   20.2182  -11.0585  -17.4134 C   0  0  2  0  0  0  0  0  0  0  0  0
   19.2932  -12.1529  -17.3106 N   0  0  0  0  0  0  0  0  0  0  0  0
   20.0099  -10.0318  -16.3688 C   0  0  0  0  0  0  0  0  0  0  0  0
   18.8397   -9.6898  -16.0981 O   0  0  0  0  0  0  0  0  0  0  0  0
   19.7661  -12.3523  -20.4387 C   0  0  0  0  0  0  0  0  0  0  0  0
   20.2084  -13.3363  -21.2984 C   0  0  0  0  0  0  0  0  0  0  0  0
   22.8618   -9.1098  -13.6545 O   0  0  0  0  0  0  0  0  0  0  0  0
   21.5340   -8.7256  -13.3908 C   0  0  0  0  0  0  0  0  0  0  0  0
   20.8848   -8.3426  -14.7047 C   0  0  2  0  0  0  0  0  0  0  0  0
   21.0717   -9.4150  -15.6580 N   0  0  0  0  0  0  0  0  0  0  0  0
   21.5135   -7.0789  -15.1562 C   0  0  0  0  0  0  0  0  0  0  0  0
   22.4033   -7.0010  -16.0238 O   0  0  0  0  0  0  0  0  0  0  0  0
   21.0627   -5.8756  -14.5506 N   0  0  0  0  0  0  0  0  0  0  0  0
   21.6766   -4.5937  -14.8083 C   0  0  1  0  0  0  0  0  0  0  0  0
   20.6304   -3.7701  -15.5662 C   0  0  0  0  0  0  0  0  0  0  0  0
   20.3002   -4.3803  -16.8793 C   0  0  0  0  0  0  0  0  0  0  0  0
   21.0695   -4.3695  -18.0195 C   0  0  0  0  0  0  0  0  0  0  0  0
   20.4284   -5.0272  -19.0001 N   0  0  0  0  0  0  0  0  0  0  0  0
   19.2396   -5.4663  -18.4956 C   0  0  0  0  0  0  0  0  0  0  0  0
   19.1763   -5.0661  -17.2079 N   0  0  0  0  0  0  0  0  0  0  0  0
   22.1143   -3.9141  -13.5835 C   0  0  0  0  0  0  0  0  0  0  0  0
   22.7335   -2.8295  -13.6730 O   0  0  0  0  0  0  0  0  0  0  0  0
   21.8660   -4.4316  -12.3284 O   0  0  0  0  0  0  0  0  0  0  0  0
  2  1  1  0
  3  2  2  0
  4  3  1  0
  5  4  2  0
  5 11  1  0
  6  7  1  0
  6  5  1  0
  7  8  1  6
  7  9  1  0
  9 10  2  0
 11 12  2  0
 12  2  1  0
 13 14  1  0
 15 14  1  1
 16  9  1  0
 16 15  1  0
 17 15  1  0
 17 18  2  0
 19 17  1  0
 20 19  1  0
 20 27  1  0
 20 21  1  1
 22 21  1  0
 22 26  1  0
 23 24  1  0
 23 22  2  0
 24 25  1  0
 25 26  2  0
 27 28  2  0
 27 29  1  0
M  END
$$$$
