YSH.pdb
     RDKit          3D

 29 30  0  0  1  0  0  0  0  0999 V2000
   24.0601  -12.1162  -25.4424 O   0  0  0  0  0  0  0  0  0  0  0  0
   23.3279  -13.0316  -24.6757 C   0  0  0  0  0  0  0  0  0  0  0  0
   23.0690  -12.8076  -23.3394 C   0  0  0  0  0  0  0  0  0  0  0  0
   22.3431  -13.7262  -22.6009 C   0  0  0  0  0  0  0  0  0  0  0  0
   21.8518  -14.8911  -23.1578 C   0  0  0  0  0  0  0  0  0  0  0  0
   21.0692  -15.8800  -22.3591 C   0  0  0  0  0  0  0  0  0  0  0  0
   22.0428  -16.7889  -21.6789 C   0  0  2  0  0  0  0  0  0  0  0  0
   22.7689  -17.5348  -22.6692 N   0  0  0  0  0  0  0  0  0  0  0  0
   21.4157  -17.6538  -20.6555 C   0  0  0  0  0  0  0  0  0  0  0  0
   20.8971  -18.7285  -21.0239 O   0  0  0  0  0  0  0  0  0  0  0  0
   22.1167  -15.1060  -24.4968 C   0  0  0  0  0  0  0  0  0  0  0  0
   22.8396  -14.1933  -25.2365 C   0  0  0  0  0  0  0  0  0  0  0  0
   21.1098  -16.3738  -16.7683 O   0  0  0  0  0  0  0  0  0  0  0  0
   21.3067  -17.7609  -16.9021 C   0  0  0  0  0  0  0  0  0  0  0  0
   20.7920  -18.1805  -18.2635 C   0  0  2  0  0  0  0  0  0  0  0  0
   21.3729  -17.3253  -19.2759 N   0  0  0  0  0  0  0  0  0  0  0  0
   19.3140  -18.0781  -18.2277 C   0  0  0  0  0  0  0  0  0  0  0  0
   18.6680  -17.0527  -18.5139 O   0  0  0  0  0  0  0  0  0  0  0  0
   18.5911  -19.2372  -17.8380 N   0  0  0  0  0  0  0  0  0  0  0  0
   17.1486  -19.2725  -17.7715 C   0  0  1  0  0  0  0  0  0  0  0  0
   16.7639  -20.7553  -17.7485 C   0  0  0  0  0  0  0  0  0  0  0  0
   15.2916  -20.9397  -17.8119 C   0  0  0  0  0  0  0  0  0  0  0  0
   14.3528  -20.0144  -18.2046 C   0  0  0  0  0  0  0  0  0  0  0  0
   13.1265  -20.5577  -18.1259 N   0  0  0  0  0  0  0  0  0  0  0  0
   13.2692  -21.8392  -17.6810 C   0  0  0  0  0  0  0  0  0  0  0  0
   14.5886  -22.0562  -17.4950 N   0  0  0  0  0  0  0  0  0  0  0  0
   16.6133  -18.5581  -16.6068 C   0  0  0  0  0  0  0  0  0  0  0  0
   17.2374  -18.6013  -15.5221 O   0  0  0  0  0  0  0  0  0  0  0  0
   15.4389  -17.8355  -16.6651 O   0  0  0  0  0  0  0  0  0  0  0  0
  2  1  1  0
  3  2  2  0
  4  3  1  0
  5  4  2  0
  5 11  1  0
  6  7  1  0
  6  5  1  0
  7  8  1  6
  7  9  1  0
  9 10  2  0
 11 12  2  0
 12  2  1  0
 13 14  1  0
 15 14  1  1
 16  9  1  0
 16 15  1  0
 17 15  1  0
 17 18  2  0
 19 17  1  0
 20 19  1  0
 20 27  1  0
 20 21  1  1
 22 21  1  0
 22 26  1  0
 23 24  1  0
 23 22  2  0
 24 25  1  0
 25 26  2  0
 27 28  2  0
 27 29  1  0
M  END
$$$$
