YSH.pdb
     RDKit          3D

 29 30  0  0  1  0  0  0  0  0999 V2000
   17.7604  -23.7156  -15.8942 O   0  0  0  0  0  0  0  0  0  0  0  0
   18.3436  -22.4424  -15.9162 C   0  0  0  0  0  0  0  0  0  0  0  0
   19.2652  -22.0887  -16.8798 C   0  0  0  0  0  0  0  0  0  0  0  0
   19.8290  -20.8244  -16.8824 C   0  0  0  0  0  0  0  0  0  0  0  0
   19.5007  -19.8730  -15.9359 C   0  0  0  0  0  0  0  0  0  0  0  0
   20.1101  -18.5103  -15.9410 C   0  0  0  0  0  0  0  0  0  0  0  0
   21.5964  -18.6759  -15.9498 C   0  0  2  0  0  0  0  0  0  0  0  0
   22.0041  -19.3748  -14.7627 N   0  0  0  0  0  0  0  0  0  0  0  0
   22.3236  -17.4022  -16.1435 C   0  0  0  0  0  0  0  0  0  0  0  0
   22.3293  -16.5742  -15.2085 O   0  0  0  0  0  0  0  0  0  0  0  0
   18.5767  -20.2373  -14.9753 C   0  0  0  0  0  0  0  0  0  0  0  0
   18.0125  -21.4960  -14.9690 C   0  0  0  0  0  0  0  0  0  0  0  0
   24.0606  -16.6150  -19.7565 O   0  0  0  0  0  0  0  0  0  0  0  0
   24.6501  -15.9161  -18.6867 C   0  0  0  0  0  0  0  0  0  0  0  0
   23.6173  -15.7802  -17.5870 C   0  0  2  0  0  0  0  0  0  0  0  0
   23.0156  -17.0723  -17.3374 N   0  0  0  0  0  0  0  0  0  0  0  0
   22.6220  -14.7788  -18.0370 C   0  0  0  0  0  0  0  0  0  0  0  0
   21.3944  -14.9786  -18.0986 O   0  0  0  0  0  0  0  0  0  0  0  0
   23.1123  -13.5029  -18.4237 N   0  0  0  0  0  0  0  0  0  0  0  0
   22.2562  -12.4613  -18.9420 C   0  0  1  0  0  0  0  0  0  0  0  0
   21.2920  -12.1040  -17.8064 C   0  0  0  0  0  0  0  0  0  0  0  0
   20.2820  -11.1051  -18.2399 C   0  0  0  0  0  0  0  0  0  0  0  0
   20.1201  -10.5778  -19.4999 C   0  0  0  0  0  0  0  0  0  0  0  0
   19.0988   -9.7049  -19.4935 N   0  0  0  0  0  0  0  0  0  0  0  0
   18.5960   -9.6652  -18.2262 C   0  0  0  0  0  0  0  0  0  0  0  0
   19.3243  -10.5201  -17.4771 N   0  0  0  0  0  0  0  0  0  0  0  0
   23.0034  -11.2863  -19.4051 C   0  0  0  0  0  0  0  0  0  0  0  0
   24.2382  -11.2285  -19.2061 O   0  0  0  0  0  0  0  0  0  0  0  0
   22.3892  -10.2359  -20.0565 O   0  0  0  0  0  0  0  0  0  0  0  0
  2  1  1  0
  3  2  2  0
  4  3  1  0
  5  4  2  0
  5 11  1  0
  6  7  1  0
  6  5  1  0
  7  8  1  1
  7  9  1  0
  9 10  2  0
 11 12  2  0
 12  2  1  0
 13 14  1  0
 15 14  1  6
 16  9  1  0
 16 15  1  0
 17 15  1  0
 17 18  2  0
 19 17  1  0
 20 19  1  0
 20 27  1  0
 20 21  1  1
 22 21  1  0
 22 26  1  0
 23 24  1  0
 23 22  2  0
 24 25  1  0
 25 26  2  0
 27 28  2  0
 27 29  1  0
M  END
$$$$
