YSH.pdb
     RDKit          3D

 29 30  0  0  1  0  0  0  0  0999 V2000
   18.9999   -7.9025  -15.7227 O   0  0  0  0  0  0  0  0  0  0  0  0
   18.5771   -9.2359  -15.6517 C   0  0  0  0  0  0  0  0  0  0  0  0
   19.4190  -10.2362  -15.2118 C   0  0  0  0  0  0  0  0  0  0  0  0
   18.9798  -11.5475  -15.1498 C   0  0  0  0  0  0  0  0  0  0  0  0
   17.6990  -11.9103  -15.5192 C   0  0  0  0  0  0  0  0  0  0  0  0
   17.2279  -13.3252  -15.4512 C   0  0  0  0  0  0  0  0  0  0  0  0
   17.9533  -14.0981  -16.5061 C   0  0  2  0  0  0  0  0  0  0  0  0
   17.6832  -13.5170  -17.7920 N   0  0  0  0  0  0  0  0  0  0  0  0
   17.6716  -15.5498  -16.4625 C   0  0  0  0  0  0  0  0  0  0  0  0
   16.6232  -15.9670  -16.9977 O   0  0  0  0  0  0  0  0  0  0  0  0
   16.8637  -10.9010  -15.9583 C   0  0  0  0  0  0  0  0  0  0  0  0
   17.2973   -9.5930  -16.0218 C   0  0  0  0  0  0  0  0  0  0  0  0
   19.7097  -18.0756  -13.8738 O   0  0  0  0  0  0  0  0  0  0  0  0
   19.4161  -18.6255  -15.1356 C   0  0  0  0  0  0  0  0  0  0  0  0
   18.2129  -17.8973  -15.6981 C   0  0  2  0  0  0  0  0  0  0  0  0
   18.5317  -16.4934  -15.8436 N   0  0  0  0  0  0  0  0  0  0  0  0
   17.0852  -18.1193  -14.7627 C   0  0  0  0  0  0  0  0  0  0  0  0
   16.5422  -17.2278  -14.0837 O   0  0  0  0  0  0  0  0  0  0  0  0
   16.5952  -19.4468  -14.6382 N   0  0  0  0  0  0  0  0  0  0  0  0
   15.4636  -19.7872  -13.8074 C   0  0  1  0  0  0  0  0  0  0  0  0
   14.2900  -18.9537  -14.3316 C   0  0  0  0  0  0  0  0  0  0  0  0
   13.0258  -19.2839  -13.6255 C   0  0  0  0  0  0  0  0  0  0  0  0
   12.1782  -18.4113  -12.9837 C   0  0  0  0  0  0  0  0  0  0  0  0
   11.1407  -19.0910  -12.4672 N   0  0  0  0  0  0  0  0  0  0  0  0
   11.3149  -20.4085  -12.7744 C   0  0  0  0  0  0  0  0  0  0  0  0
   12.4630  -20.5097  -13.4773 N   0  0  0  0  0  0  0  0  0  0  0  0
   15.1557  -21.2219  -13.8224 C   0  0  0  0  0  0  0  0  0  0  0  0
   15.1937  -21.8449  -14.9078 O   0  0  0  0  0  0  0  0  0  0  0  0
   14.8237  -21.9133  -12.6750 O   0  0  0  0  0  0  0  0  0  0  0  0
  2  1  1  0
  3  2  2  0
  4  3  1  0
  5  4  2  0
  5 11  1  0
  6  7  1  0
  6  5  1  0
  7  8  1  6
  7  9  1  0
  9 10  2  0
 11 12  2  0
 12  2  1  0
 13 14  1  0
 15 14  1  1
 16  9  1  0
 16 15  1  0
 17 15  1  0
 17 18  2  0
 19 17  1  0
 20 19  1  0
 20 27  1  0
 20 21  1  6
 22 21  1  0
 22 26  1  0
 23 24  1  0
 23 22  2  0
 24 25  1  0
 25 26  2  0
 27 28  2  0
 27 29  1  0
M  END
$$$$
