YSH.pdb
     RDKit          3D

 29 30  0  0  1  0  0  0  0  0999 V2000
   29.1948  -20.1705   -6.1198 O   0  0  0  0  0  0  0  0  0  0  0  0
   28.4818  -20.1176   -7.3243 C   0  0  0  0  0  0  0  0  0  0  0  0
   29.1020  -20.3278   -8.5384 C   0  0  0  0  0  0  0  0  0  0  0  0
   28.3776  -20.2708   -9.7166 C   0  0  0  0  0  0  0  0  0  0  0  0
   27.0220  -20.0050   -9.7320 C   0  0  0  0  0  0  0  0  0  0  0  0
   26.2431  -19.9441  -11.0040 C   0  0  0  0  0  0  0  0  0  0  0  0
   25.4967  -21.2325  -11.1433 C   0  0  2  0  0  0  0  0  0  0  0  0
   26.3712  -22.2321  -11.6910 N   0  0  0  0  0  0  0  0  0  0  0  0
   24.2350  -21.0958  -11.9036 C   0  0  0  0  0  0  0  0  0  0  0  0
   24.2742  -21.2209  -13.1455 O   0  0  0  0  0  0  0  0  0  0  0  0
   26.4104  -19.7960   -8.5107 C   0  0  0  0  0  0  0  0  0  0  0  0
   27.1285  -19.8519   -7.3343 C   0  0  0  0  0  0  0  0  0  0  0  0
   20.6965  -20.9789   -9.9333 O   0  0  0  0  0  0  0  0  0  0  0  0
   20.6649  -20.1806  -11.0919 C   0  0  0  0  0  0  0  0  0  0  0  0
   21.7466  -20.6715  -12.0317 C   0  0  2  0  0  0  0  0  0  0  0  0
   22.9815  -20.8298  -11.2943 N   0  0  0  0  0  0  0  0  0  0  0  0
   21.8712  -19.6744  -13.1209 C   0  0  0  0  0  0  0  0  0  0  0  0
   22.9094  -19.0392  -13.3843 O   0  0  0  0  0  0  0  0  0  0  0  0
   20.7192  -19.4325  -13.9161 N   0  0  0  0  0  0  0  0  0  0  0  0
   20.7933  -18.9042  -15.2584 C   0  0  1  0  0  0  0  0  0  0  0  0
   21.7704  -19.8100  -16.0145 C   0  0  0  0  0  0  0  0  0  0  0  0
   21.9808  -19.3446  -17.4091 C   0  0  0  0  0  0  0  0  0  0  0  0
   21.3567  -18.2931  -18.0390 C   0  0  0  0  0  0  0  0  0  0  0  0
   21.8152  -18.1873  -19.2974 N   0  0  0  0  0  0  0  0  0  0  0  0
   22.7395  -19.1726  -19.4854 C   0  0  0  0  0  0  0  0  0  0  0  0
   22.8290  -19.8664  -18.3308 N   0  0  0  0  0  0  0  0  0  0  0  0
   19.4859  -18.8477  -15.9224 C   0  0  0  0  0  0  0  0  0  0  0  0
   18.7317  -19.8461  -15.8755 O   0  0  0  0  0  0  0  0  0  0  0  0
   19.0554  -17.7258  -16.6012 O   0  0  0  0  0  0  0  0  0  0  0  0
  2  1  1  0
  3  2  2  0
  4  3  1  0
  5  4  2  0
  5 11  1  0
  6  7  1  0
  6  5  1  0
  7  8  1  6
  7  9  1  0
  9 10  2  0
 11 12  2  0
 12  2  1  0
 13 14  1  0
 15 14  1  1
 16  9  1  0
 16 15  1  0
 17 15  1  0
 17 18  2  0
 19 17  1  0
 20 19  1  0
 20 27  1  0
 20 21  1  6
 22 21  1  0
 22 26  1  0
 23 24  1  0
 23 22  2  0
 24 25  1  0
 25 26  2  0
 27 28  2  0
 27 29  1  0
M  END
$$$$
