YSH.pdb
     RDKit          3D

 29 30  0  0  1  0  0  0  0  0999 V2000
   28.0906  -13.0859  -24.9882 O   0  0  0  0  0  0  0  0  0  0  0  0
   27.4339  -12.3564  -23.9890 C   0  0  0  0  0  0  0  0  0  0  0  0
   27.7548  -11.0402  -23.7290 C   0  0  0  0  0  0  0  0  0  0  0  0
   27.0925  -10.3384  -22.7366 C   0  0  0  0  0  0  0  0  0  0  0  0
   26.0955  -10.9133  -21.9723 C   0  0  0  0  0  0  0  0  0  0  0  0
   25.3828  -10.1541  -20.9027 C   0  0  0  0  0  0  0  0  0  0  0  0
   26.3093  -10.0339  -19.7349 C   0  0  2  0  0  0  0  0  0  0  0  0
   26.6321  -11.3460  -19.2468 N   0  0  0  0  0  0  0  0  0  0  0  0
   25.7976   -9.1377  -18.6748 C   0  0  0  0  0  0  0  0  0  0  0  0
   25.2662   -9.6521  -17.6685 O   0  0  0  0  0  0  0  0  0  0  0  0
   25.7816  -12.2319  -22.2406 C   0  0  0  0  0  0  0  0  0  0  0  0
   26.4391  -12.9350  -23.2287 C   0  0  0  0  0  0  0  0  0  0  0  0
   25.1286   -5.1746  -19.3635 O   0  0  0  0  0  0  0  0  0  0  0  0
   25.6891   -5.4051  -18.0933 C   0  0  0  0  0  0  0  0  0  0  0  0
   25.3970   -6.8392  -17.7029 C   0  0  2  0  0  0  0  0  0  0  0  0
   25.8794   -7.7229  -18.7423 N   0  0  0  0  0  0  0  0  0  0  0  0
   23.9324   -6.9545  -17.5081 C   0  0  0  0  0  0  0  0  0  0  0  0
   23.1377   -7.3983  -18.3578 O   0  0  0  0  0  0  0  0  0  0  0  0
   23.4066   -6.5256  -16.2600 N   0  0  0  0  0  0  0  0  0  0  0  0
   22.0042   -6.6231  -15.9282 C   0  0  1  0  0  0  0  0  0  0  0  0
   21.6603   -8.1149  -15.9851 C   0  0  0  0  0  0  0  0  0  0  0  0
   20.2364   -8.3617  -15.6427 C   0  0  0  0  0  0  0  0  0  0  0  0
   19.3017   -7.4327  -15.2487 C   0  0  0  0  0  0  0  0  0  0  0  0
   18.1257   -8.0441  -15.0292 N   0  0  0  0  0  0  0  0  0  0  0  0
   18.2968   -9.3736  -15.2812 C   0  0  0  0  0  0  0  0  0  0  0  0
   19.5826   -9.5508  -15.6524 N   0  0  0  0  0  0  0  0  0  0  0  0
   21.6866   -6.0458  -14.6169 C   0  0  0  0  0  0  0  0  0  0  0  0
   22.6130   -5.8282  -13.8032 O   0  0  0  0  0  0  0  0  0  0  0  0
   20.3946   -5.7322  -14.2467 O   0  0  0  0  0  0  0  0  0  0  0  0
  2  1  1  0
  3  2  2  0
  4  3  1  0
  5  4  2  0
  5 11  1  0
  6  7  1  0
  6  5  1  0
  7  8  1  1
  7  9  1  0
  9 10  2  0
 11 12  2  0
 12  2  1  0
 13 14  1  0
 15 14  1  6
 16  9  1  0
 16 15  1  0
 17 15  1  0
 17 18  2  0
 19 17  1  0
 20 19  1  0
 20 27  1  0
 20 21  1  1
 22 21  1  0
 22 26  1  0
 23 24  1  0
 23 22  2  0
 24 25  1  0
 25 26  2  0
 27 28  2  0
 27 29  1  0
M  END
$$$$
