YSH.pdb
     RDKit          3D

 29 30  0  0  1  0  0  0  0  0999 V2000
   31.5628  -10.5874  -18.5786 O   0  0  0  0  0  0  0  0  0  0  0  0
   30.2045  -10.2605  -18.4788 C   0  0  0  0  0  0  0  0  0  0  0  0
   29.3558  -10.3701  -19.5607 C   0  0  0  0  0  0  0  0  0  0  0  0
   28.0166  -10.0415  -19.4393 C   0  0  0  0  0  0  0  0  0  0  0  0
   27.4758   -9.5958  -18.2487 C   0  0  0  0  0  0  0  0  0  0  0  0
   26.0312   -9.2422  -18.1204 C   0  0  0  0  0  0  0  0  0  0  0  0
   25.3328  -10.4023  -17.4856 C   0  0  2  0  0  0  0  0  0  0  0  0
   25.4747  -11.5600  -18.3244 N   0  0  0  0  0  0  0  0  0  0  0  0
   23.9237  -10.1153  -17.1382 C   0  0  0  0  0  0  0  0  0  0  0  0
   23.1001   -9.9773  -18.0668 O   0  0  0  0  0  0  0  0  0  0  0  0
   28.3342   -9.4896  -17.1712 C   0  0  0  0  0  0  0  0  0  0  0  0
   29.6694   -9.8159  -17.2878 C   0  0  0  0  0  0  0  0  0  0  0  0
   22.8741   -9.3590  -13.2389 O   0  0  0  0  0  0  0  0  0  0  0  0
   21.8588   -9.9727  -13.9958 C   0  0  0  0  0  0  0  0  0  0  0  0
   22.0970   -9.6460  -15.4556 C   0  0  2  0  0  0  0  0  0  0  0  0
   23.4591   -9.9885  -15.8036 N   0  0  0  0  0  0  0  0  0  0  0  0
   21.8217   -8.2011  -15.6355 C   0  0  0  0  0  0  0  0  0  0  0  0
   22.6733   -7.3531  -15.9616 O   0  0  0  0  0  0  0  0  0  0  0  0
   20.4886   -7.7610  -15.4183 N   0  0  0  0  0  0  0  0  0  0  0  0
   20.0708   -6.3960  -15.6393 C   0  0  1  0  0  0  0  0  0  0  0  0
   20.3240   -6.1127  -17.1234 C   0  0  0  0  0  0  0  0  0  0  0  0
   19.9125   -4.7350  -17.4954 C   0  0  0  0  0  0  0  0  0  0  0  0
   20.6033   -3.5684  -17.2635 C   0  0  0  0  0  0  0  0  0  0  0  0
   19.9044   -2.5287  -17.7487 N   0  0  0  0  0  0  0  0  0  0  0  0
   18.7567   -3.0210  -18.2971 C   0  0  0  0  0  0  0  0  0  0  0  0
   18.7760   -4.3612  -18.1357 N   0  0  0  0  0  0  0  0  0  0  0  0
   18.6679   -6.1631  -15.2772 C   0  0  0  0  0  0  0  0  0  0  0  0
   17.8355   -7.0864  -15.4267 O   0  0  0  0  0  0  0  0  0  0  0  0
   18.2308   -4.9544  -14.7743 O   0  0  0  0  0  0  0  0  0  0  0  0
  2  1  1  0
  3  2  2  0
  4  3  1  0
  5  4  2  0
  5 11  1  0
  6  7  1  0
  6  5  1  0
  7  8  1  6
  7  9  1  0
  9 10  2  0
 11 12  2  0
 12  2  1  0
 13 14  1  0
 15 14  1  1
 16  9  1  0
 16 15  1  0
 17 15  1  0
 17 18  2  0
 19 17  1  0
 20 19  1  0
 20 27  1  0
 20 21  1  6
 22 21  1  0
 22 26  1  0
 23 24  1  0
 23 22  2  0
 24 25  1  0
 25 26  2  0
 27 28  2  0
 27 29  1  0
M  END
$$$$
