FTE.pdb
     RDKit          3D

 28 28  0  0  1  0  0  0  0  0999 V2000
   26.4593  -23.0562  -16.4844 N   0  0  0  0  0  0  0  0  0  0  0  0
   25.0831  -22.9210  -16.0477 C   0  0  1  0  0  0  0  0  0  0  0  0
   24.8722  -23.8965  -14.8974 C   0  0  0  0  0  0  0  0  0  0  0  0
   24.7489  -25.2614  -15.4391 C   0  0  0  0  0  0  0  0  0  0  0  0
   23.5270  -25.6740  -15.8956 C   0  0  0  0  0  0  0  0  0  0  0  0
   23.3609  -26.9325  -16.4080 C   0  0  0  0  0  0  0  0  0  0  0  0
   24.4416  -27.7888  -16.4617 C   0  0  0  0  0  0  0  0  0  0  0  0
   25.6672  -27.3864  -16.0081 C   0  0  0  0  0  0  0  0  0  0  0  0
   25.8317  -26.1086  -15.4888 C   0  0  0  0  0  0  0  0  0  0  0  0
   24.8502  -21.5522  -15.5246 C   0  0  0  0  0  0  0  0  0  0  0  0
   25.7501  -20.9964  -14.8498 O   0  0  0  0  0  0  0  0  0  0  0  0
   24.8442  -18.5321  -17.0553 C   0  0  0  0  0  0  0  0  0  0  0  0
   23.4570  -18.5292  -16.4810 C   0  0  1  0  0  0  0  0  0  0  0  0
   22.5980  -19.0097  -17.4848 O   0  0  0  0  0  0  0  0  0  0  0  0
   23.4417  -19.5183  -15.3216 C   0  0  2  0  0  0  0  0  0  0  0  0
   23.6320  -20.8742  -15.7783 N   0  0  0  0  0  0  0  0  0  0  0  0
   22.1594  -19.3668  -14.5975 C   0  0  0  0  0  0  0  0  0  0  0  0
   21.7701  -18.2906  -14.0951 O   0  0  0  0  0  0  0  0  0  0  0  0
   21.3274  -20.4990  -14.4651 N   0  0  0  0  0  0  0  0  0  0  0  0
   20.0681  -20.4759  -13.7261 C   0  0  1  0  0  0  0  0  0  0  0  0
   19.1023  -21.2605  -14.5796 C   0  0  0  0  0  0  0  0  0  0  0  0
   19.7390  -21.8733  -15.7788 C   0  0  0  0  0  0  0  0  0  0  0  0
   18.6789  -22.5676  -16.5751 C   0  0  0  0  0  0  0  0  0  0  0  0
   17.4838  -22.4764  -16.2529 O   0  0  0  0  0  0  0  0  0  0  0  0
   20.2114  -20.9362  -12.3574 C   0  0  0  0  0  0  0  0  0  0  0  0
   21.2802  -21.4411  -11.9593 O   0  0  0  0  0  0  0  0  0  0  0  0
   19.0400  -23.3313  -17.7000 O   0  0  0  0  0  0  0  0  0  0  0  0
   19.1620  -20.8243  -11.4620 O   0  0  0  0  0  0  0  0  0  0  0  0
  2  1  1  1
  2  3  1  0
  3  4  1  0
  4  9  2  0
  5  6  2  0
  5  4  1  0
  6  7  1  0
  7  8  2  0
  9  8  1  0
 10  2  1  0
 10 16  1  0
 11 10  2  0
 13 15  1  0
 13 12  1  6
 14 13  1  0
 15 16  1  6
 17 15  1  0
 18 17  2  0
 19 17  1  0
 20 19  1  0
 20 25  1  0
 21 22  1  0
 20 21  1  6
 23 22  1  0
 24 23  2  0
 25 28  1  0
 26 25  2  0
 27 23  1  0
M  END
$$$$
