FTE.pdb
     RDKit          3D

 28 28  0  0  1  0  0  0  0  0999 V2000
   28.5118  -21.0844   -8.8808 N   0  0  0  0  0  0  0  0  0  0  0  0
   27.1553  -20.5905   -8.7439 C   0  0  1  0  0  0  0  0  0  0  0  0
   27.2146  -19.3232   -7.9016 C   0  0  0  0  0  0  0  0  0  0  0  0
   27.7681  -19.6507   -6.5758 C   0  0  0  0  0  0  0  0  0  0  0  0
   29.0113  -19.1795   -6.2535 C   0  0  0  0  0  0  0  0  0  0  0  0
   29.5692  -19.4563   -5.0344 C   0  0  0  0  0  0  0  0  0  0  0  0
   28.8646  -20.2193   -4.1258 C   0  0  0  0  0  0  0  0  0  0  0  0
   27.6213  -20.6952   -4.4379 C   0  0  0  0  0  0  0  0  0  0  0  0
   27.0586  -20.4122   -5.6759 C   0  0  0  0  0  0  0  0  0  0  0  0
   26.6144  -20.2206  -10.0752 C   0  0  0  0  0  0  0  0  0  0  0  0
   27.3272  -19.5455  -10.8562 O   0  0  0  0  0  0  0  0  0  0  0  0
   27.1430  -20.5087  -12.5970 C   0  0  0  0  0  0  0  0  0  0  0  0
   25.7467  -20.9970  -12.8535 C   0  0  1  0  0  0  0  0  0  0  0  0
   25.7549  -22.3872  -12.6442 O   0  0  0  0  0  0  0  0  0  0  0  0
   24.8412  -20.3590  -11.8068 C   0  0  2  0  0  0  0  0  0  0  0  0
   25.3125  -20.6194  -10.4677 N   0  0  0  0  0  0  0  0  0  0  0  0
   23.4667  -20.8718  -12.0054 C   0  0  0  0  0  0  0  0  0  0  0  0
   22.6735  -21.1090  -11.0692 O   0  0  0  0  0  0  0  0  0  0  0  0
   23.0241  -21.1072  -13.3246 N   0  0  0  0  0  0  0  0  0  0  0  0
   21.6165  -21.2900  -13.6682 C   0  0  1  0  0  0  0  0  0  0  0  0
   20.9269  -20.0504  -13.1538 C   0  0  0  0  0  0  0  0  0  0  0  0
   19.4621  -20.0355  -13.4245 C   0  0  0  0  0  0  0  0  0  0  0  0
   19.0266  -18.6139  -13.5951 C   0  0  0  0  0  0  0  0  0  0  0  0
   18.0849  -18.1562  -12.9287 O   0  0  0  0  0  0  0  0  0  0  0  0
   21.4150  -21.5807  -15.0755 C   0  0  0  0  0  0  0  0  0  0  0  0
   22.1753  -21.1068  -15.9435 O   0  0  0  0  0  0  0  0  0  0  0  0
   19.6907  -17.7876  -14.5200 O   0  0  0  0  0  0  0  0  0  0  0  0
   20.3719  -22.3926  -15.4859 O   0  0  0  0  0  0  0  0  0  0  0  0
  2  1  1  6
  2  3  1  0
  3  4  1  0
  4  9  2  0
  5  6  2  0
  5  4  1  0
  6  7  1  0
  7  8  2  0
  9  8  1  0
 10  2  1  0
 10 16  1  0
 11 10  2  0
 13 15  1  0
 13 12  1  1
 14 13  1  0
 15 16  1  1
 17 15  1  0
 18 17  2  0
 19 17  1  0
 20 19  1  0
 20 25  1  0
 21 22  1  0
 20 21  1  6
 23 22  1  0
 24 23  2  0
 25 28  1  0
 26 25  2  0
 27 23  1  0
M  END
$$$$
