FTE.pdb
     RDKit          3D

 28 28  0  0  1  0  0  0  0  0999 V2000
   17.4401  -11.6405  -17.4827 N   0  0  0  0  0  0  0  0  0  0  0  0
   18.5777  -10.7549  -17.6392 C   0  0  1  0  0  0  0  0  0  0  0  0
   18.5481  -10.2228  -19.0657 C   0  0  0  0  0  0  0  0  0  0  0  0
   18.8898  -11.3144  -19.9948 C   0  0  0  0  0  0  0  0  0  0  0  0
   20.2089  -11.5406  -20.2782 C   0  0  0  0  0  0  0  0  0  0  0  0
   20.5777  -12.5426  -21.1350 C   0  0  0  0  0  0  0  0  0  0  0  0
   19.6035  -13.3289  -21.7154 C   0  0  0  0  0  0  0  0  0  0  0  0
   18.2822  -13.1111  -21.4388 C   0  0  0  0  0  0  0  0  0  0  0  0
   17.9119  -12.0935  -20.5690 C   0  0  0  0  0  0  0  0  0  0  0  0
   18.4456   -9.5946  -16.7238 C   0  0  0  0  0  0  0  0  0  0  0  0
   17.3315   -9.0283  -16.6148 O   0  0  0  0  0  0  0  0  0  0  0  0
   18.3233   -9.3589  -13.3576 C   0  0  0  0  0  0  0  0  0  0  0  0
   19.4943   -8.4563  -13.6187 C   0  0  1  0  0  0  0  0  0  0  0  0
   20.6540   -9.2349  -13.4595 O   0  0  0  0  0  0  0  0  0  0  0  0
   19.4108   -8.0110  -15.0738 C   0  0  2  0  0  0  0  0  0  0  0  0
   19.5563   -9.1256  -15.9791 N   0  0  0  0  0  0  0  0  0  0  0  0
   20.4526   -6.9854  -15.3072 C   0  0  0  0  0  0  0  0  0  0  0  0
   21.5383   -7.2184  -15.8809 O   0  0  0  0  0  0  0  0  0  0  0  0
   20.2096   -5.6698  -14.8580 N   0  0  0  0  0  0  0  0  0  0  0  0
   21.1847   -4.5916  -14.9966 C   0  0  1  0  0  0  0  0  0  0  0  0
   20.3692   -3.3227  -14.9564 C   0  0  0  0  0  0  0  0  0  0  0  0
   21.1970   -2.0870  -15.0399 C   0  0  0  0  0  0  0  0  0  0  0  0
   20.2899   -0.9013  -14.9347 C   0  0  0  0  0  0  0  0  0  0  0  0
   19.0690   -1.0513  -14.7694 O   0  0  0  0  0  0  0  0  0  0  0  0
   22.2587   -4.6771  -14.0245 C   0  0  0  0  0  0  0  0  0  0  0  0
   22.0416   -5.0750  -12.8624 O   0  0  0  0  0  0  0  0  0  0  0  0
   20.8257    0.3964  -15.0240 O   0  0  0  0  0  0  0  0  0  0  0  0
   23.5507   -4.3180  -14.3671 O   0  0  0  0  0  0  0  0  0  0  0  0
  2  1  1  6
  2  3  1  0
  3  4  1  0
  4  9  2  0
  5  6  2  0
  5  4  1  0
  6  7  1  0
  7  8  2  0
  9  8  1  0
 10  2  1  0
 10 16  1  0
 11 10  2  0
 13 15  1  0
 13 12  1  6
 14 13  1  0
 15 16  1  6
 17 15  1  0
 18 17  2  0
 19 17  1  0
 20 19  1  0
 20 25  1  0
 21 22  1  0
 20 21  1  1
 23 22  1  0
 24 23  2  0
 25 28  1  0
 26 25  2  0
 27 23  1  0
M  END
$$$$
