FTE.pdb
     RDKit          3D

 28 28  0  0  1  0  0  0  0  0999 V2000
   25.1641  -13.8904  -18.4957 N   0  0  0  0  0  0  0  0  0  0  0  0
   24.8704  -13.1634  -17.2759 C   0  0  1  0  0  0  0  0  0  0  0  0
   26.1406  -13.1507  -16.4359 C   0  0  0  0  0  0  0  0  0  0  0  0
   26.4501  -14.5267  -16.0088 C   0  0  0  0  0  0  0  0  0  0  0  0
   27.4078  -15.2225  -16.6943 C   0  0  0  0  0  0  0  0  0  0  0  0
   27.7314  -16.5036  -16.3365 C   0  0  0  0  0  0  0  0  0  0  0  0
   27.0807  -17.0933  -15.2721 C   0  0  0  0  0  0  0  0  0  0  0  0
   26.1219  -16.4066  -14.5802 C   0  0  0  0  0  0  0  0  0  0  0  0
   25.7963  -15.1068  -14.9463 C   0  0  0  0  0  0  0  0  0  0  0  0
   24.5288  -11.7552  -17.5956 C   0  0  0  0  0  0  0  0  0  0  0  0
   25.1294  -11.1810  -18.5355 O   0  0  0  0  0  0  0  0  0  0  0  0
   21.9091  -10.6989  -19.1886 C   0  0  0  0  0  0  0  0  0  0  0  0
   21.7429   -9.8239  -17.9799 C   0  0  1  0  0  0  0  0  0  0  0  0
   20.8334  -10.4733  -17.1270 O   0  0  0  0  0  0  0  0  0  0  0  0
   23.0940   -9.7547  -17.2782 C   0  0  2  0  0  0  0  0  0  0  0  0
   23.5400  -11.0607  -16.8555 N   0  0  0  0  0  0  0  0  0  0  0  0
   22.9756   -8.8265  -16.1310 C   0  0  0  0  0  0  0  0  0  0  0  0
   22.9276   -9.2001  -14.9393 O   0  0  0  0  0  0  0  0  0  0  0  0
   22.9133   -7.4414  -16.3941 N   0  0  0  0  0  0  0  0  0  0  0  0
   22.8926   -6.4334  -15.3375 C   0  0  1  0  0  0  0  0  0  0  0  0
   23.1958   -5.1312  -16.0369 C   0  0  0  0  0  0  0  0  0  0  0  0
   24.5507   -5.0955  -16.6550 C   0  0  0  0  0  0  0  0  0  0  0  0
   24.7307   -3.7695  -17.3250 C   0  0  0  0  0  0  0  0  0  0  0  0
   23.8477   -2.9002  -17.2553 O   0  0  0  0  0  0  0  0  0  0  0  0
   21.6664   -6.4575  -14.5621 C   0  0  0  0  0  0  0  0  0  0  0  0
   20.5830   -6.7866  -15.0856 O   0  0  0  0  0  0  0  0  0  0  0  0
   25.9125   -3.5050  -18.0411 O   0  0  0  0  0  0  0  0  0  0  0  0
   21.6727   -6.1148  -13.2212 O   0  0  0  0  0  0  0  0  0  0  0  0
  2  1  1  6
  2  3  1  0
  3  4  1  0
  4  9  2  0
  5  6  2  0
  5  4  1  0
  6  7  1  0
  7  8  2  0
  9  8  1  0
 10  2  1  0
 10 16  1  0
 11 10  2  0
 13 15  1  0
 13 12  1  6
 14 13  1  0
 15 16  1  1
 17 15  1  0
 18 17  2  0
 19 17  1  0
 20 19  1  0
 20 25  1  0
 21 22  1  0
 20 21  1  6
 23 22  1  0
 24 23  2  0
 25 28  1  0
 26 25  2  0
 27 23  1  0
M  END
$$$$
