FTE.pdb
     RDKit          3D

 28 28  0  0  1  0  0  0  0  0999 V2000
   25.5261  -19.1602   -9.2393 N   0  0  0  0  0  0  0  0  0  0  0  0
   26.6095  -19.8877   -9.8714 C   0  0  1  0  0  0  0  0  0  0  0  0
   26.9139  -21.0994   -9.0006 C   0  0  0  0  0  0  0  0  0  0  0  0
   27.5111  -20.6442   -7.7327 C   0  0  0  0  0  0  0  0  0  0  0  0
   26.6802  -20.3768   -6.6794 C   0  0  0  0  0  0  0  0  0  0  0  0
   27.1861  -19.9513   -5.4805 C   0  0  0  0  0  0  0  0  0  0  0  0
   28.5497  -19.7928   -5.3401 C   0  0  0  0  0  0  0  0  0  0  0  0
   29.3890  -20.0574   -6.3866 C   0  0  0  0  0  0  0  0  0  0  0  0
   28.8718  -20.4889   -7.6014 C   0  0  0  0  0  0  0  0  0  0  0  0
   26.1769  -20.3864  -11.2002 C   0  0  0  0  0  0  0  0  0  0  0  0
   24.9757  -20.7066  -11.3693 O   0  0  0  0  0  0  0  0  0  0  0  0
   27.5184  -19.1278  -15.7164 C   0  0  0  0  0  0  0  0  0  0  0  0
   27.9870  -19.7260  -14.4215 C   0  0  1  0  0  0  0  0  0  0  0  0
   28.7253  -18.7321  -13.7556 O   0  0  0  0  0  0  0  0  0  0  0  0
   26.7488  -20.0421  -13.5911 C   0  0  2  0  0  0  0  0  0  0  0  0
   27.0999  -20.5029  -12.2691 N   0  0  0  0  0  0  0  0  0  0  0  0
   25.9449  -21.0498  -14.3191 C   0  0  0  0  0  0  0  0  0  0  0  0
   25.9983  -22.2770  -14.0886 O   0  0  0  0  0  0  0  0  0  0  0  0
   25.0681  -20.6031  -15.3307 N   0  0  0  0  0  0  0  0  0  0  0  0
   23.7317  -21.1592  -15.5243 C   0  0  1  0  0  0  0  0  0  0  0  0
   23.0599  -21.0333  -14.1791 C   0  0  0  0  0  0  0  0  0  0  0  0
   21.6502  -21.5150  -14.1767 C   0  0  0  0  0  0  0  0  0  0  0  0
   21.1012  -21.3662  -12.7925 C   0  0  0  0  0  0  0  0  0  0  0  0
   20.3952  -20.3904  -12.4933 O   0  0  0  0  0  0  0  0  0  0  0  0
   23.0258  -20.5506  -16.6365 C   0  0  0  0  0  0  0  0  0  0  0  0
   23.2020  -19.3507  -16.9285 O   0  0  0  0  0  0  0  0  0  0  0  0
   21.3879  -22.3418  -11.8203 O   0  0  0  0  0  0  0  0  0  0  0  0
   22.1394  -21.2908  -17.3994 O   0  0  0  0  0  0  0  0  0  0  0  0
  2  1  1  1
  2  3  1  0
  3  4  1  0
  4  9  2  0
  5  6  2  0
  5  4  1  0
  6  7  1  0
  7  8  2  0
  9  8  1  0
 10  2  1  0
 10 16  1  0
 11 10  2  0
 13 15  1  0
 13 12  1  6
 14 13  1  0
 15 16  1  1
 17 15  1  0
 18 17  2  0
 19 17  1  0
 20 19  1  0
 20 25  1  0
 21 22  1  0
 20 21  1  1
 23 22  1  0
 24 23  2  0
 25 28  1  0
 26 25  2  0
 27 23  1  0
M  END
$$$$
