FTE.pdb
     RDKit          3D

 28 28  0  0  1  0  0  0  0  0999 V2000
   19.8895   -9.4343  -14.2523 N   0  0  0  0  0  0  0  0  0  0  0  0
   20.0105   -8.7980  -12.9549 C   0  0  1  0  0  0  0  0  0  0  0  0
   21.1939   -7.8421  -13.0246 C   0  0  0  0  0  0  0  0  0  0  0  0
   22.3501   -8.5476  -13.6050 C   0  0  0  0  0  0  0  0  0  0  0  0
   22.9100   -8.0503  -14.7499 C   0  0  0  0  0  0  0  0  0  0  0  0
   23.9855   -8.6694  -15.3279 C   0  0  0  0  0  0  0  0  0  0  0  0
   24.5053   -9.8067  -14.7443 C   0  0  0  0  0  0  0  0  0  0  0  0
   23.9532  -10.3120  -13.5999 C   0  0  0  0  0  0  0  0  0  0  0  0
   22.8620   -9.6809  -13.0164 C   0  0  0  0  0  0  0  0  0  0  0  0
   18.7975   -7.9918  -12.6714 C   0  0  0  0  0  0  0  0  0  0  0  0
   17.9923   -7.7541  -13.6036 O   0  0  0  0  0  0  0  0  0  0  0  0
   16.7771   -8.0811   -9.1950 C   0  0  0  0  0  0  0  0  0  0  0  0
   17.0296   -6.6648   -9.6245 C   0  0  1  0  0  0  0  0  0  0  0  0
   18.1605   -6.2189   -8.9183 O   0  0  0  0  0  0  0  0  0  0  0  0
   17.3709   -6.6929  -11.1095 C   0  0  2  0  0  0  0  0  0  0  0  0
   18.5435   -7.4932  -11.3695 N   0  0  0  0  0  0  0  0  0  0  0  0
   17.5549   -5.2984  -11.5713 C   0  0  0  0  0  0  0  0  0  0  0  0
   18.6453   -4.8401  -11.9750 O   0  0  0  0  0  0  0  0  0  0  0  0
   16.4384   -4.4353  -11.5562 N   0  0  0  0  0  0  0  0  0  0  0  0
   16.3675   -3.2160  -12.3569 C   0  0  1  0  0  0  0  0  0  0  0  0
   16.8051   -3.6332  -13.7394 C   0  0  0  0  0  0  0  0  0  0  0  0
   16.7063   -2.5381  -14.7444 C   0  0  0  0  0  0  0  0  0  0  0  0
   17.1512   -3.0707  -16.0704 C   0  0  0  0  0  0  0  0  0  0  0  0
   17.4038   -4.2771  -16.2152 O   0  0  0  0  0  0  0  0  0  0  0  0
   15.0719   -2.5673  -12.2789 C   0  0  0  0  0  0  0  0  0  0  0  0
   14.0223   -3.2377  -12.2085 O   0  0  0  0  0  0  0  0  0  0  0  0
   17.2845   -2.1957  -17.1639 O   0  0  0  0  0  0  0  0  0  0  0  0
   14.9728   -1.1868  -12.2810 O   0  0  0  0  0  0  0  0  0  0  0  0
  2  1  1  6
  2  3  1  0
  3  4  1  0
  4  9  2  0
  5  6  2  0
  5  4  1  0
  6  7  1  0
  7  8  2  0
  9  8  1  0
 10  2  1  0
 10 16  1  0
 11 10  2  0
 13 15  1  0
 13 12  1  1
 14 13  1  0
 15 16  1  1
 17 15  1  0
 18 17  2  0
 19 17  1  0
 20 19  1  0
 20 25  1  0
 21 22  1  0
 20 21  1  6
 23 22  1  0
 24 23  2  0
 25 28  1  0
 26 25  2  0
 27 23  1  0
M  END
$$$$
