FTE.pdb
     RDKit          3D

 28 28  0  0  1  0  0  0  0  0999 V2000
   28.6423  -21.3200   -8.7378 N   0  0  0  0  0  0  0  0  0  0  0  0
   27.2685  -20.8559   -8.7255 C   0  0  1  0  0  0  0  0  0  0  0  0
   27.2717  -19.4375   -8.1712 C   0  0  0  0  0  0  0  0  0  0  0  0
   27.8011  -19.4582   -6.7961 C   0  0  0  0  0  0  0  0  0  0  0  0
   27.0175  -19.9796   -5.8034 C   0  0  0  0  0  0  0  0  0  0  0  0
   27.4639  -20.0215   -4.5099 C   0  0  0  0  0  0  0  0  0  0  0  0
   28.7187  -19.5310   -4.2114 C   0  0  0  0  0  0  0  0  0  0  0  0
   29.5100  -19.0078   -5.1962 C   0  0  0  0  0  0  0  0  0  0  0  0
   29.0534  -18.9670   -6.5074 C   0  0  0  0  0  0  0  0  0  0  0  0
   26.7420  -20.7957  -10.1114 C   0  0  0  0  0  0  0  0  0  0  0  0
   27.5390  -20.5861  -11.0574 O   0  0  0  0  0  0  0  0  0  0  0  0
   25.1264  -21.6511  -14.0251 C   0  0  0  0  0  0  0  0  0  0  0  0
   25.4214  -22.0075  -12.5967 C   0  0  1  0  0  0  0  0  0  0  0  0
   26.8204  -22.0136  -12.4576 O   0  0  0  0  0  0  0  0  0  0  0  0
   24.8566  -20.8937  -11.7232 C   0  0  2  0  0  0  0  0  0  0  0  0
   25.3604  -20.9712  -10.3728 N   0  0  0  0  0  0  0  0  0  0  0  0
   23.3791  -20.9812  -11.7548 C   0  0  0  0  0  0  0  0  0  0  0  0
   22.6466  -20.6894  -10.7851 O   0  0  0  0  0  0  0  0  0  0  0  0
   22.7597  -21.4183  -12.9451 N   0  0  0  0  0  0  0  0  0  0  0  0
   21.3498  -21.1779  -13.2401 C   0  0  1  0  0  0  0  0  0  0  0  0
   21.1451  -19.7049  -12.9846 C   0  0  0  0  0  0  0  0  0  0  0  0
   21.3093  -18.8666  -14.2050 C   0  0  0  0  0  0  0  0  0  0  0  0
   20.2304  -17.8295  -14.2157 C   0  0  0  0  0  0  0  0  0  0  0  0
   20.4391  -16.7041  -14.6956 O   0  0  0  0  0  0  0  0  0  0  0  0
   20.9643  -21.6445  -14.5589 C   0  0  0  0  0  0  0  0  0  0  0  0
   21.7982  -21.7131  -15.4840 O   0  0  0  0  0  0  0  0  0  0  0  0
   18.9668  -18.1326  -13.6767 O   0  0  0  0  0  0  0  0  0  0  0  0
   19.6591  -22.0246  -14.8191 O   0  0  0  0  0  0  0  0  0  0  0  0
  2  1  1  6
  2  3  1  0
  3  4  1  0
  4  9  2  0
  5  6  2  0
  5  4  1  0
  6  7  1  0
  7  8  2  0
  9  8  1  0
 10  2  1  0
 10 16  1  0
 11 10  2  0
 13 15  1  0
 13 12  1  6
 14 13  1  0
 15 16  1  1
 17 15  1  0
 18 17  2  0
 19 17  1  0
 20 19  1  0
 20 25  1  0
 21 22  1  0
 20 21  1  6
 23 22  1  0
 24 23  2  0
 25 28  1  0
 26 25  2  0
 27 23  1  0
M  END
$$$$
