FTE.pdb
     RDKit          3D

 28 28  0  0  1  0  0  0  0  0999 V2000
   19.8794  -11.6002  -17.1048 N   0  0  0  0  0  0  0  0  0  0  0  0
   19.8276  -10.2475  -17.6247 C   0  0  1  0  0  0  0  0  0  0  0  0
   18.5262  -10.1080  -18.4031 C   0  0  0  0  0  0  0  0  0  0  0  0
   18.6234  -10.8889  -19.6490 C   0  0  0  0  0  0  0  0  0  0  0  0
   17.9946  -12.1024  -19.7088 C   0  0  0  0  0  0  0  0  0  0  0  0
   18.0551  -12.8657  -20.8437 C   0  0  0  0  0  0  0  0  0  0  0  0
   18.7594  -12.4000  -21.9351 C   0  0  0  0  0  0  0  0  0  0  0  0
   19.3915  -11.1884  -21.8857 C   0  0  0  0  0  0  0  0  0  0  0  0
   19.3278  -10.4169  -20.7325 C   0  0  0  0  0  0  0  0  0  0  0  0
   19.7876   -9.2757  -16.5041 C   0  0  0  0  0  0  0  0  0  0  0  0
   19.4388   -9.6721  -15.3661 O   0  0  0  0  0  0  0  0  0  0  0  0
   20.9978   -8.8911  -14.1994 C   0  0  0  0  0  0  0  0  0  0  0  0
   21.3456   -7.4907  -14.6140 C   0  0  1  0  0  0  0  0  0  0  0  0
   22.5655   -7.5612  -15.3092 O   0  0  0  0  0  0  0  0  0  0  0  0
   20.2670   -7.0211  -15.5829 C   0  0  2  0  0  0  0  0  0  0  0  0
   20.1365   -7.9173  -16.7067 N   0  0  0  0  0  0  0  0  0  0  0  0
   20.6023   -5.6478  -16.0228 C   0  0  0  0  0  0  0  0  0  0  0  0
   21.3669   -5.3934  -16.9781 O   0  0  0  0  0  0  0  0  0  0  0  0
   20.0281   -4.5629  -15.3265 N   0  0  0  0  0  0  0  0  0  0  0  0
   20.1957   -3.1738  -15.7451 C   0  0  1  0  0  0  0  0  0  0  0  0
   18.9022   -2.4953  -15.3669 C   0  0  0  0  0  0  0  0  0  0  0  0
   17.7140   -3.0600  -16.0658 C   0  0  0  0  0  0  0  0  0  0  0  0
   16.5114   -2.2577  -15.6788 C   0  0  0  0  0  0  0  0  0  0  0  0
   16.4130   -1.0654  -16.0092 O   0  0  0  0  0  0  0  0  0  0  0  0
   21.4009   -2.5676  -15.2105 C   0  0  0  0  0  0  0  0  0  0  0  0
   21.9653   -3.0419  -14.2043 O   0  0  0  0  0  0  0  0  0  0  0  0
   15.4818   -2.8604  -14.9332 O   0  0  0  0  0  0  0  0  0  0  0  0
   21.9514   -1.4468  -15.8075 O   0  0  0  0  0  0  0  0  0  0  0  0
  2  1  1  1
  2  3  1  0
  3  4  1  0
  4  9  2  0
  5  6  2  0
  5  4  1  0
  6  7  1  0
  7  8  2  0
  9  8  1  0
 10  2  1  0
 10 16  1  0
 11 10  2  0
 13 15  1  0
 13 12  1  6
 14 13  1  0
 15 16  1  6
 17 15  1  0
 18 17  2  0
 19 17  1  0
 20 19  1  0
 20 25  1  0
 21 22  1  0
 20 21  1  1
 23 22  1  0
 24 23  2  0
 25 28  1  0
 26 25  2  0
 27 23  1  0
M  END
$$$$
