FTE.pdb
     RDKit          3D

 28 28  0  0  1  0  0  0  0  0999 V2000
   33.2179  -35.6294   -8.0149 N   0  0  0  0  0  0  0  0  0  0  0  0
   33.1579  -34.8719   -6.7798 C   0  0  1  0  0  0  0  0  0  0  0  0
   31.8236  -34.1382   -6.7595 C   0  0  0  0  0  0  0  0  0  0  0  0
   31.9170  -32.9437   -7.6173 C   0  0  0  0  0  0  0  0  0  0  0  0
   31.1583  -32.8965   -8.7546 C   0  0  0  0  0  0  0  0  0  0  0  0
   31.2096  -31.8089   -9.5844 C   0  0  0  0  0  0  0  0  0  0  0  0
   32.0376  -30.7525   -9.2642 C   0  0  0  0  0  0  0  0  0  0  0  0
   32.8001  -30.7895   -8.1297 C   0  0  0  0  0  0  0  0  0  0  0  0
   32.7453  -31.8949   -7.2903 C   0  0  0  0  0  0  0  0  0  0  0  0
   33.1811  -35.7949   -5.6182 C   0  0  0  0  0  0  0  0  0  0  0  0
   32.7200  -36.9540   -5.7518 O   0  0  0  0  0  0  0  0  0  0  0  0
   34.6748  -36.8903   -1.0898 C   0  0  0  0  0  0  0  0  0  0  0  0
   34.7680  -35.9034   -2.2175 C   0  0  1  0  0  0  0  0  0  0  0  0
   36.0303  -36.0790   -2.8110 O   0  0  0  0  0  0  0  0  0  0  0  0
   33.7006  -36.2768   -3.2392 C   0  0  2  0  0  0  0  0  0  0  0  0
   33.7143  -35.3823   -4.3719 N   0  0  0  0  0  0  0  0  0  0  0  0
   32.3847  -36.2702   -2.5611 C   0  0  0  0  0  0  0  0  0  0  0  0
   31.6411  -35.2675   -2.5007 O   0  0  0  0  0  0  0  0  0  0  0  0
   31.9419  -37.4614   -1.9474 N   0  0  0  0  0  0  0  0  0  0  0  0
   30.6755  -37.5589   -1.2265 C   0  0  1  0  0  0  0  0  0  0  0  0
   30.5447  -39.0184   -0.8666 C   0  0  0  0  0  0  0  0  0  0  0  0
   29.3178  -39.3236   -0.0788 C   0  0  0  0  0  0  0  0  0  0  0  0
   28.8851  -40.7202   -0.3983 C   0  0  0  0  0  0  0  0  0  0  0  0
   29.7234  -41.6209   -0.5604 O   0  0  0  0  0  0  0  0  0  0  0  0
   30.5885  -36.6294   -0.1156 C   0  0  0  0  0  0  0  0  0  0  0  0
   31.5438  -36.4810    0.6727 O   0  0  0  0  0  0  0  0  0  0  0  0
   27.5147  -41.0156   -0.5162 O   0  0  0  0  0  0  0  0  0  0  0  0
   29.4403  -35.8855    0.0935 O   0  0  0  0  0  0  0  0  0  0  0  0
  2  1  1  6
  2  3  1  0
  3  4  1  0
  4  9  2  0
  5  6  2  0
  5  4  1  0
  6  7  1  0
  7  8  2  0
  9  8  1  0
 10  2  1  0
 10 16  1  0
 11 10  2  0
 13 15  1  0
 13 12  1  1
 14 13  1  0
 15 16  1  6
 17 15  1  0
 18 17  2  0
 19 17  1  0
 20 19  1  0
 20 25  1  0
 21 22  1  0
 20 21  1  1
 23 22  1  0
 24 23  2  0
 25 28  1  0
 26 25  2  0
 27 23  1  0
M  END
$$$$
