PLI.pdb
     RDKit          3D

 24 24  0  0  1  0  0  0  0  0999 V2000
   43.7632  -11.6425   -9.8144 N   0  0  0  0  0  0  0  0  0  0  0  0
   44.5118  -12.8274  -10.1440 C   0  0  0  0  0  0  0  0  0  0  0  0
   43.5889  -14.0042   -9.9964 C   0  0  0  0  0  0  0  0  0  0  0  0
   42.5794  -13.4690   -8.9836 C   0  0  0  0  0  0  0  0  0  0  0  0
   42.4390  -12.0335   -9.4467 C   0  0  1  0  0  0  0  0  0  0  0  0
   41.8790  -11.1580   -8.3806 C   0  0  0  0  0  0  0  0  0  0  0  0
   40.7267  -11.3213   -7.9148 O   0  0  0  0  0  0  0  0  0  0  0  0
   42.9774  -10.1235   -3.8461 C   0  0  0  0  0  0  0  0  0  0  0  0
   43.8408   -9.5969   -4.9381 C   0  0  2  0  0  0  0  0  0  0  0  0
   45.0160   -8.8386   -4.2596 C   0  0  0  0  0  0  0  0  0  0  0  0
   43.2401   -8.7563   -5.9779 C   0  0  0  0  0  0  0  0  0  0  0  0
   42.1215   -9.1782   -6.8245 C   0  0  2  0  0  0  0  0  0  0  0  0
   42.6565  -10.1143   -7.8740 N   0  0  0  0  0  0  0  0  0  0  0  0
   41.4056   -8.1090   -7.5473 C   0  0  0  0  0  0  0  0  0  0  0  0
   41.7995   -7.6219   -8.6292 O   0  0  0  0  0  0  0  0  0  0  0  0
   36.4748   -8.1424   -6.1029 C   0  0  0  0  0  0  0  0  0  0  0  0
   37.2958   -7.8361   -7.3053 C   0  0  0  0  0  0  0  0  0  0  0  0
   37.9539   -6.5005   -7.3332 C   0  0  2  0  0  0  0  0  0  0  0  0
   37.2771   -5.7129   -8.4646 C   0  0  0  0  0  0  0  0  0  0  0  0
   39.4155   -6.4844   -7.5766 C   0  0  2  0  0  0  0  0  0  0  0  0
   40.1836   -7.5493   -7.0362 N   0  0  0  0  0  0  0  0  0  0  0  0
   39.9780   -5.1097   -7.3214 C   0  0  0  0  0  0  0  0  0  0  0  0
   40.3615   -4.6732   -6.2278 O   0  0  0  0  0  0  0  0  0  0  0  0
   40.0956   -4.2070   -8.3986 O   0  0  0  0  0  0  0  0  0  0  0  0
  1  2  1  0
  2  3  1  0
  4  3  1  0
  5  1  1  0
  5  4  1  0
  6  7  2  0
  5  6  1  1
  9  8  1  1
  9 11  1  0
  9 10  1  0
 12 11  1  6
 12 13  1  0
 12 14  1  0
 13  6  1  0
 14 15  2  0
 14 21  1  0
 17 16  1  0
 18 20  1  0
 18 17  1  0
 18 19  1  6
 20 22  1  0
 20 21  1  1
 22 23  2  0
 22 24  1  0
M  END
$$$$
