PLI.pdb
     RDKit          3D

 24 24  0  0  1  0  0  0  0  0999 V2000
   27.1825  -19.0774  -15.2174 N   0  0  0  0  0  0  0  0  0  0  0  0
   28.5946  -18.8527  -15.3860 C   0  0  0  0  0  0  0  0  0  0  0  0
   29.1971  -20.1232  -15.9162 C   0  0  0  0  0  0  0  0  0  0  0  0
   28.2030  -21.1632  -15.4049 C   0  0  0  0  0  0  0  0  0  0  0  0
   26.8927  -20.4260  -15.5902 C   0  0  1  0  0  0  0  0  0  0  0  0
   25.8046  -21.0090  -14.7579 C   0  0  0  0  0  0  0  0  0  0  0  0
   25.3558  -22.1632  -14.9530 O   0  0  0  0  0  0  0  0  0  0  0  0
   26.0592  -22.2359  -10.5449 C   0  0  0  0  0  0  0  0  0  0  0  0
   25.7439  -20.8010  -10.7827 C   0  0  2  0  0  0  0  0  0  0  0  0
   25.8277  -20.0852   -9.4053 C   0  0  0  0  0  0  0  0  0  0  0  0
   24.4874  -20.4496  -11.4508 C   0  0  0  0  0  0  0  0  0  0  0  0
   24.1717  -20.8050  -12.8365 C   0  0  2  0  0  0  0  0  0  0  0  0
   25.2569  -20.2520  -13.7200 N   0  0  0  0  0  0  0  0  0  0  0  0
   22.8967  -20.2896  -13.3722 C   0  0  0  0  0  0  0  0  0  0  0  0
   22.6150  -19.0732  -13.4370 O   0  0  0  0  0  0  0  0  0  0  0  0
   19.0385  -20.7957  -17.9729 C   0  0  0  0  0  0  0  0  0  0  0  0
   19.1768  -20.6146  -16.5027 C   0  0  0  0  0  0  0  0  0  0  0  0
   20.4927  -20.9854  -15.9122 C   0  0  2  0  0  0  0  0  0  0  0  0
   20.7189  -22.4631  -16.2636 C   0  0  0  0  0  0  0  0  0  0  0  0
   20.6273  -20.8395  -14.4437 C   0  0  2  0  0  0  0  0  0  0  0  0
   21.8773  -21.1780  -13.8615 N   0  0  0  0  0  0  0  0  0  0  0  0
   19.4277  -21.4236  -13.7431 C   0  0  0  0  0  0  0  0  0  0  0  0
   19.4017  -22.4900  -13.1139 O   0  0  0  0  0  0  0  0  0  0  0  0
   18.2036  -20.7243  -13.7828 O   0  0  0  0  0  0  0  0  0  0  0  0
  1  2  1  0
  2  3  1  0
  4  3  1  0
  5  1  1  0
  5  4  1  0
  6  7  2  0
  5  6  1  1
  9  8  1  1
  9 11  1  0
  9 10  1  0
 12 11  1  1
 12 13  1  0
 12 14  1  0
 13  6  1  0
 14 15  2  0
 14 21  1  0
 17 16  1  0
 18 20  1  0
 18 17  1  0
 18 19  1  1
 20 22  1  0
 20 21  1  1
 22 23  2  0
 22 24  1  0
M  END
$$$$
