PLI.pdb
     RDKit          3D

 24 24  0  0  1  0  0  0  0  0999 V2000
   27.1787  -21.7020  -19.0159 N   0  0  0  0  0  0  0  0  0  0  0  0
   28.0020  -21.9425  -20.1724 C   0  0  0  0  0  0  0  0  0  0  0  0
   28.7779  -23.2052  -19.9237 C   0  0  0  0  0  0  0  0  0  0  0  0
   28.8183  -23.2372  -18.3977 C   0  0  0  0  0  0  0  0  0  0  0  0
   27.4292  -22.7352  -18.0613 C   0  0  1  0  0  0  0  0  0  0  0  0
   27.3444  -22.2301  -16.6634 C   0  0  0  0  0  0  0  0  0  0  0  0
   27.6111  -22.9501  -15.6724 O   0  0  0  0  0  0  0  0  0  0  0  0
   30.0220  -19.1399  -15.3500 C   0  0  0  0  0  0  0  0  0  0  0  0
   28.7240  -18.6080  -15.8474 C   0  0  2  0  0  0  0  0  0  0  0  0
   28.8682  -17.0621  -15.9238 C   0  0  0  0  0  0  0  0  0  0  0  0
   27.4914  -18.9586  -15.1358 C   0  0  0  0  0  0  0  0  0  0  0  0
   26.9556  -20.3194  -15.0515 C   0  0  2  0  0  0  0  0  0  0  0  0
   26.9548  -20.9083  -16.4362 N   0  0  0  0  0  0  0  0  0  0  0  0
   25.5764  -20.4515  -14.5430 C   0  0  0  0  0  0  0  0  0  0  0  0
   24.5600  -20.3308  -15.2609 O   0  0  0  0  0  0  0  0  0  0  0  0
   24.3360  -20.4259   -8.9015 C   0  0  0  0  0  0  0  0  0  0  0  0
   24.9494  -20.9728  -10.1417 C   0  0  0  0  0  0  0  0  0  0  0  0
   24.0064  -21.4706  -11.1812 C   0  0  2  0  0  0  0  0  0  0  0  0
   24.3452  -22.9535  -11.3922 C   0  0  0  0  0  0  0  0  0  0  0  0
   24.0565  -20.7986  -12.5009 C   0  0  2  0  0  0  0  0  0  0  0  0
   25.3138  -20.7318  -13.1573 N   0  0  0  0  0  0  0  0  0  0  0  0
   23.2980  -19.4970  -12.4595 C   0  0  0  0  0  0  0  0  0  0  0  0
   22.1049  -19.3606  -12.1573 O   0  0  0  0  0  0  0  0  0  0  0  0
   23.9708  -18.3016  -12.7875 O   0  0  0  0  0  0  0  0  0  0  0  0
  1  2  1  0
  2  3  1  0
  4  3  1  0
  5  1  1  0
  5  4  1  0
  6  7  2  0
  5  6  1  1
  9  8  1  1
  9 11  1  0
  9 10  1  0
 12 11  1  6
 12 13  1  0
 12 14  1  0
 13  6  1  0
 14 15  2  0
 14 21  1  0
 17 16  1  0
 18 20  1  0
 18 17  1  0
 18 19  1  6
 20 22  1  0
 20 21  1  1
 22 23  2  0
 22 24  1  0
M  END
$$$$
