PLI.pdb
     RDKit          3D

 24 24  0  0  1  0  0  0  0  0999 V2000
   20.4166  -12.6514  -20.1940 N   0  0  0  0  0  0  0  0  0  0  0  0
   20.4228  -13.9475  -20.8210 C   0  0  0  0  0  0  0  0  0  0  0  0
   19.1504  -14.6465  -20.4329 C   0  0  0  0  0  0  0  0  0  0  0  0
   18.8206  -13.9579  -19.1106 C   0  0  0  0  0  0  0  0  0  0  0  0
   19.2211  -12.5302  -19.4208 C   0  0  1  0  0  0  0  0  0  0  0  0
   19.4408  -11.7333  -18.1825 C   0  0  0  0  0  0  0  0  0  0  0  0
   18.5263  -11.5168  -17.3528 O   0  0  0  0  0  0  0  0  0  0  0  0
   24.1824  -10.7088  -14.4785 C   0  0  0  0  0  0  0  0  0  0  0  0
   22.8690  -10.1924  -14.9514 C   0  0  2  0  0  0  0  0  0  0  0  0
   21.9179  -10.1818  -13.7218 C   0  0  0  0  0  0  0  0  0  0  0  0
   22.2114  -10.8505  -16.0840 C   0  0  0  0  0  0  0  0  0  0  0  0
   20.9731  -10.3698  -16.7017 C   0  0  2  0  0  0  0  0  0  0  0  0
   20.7071  -11.2031  -17.9260 N   0  0  0  0  0  0  0  0  0  0  0  0
   20.9647   -8.9627  -17.1468 C   0  0  0  0  0  0  0  0  0  0  0  0
   21.7155   -8.5156  -18.0410 O   0  0  0  0  0  0  0  0  0  0  0  0
   16.8315   -6.3793  -19.1475 C   0  0  0  0  0  0  0  0  0  0  0  0
   18.1485   -6.8374  -18.6287 C   0  0  0  0  0  0  0  0  0  0  0  0
   18.6562   -6.1454  -17.4118 C   0  0  2  0  0  0  0  0  0  0  0  0
   18.8139   -4.6665  -17.7941 C   0  0  0  0  0  0  0  0  0  0  0  0
   19.9522   -6.6177  -16.8703 C   0  0  2  0  0  0  0  0  0  0  0  0
   20.0719   -7.9987  -16.5626 N   0  0  0  0  0  0  0  0  0  0  0  0
   20.4439   -5.6875  -15.7914 C   0  0  0  0  0  0  0  0  0  0  0  0
   20.8206   -4.5192  -15.9555 O   0  0  0  0  0  0  0  0  0  0  0  0
   20.4956   -6.1496  -14.4598 O   0  0  0  0  0  0  0  0  0  0  0  0
  1  2  1  0
  2  3  1  0
  4  3  1  0
  5  1  1  0
  5  4  1  0
  6  7  2  0
  5  6  1  1
  9  8  1  1
  9 11  1  0
  9 10  1  0
 12 11  1  6
 12 13  1  0
 12 14  1  0
 13  6  1  0
 14 15  2  0
 14 21  1  0
 17 16  1  0
 18 20  1  0
 18 17  1  0
 18 19  1  6
 20 22  1  0
 20 21  1  1
 22 23  2  0
 22 24  1  0
M  END
$$$$
