PLI.pdb
     RDKit          3D

 24 24  0  0  1  0  0  0  0  0999 V2000
   28.5516  -19.6021  -13.4156 N   0  0  0  0  0  0  0  0  0  0  0  0
   29.9785  -19.5966  -13.6086 C   0  0  0  0  0  0  0  0  0  0  0  0
   30.3778  -20.9639  -14.0875 C   0  0  0  0  0  0  0  0  0  0  0  0
   29.2497  -21.8223  -13.5201 C   0  0  0  0  0  0  0  0  0  0  0  0
   28.0597  -20.9075  -13.7248 C   0  0  1  0  0  0  0  0  0  0  0  0
   26.9115  -21.2867  -12.8563 C   0  0  0  0  0  0  0  0  0  0  0  0
   26.2339  -22.3227  -13.0542 O   0  0  0  0  0  0  0  0  0  0  0  0
   26.9909  -21.7512   -8.2499 C   0  0  0  0  0  0  0  0  0  0  0  0
   26.7515  -20.3891   -8.8000 C   0  0  2  0  0  0  0  0  0  0  0  0
   26.7690  -19.4057   -7.5962 C   0  0  0  0  0  0  0  0  0  0  0  0
   25.5598  -20.1518   -9.6197 C   0  0  0  0  0  0  0  0  0  0  0  0
   25.3478  -20.7422  -10.9436 C   0  0  2  0  0  0  0  0  0  0  0  0
   26.5681  -20.4663  -11.7795 N   0  0  0  0  0  0  0  0  0  0  0  0
   24.1943  -20.2346  -11.7117 C   0  0  0  0  0  0  0  0  0  0  0  0
   24.1118  -19.0642  -12.1433 O   0  0  0  0  0  0  0  0  0  0  0  0
   20.8490  -21.3632  -16.4961 C   0  0  0  0  0  0  0  0  0  0  0  0
   20.8178  -20.8729  -15.0917 C   0  0  0  0  0  0  0  0  0  0  0  0
   21.9530  -21.2878  -14.2218 C   0  0  2  0  0  0  0  0  0  0  0  0
   21.9091  -22.8216  -14.1623 C   0  0  0  0  0  0  0  0  0  0  0  0
   21.9462  -20.7766  -12.8309 C   0  0  2  0  0  0  0  0  0  0  0  0
   23.0687  -21.0766  -12.0149 N   0  0  0  0  0  0  0  0  0  0  0  0
   20.6101  -21.0307  -12.1817 C   0  0  0  0  0  0  0  0  0  0  0  0
   20.4099  -21.7349  -11.1829 O   0  0  0  0  0  0  0  0  0  0  0  0
   19.4572  -20.4311  -12.7298 O   0  0  0  0  0  0  0  0  0  0  0  0
  1  2  1  0
  2  3  1  0
  4  3  1  0
  5  1  1  0
  5  4  1  0
  6  7  2  0
  5  6  1  1
  9  8  1  1
  9 11  1  0
  9 10  1  0
 12 11  1  1
 12 13  1  0
 12 14  1  0
 13  6  1  0
 14 15  2  0
 14 21  1  0
 17 16  1  0
 18 20  1  0
 18 17  1  0
 18 19  1  1
 20 22  1  0
 20 21  1  1
 22 23  2  0
 22 24  1  0
M  END
$$$$
