PLI.pdb
     RDKit          3D

 24 24  0  0  1  0  0  0  0  0999 V2000
   27.6620  -19.2491  -15.3596 N   0  0  0  0  0  0  0  0  0  0  0  0
   29.0862  -19.1983  -15.5649 C   0  0  0  0  0  0  0  0  0  0  0  0
   29.5364  -20.5731  -15.9716 C   0  0  0  0  0  0  0  0  0  0  0  0
   28.4469  -21.4425  -15.3482 C   0  0  0  0  0  0  0  0  0  0  0  0
   27.2203  -20.5878  -15.5924 C   0  0  1  0  0  0  0  0  0  0  0  0
   26.0937  -20.9634  -14.6944 C   0  0  0  0  0  0  0  0  0  0  0  0
   25.4356  -22.0191  -14.8491 O   0  0  0  0  0  0  0  0  0  0  0  0
   25.6650  -22.0709   -9.9923 C   0  0  0  0  0  0  0  0  0  0  0  0
   25.9967  -20.7006  -10.4692 C   0  0  2  0  0  0  0  0  0  0  0  0
   26.2860  -19.8403   -9.2072 C   0  0  0  0  0  0  0  0  0  0  0  0
   25.0486  -20.0017  -11.3417 C   0  0  0  0  0  0  0  0  0  0  0  0
   24.6561  -20.4788  -12.6700 C   0  0  2  0  0  0  0  0  0  0  0  0
   25.7489  -20.1165  -13.6388 N   0  0  0  0  0  0  0  0  0  0  0  0
   23.4071  -19.9217  -13.2249 C   0  0  0  0  0  0  0  0  0  0  0  0
   23.2503  -18.7115  -13.4966 O   0  0  0  0  0  0  0  0  0  0  0  0
   19.3189  -20.3120  -17.5095 C   0  0  0  0  0  0  0  0  0  0  0  0
   19.4868  -20.1664  -16.0384 C   0  0  0  0  0  0  0  0  0  0  0  0
   20.7718  -20.6576  -15.4682 C   0  0  2  0  0  0  0  0  0  0  0  0
   20.7719  -22.1810  -15.6617 C   0  0  0  0  0  0  0  0  0  0  0  0
   21.0116  -20.3797  -14.0326 C   0  0  2  0  0  0  0  0  0  0  0  0
   22.2682  -20.7584  -13.4907 N   0  0  0  0  0  0  0  0  0  0  0  0
   19.8200  -20.7945  -13.2085 C   0  0  0  0  0  0  0  0  0  0  0  0
   19.7143  -21.8450  -12.5614 O   0  0  0  0  0  0  0  0  0  0  0  0
   18.7021  -19.9372  -13.1409 O   0  0  0  0  0  0  0  0  0  0  0  0
  1  2  1  0
  2  3  1  0
  4  3  1  0
  5  1  1  0
  5  4  1  0
  6  7  2  0
  5  6  1  1
  9  8  1  1
  9 11  1  0
  9 10  1  0
 12 11  1  1
 12 13  1  0
 12 14  1  0
 13  6  1  0
 14 15  2  0
 14 21  1  0
 17 16  1  0
 18 20  1  0
 18 17  1  0
 18 19  1  1
 20 22  1  0
 20 21  1  1
 22 23  2  0
 22 24  1  0
M  END
$$$$
