PLI.pdb
     RDKit          3D

 24 24  0  0  1  0  0  0  0  0999 V2000
   27.2751  -22.5029  -17.2945 N   0  0  0  0  0  0  0  0  0  0  0  0
   27.6563  -22.7081  -18.6677 C   0  0  0  0  0  0  0  0  0  0  0  0
   29.1538  -22.6082  -18.7437 C   0  0  0  0  0  0  0  0  0  0  0  0
   29.4575  -21.7244  -17.5361 C   0  0  0  0  0  0  0  0  0  0  0  0
   28.4569  -22.2557  -16.5304 C   0  0  1  0  0  0  0  0  0  0  0  0
   28.2105  -21.2870  -15.4270 C   0  0  0  0  0  0  0  0  0  0  0  0
   29.1347  -20.8403  -14.7074 O   0  0  0  0  0  0  0  0  0  0  0  0
   27.4722  -16.9496  -15.4331 C   0  0  0  0  0  0  0  0  0  0  0  0
   26.3229  -17.8344  -15.7668 C   0  0  2  0  0  0  0  0  0  0  0  0
   25.1743  -16.9144  -16.2676 C   0  0  0  0  0  0  0  0  0  0  0  0
   25.8141  -18.7556  -14.7465 C   0  0  0  0  0  0  0  0  0  0  0  0
   26.6165  -19.8136  -14.1278 C   0  0  2  0  0  0  0  0  0  0  0  0
   26.9069  -20.8536  -15.1756 N   0  0  0  0  0  0  0  0  0  0  0  0
   25.9987  -20.5277  -12.9934 C   0  0  0  0  0  0  0  0  0  0  0  0
   25.2397  -21.5122  -13.1266 O   0  0  0  0  0  0  0  0  0  0  0  0
   26.4202  -20.5857   -6.6486 C   0  0  0  0  0  0  0  0  0  0  0  0
   25.7467  -20.9203   -7.9323 C   0  0  0  0  0  0  0  0  0  0  0  0
   26.3433  -20.3335   -9.1641 C   0  0  2  0  0  0  0  0  0  0  0  0
   26.2826  -18.8095   -8.9854 C   0  0  0  0  0  0  0  0  0  0  0  0
   25.6833  -20.6693  -10.4476 C   0  0  2  0  0  0  0  0  0  0  0  0
   26.2378  -20.1221  -11.6347 N   0  0  0  0  0  0  0  0  0  0  0  0
   24.1882  -20.5242  -10.3262 C   0  0  0  0  0  0  0  0  0  0  0  0
   23.4558  -21.1657   -9.5609 O   0  0  0  0  0  0  0  0  0  0  0  0
   23.5230  -19.5836  -11.1397 O   0  0  0  0  0  0  0  0  0  0  0  0
  1  2  1  0
  2  3  1  0
  4  3  1  0
  5  1  1  0
  5  4  1  0
  6  7  2  0
  5  6  1  1
  9  8  1  1
  9 11  1  0
  9 10  1  0
 12 11  1  6
 12 13  1  0
 12 14  1  0
 13  6  1  0
 14 15  2  0
 14 21  1  0
 17 16  1  0
 18 20  1  0
 18 17  1  0
 18 19  1  1
 20 22  1  0
 20 21  1  6
 22 23  2  0
 22 24  1  0
M  END
$$$$
