PLI.pdb
     RDKit          3D

 24 24  0  0  1  0  0  0  0  0999 V2000
   28.1808  -17.9979  -16.6517 N   0  0  0  0  0  0  0  0  0  0  0  0
   28.8773  -17.5426  -17.8267 C   0  0  0  0  0  0  0  0  0  0  0  0
   28.7144  -18.5940  -18.8880 C   0  0  0  0  0  0  0  0  0  0  0  0
   28.4861  -19.8433  -18.0404 C   0  0  0  0  0  0  0  0  0  0  0  0
   27.6231  -19.2841  -16.9281 C   0  0  1  0  0  0  0  0  0  0  0  0
   27.6303  -20.1610  -15.7250 C   0  0  0  0  0  0  0  0  0  0  0  0
   26.9408  -21.2054  -15.6518 O   0  0  0  0  0  0  0  0  0  0  0  0
   31.1982  -20.4616  -10.6767 C   0  0  0  0  0  0  0  0  0  0  0  0
   30.0337  -21.0402  -11.4009 C   0  0  2  0  0  0  0  0  0  0  0  0
   30.2292  -22.5823  -11.4127 C   0  0  0  0  0  0  0  0  0  0  0  0
   29.7303  -20.5663  -12.7544 C   0  0  0  0  0  0  0  0  0  0  0  0
   28.3957  -20.6136  -13.3566 C   0  0  2  0  0  0  0  0  0  0  0  0
   28.4301  -19.8174  -14.6329 N   0  0  0  0  0  0  0  0  0  0  0  0
   27.2915  -20.0585  -12.5500 C   0  0  0  0  0  0  0  0  0  0  0  0
   27.1546  -18.8389  -12.3111 O   0  0  0  0  0  0  0  0  0  0  0  0
   21.3706  -19.9604  -11.8918 C   0  0  0  0  0  0  0  0  0  0  0  0
   22.6638  -20.0190  -11.1585 C   0  0  0  0  0  0  0  0  0  0  0  0
   23.8274  -20.5611  -11.9133 C   0  0  2  0  0  0  0  0  0  0  0  0
   23.4927  -22.0278  -12.2212 C   0  0  0  0  0  0  0  0  0  0  0  0
   25.1399  -20.5268  -11.2263 C   0  0  2  0  0  0  0  0  0  0  0  0
   26.2840  -20.9086  -11.9754 N   0  0  0  0  0  0  0  0  0  0  0  0
   25.0391  -21.1620   -9.8634 C   0  0  0  0  0  0  0  0  0  0  0  0
   25.5905  -22.2127   -9.5090 O   0  0  0  0  0  0  0  0  0  0  0  0
   24.2557  -20.5355   -8.8720 O   0  0  0  0  0  0  0  0  0  0  0  0
  1  2  1  0
  2  3  1  0
  4  3  1  0
  5  1  1  0
  5  4  1  0
  6  7  2  0
  5  6  1  1
  9  8  1  6
  9 11  1  0
  9 10  1  0
 12 11  1  1
 12 13  1  0
 12 14  1  0
 13  6  1  0
 14 15  2  0
 14 21  1  0
 17 16  1  0
 18 20  1  0
 18 17  1  0
 18 19  1  1
 20 22  1  0
 20 21  1  6
 22 23  2  0
 22 24  1  0
M  END
$$$$
