WFE.pdb
     RDKit          3D

 35 37  0  0  1  0  0  0  0  0999 V2000
    8.6818  -17.0705   22.2037 N   0  0  0  0  0  0  0  0  0  0  0  0
    8.1123  -15.7640   22.2562 C   0  0  1  0  0  0  0  0  0  0  0  0
    6.8027  -15.7270   21.5056 C   0  0  0  0  0  0  0  0  0  0  0  0
    7.0941  -15.4130   20.0850 C   0  0  0  0  0  0  0  0  0  0  0  0
    6.8646  -16.2928   19.0204 C   0  0  0  0  0  0  0  0  0  0  0  0
    7.1930  -15.7099   17.8569 N   0  0  0  0  0  0  0  0  0  0  0  0
    7.6332  -14.4689   18.1315 C   0  0  0  0  0  0  0  0  0  0  0  0
    8.0995  -13.4618   17.2773 C   0  0  0  0  0  0  0  0  0  0  0  0
    8.5124  -12.2555   17.7991 C   0  0  0  0  0  0  0  0  0  0  0  0
    8.4529  -12.0757   19.1658 C   0  0  0  0  0  0  0  0  0  0  0  0
    7.9872  -13.0794   20.0248 C   0  0  0  0  0  0  0  0  0  0  0  0
    7.5812  -14.2647   19.5005 C   0  0  0  0  0  0  0  0  0  0  0  0
    7.9406  -15.3700   23.6784 C   0  0  0  0  0  0  0  0  0  0  0  0
    7.1741  -14.4093   23.9885 O   0  0  0  0  0  0  0  0  0  0  0  0
    8.5961  -16.0176   24.7370 N   0  0  0  0  0  0  0  0  0  0  0  0
    9.2929  -15.2682   25.7801 C   0  0  1  0  0  0  0  0  0  0  0  0
    8.3987  -15.3327   26.9993 C   0  0  0  0  0  0  0  0  0  0  0  0
    7.6393  -14.0340   27.0129 C   0  0  0  0  0  0  0  0  0  0  0  0
    8.3223  -12.8616   27.2047 C   0  0  0  0  0  0  0  0  0  0  0  0
    7.6444  -11.6664   27.2190 C   0  0  0  0  0  0  0  0  0  0  0  0
    6.2760  -11.5916   27.0452 C   0  0  0  0  0  0  0  0  0  0  0  0
    5.6204  -12.7958   26.8543 C   0  0  0  0  0  0  0  0  0  0  0  0
    6.2774  -13.9960   26.8367 C   0  0  0  0  0  0  0  0  0  0  0  0
   10.6091  -15.9092   26.0226 C   0  0  0  0  0  0  0  0  0  0  0  0
   10.9826  -16.0658   27.2018 O   0  0  0  0  0  0  0  0  0  0  0  0
   11.4355  -16.3394   24.9542 N   0  0  0  0  0  0  0  0  0  0  0  0
   12.1337  -17.6334   24.9526 C   0  0  1  0  0  0  0  0  0  0  0  0
   11.1517  -18.7410   25.2177 C   0  0  0  0  0  0  0  0  0  0  0  0
   11.8329  -20.0770   25.1265 C   0  0  0  0  0  0  0  0  0  0  0  0
   10.8390  -21.1896   25.3138 C   0  0  0  0  0  0  0  0  0  0  0  0
   10.7407  -22.0292   24.3842 O   0  0  0  0  0  0  0  0  0  0  0  0
   12.8833  -17.8345   23.7246 C   0  0  0  0  0  0  0  0  0  0  0  0
   12.4302  -17.5143   22.4718 O   0  0  0  0  0  0  0  0  0  0  0  0
   10.0503  -21.3326   26.4239 O   0  0  0  0  0  0  0  0  0  0  0  0
   14.0460  -18.3466   23.7900 O   0  0  0  0  0  0  0  0  0  0  0  0
  2  1  1  1
  3  2  1  0
  3  4  1  0
  4  5  2  0
  5  6  1  0
  7  6  1  0
  8  7  2  0
  9  8  1  0
 10 11  1  0
 10  9  2  0
 11 12  2  0
 12  4  1  0
 12  7  1  0
 13 14  2  0
 13  2  1  0
 15 13  1  0
 16 15  1  0
 16 17  1  1
 18 19  2  0
 18 17  1  0
 20 19  1  0
 21 20  2  0
 22 21  1  0
 22 23  2  0
 23 18  1  0
 24 16  1  0
 24 25  2  0
 26 27  1  0
 26 24  1  0
 27 28  1  6
 28 29  1  0
 29 30  1  0
 30 34  1  0
 31 30  2  0
 32 27  1  0
 33 32  1  0
 35 32  2  0
M  END
$$$$
