WFE.pdb
     RDKit          3D

 35 37  0  0  1  0  0  0  0  0999 V2000
   10.4031  -18.1468   20.5259 N   0  0  0  0  0  0  0  0  0  0  0  0
    9.7947  -17.0082   21.1322 C   0  0  1  0  0  0  0  0  0  0  0  0
    8.3231  -16.9542   20.7986 C   0  0  0  0  0  0  0  0  0  0  0  0
    7.9830  -15.5555   20.4384 C   0  0  0  0  0  0  0  0  0  0  0  0
    7.9204  -15.0727   19.1258 C   0  0  0  0  0  0  0  0  0  0  0  0
    7.5522  -13.7821   19.1225 N   0  0  0  0  0  0  0  0  0  0  0  0
    7.3720  -13.4053   20.4010 C   0  0  0  0  0  0  0  0  0  0  0  0
    6.9958  -12.1677   20.9379 C   0  0  0  0  0  0  0  0  0  0  0  0
    6.8839  -12.0166   22.3027 C   0  0  0  0  0  0  0  0  0  0  0  0
    7.1502  -13.1045   23.1083 C   0  0  0  0  0  0  0  0  0  0  0  0
    7.5267  -14.3447   22.5769 C   0  0  0  0  0  0  0  0  0  0  0  0
    7.6330  -14.4838   21.2300 C   0  0  0  0  0  0  0  0  0  0  0  0
   10.0227  -17.0640   22.5992 C   0  0  0  0  0  0  0  0  0  0  0  0
   10.8575  -17.8839   23.0867 O   0  0  0  0  0  0  0  0  0  0  0  0
    9.3489  -16.2368   23.5111 N   0  0  0  0  0  0  0  0  0  0  0  0
    9.8577  -16.0114   24.8622 C   0  0  1  0  0  0  0  0  0  0  0  0
    8.8760  -15.0645   25.5181 C   0  0  0  0  0  0  0  0  0  0  0  0
    9.4082  -14.8277   26.9053 C   0  0  0  0  0  0  0  0  0  0  0  0
   10.0216  -13.6364   27.1922 C   0  0  0  0  0  0  0  0  0  0  0  0
   10.5126  -13.4033   28.4543 C   0  0  0  0  0  0  0  0  0  0  0  0
   10.4137  -14.3356   29.4688 C   0  0  0  0  0  0  0  0  0  0  0  0
    9.7882  -15.5263   29.1417 C   0  0  0  0  0  0  0  0  0  0  0  0
    9.2927  -15.7774   27.8911 C   0  0  0  0  0  0  0  0  0  0  0  0
    9.9244  -17.3164   25.5654 C   0  0  0  0  0  0  0  0  0  0  0  0
    8.9139  -18.0467   25.5543 O   0  0  0  0  0  0  0  0  0  0  0  0
   11.0979  -17.7401   26.2384 N   0  0  0  0  0  0  0  0  0  0  0  0
   11.1966  -19.0265   26.9436 C   0  0  1  0  0  0  0  0  0  0  0  0
   12.0210  -19.9883   26.1331 C   0  0  0  0  0  0  0  0  0  0  0  0
   12.0964  -21.3215   26.8216 C   0  0  0  0  0  0  0  0  0  0  0  0
   13.2980  -22.0919   26.3490 C   0  0  0  0  0  0  0  0  0  0  0  0
   14.0449  -21.5266   25.5115 O   0  0  0  0  0  0  0  0  0  0  0  0
   11.7039  -18.8578   28.2943 C   0  0  0  0  0  0  0  0  0  0  0  0
   11.4288  -19.6965   29.3423 O   0  0  0  0  0  0  0  0  0  0  0  0
   13.6146  -23.3538   26.7758 O   0  0  0  0  0  0  0  0  0  0  0  0
   12.4576  -17.8651   28.5492 O   0  0  0  0  0  0  0  0  0  0  0  0
  2  1  1  6
  3  2  1  0
  3  4  1  0
  4  5  2  0
  5  6  1  0
  7  6  1  0
  8  7  2  0
  9  8  1  0
 10 11  1  0
 10  9  2  0
 11 12  2  0
 12  4  1  0
 12  7  1  0
 13 14  2  0
 13  2  1  0
 15 13  1  0
 16 15  1  0
 16 17  1  1
 18 19  2  0
 18 17  1  0
 20 19  1  0
 21 20  2  0
 22 21  1  0
 22 23  2  0
 23 18  1  0
 24 16  1  0
 24 25  2  0
 26 27  1  0
 26 24  1  0
 27 28  1  6
 28 29  1  0
 29 30  1  0
 30 34  1  0
 31 30  2  0
 32 27  1  0
 33 32  1  0
 35 32  2  0
M  END
$$$$
