WFE.pdb
     RDKit          3D

 35 37  0  0  1  0  0  0  0  0999 V2000
   10.3011  -17.1922   21.4746 N   0  0  0  0  0  0  0  0  0  0  0  0
    9.4275  -16.3035   22.1682 C   0  0  1  0  0  0  0  0  0  0  0  0
    7.9914  -16.5650   21.7823 C   0  0  0  0  0  0  0  0  0  0  0  0
    7.7361  -15.9025   20.4794 C   0  0  0  0  0  0  0  0  0  0  0  0
    7.3390  -16.5753   19.3176 C   0  0  0  0  0  0  0  0  0  0  0  0
    7.1519  -15.7020   18.3159 N   0  0  0  0  0  0  0  0  0  0  0  0
    7.4171  -14.4719   18.7912 C   0  0  0  0  0  0  0  0  0  0  0  0
    7.3798  -13.2253   18.1540 C   0  0  0  0  0  0  0  0  0  0  0  0
    7.7074  -12.0856   18.8552 C   0  0  0  0  0  0  0  0  0  0  0  0
    8.0672  -12.2105   20.1813 C   0  0  0  0  0  0  0  0  0  0  0  0
    8.1060  -13.4547   20.8238 C   0  0  0  0  0  0  0  0  0  0  0  0
    7.7801  -14.5723   20.1242 C   0  0  0  0  0  0  0  0  0  0  0  0
    9.6402  -16.4622   23.6300 C   0  0  0  0  0  0  0  0  0  0  0  0
   10.1135  -17.5424   24.0946 O   0  0  0  0  0  0  0  0  0  0  0  0
    9.3400  -15.4560   24.5613 N   0  0  0  0  0  0  0  0  0  0  0  0
    9.6648  -15.6018   25.9785 C   0  0  1  0  0  0  0  0  0  0  0  0
    9.9195  -14.1996   26.4879 C   0  0  0  0  0  0  0  0  0  0  0  0
    8.6137  -13.4690   26.3308 C   0  0  0  0  0  0  0  0  0  0  0  0
    8.0446  -12.8730   27.4256 C   0  0  0  0  0  0  0  0  0  0  0  0
    6.8527  -12.2010   27.2997 C   0  0  0  0  0  0  0  0  0  0  0  0
    6.1877  -12.0969   26.0934 C   0  0  0  0  0  0  0  0  0  0  0  0
    6.7926  -12.7113   25.0104 C   0  0  0  0  0  0  0  0  0  0  0  0
    7.9790  -13.3850   25.1153 C   0  0  0  0  0  0  0  0  0  0  0  0
    8.5137  -16.2405   26.6633 C   0  0  0  0  0  0  0  0  0  0  0  0
    7.9794  -15.6342   27.6127 O   0  0  0  0  0  0  0  0  0  0  0  0
    8.0194  -17.5075   26.2632 N   0  0  0  0  0  0  0  0  0  0  0  0
    7.7366  -18.5933   27.2134 C   0  0  1  0  0  0  0  0  0  0  0  0
    7.1694  -19.7766   26.4788 C   0  0  0  0  0  0  0  0  0  0  0  0
    8.1905  -20.3444   25.5343 C   0  0  0  0  0  0  0  0  0  0  0  0
    7.8323  -21.7550   25.1564 C   0  0  0  0  0  0  0  0  0  0  0  0
    6.7713  -22.2233   25.6397 O   0  0  0  0  0  0  0  0  0  0  0  0
    8.9098  -18.9347   27.9991 C   0  0  0  0  0  0  0  0  0  0  0  0
   10.1872  -18.5316   27.7107 O   0  0  0  0  0  0  0  0  0  0  0  0
    8.5883  -22.5410   24.3284 O   0  0  0  0  0  0  0  0  0  0  0  0
    8.7679  -19.6623   29.0330 O   0  0  0  0  0  0  0  0  0  0  0  0
  2  1  1  6
  3  2  1  0
  3  4  1  0
  4  5  2  0
  5  6  1  0
  7  6  1  0
  8  7  2  0
  9  8  1  0
 10 11  1  0
 10  9  2  0
 11 12  2  0
 12  4  1  0
 12  7  1  0
 13 14  2  0
 13  2  1  0
 15 13  1  0
 16 15  1  0
 16 17  1  1
 18 19  2  0
 18 17  1  0
 20 19  1  0
 21 20  2  0
 22 21  1  0
 22 23  2  0
 23 18  1  0
 24 16  1  0
 24 25  2  0
 26 27  1  0
 26 24  1  0
 27 28  1  6
 28 29  1  0
 29 30  1  0
 30 34  1  0
 31 30  2  0
 32 27  1  0
 33 32  1  0
 35 32  2  0
M  END
$$$$
