WFE.pdb
     RDKit          3D

 35 37  0  0  1  0  0  0  0  0999 V2000
    7.2066  -18.1003   21.8725 N   0  0  0  0  0  0  0  0  0  0  0  0
    8.5651  -17.6775   21.7737 C   0  0  1  0  0  0  0  0  0  0  0  0
    8.7653  -16.8230   20.5451 C   0  0  0  0  0  0  0  0  0  0  0  0
    7.7726  -15.7209   20.5832 C   0  0  0  0  0  0  0  0  0  0  0  0
    6.3868  -15.9104   20.6440 C   0  0  0  0  0  0  0  0  0  0  0  0
    5.7581  -14.7261   20.7039 N   0  0  0  0  0  0  0  0  0  0  0  0
    6.6972  -13.7634   20.6832 C   0  0  0  0  0  0  0  0  0  0  0  0
    6.5686  -12.3693   20.7172 C   0  0  0  0  0  0  0  0  0  0  0  0
    7.6931  -11.5746   20.6751 C   0  0  0  0  0  0  0  0  0  0  0  0
    8.9275  -12.1861   20.5992 C   0  0  0  0  0  0  0  0  0  0  0  0
    9.0623  -13.5800   20.5651 C   0  0  0  0  0  0  0  0  0  0  0  0
    7.9476  -14.3548   20.6084 C   0  0  0  0  0  0  0  0  0  0  0  0
    8.9343  -16.9488   23.0147 C   0  0  0  0  0  0  0  0  0  0  0  0
    9.9927  -16.2525   23.0574 O   0  0  0  0  0  0  0  0  0  0  0  0
    8.1577  -16.9836   24.1832 N   0  0  0  0  0  0  0  0  0  0  0  0
    8.6464  -16.4321   25.4450 C   0  0  1  0  0  0  0  0  0  0  0  0
    7.4111  -16.0910   26.2500 C   0  0  0  0  0  0  0  0  0  0  0  0
    7.2745  -14.5950   26.1666 C   0  0  0  0  0  0  0  0  0  0  0  0
    8.2561  -13.8027   26.7019 C   0  0  0  0  0  0  0  0  0  0  0  0
    8.1476  -12.4346   26.6336 C   0  0  0  0  0  0  0  0  0  0  0  0
    7.0706  -11.8083   26.0370 C   0  0  0  0  0  0  0  0  0  0  0  0
    6.0995  -12.6407   25.5078 C   0  0  0  0  0  0  0  0  0  0  0  0
    6.1892  -14.0050   25.5656 C   0  0  0  0  0  0  0  0  0  0  0  0
    9.4809  -17.4587   26.1171 C   0  0  0  0  0  0  0  0  0  0  0  0
    8.9157  -18.4662   26.5861 O   0  0  0  0  0  0  0  0  0  0  0  0
   10.8865  -17.3158   26.2333 N   0  0  0  0  0  0  0  0  0  0  0  0
   11.7285  -18.2609   26.9816 C   0  0  1  0  0  0  0  0  0  0  0  0
   13.1757  -18.0282   26.6456 C   0  0  0  0  0  0  0  0  0  0  0  0
   13.7650  -19.2488   25.9976 C   0  0  0  0  0  0  0  0  0  0  0  0
   14.7764  -18.8568   24.9564 C   0  0  0  0  0  0  0  0  0  0  0  0
   14.7373  -17.6718   24.5406 O   0  0  0  0  0  0  0  0  0  0  0  0
   11.4693  -18.1924   28.4093 C   0  0  0  0  0  0  0  0  0  0  0  0
   11.8025  -19.1686   29.3112 O   0  0  0  0  0  0  0  0  0  0  0  0
   15.7202  -19.7083   24.4473 O   0  0  0  0  0  0  0  0  0  0  0  0
   10.8890  -17.1632   28.8809 O   0  0  0  0  0  0  0  0  0  0  0  0
  2  1  1  1
  3  2  1  0
  3  4  1  0
  4  5  2  0
  5  6  1  0
  7  6  1  0
  8  7  2  0
  9  8  1  0
 10 11  1  0
 10  9  2  0
 11 12  2  0
 12  4  1  0
 12  7  1  0
 13 14  2  0
 13  2  1  0
 15 13  1  0
 16 15  1  0
 16 17  1  1
 18 19  2  0
 18 17  1  0
 20 19  1  0
 21 20  2  0
 22 21  1  0
 22 23  2  0
 23 18  1  0
 24 16  1  0
 24 25  2  0
 26 27  1  0
 26 24  1  0
 27 28  1  1
 28 29  1  0
 29 30  1  0
 30 34  1  0
 31 30  2  0
 32 27  1  0
 33 32  1  0
 35 32  2  0
M  END
$$$$
