WFE.pdb
     RDKit          3D

 35 37  0  0  1  0  0  0  0  0999 V2000
   10.9852  -16.2401   20.4522 N   0  0  0  0  0  0  0  0  0  0  0  0
    9.8688  -15.9140   21.2776 C   0  0  1  0  0  0  0  0  0  0  0  0
    8.6338  -16.6467   20.8110 C   0  0  0  0  0  0  0  0  0  0  0  0
    7.9586  -15.8084   19.7897 C   0  0  0  0  0  0  0  0  0  0  0  0
    7.2422  -16.3180   18.7002 C   0  0  0  0  0  0  0  0  0  0  0  0
    6.7184  -15.3151   17.9784 N   0  0  0  0  0  0  0  0  0  0  0  0
    7.0739  -14.1591   18.5670 C   0  0  0  0  0  0  0  0  0  0  0  0
    6.7928  -12.8345   18.2092 C   0  0  0  0  0  0  0  0  0  0  0  0
    7.2816  -11.7981   18.9738 C   0  0  0  0  0  0  0  0  0  0  0  0
    8.0434  -12.1023   20.0832 C   0  0  0  0  0  0  0  0  0  0  0  0
    8.3275  -13.4251   20.4460 C   0  0  0  0  0  0  0  0  0  0  0  0
    7.8400  -14.4399   19.6863 C   0  0  0  0  0  0  0  0  0  0  0  0
   10.2006  -16.2415   22.6883 C   0  0  0  0  0  0  0  0  0  0  0  0
   11.2890  -16.8267   22.9707 O   0  0  0  0  0  0  0  0  0  0  0  0
    9.3556  -15.9326   23.7654 N   0  0  0  0  0  0  0  0  0  0  0  0
    9.8588  -15.8483   25.1347 C   0  0  1  0  0  0  0  0  0  0  0  0
    8.8338  -15.0396   25.9000 C   0  0  0  0  0  0  0  0  0  0  0  0
    9.3855  -14.9022   27.2930 C   0  0  0  0  0  0  0  0  0  0  0  0
   10.0777  -13.7684   27.6295 C   0  0  0  0  0  0  0  0  0  0  0  0
   10.5876  -13.6262   28.8976 C   0  0  0  0  0  0  0  0  0  0  0  0
   10.4306  -14.5954   29.8694 C   0  0  0  0  0  0  0  0  0  0  0  0
    9.7263  -15.7259   29.4928 C   0  0  0  0  0  0  0  0  0  0  0  0
    9.2108  -15.8863   28.2354 C   0  0  0  0  0  0  0  0  0  0  0  0
    9.9946  -17.2244   25.6732 C   0  0  0  0  0  0  0  0  0  0  0  0
    8.9836  -17.9538   25.6948 O   0  0  0  0  0  0  0  0  0  0  0  0
   11.2337  -17.7159   26.1556 N   0  0  0  0  0  0  0  0  0  0  0  0
   11.3996  -19.0703   26.7034 C   0  0  1  0  0  0  0  0  0  0  0  0
   12.6777  -19.6734   26.1894 C   0  0  0  0  0  0  0  0  0  0  0  0
   12.6401  -19.7802   24.6913 C   0  0  0  0  0  0  0  0  0  0  0  0
   13.9227  -20.3688   24.1723 C   0  0  0  0  0  0  0  0  0  0  0  0
   14.6182  -21.0276   24.9853 O   0  0  0  0  0  0  0  0  0  0  0  0
   11.3257  -19.0725   28.1542 C   0  0  0  0  0  0  0  0  0  0  0  0
   11.3278  -20.1987   28.9346 O   0  0  0  0  0  0  0  0  0  0  0  0
   14.3639  -20.2267   22.8839 O   0  0  0  0  0  0  0  0  0  0  0  0
   11.2495  -17.9610   28.7683 O   0  0  0  0  0  0  0  0  0  0  0  0
  2  1  1  6
  3  2  1  0
  3  4  1  0
  4  5  2  0
  5  6  1  0
  7  6  1  0
  8  7  2  0
  9  8  1  0
 10 11  1  0
 10  9  2  0
 11 12  2  0
 12  4  1  0
 12  7  1  0
 13 14  2  0
 13  2  1  0
 15 13  1  0
 16 15  1  0
 16 17  1  1
 18 19  2  0
 18 17  1  0
 20 19  1  0
 21 20  2  0
 22 21  1  0
 22 23  2  0
 23 18  1  0
 24 16  1  0
 24 25  2  0
 26 27  1  0
 26 24  1  0
 27 28  1  1
 28 29  1  0
 29 30  1  0
 30 34  1  0
 31 30  2  0
 32 27  1  0
 33 32  1  0
 35 32  2  0
M  END
$$$$
