WFE.pdb
     RDKit          3D

 35 37  0  0  1  0  0  0  0  0999 V2000
   10.4608  -15.7151   21.5388 N   0  0  0  0  0  0  0  0  0  0  0  0
    9.2478  -15.5761   22.2760 C   0  0  1  0  0  0  0  0  0  0  0  0
    8.1401  -16.3704   21.6268 C   0  0  0  0  0  0  0  0  0  0  0  0
    7.7078  -15.6463   20.4059 C   0  0  0  0  0  0  0  0  0  0  0  0
    7.0735  -16.2509   19.3141 C   0  0  0  0  0  0  0  0  0  0  0  0
    6.7740  -15.3317   18.3833 N   0  0  0  0  0  0  0  0  0  0  0  0
    7.1967  -14.1380   18.8369 C   0  0  0  0  0  0  0  0  0  0  0  0
    7.1315  -12.8687   18.2486 C   0  0  0  0  0  0  0  0  0  0  0  0
    7.6484  -11.7772   18.9113 C   0  0  0  0  0  0  0  0  0  0  0  0
    8.2224  -11.9722   20.1507 C   0  0  0  0  0  0  0  0  0  0  0  0
    8.2902  -13.2393   20.7441 C   0  0  0  0  0  0  0  0  0  0  0  0
    7.7765  -14.3089   20.0832 C   0  0  0  0  0  0  0  0  0  0  0  0
    9.4837  -16.0084   23.6778 C   0  0  0  0  0  0  0  0  0  0  0  0
   10.6203  -16.4452   24.0303 O   0  0  0  0  0  0  0  0  0  0  0  0
    8.4931  -15.9614   24.6708 N   0  0  0  0  0  0  0  0  0  0  0  0
    8.7547  -16.4110   26.0363 C   0  0  1  0  0  0  0  0  0  0  0  0
    7.5095  -16.0711   26.8264 C   0  0  0  0  0  0  0  0  0  0  0  0
    7.3707  -14.5756   26.7386 C   0  0  0  0  0  0  0  0  0  0  0  0
    8.2253  -13.7810   27.4570 C   0  0  0  0  0  0  0  0  0  0  0  0
    8.1130  -12.4133   27.3877 C   0  0  0  0  0  0  0  0  0  0  0  0
    7.1570  -11.7895   26.6098 C   0  0  0  0  0  0  0  0  0  0  0  0
    6.3121  -12.6241   25.8987 C   0  0  0  0  0  0  0  0  0  0  0  0
    6.4078  -13.9881   25.9544 C   0  0  0  0  0  0  0  0  0  0  0  0
    9.0142  -17.8718   26.0107 C   0  0  0  0  0  0  0  0  0  0  0  0
    8.7543  -18.5007   24.9659 O   0  0  0  0  0  0  0  0  0  0  0  0
    9.5437  -18.5535   27.1352 N   0  0  0  0  0  0  0  0  0  0  0  0
   10.8494  -19.2295   27.1203 C   0  0  1  0  0  0  0  0  0  0  0  0
   11.7039  -18.6601   26.0216 C   0  0  0  0  0  0  0  0  0  0  0  0
   11.6041  -19.5108   24.7873 C   0  0  0  0  0  0  0  0  0  0  0  0
   12.9707  -19.7813   24.2215 C   0  0  0  0  0  0  0  0  0  0  0  0
   13.7290  -20.5254   24.8924 O   0  0  0  0  0  0  0  0  0  0  0  0
   11.4972  -19.1690   28.4191 C   0  0  0  0  0  0  0  0  0  0  0  0
   11.0326  -18.4530   29.4910 O   0  0  0  0  0  0  0  0  0  0  0  0
   13.4233  -19.2684   23.0353 O   0  0  0  0  0  0  0  0  0  0  0  0
   12.5776  -19.8163   28.5989 O   0  0  0  0  0  0  0  0  0  0  0  0
  2  1  1  6
  3  2  1  0
  3  4  1  0
  4  5  2  0
  5  6  1  0
  7  6  1  0
  8  7  2  0
  9  8  1  0
 10 11  1  0
 10  9  2  0
 11 12  2  0
 12  4  1  0
 12  7  1  0
 13 14  2  0
 13  2  1  0
 15 13  1  0
 16 15  1  0
 16 17  1  1
 18 19  2  0
 18 17  1  0
 20 19  1  0
 21 20  2  0
 22 21  1  0
 22 23  2  0
 23 18  1  0
 24 16  1  0
 24 25  2  0
 26 27  1  0
 26 24  1  0
 27 28  1  6
 28 29  1  0
 29 30  1  0
 30 34  1  0
 31 30  2  0
 32 27  1  0
 33 32  1  0
 35 32  2  0
M  END
$$$$
