WFE.pdb
     RDKit          3D

 35 37  0  0  1  0  0  0  0  0999 V2000
    6.0865  -17.7826   24.1545 N   0  0  0  0  0  0  0  0  0  0  0  0
    6.9161  -16.6236   24.2037 C   0  0  1  0  0  0  0  0  0  0  0  0
    7.3256  -16.3259   25.6262 C   0  0  0  0  0  0  0  0  0  0  0  0
    6.7550  -15.0095   26.0044 C   0  0  0  0  0  0  0  0  0  0  0  0
    5.3934  -14.7769   26.2321 C   0  0  0  0  0  0  0  0  0  0  0  0
    5.1942  -13.4997   26.5931 N   0  0  0  0  0  0  0  0  0  0  0  0
    6.3919  -12.8876   26.6075 C   0  0  0  0  0  0  0  0  0  0  0  0
    6.7300  -11.5621   26.9078 C   0  0  0  0  0  0  0  0  0  0  0  0
    8.0454  -11.1577   26.8443 C   0  0  0  0  0  0  0  0  0  0  0  0
    9.0011  -12.0843   26.4814 C   0  0  0  0  0  0  0  0  0  0  0  0
    8.6687  -13.4113   26.1802 C   0  0  0  0  0  0  0  0  0  0  0  0
    7.3692  -13.8005   26.2468 C   0  0  0  0  0  0  0  0  0  0  0  0
    8.0961  -16.8381   23.3268 C   0  0  0  0  0  0  0  0  0  0  0  0
    8.3662  -17.9966   22.8890 O   0  0  0  0  0  0  0  0  0  0  0  0
    8.9603  -15.8026   22.9387 N   0  0  0  0  0  0  0  0  0  0  0  0
   10.0188  -16.0161   21.9543 C   0  0  1  0  0  0  0  0  0  0  0  0
   10.3664  -14.6433   21.4204 C   0  0  0  0  0  0  0  0  0  0  0  0
    9.1404  -14.1728   20.6862 C   0  0  0  0  0  0  0  0  0  0  0  0
    8.5372  -15.0109   19.7854 C   0  0  0  0  0  0  0  0  0  0  0  0
    7.4162  -14.5973   19.1068 C   0  0  0  0  0  0  0  0  0  0  0  0
    6.8578  -13.3480   19.2955 C   0  0  0  0  0  0  0  0  0  0  0  0
    7.4942  -12.5296   20.2127 C   0  0  0  0  0  0  0  0  0  0  0  0
    8.6112  -12.9229   20.8984 C   0  0  0  0  0  0  0  0  0  0  0  0
   11.1727  -16.6561   22.6332 C   0  0  0  0  0  0  0  0  0  0  0  0
   11.4781  -16.2641   23.7767 O   0  0  0  0  0  0  0  0  0  0  0  0
   11.9215  -17.6884   22.0142 N   0  0  0  0  0  0  0  0  0  0  0  0
   13.1418  -18.2574   22.6050 C   0  0  1  0  0  0  0  0  0  0  0  0
   13.6803  -19.3418   21.7130 C   0  0  0  0  0  0  0  0  0  0  0  0
   14.8939  -19.9743   22.3329 C   0  0  0  0  0  0  0  0  0  0  0  0
   15.4428  -21.0508   21.4381 C   0  0  0  0  0  0  0  0  0  0  0  0
   16.4659  -21.6597   21.8394 O   0  0  0  0  0  0  0  0  0  0  0  0
   14.1272  -17.2287   22.8897 C   0  0  0  0  0  0  0  0  0  0  0  0
   14.4838  -16.2279   22.0245 O   0  0  0  0  0  0  0  0  0  0  0  0
   14.8957  -21.3954   20.2311 O   0  0  0  0  0  0  0  0  0  0  0  0
   14.7186  -17.2377   24.0161 O   0  0  0  0  0  0  0  0  0  0  0  0
  2  1  1  1
  3  2  1  0
  3  4  1  0
  4  5  2  0
  5  6  1  0
  7  6  1  0
  8  7  2  0
  9  8  1  0
 10 11  1  0
 10  9  2  0
 11 12  2  0
 12  4  1  0
 12  7  1  0
 13 14  2  0
 13  2  1  0
 15 13  1  0
 16 15  1  0
 16 17  1  1
 18 19  2  0
 18 17  1  0
 20 19  1  0
 21 20  2  0
 22 21  1  0
 22 23  2  0
 23 18  1  0
 24 16  1  0
 24 25  2  0
 26 27  1  0
 26 24  1  0
 27 28  1  6
 28 29  1  0
 29 30  1  0
 30 34  1  0
 31 30  2  0
 32 27  1  0
 33 32  1  0
 35 32  2  0
M  END
$$$$
