WFE.pdb
     RDKit          3D

 35 37  0  0  1  0  0  0  0  0999 V2000
    8.5426  -17.1783   22.5311 N   0  0  0  0  0  0  0  0  0  0  0  0
    9.7660  -16.5311   22.8752 C   0  0  1  0  0  0  0  0  0  0  0  0
   10.0071  -15.3426   21.9756 C   0  0  0  0  0  0  0  0  0  0  0  0
    8.7163  -14.9733   21.3438 C   0  0  0  0  0  0  0  0  0  0  0  0
    7.4755  -15.5023   21.7187 C   0  0  0  0  0  0  0  0  0  0  0  0
    6.4945  -14.9470   20.9904 N   0  0  0  0  0  0  0  0  0  0  0  0
    7.0608  -14.0665   20.1458 C   0  0  0  0  0  0  0  0  0  0  0  0
    6.4820  -13.2371   19.1771 C   0  0  0  0  0  0  0  0  0  0  0  0
    7.2792  -12.4130   18.4135 C   0  0  0  0  0  0  0  0  0  0  0  0
    8.6417  -12.4317   18.6301 C   0  0  0  0  0  0  0  0  0  0  0  0
    9.2260  -13.2590   19.5978 C   0  0  0  0  0  0  0  0  0  0  0  0
    8.4313  -14.0669   20.3463 C   0  0  0  0  0  0  0  0  0  0  0  0
    9.7154  -16.1344   24.3061 C   0  0  0  0  0  0  0  0  0  0  0  0
    9.6658  -14.9098   24.6297 O   0  0  0  0  0  0  0  0  0  0  0  0
    9.7186  -17.0626   25.3588 N   0  0  0  0  0  0  0  0  0  0  0  0
    9.0259  -16.7965   26.6175 C   0  0  1  0  0  0  0  0  0  0  0  0
    7.6071  -16.4324   26.2366 C   0  0  0  0  0  0  0  0  0  0  0  0
    7.5586  -14.9288   26.2483 C   0  0  0  0  0  0  0  0  0  0  0  0
    6.6736  -14.2815   25.4263 C   0  0  0  0  0  0  0  0  0  0  0  0
    6.6156  -12.9086   25.4252 C   0  0  0  0  0  0  0  0  0  0  0  0
    7.4266  -12.1347   26.2324 C   0  0  0  0  0  0  0  0  0  0  0  0
    8.3073  -12.8233   27.0486 C   0  0  0  0  0  0  0  0  0  0  0  0
    8.3802  -14.1897   27.0644 C   0  0  0  0  0  0  0  0  0  0  0  0
    9.0791  -18.0212   27.4537 C   0  0  0  0  0  0  0  0  0  0  0  0
    8.6347  -17.9630   28.6172 O   0  0  0  0  0  0  0  0  0  0  0  0
    9.6177  -19.2363   26.9605 N   0  0  0  0  0  0  0  0  0  0  0  0
   10.8067  -19.8787   27.5397 C   0  0  1  0  0  0  0  0  0  0  0  0
   11.7737  -20.2385   26.4456 C   0  0  0  0  0  0  0  0  0  0  0  0
   12.9416  -20.9975   27.0086 C   0  0  0  0  0  0  0  0  0  0  0  0
   13.9374  -21.3115   25.9267 C   0  0  0  0  0  0  0  0  0  0  0  0
   13.9107  -22.4720   25.4459 O   0  0  0  0  0  0  0  0  0  0  0  0
   11.4121  -19.0524   28.5698 C   0  0  0  0  0  0  0  0  0  0  0  0
   11.8245  -17.7581   28.3905 O   0  0  0  0  0  0  0  0  0  0  0  0
   14.8548  -20.4151   25.4472 O   0  0  0  0  0  0  0  0  0  0  0  0
   11.5858  -19.5440   29.7302 O   0  0  0  0  0  0  0  0  0  0  0  0
  2  1  1  6
  3  2  1  0
  3  4  1  0
  4  5  2  0
  5  6  1  0
  7  6  1  0
  8  7  2  0
  9  8  1  0
 10 11  1  0
 10  9  2  0
 11 12  2  0
 12  4  1  0
 12  7  1  0
 13 14  2  0
 13  2  1  0
 15 13  1  0
 16 15  1  0
 16 17  1  6
 18 19  2  0
 18 17  1  0
 20 19  1  0
 21 20  2  0
 22 21  1  0
 22 23  2  0
 23 18  1  0
 24 16  1  0
 24 25  2  0
 26 27  1  0
 26 24  1  0
 27 28  1  6
 28 29  1  0
 29 30  1  0
 30 34  1  0
 31 30  2  0
 32 27  1  0
 33 32  1  0
 35 32  2  0
M  END
$$$$
