WFE.pdb
     RDKit          3D

 35 37  0  0  1  0  0  0  0  0999 V2000
    8.2781  -16.1948   21.8855 N   0  0  0  0  0  0  0  0  0  0  0  0
    9.0043  -15.0376   22.2947 C   0  0  1  0  0  0  0  0  0  0  0  0
    8.2967  -13.7822   21.8442 C   0  0  0  0  0  0  0  0  0  0  0  0
    8.3547  -13.7266   20.3625 C   0  0  0  0  0  0  0  0  0  0  0  0
    7.2319  -13.7751   19.5276 C   0  0  0  0  0  0  0  0  0  0  0  0
    7.6035  -13.6666   18.2425 N   0  0  0  0  0  0  0  0  0  0  0  0
    8.9431  -13.5487   18.2131 C   0  0  0  0  0  0  0  0  0  0  0  0
    9.8188  -13.4155   17.1282 C   0  0  0  0  0  0  0  0  0  0  0  0
   11.1753  -13.3193   17.3483 C   0  0  0  0  0  0  0  0  0  0  0  0
   11.6344  -13.3581   18.6488 C   0  0  0  0  0  0  0  0  0  0  0  0
   10.7632  -13.4908   19.7377 C   0  0  0  0  0  0  0  0  0  0  0  0
    9.4274  -13.5837   19.5103 C   0  0  0  0  0  0  0  0  0  0  0  0
    9.1740  -15.0720   23.7702 C   0  0  0  0  0  0  0  0  0  0  0  0
    9.9128  -14.2204   24.3498 O   0  0  0  0  0  0  0  0  0  0  0  0
    8.5455  -16.0207   24.5916 N   0  0  0  0  0  0  0  0  0  0  0  0
    8.7645  -16.0492   26.0360 C   0  0  1  0  0  0  0  0  0  0  0  0
    7.4016  -15.8476   26.6622 C   0  0  0  0  0  0  0  0  0  0  0  0
    7.1682  -14.3613   26.6527 C   0  0  0  0  0  0  0  0  0  0  0  0
    6.0381  -13.8654   26.0571 C   0  0  0  0  0  0  0  0  0  0  0  0
    5.8090  -12.5106   26.0402 C   0  0  0  0  0  0  0  0  0  0  0  0
    6.6852  -11.6065   26.6086 C   0  0  0  0  0  0  0  0  0  0  0  0
    7.8150  -12.1443   27.2005 C   0  0  0  0  0  0  0  0  0  0  0  0
    8.0611  -13.4901   27.2278 C   0  0  0  0  0  0  0  0  0  0  0  0
    9.3530  -17.3624   26.3984 C   0  0  0  0  0  0  0  0  0  0  0  0
    9.1040  -17.8312   27.5265 O   0  0  0  0  0  0  0  0  0  0  0  0
   10.1799  -18.0811   25.4987 N   0  0  0  0  0  0  0  0  0  0  0  0
   10.8322  -19.3510   25.8507 C   0  0  1  0  0  0  0  0  0  0  0  0
   11.4615  -19.9555   24.6260 C   0  0  0  0  0  0  0  0  0  0  0  0
   10.4417  -20.1031   23.5326 C   0  0  0  0  0  0  0  0  0  0  0  0
   10.9600  -19.5223   22.2462 C   0  0  0  0  0  0  0  0  0  0  0  0
   10.6956  -18.3154   22.0177 O   0  0  0  0  0  0  0  0  0  0  0  0
   11.7797  -19.1813   26.9387 C   0  0  0  0  0  0  0  0  0  0  0  0
   12.4998  -20.1960   27.5126 O   0  0  0  0  0  0  0  0  0  0  0  0
   11.6915  -20.2271   21.3280 O   0  0  0  0  0  0  0  0  0  0  0  0
   11.9701  -18.0163   27.4130 O   0  0  0  0  0  0  0  0  0  0  0  0
  2  1  1  1
  3  2  1  0
  3  4  1  0
  4  5  2  0
  5  6  1  0
  7  6  1  0
  8  7  2  0
  9  8  1  0
 10 11  1  0
 10  9  2  0
 11 12  2  0
 12  4  1  0
 12  7  1  0
 13 14  2  0
 13  2  1  0
 15 13  1  0
 16 15  1  0
 16 17  1  1
 18 19  2  0
 18 17  1  0
 20 19  1  0
 21 20  2  0
 22 21  1  0
 22 23  2  0
 23 18  1  0
 24 16  1  0
 24 25  2  0
 26 27  1  0
 26 24  1  0
 27 28  1  6
 28 29  1  0
 29 30  1  0
 30 34  1  0
 31 30  2  0
 32 27  1  0
 33 32  1  0
 35 32  2  0
M  END
$$$$
