TCN.pdb
     RDKit          3D

 22 21  0  0  1  0  0  0  0  0999 V2000
    6.0157  -16.9133   22.1241 C   0  0  0  0  0  0  0  0  0  0  0  0
    6.9509  -16.3095   21.1297 C   0  0  1  0  0  0  0  0  0  0  0  0
    6.4760  -16.5973   19.8506 O   0  0  0  0  0  0  0  0  0  0  0  0
    7.0682  -14.8182   21.2432 C   0  0  2  0  0  0  0  0  0  0  0  0
    7.7276  -14.3077   20.0585 N   0  0  0  0  0  0  0  0  0  0  0  0
    7.8743  -14.4099   22.4291 C   0  0  0  0  0  0  0  0  0  0  0  0
    9.1420  -14.4249   22.4056 O   0  0  0  0  0  0  0  0  0  0  0  0
    7.2893  -13.9811   23.6517 N   0  0  0  0  0  0  0  0  0  0  0  0
    8.0545  -13.7398   24.8501 C   0  0  1  0  0  0  0  0  0  0  0  0
    7.3354  -12.8722   25.8446 C   0  0  0  0  0  0  0  0  0  0  0  0
    5.5988  -13.4051   25.8845 S   0  0  0  0  0  0  0  0  0  0  0  0
    8.3069  -15.0524   25.5117 C   0  0  0  0  0  0  0  0  0  0  0  0
    7.5299  -16.0359   25.3713 O   0  0  0  0  0  0  0  0  0  0  0  0
    7.8448  -19.7707   27.2627 N   0  0  0  0  0  0  0  0  0  0  0  0
    8.6133  -18.6693   27.7012 C   0  0  0  0  0  0  0  0  0  0  0  0
    9.4519  -18.8296   28.6179 O   0  0  0  0  0  0  0  0  0  0  0  0
    8.4016  -17.3523   27.0591 C   0  0  0  0  0  0  0  0  0  0  0  0
    9.6803  -16.5546   26.9568 C   0  0  2  0  0  0  0  0  0  0  0  0
    9.4594  -15.2610   26.3492 N   0  0  0  0  0  0  0  0  0  0  0  0
   10.6597  -17.3465   26.1770 C   0  0  0  0  0  0  0  0  0  0  0  0
   10.3987  -17.7589   24.8921 O   0  0  0  0  0  0  0  0  0  0  0  0
   11.7546  -17.6482   26.7021 O   0  0  0  0  0  0  0  0  0  0  0  0
  2  1  1  1
  3  2  1  0
  4  2  1  0
  4  6  1  0
  4  5  1  6
  6  8  1  0
  6  7  2  0
  8  9  1  0
  9 12  1  0
  9 10  1  1
 11 10  1  0
 12 19  1  0
 12 13  2  0
 15 14  1  0
 15 17  1  0
 16 15  2  0
 18 17  1  6
 18 20  1  0
 19 18  1  0
 20 21  1  0
 22 20  2  0
M  END
$$$$
