TCN.pdb
     RDKit          3D

 22 21  0  0  1  0  0  0  0  0999 V2000
    7.1032  -16.3113   20.6778 C   0  0  0  0  0  0  0  0  0  0  0  0
    7.6326  -15.0702   20.0394 C   0  0  1  0  0  0  0  0  0  0  0  0
    7.1045  -14.9803   18.7519 O   0  0  0  0  0  0  0  0  0  0  0  0
    7.2609  -13.8133   20.7690 C   0  0  2  0  0  0  0  0  0  0  0  0
    7.5615  -12.6745   19.9254 N   0  0  0  0  0  0  0  0  0  0  0  0
    8.0257  -13.6579   22.0394 C   0  0  0  0  0  0  0  0  0  0  0  0
    9.1839  -13.1420   22.0568 O   0  0  0  0  0  0  0  0  0  0  0  0
    7.5197  -14.0704   23.3023 N   0  0  0  0  0  0  0  0  0  0  0  0
    8.2988  -14.0297   24.5154 C   0  0  1  0  0  0  0  0  0  0  0  0
    7.5349  -13.4840   25.6891 C   0  0  0  0  0  0  0  0  0  0  0  0
    5.8228  -14.0771   25.5545 S   0  0  0  0  0  0  0  0  0  0  0  0
    8.6961  -15.4256   24.8586 C   0  0  0  0  0  0  0  0  0  0  0  0
    7.8976  -16.3964   24.7544 O   0  0  0  0  0  0  0  0  0  0  0  0
   11.5040  -17.9956   22.9202 N   0  0  0  0  0  0  0  0  0  0  0  0
   12.1013  -17.1682   23.8971 C   0  0  0  0  0  0  0  0  0  0  0  0
   12.8692  -16.2462   23.5372 O   0  0  0  0  0  0  0  0  0  0  0  0
   11.7986  -17.4188   25.3245 C   0  0  0  0  0  0  0  0  0  0  0  0
   10.3632  -17.0977   25.6688 C   0  0  2  0  0  0  0  0  0  0  0  0
   10.0215  -15.7341   25.3292 N   0  0  0  0  0  0  0  0  0  0  0  0
   10.1659  -17.3493   27.1153 C   0  0  0  0  0  0  0  0  0  0  0  0
   10.3167  -18.6023   27.6596 O   0  0  0  0  0  0  0  0  0  0  0  0
    9.8535  -16.3952   27.8620 O   0  0  0  0  0  0  0  0  0  0  0  0
  2  1  1  1
  3  2  1  0
  4  2  1  0
  4  6  1  0
  4  5  1  6
  6  8  1  0
  6  7  2  0
  8  9  1  0
  9 12  1  0
  9 10  1  1
 11 10  1  0
 12 19  1  0
 12 13  2  0
 15 14  1  0
 15 17  1  0
 16 15  2  0
 18 17  1  1
 18 20  1  0
 19 18  1  0
 20 21  1  0
 22 20  2  0
M  END
$$$$
