TCN.pdb
     RDKit          3D

 22 21  0  0  1  0  0  0  0  0999 V2000
    6.0701  -19.6929   18.4351 C   0  0  0  0  0  0  0  0  0  0  0  0
    7.0205  -18.8248   19.1910 C   0  0  1  0  0  0  0  0  0  0  0  0
    8.2734  -19.4369   19.1837 O   0  0  0  0  0  0  0  0  0  0  0  0
    7.1832  -17.4553   18.6008 C   0  0  2  0  0  0  0  0  0  0  0  0
    7.6730  -17.5844   17.2435 N   0  0  0  0  0  0  0  0  0  0  0  0
    8.1617  -16.6302   19.3653 C   0  0  0  0  0  0  0  0  0  0  0  0
    9.4058  -16.6871   19.1267 O   0  0  0  0  0  0  0  0  0  0  0  0
    7.7768  -15.7347   20.4002 N   0  0  0  0  0  0  0  0  0  0  0  0
    8.7256  -15.0372   21.2328 C   0  0  1  0  0  0  0  0  0  0  0  0
    8.0972  -13.9527   22.0623 C   0  0  0  0  0  0  0  0  0  0  0  0
    6.7540  -14.7063   23.0261 S   0  0  0  0  0  0  0  0  0  0  0  0
    9.3261  -16.0226   22.1775 C   0  0  0  0  0  0  0  0  0  0  0  0
    8.7686  -17.1216   22.4463 O   0  0  0  0  0  0  0  0  0  0  0  0
   11.3274  -19.4195   24.3923 N   0  0  0  0  0  0  0  0  0  0  0  0
   11.6736  -19.2783   23.0299 C   0  0  0  0  0  0  0  0  0  0  0  0
   11.9847  -20.2934   22.3651 O   0  0  0  0  0  0  0  0  0  0  0  0
   11.6575  -17.9261   22.4274 C   0  0  0  0  0  0  0  0  0  0  0  0
   11.3145  -16.8553   23.4363 C   0  0  2  0  0  0  0  0  0  0  0  0
   10.5816  -15.7641   22.8334 N   0  0  0  0  0  0  0  0  0  0  0  0
   12.5748  -16.3737   24.0480 C   0  0  0  0  0  0  0  0  0  0  0  0
   12.9287  -16.7054   25.3340 O   0  0  0  0  0  0  0  0  0  0  0  0
   13.3381  -15.6451   23.3757 O   0  0  0  0  0  0  0  0  0  0  0  0
  2  1  1  6
  3  2  1  0
  4  2  1  0
  4  6  1  0
  4  5  1  6
  6  8  1  0
  6  7  2  0
  8  9  1  0
  9 12  1  0
  9 10  1  1
 11 10  1  0
 12 19  1  0
 12 13  2  0
 15 14  1  0
 15 17  1  0
 16 15  2  0
 18 17  1  6
 18 20  1  0
 19 18  1  0
 20 21  1  0
 22 20  2  0
M  END
$$$$
