TCN.pdb
     RDKit          3D

 22 21  0  0  1  0  0  0  0  0999 V2000
   -4.7546  -27.6341   28.0365 C   0  0  0  0  0  0  0  0  0  0  0  0
   -3.4340  -27.7360   28.7249 C   0  0  1  0  0  0  0  0  0  0  0  0
   -2.8967  -28.9948   28.4579 O   0  0  0  0  0  0  0  0  0  0  0  0
   -2.4370  -26.7128   28.2672 C   0  0  2  0  0  0  0  0  0  0  0  0
   -1.1871  -26.9295   28.9670 N   0  0  0  0  0  0  0  0  0  0  0  0
   -2.8902  -25.3224   28.5572 C   0  0  0  0  0  0  0  0  0  0  0  0
   -2.8588  -24.8467   29.7322 O   0  0  0  0  0  0  0  0  0  0  0  0
   -3.3824  -24.4440   27.5535 N   0  0  0  0  0  0  0  0  0  0  0  0
   -3.9611  -23.1561   27.8476 C   0  0  1  0  0  0  0  0  0  0  0  0
   -3.8097  -22.1706   26.7229 C   0  0  0  0  0  0  0  0  0  0  0  0
   -2.8948  -20.7387   27.3662 S   0  0  0  0  0  0  0  0  0  0  0  0
   -5.4230  -23.3453   28.0739 C   0  0  0  0  0  0  0  0  0  0  0  0
   -6.1535  -23.9726   27.2592 O   0  0  0  0  0  0  0  0  0  0  0  0
  -10.0951  -23.6472   30.0340 N   0  0  0  0  0  0  0  0  0  0  0  0
   -9.1384  -24.3790   30.7723 C   0  0  0  0  0  0  0  0  0  0  0  0
   -9.5241  -25.2206   31.6162 O   0  0  0  0  0  0  0  0  0  0  0  0
   -7.7011  -24.1262   30.5233 C   0  0  0  0  0  0  0  0  0  0  0  0
   -7.4818  -23.0761   29.4598 C   0  0  2  0  0  0  0  0  0  0  0  0
   -6.0757  -22.8163   29.2433 N   0  0  0  0  0  0  0  0  0  0  0  0
   -8.1915  -21.8429   29.8724 C   0  0  0  0  0  0  0  0  0  0  0  0
   -7.5134  -20.7013   30.2272 O   0  0  0  0  0  0  0  0  0  0  0  0
   -9.4424  -21.8405   29.8985 O   0  0  0  0  0  0  0  0  0  0  0  0
  2  1  1  6
  3  2  1  0
  4  2  1  0
  4  6  1  0
  4  5  1  1
  6  8  1  0
  6  7  2  0
  8  9  1  0
  9 12  1  0
  9 10  1  6
 11 10  1  0
 12 19  1  0
 12 13  2  0
 15 14  1  0
 15 17  1  0
 16 15  2  0
 18 17  1  1
 18 20  1  0
 19 18  1  0
 20 21  1  0
 22 20  2  0
M  END
$$$$
