TCN.pdb
     RDKit          3D

 22 21  0  0  1  0  0  0  0  0999 V2000
    8.2502  -20.4296   17.4311 C   0  0  0  0  0  0  0  0  0  0  0  0
    8.8688  -19.4295   18.3505 C   0  0  1  0  0  0  0  0  0  0  0  0
   10.2504  -19.6175   18.3367 O   0  0  0  0  0  0  0  0  0  0  0  0
    8.6024  -18.0064   17.9577 C   0  0  2  0  0  0  0  0  0  0  0  0
    9.2159  -17.7523   16.6701 N   0  0  0  0  0  0  0  0  0  0  0  0
    9.1751  -17.0398   18.9377 C   0  0  0  0  0  0  0  0  0  0  0  0
   10.4059  -16.7351   18.9260 O   0  0  0  0  0  0  0  0  0  0  0  0
    8.3952  -16.4005   19.9398 N   0  0  0  0  0  0  0  0  0  0  0  0
    8.9420  -15.4529   20.8795 C   0  0  1  0  0  0  0  0  0  0  0  0
    7.8867  -14.7107   21.6506 C   0  0  0  0  0  0  0  0  0  0  0  0
    6.9005  -13.7597   20.4571 S   0  0  0  0  0  0  0  0  0  0  0  0
    9.7651  -16.2044   21.8703 C   0  0  0  0  0  0  0  0  0  0  0  0
    9.4783  -17.3792   22.2289 O   0  0  0  0  0  0  0  0  0  0  0  0
   14.2092  -14.9541   21.5251 N   0  0  0  0  0  0  0  0  0  0  0  0
   13.7751  -16.1119   22.2084 C   0  0  0  0  0  0  0  0  0  0  0  0
   13.9529  -17.2373   21.6877 O   0  0  0  0  0  0  0  0  0  0  0  0
   13.1195  -15.9571   23.5267 C   0  0  0  0  0  0  0  0  0  0  0  0
   11.6606  -16.3474   23.4884 C   0  0  2  0  0  0  0  0  0  0  0  0
   10.9364  -15.6197   22.4699 N   0  0  0  0  0  0  0  0  0  0  0  0
   11.0798  -16.1030   24.8291 C   0  0  0  0  0  0  0  0  0  0  0  0
   11.4840  -16.8135   25.9341 O   0  0  0  0  0  0  0  0  0  0  0  0
   10.1972  -15.2257   24.9593 O   0  0  0  0  0  0  0  0  0  0  0  0
  2  1  1  6
  3  2  1  0
  4  2  1  0
  4  6  1  0
  4  5  1  6
  6  8  1  0
  6  7  2  0
  8  9  1  0
  9 12  1  0
  9 10  1  1
 11 10  1  0
 12 19  1  0
 12 13  2  0
 15 14  1  0
 15 17  1  0
 16 15  2  0
 18 17  1  1
 18 20  1  0
 19 18  1  0
 20 21  1  0
 22 20  2  0
M  END
$$$$
