TCN.pdb
     RDKit          3D

 22 21  0  0  1  0  0  0  0  0999 V2000
    6.6994  -14.3203   18.2759 C   0  0  0  0  0  0  0  0  0  0  0  0
    7.1921  -14.4591   19.6781 C   0  0  1  0  0  0  0  0  0  0  0  0
    8.4074  -15.1424   19.6498 O   0  0  0  0  0  0  0  0  0  0  0  0
    7.4276  -13.1466   20.3653 C   0  0  2  0  0  0  0  0  0  0  0  0
    8.4254  -12.4016   19.6249 N   0  0  0  0  0  0  0  0  0  0  0  0
    7.9292  -13.3271   21.7577 C   0  0  0  0  0  0  0  0  0  0  0  0
    9.1541  -13.5515   21.9969 O   0  0  0  0  0  0  0  0  0  0  0  0
    7.0840  -13.2617   22.8989 N   0  0  0  0  0  0  0  0  0  0  0  0
    7.5623  -13.4516   24.2462 C   0  0  1  0  0  0  0  0  0  0  0  0
    6.5168  -13.1698   25.2886 C   0  0  0  0  0  0  0  0  0  0  0  0
    7.2698  -13.4632   26.9159 S   0  0  0  0  0  0  0  0  0  0  0  0
    7.9633  -14.8799   24.3991 C   0  0  0  0  0  0  0  0  0  0  0  0
    7.2000  -15.8304   24.0757 O   0  0  0  0  0  0  0  0  0  0  0  0
   12.4358  -18.6855   25.2443 N   0  0  0  0  0  0  0  0  0  0  0  0
   11.2000  -18.4463   24.6028 C   0  0  0  0  0  0  0  0  0  0  0  0
   10.4759  -19.4162   24.2799 O   0  0  0  0  0  0  0  0  0  0  0  0
   10.7976  -17.0478   24.3309 C   0  0  0  0  0  0  0  0  0  0  0  0
    9.5784  -16.6399   25.1241 C   0  0  2  0  0  0  0  0  0  0  0  0
    9.2519  -15.2448   24.9278 N   0  0  0  0  0  0  0  0  0  0  0  0
    9.8376  -16.9278   26.5539 C   0  0  0  0  0  0  0  0  0  0  0  0
    9.8061  -18.2084   27.0521 O   0  0  0  0  0  0  0  0  0  0  0  0
   10.0923  -15.9795   27.3293 O   0  0  0  0  0  0  0  0  0  0  0  0
  2  1  1  6
  3  2  1  0
  4  2  1  0
  4  6  1  0
  4  5  1  6
  6  8  1  0
  6  7  2  0
  8  9  1  0
  9 12  1  0
  9 10  1  1
 11 10  1  0
 12 19  1  0
 12 13  2  0
 15 14  1  0
 15 17  1  0
 16 15  2  0
 18 17  1  6
 18 20  1  0
 19 18  1  0
 20 21  1  0
 22 20  2  0
M  END
$$$$
