TCN.pdb
     RDKit          3D

 22 21  0  0  1  0  0  0  0  0999 V2000
    6.8691  -16.0050   20.2118 C   0  0  0  0  0  0  0  0  0  0  0  0
    7.5301  -14.8070   19.6150 C   0  0  1  0  0  0  0  0  0  0  0  0
    6.9945  -14.5986   18.3445 O   0  0  0  0  0  0  0  0  0  0  0  0
    7.3214  -13.5491   20.4053 C   0  0  2  0  0  0  0  0  0  0  0  0
    7.8009  -12.4229   19.6304 N   0  0  0  0  0  0  0  0  0  0  0  0
    8.0681  -13.5697   21.6956 C   0  0  0  0  0  0  0  0  0  0  0  0
    9.3223  -13.3879   21.7383 O   0  0  0  0  0  0  0  0  0  0  0  0
    7.4380  -13.7909   22.9506 N   0  0  0  0  0  0  0  0  0  0  0  0
    8.1703  -13.9648   24.1809 C   0  0  1  0  0  0  0  0  0  0  0  0
    7.3375  -13.7059   25.4049 C   0  0  0  0  0  0  0  0  0  0  0  0
    5.6223  -13.4558   24.8599 S   0  0  0  0  0  0  0  0  0  0  0  0
    8.6288  -15.3822   24.2515 C   0  0  0  0  0  0  0  0  0  0  0  0
    7.9280  -16.3374   23.8187 O   0  0  0  0  0  0  0  0  0  0  0  0
   11.4134  -19.6245   24.6149 N   0  0  0  0  0  0  0  0  0  0  0  0
   12.1774  -18.6124   23.9922 C   0  0  0  0  0  0  0  0  0  0  0  0
   13.2325  -18.9194   23.3907 O   0  0  0  0  0  0  0  0  0  0  0  0
   11.7035  -17.2120   24.0708 C   0  0  0  0  0  0  0  0  0  0  0  0
   10.3661  -17.0998   24.7644 C   0  0  2  0  0  0  0  0  0  0  0  0
    9.9041  -15.7307   24.8219 N   0  0  0  0  0  0  0  0  0  0  0  0
   10.4995  -17.6721   26.1242 C   0  0  0  0  0  0  0  0  0  0  0  0
   10.2213  -16.9352   27.2506 O   0  0  0  0  0  0  0  0  0  0  0  0
   10.8756  -18.8587   26.2510 O   0  0  0  0  0  0  0  0  0  0  0  0
  2  1  1  1
  3  2  1  0
  4  2  1  0
  4  6  1  0
  4  5  1  6
  6  8  1  0
  6  7  2  0
  8  9  1  0
  9 12  1  0
  9 10  1  1
 11 10  1  0
 12 19  1  0
 12 13  2  0
 15 14  1  0
 15 17  1  0
 16 15  2  0
 18 17  1  1
 18 20  1  0
 19 18  1  0
 20 21  1  0
 22 20  2  0
M  END
$$$$
