TCN.pdb
     RDKit          3D

 22 21  0  0  1  0  0  0  0  0999 V2000
    5.8102  -14.7653   19.4367 C   0  0  0  0  0  0  0  0  0  0  0  0
    6.5952  -14.7832   20.7062 C   0  0  1  0  0  0  0  0  0  0  0  0
    7.6623  -15.6670   20.5491 O   0  0  0  0  0  0  0  0  0  0  0  0
    7.1664  -13.4470   21.0787 C   0  0  2  0  0  0  0  0  0  0  0  0
    8.0173  -12.9835   20.0017 N   0  0  0  0  0  0  0  0  0  0  0  0
    7.9923  -13.5183   22.3179 C   0  0  0  0  0  0  0  0  0  0  0  0
    9.2476  -13.6909   22.2686 O   0  0  0  0  0  0  0  0  0  0  0  0
    7.4410  -13.3999   23.6229 N   0  0  0  0  0  0  0  0  0  0  0  0
    8.2139  -13.5896   24.8257 C   0  0  1  0  0  0  0  0  0  0  0  0
    7.5440  -13.0346   26.0513 C   0  0  0  0  0  0  0  0  0  0  0  0
    5.7857  -13.4849   25.9681 S   0  0  0  0  0  0  0  0  0  0  0  0
    8.3834  -15.0555   25.0417 C   0  0  0  0  0  0  0  0  0  0  0  0
    7.4102  -15.8570   25.0056 O   0  0  0  0  0  0  0  0  0  0  0  0
   11.5310  -16.6028   22.5836 N   0  0  0  0  0  0  0  0  0  0  0  0
   10.6500  -17.4634   23.2757 C   0  0  0  0  0  0  0  0  0  0  0  0
    9.7107  -18.0122   22.6546 O   0  0  0  0  0  0  0  0  0  0  0  0
   10.8664  -17.6906   24.7225 C   0  0  0  0  0  0  0  0  0  0  0  0
    9.7927  -17.0475   25.5685 C   0  0  2  0  0  0  0  0  0  0  0  0
    9.6772  -15.6305   25.3041 N   0  0  0  0  0  0  0  0  0  0  0  0
   10.1134  -17.2968   26.9931 C   0  0  0  0  0  0  0  0  0  0  0  0
   10.4713  -16.2783   27.8439 O   0  0  0  0  0  0  0  0  0  0  0  0
   10.0570  -18.4663   27.4341 O   0  0  0  0  0  0  0  0  0  0  0  0
  2  1  1  6
  3  2  1  0
  4  2  1  0
  4  6  1  0
  4  5  1  6
  6  8  1  0
  6  7  2  0
  8  9  1  0
  9 12  1  0
  9 10  1  1
 11 10  1  0
 12 19  1  0
 12 13  2  0
 15 14  1  0
 15 17  1  0
 16 15  2  0
 18 17  1  6
 18 20  1  0
 19 18  1  0
 20 21  1  0
 22 20  2  0
M  END
$$$$
