MGF.pdb
     RDKit          3D

 24 24  0  0  1  0  0  0  0  0999 V2000
    7.5834  -11.7913   19.7139 C   0  0  0  0  0  0  0  0  0  0  0  0
    6.4992  -12.7641   20.7837 S   0  0  0  0  0  0  0  0  0  0  0  0
    7.2663  -14.3459   21.2606 C   0  0  0  0  0  0  0  0  0  0  0  0
    7.8390  -14.9759   20.0273 C   0  0  0  0  0  0  0  0  0  0  0  0
    8.5075  -16.2920   20.3370 C   0  0  2  0  0  0  0  0  0  0  0  0
    7.4940  -17.0261   21.1402 N   0  0  0  0  0  0  0  0  0  0  0  0
    9.7122  -16.1993   21.1594 C   0  0  0  0  0  0  0  0  0  0  0  0
   10.7354  -15.6178   20.6415 O   0  0  0  0  0  0  0  0  0  0  0  0
    9.8443  -16.6944   22.4785 N   0  0  0  0  0  0  0  0  0  0  0  0
   11.0054  -16.3544   23.2469 C   0  0  0  0  0  0  0  0  0  0  0  0
   10.7309  -16.2584   24.6972 C   0  0  0  0  0  0  0  0  0  0  0  0
   11.6383  -15.8228   25.4595 O   0  0  0  0  0  0  0  0  0  0  0  0
    9.4880  -16.6361   25.2677 N   0  0  0  0  0  0  0  0  0  0  0  0
    9.2345  -16.5710   26.7061 C   0  0  1  0  0  0  0  0  0  0  0  0
    7.8282  -16.1356   26.9886 C   0  0  0  0  0  0  0  0  0  0  0  0
    7.5004  -14.7966   26.4568 C   0  0  0  0  0  0  0  0  0  0  0  0
    6.7327  -14.6368   25.2988 C   0  0  0  0  0  0  0  0  0  0  0  0
    6.4070  -13.3943   24.7972 C   0  0  0  0  0  0  0  0  0  0  0  0
    6.8357  -12.2489   25.4325 C   0  0  0  0  0  0  0  0  0  0  0  0
    7.5919  -12.3931   26.5730 C   0  0  0  0  0  0  0  0  0  0  0  0
    7.9223  -13.6447   27.0820 C   0  0  0  0  0  0  0  0  0  0  0  0
    9.6117  -17.8319   27.3703 C   0  0  0  0  0  0  0  0  0  0  0  0
   10.0217  -18.9352   26.6397 O   0  0  0  0  0  0  0  0  0  0  0  0
    9.5613  -17.9096   28.6150 O   0  0  0  0  0  0  0  0  0  0  0  0
  2  3  1  0
  2  1  1  0
  4  3  1  0
  4  5  1  0
  5  6  1  1
  7  5  1  0
  7  9  1  0
  8  7  2  0
 10  9  1  0
 10 11  1  0
 11 12  2  0
 11 13  1  0
 13 14  1  0
 14 15  1  6
 14 22  1  0
 15 16  1  0
 16 17  2  0
 17 18  1  0
 19 18  2  0
 20 19  1  0
 21 20  2  0
 21 16  1  0
 22 23  1  0
 24 22  2  0
M  END
$$$$
