MGF.pdb
     RDKit          3D

 24 24  0  0  1  0  0  0  0  0999 V2000
    9.2775  -11.8072   19.8961 C   0  0  0  0  0  0  0  0  0  0  0  0
    8.1313  -12.5007   18.6830 S   0  0  0  0  0  0  0  0  0  0  0  0
    7.5773  -14.1699   19.1573 C   0  0  0  0  0  0  0  0  0  0  0  0
    8.5953  -15.1548   18.6677 C   0  0  0  0  0  0  0  0  0  0  0  0
    8.2195  -16.5686   19.0347 C   0  0  2  0  0  0  0  0  0  0  0  0
    6.8653  -16.7417   18.4455 N   0  0  0  0  0  0  0  0  0  0  0  0
    8.0929  -16.8263   20.4678 C   0  0  0  0  0  0  0  0  0  0  0  0
    9.1581  -17.1705   21.1005 O   0  0  0  0  0  0  0  0  0  0  0  0
    6.8960  -16.7261   21.2162 N   0  0  0  0  0  0  0  0  0  0  0  0
    6.8958  -17.0990   22.6001 C   0  0  0  0  0  0  0  0  0  0  0  0
    7.9229  -16.3864   23.3908 C   0  0  0  0  0  0  0  0  0  0  0  0
    8.7784  -15.6844   22.7829 O   0  0  0  0  0  0  0  0  0  0  0  0
    7.9864  -16.4595   24.8063 N   0  0  0  0  0  0  0  0  0  0  0  0
    9.0858  -15.8744   25.5722 C   0  0  1  0  0  0  0  0  0  0  0  0
    8.5931  -15.2753   26.8549 C   0  0  0  0  0  0  0  0  0  0  0  0
    7.7602  -14.0692   26.6686 C   0  0  0  0  0  0  0  0  0  0  0  0
    6.3686  -14.1509   26.5562 C   0  0  0  0  0  0  0  0  0  0  0  0
    5.5762  -13.0338   26.3953 C   0  0  0  0  0  0  0  0  0  0  0  0
    6.1408  -11.7779   26.3388 C   0  0  0  0  0  0  0  0  0  0  0  0
    7.5091  -11.6844   26.4481 C   0  0  0  0  0  0  0  0  0  0  0  0
    8.3116  -12.8089   26.6106 C   0  0  0  0  0  0  0  0  0  0  0  0
   10.1838  -16.8417   25.7504 C   0  0  0  0  0  0  0  0  0  0  0  0
   11.4664  -16.4240   26.0664 O   0  0  0  0  0  0  0  0  0  0  0  0
    9.9563  -18.0613   25.6142 O   0  0  0  0  0  0  0  0  0  0  0  0
  2  3  1  0
  2  1  1  0
  4  3  1  0
  4  5  1  0
  5  6  1  6
  7  5  1  0
  7  9  1  0
  8  7  2  0
 10  9  1  0
 10 11  1  0
 11 12  2  0
 11 13  1  0
 13 14  1  0
 14 15  1  1
 14 22  1  0
 15 16  1  0
 16 17  2  0
 17 18  1  0
 19 18  2  0
 20 19  1  0
 21 20  2  0
 21 16  1  0
 22 23  1  0
 24 22  2  0
M  END
$$$$
