MGF.pdb
     RDKit          3D

 24 24  0  0  1  0  0  0  0  0999 V2000
    8.3416  -12.1201   20.5540 C   0  0  0  0  0  0  0  0  0  0  0  0
    6.7222  -12.9224   20.5641 S   0  0  0  0  0  0  0  0  0  0  0  0
    6.8655  -14.7260   20.7752 C   0  0  0  0  0  0  0  0  0  0  0  0
    8.2889  -15.0425   21.1210 C   0  0  0  0  0  0  0  0  0  0  0  0
    8.4850  -16.5181   21.3639 C   0  0  2  0  0  0  0  0  0  0  0  0
    7.3828  -16.8753   22.2960 N   0  0  0  0  0  0  0  0  0  0  0  0
    9.7351  -16.8780   22.0301 C   0  0  0  0  0  0  0  0  0  0  0  0
   10.5751  -17.5869   21.3627 O   0  0  0  0  0  0  0  0  0  0  0  0
   10.0979  -16.5089   23.3472 N   0  0  0  0  0  0  0  0  0  0  0  0
   11.4794  -16.5226   23.7287 C   0  0  0  0  0  0  0  0  0  0  0  0
   11.6922  -16.1441   25.1427 C   0  0  0  0  0  0  0  0  0  0  0  0
   12.8663  -16.1648   25.6068 O   0  0  0  0  0  0  0  0  0  0  0  0
   10.6297  -15.7584   26.0002 N   0  0  0  0  0  0  0  0  0  0  0  0
   10.8329  -15.4740   27.4198 C   0  0  1  0  0  0  0  0  0  0  0  0
   10.3448  -14.1011   27.7719 C   0  0  0  0  0  0  0  0  0  0  0  0
    9.0788  -13.7296   27.1069 C   0  0  0  0  0  0  0  0  0  0  0  0
    8.3419  -12.6107   27.5084 C   0  0  0  0  0  0  0  0  0  0  0  0
    7.1657  -12.2432   26.8896 C   0  0  0  0  0  0  0  0  0  0  0  0
    6.6693  -12.9802   25.8362 C   0  0  0  0  0  0  0  0  0  0  0  0
    7.3853  -14.0834   25.4319 C   0  0  0  0  0  0  0  0  0  0  0  0
    8.5721  -14.4572   26.0535 C   0  0  0  0  0  0  0  0  0  0  0  0
   10.2652  -16.5417   28.2629 C   0  0  0  0  0  0  0  0  0  0  0  0
    9.5697  -17.6035   27.7078 O   0  0  0  0  0  0  0  0  0  0  0  0
   10.4123  -16.4904   29.5012 O   0  0  0  0  0  0  0  0  0  0  0  0
  2  3  1  0
  2  1  1  0
  4  3  1  0
  4  5  1  0
  5  6  1  1
  7  5  1  0
  7  9  1  0
  8  7  2  0
 10  9  1  0
 10 11  1  0
 11 12  2  0
 11 13  1  0
 13 14  1  0
 14 15  1  1
 14 22  1  0
 15 16  1  0
 16 17  2  0
 17 18  1  0
 19 18  2  0
 20 19  1  0
 21 20  2  0
 21 16  1  0
 22 23  1  0
 24 22  2  0
M  END
$$$$
