MGF.pdb
     RDKit          3D

 24 24  0  0  1  0  0  0  0  0999 V2000
    7.6713  -12.1282   20.6823 C   0  0  0  0  0  0  0  0  0  0  0  0
    6.3309  -13.2878   21.0361 S   0  0  0  0  0  0  0  0  0  0  0  0
    6.9502  -14.8190   21.8042 C   0  0  0  0  0  0  0  0  0  0  0  0
    8.2121  -15.2157   21.1000 C   0  0  0  0  0  0  0  0  0  0  0  0
    8.7991  -16.4766   21.6833 C   0  0  2  0  0  0  0  0  0  0  0  0
    7.8261  -16.8680   22.7374 N   0  0  0  0  0  0  0  0  0  0  0  0
   10.0933  -16.3130   22.3424 C   0  0  0  0  0  0  0  0  0  0  0  0
   11.0441  -15.7912   21.6517 O   0  0  0  0  0  0  0  0  0  0  0  0
   10.3853  -16.6794   23.6778 N   0  0  0  0  0  0  0  0  0  0  0  0
   11.7135  -16.4981   24.1850 C   0  0  0  0  0  0  0  0  0  0  0  0
   11.7377  -16.0456   25.5930 C   0  0  0  0  0  0  0  0  0  0  0  0
   12.8499  -15.7703   26.1235 O   0  0  0  0  0  0  0  0  0  0  0  0
   10.5606  -15.9082   26.3733 N   0  0  0  0  0  0  0  0  0  0  0  0
   10.5983  -15.7496   27.8262 C   0  0  1  0  0  0  0  0  0  0  0  0
    9.9789  -14.4504   28.2450 C   0  0  0  0  0  0  0  0  0  0  0  0
    9.0030  -13.9145   27.2736 C   0  0  0  0  0  0  0  0  0  0  0  0
    9.4090  -13.1580   26.1696 C   0  0  0  0  0  0  0  0  0  0  0  0
    8.5121  -12.6621   25.2470 C   0  0  0  0  0  0  0  0  0  0  0  0
    7.1618  -12.9003   25.3860 C   0  0  0  0  0  0  0  0  0  0  0  0
    6.7498  -13.6433   26.4683 C   0  0  0  0  0  0  0  0  0  0  0  0
    7.6516  -14.1452   27.4008 C   0  0  0  0  0  0  0  0  0  0  0  0
   10.0272  -16.9270   28.5048 C   0  0  0  0  0  0  0  0  0  0  0  0
   10.1292  -17.0863   29.8773 O   0  0  0  0  0  0  0  0  0  0  0  0
    9.4400  -17.7991   27.8321 O   0  0  0  0  0  0  0  0  0  0  0  0
  2  3  1  0
  2  1  1  0
  4  3  1  0
  4  5  1  0
  5  6  1  1
  7  5  1  0
  7  9  1  0
  8  7  2  0
 10  9  1  0
 10 11  1  0
 11 12  2  0
 11 13  1  0
 13 14  1  0
 14 15  1  6
 14 22  1  0
 15 16  1  0
 16 17  2  0
 17 18  1  0
 19 18  2  0
 20 19  1  0
 21 20  2  0
 21 16  1  0
 22 23  1  0
 24 22  2  0
M  END
$$$$
