MGF.pdb
     RDKit          3D

 24 24  0  0  1  0  0  0  0  0999 V2000
    8.5409  -11.8681   19.8695 C   0  0  0  0  0  0  0  0  0  0  0  0
    8.8948  -12.7651   18.3409 S   0  0  0  0  0  0  0  0  0  0  0  0
    8.4174  -14.5187   18.4630 C   0  0  0  0  0  0  0  0  0  0  0  0
    8.2118  -14.8453   19.9111 C   0  0  0  0  0  0  0  0  0  0  0  0
    7.7984  -16.2833   20.1014 C   0  0  2  0  0  0  0  0  0  0  0  0
    6.5494  -16.4035   19.3034 N   0  0  0  0  0  0  0  0  0  0  0  0
    7.4610  -16.6570   21.4734 C   0  0  0  0  0  0  0  0  0  0  0  0
    6.3030  -16.3087   21.9107 O   0  0  0  0  0  0  0  0  0  0  0  0
    8.3021  -17.3720   22.3588 N   0  0  0  0  0  0  0  0  0  0  0  0
    7.9409  -17.4816   23.7415 C   0  0  0  0  0  0  0  0  0  0  0  0
    8.8806  -16.7786   24.6418 C   0  0  0  0  0  0  0  0  0  0  0  0
    9.9792  -16.3691   24.1731 O   0  0  0  0  0  0  0  0  0  0  0  0
    8.5979  -16.5452   26.0124 N   0  0  0  0  0  0  0  0  0  0  0  0
    9.4909  -15.7741   26.8759 C   0  0  1  0  0  0  0  0  0  0  0  0
    8.7145  -14.9164   27.8292 C   0  0  0  0  0  0  0  0  0  0  0  0
    7.8705  -13.9011   27.1659 C   0  0  0  0  0  0  0  0  0  0  0  0
    6.5737  -14.1964   26.7335 C   0  0  0  0  0  0  0  0  0  0  0  0
    5.7688  -13.2564   26.1250 C   0  0  0  0  0  0  0  0  0  0  0  0
    6.2250  -11.9723   25.9194 C   0  0  0  0  0  0  0  0  0  0  0  0
    7.4994  -11.6696   26.3405 C   0  0  0  0  0  0  0  0  0  0  0  0
    8.3142  -12.6149   26.9548 C   0  0  0  0  0  0  0  0  0  0  0  0
   10.4810  -16.6471   27.5322 C   0  0  0  0  0  0  0  0  0  0  0  0
   11.5940  -16.1216   28.1681 O   0  0  0  0  0  0  0  0  0  0  0  0
   10.3159  -17.8841   27.5158 O   0  0  0  0  0  0  0  0  0  0  0  0
  2  3  1  0
  2  1  1  0
  4  3  1  0
  4  5  1  0
  5  6  1  6
  7  5  1  0
  7  9  1  0
  8  7  2  0
 10  9  1  0
 10 11  1  0
 11 12  2  0
 11 13  1  0
 13 14  1  0
 14 15  1  1
 14 22  1  0
 15 16  1  0
 16 17  2  0
 17 18  1  0
 19 18  2  0
 20 19  1  0
 21 20  2  0
 21 16  1  0
 22 23  1  0
 24 22  2  0
M  END
$$$$
