MGF.pdb
     RDKit          3D

 24 24  0  0  1  0  0  0  0  0999 V2000
    7.1147  -11.4951   20.4986 C   0  0  0  0  0  0  0  0  0  0  0  0
    7.1416  -12.9375   19.4100 S   0  0  0  0  0  0  0  0  0  0  0  0
    7.9796  -14.3544   20.1899 C   0  0  0  0  0  0  0  0  0  0  0  0
    7.8071  -15.5459   19.2976 C   0  0  0  0  0  0  0  0  0  0  0  0
    8.5015  -16.7622   19.8572 C   0  0  2  0  0  0  0  0  0  0  0  0
    7.4376  -17.4557   20.6307 N   0  0  0  0  0  0  0  0  0  0  0  0
    9.5893  -16.4821   20.7923 C   0  0  0  0  0  0  0  0  0  0  0  0
   10.7200  -16.1295   20.2917 O   0  0  0  0  0  0  0  0  0  0  0  0
    9.5001  -16.5647   22.2023 N   0  0  0  0  0  0  0  0  0  0  0  0
   10.5425  -16.0023   23.0095 C   0  0  0  0  0  0  0  0  0  0  0  0
   10.2599  -16.0863   24.4589 C   0  0  0  0  0  0  0  0  0  0  0  0
   11.1189  -15.6439   25.2718 O   0  0  0  0  0  0  0  0  0  0  0  0
    9.0616  -16.6445   24.9742 N   0  0  0  0  0  0  0  0  0  0  0  0
    8.8105  -16.7717   26.4089 C   0  0  1  0  0  0  0  0  0  0  0  0
    7.5053  -16.1396   26.7881 C   0  0  0  0  0  0  0  0  0  0  0  0
    7.4483  -14.6865   26.5266 C   0  0  0  0  0  0  0  0  0  0  0  0
    7.9908  -13.7597   27.4225 C   0  0  0  0  0  0  0  0  0  0  0  0
    7.9573  -12.4014   27.1867 C   0  0  0  0  0  0  0  0  0  0  0  0
    7.3773  -11.9045   26.0395 C   0  0  0  0  0  0  0  0  0  0  0  0
    6.8400  -12.8065   25.1502 C   0  0  0  0  0  0  0  0  0  0  0  0
    6.8719  -14.1772   25.3846 C   0  0  0  0  0  0  0  0  0  0  0  0
    8.9438  -18.1720   26.8501 C   0  0  0  0  0  0  0  0  0  0  0  0
    8.9216  -18.5081   28.1939 O   0  0  0  0  0  0  0  0  0  0  0  0
    9.0797  -19.0742   25.9984 O   0  0  0  0  0  0  0  0  0  0  0  0
  2  3  1  0
  2  1  1  0
  4  3  1  0
  4  5  1  0
  5  6  1  1
  7  5  1  0
  7  9  1  0
  8  7  2  0
 10  9  1  0
 10 11  1  0
 11 12  2  0
 11 13  1  0
 13 14  1  0
 14 15  1  6
 14 22  1  0
 15 16  1  0
 16 17  2  0
 17 18  1  0
 19 18  2  0
 20 19  1  0
 21 20  2  0
 21 16  1  0
 22 23  1  0
 24 22  2  0
M  END
$$$$
