MGF.pdb
     RDKit          3D

 24 24  0  0  1  0  0  0  0  0999 V2000
    7.2033  -12.2596   17.3191 C   0  0  0  0  0  0  0  0  0  0  0  0
    6.8317  -13.1094   18.8703 S   0  0  0  0  0  0  0  0  0  0  0  0
    8.3124  -13.9021   19.5754 C   0  0  0  0  0  0  0  0  0  0  0  0
    7.9371  -14.4948   20.8997 C   0  0  0  0  0  0  0  0  0  0  0  0
    9.0739  -15.2882   21.4937 C   0  0  2  0  0  0  0  0  0  0  0  0
    9.3575  -16.3270   20.4682 N   0  0  0  0  0  0  0  0  0  0  0  0
    8.7584  -15.9939   22.7341 C   0  0  0  0  0  0  0  0  0  0  0  0
    8.3601  -15.2848   23.7300 O   0  0  0  0  0  0  0  0  0  0  0  0
    8.8529  -17.3925   22.9284 N   0  0  0  0  0  0  0  0  0  0  0  0
    8.6978  -17.9339   24.2464 C   0  0  0  0  0  0  0  0  0  0  0  0
    9.7501  -17.4840   25.1835 C   0  0  0  0  0  0  0  0  0  0  0  0
   10.9601  -17.6405   24.8584 O   0  0  0  0  0  0  0  0  0  0  0  0
    9.4552  -16.8832   26.4345 N   0  0  0  0  0  0  0  0  0  0  0  0
   10.4743  -16.2139   27.2414 C   0  0  1  0  0  0  0  0  0  0  0  0
   10.6210  -14.7760   26.8440 C   0  0  0  0  0  0  0  0  0  0  0  0
    9.3510  -14.0211   26.8570 C   0  0  0  0  0  0  0  0  0  0  0  0
    8.3722  -14.2183   25.8778 C   0  0  0  0  0  0  0  0  0  0  0  0
    7.1764  -13.5314   25.8834 C   0  0  0  0  0  0  0  0  0  0  0  0
    6.9026  -12.6115   26.8723 C   0  0  0  0  0  0  0  0  0  0  0  0
    7.8579  -12.4086   27.8415 C   0  0  0  0  0  0  0  0  0  0  0  0
    9.0651  -13.0995   27.8392 C   0  0  0  0  0  0  0  0  0  0  0  0
   10.2267  -16.4109   28.6812 C   0  0  0  0  0  0  0  0  0  0  0  0
    9.1198  -17.1117   29.1316 O   0  0  0  0  0  0  0  0  0  0  0  0
   11.0284  -15.9380   29.5128 O   0  0  0  0  0  0  0  0  0  0  0  0
  2  3  1  0
  2  1  1  0
  4  3  1  0
  4  5  1  0
  5  6  1  6
  7  5  1  0
  7  9  1  0
  8  7  2  0
 10  9  1  0
 10 11  1  0
 11 12  2  0
 11 13  1  0
 13 14  1  0
 14 15  1  1
 14 22  1  0
 15 16  1  0
 16 17  2  0
 17 18  1  0
 19 18  2  0
 20 19  1  0
 21 20  2  0
 21 16  1  0
 22 23  1  0
 24 22  2  0
M  END
$$$$
