HEK.pdb
     RDKit          3D

 29 29  0  0  1  0  0  0  0  0999 V2000
   26.3772  -19.8516  -13.1901 N   0  0  0  0  0  0  0  0  0  0  0  0
   25.6345  -20.7368  -12.3309 C   0  0  1  0  0  0  0  0  0  0  0  0
   26.1831  -20.6178  -10.9456 C   0  0  0  0  0  0  0  0  0  0  0  0
   27.6277  -20.9623  -10.9791 C   0  0  0  0  0  0  0  0  0  0  0  0
   28.4068  -21.2956  -12.0686 C   0  0  0  0  0  0  0  0  0  0  0  0
   29.6759  -21.5438  -11.6883 N   0  0  0  0  0  0  0  0  0  0  0  0
   29.7116  -21.3724  -10.3728 C   0  0  0  0  0  0  0  0  0  0  0  0
   28.4874  -21.0210   -9.9206 N   0  0  0  0  0  0  0  0  0  0  0  0
   24.1740  -20.5263  -12.4050 C   0  0  0  0  0  0  0  0  0  0  0  0
   23.7280  -19.3894  -12.1017 O   0  0  0  0  0  0  0  0  0  0  0  0
   23.2387  -21.5012  -12.7899 N   0  0  0  0  0  0  0  0  0  0  0  0
   21.7839  -21.2814  -12.8310 C   0  0  1  0  0  0  0  0  0  0  0  0
   21.3804  -20.7336  -14.1632 C   0  0  0  0  0  0  0  0  0  0  0  0
   19.8940  -20.5378  -14.2199 C   0  0  0  0  0  0  0  0  0  0  0  0
   19.5017  -19.2356  -13.5805 C   0  0  0  0  0  0  0  0  0  0  0  0
   20.0596  -18.1468  -13.8488 O   0  0  0  0  0  0  0  0  0  0  0  0
   21.0591  -22.4641  -12.3872 C   0  0  0  0  0  0  0  0  0  0  0  0
   21.1704  -23.5647  -12.9597 O   0  0  0  0  0  0  0  0  0  0  0  0
   18.4777  -19.2644  -12.6589 O   0  0  0  0  0  0  0  0  0  0  0  0
   20.1697  -22.4525  -11.2663 N   0  0  0  0  0  0  0  0  0  0  0  0
   19.5198  -23.6405  -10.7587 C   0  0  1  0  0  0  0  0  0  0  0  0
   18.9704  -23.4233   -9.3582 C   0  0  0  0  0  0  0  0  0  0  0  0
   18.3824  -24.6530   -8.7791 C   0  0  0  0  0  0  0  0  0  0  0  0
   17.8968  -24.4967   -7.3721 C   0  0  0  0  0  0  0  0  0  0  0  0
   17.2699  -25.7177   -6.7642 C   0  0  0  0  0  0  0  0  0  0  0  0
   16.8015  -25.5615   -5.4294 N   0  0  0  0  0  0  0  0  0  0  0  0
   18.4020  -24.0479  -11.6434 C   0  0  0  0  0  0  0  0  0  0  0  0
   17.4965  -23.1360  -12.1596 O   0  0  0  0  0  0  0  0  0  0  0  0
   18.2566  -25.2572  -11.9452 O   0  0  0  0  0  0  0  0  0  0  0  0
  2  1  1  6
  3  2  1  0
  4  3  1  0
  4  8  1  0
  5  6  1  0
  5  4  2  0
  6  7  1  0
  7  8  2  0
  9 10  2  0
  9  2  1  0
 11  9  1  0
 12 11  1  0
 12 13  1  6
 14 13  1  0
 15 14  1  0
 16 15  2  0
 17 12  1  0
 18 17  2  0
 19 15  1  0
 20 17  1  0
 21 27  1  0
 21 20  1  0
 21 22  1  1
 23 22  1  0
 24 23  1  0
 25 24  1  0
 26 25  1  0
 27 28  1  0
 29 27  2  0
M  END
$$$$
