HEK.pdb
     RDKit          3D

 29 29  0  0  1  0  0  0  0  0999 V2000
   16.4648  -11.6811  -16.5145 N   0  0  0  0  0  0  0  0  0  0  0  0
   17.8052  -11.2997  -16.1522 C   0  0  1  0  0  0  0  0  0  0  0  0
   18.7601  -12.2015  -16.8655 C   0  0  0  0  0  0  0  0  0  0  0  0
   18.5770  -13.5834  -16.3518 C   0  0  0  0  0  0  0  0  0  0  0  0
   19.2479  -14.2141  -15.3237 C   0  0  0  0  0  0  0  0  0  0  0  0
   18.7942  -15.4728  -15.1606 N   0  0  0  0  0  0  0  0  0  0  0  0
   17.8449  -15.6483  -16.0713 C   0  0  0  0  0  0  0  0  0  0  0  0
   17.6947  -14.5220  -16.8032 N   0  0  0  0  0  0  0  0  0  0  0  0
   18.0782   -9.8641  -16.3699 C   0  0  0  0  0  0  0  0  0  0  0  0
   18.2167   -9.4654  -17.5553 O   0  0  0  0  0  0  0  0  0  0  0  0
   18.1959   -8.9036  -15.3515 N   0  0  0  0  0  0  0  0  0  0  0  0
   18.4523   -7.4737  -15.5885 C   0  0  1  0  0  0  0  0  0  0  0  0
   17.3689   -6.6447  -14.9749 C   0  0  0  0  0  0  0  0  0  0  0  0
   17.6475   -5.1848  -15.1797 C   0  0  0  0  0  0  0  0  0  0  0  0
   16.5508   -4.3434  -14.5900 C   0  0  0  0  0  0  0  0  0  0  0  0
   16.3594   -4.2361  -13.3569 O   0  0  0  0  0  0  0  0  0  0  0  0
   19.8132   -7.1130  -15.2156 C   0  0  0  0  0  0  0  0  0  0  0  0
   20.2693   -7.3304  -14.0771 O   0  0  0  0  0  0  0  0  0  0  0  0
   15.7294   -3.6672  -15.4656 O   0  0  0  0  0  0  0  0  0  0  0  0
   20.7247   -6.4859  -16.1229 N   0  0  0  0  0  0  0  0  0  0  0  0
   22.0770   -6.1222  -15.7619 C   0  0  1  0  0  0  0  0  0  0  0  0
   22.9068   -5.7665  -16.9848 C   0  0  0  0  0  0  0  0  0  0  0  0
   24.3233   -5.4906  -16.6523 C   0  0  0  0  0  0  0  0  0  0  0  0
   25.1800   -5.1703  -17.8370 C   0  0  0  0  0  0  0  0  0  0  0  0
   26.6500   -5.0471  -17.5586 C   0  0  0  0  0  0  0  0  0  0  0  0
   27.4697   -4.8257  -18.7007 N   0  0  0  0  0  0  0  0  0  0  0  0
   22.0816   -4.9626  -14.8381 C   0  0  0  0  0  0  0  0  0  0  0  0
   22.9051   -4.9055  -13.7261 O   0  0  0  0  0  0  0  0  0  0  0  0
   21.3189   -3.9903  -15.0564 O   0  0  0  0  0  0  0  0  0  0  0  0
  2  1  1  6
  3  2  1  0
  4  3  1  0
  4  8  1  0
  5  6  1  0
  5  4  2  0
  6  7  1  0
  7  8  2  0
  9 10  2  0
  9  2  1  0
 11  9  1  0
 12 11  1  0
 12 13  1  1
 14 13  1  0
 15 14  1  0
 16 15  2  0
 17 12  1  0
 18 17  2  0
 19 15  1  0
 20 17  1  0
 21 27  1  0
 21 20  1  0
 21 22  1  6
 23 22  1  0
 24 23  1  0
 25 24  1  0
 26 25  1  0
 27 28  1  0
 29 27  2  0
M  END
$$$$
