HEK.pdb
     RDKit          3D

 29 29  0  0  1  0  0  0  0  0999 V2000
   17.6811  -11.7126  -15.1404 N   0  0  0  0  0  0  0  0  0  0  0  0
   16.5499  -11.1237  -14.4719 C   0  0  1  0  0  0  0  0  0  0  0  0
   15.7964  -12.2107  -13.7759 C   0  0  0  0  0  0  0  0  0  0  0  0
   15.0386  -12.9848  -14.7924 C   0  0  0  0  0  0  0  0  0  0  0  0
   14.9399  -12.7552  -16.1498 C   0  0  0  0  0  0  0  0  0  0  0  0
   14.1540  -13.6817  -16.7335 N   0  0  0  0  0  0  0  0  0  0  0  0
   13.7532  -14.4952  -15.7646 C   0  0  0  0  0  0  0  0  0  0  0  0
   14.2737  -14.0958  -14.5829 N   0  0  0  0  0  0  0  0  0  0  0  0
   16.9207  -10.0033  -13.5830 C   0  0  0  0  0  0  0  0  0  0  0  0
   17.5385  -10.2753  -12.5210 O   0  0  0  0  0  0  0  0  0  0  0  0
   16.6364   -8.6503  -13.8319 N   0  0  0  0  0  0  0  0  0  0  0  0
   17.0480   -7.5432  -12.9535 C   0  0  1  0  0  0  0  0  0  0  0  0
   17.6085   -6.4189  -13.7654 C   0  0  0  0  0  0  0  0  0  0  0  0
   19.0221   -6.7187  -14.1687 C   0  0  0  0  0  0  0  0  0  0  0  0
   19.1971   -6.5708  -15.6539 C   0  0  0  0  0  0  0  0  0  0  0  0
   18.2880   -6.1613  -16.4119 O   0  0  0  0  0  0  0  0  0  0  0  0
   15.9856   -7.1844  -12.0241 C   0  0  0  0  0  0  0  0  0  0  0  0
   14.7851   -7.4088  -12.2694 O   0  0  0  0  0  0  0  0  0  0  0  0
   20.4232   -6.9073  -16.1850 O   0  0  0  0  0  0  0  0  0  0  0  0
   16.2378   -6.5512  -10.7661 N   0  0  0  0  0  0  0  0  0  0  0  0
   15.1935   -6.2229   -9.8211 C   0  0  1  0  0  0  0  0  0  0  0  0
   14.5081   -7.4705   -9.2880 C   0  0  0  0  0  0  0  0  0  0  0  0
   13.4781   -7.1641   -8.2689 C   0  0  0  0  0  0  0  0  0  0  0  0
   12.8031   -8.3713   -7.6971 C   0  0  0  0  0  0  0  0  0  0  0  0
   11.7538   -8.0958   -6.6596 C   0  0  0  0  0  0  0  0  0  0  0  0
   11.1717   -9.2483   -6.0610 N   0  0  0  0  0  0  0  0  0  0  0  0
   15.7423   -5.4620   -8.6731 C   0  0  0  0  0  0  0  0  0  0  0  0
   14.9666   -4.5965   -7.9201 O   0  0  0  0  0  0  0  0  0  0  0  0
   16.9499   -5.5950   -8.3589 O   0  0  0  0  0  0  0  0  0  0  0  0
  2  1  1  1
  3  2  1  0
  4  3  1  0
  4  8  1  0
  5  6  1  0
  5  4  2  0
  6  7  1  0
  7  8  2  0
  9 10  2  0
  9  2  1  0
 11  9  1  0
 12 11  1  0
 12 13  1  6
 14 13  1  0
 15 14  1  0
 16 15  2  0
 17 12  1  0
 18 17  2  0
 19 15  1  0
 20 17  1  0
 21 27  1  0
 21 20  1  0
 21 22  1  1
 23 22  1  0
 24 23  1  0
 25 24  1  0
 26 25  1  0
 27 28  1  0
 29 27  2  0
M  END
$$$$
