HEK.pdb
     RDKit          3D

 29 29  0  0  1  0  0  0  0  0999 V2000
   18.1827  -12.0753  -15.0400 N   0  0  0  0  0  0  0  0  0  0  0  0
   18.0511  -11.0573  -16.0499 C   0  0  1  0  0  0  0  0  0  0  0  0
   16.7924  -11.3128  -16.8143 C   0  0  0  0  0  0  0  0  0  0  0  0
   16.9427  -12.5906  -17.5568 C   0  0  0  0  0  0  0  0  0  0  0  0
   18.0473  -13.4145  -17.6352 C   0  0  0  0  0  0  0  0  0  0  0  0
   17.7887  -14.4850  -18.4124 N   0  0  0  0  0  0  0  0  0  0  0  0
   16.5354  -14.3508  -18.8276 C   0  0  0  0  0  0  0  0  0  0  0  0
   16.0027  -13.2150  -18.3248 N   0  0  0  0  0  0  0  0  0  0  0  0
   18.1408   -9.6865  -15.5062 C   0  0  0  0  0  0  0  0  0  0  0  0
   17.2396   -9.3086  -14.7134 O   0  0  0  0  0  0  0  0  0  0  0  0
   19.1591   -8.7665  -15.8064 N   0  0  0  0  0  0  0  0  0  0  0  0
   19.2154   -7.3934  -15.2790 C   0  0  1  0  0  0  0  0  0  0  0  0
   20.5663   -7.1163  -14.6996 C   0  0  0  0  0  0  0  0  0  0  0  0
   20.6045   -5.7441  -14.0942 C   0  0  0  0  0  0  0  0  0  0  0  0
   21.9119   -5.5055  -13.3927 C   0  0  0  0  0  0  0  0  0  0  0  0
   22.3806   -6.2889  -12.5352 O   0  0  0  0  0  0  0  0  0  0  0  0
   18.7390   -6.4307  -16.2625 C   0  0  0  0  0  0  0  0  0  0  0  0
   19.0964   -6.4680  -17.4552 O   0  0  0  0  0  0  0  0  0  0  0  0
   22.6110   -4.3653  -13.7243 O   0  0  0  0  0  0  0  0  0  0  0  0
   17.8293   -5.3756  -15.9363 N   0  0  0  0  0  0  0  0  0  0  0  0
   17.4080   -4.3708  -16.8873 C   0  0  1  0  0  0  0  0  0  0  0  0
   16.0034   -3.8718  -16.5896 C   0  0  0  0  0  0  0  0  0  0  0  0
   15.5552   -2.8288  -17.5407 C   0  0  0  0  0  0  0  0  0  0  0  0
   14.1882   -2.2886  -17.2587 C   0  0  0  0  0  0  0  0  0  0  0  0
   13.6550   -1.3161  -18.2704 C   0  0  0  0  0  0  0  0  0  0  0  0
   12.3592   -0.7974  -17.9926 N   0  0  0  0  0  0  0  0  0  0  0  0
   18.3313   -3.2109  -16.8714 C   0  0  0  0  0  0  0  0  0  0  0  0
   18.6899   -2.5345  -18.0255 O   0  0  0  0  0  0  0  0  0  0  0  0
   18.8140   -2.8148  -15.7829 O   0  0  0  0  0  0  0  0  0  0  0  0
  2  1  1  1
  3  2  1  0
  4  3  1  0
  4  8  1  0
  5  6  1  0
  5  4  2  0
  6  7  1  0
  7  8  2  0
  9 10  2  0
  9  2  1  0
 11  9  1  0
 12 11  1  0
 12 13  1  6
 14 13  1  0
 15 14  1  0
 16 15  2  0
 17 12  1  0
 18 17  2  0
 19 15  1  0
 20 17  1  0
 21 27  1  0
 21 20  1  0
 21 22  1  1
 23 22  1  0
 24 23  1  0
 25 24  1  0
 26 25  1  0
 27 28  1  0
 29 27  2  0
M  END
$$$$
