HEK.pdb
     RDKit          3D

 29 29  0  0  1  0  0  0  0  0999 V2000
   23.9558  -13.2355  -18.0147 N   0  0  0  0  0  0  0  0  0  0  0  0
   24.0647  -12.3899  -16.8543 C   0  0  1  0  0  0  0  0  0  0  0  0
   25.4840  -11.9372  -16.7336 C   0  0  0  0  0  0  0  0  0  0  0  0
   26.3427  -13.1298  -16.5167 C   0  0  0  0  0  0  0  0  0  0  0  0
   26.6926  -13.7318  -15.3250 C   0  0  0  0  0  0  0  0  0  0  0  0
   27.4920  -14.7945  -15.5451 N   0  0  0  0  0  0  0  0  0  0  0  0
   27.6535  -14.8741  -16.8600 C   0  0  0  0  0  0  0  0  0  0  0  0
   26.9696  -13.8802  -17.4691 N   0  0  0  0  0  0  0  0  0  0  0  0
   23.0910  -11.2786  -16.8535 C   0  0  0  0  0  0  0  0  0  0  0  0
   23.1587  -10.4374  -17.7868 O   0  0  0  0  0  0  0  0  0  0  0  0
   22.0897  -11.0864  -15.8872 N   0  0  0  0  0  0  0  0  0  0  0  0
   21.1169   -9.9821  -15.9122 C   0  0  1  0  0  0  0  0  0  0  0  0
   19.8633  -10.3802  -15.1997 C   0  0  0  0  0  0  0  0  0  0  0  0
   19.1185  -11.4154  -15.9900 C   0  0  0  0  0  0  0  0  0  0  0  0
   17.8679  -11.8383  -15.2720 C   0  0  0  0  0  0  0  0  0  0  0  0
   17.8807  -12.4996  -14.2084 O   0  0  0  0  0  0  0  0  0  0  0  0
   21.7249   -8.7336  -15.4734 C   0  0  0  0  0  0  0  0  0  0  0  0
   22.5538   -8.6892  -14.5447 O   0  0  0  0  0  0  0  0  0  0  0  0
   16.6619  -11.4704  -15.8278 O   0  0  0  0  0  0  0  0  0  0  0  0
   21.4190   -7.4705  -16.0721 N   0  0  0  0  0  0  0  0  0  0  0  0
   22.0131   -6.2247  -15.6402 C   0  0  1  0  0  0  0  0  0  0  0  0
   21.7731   -5.1112  -16.6467 C   0  0  0  0  0  0  0  0  0  0  0  0
   22.4275   -3.8406  -16.2583 C   0  0  0  0  0  0  0  0  0  0  0  0
   22.1034   -2.6855  -17.1531 C   0  0  0  0  0  0  0  0  0  0  0  0
   22.7482   -1.3808  -16.7852 C   0  0  0  0  0  0  0  0  0  0  0  0
   22.5858   -0.3323  -17.7337 N   0  0  0  0  0  0  0  0  0  0  0  0
   21.4580   -5.8025  -14.3319 C   0  0  0  0  0  0  0  0  0  0  0  0
   22.2155   -5.1264  -13.3900 O   0  0  0  0  0  0  0  0  0  0  0  0
   20.2620   -6.0585  -14.0517 O   0  0  0  0  0  0  0  0  0  0  0  0
  2  1  1  6
  3  2  1  0
  4  3  1  0
  4  8  1  0
  5  6  1  0
  5  4  2  0
  6  7  1  0
  7  8  2  0
  9 10  2  0
  9  2  1  0
 11  9  1  0
 12 11  1  0
 12 13  1  1
 14 13  1  0
 15 14  1  0
 16 15  2  0
 17 12  1  0
 18 17  2  0
 19 15  1  0
 20 17  1  0
 21 27  1  0
 21 20  1  0
 21 22  1  6
 23 22  1  0
 24 23  1  0
 25 24  1  0
 26 25  1  0
 27 28  1  0
 29 27  2  0
M  END
$$$$
