HEK.pdb
     RDKit          3D

 29 29  0  0  1  0  0  0  0  0999 V2000
   16.5287  -20.1939    3.3771 N   0  0  0  0  0  0  0  0  0  0  0  0
   16.6940  -21.5500    3.8324 C   0  0  1  0  0  0  0  0  0  0  0  0
   17.1269  -22.3865    2.6719 C   0  0  0  0  0  0  0  0  0  0  0  0
   16.0638  -22.3414    1.6353 C   0  0  0  0  0  0  0  0  0  0  0  0
   16.0965  -21.7337    0.3965 C   0  0  0  0  0  0  0  0  0  0  0  0
   14.9300  -21.9155   -0.2539 N   0  0  0  0  0  0  0  0  0  0  0  0
   14.1586  -22.6300    0.5557 C   0  0  0  0  0  0  0  0  0  0  0  0
   14.8202  -22.9000    1.7029 N   0  0  0  0  0  0  0  0  0  0  0  0
   17.5866  -21.6632    5.0043 C   0  0  0  0  0  0  0  0  0  0  0  0
   18.6295  -20.9592    5.0188 O   0  0  0  0  0  0  0  0  0  0  0  0
   17.3611  -22.4997    6.1101 N   0  0  0  0  0  0  0  0  0  0  0  0
   18.2267  -22.5502    7.2995 C   0  0  1  0  0  0  0  0  0  0  0  0
   17.6054  -21.7853    8.4249 C   0  0  0  0  0  0  0  0  0  0  0  0
   18.5290  -21.7510    9.6068 C   0  0  0  0  0  0  0  0  0  0  0  0
   17.9278  -20.9566   10.7319 C   0  0  0  0  0  0  0  0  0  0  0  0
   16.6936  -20.7956   10.8720 O   0  0  0  0  0  0  0  0  0  0  0  0
   18.6224  -23.9178    7.6062 C   0  0  0  0  0  0  0  0  0  0  0  0
   18.0079  -24.9034    7.1561 O   0  0  0  0  0  0  0  0  0  0  0  0
   18.7937  -20.3877   11.6404 O   0  0  0  0  0  0  0  0  0  0  0  0
   19.7404  -24.2320    8.4421 N   0  0  0  0  0  0  0  0  0  0  0  0
   20.0597  -25.5775    8.8650 C   0  0  1  0  0  0  0  0  0  0  0  0
   21.2616  -25.6019    9.7952 C   0  0  0  0  0  0  0  0  0  0  0  0
   21.6338  -26.9739   10.2103 C   0  0  0  0  0  0  0  0  0  0  0  0
   23.0455  -27.3509    9.8862 C   0  0  0  0  0  0  0  0  0  0  0  0
   23.4849  -28.6992   10.3785 C   0  0  0  0  0  0  0  0  0  0  0  0
   24.8627  -28.9988   10.1854 N   0  0  0  0  0  0  0  0  0  0  0  0
   18.9097  -26.1955    9.5676 C   0  0  0  0  0  0  0  0  0  0  0  0
   18.5400  -27.5145    9.3640 O   0  0  0  0  0  0  0  0  0  0  0  0
   18.2370  -25.5140   10.3786 O   0  0  0  0  0  0  0  0  0  0  0  0
  2  1  1  6
  3  2  1  0
  4  3  1  0
  4  8  1  0
  5  6  1  0
  5  4  2  0
  6  7  1  0
  7  8  2  0
  9 10  2  0
  9  2  1  0
 11  9  1  0
 12 11  1  0
 12 13  1  1
 14 13  1  0
 15 14  1  0
 16 15  2  0
 17 12  1  0
 18 17  2  0
 19 15  1  0
 20 17  1  0
 21 27  1  0
 21 20  1  0
 21 22  1  1
 23 22  1  0
 24 23  1  0
 25 24  1  0
 26 25  1  0
 27 28  1  0
 29 27  2  0
M  END
$$$$
