HEK.pdb
     RDKit          3D

 29 29  0  0  1  0  0  0  0  0999 V2000
   21.6287  -13.0525  -19.2619 N   0  0  0  0  0  0  0  0  0  0  0  0
   21.3143  -11.7170  -19.6991 C   0  0  1  0  0  0  0  0  0  0  0  0
   20.5493  -11.8089  -20.9798 C   0  0  0  0  0  0  0  0  0  0  0  0
   21.4367  -12.3925  -22.0184 C   0  0  0  0  0  0  0  0  0  0  0  0
   21.2128  -13.4930  -22.8208 C   0  0  0  0  0  0  0  0  0  0  0  0
   22.2619  -13.7065  -23.6397 N   0  0  0  0  0  0  0  0  0  0  0  0
   23.1475  -12.7564  -23.3673 C   0  0  0  0  0  0  0  0  0  0  0  0
   22.6729  -11.9502  -22.3918 N   0  0  0  0  0  0  0  0  0  0  0  0
   20.6327  -10.9135  -18.6634 C   0  0  0  0  0  0  0  0  0  0  0  0
   19.4989  -11.2962  -18.2744 O   0  0  0  0  0  0  0  0  0  0  0  0
   21.1540   -9.7491  -18.0754 N   0  0  0  0  0  0  0  0  0  0  0  0
   20.4557   -8.9557  -17.0509 C   0  0  1  0  0  0  0  0  0  0  0  0
   21.1469   -9.0909  -15.7312 C   0  0  0  0  0  0  0  0  0  0  0  0
   20.4118   -8.3206  -14.6742 C   0  0  0  0  0  0  0  0  0  0  0  0
   21.0562   -8.5095  -13.3298 C   0  0  0  0  0  0  0  0  0  0  0  0
   22.0850   -9.2024  -13.1561 O   0  0  0  0  0  0  0  0  0  0  0  0
   20.2237   -7.5922  -17.5071 C   0  0  0  0  0  0  0  0  0  0  0  0
   21.1264   -6.8988  -18.0129 O   0  0  0  0  0  0  0  0  0  0  0  0
   20.4708   -7.8817  -12.2518 O   0  0  0  0  0  0  0  0  0  0  0  0
   18.9492   -6.9491  -17.4103 N   0  0  0  0  0  0  0  0  0  0  0  0
   18.7151   -5.5869  -17.8356 C   0  0  1  0  0  0  0  0  0  0  0  0
   17.2468   -5.2099  -17.7244 C   0  0  0  0  0  0  0  0  0  0  0  0
   16.9683   -3.8458  -18.2295 C   0  0  0  0  0  0  0  0  0  0  0  0
   15.5562   -3.3933  -18.0267 C   0  0  0  0  0  0  0  0  0  0  0  0
   15.2396   -2.0148  -18.5295 C   0  0  0  0  0  0  0  0  0  0  0  0
   13.8855   -1.6057  -18.3735 N   0  0  0  0  0  0  0  0  0  0  0  0
   19.5069   -4.6367  -17.0182 C   0  0  0  0  0  0  0  0  0  0  0  0
   19.7145   -4.8220  -15.6615 O   0  0  0  0  0  0  0  0  0  0  0  0
   20.0139   -3.6239  -17.5583 O   0  0  0  0  0  0  0  0  0  0  0  0
  2  1  1  1
  3  2  1  0
  4  3  1  0
  4  8  1  0
  5  6  1  0
  5  4  2  0
  6  7  1  0
  7  8  2  0
  9 10  2  0
  9  2  1  0
 11  9  1  0
 12 11  1  0
 12 13  1  1
 14 13  1  0
 15 14  1  0
 16 15  2  0
 17 12  1  0
 18 17  2  0
 19 15  1  0
 20 17  1  0
 21 27  1  0
 21 20  1  0
 21 22  1  1
 23 22  1  0
 24 23  1  0
 25 24  1  0
 26 25  1  0
 27 28  1  0
 29 27  2  0
M  END
$$$$
