HEK.pdb
     RDKit          3D

 29 29  0  0  1  0  0  0  0  0999 V2000
   26.6227  -10.9371  -19.8834 N   0  0  0  0  0  0  0  0  0  0  0  0
   26.3270  -10.0490  -18.7892 C   0  0  1  0  0  0  0  0  0  0  0  0
   27.3370   -8.9473  -18.7912 C   0  0  0  0  0  0  0  0  0  0  0  0
   28.6631   -9.5225  -18.4488 C   0  0  0  0  0  0  0  0  0  0  0  0
   28.9769  -10.8275  -18.1272 C   0  0  0  0  0  0  0  0  0  0  0  0
   30.2954  -10.9524  -17.8768 N   0  0  0  0  0  0  0  0  0  0  0  0
   30.8215   -9.7444  -18.0352 C   0  0  0  0  0  0  0  0  0  0  0  0
   29.8565   -8.8634  -18.3807 N   0  0  0  0  0  0  0  0  0  0  0  0
   24.9306   -9.5664  -18.7956 C   0  0  0  0  0  0  0  0  0  0  0  0
   24.4911   -9.0528  -19.8569 O   0  0  0  0  0  0  0  0  0  0  0  0
   24.0497   -9.6365  -17.7035 N   0  0  0  0  0  0  0  0  0  0  0  0
   22.6509   -9.1797  -17.7383 C   0  0  1  0  0  0  0  0  0  0  0  0
   21.7622  -10.1819  -17.0724 C   0  0  0  0  0  0  0  0  0  0  0  0
   21.3748  -11.2617  -18.0393 C   0  0  0  0  0  0  0  0  0  0  0  0
   20.4182  -12.2307  -17.4032 C   0  0  0  0  0  0  0  0  0  0  0  0
   20.7862  -13.1534  -16.6404 O   0  0  0  0  0  0  0  0  0  0  0  0
   22.5313   -7.8100  -17.2580 C   0  0  0  0  0  0  0  0  0  0  0  0
   23.1275   -7.4087  -16.2407 O   0  0  0  0  0  0  0  0  0  0  0  0
   19.0784  -12.0780  -17.6864 O   0  0  0  0  0  0  0  0  0  0  0  0
   21.7253   -6.8265  -17.9142 N   0  0  0  0  0  0  0  0  0  0  0  0
   21.5929   -5.4666  -17.4404 C   0  0  1  0  0  0  0  0  0  0  0  0
   20.9127   -4.5786  -18.4696 C   0  0  0  0  0  0  0  0  0  0  0  0
   20.8666   -3.1575  -18.0554 C   0  0  0  0  0  0  0  0  0  0  0  0
   20.0827   -2.2756  -18.9761 C   0  0  0  0  0  0  0  0  0  0  0  0
   20.0041   -0.8305  -18.5774 C   0  0  0  0  0  0  0  0  0  0  0  0
   19.2272   -0.0031  -19.4360 N   0  0  0  0  0  0  0  0  0  0  0  0
   20.8040   -5.4205  -16.1860 C   0  0  0  0  0  0  0  0  0  0  0  0
   21.1161   -4.5603  -15.1466 O   0  0  0  0  0  0  0  0  0  0  0  0
   19.8156   -6.1806  -16.0444 O   0  0  0  0  0  0  0  0  0  0  0  0
  2  1  1  6
  3  2  1  0
  4  3  1  0
  4  8  1  0
  5  6  1  0
  5  4  2  0
  6  7  1  0
  7  8  2  0
  9 10  2  0
  9  2  1  0
 11  9  1  0
 12 11  1  0
 12 13  1  1
 14 13  1  0
 15 14  1  0
 16 15  2  0
 17 12  1  0
 18 17  2  0
 19 15  1  0
 20 17  1  0
 21 27  1  0
 21 20  1  0
 21 22  1  6
 23 22  1  0
 24 23  1  0
 25 24  1  0
 26 25  1  0
 27 28  1  0
 29 27  2  0
M  END
$$$$
