KKF.pdb
     RDKit          3D

 30 30  0  0  1  0  0  0  0  0999 V2000
   22.8212  -18.9962  -12.3497 N   0  0  0  0  0  0  0  0  0  0  0  0
   22.6007  -20.3796  -12.7326 C   0  0  1  0  0  0  0  0  0  0  0  0
   21.9268  -20.4146  -14.0591 C   0  0  0  0  0  0  0  0  0  0  0  0
   22.0939  -19.1272  -14.8218 C   0  0  0  0  0  0  0  0  0  0  0  0
   21.2411  -18.0720  -14.1941 C   0  0  0  0  0  0  0  0  0  0  0  0
   20.1578  -17.5748  -15.1344 C   0  0  0  0  0  0  0  0  0  0  0  0
   19.3456  -16.5678  -14.4838 N   0  0  0  0  0  0  0  0  0  0  0  0
   23.9260  -21.0939  -12.7659 C   0  0  0  0  0  0  0  0  0  0  0  0
   23.9691  -22.3274  -13.0041 O   0  0  0  0  0  0  0  0  0  0  0  0
   25.1034  -20.3489  -12.5252 N   0  0  0  0  0  0  0  0  0  0  0  0
   26.4469  -20.9788  -12.4948 C   0  0  1  0  0  0  0  0  0  0  0  0
   27.3081  -20.2674  -13.4775 C   0  0  0  0  0  0  0  0  0  0  0  0
   27.9170  -21.0484  -14.5733 C   0  0  0  0  0  0  0  0  0  0  0  0
   28.6971  -20.2209  -15.5698 C   0  0  0  0  0  0  0  0  0  0  0  0
   29.3339  -21.1121  -16.6222 C   0  0  0  0  0  0  0  0  0  0  0  0
   28.2612  -21.9667  -17.1363 N   0  0  0  0  0  0  0  0  0  0  0  0
   26.9333  -20.9564  -11.0916 C   0  0  0  0  0  0  0  0  0  0  0  0
   28.1799  -20.7254  -10.8721 O   0  0  0  0  0  0  0  0  0  0  0  0
   26.1527  -21.1644   -9.9444 N   0  0  0  0  0  0  0  0  0  0  0  0
   26.6948  -21.0353   -8.5869 C   0  0  1  0  0  0  0  0  0  0  0  0
   27.4507  -19.7769   -8.3587 C   0  0  0  0  0  0  0  0  0  0  0  0
   27.9367  -19.6077   -6.9812 C   0  0  0  0  0  0  0  0  0  0  0  0
   27.5724  -18.5346   -6.1973 C   0  0  0  0  0  0  0  0  0  0  0  0
   28.0628  -18.4266   -4.9076 C   0  0  0  0  0  0  0  0  0  0  0  0
   28.9166  -19.3587   -4.3540 C   0  0  0  0  0  0  0  0  0  0  0  0
   29.2772  -20.4301   -5.1436 C   0  0  0  0  0  0  0  0  0  0  0  0
   28.7856  -20.5451   -6.4469 C   0  0  0  0  0  0  0  0  0  0  0  0
   25.5713  -21.1450   -7.6311 C   0  0  0  0  0  0  0  0  0  0  0  0
   24.4356  -20.7131   -7.9130 O   0  0  0  0  0  0  0  0  0  0  0  0
   25.7739  -21.7420   -6.3851 O   0  0  0  0  0  0  0  0  0  0  0  0
  2  1  1  6
  2  8  1  0
  3  2  1  0
  4  3  1  0
  4  5  1  0
  6  5  1  0
  6  7  1  0
  8  9  2  0
 10 11  1  0
 10  8  1  0
 11 17  1  0
 11 12  1  6
 13 12  1  0
 14 13  1  0
 15 14  1  0
 16 15  1  0
 17 18  2  0
 17 19  1  0
 19 20  1  0
 20 28  1  0
 20 21  1  6
 22 21  1  0
 23 22  2  0
 24 23  1  0
 25 26  1  0
 25 24  2  0
 26 27  2  0
 27 22  1  0
 28 29  2  0
 28 30  1  0
M  END
$$$$
