KKF.pdb
     RDKit          3D

 30 30  0  0  1  0  0  0  0  0999 V2000
   20.4763  -23.8030  -13.0530 N   0  0  0  0  0  0  0  0  0  0  0  0
   21.2225  -23.8786  -14.2965 C   0  0  1  0  0  0  0  0  0  0  0  0
   20.2932  -24.2491  -15.3984 C   0  0  0  0  0  0  0  0  0  0  0  0
   19.1336  -25.0798  -14.9163 C   0  0  0  0  0  0  0  0  0  0  0  0
   18.8062  -26.1097  -15.9491 C   0  0  0  0  0  0  0  0  0  0  0  0
   17.5534  -26.8937  -15.6012 C   0  0  0  0  0  0  0  0  0  0  0  0
   17.1913  -27.7784  -16.6889 N   0  0  0  0  0  0  0  0  0  0  0  0
   21.8817  -22.5490  -14.5518 C   0  0  0  0  0  0  0  0  0  0  0  0
   22.3795  -22.3006  -15.6791 O   0  0  0  0  0  0  0  0  0  0  0  0
   21.9244  -21.6015  -13.5031 N   0  0  0  0  0  0  0  0  0  0  0  0
   22.4620  -20.2316  -13.6949 C   0  0  1  0  0  0  0  0  0  0  0  0
   21.4110  -19.2650  -13.2771 C   0  0  0  0  0  0  0  0  0  0  0  0
   20.4398  -18.8019  -14.2890 C   0  0  0  0  0  0  0  0  0  0  0  0
   19.3953  -17.8458  -13.7588 C   0  0  0  0  0  0  0  0  0  0  0  0
   18.4208  -17.4564  -14.8570 C   0  0  0  0  0  0  0  0  0  0  0  0
   19.1847  -16.6529  -15.8142 N   0  0  0  0  0  0  0  0  0  0  0  0
   23.7453  -20.1335  -12.9534 C   0  0  0  0  0  0  0  0  0  0  0  0
   23.7387  -19.6325  -11.7683 O   0  0  0  0  0  0  0  0  0  0  0  0
   25.0023  -20.5442  -13.4220 N   0  0  0  0  0  0  0  0  0  0  0  0
   26.1843  -20.6120  -12.5549 C   0  0  1  0  0  0  0  0  0  0  0  0
   25.9996  -21.4650  -11.3527 C   0  0  0  0  0  0  0  0  0  0  0  0
   26.5692  -20.9001  -10.1203 C   0  0  0  0  0  0  0  0  0  0  0  0
   25.7995  -20.2394   -9.1876 C   0  0  0  0  0  0  0  0  0  0  0  0
   26.3909  -19.7265   -8.0462 C   0  0  0  0  0  0  0  0  0  0  0  0
   27.7413  -19.8453   -7.7883 C   0  0  0  0  0  0  0  0  0  0  0  0
   28.5058  -20.5075   -8.7256 C   0  0  0  0  0  0  0  0  0  0  0  0
   27.9149  -21.0278   -9.8804 C   0  0  0  0  0  0  0  0  0  0  0  0
   27.3216  -21.0990  -13.3656 C   0  0  0  0  0  0  0  0  0  0  0  0
   28.3809  -20.4465  -13.4546 O   0  0  0  0  0  0  0  0  0  0  0  0
   27.2192  -22.3122  -14.0495 O   0  0  0  0  0  0  0  0  0  0  0  0
  2  1  1  1
  2  8  1  0
  3  2  1  0
  4  3  1  0
  4  5  1  0
  6  5  1  0
  6  7  1  0
  8  9  2  0
 10 11  1  0
 10  8  1  0
 11 17  1  0
 11 12  1  1
 13 12  1  0
 14 13  1  0
 15 14  1  0
 16 15  1  0
 17 18  2  0
 17 19  1  0
 19 20  1  0
 20 28  1  0
 20 21  1  1
 22 21  1  0
 23 22  2  0
 24 23  1  0
 25 26  1  0
 25 24  2  0
 26 27  2  0
 27 22  1  0
 28 29  2  0
 28 30  1  0
M  END
$$$$
