KKF.pdb
     RDKit          3D

 30 30  0  0  1  0  0  0  0  0999 V2000
   24.3331  -18.1300  -14.1439 N   0  0  0  0  0  0  0  0  0  0  0  0
   23.3583  -18.9873  -13.4931 C   0  0  1  0  0  0  0  0  0  0  0  0
   22.3003  -19.3515  -14.4745 C   0  0  0  0  0  0  0  0  0  0  0  0
   21.8644  -18.1775  -15.3105 C   0  0  0  0  0  0  0  0  0  0  0  0
   20.7043  -17.5078  -14.6470 C   0  0  0  0  0  0  0  0  0  0  0  0
   19.7956  -16.8120  -15.6445 C   0  0  0  0  0  0  0  0  0  0  0  0
   18.7046  -16.1502  -14.9598 N   0  0  0  0  0  0  0  0  0  0  0  0
   24.0609  -20.2072  -12.9584 C   0  0  0  0  0  0  0  0  0  0  0  0
   23.3914  -21.1924  -12.5566 O   0  0  0  0  0  0  0  0  0  0  0  0
   25.4744  -20.2132  -12.9215 N   0  0  0  0  0  0  0  0  0  0  0  0
   26.2474  -21.3524  -12.3672 C   0  0  1  0  0  0  0  0  0  0  0  0
   27.3868  -21.6219  -13.2851 C   0  0  0  0  0  0  0  0  0  0  0  0
   27.0907  -22.0886  -14.6548 C   0  0  0  0  0  0  0  0  0  0  0  0
   28.3090  -22.2483  -15.5359 C   0  0  0  0  0  0  0  0  0  0  0  0
   27.8992  -22.5966  -16.9565 C   0  0  0  0  0  0  0  0  0  0  0  0
   29.1307  -22.5904  -17.7494 N   0  0  0  0  0  0  0  0  0  0  0  0
   26.6236  -21.0162  -10.9702 C   0  0  0  0  0  0  0  0  0  0  0  0
   27.5822  -20.1813  -10.7712 O   0  0  0  0  0  0  0  0  0  0  0  0
   26.0242  -21.5264   -9.8088 N   0  0  0  0  0  0  0  0  0  0  0  0
   26.5040  -21.1951   -8.4622 C   0  0  1  0  0  0  0  0  0  0  0  0
   27.2002  -19.8854   -8.3776 C   0  0  0  0  0  0  0  0  0  0  0  0
   27.7517  -19.5815   -7.0488 C   0  0  0  0  0  0  0  0  0  0  0  0
   28.4911  -20.4959   -6.3304 C   0  0  0  0  0  0  0  0  0  0  0  0
   28.9838  -20.1546   -5.0829 C   0  0  0  0  0  0  0  0  0  0  0  0
   28.7682  -18.9184   -4.5087 C   0  0  0  0  0  0  0  0  0  0  0  0
   28.0277  -18.0080   -5.2327 C   0  0  0  0  0  0  0  0  0  0  0  0
   27.5271  -18.3463   -6.4931 C   0  0  0  0  0  0  0  0  0  0  0  0
   25.3469  -21.2268   -7.5413 C   0  0  0  0  0  0  0  0  0  0  0  0
   24.1759  -21.2279   -7.9712 O   0  0  0  0  0  0  0  0  0  0  0  0
   25.5570  -21.2562   -6.1611 O   0  0  0  0  0  0  0  0  0  0  0  0
  2  1  1  6
  2  8  1  0
  3  2  1  0
  4  3  1  0
  4  5  1  0
  6  5  1  0
  6  7  1  0
  8  9  2  0
 10 11  1  0
 10  8  1  0
 11 17  1  0
 11 12  1  6
 13 12  1  0
 14 13  1  0
 15 14  1  0
 16 15  1  0
 17 18  2  0
 17 19  1  0
 19 20  1  0
 20 28  1  0
 20 21  1  6
 22 21  1  0
 23 22  2  0
 24 23  1  0
 25 26  1  0
 25 24  2  0
 26 27  2  0
 27 22  1  0
 28 29  2  0
 28 30  1  0
M  END
$$$$
