KKF.pdb
     RDKit          3D

 30 30  0  0  1  0  0  0  0  0999 V2000
   24.8168  -17.7093  -15.4988 N   0  0  0  0  0  0  0  0  0  0  0  0
   25.9396  -18.1220  -14.6755 C   0  0  1  0  0  0  0  0  0  0  0  0
   26.7309  -16.9199  -14.2959 C   0  0  0  0  0  0  0  0  0  0  0  0
   27.2203  -16.1529  -15.4955 C   0  0  0  0  0  0  0  0  0  0  0  0
   28.1251  -17.0288  -16.3010 C   0  0  0  0  0  0  0  0  0  0  0  0
   28.7316  -16.2948  -17.4835 C   0  0  0  0  0  0  0  0  0  0  0  0
   29.4847  -17.2100  -18.3155 N   0  0  0  0  0  0  0  0  0  0  0  0
   25.4158  -18.8455  -13.4631 C   0  0  0  0  0  0  0  0  0  0  0  0
   24.4308  -18.3842  -12.8329 O   0  0  0  0  0  0  0  0  0  0  0  0
   26.0540  -20.0409  -13.0593 N   0  0  0  0  0  0  0  0  0  0  0  0
   25.5557  -20.8615  -11.9275 C   0  0  1  0  0  0  0  0  0  0  0  0
   25.6018  -22.2894  -12.3426 C   0  0  0  0  0  0  0  0  0  0  0  0
   24.6608  -22.7494  -13.3839 C   0  0  0  0  0  0  0  0  0  0  0  0
   24.6795  -24.2419  -13.6257 C   0  0  0  0  0  0  0  0  0  0  0  0
   23.7921  -24.6035  -14.8042 C   0  0  0  0  0  0  0  0  0  0  0  0
   23.8970  -26.0558  -14.9632 N   0  0  0  0  0  0  0  0  0  0  0  0
   26.3603  -20.5236  -10.7256 C   0  0  0  0  0  0  0  0  0  0  0  0
   27.6342  -20.3927  -10.8502 O   0  0  0  0  0  0  0  0  0  0  0  0
   25.8625  -20.3234   -9.4292 N   0  0  0  0  0  0  0  0  0  0  0  0
   26.6773  -20.5420   -8.2284 C   0  0  1  0  0  0  0  0  0  0  0  0
   27.4607  -19.3515   -7.8089 C   0  0  0  0  0  0  0  0  0  0  0  0
   28.1460  -19.5063   -6.5171 C   0  0  0  0  0  0  0  0  0  0  0  0
   27.7596  -18.8144   -5.3898 C   0  0  0  0  0  0  0  0  0  0  0  0
   28.4435  -18.9991   -4.2008 C   0  0  0  0  0  0  0  0  0  0  0  0
   29.5161  -19.8594   -4.0834 C   0  0  0  0  0  0  0  0  0  0  0  0
   29.8976  -20.5487   -5.2151 C   0  0  0  0  0  0  0  0  0  0  0  0
   29.2112  -20.3668   -6.4190 C   0  0  0  0  0  0  0  0  0  0  0  0
   25.7800  -20.9819   -7.1380 C   0  0  0  0  0  0  0  0  0  0  0  0
   24.5467  -20.8067   -7.2026 O   0  0  0  0  0  0  0  0  0  0  0  0
   26.3126  -21.6070   -6.0085 O   0  0  0  0  0  0  0  0  0  0  0  0
  2  1  1  6
  2  8  1  0
  3  2  1  0
  4  3  1  0
  4  5  1  0
  6  5  1  0
  6  7  1  0
  8  9  2  0
 10 11  1  0
 10  8  1  0
 11 17  1  0
 11 12  1  6
 13 12  1  0
 14 13  1  0
 15 14  1  0
 16 15  1  0
 17 18  2  0
 17 19  1  0
 19 20  1  0
 20 28  1  0
 20 21  1  1
 22 21  1  0
 23 22  2  0
 24 23  1  0
 25 26  1  0
 25 24  2  0
 26 27  2  0
 27 22  1  0
 28 29  2  0
 28 30  1  0
M  END
$$$$
