KKF.pdb
     RDKit          3D

 30 30  0  0  1  0  0  0  0  0999 V2000
   25.3134  -24.8007  -15.1358 N   0  0  0  0  0  0  0  0  0  0  0  0
   26.6818  -24.3517  -15.3227 C   0  0  1  0  0  0  0  0  0  0  0  0
   26.9644  -24.2498  -16.7804 C   0  0  0  0  0  0  0  0  0  0  0  0
   28.1214  -25.1160  -17.2025 C   0  0  0  0  0  0  0  0  0  0  0  0
   27.7548  -26.5520  -17.0073 C   0  0  0  0  0  0  0  0  0  0  0  0
   28.8766  -27.4912  -17.4128 C   0  0  0  0  0  0  0  0  0  0  0  0
   28.6020  -28.8364  -16.9524 N   0  0  0  0  0  0  0  0  0  0  0  0
   26.8594  -23.0263  -14.6303 C   0  0  0  0  0  0  0  0  0  0  0  0
   27.9664  -22.4331  -14.6834 O   0  0  0  0  0  0  0  0  0  0  0  0
   25.7619  -22.4758  -13.9290 N   0  0  0  0  0  0  0  0  0  0  0  0
   25.7802  -21.0939  -13.3884 C   0  0  1  0  0  0  0  0  0  0  0  0
   24.5451  -20.4053  -13.8507 C   0  0  0  0  0  0  0  0  0  0  0  0
   24.2973  -19.0233  -13.3922 C   0  0  0  0  0  0  0  0  0  0  0  0
   23.0580  -18.3850  -13.9778 C   0  0  0  0  0  0  0  0  0  0  0  0
   22.8868  -16.9699  -13.4529 C   0  0  0  0  0  0  0  0  0  0  0  0
   21.5877  -16.5065  -13.9457 N   0  0  0  0  0  0  0  0  0  0  0  0
   25.9455  -21.1790  -11.9147 C   0  0  0  0  0  0  0  0  0  0  0  0
   25.3024  -22.0888  -11.2712 O   0  0  0  0  0  0  0  0  0  0  0  0
   26.7558  -20.3483  -11.1261 N   0  0  0  0  0  0  0  0  0  0  0  0
   26.9156  -20.5435   -9.6805 C   0  0  1  0  0  0  0  0  0  0  0  0
   28.0504  -19.7855   -9.0935 C   0  0  0  0  0  0  0  0  0  0  0  0
   28.0870  -19.7985   -7.6235 C   0  0  0  0  0  0  0  0  0  0  0  0
   27.4055  -18.8751   -6.8607 C   0  0  0  0  0  0  0  0  0  0  0  0
   27.4782  -18.9352   -5.4799 C   0  0  0  0  0  0  0  0  0  0  0  0
   28.2140  -19.8933   -4.8129 C   0  0  0  0  0  0  0  0  0  0  0  0
   28.8935  -20.8142   -5.5820 C   0  0  0  0  0  0  0  0  0  0  0  0
   28.8244  -20.7592   -6.9769 C   0  0  0  0  0  0  0  0  0  0  0  0
   25.6455  -20.1664   -9.0227 C   0  0  0  0  0  0  0  0  0  0  0  0
   25.0134  -19.1483   -9.3689 O   0  0  0  0  0  0  0  0  0  0  0  0
   25.1340  -20.9580   -7.9923 O   0  0  0  0  0  0  0  0  0  0  0  0
  2  1  1  6
  2  8  1  0
  3  2  1  0
  4  3  1  0
  4  5  1  0
  6  5  1  0
  6  7  1  0
  8  9  2  0
 10 11  1  0
 10  8  1  0
 11 17  1  0
 11 12  1  1
 13 12  1  0
 14 13  1  0
 15 14  1  0
 16 15  1  0
 17 18  2  0
 17 19  1  0
 19 20  1  0
 20 28  1  0
 20 21  1  1
 22 21  1  0
 23 22  2  0
 24 23  1  0
 25 26  1  0
 25 24  2  0
 26 27  2  0
 27 22  1  0
 28 29  2  0
 28 30  1  0
M  END
$$$$
