KKF.pdb
     RDKit          3D

 30 30  0  0  1  0  0  0  0  0999 V2000
   23.2307  -18.5364  -12.6734 N   0  0  0  0  0  0  0  0  0  0  0  0
   22.8071  -19.9213  -12.5666 C   0  0  1  0  0  0  0  0  0  0  0  0
   21.8934  -20.2380  -13.6980 C   0  0  0  0  0  0  0  0  0  0  0  0
   20.9986  -19.0807  -14.0542 C   0  0  0  0  0  0  0  0  0  0  0  0
   19.6098  -19.5863  -14.2780 C   0  0  0  0  0  0  0  0  0  0  0  0
   18.6543  -18.4791  -14.6855 C   0  0  0  0  0  0  0  0  0  0  0  0
   17.3153  -19.0032  -14.8567 N   0  0  0  0  0  0  0  0  0  0  0  0
   24.0254  -20.8064  -12.5745 C   0  0  0  0  0  0  0  0  0  0  0  0
   23.8940  -22.0565  -12.5620 O   0  0  0  0  0  0  0  0  0  0  0  0
   25.3028  -20.2005  -12.5960 N   0  0  0  0  0  0  0  0  0  0  0  0
   26.5564  -20.9946  -12.5776 C   0  0  1  0  0  0  0  0  0  0  0  0
   27.5809  -20.2504  -13.3587 C   0  0  0  0  0  0  0  0  0  0  0  0
   28.8961  -20.8858  -13.5778 C   0  0  0  0  0  0  0  0  0  0  0  0
   28.9980  -21.6820  -14.8592 C   0  0  0  0  0  0  0  0  0  0  0  0
   30.4042  -22.2277  -15.0389 C   0  0  0  0  0  0  0  0  0  0  0  0
   30.3587  -23.0906  -16.2215 N   0  0  0  0  0  0  0  0  0  0  0  0
   26.9101  -21.2624  -11.1601 C   0  0  0  0  0  0  0  0  0  0  0  0
   28.1242  -21.5777  -10.8739 O   0  0  0  0  0  0  0  0  0  0  0  0
   26.0338  -21.2036  -10.0660 N   0  0  0  0  0  0  0  0  0  0  0  0
   26.5068  -21.1590   -8.6775 C   0  0  1  0  0  0  0  0  0  0  0  0
   27.4807  -20.0698   -8.4091 C   0  0  0  0  0  0  0  0  0  0  0  0
   27.9036  -19.9730   -7.0040 C   0  0  0  0  0  0  0  0  0  0  0  0
   29.1614  -19.5435   -6.6404 C   0  0  0  0  0  0  0  0  0  0  0  0
   29.5046  -19.4741   -5.3014 C   0  0  0  0  0  0  0  0  0  0  0  0
   28.6328  -19.8205   -4.2893 C   0  0  0  0  0  0  0  0  0  0  0  0
   27.3758  -20.2494   -4.6599 C   0  0  0  0  0  0  0  0  0  0  0  0
   27.0228  -20.3218   -6.0103 C   0  0  0  0  0  0  0  0  0  0  0  0
   25.3275  -21.0284   -7.7943 C   0  0  0  0  0  0  0  0  0  0  0  0
   25.3292  -21.4941   -6.6372 O   0  0  0  0  0  0  0  0  0  0  0  0
   24.1835  -20.3726   -8.2540 O   0  0  0  0  0  0  0  0  0  0  0  0
  2  1  1  6
  2  8  1  0
  3  2  1  0
  4  3  1  0
  4  5  1  0
  6  5  1  0
  6  7  1  0
  8  9  2  0
 10 11  1  0
 10  8  1  0
 11 17  1  0
 11 12  1  1
 13 12  1  0
 14 13  1  0
 15 14  1  0
 16 15  1  0
 17 18  2  0
 17 19  1  0
 19 20  1  0
 20 28  1  0
 20 21  1  6
 22 21  1  0
 23 22  2  0
 24 23  1  0
 25 26  1  0
 25 24  2  0
 26 27  2  0
 27 22  1  0
 28 29  2  0
 28 30  1  0
M  END
$$$$
