KKF.pdb
     RDKit          3D

 30 30  0  0  1  0  0  0  0  0999 V2000
   23.9479  -18.0492  -13.9353 N   0  0  0  0  0  0  0  0  0  0  0  0
   23.0864  -19.2097  -13.7947 C   0  0  1  0  0  0  0  0  0  0  0  0
   22.4451  -19.4999  -15.1060 C   0  0  0  0  0  0  0  0  0  0  0  0
   21.6834  -18.3187  -15.6462 C   0  0  0  0  0  0  0  0  0  0  0  0
   22.6013  -17.4841  -16.4801 C   0  0  0  0  0  0  0  0  0  0  0  0
   21.8856  -16.3076  -17.1195 C   0  0  0  0  0  0  0  0  0  0  0  0
   22.8259  -15.4721  -17.8370 N   0  0  0  0  0  0  0  0  0  0  0  0
   23.9105  -20.3739  -13.3118 C   0  0  0  0  0  0  0  0  0  0  0  0
   23.3751  -21.5002  -13.1538 O   0  0  0  0  0  0  0  0  0  0  0  0
   25.2837  -20.1674  -13.0451 N   0  0  0  0  0  0  0  0  0  0  0  0
   26.1900  -21.2758  -12.6543 C   0  0  1  0  0  0  0  0  0  0  0  0
   27.2782  -21.3552  -13.6656 C   0  0  0  0  0  0  0  0  0  0  0  0
   27.0086  -22.0619  -14.9342 C   0  0  0  0  0  0  0  0  0  0  0  0
   28.1464  -22.0134  -15.9288 C   0  0  0  0  0  0  0  0  0  0  0  0
   27.7709  -22.7443  -17.2064 C   0  0  0  0  0  0  0  0  0  0  0  0
   28.9445  -22.6685  -18.0796 N   0  0  0  0  0  0  0  0  0  0  0  0
   26.6370  -21.0336  -11.2587 C   0  0  0  0  0  0  0  0  0  0  0  0
   27.8349  -20.6093  -11.0571 O   0  0  0  0  0  0  0  0  0  0  0  0
   25.8667  -21.2219  -10.1013 N   0  0  0  0  0  0  0  0  0  0  0  0
   26.4360  -21.1353   -8.7515 C   0  0  1  0  0  0  0  0  0  0  0  0
   27.2430  -19.9102   -8.5171 C   0  0  0  0  0  0  0  0  0  0  0  0
   27.7466  -19.7748   -7.1422 C   0  0  0  0  0  0  0  0  0  0  0  0
   28.6977  -20.6232   -6.6184 C   0  0  0  0  0  0  0  0  0  0  0  0
   29.1332  -20.4488   -5.3163 C   0  0  0  0  0  0  0  0  0  0  0  0
   28.6535  -19.4470   -4.4974 C   0  0  0  0  0  0  0  0  0  0  0  0
   27.7020  -18.6015   -5.0276 C   0  0  0  0  0  0  0  0  0  0  0  0
   27.2578  -18.7721   -6.3419 C   0  0  0  0  0  0  0  0  0  0  0  0
   25.3254  -21.2179   -7.7781 C   0  0  0  0  0  0  0  0  0  0  0  0
   24.2106  -20.7143   -8.0219 O   0  0  0  0  0  0  0  0  0  0  0  0
   25.5168  -21.8702   -6.5583 O   0  0  0  0  0  0  0  0  0  0  0  0
  2  1  1  6
  2  8  1  0
  3  2  1  0
  4  3  1  0
  4  5  1  0
  6  5  1  0
  6  7  1  0
  8  9  2  0
 10 11  1  0
 10  8  1  0
 11 17  1  0
 11 12  1  6
 13 12  1  0
 14 13  1  0
 15 14  1  0
 16 15  1  0
 17 18  2  0
 17 19  1  0
 19 20  1  0
 20 28  1  0
 20 21  1  6
 22 21  1  0
 23 22  2  0
 24 23  1  0
 25 26  1  0
 25 24  2  0
 26 27  2  0
 27 22  1  0
 28 29  2  0
 28 30  1  0
M  END
$$$$
