KKF.pdb
     RDKit          3D

 30 30  0  0  1  0  0  0  0  0999 V2000
   23.1553   -2.1442  -20.9507 N   0  0  0  0  0  0  0  0  0  0  0  0
   23.0485   -3.5908  -21.0194 C   0  0  1  0  0  0  0  0  0  0  0  0
   24.2246   -4.1300  -21.7551 C   0  0  0  0  0  0  0  0  0  0  0  0
   25.1811   -3.0477  -22.1800 C   0  0  0  0  0  0  0  0  0  0  0  0
   26.3381   -3.6693  -22.8938 C   0  0  0  0  0  0  0  0  0  0  0  0
   27.3756   -2.6417  -23.3095 C   0  0  0  0  0  0  0  0  0  0  0  0
   28.4149   -3.2639  -24.1030 N   0  0  0  0  0  0  0  0  0  0  0  0
   22.9709   -4.1415  -19.6200 C   0  0  0  0  0  0  0  0  0  0  0  0
   23.4685   -3.4967  -18.6625 O   0  0  0  0  0  0  0  0  0  0  0  0
   22.3317   -5.3863  -19.4162 N   0  0  0  0  0  0  0  0  0  0  0  0
   22.1379   -5.9649  -18.0634 C   0  0  1  0  0  0  0  0  0  0  0  0
   20.6886   -6.2549  -17.8932 C   0  0  0  0  0  0  0  0  0  0  0  0
   20.2473   -6.9282  -16.6549 C   0  0  0  0  0  0  0  0  0  0  0  0
   18.7527   -7.1347  -16.5563 C   0  0  0  0  0  0  0  0  0  0  0  0
   18.3884   -7.7785  -15.2296 C   0  0  0  0  0  0  0  0  0  0  0  0
   16.9291   -7.9033  -15.2239 N   0  0  0  0  0  0  0  0  0  0  0  0
   23.0395   -7.1379  -17.9318 C   0  0  0  0  0  0  0  0  0  0  0  0
   23.0683   -8.0062  -18.8809 O   0  0  0  0  0  0  0  0  0  0  0  0
   23.8913   -7.4064  -16.8498 N   0  0  0  0  0  0  0  0  0  0  0  0
   24.7266   -8.6112  -16.7828 C   0  0  1  0  0  0  0  0  0  0  0  0
   25.8938   -8.4834  -15.8727 C   0  0  0  0  0  0  0  0  0  0  0  0
   26.7098   -9.7020  -15.7653 C   0  0  0  0  0  0  0  0  0  0  0  0
   26.4992  -10.6464  -14.7842 C   0  0  0  0  0  0  0  0  0  0  0  0
   27.3003  -11.7738  -14.7309 C   0  0  0  0  0  0  0  0  0  0  0  0
   28.3215  -12.0061  -15.6295 C   0  0  0  0  0  0  0  0  0  0  0  0
   28.5269  -11.0572  -16.6088 C   0  0  0  0  0  0  0  0  0  0  0  0
   27.7216   -9.9164  -16.6682 C   0  0  0  0  0  0  0  0  0  0  0  0
   23.8686   -9.7427  -16.3689 C   0  0  0  0  0  0  0  0  0  0  0  0
   23.0528   -9.6291  -15.4322 O   0  0  0  0  0  0  0  0  0  0  0  0
   23.9649  -10.9676  -17.0324 O   0  0  0  0  0  0  0  0  0  0  0  0
  2  1  1  1
  2  8  1  0
  3  2  1  0
  4  3  1  0
  4  5  1  0
  6  5  1  0
  6  7  1  0
  8  9  2  0
 10 11  1  0
 10  8  1  0
 11 17  1  0
 11 12  1  6
 13 12  1  0
 14 13  1  0
 15 14  1  0
 16 15  1  0
 17 18  2  0
 17 19  1  0
 19 20  1  0
 20 28  1  0
 20 21  1  1
 22 21  1  0
 23 22  2  0
 24 23  1  0
 25 26  1  0
 25 24  2  0
 26 27  2  0
 27 22  1  0
 28 29  2  0
 28 30  1  0
M  END
$$$$
