KKF.pdb
     RDKit          3D

 30 30  0  0  1  0  0  0  0  0999 V2000
   18.8978  -20.1126  -12.2764 N   0  0  0  0  0  0  0  0  0  0  0  0
   19.3488  -21.4316  -12.6834 C   0  0  1  0  0  0  0  0  0  0  0  0
   18.1821  -22.2126  -13.1773 C   0  0  0  0  0  0  0  0  0  0  0  0
   17.4797  -22.9558  -12.0721 C   0  0  0  0  0  0  0  0  0  0  0  0
   16.3795  -23.7804  -12.6588 C   0  0  0  0  0  0  0  0  0  0  0  0
   16.8418  -25.1805  -13.0208 C   0  0  0  0  0  0  0  0  0  0  0  0
   15.7270  -25.9761  -13.4910 N   0  0  0  0  0  0  0  0  0  0  0  0
   20.4038  -21.2800  -13.7471 C   0  0  0  0  0  0  0  0  0  0  0  0
   20.9229  -22.2999  -14.2673 O   0  0  0  0  0  0  0  0  0  0  0  0
   20.7886  -19.9769  -14.1388 N   0  0  0  0  0  0  0  0  0  0  0  0
   21.8649  -19.7337  -15.1312 C   0  0  1  0  0  0  0  0  0  0  0  0
   21.7467  -18.3262  -15.5986 C   0  0  0  0  0  0  0  0  0  0  0  0
   22.7226  -17.8306  -16.5904 C   0  0  0  0  0  0  0  0  0  0  0  0
   22.5334  -16.3822  -16.9812 C   0  0  0  0  0  0  0  0  0  0  0  0
   23.5452  -15.9777  -18.0394 C   0  0  0  0  0  0  0  0  0  0  0  0
   23.3267  -14.5509  -18.2883 N   0  0  0  0  0  0  0  0  0  0  0  0
   23.1618  -20.0853  -14.4983 C   0  0  0  0  0  0  0  0  0  0  0  0
   23.3935  -19.6848  -13.2977 O   0  0  0  0  0  0  0  0  0  0  0  0
   24.1918  -20.8334  -15.0883 N   0  0  0  0  0  0  0  0  0  0  0  0
   25.3408  -21.3338  -14.3249 C   0  0  1  0  0  0  0  0  0  0  0  0
   24.9683  -22.2008  -13.1775 C   0  0  0  0  0  0  0  0  0  0  0  0
   24.7986  -21.4791  -11.9076 C   0  0  0  0  0  0  0  0  0  0  0  0
   25.8698  -21.0482  -11.1555 C   0  0  0  0  0  0  0  0  0  0  0  0
   25.6494  -20.3747   -9.9666 C   0  0  0  0  0  0  0  0  0  0  0  0
   24.3843  -20.1065   -9.4849 C   0  0  0  0  0  0  0  0  0  0  0  0
   23.3168  -20.5404  -10.2423 C   0  0  0  0  0  0  0  0  0  0  0  0
   23.5324  -21.2211  -11.4438 C   0  0  0  0  0  0  0  0  0  0  0  0
   26.2298  -22.0615  -15.2566 C   0  0  0  0  0  0  0  0  0  0  0  0
   27.2995  -22.5713  -14.8671 O   0  0  0  0  0  0  0  0  0  0  0  0
   25.8751  -22.1868  -16.6014 O   0  0  0  0  0  0  0  0  0  0  0  0
  2  1  1  6
  2  8  1  0
  3  2  1  0
  4  3  1  0
  4  5  1  0
  6  5  1  0
  6  7  1  0
  8  9  2  0
 10 11  1  0
 10  8  1  0
 11 17  1  0
 11 12  1  1
 13 12  1  0
 14 13  1  0
 15 14  1  0
 16 15  1  0
 17 18  2  0
 17 19  1  0
 19 20  1  0
 20 28  1  0
 20 21  1  1
 22 21  1  0
 23 22  2  0
 24 23  1  0
 25 26  1  0
 25 24  2  0
 26 27  2  0
 27 22  1  0
 28 29  2  0
 28 30  1  0
M  END
$$$$
