KKF.pdb
     RDKit          3D

 30 30  0  0  1  0  0  0  0  0999 V2000
   27.5288  -22.5327  -18.5535 N   0  0  0  0  0  0  0  0  0  0  0  0
   27.3481  -21.3818  -17.6865 C   0  0  1  0  0  0  0  0  0  0  0  0
   26.8868  -20.2264  -18.5035 C   0  0  0  0  0  0  0  0  0  0  0  0
   27.9281  -19.7691  -19.4901 C   0  0  0  0  0  0  0  0  0  0  0  0
   29.2809  -19.8897  -18.8656 C   0  0  0  0  0  0  0  0  0  0  0  0
   30.3734  -19.3089  -19.7454 C   0  0  0  0  0  0  0  0  0  0  0  0
   31.6664  -19.4543  -19.1097 N   0  0  0  0  0  0  0  0  0  0  0  0
   26.3535  -21.7319  -16.6115 C   0  0  0  0  0  0  0  0  0  0  0  0
   25.3694  -22.4663  -16.8809 O   0  0  0  0  0  0  0  0  0  0  0  0
   26.5546  -21.2188  -15.3093 N   0  0  0  0  0  0  0  0  0  0  0  0
   25.5757  -21.4315  -14.2143 C   0  0  1  0  0  0  0  0  0  0  0  0
   26.2349  -21.0614  -12.9330 C   0  0  0  0  0  0  0  0  0  0  0  0
   25.4218  -21.0566  -11.7000 C   0  0  0  0  0  0  0  0  0  0  0  0
   26.1464  -20.5401  -10.4775 C   0  0  0  0  0  0  0  0  0  0  0  0
   25.2180  -20.5185   -9.2754 C   0  0  0  0  0  0  0  0  0  0  0  0
   26.0113  -20.0046   -8.1565 N   0  0  0  0  0  0  0  0  0  0  0  0
   24.3470  -20.6636  -14.5408 C   0  0  0  0  0  0  0  0  0  0  0  0
   24.4683  -19.4959  -15.0673 O   0  0  0  0  0  0  0  0  0  0  0  0
   23.0271  -21.0910  -14.3316 N   0  0  0  0  0  0  0  0  0  0  0  0
   21.8650  -20.2870  -14.7274 C   0  0  1  0  0  0  0  0  0  0  0  0
   21.7957  -20.0076  -16.1848 C   0  0  0  0  0  0  0  0  0  0  0  0
   20.6008  -19.2567  -16.5979 C   0  0  0  0  0  0  0  0  0  0  0  0
   20.6148  -17.8909  -16.7807 C   0  0  0  0  0  0  0  0  0  0  0  0
   19.4585  -17.2367  -17.1687 C   0  0  0  0  0  0  0  0  0  0  0  0
   18.2660  -17.8960  -17.3866 C   0  0  0  0  0  0  0  0  0  0  0  0
   18.2588  -19.2625  -17.2018 C   0  0  0  0  0  0  0  0  0  0  0  0
   19.4230  -19.9294  -16.8101 C   0  0  0  0  0  0  0  0  0  0  0  0
   20.6444  -20.9903  -14.2764 C   0  0  0  0  0  0  0  0  0  0  0  0
   20.5564  -22.2335  -14.3268 O   0  0  0  0  0  0  0  0  0  0  0  0
   19.5625  -20.2586  -13.7825 O   0  0  0  0  0  0  0  0  0  0  0  0
  2  1  1  6
  2  8  1  0
  3  2  1  0
  4  3  1  0
  4  5  1  0
  6  5  1  0
  6  7  1  0
  8  9  2  0
 10 11  1  0
 10  8  1  0
 11 17  1  0
 11 12  1  1
 13 12  1  0
 14 13  1  0
 15 14  1  0
 16 15  1  0
 17 18  2  0
 17 19  1  0
 19 20  1  0
 20 28  1  0
 20 21  1  6
 22 21  1  0
 23 22  2  0
 24 23  1  0
 25 26  1  0
 25 24  2  0
 26 27  2  0
 27 22  1  0
 28 29  2  0
 28 30  1  0
M  END
$$$$
