KKF.pdb
     RDKit          3D

 30 30  0  0  1  0  0  0  0  0999 V2000
   28.4149  -20.3116  -17.5531 N   0  0  0  0  0  0  0  0  0  0  0  0
   27.4358  -19.2746  -17.2798 C   0  0  1  0  0  0  0  0  0  0  0  0
   27.2103  -18.4813  -18.5187 C   0  0  0  0  0  0  0  0  0  0  0  0
   28.4977  -18.1165  -19.2089 C   0  0  0  0  0  0  0  0  0  0  0  0
   28.6143  -16.6275  -19.2726 C   0  0  0  0  0  0  0  0  0  0  0  0
   29.8897  -16.1805  -19.9642 C   0  0  0  0  0  0  0  0  0  0  0  0
   30.0034  -14.7372  -19.9333 N   0  0  0  0  0  0  0  0  0  0  0  0
   26.1639  -19.9194  -16.7961 C   0  0  0  0  0  0  0  0  0  0  0  0
   25.1469  -19.2145  -16.5743 O   0  0  0  0  0  0  0  0  0  0  0  0
   26.1459  -21.3198  -16.6012 N   0  0  0  0  0  0  0  0  0  0  0  0
   24.9970  -22.0170  -15.9715 C   0  0  1  0  0  0  0  0  0  0  0  0
   25.0765  -23.4559  -16.3414 C   0  0  0  0  0  0  0  0  0  0  0  0
   24.0154  -24.3645  -15.8619 C   0  0  0  0  0  0  0  0  0  0  0  0
   24.2021  -25.8094  -16.2666 C   0  0  0  0  0  0  0  0  0  0  0  0
   23.0649  -26.6645  -15.7347 C   0  0  0  0  0  0  0  0  0  0  0  0
   23.3893  -28.0460  -16.0975 N   0  0  0  0  0  0  0  0  0  0  0  0
   25.0304  -21.7337  -14.5138 C   0  0  0  0  0  0  0  0  0  0  0  0
   25.8752  -22.3677  -13.7791 O   0  0  0  0  0  0  0  0  0  0  0  0
   24.2146  -20.8178  -13.8326 N   0  0  0  0  0  0  0  0  0  0  0  0
   24.1606  -20.7463  -12.3678 C   0  0  1  0  0  0  0  0  0  0  0  0
   25.0573  -19.7163  -11.7829 C   0  0  0  0  0  0  0  0  0  0  0  0
   26.4782  -20.0948  -11.7655 C   0  0  0  0  0  0  0  0  0  0  0  0
   27.0168  -20.8925  -10.7794 C   0  0  0  0  0  0  0  0  0  0  0  0
   28.3623  -21.2149  -10.8135 C   0  0  0  0  0  0  0  0  0  0  0  0
   29.2111  -20.7688  -11.8059 C   0  0  0  0  0  0  0  0  0  0  0  0
   28.6659  -19.9709  -12.7896 C   0  0  0  0  0  0  0  0  0  0  0  0
   27.3078  -19.6416  -12.7611 C   0  0  0  0  0  0  0  0  0  0  0  0
   22.7576  -20.4969  -11.9713 C   0  0  0  0  0  0  0  0  0  0  0  0
   21.8803  -20.2384  -12.8194 O   0  0  0  0  0  0  0  0  0  0  0  0
   22.3960  -20.5491  -10.6235 O   0  0  0  0  0  0  0  0  0  0  0  0
  2  1  1  6
  2  8  1  0
  3  2  1  0
  4  3  1  0
  4  5  1  0
  6  5  1  0
  6  7  1  0
  8  9  2  0
 10 11  1  0
 10  8  1  0
 11 17  1  0
 11 12  1  1
 13 12  1  0
 14 13  1  0
 15 14  1  0
 16 15  1  0
 17 18  2  0
 17 19  1  0
 19 20  1  0
 20 28  1  0
 20 21  1  6
 22 21  1  0
 23 22  2  0
 24 23  1  0
 25 26  1  0
 25 24  2  0
 26 27  2  0
 27 22  1  0
 28 29  2  0
 28 30  1  0
M  END
$$$$
