ICG.pdb
     RDKit          3D

 19 18  0  0  1  0  0  0  0  0999 V2000
    7.8838  -12.6060   18.5343 C   0  0  0  0  0  0  0  0  0  0  0  0
    7.2478  -13.6826   19.3729 C   0  0  0  0  0  0  0  0  0  0  0  0
    8.0093  -13.9017   20.6539 C   0  0  2  0  0  0  0  0  0  0  0  0
    9.4274  -14.2965   20.3247 C   0  0  0  0  0  0  0  0  0  0  0  0
    7.3067  -14.9713   21.4623 C   0  0  2  0  0  0  0  0  0  0  0  0
    5.8842  -14.7398   21.3853 N   0  0  0  0  0  0  0  0  0  0  0  0
    7.7719  -14.9668   22.8721 C   0  0  0  0  0  0  0  0  0  0  0  0
    7.7082  -13.8979   23.5295 O   0  0  0  0  0  0  0  0  0  0  0  0
    8.2892  -16.1150   23.5225 N   0  0  0  0  0  0  0  0  0  0  0  0
    8.8670  -16.0012   24.8284 C   0  0  1  0  0  0  0  0  0  0  0  0
    7.9613  -16.7001   25.8373 C   0  0  0  0  0  0  0  0  0  0  0  0
    6.3540  -15.8594   25.8357 S   0  0  0  0  0  0  0  0  0  0  0  0
   10.2330  -16.5677   24.8954 C   0  0  0  0  0  0  0  0  0  0  0  0
   10.3878  -17.7614   25.1819 O   0  0  0  0  0  0  0  0  0  0  0  0
   11.3356  -15.7438   24.6332 N   0  0  0  0  0  0  0  0  0  0  0  0
   12.7038  -16.1875   24.6869 C   0  0  0  0  0  0  0  0  0  0  0  0
   13.0401  -16.9090   23.4492 C   0  0  0  0  0  0  0  0  0  0  0  0
   14.1274  -16.5159   22.7124 O   0  0  0  0  0  0  0  0  0  0  0  0
   12.3776  -17.8877   23.0127 O   0  0  0  0  0  0  0  0  0  0  0  0
  1  2  1  0
  2  3  1  0
  3  4  1  6
  3  5  1  0
  5  6  1  1
  7  5  1  0
  8  7  2  0
  9  7  1  0
 10  9  1  0
 10 13  1  0
 10 11  1  1
 12 11  1  0
 13 14  2  0
 13 15  1  0
 15 16  1  0
 16 17  1  0
 17 18  1  0
 19 17  2  0
M  END
$$$$
