ICG.pdb
     RDKit          3D

 19 18  0  0  1  0  0  0  0  0999 V2000
    8.6570  -20.4237   24.1866 C   0  0  0  0  0  0  0  0  0  0  0  0
    7.9264  -19.3208   23.4676 C   0  0  0  0  0  0  0  0  0  0  0  0
    6.5826  -19.0541   24.0936 C   0  0  2  0  0  0  0  0  0  0  0  0
    5.7268  -20.2904   23.9726 C   0  0  0  0  0  0  0  0  0  0  0  0
    5.9482  -17.8676   23.4001 C   0  0  2  0  0  0  0  0  0  0  0  0
    5.8149  -18.1777   21.9969 N   0  0  0  0  0  0  0  0  0  0  0  0
    6.7559  -16.6381   23.5999 C   0  0  0  0  0  0  0  0  0  0  0  0
    7.4249  -16.1875   22.6365 O   0  0  0  0  0  0  0  0  0  0  0  0
    6.8133  -15.9386   24.8313 N   0  0  0  0  0  0  0  0  0  0  0  0
    7.6952  -14.8196   24.9810 C   0  0  1  0  0  0  0  0  0  0  0  0
    7.2549  -13.9951   26.1863 C   0  0  0  0  0  0  0  0  0  0  0  0
    5.6691  -13.2094   25.7886 S   0  0  0  0  0  0  0  0  0  0  0  0
    9.1094  -15.2288   25.1355 C   0  0  0  0  0  0  0  0  0  0  0  0
    9.9855  -14.3656   25.2710 O   0  0  0  0  0  0  0  0  0  0  0  0
    9.4389  -16.5906   25.1264 N   0  0  0  0  0  0  0  0  0  0  0  0
   10.7874  -17.0933   25.1477 C   0  0  0  0  0  0  0  0  0  0  0  0
   11.1426  -17.5024   26.5159 C   0  0  0  0  0  0  0  0  0  0  0  0
   12.4347  -17.8630   26.7992 O   0  0  0  0  0  0  0  0  0  0  0  0
   10.3165  -17.5436   27.4662 O   0  0  0  0  0  0  0  0  0  0  0  0
  1  2  1  0
  2  3  1  0
  3  4  1  6
  3  5  1  0
  5  6  1  6
  7  5  1  0
  8  7  2  0
  9  7  1  0
 10  9  1  0
 10 13  1  0
 10 11  1  1
 12 11  1  0
 13 14  2  0
 13 15  1  0
 15 16  1  0
 16 17  1  0
 17 18  1  0
 19 17  2  0
M  END
$$$$
