ICG.pdb
     RDKit          3D

 19 18  0  0  1  0  0  0  0  0999 V2000
    7.6273  -12.3897   19.5890 C   0  0  0  0  0  0  0  0  0  0  0  0
    6.9885  -12.8780   20.8620 C   0  0  0  0  0  0  0  0  0  0  0  0
    7.9035  -13.8098   21.6124 C   0  0  2  0  0  0  0  0  0  0  0  0
    8.2411  -14.9869   20.7315 C   0  0  0  0  0  0  0  0  0  0  0  0
    7.2151  -14.2476   22.8875 C   0  0  2  0  0  0  0  0  0  0  0  0
    6.7455  -13.0709   23.5787 N   0  0  0  0  0  0  0  0  0  0  0  0
    8.1330  -15.0388   23.7450 C   0  0  0  0  0  0  0  0  0  0  0  0
    9.0525  -14.4442   24.3613 O   0  0  0  0  0  0  0  0  0  0  0  0
    8.0266  -16.4428   23.9074 N   0  0  0  0  0  0  0  0  0  0  0  0
    9.0656  -17.1692   24.5745 C   0  0  1  0  0  0  0  0  0  0  0  0
    8.4916  -18.4726   25.1206 C   0  0  0  0  0  0  0  0  0  0  0  0
    7.3248  -18.0671   26.4489 S   0  0  0  0  0  0  0  0  0  0  0  0
   10.2172  -17.4538   23.6889 C   0  0  0  0  0  0  0  0  0  0  0  0
   10.0334  -18.0373   22.6134 O   0  0  0  0  0  0  0  0  0  0  0  0
   11.5032  -17.0581   24.0800 N   0  0  0  0  0  0  0  0  0  0  0  0
   12.6795  -17.2253   23.2677 C   0  0  0  0  0  0  0  0  0  0  0  0
   13.8232  -16.5559   23.9074 C   0  0  0  0  0  0  0  0  0  0  0  0
   13.6469  -15.9164   25.1073 O   0  0  0  0  0  0  0  0  0  0  0  0
   14.9813  -16.5319   23.4120 O   0  0  0  0  0  0  0  0  0  0  0  0
  1  2  1  0
  2  3  1  0
  3  4  1  6
  3  5  1  0
  5  6  1  1
  7  5  1  0
  8  7  2  0
  9  7  1  0
 10  9  1  0
 10 13  1  0
 10 11  1  6
 12 11  1  0
 13 14  2  0
 13 15  1  0
 15 16  1  0
 16 17  1  0
 17 18  1  0
 19 17  2  0
M  END
$$$$
