ICG.pdb
     RDKit          3D

 19 18  0  0  1  0  0  0  0  0999 V2000
    7.4426  -11.1392   26.9999 C   0  0  0  0  0  0  0  0  0  0  0  0
    7.6441  -12.6212   27.1734 C   0  0  0  0  0  0  0  0  0  0  0  0
    6.8938  -13.4030   26.1272 C   0  0  2  0  0  0  0  0  0  0  0  0
    5.4171  -13.1314   26.2716 C   0  0  0  0  0  0  0  0  0  0  0  0
    7.2091  -14.8736   26.2976 C   0  0  2  0  0  0  0  0  0  0  0  0
    8.3339  -14.9976   27.1934 N   0  0  0  0  0  0  0  0  0  0  0  0
    7.4968  -15.5130   24.9890 C   0  0  0  0  0  0  0  0  0  0  0  0
    6.6702  -16.3346   24.5195 O   0  0  0  0  0  0  0  0  0  0  0  0
    8.6654  -15.2435   24.2336 N   0  0  0  0  0  0  0  0  0  0  0  0
    8.8929  -15.9261   22.9949 C   0  0  1  0  0  0  0  0  0  0  0  0
    8.7618  -14.9317   21.8458 C   0  0  0  0  0  0  0  0  0  0  0  0
    7.0110  -14.4893   21.6743 S   0  0  0  0  0  0  0  0  0  0  0  0
   10.2171  -16.5861   22.9460 C   0  0  0  0  0  0  0  0  0  0  0  0
   11.1448  -16.1500   23.6389 O   0  0  0  0  0  0  0  0  0  0  0  0
   10.4039  -17.6982   22.1143 N   0  0  0  0  0  0  0  0  0  0  0  0
   11.5728  -18.5375   22.1419 C   0  0  0  0  0  0  0  0  0  0  0  0
   12.6765  -17.8743   21.4295 C   0  0  0  0  0  0  0  0  0  0  0  0
   13.9484  -17.9481   21.9359 O   0  0  0  0  0  0  0  0  0  0  0  0
   12.5244  -17.2277   20.3589 O   0  0  0  0  0  0  0  0  0  0  0  0
  1  2  1  0
  2  3  1  0
  3  4  1  1
  3  5  1  0
  5  6  1  1
  7  5  1  0
  8  7  2  0
  9  7  1  0
 10  9  1  0
 10 13  1  0
 10 11  1  6
 12 11  1  0
 13 14  2  0
 13 15  1  0
 15 16  1  0
 16 17  1  0
 17 18  1  0
 19 17  2  0
M  END
$$$$
