ICG.pdb
     RDKit          3D

 19 18  0  0  1  0  0  0  0  0999 V2000
    7.2537  -21.9117   24.3472 C   0  0  0  0  0  0  0  0  0  0  0  0
    6.3091  -20.7399   24.3077 C   0  0  0  0  0  0  0  0  0  0  0  0
    7.0460  -19.4493   24.0626 C   0  0  2  0  0  0  0  0  0  0  0  0
    8.1135  -19.2821   25.1152 C   0  0  0  0  0  0  0  0  0  0  0  0
    6.0527  -18.3075   24.0902 C   0  0  2  0  0  0  0  0  0  0  0  0
    5.0800  -18.5245   23.0463 N   0  0  0  0  0  0  0  0  0  0  0  0
    6.7365  -17.0010   23.9185 C   0  0  0  0  0  0  0  0  0  0  0  0
    7.0451  -16.6244   22.7602 O   0  0  0  0  0  0  0  0  0  0  0  0
    7.0630  -16.1474   25.0019 N   0  0  0  0  0  0  0  0  0  0  0  0
    7.7156  -14.8956   24.7583 C   0  0  1  0  0  0  0  0  0  0  0  0
    7.1934  -13.8597   25.7486 C   0  0  0  0  0  0  0  0  0  0  0  0
    5.4692  -14.2657   26.1392 S   0  0  0  0  0  0  0  0  0  0  0  0
    9.1891  -14.9955   24.8584 C   0  0  0  0  0  0  0  0  0  0  0  0
    9.8863  -13.9939   24.6539 O   0  0  0  0  0  0  0  0  0  0  0  0
    9.7773  -16.2248   25.1840 N   0  0  0  0  0  0  0  0  0  0  0  0
   11.1947  -16.4257   25.3326 C   0  0  0  0  0  0  0  0  0  0  0  0
   11.7777  -16.8204   24.0404 C   0  0  0  0  0  0  0  0  0  0  0  0
   12.8252  -16.1019   23.5242 O   0  0  0  0  0  0  0  0  0  0  0  0
   11.3667  -17.7991   23.3618 O   0  0  0  0  0  0  0  0  0  0  0  0
  1  2  1  0
  2  3  1  0
  3  4  1  1
  3  5  1  0
  5  6  1  6
  7  5  1  0
  8  7  2  0
  9  7  1  0
 10  9  1  0
 10 13  1  0
 10 11  1  1
 12 11  1  0
 13 14  2  0
 13 15  1  0
 15 16  1  0
 16 17  1  0
 17 18  1  0
 19 17  2  0
M  END
$$$$
