ICG.pdb
     RDKit          3D

 19 18  0  0  1  0  0  0  0  0999 V2000
    5.2843  -16.5899   20.2902 C   0  0  0  0  0  0  0  0  0  0  0  0
    5.9764  -17.0490   21.5461 C   0  0  0  0  0  0  0  0  0  0  0  0
    6.5586  -15.8871   22.3076 C   0  0  2  0  0  0  0  0  0  0  0  0
    7.5016  -15.1286   21.4071 C   0  0  0  0  0  0  0  0  0  0  0  0
    7.2663  -16.4150   23.5371 C   0  0  2  0  0  0  0  0  0  0  0  0
    6.2851  -17.0299   24.3986 N   0  0  0  0  0  0  0  0  0  0  0  0
    7.9902  -15.3286   24.2439 C   0  0  0  0  0  0  0  0  0  0  0  0
    9.1315  -14.9947   23.8380 O   0  0  0  0  0  0  0  0  0  0  0  0
    7.4576  -14.6411   25.3632 N   0  0  0  0  0  0  0  0  0  0  0  0
    8.2597  -13.6855   26.0671 C   0  0  1  0  0  0  0  0  0  0  0  0
    7.3691  -12.5446   26.5485 C   0  0  0  0  0  0  0  0  0  0  0  0
    5.8357  -13.2585   27.2036 S   0  0  0  0  0  0  0  0  0  0  0  0
    8.9805  -14.2845   27.2130 C   0  0  0  0  0  0  0  0  0  0  0  0
    9.7067  -13.5738   27.9191 O   0  0  0  0  0  0  0  0  0  0  0  0
    8.8312  -15.6510   27.4844 N   0  0  0  0  0  0  0  0  0  0  0  0
    9.3842  -16.3081   28.6394 C   0  0  0  0  0  0  0  0  0  0  0  0
   10.6967  -16.8821   28.3024 C   0  0  0  0  0  0  0  0  0  0  0  0
   11.7282  -16.7823   29.2001 O   0  0  0  0  0  0  0  0  0  0  0  0
   10.9394  -17.4731   27.2166 O   0  0  0  0  0  0  0  0  0  0  0  0
  1  2  1  0
  2  3  1  0
  3  4  1  6
  3  5  1  0
  5  6  1  1
  7  5  1  0
  8  7  2  0
  9  7  1  0
 10  9  1  0
 10 13  1  0
 10 11  1  1
 12 11  1  0
 13 14  2  0
 13 15  1  0
 15 16  1  0
 16 17  1  0
 17 18  1  0
 19 17  2  0
M  END
$$$$
