ICG.pdb
     RDKit          3D

 19 18  0  0  1  0  0  0  0  0999 V2000
    8.1044  -15.4756   15.1185 C   0  0  0  0  0  0  0  0  0  0  0  0
    7.7104  -14.5159   16.2096 C   0  0  0  0  0  0  0  0  0  0  0  0
    8.4043  -14.8440   17.5057 C   0  0  2  0  0  0  0  0  0  0  0  0
    8.0525  -16.2535   17.9116 C   0  0  0  0  0  0  0  0  0  0  0  0
    7.9786  -13.8395   18.5549 C   0  0  2  0  0  0  0  0  0  0  0  0
    8.3163  -12.5177   18.0837 N   0  0  0  0  0  0  0  0  0  0  0  0
    8.6283  -14.1224   19.8594 C   0  0  0  0  0  0  0  0  0  0  0  0
    9.8748  -13.9980   19.9570 O   0  0  0  0  0  0  0  0  0  0  0  0
    7.9107  -14.5293   21.0120 N   0  0  0  0  0  0  0  0  0  0  0  0
    8.6102  -14.8195   22.2280 C   0  0  1  0  0  0  0  0  0  0  0  0
    7.6056  -14.9091   23.3723 C   0  0  0  0  0  0  0  0  0  0  0  0
    6.9950  -13.2377   23.7243 S   0  0  0  0  0  0  0  0  0  0  0  0
    9.3972  -16.0705   22.1448 C   0  0  0  0  0  0  0  0  0  0  0  0
    8.8267  -17.1369   21.8830 O   0  0  0  0  0  0  0  0  0  0  0  0
   10.7806  -16.0317   22.3638 N   0  0  0  0  0  0  0  0  0  0  0  0
   11.6264  -17.1962   22.3821 C   0  0  0  0  0  0  0  0  0  0  0  0
   13.0299  -16.7871   22.5510 C   0  0  0  0  0  0  0  0  0  0  0  0
   13.9925  -17.7424   22.7518 O   0  0  0  0  0  0  0  0  0  0  0  0
   13.4129  -15.5872   22.5223 O   0  0  0  0  0  0  0  0  0  0  0  0
  1  2  1  0
  2  3  1  0
  3  4  1  1
  3  5  1  0
  5  6  1  6
  7  5  1  0
  8  7  2  0
  9  7  1  0
 10  9  1  0
 10 13  1  0
 10 11  1  1
 12 11  1  0
 13 14  2  0
 13 15  1  0
 15 16  1  0
 16 17  1  0
 17 18  1  0
 19 17  2  0
M  END
$$$$
