ICG.pdb
     RDKit          3D

 19 18  0  0  1  0  0  0  0  0999 V2000
    6.4684  -11.8511   27.4137 C   0  0  0  0  0  0  0  0  0  0  0  0
    6.0778  -13.1868   26.8390 C   0  0  0  0  0  0  0  0  0  0  0  0
    7.1841  -13.7663   25.9969 C   0  0  2  0  0  0  0  0  0  0  0  0
    7.5258  -12.7959   24.8937 C   0  0  0  0  0  0  0  0  0  0  0  0
    6.7292  -15.1001   25.4444 C   0  0  2  0  0  0  0  0  0  0  0  0
    6.4490  -15.9807   26.5530 N   0  0  0  0  0  0  0  0  0  0  0  0
    7.7567  -15.6842   24.5461 C   0  0  0  0  0  0  0  0  0  0  0  0
    8.7144  -16.3213   25.0518 O   0  0  0  0  0  0  0  0  0  0  0  0
    7.7148  -15.5604   23.1348 N   0  0  0  0  0  0  0  0  0  0  0  0
    8.7639  -16.1172   22.3337 C   0  0  1  0  0  0  0  0  0  0  0  0
    8.3146  -16.1509   20.8765 C   0  0  0  0  0  0  0  0  0  0  0  0
    6.8629  -17.2316   20.7544 S   0  0  0  0  0  0  0  0  0  0  0  0
   10.0320  -15.3635   22.4563 C   0  0  0  0  0  0  0  0  0  0  0  0
   10.0217  -14.1292   22.3701 O   0  0  0  0  0  0  0  0  0  0  0  0
   11.2302  -16.0580   22.6689 N   0  0  0  0  0  0  0  0  0  0  0  0
   12.4989  -15.4216   22.9076 C   0  0  0  0  0  0  0  0  0  0  0  0
   13.5388  -16.4450   23.0993 C   0  0  0  0  0  0  0  0  0  0  0  0
   14.8015  -16.2245   22.6128 O   0  0  0  0  0  0  0  0  0  0  0  0
   13.3388  -17.5366   23.6958 O   0  0  0  0  0  0  0  0  0  0  0  0
  1  2  1  0
  2  3  1  0
  3  4  1  6
  3  5  1  0
  5  6  1  1
  7  5  1  0
  8  7  2  0
  9  7  1  0
 10  9  1  0
 10 13  1  0
 10 11  1  6
 12 11  1  0
 13 14  2  0
 13 15  1  0
 15 16  1  0
 16 17  1  0
 17 18  1  0
 19 17  2  0
M  END
$$$$
