ICG.pdb
     RDKit          3D

 19 18  0  0  1  0  0  0  0  0999 V2000
    7.6012  -11.9167   19.7157 C   0  0  0  0  0  0  0  0  0  0  0  0
    7.2120  -13.0814   20.5868 C   0  0  0  0  0  0  0  0  0  0  0  0
    8.2484  -14.1733   20.5382 C   0  0  2  0  0  0  0  0  0  0  0  0
    8.3129  -14.7316   19.1384 C   0  0  0  0  0  0  0  0  0  0  0  0
    7.8810  -15.2401   21.5471 C   0  0  2  0  0  0  0  0  0  0  0  0
    6.5440  -15.7000   21.2573 N   0  0  0  0  0  0  0  0  0  0  0  0
    7.9764  -14.7189   22.9338 C   0  0  0  0  0  0  0  0  0  0  0  0
    7.7444  -13.5018   23.1427 O   0  0  0  0  0  0  0  0  0  0  0  0
    8.3186  -15.5286   24.0457 N   0  0  0  0  0  0  0  0  0  0  0  0
    8.3995  -14.9532   25.3551 C   0  0  1  0  0  0  0  0  0  0  0  0
    7.1016  -14.2100   25.6546 C   0  0  0  0  0  0  0  0  0  0  0  0
    5.7716  -15.4326   25.8176 S   0  0  0  0  0  0  0  0  0  0  0  0
    8.6584  -15.9650   26.4041 C   0  0  0  0  0  0  0  0  0  0  0  0
    8.7928  -15.6069   27.5809 O   0  0  0  0  0  0  0  0  0  0  0  0
    8.7482  -17.3180   26.0511 N   0  0  0  0  0  0  0  0  0  0  0  0
    9.9006  -17.9131   25.4271 C   0  0  0  0  0  0  0  0  0  0  0  0
   10.9555  -18.1229   26.4314 C   0  0  0  0  0  0  0  0  0  0  0  0
   12.1309  -18.7237   26.0611 O   0  0  0  0  0  0  0  0  0  0  0  0
   10.8456  -17.7778   27.6381 O   0  0  0  0  0  0  0  0  0  0  0  0
  1  2  1  0
  2  3  1  0
  3  4  1  6
  3  5  1  0
  5  6  1  6
  7  5  1  0
  8  7  2  0
  9  7  1  0
 10  9  1  0
 10 13  1  0
 10 11  1  1
 12 11  1  0
 13 14  2  0
 13 15  1  0
 15 16  1  0
 16 17  1  0
 17 18  1  0
 19 17  2  0
M  END
$$$$
