ICG.pdb
     RDKit          3D

 19 18  0  0  1  0  0  0  0  0999 V2000
    7.3705  -12.4830   19.1928 C   0  0  0  0  0  0  0  0  0  0  0  0
    7.1262  -13.6717   20.0839 C   0  0  0  0  0  0  0  0  0  0  0  0
    8.2141  -13.8168   21.1155 C   0  0  2  0  0  0  0  0  0  0  0  0
    9.5472  -13.9182   20.4171 C   0  0  0  0  0  0  0  0  0  0  0  0
    7.9302  -15.0441   21.9547 C   0  0  2  0  0  0  0  0  0  0  0  0
    6.6054  -14.9175   22.5133 N   0  0  0  0  0  0  0  0  0  0  0  0
    8.9466  -15.2060   23.0246 C   0  0  0  0  0  0  0  0  0  0  0  0
    8.9803  -14.3700   23.9621 O   0  0  0  0  0  0  0  0  0  0  0  0
    9.8902  -16.2634   23.0454 N   0  0  0  0  0  0  0  0  0  0  0  0
   10.9785  -16.2363   23.9766 C   0  0  1  0  0  0  0  0  0  0  0  0
   10.8348  -17.4051   24.9460 C   0  0  0  0  0  0  0  0  0  0  0  0
    9.4574  -17.0451   26.0699 S   0  0  0  0  0  0  0  0  0  0  0  0
   12.2982  -16.2909   23.3082 C   0  0  0  0  0  0  0  0  0  0  0  0
   12.5297  -17.1818   22.4814 O   0  0  0  0  0  0  0  0  0  0  0  0
   13.2704  -15.3314   23.6205 N   0  0  0  0  0  0  0  0  0  0  0  0
   14.5328  -15.2123   22.9395 C   0  0  0  0  0  0  0  0  0  0  0  0
   15.5026  -16.1516   23.5248 C   0  0  0  0  0  0  0  0  0  0  0  0
   16.8298  -16.0430   23.1985 O   0  0  0  0  0  0  0  0  0  0  0  0
   15.1844  -17.0710   24.3253 O   0  0  0  0  0  0  0  0  0  0  0  0
  1  2  1  0
  2  3  1  0
  3  4  1  6
  3  5  1  0
  5  6  1  1
  7  5  1  0
  8  7  2  0
  9  7  1  0
 10  9  1  0
 10 13  1  0
 10 11  1  1
 12 11  1  0
 13 14  2  0
 13 15  1  0
 15 16  1  0
 16 17  1  0
 17 18  1  0
 19 17  2  0
M  END
$$$$
