ICG.pdb
     RDKit          3D

 19 18  0  0  1  0  0  0  0  0999 V2000
    6.9235  -15.6702   18.0229 C   0  0  0  0  0  0  0  0  0  0  0  0
    7.0077  -14.4017   18.8296 C   0  0  0  0  0  0  0  0  0  0  0  0
    7.4499  -14.6786   20.2426 C   0  0  2  0  0  0  0  0  0  0  0  0
    6.5298  -15.7043   20.8565 C   0  0  0  0  0  0  0  0  0  0  0  0
    7.4358  -13.3807   21.0214 C   0  0  2  0  0  0  0  0  0  0  0  0
    8.2551  -12.4205   20.3215 N   0  0  0  0  0  0  0  0  0  0  0  0
    7.9222  -13.5855   22.4090 C   0  0  0  0  0  0  0  0  0  0  0  0
    9.1532  -13.7449   22.6040 O   0  0  0  0  0  0  0  0  0  0  0  0
    7.0638  -13.6111   23.5366 N   0  0  0  0  0  0  0  0  0  0  0  0
    7.5901  -13.9204   24.8326 C   0  0  1  0  0  0  0  0  0  0  0  0
    6.6115  -13.4351   25.8973 C   0  0  0  0  0  0  0  0  0  0  0  0
    6.2926  -11.6720   25.6144 S   0  0  0  0  0  0  0  0  0  0  0  0
    7.8536  -15.3666   25.0073 C   0  0  0  0  0  0  0  0  0  0  0  0
    6.9105  -16.1674   24.9913 O   0  0  0  0  0  0  0  0  0  0  0  0
    9.1698  -15.8115   25.1889 N   0  0  0  0  0  0  0  0  0  0  0  0
    9.5332  -17.1883   25.3982 C   0  0  0  0  0  0  0  0  0  0  0  0
   10.9964  -17.3045   25.5033 C   0  0  0  0  0  0  0  0  0  0  0  0
   11.5565  -18.5132   25.8274 O   0  0  0  0  0  0  0  0  0  0  0  0
   11.7863  -16.3422   25.3102 O   0  0  0  0  0  0  0  0  0  0  0  0
  1  2  1  0
  2  3  1  0
  3  4  1  1
  3  5  1  0
  5  6  1  6
  7  5  1  0
  8  7  2  0
  9  7  1  0
 10  9  1  0
 10 13  1  0
 10 11  1  1
 12 11  1  0
 13 14  2  0
 13 15  1  0
 15 16  1  0
 16 17  1  0
 17 18  1  0
 19 17  2  0
M  END
$$$$
