GLI.pdb
     RDKit          3D

 21 20  0  0  1  0  0  0  0  0999 V2000
    5.7420  -19.4205   22.8054 N   0  0  0  0  0  0  0  0  0  0  0  0
    5.7649  -18.0596   23.2465 C   0  0  0  0  0  0  0  0  0  0  0  0
    7.0521  -17.3926   22.9241 C   0  0  0  0  0  0  0  0  0  0  0  0
    8.0698  -18.0914   22.7389 O   0  0  0  0  0  0  0  0  0  0  0  0
    6.8965  -12.5394   20.5907 C   0  0  0  0  0  0  0  0  0  0  0  0
    7.2517  -14.0379   20.6775 C   0  0  1  0  0  0  0  0  0  0  0  0
    7.4748  -14.5398   19.2989 C   0  0  0  0  0  0  0  0  0  0  0  0
    8.3698  -14.1484   21.6328 C   0  0  0  0  0  0  0  0  0  0  0  0
    8.4177  -15.3140   22.5415 C   0  0  2  0  0  0  0  0  0  0  0  0
    7.1863  -15.9789   22.8141 N   0  0  0  0  0  0  0  0  0  0  0  0
    9.1666  -15.0184   23.8135 C   0  0  0  0  0  0  0  0  0  0  0  0
   10.3537  -14.6664   23.7478 O   0  0  0  0  0  0  0  0  0  0  0  0
    6.8948  -11.7475   26.9538 C   0  0  0  0  0  0  0  0  0  0  0  0
    7.8218  -12.6728   26.2459 C   0  0  0  0  0  0  0  0  0  0  0  0
    8.4261  -13.7650   27.0249 C   0  0  2  0  0  0  0  0  0  0  0  0
    9.0687  -13.2278   28.3040 C   0  0  0  0  0  0  0  0  0  0  0  0
    9.2064  -14.8259   26.3440 C   0  0  2  0  0  0  0  0  0  0  0  0
    8.5327  -15.1390   25.0511 N   0  0  0  0  0  0  0  0  0  0  0  0
    9.2987  -16.0572   27.1011 C   0  0  0  0  0  0  0  0  0  0  0  0
   10.3077  -16.4253   27.9847 O   0  0  0  0  0  0  0  0  0  0  0  0
    8.3810  -16.9384   26.9765 O   0  0  0  0  0  0  0  0  0  0  0  0
  2  1  1  0
  3  2  1  0
  4  3  2  0
  6  5  1  6
  6  8  1  0
  7  6  1  0
  9  8  1  1
  9 10  1  0
  9 11  1  0
 10  3  1  0
 11 12  2  0
 14 13  1  0
 15 14  1  0
 15 16  1  1
 17 15  1  0
 18 11  1  0
 17 18  1  6
 19 20  1  0
 19 17  1  0
 21 19  2  0
M  END
$$$$
