GLI.pdb
     RDKit          3D

 21 20  0  0  1  0  0  0  0  0999 V2000
   10.3286  -16.2704   19.8761 N   0  0  0  0  0  0  0  0  0  0  0  0
    9.2892  -16.6317   20.7907 C   0  0  0  0  0  0  0  0  0  0  0  0
    9.3622  -15.8501   22.0516 C   0  0  0  0  0  0  0  0  0  0  0  0
   10.4793  -15.5094   22.4924 O   0  0  0  0  0  0  0  0  0  0  0  0
    7.9021  -12.0681   25.4589 C   0  0  0  0  0  0  0  0  0  0  0  0
    7.0914  -13.3432   25.7690 C   0  0  1  0  0  0  0  0  0  0  0  0
    5.8009  -12.9331   26.3763 C   0  0  0  0  0  0  0  0  0  0  0  0
    7.0394  -14.1210   24.5170 C   0  0  0  0  0  0  0  0  0  0  0  0
    8.2558  -14.8331   24.0697 C   0  0  2  0  0  0  0  0  0  0  0  0
    8.2085  -15.4648   22.7925 N   0  0  0  0  0  0  0  0  0  0  0  0
    8.7883  -15.7721   25.1189 C   0  0  0  0  0  0  0  0  0  0  0  0
    8.6852  -16.9952   24.9435 O   0  0  0  0  0  0  0  0  0  0  0  0
   10.6397  -13.0778   29.5593 C   0  0  0  0  0  0  0  0  0  0  0  0
   10.8403  -13.8908   28.3284 C   0  0  0  0  0  0  0  0  0  0  0  0
   10.5253  -15.3263   28.3970 C   0  0  2  0  0  0  0  0  0  0  0  0
   11.4335  -16.0333   29.4035 C   0  0  0  0  0  0  0  0  0  0  0  0
   10.2676  -16.0953   27.1560 C   0  0  2  0  0  0  0  0  0  0  0  0
    9.3906  -15.2722   26.2745 N   0  0  0  0  0  0  0  0  0  0  0  0
    9.5995  -17.3602   27.3832 C   0  0  0  0  0  0  0  0  0  0  0  0
   10.1796  -18.6242   27.4011 O   0  0  0  0  0  0  0  0  0  0  0  0
    8.3380  -17.3731   27.5900 O   0  0  0  0  0  0  0  0  0  0  0  0
  2  1  1  0
  3  2  1  0
  4  3  2  0
  6  5  1  6
  6  8  1  0
  7  6  1  0
  9  8  1  1
  9 10  1  0
  9 11  1  0
 10  3  1  0
 11 12  2  0
 14 13  1  0
 15 14  1  0
 15 16  1  6
 17 15  1  0
 18 11  1  0
 17 18  1  6
 19 20  1  0
 19 17  1  0
 21 19  2  0
M  END
$$$$
