GLI.pdb
     RDKit          3D

 21 20  0  0  1  0  0  0  0  0999 V2000
   12.3820  -17.7664   20.0495 N   0  0  0  0  0  0  0  0  0  0  0  0
   11.1587  -17.9857   20.7585 C   0  0  0  0  0  0  0  0  0  0  0  0
   10.6110  -16.7264   21.3244 C   0  0  0  0  0  0  0  0  0  0  0  0
   11.3845  -15.9270   21.8910 O   0  0  0  0  0  0  0  0  0  0  0  0
    6.2380  -13.5339   19.6023 C   0  0  0  0  0  0  0  0  0  0  0  0
    7.6450  -13.9734   20.0564 C   0  0  1  0  0  0  0  0  0  0  0  0
    8.5399  -12.7911   19.9948 C   0  0  0  0  0  0  0  0  0  0  0  0
    7.4757  -14.6331   21.3645 C   0  0  0  0  0  0  0  0  0  0  0  0
    8.6406  -15.3051   21.9795 C   0  0  2  0  0  0  0  0  0  0  0  0
    9.2314  -16.3801   21.2527 N   0  0  0  0  0  0  0  0  0  0  0  0
    8.3874  -15.6942   23.4115 C   0  0  0  0  0  0  0  0  0  0  0  0
    8.4454  -16.8907   23.7318 O   0  0  0  0  0  0  0  0  0  0  0  0
    6.0184  -11.7880   27.0213 C   0  0  0  0  0  0  0  0  0  0  0  0
    6.3051  -12.9829   26.1808 C   0  0  0  0  0  0  0  0  0  0  0  0
    7.5045  -13.7729   26.5003 C   0  0  2  0  0  0  0  0  0  0  0  0
    8.7246  -12.8656   26.6612 C   0  0  0  0  0  0  0  0  0  0  0  0
    7.7741  -15.0444   25.7871 C   0  0  2  0  0  0  0  0  0  0  0  0
    8.0912  -14.7205   24.3665 N   0  0  0  0  0  0  0  0  0  0  0  0
    6.6533  -15.9618   25.7891 C   0  0  0  0  0  0  0  0  0  0  0  0
    6.3092  -16.8639   26.7902 O   0  0  0  0  0  0  0  0  0  0  0  0
    5.8656  -15.9894   24.7826 O   0  0  0  0  0  0  0  0  0  0  0  0
  2  1  1  0
  3  2  1  0
  4  3  2  0
  6  5  1  1
  6  8  1  0
  7  6  1  0
  9  8  1  6
  9 10  1  0
  9 11  1  0
 10  3  1  0
 11 12  2  0
 14 13  1  0
 15 14  1  0
 15 16  1  6
 17 15  1  0
 18 11  1  0
 17 18  1  6
 19 20  1  0
 19 17  1  0
 21 19  2  0
M  END
$$$$
