GLI.pdb
     RDKit          3D

 21 20  0  0  1  0  0  0  0  0999 V2000
    5.8110  -19.6342   23.3716 N   0  0  0  0  0  0  0  0  0  0  0  0
    6.2784  -19.0048   24.5686 C   0  0  0  0  0  0  0  0  0  0  0  0
    6.7826  -17.6312   24.3137 C   0  0  0  0  0  0  0  0  0  0  0  0
    7.5719  -17.4390   23.3658 O   0  0  0  0  0  0  0  0  0  0  0  0
    5.5617  -11.8809   26.1523 C   0  0  0  0  0  0  0  0  0  0  0  0
    6.1311  -12.8376   25.0847 C   0  0  1  0  0  0  0  0  0  0  0  0
    7.2791  -12.1648   24.4276 C   0  0  0  0  0  0  0  0  0  0  0  0
    6.3910  -14.1191   25.7668 C   0  0  0  0  0  0  0  0  0  0  0  0
    7.0109  -15.2212   25.0001 C   0  0  2  0  0  0  0  0  0  0  0  0
    6.4069  -16.5084   25.1052 N   0  0  0  0  0  0  0  0  0  0  0  0
    8.4987  -15.3021   25.2144 C   0  0  0  0  0  0  0  0  0  0  0  0
    9.2442  -14.5535   24.5653 O   0  0  0  0  0  0  0  0  0  0  0  0
   10.3054  -13.7494   29.7875 C   0  0  0  0  0  0  0  0  0  0  0  0
   10.9820  -14.6080   28.7770 C   0  0  0  0  0  0  0  0  0  0  0  0
   10.2020  -15.7002   28.1739 C   0  0  2  0  0  0  0  0  0  0  0  0
   10.1376  -16.9040   29.1143 C   0  0  0  0  0  0  0  0  0  0  0  0
   10.3826  -16.0466   26.7438 C   0  0  2  0  0  0  0  0  0  0  0  0
    9.0323  -16.2082   26.1322 N   0  0  0  0  0  0  0  0  0  0  0  0
   11.1118  -17.2798   26.5313 C   0  0  0  0  0  0  0  0  0  0  0  0
   12.4899  -17.4600   26.5865 O   0  0  0  0  0  0  0  0  0  0  0  0
   10.4668  -18.3484   26.2547 O   0  0  0  0  0  0  0  0  0  0  0  0
  2  1  1  0
  3  2  1  0
  4  3  2  0
  6  5  1  1
  6  8  1  0
  7  6  1  0
  9  8  1  1
  9 10  1  0
  9 11  1  0
 10  3  1  0
 11 12  2  0
 14 13  1  0
 15 14  1  0
 15 16  1  1
 17 15  1  0
 18 11  1  0
 17 18  1  1
 19 20  1  0
 19 17  1  0
 21 19  2  0
M  END
$$$$
