GLI.pdb
     RDKit          3D

 21 20  0  0  1  0  0  0  0  0999 V2000
   13.1587  -17.5304   20.8190 N   0  0  0  0  0  0  0  0  0  0  0  0
   11.8834  -17.8242   21.3973 C   0  0  0  0  0  0  0  0  0  0  0  0
   11.1594  -16.5920   21.8014 C   0  0  0  0  0  0  0  0  0  0  0  0
   11.7376  -15.7570   22.5273 O   0  0  0  0  0  0  0  0  0  0  0  0
    8.9812  -12.7971   20.3146 C   0  0  0  0  0  0  0  0  0  0  0  0
    7.6925  -13.3345   20.9701 C   0  0  1  0  0  0  0  0  0  0  0  0
    6.5378  -12.8865   20.1527 C   0  0  0  0  0  0  0  0  0  0  0  0
    7.8843  -14.7866   21.1415 C   0  0  0  0  0  0  0  0  0  0  0  0
    9.0274  -15.2638   21.9492 C   0  0  2  0  0  0  0  0  0  0  0  0
    9.8227  -16.3109   21.3981 N   0  0  0  0  0  0  0  0  0  0  0  0
    8.6362  -15.5713   23.3700 C   0  0  0  0  0  0  0  0  0  0  0  0
    8.8701  -16.6985   23.8305 O   0  0  0  0  0  0  0  0  0  0  0  0
    6.8362  -11.1480   26.5128 C   0  0  0  0  0  0  0  0  0  0  0  0
    7.6167  -12.3801   26.2145 C   0  0  0  0  0  0  0  0  0  0  0  0
    6.8723  -13.6379   26.0448 C   0  0  2  0  0  0  0  0  0  0  0  0
    5.9313  -13.8748   27.2264 C   0  0  0  0  0  0  0  0  0  0  0  0
    7.5630  -14.8552   25.5557 C   0  0  2  0  0  0  0  0  0  0  0  0
    8.0180  -14.6000   24.1588 N   0  0  0  0  0  0  0  0  0  0  0  0
    6.7210  -16.0335   25.5354 C   0  0  0  0  0  0  0  0  0  0  0  0
    6.6708  -17.0455   26.4882 O   0  0  0  0  0  0  0  0  0  0  0  0
    5.9216  -16.2143   24.5543 O   0  0  0  0  0  0  0  0  0  0  0  0
  2  1  1  0
  3  2  1  0
  4  3  2  0
  6  5  1  6
  6  8  1  0
  7  6  1  0
  9  8  1  6
  9 10  1  0
  9 11  1  0
 10  3  1  0
 11 12  2  0
 14 13  1  0
 15 14  1  0
 15 16  1  1
 17 15  1  0
 18 11  1  0
 17 18  1  6
 19 20  1  0
 19 17  1  0
 21 19  2  0
M  END
$$$$
