SRG.pdb
     RDKit          3D

 22 21  0  0  1  0  0  0  0  0999 V2000
   21.0664  -20.2860  -12.9281 O   0  0  0  0  0  0  0  0  0  0  0  0
   21.1828  -19.4004  -14.0093 C   0  0  0  0  0  0  0  0  0  0  0  0
   22.1935  -19.9104  -15.0197 C   0  0  2  0  0  0  0  0  0  0  0  0
   21.9175  -21.3374  -15.2040 N   0  0  0  0  0  0  0  0  0  0  0  0
   23.5458  -19.7255  -14.4820 C   0  0  0  0  0  0  0  0  0  0  0  0
   23.9510  -18.5569  -14.2377 O   0  0  0  0  0  0  0  0  0  0  0  0
   23.9267  -21.3772   -8.4764 N   0  0  0  0  0  0  0  0  0  0  0  0
   25.1973  -20.7496   -8.5322 C   0  0  0  0  0  0  0  0  0  0  0  0
   25.9769  -20.8176   -7.5154 N   0  0  0  0  0  0  0  0  0  0  0  0
   25.6414  -20.0401   -9.6896 N   0  0  0  0  0  0  0  0  0  0  0  0
   25.3975  -20.4720  -11.0254 C   0  0  0  0  0  0  0  0  0  0  0  0
   26.2063  -21.6830  -11.4240 C   0  0  0  0  0  0  0  0  0  0  0  0
   25.9966  -21.9287  -12.8961 C   0  0  0  0  0  0  0  0  0  0  0  0
   25.7422  -20.7006  -13.7082 C   0  0  2  0  0  0  0  0  0  0  0  0
   24.3767  -20.8396  -14.2433 N   0  0  0  0  0  0  0  0  0  0  0  0
   26.6369  -20.5414  -14.8700 C   0  0  0  0  0  0  0  0  0  0  0  0
   26.6898  -21.4365  -15.7454 O   0  0  0  0  0  0  0  0  0  0  0  0
   26.9089  -20.3862   -7.5587 N   0  0  0  0  0  0  0  0  0  0  0  0
   27.4435  -19.4100  -15.0362 C   0  0  0  0  0  0  0  0  0  0  0  0
   28.4781  -19.3536  -16.0738 C   0  0  0  0  0  0  0  0  0  0  0  0
   27.9007  -18.7105  -17.2656 O   0  0  0  0  0  0  0  0  0  0  0  0
   28.6671  -17.9466  -18.1259 O   0  0  0  0  0  0  0  0  0  0  0  0
  1  2  1  0
  3  2  1  0
  3  4  1  1
  5  3  1  0
  6  5  2  0
  7  8  1  0
  8 10  1  0
  9  8  2  0
 10 11  1  0
 11 12  1  0
 12 13  1  0
 14 13  1  6
 14 16  1  0
 14 15  1  0
 15  5  1  0
 16 18  1  0
 17 16  2  0
 18 19  1  0
 20 21  1  0
 20 19  1  0
 22 20  2  0
M  END
$$$$
