SRG.pdb
     RDKit          3D

 22 21  0  0  1  0  0  0  0  0999 V2000
   24.8336  -18.9275  -16.4043 O   0  0  0  0  0  0  0  0  0  0  0  0
   25.6138  -17.9401  -15.7852 C   0  0  0  0  0  0  0  0  0  0  0  0
   27.0928  -18.2318  -15.9587 C   0  0  2  0  0  0  0  0  0  0  0  0
   27.2998  -18.5126  -17.3817 N   0  0  0  0  0  0  0  0  0  0  0  0
   27.4479  -19.4082  -15.1576 C   0  0  0  0  0  0  0  0  0  0  0  0
   27.6080  -20.5161  -15.7378 O   0  0  0  0  0  0  0  0  0  0  0  0
   33.3245  -24.1759  -11.1572 N   0  0  0  0  0  0  0  0  0  0  0  0
   32.5966  -23.0837  -11.6945 C   0  0  0  0  0  0  0  0  0  0  0  0
   32.1829  -23.1404  -12.9077 N   0  0  0  0  0  0  0  0  0  0  0  0
   32.3064  -21.9154  -10.9256 N   0  0  0  0  0  0  0  0  0  0  0  0
   31.4652  -20.8580  -11.3783 C   0  0  0  0  0  0  0  0  0  0  0  0
   30.1053  -21.3253  -11.8385 C   0  0  0  0  0  0  0  0  0  0  0  0
   29.3711  -20.1448  -12.4207 C   0  0  0  0  0  0  0  0  0  0  0  0
   27.9959  -20.4450  -12.9218 C   0  0  2  0  0  0  0  0  0  0  0  0
   27.6069  -19.2982  -13.7607 N   0  0  0  0  0  0  0  0  0  0  0  0
   26.9734  -20.5612  -11.8651 C   0  0  0  0  0  0  0  0  0  0  0  0
   26.4842  -19.5276  -11.3524 O   0  0  0  0  0  0  0  0  0  0  0  0
   31.6629  -22.3481  -13.3058 N   0  0  0  0  0  0  0  0  0  0  0  0
   26.5202  -21.8023  -11.4042 C   0  0  0  0  0  0  0  0  0  0  0  0
   25.1479  -22.2560  -11.6523 C   0  0  0  0  0  0  0  0  0  0  0  0
   24.2322  -21.3941  -10.8869 O   0  0  0  0  0  0  0  0  0  0  0  0
   22.9805  -21.0536  -11.3646 O   0  0  0  0  0  0  0  0  0  0  0  0
  1  2  1  0
  3  2  1  0
  3  4  1  6
  5  3  1  0
  6  5  2  0
  7  8  1  0
  8 10  1  0
  9  8  2  0
 10 11  1  0
 11 12  1  0
 12 13  1  0
 14 13  1  1
 14 16  1  0
 14 15  1  0
 15  5  1  0
 16 18  1  0
 17 16  2  0
 18 19  1  0
 20 21  1  0
 20 19  1  0
 22 20  2  0
M  END
$$$$
