SRG.pdb
     RDKit          3D

 22 21  0  0  1  0  0  0  0  0999 V2000
   28.7641  -11.1069  -15.7298 O   0  0  0  0  0  0  0  0  0  0  0  0
   27.5439  -10.4285  -15.8633 C   0  0  0  0  0  0  0  0  0  0  0  0
   26.7134  -11.0249  -16.9845 C   0  0  2  0  0  0  0  0  0  0  0  0
   27.4708  -10.8185  -18.2216 N   0  0  0  0  0  0  0  0  0  0  0  0
   25.4289  -10.3201  -17.0583 C   0  0  0  0  0  0  0  0  0  0  0  0
   25.2784   -9.4145  -17.9225 O   0  0  0  0  0  0  0  0  0  0  0  0
   17.7603  -14.2058  -15.6057 N   0  0  0  0  0  0  0  0  0  0  0  0
   17.4123  -12.8726  -15.9418 C   0  0  0  0  0  0  0  0  0  0  0  0
   16.1805  -12.5772  -16.1461 N   0  0  0  0  0  0  0  0  0  0  0  0
   18.3930  -11.8410  -16.0607 N   0  0  0  0  0  0  0  0  0  0  0  0
   19.7915  -12.0540  -15.8896 C   0  0  0  0  0  0  0  0  0  0  0  0
   20.6202  -10.8090  -16.0965 C   0  0  0  0  0  0  0  0  0  0  0  0
   22.0758  -11.1986  -16.0657 C   0  0  0  0  0  0  0  0  0  0  0  0
   23.0320  -10.0755  -16.3041 C   0  0  2  0  0  0  0  0  0  0  0  0
   24.3812  -10.6528  -16.1751 N   0  0  0  0  0  0  0  0  0  0  0  0
   22.9451   -8.9809  -15.3194 C   0  0  0  0  0  0  0  0  0  0  0  0
   23.5876   -9.0534  -14.2459 O   0  0  0  0  0  0  0  0  0  0  0  0
   15.9251  -11.6193  -16.4176 N   0  0  0  0  0  0  0  0  0  0  0  0
   22.1594   -7.8443  -15.5405 C   0  0  0  0  0  0  0  0  0  0  0  0
   21.9925   -6.8166  -14.5078 C   0  0  0  0  0  0  0  0  0  0  0  0
   22.6818   -5.5958  -14.9571 O   0  0  0  0  0  0  0  0  0  0  0  0
   22.6708   -4.4341  -14.2079 O   0  0  0  0  0  0  0  0  0  0  0  0
  1  2  1  0
  3  2  1  0
  3  4  1  6
  5  3  1  0
  6  5  2  0
  7  8  1  0
  8 10  1  0
  9  8  2  0
 10 11  1  0
 11 12  1  0
 12 13  1  0
 14 13  1  1
 14 16  1  0
 14 15  1  0
 15  5  1  0
 16 18  1  0
 17 16  2  0
 18 19  1  0
 20 21  1  0
 20 19  1  0
 22 20  2  0
M  END
$$$$
