SRG.pdb
     RDKit          3D

 22 21  0  0  1  0  0  0  0  0999 V2000
   13.5591   -5.8551  -16.3438 O   0  0  0  0  0  0  0  0  0  0  0  0
   14.5860   -6.5413  -15.6794 C   0  0  0  0  0  0  0  0  0  0  0  0
   15.1194   -7.6760  -16.5341 C   0  0  2  0  0  0  0  0  0  0  0  0
   14.0353   -8.6542  -16.6549 N   0  0  0  0  0  0  0  0  0  0  0  0
   16.2721   -8.2841  -15.8607 C   0  0  0  0  0  0  0  0  0  0  0  0
   16.1003   -9.3355  -15.1865 O   0  0  0  0  0  0  0  0  0  0  0  0
   18.9515  -14.5560  -17.9666 N   0  0  0  0  0  0  0  0  0  0  0  0
   18.3446  -14.4715  -16.6875 C   0  0  0  0  0  0  0  0  0  0  0  0
   17.7839  -15.5119  -16.1880 N   0  0  0  0  0  0  0  0  0  0  0  0
   18.3369  -13.2596  -15.9315 N   0  0  0  0  0  0  0  0  0  0  0  0
   18.8630  -12.0246  -16.4094 C   0  0  0  0  0  0  0  0  0  0  0  0
   18.6172  -10.8637  -15.4758 C   0  0  0  0  0  0  0  0  0  0  0  0
   18.9633   -9.5899  -16.2030 C   0  0  0  0  0  0  0  0  0  0  0  0
   18.7560   -8.3389  -15.4126 C   0  0  2  0  0  0  0  0  0  0  0  0
   17.5507   -7.6992  -15.9679 N   0  0  0  0  0  0  0  0  0  0  0  0
   19.8485   -7.3550  -15.5302 C   0  0  0  0  0  0  0  0  0  0  0  0
   20.2371   -6.9849  -16.6627 O   0  0  0  0  0  0  0  0  0  0  0  0
   17.3973  -15.4745  -15.2364 N   0  0  0  0  0  0  0  0  0  0  0  0
   20.4796   -6.8089  -14.4070 C   0  0  0  0  0  0  0  0  0  0  0  0
   21.6325   -5.9120  -14.5375 C   0  0  0  0  0  0  0  0  0  0  0  0
   21.9838   -5.4152  -13.1969 O   0  0  0  0  0  0  0  0  0  0  0  0
   23.0872   -4.6104  -12.9831 O   0  0  0  0  0  0  0  0  0  0  0  0
  1  2  1  0
  3  2  1  0
  3  4  1  1
  5  3  1  0
  6  5  2  0
  7  8  1  0
  8 10  1  0
  9  8  2  0
 10 11  1  0
 11 12  1  0
 12 13  1  0
 14 13  1  6
 14 16  1  0
 14 15  1  0
 15  5  1  0
 16 18  1  0
 17 16  2  0
 18 19  1  0
 20 21  1  0
 20 19  1  0
 22 20  2  0
M  END
$$$$
