SRG.pdb
     RDKit          3D

 22 21  0  0  1  0  0  0  0  0999 V2000
   23.6709  -20.6028   -7.3686 O   0  0  0  0  0  0  0  0  0  0  0  0
   24.6586  -21.5346   -7.7195 C   0  0  0  0  0  0  0  0  0  0  0  0
   25.9580  -20.8370   -8.0764 C   0  0  2  0  0  0  0  0  0  0  0  0
   26.1546  -19.7825   -7.0783 N   0  0  0  0  0  0  0  0  0  0  0  0
   25.8348  -20.2464   -9.4136 C   0  0  0  0  0  0  0  0  0  0  0  0
   25.6754  -19.0001   -9.5181 O   0  0  0  0  0  0  0  0  0  0  0  0
   28.3823  -21.9315  -16.8114 N   0  0  0  0  0  0  0  0  0  0  0  0
   27.8675  -20.6259  -17.0162 C   0  0  0  0  0  0  0  0  0  0  0  0
   27.3415  -20.3282  -18.1480 N   0  0  0  0  0  0  0  0  0  0  0  0
   27.9147  -19.6249  -15.9984 N   0  0  0  0  0  0  0  0  0  0  0  0
   27.9637  -19.9147  -14.6041 C   0  0  0  0  0  0  0  0  0  0  0  0
   26.9244  -20.9159  -14.1602 C   0  0  0  0  0  0  0  0  0  0  0  0
   26.9994  -21.0426  -12.6603 C   0  0  0  0  0  0  0  0  0  0  0  0
   25.8136  -20.5087  -11.9245 C   0  0  2  0  0  0  0  0  0  0  0  0
   25.8942  -21.0628  -10.5619 N   0  0  0  0  0  0  0  0  0  0  0  0
   24.5125  -20.9312  -12.4759 C   0  0  0  0  0  0  0  0  0  0  0  0
   24.0576  -22.0669  -12.2041 O   0  0  0  0  0  0  0  0  0  0  0  0
   26.9988  -19.3736  -18.3148 N   0  0  0  0  0  0  0  0  0  0  0  0
   23.7525  -20.0992  -13.3055 C   0  0  0  0  0  0  0  0  0  0  0  0
   22.4157  -20.4906  -13.7641 C   0  0  0  0  0  0  0  0  0  0  0  0
   22.5699  -21.3868  -14.9219 O   0  0  0  0  0  0  0  0  0  0  0  0
   21.5110  -22.1212  -15.4221 O   0  0  0  0  0  0  0  0  0  0  0  0
  1  2  1  0
  3  2  1  0
  3  4  1  1
  5  3  1  0
  6  5  2  0
  7  8  1  0
  8 10  1  0
  9  8  2  0
 10 11  1  0
 11 12  1  0
 12 13  1  0
 14 13  1  6
 14 16  1  0
 14 15  1  0
 15  5  1  0
 16 18  1  0
 17 16  2  0
 18 19  1  0
 20 21  1  0
 20 19  1  0
 22 20  2  0
M  END
$$$$
