SRG.pdb
     RDKit          3D

 22 21  0  0  1  0  0  0  0  0999 V2000
   26.2192  -17.9529  -18.6145 O   0  0  0  0  0  0  0  0  0  0  0  0
   25.3910  -17.2218  -17.7506 C   0  0  0  0  0  0  0  0  0  0  0  0
   26.1883  -16.6473  -16.5944 C   0  0  2  0  0  0  0  0  0  0  0  0
   27.1339  -15.6894  -17.1731 N   0  0  0  0  0  0  0  0  0  0  0  0
   26.9169  -17.7319  -15.9273 C   0  0  0  0  0  0  0  0  0  0  0  0
   28.1662  -17.8106  -16.0774 O   0  0  0  0  0  0  0  0  0  0  0  0
   25.6990  -20.3942   -8.4762 N   0  0  0  0  0  0  0  0  0  0  0  0
   24.6712  -20.7519   -9.3855 C   0  0  0  0  0  0  0  0  0  0  0  0
   23.4450  -20.6077   -9.0363 N   0  0  0  0  0  0  0  0  0  0  0  0
   24.9567  -21.2702  -10.6856 N   0  0  0  0  0  0  0  0  0  0  0  0
   26.2748  -21.4273  -11.2037 C   0  0  0  0  0  0  0  0  0  0  0  0
   26.7869  -20.2054  -11.9279 C   0  0  0  0  0  0  0  0  0  0  0  0
   26.0588  -20.0947  -13.2428 C   0  0  0  0  0  0  0  0  0  0  0  0
   26.9229  -19.7516  -14.4125 C   0  0  2  0  0  0  0  0  0  0  0  0
   26.2276  -18.6699  -15.1313 N   0  0  0  0  0  0  0  0  0  0  0  0
   27.1063  -20.8508  -15.3787 C   0  0  0  0  0  0  0  0  0  0  0  0
   26.1813  -21.1480  -16.1703 O   0  0  0  0  0  0  0  0  0  0  0  0
   22.6962  -20.9340   -9.6603 N   0  0  0  0  0  0  0  0  0  0  0  0
   28.2936  -21.5882  -15.4474 C   0  0  0  0  0  0  0  0  0  0  0  0
   28.4191  -22.7565  -16.3249 C   0  0  0  0  0  0  0  0  0  0  0  0
   28.9953  -22.3117  -17.6046 O   0  0  0  0  0  0  0  0  0  0  0  0
   29.8983  -23.0877  -18.3070 O   0  0  0  0  0  0  0  0  0  0  0  0
  1  2  1  0
  3  2  1  0
  3  4  1  6
  5  3  1  0
  6  5  2  0
  7  8  1  0
  8 10  1  0
  9  8  2  0
 10 11  1  0
 11 12  1  0
 12 13  1  0
 14 13  1  1
 14 16  1  0
 14 15  1  0
 15  5  1  0
 16 18  1  0
 17 16  2  0
 18 19  1  0
 20 21  1  0
 20 19  1  0
 22 20  2  0
M  END
$$$$
