SRG.pdb
     RDKit          3D

 22 21  0  0  1  0  0  0  0  0999 V2000
   25.6747  -17.4582  -15.0305 O   0  0  0  0  0  0  0  0  0  0  0  0
   27.0211  -17.3145  -14.6650 C   0  0  0  0  0  0  0  0  0  0  0  0
   27.8501  -18.4729  -15.1879 C   0  0  2  0  0  0  0  0  0  0  0  0
   27.4587  -18.6699  -16.5860 N   0  0  0  0  0  0  0  0  0  0  0  0
   27.5428  -19.6754  -14.4059 C   0  0  0  0  0  0  0  0  0  0  0  0
   26.8926  -20.6081  -14.9507 O   0  0  0  0  0  0  0  0  0  0  0  0
   31.9640  -24.1784  -11.9465 N   0  0  0  0  0  0  0  0  0  0  0  0
   32.7990  -23.1612  -11.4179 C   0  0  0  0  0  0  0  0  0  0  0  0
   34.0727  -23.3124  -11.4530 N   0  0  0  0  0  0  0  0  0  0  0  0
   32.2666  -21.9662  -10.8444 N   0  0  0  0  0  0  0  0  0  0  0  0
   30.8915  -21.7902  -10.5149 C   0  0  0  0  0  0  0  0  0  0  0  0
   30.0517  -21.3072  -11.6729 C   0  0  0  0  0  0  0  0  0  0  0  0
   28.6645  -21.0141  -11.1619 C   0  0  0  0  0  0  0  0  0  0  0  0
   27.6102  -20.9324  -12.2175 C   0  0  2  0  0  0  0  0  0  0  0  0
   27.9695  -19.7830  -13.0662 N   0  0  0  0  0  0  0  0  0  0  0  0
   26.2524  -20.6704  -11.7045 C   0  0  0  0  0  0  0  0  0  0  0  0
   25.9961  -19.5800  -11.1426 O   0  0  0  0  0  0  0  0  0  0  0  0
   34.6833  -22.5751  -11.0789 N   0  0  0  0  0  0  0  0  0  0  0  0
   25.2206  -21.6084  -11.8226 C   0  0  0  0  0  0  0  0  0  0  0  0
   23.8992  -21.3706  -11.2329 C   0  0  0  0  0  0  0  0  0  0  0  0
   22.9401  -21.1461  -12.3270 O   0  0  0  0  0  0  0  0  0  0  0  0
   23.3356  -21.1275  -13.6515 O   0  0  0  0  0  0  0  0  0  0  0  0
  1  2  1  0
  3  2  1  0
  3  4  1  6
  5  3  1  0
  6  5  2  0
  7  8  1  0
  8 10  1  0
  9  8  2  0
 10 11  1  0
 11 12  1  0
 12 13  1  0
 14 13  1  1
 14 16  1  0
 14 15  1  0
 15  5  1  0
 16 18  1  0
 17 16  2  0
 18 19  1  0
 20 21  1  0
 20 19  1  0
 22 20  2  0
M  END
$$$$
