SRG.pdb
     RDKit          3D

 22 21  0  0  1  0  0  0  0  0999 V2000
   20.6455  -20.8027  -16.2332 O   0  0  0  0  0  0  0  0  0  0  0  0
   21.8508  -20.5780  -15.5524 C   0  0  0  0  0  0  0  0  0  0  0  0
   21.6263  -20.5437  -14.0521 C   0  0  2  0  0  0  0  0  0  0  0  0
   20.5429  -19.5868  -13.8128 N   0  0  0  0  0  0  0  0  0  0  0  0
   22.8546  -20.0872  -13.3926 C   0  0  0  0  0  0  0  0  0  0  0  0
   23.0744  -18.8491  -13.3013 O   0  0  0  0  0  0  0  0  0  0  0  0
   21.2496  -22.5768   -7.8338 N   0  0  0  0  0  0  0  0  0  0  0  0
   22.1424  -21.5165   -7.5336 C   0  0  0  0  0  0  0  0  0  0  0  0
   22.1723  -21.0382   -6.3434 N   0  0  0  0  0  0  0  0  0  0  0  0
   23.0153  -20.9599   -8.5177 N   0  0  0  0  0  0  0  0  0  0  0  0
   24.4020  -21.2733   -8.6145 C   0  0  0  0  0  0  0  0  0  0  0  0
   25.1159  -20.5150   -9.7077 C   0  0  0  0  0  0  0  0  0  0  0  0
   25.1210  -21.3684  -10.9500 C   0  0  0  0  0  0  0  0  0  0  0  0
   25.0362  -20.6092  -12.2342 C   0  0  2  0  0  0  0  0  0  0  0  0
   23.7728  -21.0213  -12.8701 N   0  0  0  0  0  0  0  0  0  0  0  0
   26.1122  -20.9146  -13.1956 C   0  0  0  0  0  0  0  0  0  0  0  0
   26.2619  -22.0861  -13.6148 O   0  0  0  0  0  0  0  0  0  0  0  0
   22.8705  -20.3246   -6.0989 N   0  0  0  0  0  0  0  0  0  0  0  0
   26.9883  -19.9303  -13.6665 C   0  0  0  0  0  0  0  0  0  0  0  0
   28.0373  -20.2429  -14.6424 C   0  0  0  0  0  0  0  0  0  0  0  0
   27.5835  -19.7897  -15.9675 O   0  0  0  0  0  0  0  0  0  0  0  0
   28.4400  -19.7298  -17.0509 O   0  0  0  0  0  0  0  0  0  0  0  0
  1  2  1  0
  3  2  1  0
  3  4  1  6
  5  3  1  0
  6  5  2  0
  7  8  1  0
  8 10  1  0
  9  8  2  0
 10 11  1  0
 11 12  1  0
 12 13  1  0
 14 13  1  1
 14 16  1  0
 14 15  1  0
 15  5  1  0
 16 18  1  0
 17 16  2  0
 18 19  1  0
 20 21  1  0
 20 19  1  0
 22 20  2  0
M  END
$$$$
