SRG.pdb
     RDKit          3D

 22 21  0  0  1  0  0  0  0  0999 V2000
   27.0236  -18.6803  -17.8563 O   0  0  0  0  0  0  0  0  0  0  0  0
   27.4799  -18.6027  -16.5324 C   0  0  0  0  0  0  0  0  0  0  0  0
   28.1726  -19.8892  -16.1229 C   0  0  2  0  0  0  0  0  0  0  0  0
   28.4058  -20.6491  -17.3537 N   0  0  0  0  0  0  0  0  0  0  0  0
   27.2918  -20.6446  -15.2253 C   0  0  0  0  0  0  0  0  0  0  0  0
   26.7926  -21.7291  -15.6304 O   0  0  0  0  0  0  0  0  0  0  0  0
   22.7634  -20.2564   -9.1965 N   0  0  0  0  0  0  0  0  0  0  0  0
   23.5157  -20.8867   -8.1727 C   0  0  0  0  0  0  0  0  0  0  0  0
   22.9082  -21.3547   -7.1440 N   0  0  0  0  0  0  0  0  0  0  0  0
   24.9359  -21.0193   -8.2487 N   0  0  0  0  0  0  0  0  0  0  0  0
   25.7256  -20.4862   -9.3083 C   0  0  0  0  0  0  0  0  0  0  0  0
   25.3536  -21.0275  -10.6678 C   0  0  0  0  0  0  0  0  0  0  0  0
   26.2540  -20.3890  -11.6940 C   0  0  0  0  0  0  0  0  0  0  0  0
   25.9091  -20.7016  -13.1138 C   0  0  2  0  0  0  0  0  0  0  0  0
   27.0103  -20.1624  -13.9305 N   0  0  0  0  0  0  0  0  0  0  0  0
   24.6719  -20.0598  -13.5966 C   0  0  0  0  0  0  0  0  0  0  0  0
   24.4356  -18.8631  -13.3095 O   0  0  0  0  0  0  0  0  0  0  0  0
   23.4462  -21.8258   -6.4056 N   0  0  0  0  0  0  0  0  0  0  0  0
   23.7349  -20.7469  -14.3763 C   0  0  0  0  0  0  0  0  0  0  0  0
   22.9392  -21.8477  -13.8234 C   0  0  0  0  0  0  0  0  0  0  0  0
   21.5614  -21.3673  -13.6279 O   0  0  0  0  0  0  0  0  0  0  0  0
   20.6947  -21.1852  -14.6893 O   0  0  0  0  0  0  0  0  0  0  0  0
  1  2  1  0
  3  2  1  0
  3  4  1  6
  5  3  1  0
  6  5  2  0
  7  8  1  0
  8 10  1  0
  9  8  2  0
 10 11  1  0
 11 12  1  0
 12 13  1  0
 14 13  1  1
 14 16  1  0
 14 15  1  0
 15  5  1  0
 16 18  1  0
 17 16  2  0
 18 19  1  0
 20 21  1  0
 20 19  1  0
 22 20  2  0
M  END
$$$$
