TTF.pdb
     RDKit          3D

 26 26  0  0  1  0  0  0  0  0999 V2000
    7.8534  -12.1578   19.6113 C   0  0  0  0  0  0  0  0  0  0  0  0
    8.9745  -12.9680   19.0665 C   0  0  1  0  0  0  0  0  0  0  0  0
   10.0183  -12.9893   19.9874 O   0  0  0  0  0  0  0  0  0  0  0  0
    8.6009  -14.4063   18.7756 C   0  0  2  0  0  0  0  0  0  0  0  0
    7.6636  -14.5011   17.6742 N   0  0  0  0  0  0  0  0  0  0  0  0
    7.9983  -14.9897   19.9985 C   0  0  0  0  0  0  0  0  0  0  0  0
    6.7671  -14.8899   20.2640 O   0  0  0  0  0  0  0  0  0  0  0  0
    7.4067  -18.1998   20.7372 C   0  0  0  0  0  0  0  0  0  0  0  0
    8.2143  -17.8436   21.9677 C   0  0  1  0  0  0  0  0  0  0  0  0
    9.4625  -18.4093   21.8213 O   0  0  0  0  0  0  0  0  0  0  0  0
    8.2777  -16.3361   22.1019 C   0  0  2  0  0  0  0  0  0  0  0  0
    8.8012  -15.6971   20.9356 N   0  0  0  0  0  0  0  0  0  0  0  0
    8.9813  -15.9271   23.3397 C   0  0  0  0  0  0  0  0  0  0  0  0
   10.1436  -15.4964   23.2896 O   0  0  0  0  0  0  0  0  0  0  0  0
    8.3357  -16.0227   24.5948 N   0  0  0  0  0  0  0  0  0  0  0  0
    9.0310  -15.8099   25.8650 C   0  0  1  0  0  0  0  0  0  0  0  0
    8.0931  -15.3313   26.9248 C   0  0  0  0  0  0  0  0  0  0  0  0
    7.6094  -13.9800   26.6778 C   0  0  0  0  0  0  0  0  0  0  0  0
    8.4446  -12.8698   26.8417 C   0  0  0  0  0  0  0  0  0  0  0  0
    7.9972  -11.5921   26.5943 C   0  0  0  0  0  0  0  0  0  0  0  0
    6.7116  -11.3549   26.1762 C   0  0  0  0  0  0  0  0  0  0  0  0
    5.8546  -12.4385   26.0032 C   0  0  0  0  0  0  0  0  0  0  0  0
    6.3223  -13.7108   26.2563 C   0  0  0  0  0  0  0  0  0  0  0  0
    9.7707  -17.0019   26.2841 C   0  0  0  0  0  0  0  0  0  0  0  0
    9.4757  -18.3095   25.9856 O   0  0  0  0  0  0  0  0  0  0  0  0
   10.8089  -16.8160   27.0113 O   0  0  0  0  0  0  0  0  0  0  0  0
  2  1  1  1
  2  3  1  0
  2  4  1  0
  4  6  1  0
  4  5  1  6
  6  7  2  0
  9 11  1  0
  9  8  1  6
 10  9  1  0
 11 12  1  6
 12  6  1  0
 13 14  2  0
 13 11  1  0
 15 13  1  0
 16 24  1  0
 16 15  1  0
 16 17  1  1
 18 17  1  0
 19 18  2  0
 20 19  1  0
 21 20  2  0
 21 22  1  0
 22 23  2  0
 23 18  1  0
 24 25  1  0
 26 24  2  0
M  END
$$$$
