TTF.pdb
     RDKit          3D

 26 26  0  0  1  0  0  0  0  0999 V2000
    8.2463  -12.3520   20.5124 C   0  0  0  0  0  0  0  0  0  0  0  0
    7.9618  -12.9276   19.1716 C   0  0  1  0  0  0  0  0  0  0  0  0
    8.4389  -12.0651   18.1885 O   0  0  0  0  0  0  0  0  0  0  0  0
    8.6080  -14.2772   18.9390 C   0  0  2  0  0  0  0  0  0  0  0  0
    8.2976  -14.7966   17.6220 N   0  0  0  0  0  0  0  0  0  0  0  0
    8.1174  -15.2160   19.9768 C   0  0  0  0  0  0  0  0  0  0  0  0
    7.1882  -16.0441   19.7601 O   0  0  0  0  0  0  0  0  0  0  0  0
    9.9588  -17.8587   21.4302 C   0  0  0  0  0  0  0  0  0  0  0  0
    8.5116  -17.6088   21.7996 C   0  0  1  0  0  0  0  0  0  0  0  0
    8.1665  -18.5288   22.7659 O   0  0  0  0  0  0  0  0  0  0  0  0
    8.3613  -16.1814   22.2841 C   0  0  2  0  0  0  0  0  0  0  0  0
    8.6872  -15.2178   21.2801 N   0  0  0  0  0  0  0  0  0  0  0  0
    9.0951  -15.9545   23.5508 C   0  0  0  0  0  0  0  0  0  0  0  0
   10.2927  -15.6314   23.5349 O   0  0  0  0  0  0  0  0  0  0  0  0
    8.4385  -16.1035   24.7949 N   0  0  0  0  0  0  0  0  0  0  0  0
    9.1203  -15.9360   26.0790 C   0  0  1  0  0  0  0  0  0  0  0  0
    8.2033  -15.3652   27.1112 C   0  0  0  0  0  0  0  0  0  0  0  0
    7.7338  -14.0300   26.7681 C   0  0  0  0  0  0  0  0  0  0  0  0
    8.5808  -12.9198   26.8520 C   0  0  0  0  0  0  0  0  0  0  0  0
    8.1467  -11.6584   26.5137 C   0  0  0  0  0  0  0  0  0  0  0  0
    6.8633  -11.4381   26.0798 C   0  0  0  0  0  0  0  0  0  0  0  0
    5.9947  -12.5222   25.9850 C   0  0  0  0  0  0  0  0  0  0  0  0
    6.4492  -13.7780   26.3286 C   0  0  0  0  0  0  0  0  0  0  0  0
    9.7441  -17.1823   26.5280 C   0  0  0  0  0  0  0  0  0  0  0  0
    9.6335  -18.4219   25.9475 O   0  0  0  0  0  0  0  0  0  0  0  0
   10.4750  -17.1211   27.5783 O   0  0  0  0  0  0  0  0  0  0  0  0
  2  1  1  1
  2  3  1  0
  2  4  1  0
  4  6  1  0
  4  5  1  6
  6  7  2  0
  9 11  1  0
  9  8  1  1
 10  9  1  0
 11 12  1  6
 12  6  1  0
 13 14  2  0
 13 11  1  0
 15 13  1  0
 16 24  1  0
 16 15  1  0
 16 17  1  1
 18 17  1  0
 19 18  2  0
 20 19  1  0
 21 20  2  0
 21 22  1  0
 22 23  2  0
 23 18  1  0
 24 25  1  0
 26 24  2  0
M  END
$$$$
