TTF.pdb
     RDKit          3D

 26 26  0  0  1  0  0  0  0  0999 V2000
   11.2978  -14.3591   20.3537 C   0  0  0  0  0  0  0  0  0  0  0  0
   10.4950  -13.3855   19.5678 C   0  0  1  0  0  0  0  0  0  0  0  0
   11.1890  -13.0429   18.4106 O   0  0  0  0  0  0  0  0  0  0  0  0
    9.1422  -13.9156   19.1415 C   0  0  2  0  0  0  0  0  0  0  0  0
    8.4102  -12.9399   18.3586 N   0  0  0  0  0  0  0  0  0  0  0  0
    8.3705  -14.2622   20.3594 C   0  0  0  0  0  0  0  0  0  0  0  0
    7.5907  -13.4453   20.9258 O   0  0  0  0  0  0  0  0  0  0  0  0
    6.1498  -17.2647   20.7815 C   0  0  0  0  0  0  0  0  0  0  0  0
    7.1018  -17.3097   21.9582 C   0  0  1  0  0  0  0  0  0  0  0  0
    8.0132  -18.3144   21.7148 O   0  0  0  0  0  0  0  0  0  0  0  0
    7.7647  -15.9566   22.1137 C   0  0  2  0  0  0  0  0  0  0  0  0
    8.4828  -15.5534   20.9456 N   0  0  0  0  0  0  0  0  0  0  0  0
    8.5914  -15.8911   23.3413 C   0  0  0  0  0  0  0  0  0  0  0  0
    9.8272  -15.8162   23.2642 O   0  0  0  0  0  0  0  0  0  0  0  0
    7.9809  -15.9132   24.6172 N   0  0  0  0  0  0  0  0  0  0  0  0
    8.7459  -15.9076   25.8649 C   0  0  1  0  0  0  0  0  0  0  0  0
    7.9605  -15.3006   26.9816 C   0  0  0  0  0  0  0  0  0  0  0  0
    7.4826  -13.9611   26.6683 C   0  0  0  0  0  0  0  0  0  0  0  0
    6.1595  -13.7376   26.2725 C   0  0  0  0  0  0  0  0  0  0  0  0
    5.6985  -12.4719   25.9907 C   0  0  0  0  0  0  0  0  0  0  0  0
    6.5194  -11.3760   26.0864 C   0  0  0  0  0  0  0  0  0  0  0  0
    7.8423  -11.5642   26.4778 C   0  0  0  0  0  0  0  0  0  0  0  0
    8.2845  -12.8404   26.7559 C   0  0  0  0  0  0  0  0  0  0  0  0
    9.2395  -17.2437   26.2039 C   0  0  0  0  0  0  0  0  0  0  0  0
   10.2039  -17.5625   27.1282 O   0  0  0  0  0  0  0  0  0  0  0  0
    8.7222  -18.2318   25.5736 O   0  0  0  0  0  0  0  0  0  0  0  0
  2  1  1  6
  2  3  1  0
  2  4  1  0
  4  6  1  0
  4  5  1  1
  6  7  2  0
  9 11  1  0
  9  8  1  6
 10  9  1  0
 11 12  1  6
 12  6  1  0
 13 14  2  0
 13 11  1  0
 15 13  1  0
 16 24  1  0
 16 15  1  0
 16 17  1  1
 18 17  1  0
 19 18  2  0
 20 19  1  0
 21 20  2  0
 21 22  1  0
 22 23  2  0
 23 18  1  0
 24 25  1  0
 26 24  2  0
M  END
$$$$
