TTF.pdb
     RDKit          3D

 26 26  0  0  1  0  0  0  0  0999 V2000
    9.7705  -20.0797   18.3291 C   0  0  0  0  0  0  0  0  0  0  0  0
   10.4630  -19.2157   17.3372 C   0  0  1  0  0  0  0  0  0  0  0  0
   10.4680  -19.8492   16.0975 O   0  0  0  0  0  0  0  0  0  0  0  0
    9.8109  -17.8621   17.1487 C   0  0  2  0  0  0  0  0  0  0  0  0
   10.4008  -17.1361   16.0417 N   0  0  0  0  0  0  0  0  0  0  0  0
    9.9740  -17.0856   18.4015 C   0  0  0  0  0  0  0  0  0  0  0  0
   11.0523  -16.5006   18.7034 O   0  0  0  0  0  0  0  0  0  0  0  0
    7.4268  -14.5080   19.8762 C   0  0  0  0  0  0  0  0  0  0  0  0
    7.7303  -15.5404   20.9417 C   0  0  1  0  0  0  0  0  0  0  0  0
    6.6426  -16.3827   21.0234 O   0  0  0  0  0  0  0  0  0  0  0  0
    9.0019  -16.2765   20.5730 C   0  0  2  0  0  0  0  0  0  0  0  0
    8.9002  -16.9693   19.3270 N   0  0  0  0  0  0  0  0  0  0  0  0
    9.4656  -17.1514   21.6749 C   0  0  0  0  0  0  0  0  0  0  0  0
    9.2666  -18.3751   21.6327 O   0  0  0  0  0  0  0  0  0  0  0  0
   10.1414  -16.6014   22.7893 N   0  0  0  0  0  0  0  0  0  0  0  0
   10.6086  -17.4115   23.9151 C   0  0  1  0  0  0  0  0  0  0  0  0
   12.0035  -17.0460   24.3062 C   0  0  0  0  0  0  0  0  0  0  0  0
   12.9832  -17.4028   23.2896 C   0  0  0  0  0  0  0  0  0  0  0  0
   12.6959  -18.3591   22.3097 C   0  0  0  0  0  0  0  0  0  0  0  0
   13.6123  -18.6884   21.3373 C   0  0  0  0  0  0  0  0  0  0  0  0
   14.8472  -18.0912   21.2893 C   0  0  0  0  0  0  0  0  0  0  0  0
   15.1647  -17.1349   22.2502 C   0  0  0  0  0  0  0  0  0  0  0  0
   14.2325  -16.8191   23.2160 C   0  0  0  0  0  0  0  0  0  0  0  0
    9.6854  -17.3462   25.0497 C   0  0  0  0  0  0  0  0  0  0  0  0
    9.6896  -18.1406   26.1700 O   0  0  0  0  0  0  0  0  0  0  0  0
    8.7675  -16.4539   25.0016 O   0  0  0  0  0  0  0  0  0  0  0  0
  2  1  1  1
  2  3  1  0
  2  4  1  0
  4  6  1  0
  4  5  1  6
  6  7  2  0
  9 11  1  0
  9  8  1  6
 10  9  1  0
 11 12  1  6
 12  6  1  0
 13 14  2  0
 13 11  1  0
 15 13  1  0
 16 24  1  0
 16 15  1  0
 16 17  1  1
 18 17  1  0
 19 18  2  0
 20 19  1  0
 21 20  2  0
 21 22  1  0
 22 23  2  0
 23 18  1  0
 24 25  1  0
 26 24  2  0
M  END
$$$$
