TTF.pdb
     RDKit          3D

 26 26  0  0  1  0  0  0  0  0999 V2000
   11.2311  -14.0108   20.4438 C   0  0  0  0  0  0  0  0  0  0  0  0
   10.3995  -13.2692   19.4596 C   0  0  1  0  0  0  0  0  0  0  0  0
   11.1679  -12.9720   18.3375 O   0  0  0  0  0  0  0  0  0  0  0  0
    9.1867  -14.0408   18.9836 C   0  0  2  0  0  0  0  0  0  0  0  0
    8.3768  -13.2532   18.0756 N   0  0  0  0  0  0  0  0  0  0  0  0
    8.3820  -14.4253   20.1683 C   0  0  0  0  0  0  0  0  0  0  0  0
    7.2583  -13.9076   20.4243 O   0  0  0  0  0  0  0  0  0  0  0  0
    6.6509  -17.2047   20.5969 C   0  0  0  0  0  0  0  0  0  0  0  0
    7.4884  -17.2929   21.8555 C   0  0  1  0  0  0  0  0  0  0  0  0
    8.4594  -18.2470   21.6402 O   0  0  0  0  0  0  0  0  0  0  0  0
    8.0773  -15.9304   22.1576 C   0  0  2  0  0  0  0  0  0  0  0  0
    8.8561  -15.4110   21.0777 N   0  0  0  0  0  0  0  0  0  0  0  0
    8.8125  -15.9261   23.4436 C   0  0  0  0  0  0  0  0  0  0  0  0
   10.0500  -15.8408   23.4605 O   0  0  0  0  0  0  0  0  0  0  0  0
    8.1118  -16.0192   24.6690 N   0  0  0  0  0  0  0  0  0  0  0  0
    8.7773  -15.9679   25.9715 C   0  0  1  0  0  0  0  0  0  0  0  0
    7.8899  -15.3668   27.0123 C   0  0  0  0  0  0  0  0  0  0  0  0
    7.4654  -14.0151   26.6754 C   0  0  0  0  0  0  0  0  0  0  0  0
    8.3738  -12.9512   26.6658 C   0  0  0  0  0  0  0  0  0  0  0  0
    7.9811  -11.6749   26.3328 C   0  0  0  0  0  0  0  0  0  0  0  0
    6.6806  -11.3937   25.9962 C   0  0  0  0  0  0  0  0  0  0  0  0
    5.7513  -12.4306   25.9959 C   0  0  0  0  0  0  0  0  0  0  0  0
    6.1649  -13.7022   26.3325 C   0  0  0  0  0  0  0  0  0  0  0  0
    9.2832  -17.2818   26.3736 C   0  0  0  0  0  0  0  0  0  0  0  0
    9.0873  -18.4791   25.7302 O   0  0  0  0  0  0  0  0  0  0  0  0
    9.9862  -17.3315   27.4433 O   0  0  0  0  0  0  0  0  0  0  0  0
  2  1  1  1
  2  3  1  0
  2  4  1  0
  4  6  1  0
  4  5  1  6
  6  7  2  0
  9 11  1  0
  9  8  1  6
 10  9  1  0
 11 12  1  6
 12  6  1  0
 13 14  2  0
 13 11  1  0
 15 13  1  0
 16 24  1  0
 16 15  1  0
 16 17  1  1
 18 17  1  0
 19 18  2  0
 20 19  1  0
 21 20  2  0
 21 22  1  0
 22 23  2  0
 23 18  1  0
 24 25  1  0
 26 24  2  0
M  END
$$$$
