TTF.pdb
     RDKit          3D

 26 26  0  0  1  0  0  0  0  0999 V2000
    9.0733  -12.6973   19.2401 C   0  0  0  0  0  0  0  0  0  0  0  0
    8.4694  -13.3851   18.0686 C   0  0  1  0  0  0  0  0  0  0  0  0
    8.8063  -12.6977   16.9058 O   0  0  0  0  0  0  0  0  0  0  0  0
    8.9340  -14.8160   17.8966 C   0  0  2  0  0  0  0  0  0  0  0  0
    8.4099  -15.4038   16.6799 N   0  0  0  0  0  0  0  0  0  0  0  0
    8.4777  -15.6003   19.0695 C   0  0  0  0  0  0  0  0  0  0  0  0
    7.2564  -15.8187   19.3080 O   0  0  0  0  0  0  0  0  0  0  0  0
    9.6537  -19.0237   20.3500 C   0  0  0  0  0  0  0  0  0  0  0  0
    9.8594  -18.0395   21.4824 C   0  0  1  0  0  0  0  0  0  0  0  0
   11.2104  -17.7801   21.5646 O   0  0  0  0  0  0  0  0  0  0  0  0
    9.0489  -16.7895   21.2084 C   0  0  2  0  0  0  0  0  0  0  0  0
    9.4180  -16.1460   19.9868 N   0  0  0  0  0  0  0  0  0  0  0  0
    9.0625  -15.8650   22.3658 C   0  0  0  0  0  0  0  0  0  0  0  0
    9.8673  -14.9219   22.4081 O   0  0  0  0  0  0  0  0  0  0  0  0
    8.1574  -16.0467   23.4376 N   0  0  0  0  0  0  0  0  0  0  0  0
    8.0941  -15.1428   24.5870 C   0  0  1  0  0  0  0  0  0  0  0  0
    6.8704  -14.2870   24.5391 C   0  0  0  0  0  0  0  0  0  0  0  0
    6.7730  -13.3828   25.6765 C   0  0  0  0  0  0  0  0  0  0  0  0
    7.7588  -12.4219   25.9253 C   0  0  0  0  0  0  0  0  0  0  0  0
    7.6637  -11.5545   26.9895 C   0  0  0  0  0  0  0  0  0  0  0  0
    6.5962  -11.5972   27.8513 C   0  0  0  0  0  0  0  0  0  0  0  0
    5.5975  -12.5421   27.6316 C   0  0  0  0  0  0  0  0  0  0  0  0
    5.7116  -13.4020   26.5596 C   0  0  0  0  0  0  0  0  0  0  0  0
    8.2074  -15.8682   25.8537 C   0  0  0  0  0  0  0  0  0  0  0  0
    7.4059  -16.8904   26.2994 O   0  0  0  0  0  0  0  0  0  0  0  0
    9.1548  -15.5177   26.6416 O   0  0  0  0  0  0  0  0  0  0  0  0
  2  1  1  1
  2  3  1  0
  2  4  1  0
  4  6  1  0
  4  5  1  6
  6  7  2  0
  9 11  1  0
  9  8  1  6
 10  9  1  0
 11 12  1  6
 12  6  1  0
 13 14  2  0
 13 11  1  0
 15 13  1  0
 16 24  1  0
 16 15  1  0
 16 17  1  1
 18 17  1  0
 19 18  2  0
 20 19  1  0
 21 20  2  0
 21 22  1  0
 22 23  2  0
 23 18  1  0
 24 25  1  0
 26 24  2  0
M  END
$$$$
