TTF.pdb
     RDKit          3D

 26 26  0  0  1  0  0  0  0  0999 V2000
   10.9343  -13.9957   20.5641 C   0  0  0  0  0  0  0  0  0  0  0  0
    9.9673  -13.0622   19.9287 C   0  0  1  0  0  0  0  0  0  0  0  0
   10.5739  -12.4393   18.8415 O   0  0  0  0  0  0  0  0  0  0  0  0
    8.7132  -13.7396   19.4178 C   0  0  2  0  0  0  0  0  0  0  0  0
    7.8255  -12.7964   18.7673 N   0  0  0  0  0  0  0  0  0  0  0  0
    8.0201  -14.3697   20.5674 C   0  0  0  0  0  0  0  0  0  0  0  0
    7.0924  -13.7924   21.2016 O   0  0  0  0  0  0  0  0  0  0  0  0
    6.5830  -18.2907   23.0047 C   0  0  0  0  0  0  0  0  0  0  0  0
    7.4121  -17.7608   21.8536 C   0  0  1  0  0  0  0  0  0  0  0  0
    6.6586  -17.8905   20.7070 O   0  0  0  0  0  0  0  0  0  0  0  0
    7.7900  -16.3210   22.1342 C   0  0  2  0  0  0  0  0  0  0  0  0
    8.3825  -15.6733   21.0063 N   0  0  0  0  0  0  0  0  0  0  0  0
    8.6159  -16.2016   23.3582 C   0  0  0  0  0  0  0  0  0  0  0  0
    9.8542  -16.2028   23.2842 O   0  0  0  0  0  0  0  0  0  0  0  0
    8.0018  -16.0848   24.6273 N   0  0  0  0  0  0  0  0  0  0  0  0
    8.7632  -15.9397   25.8687 C   0  0  1  0  0  0  0  0  0  0  0  0
    7.9280  -15.3387   26.9519 C   0  0  0  0  0  0  0  0  0  0  0  0
    7.4259  -14.0164   26.6051 C   0  0  0  0  0  0  0  0  0  0  0  0
    8.2859  -12.9176   26.5050 C   0  0  0  0  0  0  0  0  0  0  0  0
    7.8189  -11.6693   26.1622 C   0  0  0  0  0  0  0  0  0  0  0  0
    6.4885  -11.4514   25.9043 C   0  0  0  0  0  0  0  0  0  0  0  0
    5.6058  -12.5243   25.9953 C   0  0  0  0  0  0  0  0  0  0  0  0
    6.0938  -13.7671   26.3401 C   0  0  0  0  0  0  0  0  0  0  0  0
    9.3709  -17.2059   26.2827 C   0  0  0  0  0  0  0  0  0  0  0  0
    9.1529  -18.4481   25.7392 O   0  0  0  0  0  0  0  0  0  0  0  0
   10.1979  -17.1616   27.2601 O   0  0  0  0  0  0  0  0  0  0  0  0
  2  1  1  6
  2  3  1  0
  2  4  1  0
  4  6  1  0
  4  5  1  1
  6  7  2  0
  9 11  1  0
  9  8  1  1
 10  9  1  0
 11 12  1  6
 12  6  1  0
 13 14  2  0
 13 11  1  0
 15 13  1  0
 16 24  1  0
 16 15  1  0
 16 17  1  1
 18 17  1  0
 19 18  2  0
 20 19  1  0
 21 20  2  0
 21 22  1  0
 22 23  2  0
 23 18  1  0
 24 25  1  0
 26 24  2  0
M  END
$$$$
