TTF.pdb
     RDKit          3D

 26 26  0  0  1  0  0  0  0  0999 V2000
    9.3543  -12.4596   20.4007 C   0  0  0  0  0  0  0  0  0  0  0  0
    8.5757  -12.8195   19.1865 C   0  0  1  0  0  0  0  0  0  0  0  0
    9.2004  -12.2856   18.0628 O   0  0  0  0  0  0  0  0  0  0  0  0
    8.4489  -14.3121   18.9649 C   0  0  2  0  0  0  0  0  0  0  0  0
    7.6346  -14.6111   17.8038 N   0  0  0  0  0  0  0  0  0  0  0  0
    7.8380  -14.9145   20.1745 C   0  0  0  0  0  0  0  0  0  0  0  0
    6.5991  -14.8514   20.4138 O   0  0  0  0  0  0  0  0  0  0  0  0
    7.1073  -18.0349   20.7855 C   0  0  0  0  0  0  0  0  0  0  0  0
    7.9943  -17.8022   21.9905 C   0  0  1  0  0  0  0  0  0  0  0  0
    9.2157  -18.3820   21.7233 O   0  0  0  0  0  0  0  0  0  0  0  0
    8.1074  -16.3132   22.2448 C   0  0  2  0  0  0  0  0  0  0  0  0
    8.6415  -15.5989   21.1280 N   0  0  0  0  0  0  0  0  0  0  0  0
    8.8341  -16.0277   23.5038 C   0  0  0  0  0  0  0  0  0  0  0  0
   10.0066  -15.6237   23.4756 O   0  0  0  0  0  0  0  0  0  0  0  0
    8.1990  -16.2124   24.7543 N   0  0  0  0  0  0  0  0  0  0  0  0
    8.8673  -15.9563   26.0310 C   0  0  1  0  0  0  0  0  0  0  0  0
    7.9018  -15.4700   27.0622 C   0  0  0  0  0  0  0  0  0  0  0  0
    7.3705  -14.1493   26.7552 C   0  0  0  0  0  0  0  0  0  0  0  0
    8.1813  -13.0106   26.8114 C   0  0  0  0  0  0  0  0  0  0  0  0
    7.6883  -11.7624   26.5069 C   0  0  0  0  0  0  0  0  0  0  0  0
    6.3791  -11.5837   26.1352 C   0  0  0  0  0  0  0  0  0  0  0  0
    5.5454  -12.6969   26.0693 C   0  0  0  0  0  0  0  0  0  0  0  0
    6.0589  -13.9388   26.3783 C   0  0  0  0  0  0  0  0  0  0  0  0
    9.6210  -17.1239   26.4919 C   0  0  0  0  0  0  0  0  0  0  0  0
    9.6882  -18.3578   25.8929 O   0  0  0  0  0  0  0  0  0  0  0  0
   10.2946  -16.9910   27.5734 O   0  0  0  0  0  0  0  0  0  0  0  0
  2  1  1  1
  2  3  1  0
  2  4  1  0
  4  6  1  0
  4  5  1  6
  6  7  2  0
  9 11  1  0
  9  8  1  6
 10  9  1  0
 11 12  1  6
 12  6  1  0
 13 14  2  0
 13 11  1  0
 15 13  1  0
 16 24  1  0
 16 15  1  0
 16 17  1  1
 18 17  1  0
 19 18  2  0
 20 19  1  0
 21 20  2  0
 21 22  1  0
 22 23  2  0
 23 18  1  0
 24 25  1  0
 26 24  2  0
M  END
$$$$
