TTF.pdb
     RDKit          3D

 26 26  0  0  1  0  0  0  0  0999 V2000
   10.0473  -12.8047   20.4574 C   0  0  0  0  0  0  0  0  0  0  0  0
    9.2485  -12.8227   19.2037 C   0  0  1  0  0  0  0  0  0  0  0  0
   10.0028  -12.2777   18.1683 O   0  0  0  0  0  0  0  0  0  0  0  0
    8.8261  -14.2109   18.7709 C   0  0  2  0  0  0  0  0  0  0  0  0
    8.0020  -14.1699   17.5793 N   0  0  0  0  0  0  0  0  0  0  0  0
    8.0701  -14.8377   19.8821 C   0  0  0  0  0  0  0  0  0  0  0  0
    6.8317  -14.6534   20.0510 O   0  0  0  0  0  0  0  0  0  0  0  0
    6.8968  -17.9067   20.5447 C   0  0  0  0  0  0  0  0  0  0  0  0
    7.7647  -17.7305   21.7731 C   0  0  1  0  0  0  0  0  0  0  0  0
    8.9008  -18.4887   21.5891 O   0  0  0  0  0  0  0  0  0  0  0  0
    8.0775  -16.2595   21.9542 C   0  0  2  0  0  0  0  0  0  0  0  0
    8.7257  -15.6862   20.8168 N   0  0  0  0  0  0  0  0  0  0  0  0
    8.8132  -16.0088   23.2154 C   0  0  0  0  0  0  0  0  0  0  0  0
   10.0259  -15.7486   23.1952 O   0  0  0  0  0  0  0  0  0  0  0  0
    8.1410  -16.0630   24.4589 N   0  0  0  0  0  0  0  0  0  0  0  0
    8.8218  -15.8692   25.7399 C   0  0  1  0  0  0  0  0  0  0  0  0
    7.9017  -15.2851   26.7619 C   0  0  0  0  0  0  0  0  0  0  0  0
    7.5228  -13.9125   26.4567 C   0  0  0  0  0  0  0  0  0  0  0  0
    8.4601  -12.8748   26.5005 C   0  0  0  0  0  0  0  0  0  0  0  0
    8.1109  -11.5786   26.1976 C   0  0  0  0  0  0  0  0  0  0  0  0
    6.8269  -11.2508   25.8399 C   0  0  0  0  0  0  0  0  0  0  0  0
    5.8697  -12.2605   25.7866 C   0  0  0  0  0  0  0  0  0  0  0  0
    6.2400  -13.5528   26.0937 C   0  0  0  0  0  0  0  0  0  0  0  0
    9.4522  -17.1040   26.2108 C   0  0  0  0  0  0  0  0  0  0  0  0
   10.4032  -17.2278   27.1938 O   0  0  0  0  0  0  0  0  0  0  0  0
    9.0841  -18.1952   25.6497 O   0  0  0  0  0  0  0  0  0  0  0  0
  2  1  1  1
  2  3  1  0
  2  4  1  0
  4  6  1  0
  4  5  1  6
  6  7  2  0
  9 11  1  0
  9  8  1  6
 10  9  1  0
 11 12  1  6
 12  6  1  0
 13 14  2  0
 13 11  1  0
 15 13  1  0
 16 24  1  0
 16 15  1  0
 16 17  1  1
 18 17  1  0
 19 18  2  0
 20 19  1  0
 21 20  2  0
 21 22  1  0
 22 23  2  0
 23 18  1  0
 24 25  1  0
 26 24  2  0
M  END
$$$$
