TTF.pdb
     RDKit          3D

 26 26  0  0  1  0  0  0  0  0999 V2000
    9.7563  -11.9414   18.8969 C   0  0  0  0  0  0  0  0  0  0  0  0
    9.1315  -12.9964   19.7376 C   0  0  1  0  0  0  0  0  0  0  0  0
    7.9000  -12.5451   20.2043 O   0  0  0  0  0  0  0  0  0  0  0  0
    8.8850  -14.2958   19.0003 C   0  0  2  0  0  0  0  0  0  0  0  0
    7.9921  -14.1084   17.8741 N   0  0  0  0  0  0  0  0  0  0  0  0
    8.2954  -15.2689   19.9514 C   0  0  0  0  0  0  0  0  0  0  0  0
    7.2712  -15.9548   19.6747 O   0  0  0  0  0  0  0  0  0  0  0  0
    7.9288  -17.9930   20.2356 C   0  0  0  0  0  0  0  0  0  0  0  0
    8.6701  -17.8928   21.5523 C   0  0  1  0  0  0  0  0  0  0  0  0
    9.9967  -18.1700   21.3023 O   0  0  0  0  0  0  0  0  0  0  0  0
    8.4708  -16.5072   22.1311 C   0  0  2  0  0  0  0  0  0  0  0  0
    8.8738  -15.4689   21.2354 N   0  0  0  0  0  0  0  0  0  0  0  0
    9.0942  -16.3791   23.4688 C   0  0  0  0  0  0  0  0  0  0  0  0
   10.2726  -16.0081   23.5808 O   0  0  0  0  0  0  0  0  0  0  0  0
    8.3525  -16.6787   24.6356 N   0  0  0  0  0  0  0  0  0  0  0  0
    8.7483  -16.2219   25.9685 C   0  0  1  0  0  0  0  0  0  0  0  0
    7.5727  -15.7226   26.7436 C   0  0  0  0  0  0  0  0  0  0  0  0
    7.2305  -14.3448   26.4189 C   0  0  0  0  0  0  0  0  0  0  0  0
    5.9323  -13.9913   26.0357 C   0  0  0  0  0  0  0  0  0  0  0  0
    5.5998  -12.6883   25.7432 C   0  0  0  0  0  0  0  0  0  0  0  0
    6.5297  -11.6813   25.8155 C   0  0  0  0  0  0  0  0  0  0  0  0
    7.8313  -11.9998   26.1940 C   0  0  0  0  0  0  0  0  0  0  0  0
    8.1440  -13.3113   26.4830 C   0  0  0  0  0  0  0  0  0  0  0  0
    9.4883  -17.2538   26.6975 C   0  0  0  0  0  0  0  0  0  0  0  0
   10.2934  -17.0781   27.7960 O   0  0  0  0  0  0  0  0  0  0  0  0
    9.3808  -18.4569   26.2709 O   0  0  0  0  0  0  0  0  0  0  0  0
  2  1  1  6
  2  3  1  0
  2  4  1  0
  4  6  1  0
  4  5  1  6
  6  7  2  0
  9 11  1  0
  9  8  1  6
 10  9  1  0
 11 12  1  6
 12  6  1  0
 13 14  2  0
 13 11  1  0
 15 13  1  0
 16 24  1  0
 16 15  1  0
 16 17  1  1
 18 17  1  0
 19 18  2  0
 20 19  1  0
 21 20  2  0
 21 22  1  0
 22 23  2  0
 23 18  1  0
 24 25  1  0
 26 24  2  0
M  END
$$$$
