YRE.pdb
     RDKit          3D

 33 33  0  0  1  0  0  0  0  0999 V2000
   16.4369   -9.0069  -24.6439 O   0  0  0  0  0  0  0  0  0  0  0  0
   16.9439   -8.6968  -23.3902 C   0  0  0  0  0  0  0  0  0  0  0  0
   16.1541   -7.9357  -22.5496 C   0  0  0  0  0  0  0  0  0  0  0  0
   16.6238   -7.6158  -21.3155 C   0  0  0  0  0  0  0  0  0  0  0  0
   17.8719   -8.0194  -20.8493 C   0  0  0  0  0  0  0  0  0  0  0  0
   18.3088   -7.6379  -19.5095 C   0  0  0  0  0  0  0  0  0  0  0  0
   18.4203   -8.8666  -18.6379 C   0  0  2  0  0  0  0  0  0  0  0  0
   17.0709   -9.2042  -18.2222 N   0  0  0  0  0  0  0  0  0  0  0  0
   19.1876   -8.5906  -17.3954 C   0  0  0  0  0  0  0  0  0  0  0  0
   18.5791   -7.9694  -16.4858 O   0  0  0  0  0  0  0  0  0  0  0  0
   18.6438   -8.7767  -21.7015 C   0  0  0  0  0  0  0  0  0  0  0  0
   18.1894   -9.1225  -22.9772 C   0  0  0  0  0  0  0  0  0  0  0  0
   25.5171  -13.8211  -15.7813 N   0  0  0  0  0  0  0  0  0  0  0  0
   24.1485  -14.1628  -15.6861 C   0  0  0  0  0  0  0  0  0  0  0  0
   23.8247  -15.4169  -15.5956 N   0  0  0  0  0  0  0  0  0  0  0  0
   23.1030  -13.2138  -15.6893 N   0  0  0  0  0  0  0  0  0  0  0  0
   23.3680  -11.8168  -15.6506 C   0  0  0  0  0  0  0  0  0  0  0  0
   22.1678  -10.9219  -15.6645 C   0  0  0  0  0  0  0  0  0  0  0  0
   22.4678   -9.4632  -15.7470 C   0  0  0  0  0  0  0  0  0  0  0  0
   21.1901   -8.6281  -15.9185 C   0  0  2  0  0  0  0  0  0  0  0  0
   20.5227   -8.9637  -17.1579 N   0  0  0  0  0  0  0  0  0  0  0  0
   21.4842   -7.1823  -15.7975 C   0  0  0  0  0  0  0  0  0  0  0  0
   22.1586   -6.6411  -16.7218 O   0  0  0  0  0  0  0  0  0  0  0  0
   22.8483  -15.7509  -15.6986 N   0  0  0  0  0  0  0  0  0  0  0  0
   21.0730   -6.3516  -14.7298 C   0  0  1  0  0  0  0  0  0  0  0  0
   21.3629   -4.9115  -14.6728 C   0  0  0  0  0  0  0  0  0  0  0  0
   20.0874   -4.1078  -14.7019 C   0  0  0  0  0  0  0  0  0  0  0  0
   20.2629   -2.6490  -14.4686 C   0  0  0  0  0  0  0  0  0  0  0  0
   19.0381   -1.8496  -14.5104 O   0  0  0  0  0  0  0  0  0  0  0  0
   19.0275   -0.6086  -14.3246 C   0  0  0  0  0  0  0  0  0  0  0  0
   22.0927   -4.6698  -13.4077 O   0  0  0  0  0  0  0  0  0  0  0  0
   22.6309   -3.5640  -13.1682 O   0  0  0  0  0  0  0  0  0  0  0  0
   17.7891   -2.4272  -14.7633 O   0  0  0  0  0  0  0  0  0  0  0  0
  2  1  1  0
  3  2  2  0
  4  3  1  0
  5 11  1  0
  5  4  2  0
  6  5  1  0
  7  9  1  0
  7  6  1  0
  7  8  1  1
  9 10  2  0
  9 21  1  0
 11 12  2  0
 12  2  1  0
 13 14  1  0
 14 15  2  0
 14 16  1  0
 16 17  1  0
 17 18  1  0
 19 18  1  0
 20 19  1  6
 21 20  1  0
 22 24  1  0
 22 20  1  0
 23 22  2  0
 25 30  1  0
 25 24  1  0
 25 26  1  6
 26 27  1  0
 27 28  1  0
 28 32  1  0
 29 28  2  0
 30 33  1  0
 31 30  2  0
M  END
$$$$
