YRE.pdb
     RDKit          3D

 33 33  0  0  1  0  0  0  0  0999 V2000
   22.4016  -11.8236  -21.2456 O   0  0  0  0  0  0  0  0  0  0  0  0
   22.3095  -13.0404  -20.5854 C   0  0  0  0  0  0  0  0  0  0  0  0
   23.0057  -13.1810  -19.3999 C   0  0  0  0  0  0  0  0  0  0  0  0
   22.9350  -14.3612  -18.7308 C   0  0  0  0  0  0  0  0  0  0  0  0
   22.1899  -15.4472  -19.1820 C   0  0  0  0  0  0  0  0  0  0  0  0
   22.1606  -16.6844  -18.4075 C   0  0  0  0  0  0  0  0  0  0  0  0
   23.4154  -17.4832  -18.6707 C   0  0  2  0  0  0  0  0  0  0  0  0
   23.2621  -18.0745  -19.9878 N   0  0  0  0  0  0  0  0  0  0  0  0
   23.5575  -18.6129  -17.7154 C   0  0  0  0  0  0  0  0  0  0  0  0
   22.7473  -19.5665  -17.8486 O   0  0  0  0  0  0  0  0  0  0  0  0
   21.5035  -15.2876  -20.3649 C   0  0  0  0  0  0  0  0  0  0  0  0
   21.5559  -14.0861  -21.0771 C   0  0  0  0  0  0  0  0  0  0  0  0
   28.2283  -23.5704  -16.6418 N   0  0  0  0  0  0  0  0  0  0  0  0
   28.9928  -22.3940  -16.8176 C   0  0  0  0  0  0  0  0  0  0  0  0
   29.7316  -22.2847  -17.8797 N   0  0  0  0  0  0  0  0  0  0  0  0
   29.0054  -21.3240  -15.8965 N   0  0  0  0  0  0  0  0  0  0  0  0
   27.9604  -21.1486  -14.9476 C   0  0  0  0  0  0  0  0  0  0  0  0
   26.5808  -21.0063  -15.5113 C   0  0  0  0  0  0  0  0  0  0  0  0
   25.7807  -19.8805  -14.9483 C   0  0  0  0  0  0  0  0  0  0  0  0
   24.4328  -19.7242  -15.6681 C   0  0  2  0  0  0  0  0  0  0  0  0
   24.5135  -18.7004  -16.6876 N   0  0  0  0  0  0  0  0  0  0  0  0
   23.3408  -19.4842  -14.6979 C   0  0  0  0  0  0  0  0  0  0  0  0
   23.4268  -18.4602  -13.9589 O   0  0  0  0  0  0  0  0  0  0  0  0
   30.3455  -21.4667  -18.0518 N   0  0  0  0  0  0  0  0  0  0  0  0
   22.2045  -20.3080  -14.5266 C   0  0  1  0  0  0  0  0  0  0  0  0
   21.1515  -20.0316  -13.5386 C   0  0  0  0  0  0  0  0  0  0  0  0
   20.2876  -18.8797  -13.9863 C   0  0  0  0  0  0  0  0  0  0  0  0
   19.7466  -19.0043  -15.3666 C   0  0  0  0  0  0  0  0  0  0  0  0
   18.9224  -17.8862  -15.8265 O   0  0  0  0  0  0  0  0  0  0  0  0
   17.6791  -17.9715  -15.9739 C   0  0  0  0  0  0  0  0  0  0  0  0
   20.3409  -21.2643  -13.4183 O   0  0  0  0  0  0  0  0  0  0  0  0
   19.3701  -21.3300  -12.6290 O   0  0  0  0  0  0  0  0  0  0  0  0
   19.4769  -16.6389  -16.1336 O   0  0  0  0  0  0  0  0  0  0  0  0
  2  1  1  0
  3  2  2  0
  4  3  1  0
  5 11  1  0
  5  4  2  0
  6  5  1  0
  7  9  1  0
  7  6  1  0
  7  8  1  6
  9 10  2  0
  9 21  1  0
 11 12  2  0
 12  2  1  0
 13 14  1  0
 14 15  2  0
 14 16  1  0
 16 17  1  0
 17 18  1  0
 19 18  1  0
 20 19  1  1
 21 20  1  0
 22 24  1  0
 22 20  1  0
 23 22  2  0
 25 30  1  0
 25 24  1  0
 25 26  1  1
 26 27  1  0
 27 28  1  0
 28 32  1  0
 29 28  2  0
 30 33  1  0
 31 30  2  0
M  END
$$$$
