YTL.pdb
     RDKit          3D

 28 28  0  0  1  0  0  0  0  0999 V2000
    8.0618  -13.4422   14.9835 O   0  0  0  0  0  0  0  0  0  0  0  0
    8.0961  -13.6169   16.3686 C   0  0  0  0  0  0  0  0  0  0  0  0
    7.2616  -12.8074   17.1328 C   0  0  0  0  0  0  0  0  0  0  0  0
    7.2524  -12.9363   18.5216 C   0  0  0  0  0  0  0  0  0  0  0  0
    8.0520  -13.8492   19.1655 C   0  0  0  0  0  0  0  0  0  0  0  0
    7.9999  -13.9345   20.6238 C   0  0  0  0  0  0  0  0  0  0  0  0
    8.9601  -14.8833   21.2566 C   0  0  2  0  0  0  0  0  0  0  0  0
    8.8805  -16.1204   20.4621 N   0  0  0  0  0  0  0  0  0  0  0  0
    8.5904  -15.1252   22.6560 C   0  0  0  0  0  0  0  0  0  0  0  0
    8.3218  -14.1647   23.4216 O   0  0  0  0  0  0  0  0  0  0  0  0
    8.8746  -14.6441   18.3810 C   0  0  0  0  0  0  0  0  0  0  0  0
    8.8901  -14.5231   17.0037 C   0  0  0  0  0  0  0  0  0  0  0  0
    5.9059  -17.0924   24.0257 C   0  0  0  0  0  0  0  0  0  0  0  0
    7.0746  -17.4933   24.9090 C   0  0  1  0  0  0  0  0  0  0  0  0
    7.3873  -18.8185   24.6293 O   0  0  0  0  0  0  0  0  0  0  0  0
    8.2839  -16.5924   24.6273 C   0  0  2  0  0  0  0  0  0  0  0  0
    8.5132  -16.4407   23.2278 N   0  0  0  0  0  0  0  0  0  0  0  0
    9.4216  -17.1733   25.3591 C   0  0  0  0  0  0  0  0  0  0  0  0
    9.6081  -18.4169   25.2457 O   0  0  0  0  0  0  0  0  0  0  0  0
   10.1560  -13.7043   27.0019 C   0  0  0  0  0  0  0  0  0  0  0  0
    9.2987  -14.1796   28.1907 C   0  0  2  0  0  0  0  0  0  0  0  0
   10.0365  -13.7887   29.4391 C   0  0  0  0  0  0  0  0  0  0  0  0
    9.0336  -15.6557   28.0857 C   0  0  0  0  0  0  0  0  0  0  0  0
   10.2393  -16.3855   27.6305 C   0  0  2  0  0  0  0  0  0  0  0  0
   10.3117  -16.4544   26.1699 N   0  0  0  0  0  0  0  0  0  0  0  0
   10.3456  -17.7787   28.0983 C   0  0  0  0  0  0  0  0  0  0  0  0
   11.2465  -18.1806   29.0744 O   0  0  0  0  0  0  0  0  0  0  0  0
    9.6087  -18.6635   27.6179 O   0  0  0  0  0  0  0  0  0  0  0  0
  2 12  2  0
  2  1  1  0
  3  2  1  0
  4  5  1  0
  4  3  2  0
  5 11  2  0
  6  7  1  0
  6  5  1  0
  7  8  1  6
  9  7  1  0
  9 10  2  0
 11 12  1  0
 14 13  1  6
 14 16  1  0
 15 14  1  0
 16 17  1  6
 17  9  1  0
 18 16  1  0
 19 18  2  0
 21 20  1  6
 21 22  1  0
 23 21  1  0
 24 25  1  0
 24 23  1  6
 25 18  1  0
 26 24  1  0
 27 26  1  0
 28 26  2  0
M  END
$$$$
