YTL.pdb
     RDKit          3D

 28 28  0  0  1  0  0  0  0  0999 V2000
   12.4231  -21.3038   32.2247 O   0  0  0  0  0  0  0  0  0  0  0  0
   11.7015  -21.3458   31.0298 C   0  0  0  0  0  0  0  0  0  0  0  0
   12.2582  -20.7051   29.9275 C   0  0  0  0  0  0  0  0  0  0  0  0
   11.5836  -20.7134   28.7068 C   0  0  0  0  0  0  0  0  0  0  0  0
   10.3713  -21.3425   28.5582 C   0  0  0  0  0  0  0  0  0  0  0  0
    9.7116  -21.3133   27.2541 C   0  0  0  0  0  0  0  0  0  0  0  0
    8.5639  -20.3706   27.1245 C   0  0  2  0  0  0  0  0  0  0  0  0
    7.3749  -21.2153   26.9226 N   0  0  0  0  0  0  0  0  0  0  0  0
    8.7730  -19.4661   25.9880 C   0  0  0  0  0  0  0  0  0  0  0  0
    9.8188  -18.7730   25.9064 O   0  0  0  0  0  0  0  0  0  0  0  0
    9.8379  -21.9738   29.6721 C   0  0  0  0  0  0  0  0  0  0  0  0
   10.4998  -21.9707   30.8861 C   0  0  0  0  0  0  0  0  0  0  0  0
    8.0429  -20.1248   22.0833 C   0  0  0  0  0  0  0  0  0  0  0  0
    7.4267  -18.8195   22.5557 C   0  0  1  0  0  0  0  0  0  0  0  0
    6.0636  -19.0287   22.7308 O   0  0  0  0  0  0  0  0  0  0  0  0
    8.0695  -18.3790   23.8771 C   0  0  2  0  0  0  0  0  0  0  0  0
    7.8214  -19.3172   24.9222 N   0  0  0  0  0  0  0  0  0  0  0  0
    7.5666  -17.0244   24.1593 C   0  0  0  0  0  0  0  0  0  0  0  0
    6.4213  -16.9299   24.6825 O   0  0  0  0  0  0  0  0  0  0  0  0
    7.2656  -12.3950   27.1349 C   0  0  0  0  0  0  0  0  0  0  0  0
    6.8445  -12.8634   25.7287 C   0  0  2  0  0  0  0  0  0  0  0  0
    5.3582  -12.6690   25.6355 C   0  0  0  0  0  0  0  0  0  0  0  0
    7.2811  -14.2836   25.4991 C   0  0  0  0  0  0  0  0  0  0  0  0
    7.7170  -14.4902   24.0988 C   0  0  2  0  0  0  0  0  0  0  0  0
    8.2590  -15.8345   23.8928 N   0  0  0  0  0  0  0  0  0  0  0  0
    8.7600  -13.5654   23.6214 C   0  0  0  0  0  0  0  0  0  0  0  0
   10.1139  -13.7753   23.8427 O   0  0  0  0  0  0  0  0  0  0  0  0
    8.4492  -12.5374   22.9864 O   0  0  0  0  0  0  0  0  0  0  0  0
  2 12  2  0
  2  1  1  0
  3  2  1  0
  4  5  1  0
  4  3  2  0
  5 11  2  0
  6  7  1  0
  6  5  1  0
  7  8  1  6
  9  7  1  0
  9 10  2  0
 11 12  1  0
 14 13  1  1
 14 16  1  0
 15 14  1  0
 16 17  1  1
 17  9  1  0
 18 16  1  0
 19 18  2  0
 21 20  1  1
 21 22  1  0
 23 21  1  0
 24 25  1  0
 24 23  1  1
 25 18  1  0
 26 24  1  0
 27 26  1  0
 28 26  2  0
M  END
$$$$
