YTL.pdb
     RDKit          3D

 28 28  0  0  1  0  0  0  0  0999 V2000
   12.3378  -24.4226   20.1687 O   0  0  0  0  0  0  0  0  0  0  0  0
   12.2388  -23.0394   20.3333 C   0  0  0  0  0  0  0  0  0  0  0  0
   11.1264  -22.5580   21.0163 C   0  0  0  0  0  0  0  0  0  0  0  0
   10.9731  -21.1855   21.2116 C   0  0  0  0  0  0  0  0  0  0  0  0
   11.8983  -20.2837   20.7443 C   0  0  0  0  0  0  0  0  0  0  0  0
   11.6799  -18.8574   20.9776 C   0  0  0  0  0  0  0  0  0  0  0  0
   10.6807  -18.1966   20.0901 C   0  0  2  0  0  0  0  0  0  0  0  0
   11.3457  -18.0436   18.7853 N   0  0  0  0  0  0  0  0  0  0  0  0
   10.2893  -16.8951   20.6435 C   0  0  0  0  0  0  0  0  0  0  0  0
   10.9989  -15.8763   20.4451 O   0  0  0  0  0  0  0  0  0  0  0  0
   12.9981  -20.7892   20.0668 C   0  0  0  0  0  0  0  0  0  0  0  0
   13.1581  -22.1483   19.8687 C   0  0  0  0  0  0  0  0  0  0  0  0
    7.2267  -14.6922   20.1269 C   0  0  0  0  0  0  0  0  0  0  0  0
    7.3532  -14.9968   21.6094 C   0  0  1  0  0  0  0  0  0  0  0  0
    6.4735  -16.0301   21.9104 O   0  0  0  0  0  0  0  0  0  0  0  0
    8.7920  -15.4112   21.9432 C   0  0  2  0  0  0  0  0  0  0  0  0
    9.1008  -16.7047   21.4276 N   0  0  0  0  0  0  0  0  0  0  0  0
    8.9337  -15.3018   23.4045 C   0  0  0  0  0  0  0  0  0  0  0  0
    8.8925  -16.3731   24.0716 O   0  0  0  0  0  0  0  0  0  0  0  0
    5.5314  -11.7639   26.5721 C   0  0  0  0  0  0  0  0  0  0  0  0
    6.7954  -12.6358   26.6992 C   0  0  2  0  0  0  0  0  0  0  0  0
    7.7218  -11.9192   27.6393 C   0  0  0  0  0  0  0  0  0  0  0  0
    7.3927  -12.8900   25.3432 C   0  0  0  0  0  0  0  0  0  0  0  0
    8.5413  -13.8210   25.4298 C   0  0  2  0  0  0  0  0  0  0  0  0
    9.1105  -14.1034   24.1108 N   0  0  0  0  0  0  0  0  0  0  0  0
    8.2416  -15.1367   26.0215 C   0  0  0  0  0  0  0  0  0  0  0  0
    8.8747  -15.6142   27.1604 O   0  0  0  0  0  0  0  0  0  0  0  0
    7.3860  -15.8819   25.5023 O   0  0  0  0  0  0  0  0  0  0  0  0
  2 12  2  0
  2  1  1  0
  3  2  1  0
  4  5  1  0
  4  3  2  0
  5 11  2  0
  6  7  1  0
  6  5  1  0
  7  8  1  6
  9  7  1  0
  9 10  2  0
 11 12  1  0
 14 13  1  6
 14 16  1  0
 15 14  1  0
 16 17  1  1
 17  9  1  0
 18 16  1  0
 19 18  2  0
 21 20  1  6
 21 22  1  0
 23 21  1  0
 24 25  1  0
 24 23  1  6
 25 18  1  0
 26 24  1  0
 27 26  1  0
 28 26  2  0
M  END
$$$$
