VYS.pdb
     RDKit          3D

 26 26  0  0  1  0  0  0  0  0999 V2000
    8.3937  -19.2704   20.7742 C   0  0  0  0  0  0  0  0  0  0  0  0
    9.2444  -18.7390   19.6410 C   0  0  1  0  0  0  0  0  0  0  0  0
    9.0147  -19.5183   18.3826 C   0  0  0  0  0  0  0  0  0  0  0  0
    8.9519  -17.2655   19.4655 C   0  0  2  0  0  0  0  0  0  0  0  0
    9.7257  -16.6950   18.3811 N   0  0  0  0  0  0  0  0  0  0  0  0
    9.2098  -16.5184   20.7454 C   0  0  0  0  0  0  0  0  0  0  0  0
   10.3796  -16.3237   21.1594 O   0  0  0  0  0  0  0  0  0  0  0  0
    6.7171  -11.7146   27.9870 O   0  0  0  0  0  0  0  0  0  0  0  0
    6.8204  -12.4023   26.7758 C   0  0  0  0  0  0  0  0  0  0  0  0
    7.5100  -11.8169   25.7365 C   0  0  0  0  0  0  0  0  0  0  0  0
    7.6284  -12.4824   24.5154 C   0  0  0  0  0  0  0  0  0  0  0  0
    7.0773  -13.7167   24.3039 C   0  0  0  0  0  0  0  0  0  0  0  0
    7.2143  -14.4035   23.0368 C   0  0  0  0  0  0  0  0  0  0  0  0
    8.4001  -15.2707   22.8103 C   0  0  2  0  0  0  0  0  0  0  0  0
    8.1511  -16.0074   21.5306 N   0  0  0  0  0  0  0  0  0  0  0  0
    8.7719  -16.2178   23.8493 C   0  0  0  0  0  0  0  0  0  0  0  0
    7.9926  -17.2126   24.0759 O   0  0  0  0  0  0  0  0  0  0  0  0
    6.3886  -14.2872   25.3606 C   0  0  0  0  0  0  0  0  0  0  0  0
    6.2714  -13.6295   26.5675 C   0  0  0  0  0  0  0  0  0  0  0  0
   12.4631  -16.6609   24.9110 O   0  0  0  0  0  0  0  0  0  0  0  0
   11.6668  -17.7327   25.3143 C   0  0  0  0  0  0  0  0  0  0  0  0
   10.2873  -17.1772   25.5948 C   0  0  2  0  0  0  0  0  0  0  0  0
    9.9194  -16.1537   24.6336 N   0  0  0  0  0  0  0  0  0  0  0  0
   10.2617  -16.6664   26.9611 C   0  0  0  0  0  0  0  0  0  0  0  0
    9.9628  -15.4733   27.1925 O   0  0  0  0  0  0  0  0  0  0  0  0
   10.5657  -17.4720   28.0712 O   0  0  0  0  0  0  0  0  0  0  0  0
  2  1  1  1
  3  2  1  0
  4  2  1  0
  4  5  1  6
  6 15  1  0
  6  4  1  0
  7  6  2  0
  9  8  1  0
 10  9  2  0
 11 10  1  0
 12 18  1  0
 12 11  2  0
 13 12  1  0
 14 15  1  0
 14 13  1  1
 16 14  1  0
 17 16  2  0
 18 19  2  0
 19  9  1  0
 20 21  1  0
 22 21  1  6
 22 24  1  0
 22 23  1  0
 23 16  1  0
 24 26  1  0
 25 24  2  0
M  END
$$$$
