VYS.pdb
     RDKit          3D

 26 26  0  0  1  0  0  0  0  0999 V2000
    7.1651  -16.1604   20.2182 C   0  0  0  0  0  0  0  0  0  0  0  0
    7.4372  -14.8945   19.4350 C   0  0  1  0  0  0  0  0  0  0  0  0
    6.5455  -14.8002   18.2352 C   0  0  0  0  0  0  0  0  0  0  0  0
    7.2813  -13.7089   20.3610 C   0  0  2  0  0  0  0  0  0  0  0  0
    7.5034  -12.4573   19.6650 N   0  0  0  0  0  0  0  0  0  0  0  0
    8.2121  -13.8293   21.5366 C   0  0  0  0  0  0  0  0  0  0  0  0
    9.4340  -13.5593   21.4279 O   0  0  0  0  0  0  0  0  0  0  0  0
   10.4371  -14.8958   30.2011 O   0  0  0  0  0  0  0  0  0  0  0  0
    9.8064  -14.7415   28.9646 C   0  0  0  0  0  0  0  0  0  0  0  0
    9.8361  -13.5070   28.3534 C   0  0  0  0  0  0  0  0  0  0  0  0
    9.2138  -13.3254   27.1175 C   0  0  0  0  0  0  0  0  0  0  0  0
    8.5628  -14.3429   26.4750 C   0  0  0  0  0  0  0  0  0  0  0  0
    7.9289  -14.1471   25.1881 C   0  0  0  0  0  0  0  0  0  0  0  0
    8.6885  -14.4719   23.9524 C   0  0  2  0  0  0  0  0  0  0  0  0
    7.7517  -14.2492   22.8055 N   0  0  0  0  0  0  0  0  0  0  0  0
    9.2890  -15.7913   23.8375 C   0  0  0  0  0  0  0  0  0  0  0  0
    8.5301  -16.7841   23.5432 O   0  0  0  0  0  0  0  0  0  0  0  0
    8.5444  -15.5749   27.1060 C   0  0  0  0  0  0  0  0  0  0  0  0
    9.1593  -15.7546   28.3276 C   0  0  0  0  0  0  0  0  0  0  0  0
   13.1482  -16.4604   23.1202 O   0  0  0  0  0  0  0  0  0  0  0  0
   12.2740  -17.5206   22.8810 C   0  0  0  0  0  0  0  0  0  0  0  0
   11.1772  -17.4320   23.9200 C   0  0  2  0  0  0  0  0  0  0  0  0
   10.6374  -16.0877   24.0114 N   0  0  0  0  0  0  0  0  0  0  0  0
   11.7121  -17.8852   25.1992 C   0  0  0  0  0  0  0  0  0  0  0  0
   11.6620  -17.1494   26.2105 O   0  0  0  0  0  0  0  0  0  0  0  0
   12.3020  -19.1498   25.3624 O   0  0  0  0  0  0  0  0  0  0  0  0
  2  1  1  1
  3  2  1  0
  4  2  1  0
  4  5  1  6
  6 15  1  0
  6  4  1  0
  7  6  2  0
  9  8  1  0
 10  9  2  0
 11 10  1  0
 12 18  1  0
 12 11  2  0
 13 12  1  0
 14 15  1  0
 14 13  1  1
 16 14  1  0
 17 16  2  0
 18 19  2  0
 19  9  1  0
 20 21  1  0
 22 21  1  6
 22 24  1  0
 22 23  1  0
 23 16  1  0
 24 26  1  0
 25 24  2  0
M  END
$$$$
