VYS.pdb
     RDKit          3D

 26 26  0  0  1  0  0  0  0  0999 V2000
    7.8118  -18.8056   18.2733 C   0  0  0  0  0  0  0  0  0  0  0  0
    8.2629  -18.3020   19.6272 C   0  0  1  0  0  0  0  0  0  0  0  0
    9.2357  -19.2499   20.2587 C   0  0  0  0  0  0  0  0  0  0  0  0
    8.8397  -16.9139   19.4601 C   0  0  2  0  0  0  0  0  0  0  0  0
   10.0438  -16.9315   18.6538 N   0  0  0  0  0  0  0  0  0  0  0  0
    9.1138  -16.2895   20.8010 C   0  0  0  0  0  0  0  0  0  0  0  0
   10.2380  -16.3982   21.3505 O   0  0  0  0  0  0  0  0  0  0  0  0
    6.7952  -11.7115   28.2628 O   0  0  0  0  0  0  0  0  0  0  0  0
    6.9432  -12.2642   26.9887 C   0  0  0  0  0  0  0  0  0  0  0  0
    6.0803  -13.2631   26.5938 C   0  0  0  0  0  0  0  0  0  0  0  0
    6.2062  -13.8326   25.3258 C   0  0  0  0  0  0  0  0  0  0  0  0
    7.1699  -13.4317   24.4413 C   0  0  0  0  0  0  0  0  0  0  0  0
    7.2860  -14.0216   23.1243 C   0  0  0  0  0  0  0  0  0  0  0  0
    8.3512  -15.0280   22.8754 C   0  0  2  0  0  0  0  0  0  0  0  0
    8.1218  -15.5585   21.4939 N   0  0  0  0  0  0  0  0  0  0  0  0
    8.4826  -16.1389   23.8046 C   0  0  0  0  0  0  0  0  0  0  0  0
    7.5728  -17.0447   23.8059 O   0  0  0  0  0  0  0  0  0  0  0  0
    8.0266  -12.4271   24.8576 C   0  0  0  0  0  0  0  0  0  0  0  0
    7.9025  -11.8642   26.1109 C   0  0  0  0  0  0  0  0  0  0  0  0
   11.7041  -17.8353   24.6102 O   0  0  0  0  0  0  0  0  0  0  0  0
   10.5722  -18.5117   25.0650 C   0  0  0  0  0  0  0  0  0  0  0  0
    9.6170  -17.4658   25.5980 C   0  0  2  0  0  0  0  0  0  0  0  0
    9.5258  -16.3238   24.7066 N   0  0  0  0  0  0  0  0  0  0  0  0
   10.0563  -17.0731   26.9324 C   0  0  0  0  0  0  0  0  0  0  0  0
   10.3079  -15.8758   27.1967 O   0  0  0  0  0  0  0  0  0  0  0  0
   10.2179  -18.0011   27.9747 O   0  0  0  0  0  0  0  0  0  0  0  0
  2  1  1  6
  3  2  1  0
  4  2  1  0
  4  5  1  6
  6 15  1  0
  6  4  1  0
  7  6  2  0
  9  8  1  0
 10  9  2  0
 11 10  1  0
 12 18  1  0
 12 11  2  0
 13 12  1  0
 14 15  1  0
 14 13  1  1
 16 14  1  0
 17 16  2  0
 18 19  2  0
 19  9  1  0
 20 21  1  0
 22 21  1  6
 22 24  1  0
 22 23  1  0
 23 16  1  0
 24 26  1  0
 25 24  2  0
M  END
$$$$
