VYS.pdb
     RDKit          3D

 26 26  0  0  1  0  0  0  0  0999 V2000
    8.2774  -19.3661   18.1766 C   0  0  0  0  0  0  0  0  0  0  0  0
    8.6984  -18.7131   19.4753 C   0  0  1  0  0  0  0  0  0  0  0  0
    9.8581  -19.4342   20.0905 C   0  0  0  0  0  0  0  0  0  0  0  0
    9.0042  -17.2562   19.2080 C   0  0  2  0  0  0  0  0  0  0  0  0
   10.1408  -17.1050   18.3218 N   0  0  0  0  0  0  0  0  0  0  0  0
    9.2416  -16.5198   20.4981 C   0  0  0  0  0  0  0  0  0  0  0  0
   10.4046  -16.3301   20.9331 O   0  0  0  0  0  0  0  0  0  0  0  0
    6.6447  -11.9608   27.8619 O   0  0  0  0  0  0  0  0  0  0  0  0
    6.7580  -12.6167   26.6340 C   0  0  0  0  0  0  0  0  0  0  0  0
    7.3723  -11.9649   25.5871 C   0  0  0  0  0  0  0  0  0  0  0  0
    7.4987  -12.5975   24.3495 C   0  0  0  0  0  0  0  0  0  0  0  0
    7.0288  -13.8633   24.1288 C   0  0  0  0  0  0  0  0  0  0  0  0
    7.1738  -14.5150   22.8441 C   0  0  0  0  0  0  0  0  0  0  0  0
    8.3973  -15.3150   22.5745 C   0  0  2  0  0  0  0  0  0  0  0  0
    8.1706  -16.0137   21.2696 N   0  0  0  0  0  0  0  0  0  0  0  0
    8.8245  -16.2817   23.5733 C   0  0  0  0  0  0  0  0  0  0  0  0
    8.1574  -17.3722   23.6919 O   0  0  0  0  0  0  0  0  0  0  0  0
    6.4148  -14.5005   25.1934 C   0  0  0  0  0  0  0  0  0  0  0  0
    6.2896  -13.8753   26.4167 C   0  0  0  0  0  0  0  0  0  0  0  0
   12.5241  -16.6392   24.6309 O   0  0  0  0  0  0  0  0  0  0  0  0
   11.7103  -17.7335   24.9237 C   0  0  0  0  0  0  0  0  0  0  0  0
   10.3605  -17.1838   25.3313 C   0  0  2  0  0  0  0  0  0  0  0  0
    9.9148  -16.1403   24.4261 N   0  0  0  0  0  0  0  0  0  0  0  0
   10.4514  -16.7017   26.7051 C   0  0  0  0  0  0  0  0  0  0  0  0
   10.2013  -15.5069   26.9818 O   0  0  0  0  0  0  0  0  0  0  0  0
   10.8181  -17.5376   27.7730 O   0  0  0  0  0  0  0  0  0  0  0  0
  2  1  1  6
  3  2  1  0
  4  2  1  0
  4  5  1  6
  6 15  1  0
  6  4  1  0
  7  6  2  0
  9  8  1  0
 10  9  2  0
 11 10  1  0
 12 18  1  0
 12 11  2  0
 13 12  1  0
 14 15  1  0
 14 13  1  1
 16 14  1  0
 17 16  2  0
 18 19  2  0
 19  9  1  0
 20 21  1  0
 22 21  1  6
 22 24  1  0
 22 23  1  0
 23 16  1  0
 24 26  1  0
 25 24  2  0
M  END
$$$$
