VYS.pdb
     RDKit          3D

 26 26  0  0  1  0  0  0  0  0999 V2000
    9.4087  -20.0512   19.0405 C   0  0  0  0  0  0  0  0  0  0  0  0
    9.7479  -19.1803   20.2307 C   0  0  1  0  0  0  0  0  0  0  0  0
   11.0915  -19.5324   20.7915 C   0  0  0  0  0  0  0  0  0  0  0  0
    9.6634  -17.7301   19.8095 C   0  0  2  0  0  0  0  0  0  0  0  0
   10.6905  -17.3960   18.8433 N   0  0  0  0  0  0  0  0  0  0  0  0
    9.7538  -16.8248   21.0075 C   0  0  0  0  0  0  0  0  0  0  0  0
   10.8543  -16.3460   21.3781 O   0  0  0  0  0  0  0  0  0  0  0  0
    6.5125  -11.8588   27.8197 O   0  0  0  0  0  0  0  0  0  0  0  0
    6.7577  -12.6006   26.6620 C   0  0  0  0  0  0  0  0  0  0  0  0
    6.2285  -13.8687   26.5614 C   0  0  0  0  0  0  0  0  0  0  0  0
    6.4583  -14.6315   25.4154 C   0  0  0  0  0  0  0  0  0  0  0  0
    7.2017  -14.1624   24.3670 C   0  0  0  0  0  0  0  0  0  0  0  0
    7.4259  -14.9575   23.1780 C   0  0  0  0  0  0  0  0  0  0  0  0
    8.7085  -15.6948   23.0339 C   0  0  2  0  0  0  0  0  0  0  0  0
    8.6093  -16.4776   21.7612 N   0  0  0  0  0  0  0  0  0  0  0  0
    9.1234  -16.5766   24.1132 C   0  0  0  0  0  0  0  0  0  0  0  0
    8.4387  -17.6408   24.3296 O   0  0  0  0  0  0  0  0  0  0  0  0
    7.7244  -12.8863   24.4882 C   0  0  0  0  0  0  0  0  0  0  0  0
    7.4976  -12.1323   25.6209 C   0  0  0  0  0  0  0  0  0  0  0  0
   12.8229  -16.4751   25.5590 O   0  0  0  0  0  0  0  0  0  0  0  0
   12.1537  -17.6924   25.6842 C   0  0  0  0  0  0  0  0  0  0  0  0
   10.6898  -17.3720   25.8958 C   0  0  2  0  0  0  0  0  0  0  0  0
   10.2193  -16.3789   24.9475 N   0  0  0  0  0  0  0  0  0  0  0  0
   10.5060  -16.9299   27.2737 C   0  0  0  0  0  0  0  0  0  0  0  0
   10.8503  -17.6590   28.2310 O   0  0  0  0  0  0  0  0  0  0  0  0
    9.9425  -15.6837   27.5951 O   0  0  0  0  0  0  0  0  0  0  0  0
  2  1  1  6
  3  2  1  0
  4  2  1  0
  4  5  1  6
  6 15  1  0
  6  4  1  0
  7  6  2  0
  9  8  1  0
 10  9  2  0
 11 10  1  0
 12 18  1  0
 12 11  2  0
 13 12  1  0
 14 15  1  0
 14 13  1  1
 16 14  1  0
 17 16  2  0
 18 19  2  0
 19  9  1  0
 20 21  1  0
 22 21  1  6
 22 24  1  0
 22 23  1  0
 23 16  1  0
 24 26  1  0
 25 24  2  0
M  END
$$$$
