MCR.pdb
     RDKit          3D

 26 25  0  0  1  0  0  0  0  0999 V2000
    8.8792  -11.0187   19.0528 C   0  0  0  0  0  0  0  0  0  0  0  0
    7.3587  -11.9715   19.3385 S   0  0  0  0  0  0  0  0  0  0  0  0
    7.7394  -13.4955   20.2930 C   0  0  0  0  0  0  0  0  0  0  0  0
    6.4909  -14.2189   20.6593 C   0  0  0  0  0  0  0  0  0  0  0  0
    6.6563  -15.4656   21.4576 C   0  0  2  0  0  0  0  0  0  0  0  0
    5.3501  -16.1456   21.4226 N   0  0  0  0  0  0  0  0  0  0  0  0
    7.0016  -15.1839   22.8981 C   0  0  0  0  0  0  0  0  0  0  0  0
    6.8677  -14.0284   23.3718 O   0  0  0  0  0  0  0  0  0  0  0  0
    7.4772  -16.2154   23.7321 N   0  0  0  0  0  0  0  0  0  0  0  0
    8.4758  -16.0052   24.7348 C   0  0  1  0  0  0  0  0  0  0  0  0
    7.9610  -15.4073   25.9957 C   0  0  0  0  0  0  0  0  0  0  0  0
    6.1686  -15.4880   26.1746 S   0  0  0  0  0  0  0  0  0  0  0  0
    9.4420  -17.1123   24.9030 C   0  0  0  0  0  0  0  0  0  0  0  0
    9.0689  -18.2883   24.7764 O   0  0  0  0  0  0  0  0  0  0  0  0
   13.4509  -14.0374   20.5286 N   0  0  0  0  0  0  0  0  0  0  0  0
   13.0290  -15.2513   19.8990 C   0  0  0  0  0  0  0  0  0  0  0  0
   12.5502  -15.2040   18.7010 N   0  0  0  0  0  0  0  0  0  0  0  0
   13.1070  -16.5095   20.5221 N   0  0  0  0  0  0  0  0  0  0  0  0
   13.6051  -16.6842   21.8958 C   0  0  0  0  0  0  0  0  0  0  0  0
   12.5397  -17.1661   22.7971 C   0  0  0  0  0  0  0  0  0  0  0  0
   12.8210  -17.4221   24.2068 C   0  0  0  0  0  0  0  0  0  0  0  0
   11.8366  -17.9240   25.1912 C   0  0  2  0  0  0  0  0  0  0  0  0
   10.7798  -16.8306   25.2052 N   0  0  0  0  0  0  0  0  0  0  0  0
   12.2104  -18.1409   26.5747 C   0  0  0  0  0  0  0  0  0  0  0  0
   12.9448  -19.1998   27.0553 O   0  0  0  0  0  0  0  0  0  0  0  0
   11.8438  -17.3040   27.4941 O   0  0  0  0  0  0  0  0  0  0  0  0
  2  1  1  0
  3  2  1  0
  3  4  1  0
  4  5  1  0
  5  6  1  1
  7  5  1  0
  7  8  2  0
  9  7  1  0
 10  9  1  0
 10 11  1  1
 12 11  1  0
 13 10  1  0
 14 13  2  0
 16 17  2  0
 16 15  1  0
 18 16  1  0
 19 18  1  0
 20 19  1  0
 21 20  1  0
 22 21  1  6
 22 23  1  0
 23 13  1  0
 24 22  1  0
 24 25  1  0
 26 24  2  0
M  END
$$$$
