MCR.pdb
     RDKit          3D

 26 25  0  0  1  0  0  0  0  0999 V2000
    7.0091  -11.0251   27.6512 C   0  0  0  0  0  0  0  0  0  0  0  0
    7.0140  -12.1615   26.2335 S   0  0  0  0  0  0  0  0  0  0  0  0
    5.9169  -13.5969   26.5721 C   0  0  0  0  0  0  0  0  0  0  0  0
    5.8318  -14.4921   25.3857 C   0  0  0  0  0  0  0  0  0  0  0  0
    6.9435  -15.4679   25.2096 C   0  0  2  0  0  0  0  0  0  0  0  0
    8.1292  -14.8467   25.8244 N   0  0  0  0  0  0  0  0  0  0  0  0
    7.2508  -15.7327   23.7573 C   0  0  0  0  0  0  0  0  0  0  0  0
    6.3307  -16.0228   22.9533 O   0  0  0  0  0  0  0  0  0  0  0  0
    8.5757  -15.6556   23.2835 N   0  0  0  0  0  0  0  0  0  0  0  0
    8.9227  -15.8601   21.9107 C   0  0  1  0  0  0  0  0  0  0  0  0
    8.1636  -15.0108   20.9543 C   0  0  0  0  0  0  0  0  0  0  0  0
    8.1523  -13.2565   21.3710 S   0  0  0  0  0  0  0  0  0  0  0  0
   10.3711  -15.9864   21.6394 C   0  0  0  0  0  0  0  0  0  0  0  0
   11.1190  -15.0077   21.7847 O   0  0  0  0  0  0  0  0  0  0  0  0
    7.7505  -21.0564   24.9474 N   0  0  0  0  0  0  0  0  0  0  0  0
    8.3142  -19.9347   25.6343 C   0  0  0  0  0  0  0  0  0  0  0  0
    7.5251  -19.0555   26.1549 N   0  0  0  0  0  0  0  0  0  0  0  0
    9.6990  -19.7338   25.7743 N   0  0  0  0  0  0  0  0  0  0  0  0
   10.6773  -20.2551   24.8065 C   0  0  0  0  0  0  0  0  0  0  0  0
   11.4302  -19.1616   24.1605 C   0  0  0  0  0  0  0  0  0  0  0  0
   11.3555  -18.9629   22.7159 C   0  0  0  0  0  0  0  0  0  0  0  0
   12.0375  -17.8808   21.9716 C   0  0  2  0  0  0  0  0  0  0  0  0
   10.8974  -17.2135   21.2182 N   0  0  0  0  0  0  0  0  0  0  0  0
   13.0527  -18.1823   20.9819 C   0  0  0  0  0  0  0  0  0  0  0  0
   14.4125  -18.1003   21.1706 O   0  0  0  0  0  0  0  0  0  0  0  0
   12.7162  -18.5597   19.7884 O   0  0  0  0  0  0  0  0  0  0  0  0
  2  1  1  0
  3  2  1  0
  3  4  1  0
  4  5  1  0
  5  6  1  1
  7  5  1  0
  7  8  2  0
  9  7  1  0
 10  9  1  0
 10 11  1  6
 12 11  1  0
 13 10  1  0
 14 13  2  0
 16 17  2  0
 16 15  1  0
 18 16  1  0
 19 18  1  0
 20 19  1  0
 21 20  1  0
 22 21  1  6
 22 23  1  0
 23 13  1  0
 24 22  1  0
 24 25  1  0
 26 24  2  0
M  END
$$$$
