MCR.pdb
     RDKit          3D

 26 25  0  0  1  0  0  0  0  0999 V2000
    7.5847  -11.3543   26.8370 C   0  0  0  0  0  0  0  0  0  0  0  0
    6.1855  -12.1551   27.6749 S   0  0  0  0  0  0  0  0  0  0  0  0
    5.5093  -13.5034   26.6245 C   0  0  0  0  0  0  0  0  0  0  0  0
    6.5923  -14.1642   25.8456 C   0  0  0  0  0  0  0  0  0  0  0  0
    6.1658  -15.1970   24.8606 C   0  0  2  0  0  0  0  0  0  0  0  0
    5.6432  -16.3226   25.6540 N   0  0  0  0  0  0  0  0  0  0  0  0
    7.3146  -15.7035   24.0254 C   0  0  0  0  0  0  0  0  0  0  0  0
    8.0776  -16.5984   24.4661 O   0  0  0  0  0  0  0  0  0  0  0  0
    7.5451  -15.1796   22.7376 N   0  0  0  0  0  0  0  0  0  0  0  0
    8.7797  -15.3565   22.0368 C   0  0  1  0  0  0  0  0  0  0  0  0
    8.8903  -14.5650   20.7823 C   0  0  0  0  0  0  0  0  0  0  0  0
   10.3113  -14.9953   19.7593 S   0  0  0  0  0  0  0  0  0  0  0  0
    9.9895  -15.3744   22.8873 C   0  0  0  0  0  0  0  0  0  0  0  0
   10.0717  -14.6199   23.8682 O   0  0  0  0  0  0  0  0  0  0  0  0
   14.0057  -17.5057   28.4913 N   0  0  0  0  0  0  0  0  0  0  0  0
   12.7718  -18.0728   28.9427 C   0  0  0  0  0  0  0  0  0  0  0  0
   12.7831  -18.8820   29.9485 N   0  0  0  0  0  0  0  0  0  0  0  0
   11.5310  -17.7945   28.3422 N   0  0  0  0  0  0  0  0  0  0  0  0
   11.1754  -18.2761   26.9978 C   0  0  0  0  0  0  0  0  0  0  0  0
   12.0035  -17.6318   25.9591 C   0  0  0  0  0  0  0  0  0  0  0  0
   11.4010  -17.1697   24.7120 C   0  0  0  0  0  0  0  0  0  0  0  0
   12.1392  -16.5375   23.5960 C   0  0  2  0  0  0  0  0  0  0  0  0
   11.0428  -16.2454   22.5834 N   0  0  0  0  0  0  0  0  0  0  0  0
   13.1683  -17.2628   22.8777 C   0  0  0  0  0  0  0  0  0  0  0  0
   13.0993  -18.5769   22.4782 O   0  0  0  0  0  0  0  0  0  0  0  0
   14.2827  -16.6818   22.5603 O   0  0  0  0  0  0  0  0  0  0  0  0
  2  1  1  0
  3  2  1  0
  3  4  1  0
  4  5  1  0
  5  6  1  1
  7  5  1  0
  7  8  2  0
  9  7  1  0
 10  9  1  0
 10 11  1  6
 12 11  1  0
 13 10  1  0
 14 13  2  0
 16 17  2  0
 16 15  1  0
 18 16  1  0
 19 18  1  0
 20 19  1  0
 21 20  1  0
 22 21  1  1
 22 23  1  0
 23 13  1  0
 24 22  1  0
 24 25  1  0
 26 24  2  0
M  END
$$$$
