MCR.pdb
     RDKit          3D

 26 25  0  0  1  0  0  0  0  0999 V2000
    6.5501  -11.5602   19.4607 C   0  0  0  0  0  0  0  0  0  0  0  0
    7.5773  -13.0277   19.7646 S   0  0  0  0  0  0  0  0  0  0  0  0
    6.5502  -14.3829   20.4626 C   0  0  0  0  0  0  0  0  0  0  0  0
    7.3952  -15.5477   20.8441 C   0  0  0  0  0  0  0  0  0  0  0  0
    8.6909  -15.6917   20.1234 C   0  0  2  0  0  0  0  0  0  0  0  0
    8.3760  -16.3725   18.8556 N   0  0  0  0  0  0  0  0  0  0  0  0
    9.6785  -16.5425   20.8815 C   0  0  0  0  0  0  0  0  0  0  0  0
   10.0698  -16.2000   22.0247 O   0  0  0  0  0  0  0  0  0  0  0  0
   10.1733  -17.7349   20.3167 N   0  0  0  0  0  0  0  0  0  0  0  0
   11.1765  -18.5357   20.9485 C   0  0  1  0  0  0  0  0  0  0  0  0
   11.7569  -19.5910   20.0757 C   0  0  0  0  0  0  0  0  0  0  0  0
   10.5635  -20.8146   19.5013 S   0  0  0  0  0  0  0  0  0  0  0  0
   12.1477  -17.7897   21.7777 C   0  0  0  0  0  0  0  0  0  0  0  0
   12.4332  -16.6159   21.4969 O   0  0  0  0  0  0  0  0  0  0  0  0
    9.7516  -16.5574   28.9142 N   0  0  0  0  0  0  0  0  0  0  0  0
   10.2136  -15.2226   28.6840 C   0  0  0  0  0  0  0  0  0  0  0  0
   10.0999  -14.3473   29.6261 N   0  0  0  0  0  0  0  0  0  0  0  0
   10.7911  -14.8059   27.4714 N   0  0  0  0  0  0  0  0  0  0  0  0
   10.6461  -15.5683   26.2211 C   0  0  0  0  0  0  0  0  0  0  0  0
   11.9110  -16.2305   25.8451 C   0  0  0  0  0  0  0  0  0  0  0  0
   11.9930  -17.0365   24.6303 C   0  0  0  0  0  0  0  0  0  0  0  0
   13.2407  -17.5994   24.0679 C   0  0  2  0  0  0  0  0  0  0  0  0
   12.7447  -18.4109   22.8813 N   0  0  0  0  0  0  0  0  0  0  0  0
   14.0727  -18.4938   24.8482 C   0  0  0  0  0  0  0  0  0  0  0  0
   14.1978  -19.8502   24.6584 O   0  0  0  0  0  0  0  0  0  0  0  0
   14.7814  -18.0403   25.8343 O   0  0  0  0  0  0  0  0  0  0  0  0
  2  1  1  0
  3  2  1  0
  3  4  1  0
  4  5  1  0
  5  6  1  6
  7  5  1  0
  7  8  2  0
  9  7  1  0
 10  9  1  0
 10 11  1  6
 12 11  1  0
 13 10  1  0
 14 13  2  0
 16 17  2  0
 16 15  1  0
 18 16  1  0
 19 18  1  0
 20 19  1  0
 21 20  1  0
 22 21  1  1
 22 23  1  0
 23 13  1  0
 24 22  1  0
 24 25  1  0
 26 24  2  0
M  END
$$$$
