MCR.pdb
     RDKit          3D

 26 25  0  0  1  0  0  0  0  0999 V2000
    7.4740  -16.2279   16.7152 C   0  0  0  0  0  0  0  0  0  0  0  0
    7.6451  -16.9187   18.3870 S   0  0  0  0  0  0  0  0  0  0  0  0
    7.1868  -15.6557   19.6412 C   0  0  0  0  0  0  0  0  0  0  0  0
    7.8309  -14.3481   19.3386 C   0  0  0  0  0  0  0  0  0  0  0  0
    7.6085  -13.2547   20.3255 C   0  0  2  0  0  0  0  0  0  0  0  0
    8.3674  -12.0959   19.8245 N   0  0  0  0  0  0  0  0  0  0  0  0
    8.1319  -13.6028   21.6961 C   0  0  0  0  0  0  0  0  0  0  0  0
    9.3679  -13.6479   21.9144 O   0  0  0  0  0  0  0  0  0  0  0  0
    7.2394  -13.8799   22.7508 N   0  0  0  0  0  0  0  0  0  0  0  0
    7.6772  -14.2307   24.0669 C   0  0  1  0  0  0  0  0  0  0  0  0
    6.7977  -13.7322   25.1579 C   0  0  0  0  0  0  0  0  0  0  0  0
    6.3491  -11.9921   25.0095 S   0  0  0  0  0  0  0  0  0  0  0  0
    8.1576  -15.6210   24.2211 C   0  0  0  0  0  0  0  0  0  0  0  0
    7.3696  -16.5697   24.0889 O   0  0  0  0  0  0  0  0  0  0  0  0
   14.0964  -16.5405   19.3375 N   0  0  0  0  0  0  0  0  0  0  0  0
   13.2980  -15.5639   20.0132 C   0  0  0  0  0  0  0  0  0  0  0  0
   13.4890  -14.3124   19.7603 N   0  0  0  0  0  0  0  0  0  0  0  0
   12.3044  -15.8965   20.9511 N   0  0  0  0  0  0  0  0  0  0  0  0
   11.9348  -17.2883   21.2543 C   0  0  0  0  0  0  0  0  0  0  0  0
   10.8123  -17.3505   22.2114 C   0  0  0  0  0  0  0  0  0  0  0  0
   11.0653  -17.3893   23.6489 C   0  0  0  0  0  0  0  0  0  0  0  0
   10.0259  -17.2820   24.6968 C   0  0  2  0  0  0  0  0  0  0  0  0
    9.5042  -15.8650   24.5164 N   0  0  0  0  0  0  0  0  0  0  0  0
   10.3662  -17.4105   26.0999 C   0  0  0  0  0  0  0  0  0  0  0  0
   10.6311  -18.5871   26.7611 O   0  0  0  0  0  0  0  0  0  0  0  0
   10.4352  -16.3620   26.8588 O   0  0  0  0  0  0  0  0  0  0  0  0
  2  1  1  0
  3  2  1  0
  3  4  1  0
  4  5  1  0
  5  6  1  6
  7  5  1  0
  7  8  2  0
  9  7  1  0
 10  9  1  0
 10 11  1  1
 12 11  1  0
 13 10  1  0
 14 13  2  0
 16 17  2  0
 16 15  1  0
 18 16  1  0
 19 18  1  0
 20 19  1  0
 21 20  1  0
 22 21  1  6
 22 23  1  0
 23 13  1  0
 24 22  1  0
 24 25  1  0
 26 24  2  0
M  END
$$$$
