MCR.pdb
     RDKit          3D

 26 25  0  0  1  0  0  0  0  0999 V2000
    5.1531  -18.2543   20.5465 C   0  0  0  0  0  0  0  0  0  0  0  0
    4.9292  -16.6213   19.7821 S   0  0  0  0  0  0  0  0  0  0  0  0
    6.5199  -15.7004   19.7845 C   0  0  0  0  0  0  0  0  0  0  0  0
    6.9586  -15.4013   21.1753 C   0  0  0  0  0  0  0  0  0  0  0  0
    7.2827  -13.9791   21.4773 C   0  0  2  0  0  0  0  0  0  0  0  0
    8.0623  -13.4880   20.3280 N   0  0  0  0  0  0  0  0  0  0  0  0
    8.1294  -13.8335   22.7166 C   0  0  0  0  0  0  0  0  0  0  0  0
    9.3732  -13.9984   22.6623 O   0  0  0  0  0  0  0  0  0  0  0  0
    7.5348  -13.5081   23.9521 N   0  0  0  0  0  0  0  0  0  0  0  0
    8.2066  -13.6719   25.2045 C   0  0  1  0  0  0  0  0  0  0  0  0
    7.9188  -12.6031   26.1980 C   0  0  0  0  0  0  0  0  0  0  0  0
    6.1728  -12.4309   26.6141 S   0  0  0  0  0  0  0  0  0  0  0  0
    8.2168  -15.0513   25.7379 C   0  0  0  0  0  0  0  0  0  0  0  0
    7.1629  -15.7024   25.7992 O   0  0  0  0  0  0  0  0  0  0  0  0
   10.1148  -17.2652   20.0309 N   0  0  0  0  0  0  0  0  0  0  0  0
   10.5800  -17.8889   21.2319 C   0  0  0  0  0  0  0  0  0  0  0  0
   10.1920  -19.0890   21.5074 N   0  0  0  0  0  0  0  0  0  0  0  0
   11.4470  -17.2577   22.1415 N   0  0  0  0  0  0  0  0  0  0  0  0
   11.5999  -17.7086   23.5340 C   0  0  0  0  0  0  0  0  0  0  0  0
   10.3645  -17.4842   24.3108 C   0  0  0  0  0  0  0  0  0  0  0  0
   10.3357  -17.7410   25.7479 C   0  0  0  0  0  0  0  0  0  0  0  0
    9.4644  -17.0411   26.7178 C   0  0  2  0  0  0  0  0  0  0  0  0
    9.4188  -15.6218   26.1737 N   0  0  0  0  0  0  0  0  0  0  0  0
    9.8433  -16.9262   28.1122 C   0  0  0  0  0  0  0  0  0  0  0  0
   10.1554  -15.7592   28.7696 O   0  0  0  0  0  0  0  0  0  0  0  0
    9.9232  -17.9810   28.8612 O   0  0  0  0  0  0  0  0  0  0  0  0
  2  1  1  0
  3  2  1  0
  3  4  1  0
  4  5  1  0
  5  6  1  6
  7  5  1  0
  7  8  2  0
  9  7  1  0
 10  9  1  0
 10 11  1  1
 12 11  1  0
 13 10  1  0
 14 13  2  0
 16 17  2  0
 16 15  1  0
 18 16  1  0
 19 18  1  0
 20 19  1  0
 21 20  1  0
 22 21  1  6
 22 23  1  0
 23 13  1  0
 24 22  1  0
 24 25  1  0
 26 24  2  0
M  END
$$$$
