IRM.pdb
     RDKit          3D

 28 27  0  0  1  0  0  0  0  0999 V2000
   19.9743  -26.3717  -10.9293 C   0  0  0  0  0  0  0  0  0  0  0  0
   19.1787  -25.1218  -11.1753 C   0  0  0  0  0  0  0  0  0  0  0  0
   18.7241  -24.5286   -9.8249 C   0  0  2  0  0  0  0  0  0  0  0  0
   20.0357  -24.2834   -9.0862 C   0  0  0  0  0  0  0  0  0  0  0  0
   17.8825  -25.5386   -9.1222 C   0  0  2  0  0  0  0  0  0  0  0  0
   16.7506  -25.8179  -10.0183 N   0  0  0  0  0  0  0  0  0  0  0  0
   17.3484  -25.1733   -7.8200 C   0  0  0  0  0  0  0  0  0  0  0  0
   16.9129  -23.9796   -7.6210 O   0  0  0  0  0  0  0  0  0  0  0  0
   13.1733  -21.4471   -2.9763 N   0  0  0  0  0  0  0  0  0  0  0  0
   12.9281  -21.7562   -4.3463 C   0  0  0  0  0  0  0  0  0  0  0  0
   12.4867  -20.8026   -5.0936 N   0  0  0  0  0  0  0  0  0  0  0  0
   13.1482  -23.0460   -4.9019 N   0  0  0  0  0  0  0  0  0  0  0  0
   13.2728  -24.2357   -4.0323 C   0  0  0  0  0  0  0  0  0  0  0  0
   14.6445  -24.7501   -4.1111 C   0  0  0  0  0  0  0  0  0  0  0  0
   15.2571  -25.0717   -5.4125 C   0  0  0  0  0  0  0  0  0  0  0  0
   16.6349  -25.6390   -5.4250 C   0  0  2  0  0  0  0  0  0  0  0  0
   17.2274  -25.9936   -6.6615 N   0  0  0  0  0  0  0  0  0  0  0  0
   16.7706  -26.6601   -4.3661 C   0  0  0  0  0  0  0  0  0  0  0  0
   16.4723  -27.8665   -4.6731 O   0  0  0  0  0  0  0  0  0  0  0  0
   12.2640  -20.9246   -6.1022 C   0  0  0  0  0  0  0  0  0  0  0  0
   21.4978  -26.4428   -0.7895 S   0  0  0  0  0  0  0  0  0  0  0  0
   21.3701  -28.0823   -1.6233 C   0  0  0  0  0  0  0  0  0  0  0  0
   19.7409  -28.2686   -2.2925 C   0  0  0  0  0  0  0  0  0  0  0  0
   18.6496  -27.5648   -1.6467 C   0  0  2  0  0  0  0  0  0  0  0  0
   17.2419  -27.5812   -2.1179 N   0  0  0  0  0  0  0  0  0  0  0  0
   17.1986  -26.4019   -3.0665 C   0  0  0  0  0  0  0  0  0  0  0  0
   16.2678  -27.1178   -1.0383 O   0  0  0  0  0  0  0  0  0  0  0  0
   15.8399  -25.9796   -0.9000 O   0  0  0  0  0  0  0  0  0  0  0  0
  1  2  1  0
  2  3  1  0
  3  5  1  0
  3  4  1  1
  5  7  1  0
  5  6  1  6
  7  8  2  0
 10 12  1  0
 10  9  1  0
 11 10  2  0
 13 12  1  0
 13 14  1  0
 15 14  1  0
 16 15  1  6
 17 16  1  0
 17  7  1  0
 18 25  1  0
 18 16  1  0
 19 18  2  0
 20 21  1  0
 21 22  1  0
 22 23  1  0
 24 23  1  6
 24 25  1  0
 24 26  1  0
 26 28  1  0
 27 26  2  0
M  END
$$$$
