IRM.pdb
     RDKit          3D

 28 27  0  0  1  0  0  0  0  0999 V2000
   29.2533  -20.2422  -10.7220 C   0  0  0  0  0  0  0  0  0  0  0  0
   28.1498  -21.2184  -11.0131 C   0  0  0  0  0  0  0  0  0  0  0  0
   26.8015  -20.4690  -11.0634 C   0  0  2  0  0  0  0  0  0  0  0  0
   26.5573  -20.0811   -9.6087 C   0  0  0  0  0  0  0  0  0  0  0  0
   25.7555  -21.4071  -11.5612 C   0  0  2  0  0  0  0  0  0  0  0  0
   26.3694  -22.1458  -12.6746 N   0  0  0  0  0  0  0  0  0  0  0  0
   24.5095  -20.8271  -12.0362 C   0  0  0  0  0  0  0  0  0  0  0  0
   23.5777  -20.5418  -11.1968 O   0  0  0  0  0  0  0  0  0  0  0  0
   23.5147  -16.5382  -18.6131 N   0  0  0  0  0  0  0  0  0  0  0  0
   23.0903  -17.8941  -18.7310 C   0  0  0  0  0  0  0  0  0  0  0  0
   23.5744  -18.5779  -19.7112 N   0  0  0  0  0  0  0  0  0  0  0  0
   22.1758  -18.5020  -17.8283 N   0  0  0  0  0  0  0  0  0  0  0  0
   21.5648  -17.7245  -16.7286 C   0  0  0  0  0  0  0  0  0  0  0  0
   21.6492  -18.4983  -15.4851 C   0  0  0  0  0  0  0  0  0  0  0  0
   22.9157  -19.1294  -15.0725 C   0  0  0  0  0  0  0  0  0  0  0  0
   22.9313  -19.9280  -13.8147 C   0  0  2  0  0  0  0  0  0  0  0  0
   24.1471  -20.5072  -13.3763 N   0  0  0  0  0  0  0  0  0  0  0  0
   21.7712  -20.8419  -13.7819 C   0  0  0  0  0  0  0  0  0  0  0  0
   21.9388  -22.0196  -14.2548 O   0  0  0  0  0  0  0  0  0  0  0  0
   23.2457  -19.5334  -19.9576 C   0  0  0  0  0  0  0  0  0  0  0  0
   19.9859  -23.4062   -9.0016 S   0  0  0  0  0  0  0  0  0  0  0  0
   18.2714  -23.2148   -9.6520 C   0  0  0  0  0  0  0  0  0  0  0  0
   18.3410  -22.9282  -11.3984 C   0  0  0  0  0  0  0  0  0  0  0  0
   19.2778  -21.9382  -11.8942 C   0  0  1  0  0  0  0  0  0  0  0  0
   19.4572  -21.5926  -13.3268 N   0  0  0  0  0  0  0  0  0  0  0  0
   20.5170  -20.5126  -13.2745 C   0  0  0  0  0  0  0  0  0  0  0  0
   18.2728  -20.8067  -13.8822 O   0  0  0  0  0  0  0  0  0  0  0  0
   18.1473  -19.5895  -13.8614 O   0  0  0  0  0  0  0  0  0  0  0  0
  1  2  1  0
  2  3  1  0
  3  5  1  0
  3  4  1  1
  5  7  1  0
  5  6  1  6
  7  8  2  0
 10 12  1  0
 10  9  1  0
 11 10  2  0
 13 12  1  0
 13 14  1  0
 15 14  1  0
 16 15  1  6
 17 16  1  0
 17  7  1  0
 18 25  1  0
 18 16  1  0
 19 18  2  0
 20 21  1  0
 21 22  1  0
 22 23  1  0
 24 23  1  6
 24 25  1  0
 24 26  1  0
 26 28  1  0
 27 26  2  0
M  END
$$$$
