IRM.pdb
     RDKit          3D

 28 27  0  0  1  0  0  0  0  0999 V2000
   28.8678  -21.9903  -19.4304 C   0  0  0  0  0  0  0  0  0  0  0  0
   28.8471  -22.6329  -18.0731 C   0  0  0  0  0  0  0  0  0  0  0  0
   27.5043  -22.3223  -17.3785 C   0  0  2  0  0  0  0  0  0  0  0  0
   27.4939  -20.7996  -17.2922 C   0  0  0  0  0  0  0  0  0  0  0  0
   27.5150  -22.9457  -16.0246 C   0  0  2  0  0  0  0  0  0  0  0  0
   27.5476  -24.3989  -16.2471 N   0  0  0  0  0  0  0  0  0  0  0  0
   26.3971  -22.6485  -15.1435 C   0  0  0  0  0  0  0  0  0  0  0  0
   25.2220  -23.0824  -15.4351 O   0  0  0  0  0  0  0  0  0  0  0  0
   21.5138  -19.9452   -9.2917 N   0  0  0  0  0  0  0  0  0  0  0  0
   22.2199  -20.9623   -8.5851 C   0  0  0  0  0  0  0  0  0  0  0  0
   21.5311  -21.7176   -7.7991 N   0  0  0  0  0  0  0  0  0  0  0  0
   23.6207  -21.1669   -8.7144 N   0  0  0  0  0  0  0  0  0  0  0  0
   24.4432  -20.2746   -9.5597 C   0  0  0  0  0  0  0  0  0  0  0  0
   24.3097  -20.6803  -10.9631 C   0  0  0  0  0  0  0  0  0  0  0  0
   25.4739  -21.1723  -11.7214 C   0  0  0  0  0  0  0  0  0  0  0  0
   25.2922  -21.4990  -13.1637 C   0  0  2  0  0  0  0  0  0  0  0  0
   26.4129  -21.9032  -13.9295 N   0  0  0  0  0  0  0  0  0  0  0  0
   24.4456  -20.4759  -13.8108 C   0  0  0  0  0  0  0  0  0  0  0  0
   24.9411  -19.3031  -13.9436 O   0  0  0  0  0  0  0  0  0  0  0  0
   21.9255  -22.5520   -7.3193 C   0  0  0  0  0  0  0  0  0  0  0  0
   22.1672  -21.5488  -19.0064 S   0  0  0  0  0  0  0  0  0  0  0  0
   20.9951  -20.1395  -18.8089 C   0  0  0  0  0  0  0  0  0  0  0  0
   21.2791  -19.3624  -17.2429 C   0  0  0  0  0  0  0  0  0  0  0  0
   22.1056  -20.0554  -16.2732 C   0  0  1  0  0  0  0  0  0  0  0  0
   22.4560  -19.5227  -14.9325 N   0  0  0  0  0  0  0  0  0  0  0  0
   23.1549  -20.6986  -14.2836 C   0  0  0  0  0  0  0  0  0  0  0  0
   21.2327  -19.3821  -14.0311 O   0  0  0  0  0  0  0  0  0  0  0  0
   20.8385  -20.2128  -13.2234 O   0  0  0  0  0  0  0  0  0  0  0  0
  1  2  1  0
  2  3  1  0
  3  5  1  0
  3  4  1  1
  5  7  1  0
  5  6  1  6
  7  8  2  0
 10 12  1  0
 10  9  1  0
 11 10  2  0
 13 12  1  0
 13 14  1  0
 15 14  1  0
 16 15  1  1
 17 16  1  0
 17  7  1  0
 18 25  1  0
 18 16  1  0
 19 18  2  0
 20 21  1  0
 21 22  1  0
 22 23  1  0
 24 23  1  6
 24 25  1  0
 24 26  1  0
 26 28  1  0
 27 26  2  0
M  END
$$$$
