IRM.pdb
     RDKit          3D

 28 27  0  0  1  0  0  0  0  0999 V2000
   26.5323  -15.0829  -16.0812 C   0  0  0  0  0  0  0  0  0  0  0  0
   26.7020  -16.5729  -16.1625 C   0  0  0  0  0  0  0  0  0  0  0  0
   26.2131  -17.2176  -14.8481 C   0  0  2  0  0  0  0  0  0  0  0  0
   27.1933  -16.6867  -13.8072 C   0  0  0  0  0  0  0  0  0  0  0  0
   26.3087  -18.6991  -14.9822 C   0  0  2  0  0  0  0  0  0  0  0  0
   25.5603  -19.0457  -16.1997 N   0  0  0  0  0  0  0  0  0  0  0  0
   25.7890  -19.5037  -13.8881 C   0  0  0  0  0  0  0  0  0  0  0  0
   24.5386  -19.4467  -13.5921 O   0  0  0  0  0  0  0  0  0  0  0  0
   24.4951  -26.3622  -15.0204 N   0  0  0  0  0  0  0  0  0  0  0  0
   23.6072  -25.2652  -15.2218 C   0  0  0  0  0  0  0  0  0  0  0  0
   22.3511  -25.5376  -15.3258 N   0  0  0  0  0  0  0  0  0  0  0  0
   24.0479  -23.9165  -15.3095 N   0  0  0  0  0  0  0  0  0  0  0  0
   25.2233  -23.4508  -14.5423 C   0  0  0  0  0  0  0  0  0  0  0  0
   24.8029  -23.0962  -13.1823 C   0  0  0  0  0  0  0  0  0  0  0  0
   25.7860  -22.6448  -12.1812 C   0  0  0  0  0  0  0  0  0  0  0  0
   25.9754  -21.1798  -11.9860 C   0  0  2  0  0  0  0  0  0  0  0  0
   26.5042  -20.4021  -13.0449 N   0  0  0  0  0  0  0  0  0  0  0  0
   26.5926  -20.9210  -10.6691 C   0  0  0  0  0  0  0  0  0  0  0  0
   27.4349  -19.9600  -10.5949 O   0  0  0  0  0  0  0  0  0  0  0  0
   21.6169  -24.8098  -15.4399 C   0  0  0  0  0  0  0  0  0  0  0  0
   27.9545  -19.3997   -5.1709 S   0  0  0  0  0  0  0  0  0  0  0  0
   28.3193  -18.3291   -6.6269 C   0  0  0  0  0  0  0  0  0  0  0  0
   26.9524  -18.3917   -7.7514 C   0  0  0  0  0  0  0  0  0  0  0  0
   26.8383  -19.5408   -8.6290 C   0  0  1  0  0  0  0  0  0  0  0  0
   26.3468  -20.8765   -8.2068 N   0  0  0  0  0  0  0  0  0  0  0  0
   26.3220  -21.6453   -9.5110 C   0  0  0  0  0  0  0  0  0  0  0  0
   24.8619  -20.8590   -7.8550 O   0  0  0  0  0  0  0  0  0  0  0  0
   24.3890  -21.0030   -6.7355 O   0  0  0  0  0  0  0  0  0  0  0  0
  1  2  1  0
  2  3  1  0
  3  5  1  0
  3  4  1  1
  5  7  1  0
  5  6  1  6
  7  8  2  0
 10 12  1  0
 10  9  1  0
 11 10  2  0
 13 12  1  0
 13 14  1  0
 15 14  1  0
 16 15  1  6
 17 16  1  0
 17  7  1  0
 18 25  1  0
 18 16  1  0
 19 18  2  0
 20 21  1  0
 21 22  1  0
 22 23  1  0
 24 23  1  1
 24 25  1  0
 24 26  1  0
 26 28  1  0
 27 26  2  0
M  END
$$$$
