IRM.pdb
     RDKit          3D

 28 27  0  0  1  0  0  0  0  0999 V2000
   26.8407  -24.6583  -20.0238 C   0  0  0  0  0  0  0  0  0  0  0  0
   25.8516  -25.5841  -19.3756 C   0  0  0  0  0  0  0  0  0  0  0  0
   25.1093  -24.8347  -18.2488 C   0  0  2  0  0  0  0  0  0  0  0  0
   24.5996  -23.5733  -18.9383 C   0  0  0  0  0  0  0  0  0  0  0  0
   26.0864  -24.5105  -17.1708 C   0  0  2  0  0  0  0  0  0  0  0  0
   26.4775  -25.7977  -16.5769 N   0  0  0  0  0  0  0  0  0  0  0  0
   25.6339  -23.6376  -16.0995 C   0  0  0  0  0  0  0  0  0  0  0  0
   24.4880  -23.8409  -15.5518 O   0  0  0  0  0  0  0  0  0  0  0  0
   23.5021  -20.8630  -10.7542 N   0  0  0  0  0  0  0  0  0  0  0  0
   24.5480  -20.6476   -9.8096 C   0  0  0  0  0  0  0  0  0  0  0  0
   24.2128  -20.1636   -8.6624 N   0  0  0  0  0  0  0  0  0  0  0  0
   25.9120  -20.9408  -10.0823 N   0  0  0  0  0  0  0  0  0  0  0  0
   26.3176  -21.5293  -11.3769 C   0  0  0  0  0  0  0  0  0  0  0  0
   26.4033  -20.4667  -12.3848 C   0  0  0  0  0  0  0  0  0  0  0  0
   26.7510  -20.7778  -13.7830 C   0  0  0  0  0  0  0  0  0  0  0  0
   25.8035  -21.6068  -14.5799 C   0  0  2  0  0  0  0  0  0  0  0  0
   26.3151  -22.5229  -15.5312 N   0  0  0  0  0  0  0  0  0  0  0  0
   24.6911  -20.7694  -15.0734 C   0  0  0  0  0  0  0  0  0  0  0  0
   24.9306  -20.0053  -16.0721 O   0  0  0  0  0  0  0  0  0  0  0  0
   24.8966  -19.9693   -7.9033 C   0  0  0  0  0  0  0  0  0  0  0  0
   21.6983  -21.9905  -19.1597 S   0  0  0  0  0  0  0  0  0  0  0  0
   20.2890  -21.0090  -18.4891 C   0  0  0  0  0  0  0  0  0  0  0  0
   20.8769  -19.9633  -17.1861 C   0  0  0  0  0  0  0  0  0  0  0  0
   21.8521  -20.5049  -16.2593 C   0  0  2  0  0  0  0  0  0  0  0  0
   22.4336  -19.7562  -15.1168 N   0  0  0  0  0  0  0  0  0  0  0  0
   23.4088  -20.7551  -14.5308 C   0  0  0  0  0  0  0  0  0  0  0  0
   21.4458  -19.6078  -13.9630 O   0  0  0  0  0  0  0  0  0  0  0  0
   21.4079  -20.3052  -12.9580 O   0  0  0  0  0  0  0  0  0  0  0  0
  1  2  1  0
  2  3  1  0
  3  5  1  0
  3  4  1  6
  5  7  1  0
  5  6  1  1
  7  8  2  0
 10 12  1  0
 10  9  1  0
 11 10  2  0
 13 12  1  0
 13 14  1  0
 15 14  1  0
 16 15  1  6
 17 16  1  0
 17  7  1  0
 18 25  1  0
 18 16  1  0
 19 18  2  0
 20 21  1  0
 21 22  1  0
 22 23  1  0
 24 23  1  6
 24 25  1  0
 24 26  1  0
 26 28  1  0
 27 26  2  0
M  END
$$$$
