IRM.pdb
     RDKit          3D

 28 27  0  0  1  0  0  0  0  0999 V2000
   34.0701  -22.9277   -9.6695 C   0  0  0  0  0  0  0  0  0  0  0  0
   33.1071  -23.0252  -10.8179 C   0  0  0  0  0  0  0  0  0  0  0  0
   32.0092  -21.9519  -10.6596 C   0  0  2  0  0  0  0  0  0  0  0  0
   31.3947  -22.2715   -9.3008 C   0  0  0  0  0  0  0  0  0  0  0  0
   31.0182  -22.1210  -11.7602 C   0  0  2  0  0  0  0  0  0  0  0  0
   31.7954  -22.1289  -13.0085 N   0  0  0  0  0  0  0  0  0  0  0  0
   29.9773  -21.1131  -11.8824 C   0  0  0  0  0  0  0  0  0  0  0  0
   30.2778  -19.8680  -11.7648 O   0  0  0  0  0  0  0  0  0  0  0  0
   27.9930  -19.7203  -17.4243 N   0  0  0  0  0  0  0  0  0  0  0  0
   26.6872  -20.2025  -17.1165 C   0  0  0  0  0  0  0  0  0  0  0  0
   26.2164  -21.1416  -17.8643 N   0  0  0  0  0  0  0  0  0  0  0  0
   25.9070  -19.6966  -16.0413 N   0  0  0  0  0  0  0  0  0  0  0  0
   26.4805  -18.7366  -15.0735 C   0  0  0  0  0  0  0  0  0  0  0  0
   27.2561  -19.4702  -14.0673 C   0  0  0  0  0  0  0  0  0  0  0  0
   26.6459  -19.8691  -12.7862 C   0  0  0  0  0  0  0  0  0  0  0  0
   27.5231  -20.4659  -11.7401 C   0  0  2  0  0  0  0  0  0  0  0  0
   28.5887  -21.3135  -12.1299 N   0  0  0  0  0  0  0  0  0  0  0  0
   26.7014  -20.9874  -10.6288 C   0  0  0  0  0  0  0  0  0  0  0  0
   27.2425  -21.8515   -9.8547 O   0  0  0  0  0  0  0  0  0  0  0  0
   25.2973  -21.5983  -17.6960 C   0  0  0  0  0  0  0  0  0  0  0  0
   26.9563  -19.1552   -4.1820 S   0  0  0  0  0  0  0  0  0  0  0  0
   26.5280  -18.6514   -5.9031 C   0  0  0  0  0  0  0  0  0  0  0  0
   25.8903  -20.0534   -6.7774 C   0  0  0  0  0  0  0  0  0  0  0  0
   25.4544  -19.8668   -8.1480 C   0  0  2  0  0  0  0  0  0  0  0  0
   24.8477  -20.9283   -8.9901 N   0  0  0  0  0  0  0  0  0  0  0  0
   25.3883  -20.6053  -10.3669 C   0  0  0  0  0  0  0  0  0  0  0  0
   23.3537  -20.7066   -9.2084 O   0  0  0  0  0  0  0  0  0  0  0  0
   22.8531  -19.9926  -10.0672 O   0  0  0  0  0  0  0  0  0  0  0  0
  1  2  1  0
  2  3  1  0
  3  5  1  0
  3  4  1  1
  5  7  1  0
  5  6  1  6
  7  8  2  0
 10 12  1  0
 10  9  1  0
 11 10  2  0
 13 12  1  0
 13 14  1  0
 15 14  1  0
 16 15  1  6
 17 16  1  0
 17  7  1  0
 18 25  1  0
 18 16  1  0
 19 18  2  0
 20 21  1  0
 21 22  1  0
 22 23  1  0
 24 23  1  1
 24 25  1  0
 24 26  1  0
 26 28  1  0
 27 26  2  0
M  END
$$$$
