IRM.pdb
     RDKit          3D

 28 27  0  0  1  0  0  0  0  0999 V2000
   21.3986  -22.2239   -8.9399 C   0  0  0  0  0  0  0  0  0  0  0  0
   21.7136  -20.8049   -8.5617 C   0  0  0  0  0  0  0  0  0  0  0  0
   21.8277  -19.9465   -9.8392 C   0  0  2  0  0  0  0  0  0  0  0  0
   20.5923  -20.3404  -10.6422 C   0  0  0  0  0  0  0  0  0  0  0  0
   23.0831  -20.3195  -10.5510 C   0  0  2  0  0  0  0  0  0  0  0  0
   24.1788  -20.0576   -9.6059 N   0  0  0  0  0  0  0  0  0  0  0  0
   23.3801  -19.6217  -11.7916 C   0  0  0  0  0  0  0  0  0  0  0  0
   23.2835  -18.3401  -11.8417 O   0  0  0  0  0  0  0  0  0  0  0  0
   29.1951  -22.2601  -14.5275 N   0  0  0  0  0  0  0  0  0  0  0  0
   28.2771  -22.0625  -15.6002 C   0  0  0  0  0  0  0  0  0  0  0  0
   27.8995  -23.1100  -16.2505 N   0  0  0  0  0  0  0  0  0  0  0  0
   27.7770  -20.7835  -15.9676 N   0  0  0  0  0  0  0  0  0  0  0  0
   27.8167  -19.6514  -15.0168 C   0  0  0  0  0  0  0  0  0  0  0  0
   26.5408  -19.5808  -14.2964 C   0  0  0  0  0  0  0  0  0  0  0  0
   25.2599  -19.7152  -15.0132 C   0  0  0  0  0  0  0  0  0  0  0  0
   23.9975  -19.4911  -14.2541 C   0  0  2  0  0  0  0  0  0  0  0  0
   23.7891  -20.1824  -13.0358 N   0  0  0  0  0  0  0  0  0  0  0  0
   22.8431  -19.5132  -15.1756 C   0  0  0  0  0  0  0  0  0  0  0  0
   21.9163  -20.3626  -14.9343 O   0  0  0  0  0  0  0  0  0  0  0  0
   27.1649  -23.0905  -16.9866 C   0  0  0  0  0  0  0  0  0  0  0  0
   19.1446  -15.2693  -14.5405 S   0  0  0  0  0  0  0  0  0  0  0  0
   18.2126  -16.8140  -14.9206 C   0  0  0  0  0  0  0  0  0  0  0  0
   19.0700  -17.7147  -16.1818 C   0  0  0  0  0  0  0  0  0  0  0  0
   20.4670  -18.0378  -15.9643 C   0  0  1  0  0  0  0  0  0  0  0  0
   21.3452  -18.6922  -16.9666 N   0  0  0  0  0  0  0  0  0  0  0  0
   22.6948  -18.6786  -16.2804 C   0  0  0  0  0  0  0  0  0  0  0  0
   21.6231  -17.7895  -18.1653 O   0  0  0  0  0  0  0  0  0  0  0  0
   22.6050  -17.0735  -18.3109 O   0  0  0  0  0  0  0  0  0  0  0  0
  1  2  1  0
  2  3  1  0
  3  5  1  0
  3  4  1  6
  5  7  1  0
  5  6  1  1
  7  8  2  0
 10 12  1  0
 10  9  1  0
 11 10  2  0
 13 12  1  0
 13 14  1  0
 15 14  1  0
 16 15  1  6
 17 16  1  0
 17  7  1  0
 18 25  1  0
 18 16  1  0
 19 18  2  0
 20 21  1  0
 21 22  1  0
 22 23  1  0
 24 23  1  1
 24 25  1  0
 24 26  1  0
 26 28  1  0
 27 26  2  0
M  END
$$$$
