IRM.pdb
     RDKit          3D

 28 27  0  0  1  0  0  0  0  0999 V2000
   27.7347  -19.1690  -17.6468 C   0  0  0  0  0  0  0  0  0  0  0  0
   26.7282  -19.0164  -16.5427 C   0  0  0  0  0  0  0  0  0  0  0  0
   26.5159  -17.5169  -16.2452 C   0  0  2  0  0  0  0  0  0  0  0  0
   27.8639  -17.0721  -15.6874 C   0  0  0  0  0  0  0  0  0  0  0  0
   25.4337  -17.3833  -15.2290 C   0  0  2  0  0  0  0  0  0  0  0  0
   25.8346  -18.2297  -14.0953 N   0  0  0  0  0  0  0  0  0  0  0  0
   24.0903  -17.7704  -15.6289 C   0  0  0  0  0  0  0  0  0  0  0  0
   23.4965  -17.1305  -16.5736 O   0  0  0  0  0  0  0  0  0  0  0  0
   24.7981  -23.4339  -15.4215 N   0  0  0  0  0  0  0  0  0  0  0  0
   24.7930  -22.7468  -14.1723 C   0  0  0  0  0  0  0  0  0  0  0  0
   25.9389  -22.4616  -13.6542 N   0  0  0  0  0  0  0  0  0  0  0  0
   23.5990  -22.3750  -13.4965 N   0  0  0  0  0  0  0  0  0  0  0  0
   22.2738  -22.6287  -14.1018 C   0  0  0  0  0  0  0  0  0  0  0  0
   22.0504  -21.6741  -15.1931 C   0  0  0  0  0  0  0  0  0  0  0  0
   21.3458  -20.4021  -14.9518 C   0  0  0  0  0  0  0  0  0  0  0  0
   21.9583  -19.1453  -15.4667 C   0  0  2  0  0  0  0  0  0  0  0  0
   23.2861  -18.8192  -15.0972 N   0  0  0  0  0  0  0  0  0  0  0  0
   20.9981  -18.0291  -15.3469 C   0  0  0  0  0  0  0  0  0  0  0  0
   20.8098  -17.5403  -14.1789 O   0  0  0  0  0  0  0  0  0  0  0  0
   26.0471  -21.9818  -12.7378 C   0  0  0  0  0  0  0  0  0  0  0  0
   20.5569  -12.2666  -17.7036 S   0  0  0  0  0  0  0  0  0  0  0  0
   19.1557  -13.0691  -18.5935 C   0  0  0  0  0  0  0  0  0  0  0  0
   18.5208  -14.3935  -17.6037 C   0  0  0  0  0  0  0  0  0  0  0  0
   19.3879  -15.5242  -17.3333 C   0  0  1  0  0  0  0  0  0  0  0  0
   19.3614  -16.3250  -16.0835 N   0  0  0  0  0  0  0  0  0  0  0  0
   20.2894  -17.4758  -16.4102 C   0  0  0  0  0  0  0  0  0  0  0  0
   18.0391  -17.0647  -15.9015 O   0  0  0  0  0  0  0  0  0  0  0  0
   17.8197  -18.2277  -16.2132 O   0  0  0  0  0  0  0  0  0  0  0  0
  1  2  1  0
  2  3  1  0
  3  5  1  0
  3  4  1  1
  5  7  1  0
  5  6  1  1
  7  8  2  0
 10 12  1  0
 10  9  1  0
 11 10  2  0
 13 12  1  0
 13 14  1  0
 15 14  1  0
 16 15  1  1
 17 16  1  0
 17  7  1  0
 18 25  1  0
 18 16  1  0
 19 18  2  0
 20 21  1  0
 21 22  1  0
 22 23  1  0
 24 23  1  1
 24 25  1  0
 24 26  1  0
 26 28  1  0
 27 26  2  0
M  END
$$$$
