IRM.pdb
     RDKit          3D

 28 27  0  0  1  0  0  0  0  0999 V2000
   27.5081  -19.9130   -6.9888 C   0  0  0  0  0  0  0  0  0  0  0  0
   27.2752  -20.8501   -8.1390 C   0  0  0  0  0  0  0  0  0  0  0  0
   26.0249  -20.3991   -8.9235 C   0  0  2  0  0  0  0  0  0  0  0  0
   24.8814  -20.6617   -7.9490 C   0  0  0  0  0  0  0  0  0  0  0  0
   25.9033  -21.2412  -10.1474 C   0  0  2  0  0  0  0  0  0  0  0  0
   27.2639  -21.3664  -10.6908 N   0  0  0  0  0  0  0  0  0  0  0  0
   25.0358  -20.7559  -11.2087 C   0  0  0  0  0  0  0  0  0  0  0  0
   24.8953  -19.4902  -11.3892 O   0  0  0  0  0  0  0  0  0  0  0  0
   28.5378  -21.1825  -15.3273 N   0  0  0  0  0  0  0  0  0  0  0  0
   27.6976  -21.8881  -16.2377 C   0  0  0  0  0  0  0  0  0  0  0  0
   28.1307  -23.0190  -16.6806 N   0  0  0  0  0  0  0  0  0  0  0  0
   26.4318  -21.4002  -16.6623 N   0  0  0  0  0  0  0  0  0  0  0  0
   25.8206  -20.2162  -16.0207 C   0  0  0  0  0  0  0  0  0  0  0  0
   25.2957  -20.5969  -14.7048 C   0  0  0  0  0  0  0  0  0  0  0  0
   23.8474  -20.7646  -14.4888 C   0  0  0  0  0  0  0  0  0  0  0  0
   23.3646  -21.0301  -13.1044 C   0  0  2  0  0  0  0  0  0  0  0  0
   24.2730  -21.5226  -12.1359 N   0  0  0  0  0  0  0  0  0  0  0  0
   22.0710  -21.7422  -13.1481 C   0  0  0  0  0  0  0  0  0  0  0  0
   22.0714  -22.9797  -12.8208 O   0  0  0  0  0  0  0  0  0  0  0  0
   27.6208  -23.5886  -17.3858 C   0  0  0  0  0  0  0  0  0  0  0  0
   19.8681  -23.5175   -8.9841 S   0  0  0  0  0  0  0  0  0  0  0  0
   18.2269  -22.9412   -9.5953 C   0  0  0  0  0  0  0  0  0  0  0  0
   18.2744  -22.8198  -11.3616 C   0  0  0  0  0  0  0  0  0  0  0  0
   19.4077  -22.1524  -11.9729 C   0  0  1  0  0  0  0  0  0  0  0  0
   19.6317  -22.0450  -13.4366 N   0  0  0  0  0  0  0  0  0  0  0  0
   20.8597  -21.1632  -13.5177 C   0  0  0  0  0  0  0  0  0  0  0  0
   18.5935  -21.1552  -14.1143 O   0  0  0  0  0  0  0  0  0  0  0  0
   18.7484  -19.9814  -14.4242 O   0  0  0  0  0  0  0  0  0  0  0  0
  1  2  1  0
  2  3  1  0
  3  5  1  0
  3  4  1  1
  5  7  1  0
  5  6  1  6
  7  8  2  0
 10 12  1  0
 10  9  1  0
 11 10  2  0
 13 12  1  0
 13 14  1  0
 15 14  1  0
 16 15  1  6
 17 16  1  0
 17  7  1  0
 18 25  1  0
 18 16  1  0
 19 18  2  0
 20 21  1  0
 21 22  1  0
 22 23  1  0
 24 23  1  1
 24 25  1  0
 24 26  1  0
 26 28  1  0
 27 26  2  0
M  END
$$$$
