VEC.pdb
     RDKit          3D

 23 22  0  0  1  0  0  0  0  0999 V2000
    7.3595  -13.0119   21.5639 C   0  0  0  0  0  0  0  0  0  0  0  0
    8.3328  -13.3934   20.4688 C   0  0  2  0  0  0  0  0  0  0  0  0
    7.8545  -12.7153   19.1962 C   0  0  0  0  0  0  0  0  0  0  0  0
    8.2441  -14.8853   20.2280 C   0  0  2  0  0  0  0  0  0  0  0  0
    6.8964  -15.1608   19.7536 N   0  0  0  0  0  0  0  0  0  0  0  0
    8.4911  -15.6660   21.4687 C   0  0  0  0  0  0  0  0  0  0  0  0
    7.5379  -15.9669   22.2312 O   0  0  0  0  0  0  0  0  0  0  0  0
    9.7771  -16.0791   21.8118 N   0  0  0  0  0  0  0  0  0  0  0  0
   10.1422  -16.7493   23.0663 C   0  0  1  0  0  0  0  0  0  0  0  0
   11.3975  -17.5154   22.7125 C   0  0  0  0  0  0  0  0  0  0  0  0
   11.9488  -18.2030   23.8997 C   0  0  0  0  0  0  0  0  0  0  0  0
   13.2158  -18.9211   23.4868 C   0  0  0  0  0  0  0  0  0  0  0  0
   14.2778  -18.2776   23.3045 O   0  0  0  0  0  0  0  0  0  0  0  0
   10.3040  -15.8179   24.1617 C   0  0  0  0  0  0  0  0  0  0  0  0
   10.4901  -14.5861   23.8460 O   0  0  0  0  0  0  0  0  0  0  0  0
   13.1549  -20.2857   23.3227 O   0  0  0  0  0  0  0  0  0  0  0  0
   10.2816  -16.0670   25.5516 N   0  0  0  0  0  0  0  0  0  0  0  0
   10.1520  -15.0205   26.5447 C   0  0  1  0  0  0  0  0  0  0  0  0
    8.8644  -14.2454   26.3917 C   0  0  0  0  0  0  0  0  0  0  0  0
    8.8205  -13.0005   27.7187 S   0  0  0  0  0  0  0  0  0  0  0  0
   10.1397  -15.6020   27.9003 C   0  0  0  0  0  0  0  0  0  0  0  0
    9.9008  -16.8208   28.0509 O   0  0  0  0  0  0  0  0  0  0  0  0
   10.3882  -14.8264   29.0230 O   0  0  0  0  0  0  0  0  0  0  0  0
  2  1  1  1
  3  2  1  0
  4  5  1  1
  4  2  1  0
  6  7  2  0
  6  4  1  0
  8  6  1  0
  9  8  1  0
  9 14  1  0
  9 10  1  6
 11 10  1  0
 12 11  1  0
 13 12  2  0
 14 17  1  0
 15 14  2  0
 16 12  1  0
 17 18  1  0
 18 21  1  0
 18 19  1  6
 19 20  1  0
 21 22  2  0
 21 23  1  0
M  END
$$$$
