VEC.pdb
     RDKit          3D

 23 22  0  0  1  0  0  0  0  0999 V2000
    7.2123  -14.6716   19.6239 C   0  0  0  0  0  0  0  0  0  0  0  0
    7.7524  -13.3720   20.1821 C   0  0  2  0  0  0  0  0  0  0  0  0
    7.9652  -12.4386   19.0025 C   0  0  0  0  0  0  0  0  0  0  0  0
    9.1157  -13.6252   20.7896 C   0  0  2  0  0  0  0  0  0  0  0  0
    9.9020  -14.3339   19.7911 N   0  0  0  0  0  0  0  0  0  0  0  0
    9.0326  -14.4547   22.0203 C   0  0  0  0  0  0  0  0  0  0  0  0
    8.3243  -14.0840   22.9906 O   0  0  0  0  0  0  0  0  0  0  0  0
    9.7338  -15.6545   22.1249 N   0  0  0  0  0  0  0  0  0  0  0  0
    9.7132  -16.5456   23.2919 C   0  0  1  0  0  0  0  0  0  0  0  0
   10.2527  -17.8529   22.7556 C   0  0  0  0  0  0  0  0  0  0  0  0
   10.9969  -17.6399   21.4958 C   0  0  0  0  0  0  0  0  0  0  0  0
   11.4960  -18.9826   21.0064 C   0  0  0  0  0  0  0  0  0  0  0  0
   11.3204  -20.0145   21.6990 O   0  0  0  0  0  0  0  0  0  0  0  0
   10.4604  -16.0084   24.4085 C   0  0  0  0  0  0  0  0  0  0  0  0
   11.2816  -15.0556   24.1454 O   0  0  0  0  0  0  0  0  0  0  0  0
   12.1393  -19.0233   19.7909 O   0  0  0  0  0  0  0  0  0  0  0  0
   10.4150  -16.3801   25.7702 N   0  0  0  0  0  0  0  0  0  0  0  0
   10.3242  -15.4224   26.8530 C   0  0  1  0  0  0  0  0  0  0  0  0
    9.0198  -14.6607   26.8327 C   0  0  0  0  0  0  0  0  0  0  0  0
    9.0820  -13.4436   28.1845 S   0  0  0  0  0  0  0  0  0  0  0  0
   10.3921  -16.1147   28.1538 C   0  0  0  0  0  0  0  0  0  0  0  0
    9.8700  -17.2441   28.2841 O   0  0  0  0  0  0  0  0  0  0  0  0
   11.0253  -15.5415   29.2467 O   0  0  0  0  0  0  0  0  0  0  0  0
  2  1  1  6
  3  2  1  0
  4  5  1  6
  4  2  1  0
  6  7  2  0
  6  4  1  0
  8  6  1  0
  9  8  1  0
  9 14  1  0
  9 10  1  6
 11 10  1  0
 12 11  1  0
 13 12  2  0
 14 17  1  0
 15 14  2  0
 16 12  1  0
 17 18  1  0
 18 21  1  0
 18 19  1  1
 19 20  1  0
 21 22  2  0
 21 23  1  0
M  END
$$$$
