VEC.pdb
     RDKit          3D

 23 22  0  0  1  0  0  0  0  0999 V2000
    7.2338  -13.6514   21.0304 C   0  0  0  0  0  0  0  0  0  0  0  0
    8.4275  -13.4198   20.1284 C   0  0  2  0  0  0  0  0  0  0  0  0
    7.9924  -12.4250   19.0658 C   0  0  0  0  0  0  0  0  0  0  0  0
    8.7593  -14.7096   19.4088 C   0  0  2  0  0  0  0  0  0  0  0  0
    7.5806  -15.0854   18.6427 N   0  0  0  0  0  0  0  0  0  0  0  0
    9.0931  -15.8063   20.3552 C   0  0  0  0  0  0  0  0  0  0  0  0
    8.2136  -16.6334   20.7059 O   0  0  0  0  0  0  0  0  0  0  0  0
   10.3806  -15.9408   20.8714 N   0  0  0  0  0  0  0  0  0  0  0  0
   10.7947  -16.9490   21.8554 C   0  0  1  0  0  0  0  0  0  0  0  0
   12.2560  -17.1795   21.5407 C   0  0  0  0  0  0  0  0  0  0  0  0
   12.8379  -18.1928   22.4468 C   0  0  0  0  0  0  0  0  0  0  0  0
   14.2967  -18.3719   22.0845 C   0  0  0  0  0  0  0  0  0  0  0  0
   15.1956  -18.0593   22.9027 O   0  0  0  0  0  0  0  0  0  0  0  0
   10.5396  -16.5281   23.2162 C   0  0  0  0  0  0  0  0  0  0  0  0
   10.9219  -15.3426   23.5323 O   0  0  0  0  0  0  0  0  0  0  0  0
   14.5905  -18.8832   20.8414 O   0  0  0  0  0  0  0  0  0  0  0  0
    9.9162  -17.2392   24.2650 N   0  0  0  0  0  0  0  0  0  0  0  0
    9.7296  -16.6941   25.5939 C   0  0  1  0  0  0  0  0  0  0  0  0
    8.5177  -15.7960   25.6769 C   0  0  0  0  0  0  0  0  0  0  0  0
    7.1269  -16.6914   24.9176 S   0  0  0  0  0  0  0  0  0  0  0  0
    9.5197  -17.7824   26.5673 C   0  0  0  0  0  0  0  0  0  0  0  0
    9.4513  -18.9666   26.1693 O   0  0  0  0  0  0  0  0  0  0  0  0
    9.3951  -17.5257   27.9245 O   0  0  0  0  0  0  0  0  0  0  0  0
  2  1  1  1
  3  2  1  0
  4  5  1  1
  4  2  1  0
  6  7  2  0
  6  4  1  0
  8  6  1  0
  9  8  1  0
  9 14  1  0
  9 10  1  1
 11 10  1  0
 12 11  1  0
 13 12  2  0
 14 17  1  0
 15 14  2  0
 16 12  1  0
 17 18  1  0
 18 21  1  0
 18 19  1  6
 19 20  1  0
 21 22  2  0
 21 23  1  0
M  END
$$$$
