VEC.pdb
     RDKit          3D

 23 22  0  0  1  0  0  0  0  0999 V2000
    7.3783  -12.9481   18.6995 C   0  0  0  0  0  0  0  0  0  0  0  0
    7.6666  -13.6195   20.0255 C   0  0  2  0  0  0  0  0  0  0  0  0
    8.6502  -12.7301   20.7668 C   0  0  0  0  0  0  0  0  0  0  0  0
    8.3737  -14.9334   19.7695 C   0  0  2  0  0  0  0  0  0  0  0  0
    7.4579  -15.7683   19.0068 N   0  0  0  0  0  0  0  0  0  0  0  0
    8.7287  -15.6311   21.0331 C   0  0  0  0  0  0  0  0  0  0  0  0
    7.8342  -16.1604   21.7405 O   0  0  0  0  0  0  0  0  0  0  0  0
   10.0532  -15.7134   21.4590 N   0  0  0  0  0  0  0  0  0  0  0  0
   10.5134  -16.4367   22.6511 C   0  0  1  0  0  0  0  0  0  0  0  0
   11.9315  -16.8336   22.3056 C   0  0  0  0  0  0  0  0  0  0  0  0
   12.5932  -17.4839   23.4569 C   0  0  0  0  0  0  0  0  0  0  0  0
   13.3217  -18.7120   22.9542 C   0  0  0  0  0  0  0  0  0  0  0  0
   12.7153  -19.8048   22.8376 O   0  0  0  0  0  0  0  0  0  0  0  0
   10.3955  -15.6443   23.8561 C   0  0  0  0  0  0  0  0  0  0  0  0
   10.6156  -14.3836   23.7387 O   0  0  0  0  0  0  0  0  0  0  0  0
   14.6539  -18.5819   22.6360 O   0  0  0  0  0  0  0  0  0  0  0  0
   10.0628  -16.0592   25.1643 N   0  0  0  0  0  0  0  0  0  0  0  0
    9.8017  -15.1353   26.2489 C   0  0  1  0  0  0  0  0  0  0  0  0
    8.4601  -14.4553   26.1084 C   0  0  0  0  0  0  0  0  0  0  0  0
    8.5120  -12.9409   27.1165 S   0  0  0  0  0  0  0  0  0  0  0  0
    9.7815  -15.8533   27.5374 C   0  0  0  0  0  0  0  0  0  0  0  0
    9.7014  -17.1017   27.5512 O   0  0  0  0  0  0  0  0  0  0  0  0
    9.8497  -15.1750   28.7452 O   0  0  0  0  0  0  0  0  0  0  0  0
  2  1  1  6
  3  2  1  0
  4  5  1  6
  4  2  1  0
  6  7  2  0
  6  4  1  0
  8  6  1  0
  9  8  1  0
  9 14  1  0
  9 10  1  6
 11 10  1  0
 12 11  1  0
 13 12  2  0
 14 17  1  0
 15 14  2  0
 16 12  1  0
 17 18  1  0
 18 21  1  0
 18 19  1  6
 19 20  1  0
 21 22  2  0
 21 23  1  0
M  END
$$$$
