VEC.pdb
     RDKit          3D

 23 22  0  0  1  0  0  0  0  0999 V2000
    7.9406  -14.6025   18.9537 C   0  0  0  0  0  0  0  0  0  0  0  0
    7.9436  -13.3530   19.8088 C   0  0  2  0  0  0  0  0  0  0  0  0
    8.1767  -12.1782   18.8742 C   0  0  0  0  0  0  0  0  0  0  0  0
    9.1277  -13.4030   20.7506 C   0  0  2  0  0  0  0  0  0  0  0  0
   10.3137  -13.6097   19.9332 N   0  0  0  0  0  0  0  0  0  0  0  0
    9.0141  -14.5146   21.7310 C   0  0  0  0  0  0  0  0  0  0  0  0
    7.9897  -14.6252   22.4514 O   0  0  0  0  0  0  0  0  0  0  0  0
   10.0346  -15.4531   21.8721 N   0  0  0  0  0  0  0  0  0  0  0  0
   10.0727  -16.5127   22.8880 C   0  0  1  0  0  0  0  0  0  0  0  0
   10.9244  -17.5893   22.2528 C   0  0  0  0  0  0  0  0  0  0  0  0
   11.1663  -18.6986   23.2000 C   0  0  0  0  0  0  0  0  0  0  0  0
   12.0464  -19.7231   22.5164 C   0  0  0  0  0  0  0  0  0  0  0  0
   11.6555  -20.2973   21.4709 O   0  0  0  0  0  0  0  0  0  0  0  0
   10.5688  -16.0375   24.1615 C   0  0  0  0  0  0  0  0  0  0  0  0
   11.5779  -15.2426   24.1248 O   0  0  0  0  0  0  0  0  0  0  0  0
   13.2720  -19.9937   23.0799 O   0  0  0  0  0  0  0  0  0  0  0  0
   10.0951  -16.3194   25.4617 N   0  0  0  0  0  0  0  0  0  0  0  0
   10.3974  -15.4952   26.6139 C   0  0  1  0  0  0  0  0  0  0  0  0
    9.3565  -14.4234   26.8373 C   0  0  0  0  0  0  0  0  0  0  0  0
    9.9018  -13.4267   28.2592 S   0  0  0  0  0  0  0  0  0  0  0  0
   10.4284  -16.3193   27.8370 C   0  0  0  0  0  0  0  0  0  0  0  0
   10.8049  -15.8131   28.9173 O   0  0  0  0  0  0  0  0  0  0  0  0
   10.0478  -17.6529   27.8211 O   0  0  0  0  0  0  0  0  0  0  0  0
  2  1  1  6
  3  2  1  0
  4  5  1  6
  4  2  1  0
  6  7  2  0
  6  4  1  0
  8  6  1  0
  9  8  1  0
  9 14  1  0
  9 10  1  6
 11 10  1  0
 12 11  1  0
 13 12  2  0
 14 17  1  0
 15 14  2  0
 16 12  1  0
 17 18  1  0
 18 21  1  0
 18 19  1  1
 19 20  1  0
 21 22  2  0
 21 23  1  0
M  END
$$$$
