VEC.pdb
     RDKit          3D

 23 22  0  0  1  0  0  0  0  0999 V2000
    7.8288  -14.4895   18.0917 C   0  0  0  0  0  0  0  0  0  0  0  0
    7.9155  -13.3272   19.0581 C   0  0  2  0  0  0  0  0  0  0  0  0
    8.0326  -12.0644   18.2216 C   0  0  0  0  0  0  0  0  0  0  0  0
    9.1975  -13.4431   19.8549 C   0  0  2  0  0  0  0  0  0  0  0  0
   10.2853  -13.5652   18.8962 N   0  0  0  0  0  0  0  0  0  0  0  0
    9.1965  -14.6356   20.7425 C   0  0  0  0  0  0  0  0  0  0  0  0
    8.3022  -14.7789   21.6143 O   0  0  0  0  0  0  0  0  0  0  0  0
   10.1813  -15.6151   20.6282 N   0  0  0  0  0  0  0  0  0  0  0  0
   10.2778  -16.8171   21.4662 C   0  0  1  0  0  0  0  0  0  0  0  0
   11.3316  -17.6535   20.7750 C   0  0  0  0  0  0  0  0  0  0  0  0
   11.6243  -18.8790   21.5486 C   0  0  0  0  0  0  0  0  0  0  0  0
   12.6327  -19.7002   20.7738 C   0  0  0  0  0  0  0  0  0  0  0  0
   12.4881  -20.9421   20.6642 O   0  0  0  0  0  0  0  0  0  0  0  0
   10.5796  -16.5038   22.8463 C   0  0  0  0  0  0  0  0  0  0  0  0
   11.7280  -15.9756   23.0779 O   0  0  0  0  0  0  0  0  0  0  0  0
   13.6963  -19.0388   20.2045 O   0  0  0  0  0  0  0  0  0  0  0  0
    9.7812  -16.6915   23.9959 N   0  0  0  0  0  0  0  0  0  0  0  0
   10.2236  -16.3576   25.3341 C   0  0  1  0  0  0  0  0  0  0  0  0
    9.3161  -15.3502   26.0001 C   0  0  0  0  0  0  0  0  0  0  0  0
    7.6031  -15.9036   25.7318 S   0  0  0  0  0  0  0  0  0  0  0  0
   10.2219  -17.5609   26.1874 C   0  0  0  0  0  0  0  0  0  0  0  0
    9.7199  -18.6242   25.7602 O   0  0  0  0  0  0  0  0  0  0  0  0
   10.7671  -17.5448   27.4626 O   0  0  0  0  0  0  0  0  0  0  0  0
  2  1  1  6
  3  2  1  0
  4  5  1  6
  4  2  1  0
  6  7  2  0
  6  4  1  0
  8  6  1  0
  9  8  1  0
  9 14  1  0
  9 10  1  6
 11 10  1  0
 12 11  1  0
 13 12  2  0
 14 17  1  0
 15 14  2  0
 16 12  1  0
 17 18  1  0
 18 21  1  0
 18 19  1  1
 19 20  1  0
 21 22  2  0
 21 23  1  0
M  END
$$$$
