WST.pdb
     RDKit          3D

 28 29  0  0  1  0  0  0  0  0999 V2000
   26.0703  -21.3071  -15.5029 N   0  0  0  0  0  0  0  0  0  0  0  0
   25.0994  -20.2623  -15.3007 C   0  0  1  0  0  0  0  0  0  0  0  0
   24.7299  -19.6579  -16.6191 C   0  0  0  0  0  0  0  0  0  0  0  0
   25.8386  -18.7604  -17.0601 C   0  0  0  0  0  0  0  0  0  0  0  0
   26.7848  -19.0650  -18.0151 C   0  0  0  0  0  0  0  0  0  0  0  0
   27.5897  -18.0221  -18.1796 N   0  0  0  0  0  0  0  0  0  0  0  0
   27.2124  -17.0280  -17.3634 C   0  0  0  0  0  0  0  0  0  0  0  0
   27.7088  -15.7598  -17.1422 C   0  0  0  0  0  0  0  0  0  0  0  0
   27.1488  -14.9117  -16.2302 C   0  0  0  0  0  0  0  0  0  0  0  0
   26.0560  -15.3636  -15.5242 C   0  0  0  0  0  0  0  0  0  0  0  0
   25.5220  -16.6308  -15.7132 C   0  0  0  0  0  0  0  0  0  0  0  0
   26.1175  -17.4610  -16.6481 C   0  0  0  0  0  0  0  0  0  0  0  0
   23.9217  -20.8551  -14.6067 C   0  0  0  0  0  0  0  0  0  0  0  0
   23.6908  -22.0719  -14.7498 O   0  0  0  0  0  0  0  0  0  0  0  0
   20.8752  -18.5965  -12.7923 O   0  0  0  0  0  0  0  0  0  0  0  0
   21.3849  -19.7297  -12.1181 C   0  0  0  0  0  0  0  0  0  0  0  0
   21.8649  -20.6582  -13.2438 C   0  0  2  0  0  0  0  0  0  0  0  0
   23.0509  -20.0564  -13.7800 N   0  0  0  0  0  0  0  0  0  0  0  0
   20.7490  -20.6706  -14.2336 C   0  0  0  0  0  0  0  0  0  0  0  0
   20.6789  -19.7285  -15.0527 O   0  0  0  0  0  0  0  0  0  0  0  0
   19.4182  -23.8632  -16.2693 C   0  0  0  0  0  0  0  0  0  0  0  0
   18.2836  -23.1898  -15.5168 C   0  0  1  0  0  0  0  0  0  0  0  0
   18.0753  -23.8674  -14.3211 O   0  0  0  0  0  0  0  0  0  0  0  0
   18.6962  -21.7594  -15.2151 C   0  0  2  0  0  0  0  0  0  0  0  0
   19.7815  -21.6993  -14.2744 N   0  0  0  0  0  0  0  0  0  0  0  0
   17.5383  -21.0400  -14.6546 C   0  0  0  0  0  0  0  0  0  0  0  0
   17.5522  -20.6311  -13.3453 O   0  0  0  0  0  0  0  0  0  0  0  0
   16.5422  -20.8008  -15.3677 O   0  0  0  0  0  0  0  0  0  0  0  0
  2  1  1  6
  2  3  1  0
  3  4  1  0
  4 12  1  0
  4  5  2  0
  5  6  1  0
  7  8  2  0
  7  6  1  0
  9  8  1  0
 10  9  2  0
 11 10  1  0
 11 12  2  0
 12  7  1  0
 13 18  1  0
 13  2  1  0
 14 13  2  0
 15 16  1  0
 17 16  1  1
 17 18  1  0
 19 17  1  0
 19 25  1  0
 20 19  2  0
 22 24  1  0
 22 21  1  1
 23 22  1  0
 24 25  1  1
 24 26  1  0
 26 28  2  0
 26 27  1  0
M  END
$$$$
