WST.pdb
     RDKit          3D

 28 29  0  0  1  0  0  0  0  0999 V2000
   25.5259  -19.9551  -16.8922 N   0  0  0  0  0  0  0  0  0  0  0  0
   24.7934  -19.3701  -15.7984 C   0  0  1  0  0  0  0  0  0  0  0  0
   24.1707  -18.0834  -16.2421 C   0  0  0  0  0  0  0  0  0  0  0  0
   25.1206  -16.9686  -15.9522 C   0  0  0  0  0  0  0  0  0  0  0  0
   25.7467  -16.7424  -14.7451 C   0  0  0  0  0  0  0  0  0  0  0  0
   26.5482  -15.6904  -14.8602 N   0  0  0  0  0  0  0  0  0  0  0  0
   26.4779  -15.2039  -16.1073 C   0  0  0  0  0  0  0  0  0  0  0  0
   27.0921  -14.1377  -16.7316 C   0  0  0  0  0  0  0  0  0  0  0  0
   26.8479  -13.8249  -18.0382 C   0  0  0  0  0  0  0  0  0  0  0  0
   25.9564  -14.6155  -18.7288 C   0  0  0  0  0  0  0  0  0  0  0  0
   25.3153  -15.6981  -18.1426 C   0  0  0  0  0  0  0  0  0  0  0  0
   25.5903  -15.9838  -16.8157 C   0  0  0  0  0  0  0  0  0  0  0  0
   23.7746  -20.3581  -15.3448 C   0  0  0  0  0  0  0  0  0  0  0  0
   23.4389  -21.2735  -16.1218 O   0  0  0  0  0  0  0  0  0  0  0  0
   21.3039  -20.0416  -11.9163 O   0  0  0  0  0  0  0  0  0  0  0  0
   22.1162  -21.1821  -12.1108 C   0  0  0  0  0  0  0  0  0  0  0  0
   22.2498  -21.2983  -13.6367 C   0  0  2  0  0  0  0  0  0  0  0  0
   23.1740  -20.2774  -14.0362 N   0  0  0  0  0  0  0  0  0  0  0  0
   20.8770  -21.0452  -14.1628 C   0  0  0  0  0  0  0  0  0  0  0  0
   20.5250  -19.8586  -14.3407 O   0  0  0  0  0  0  0  0  0  0  0  0
   19.1767  -22.5169  -17.3302 C   0  0  0  0  0  0  0  0  0  0  0  0
   18.3477  -22.8889  -16.1132 C   0  0  1  0  0  0  0  0  0  0  0  0
   18.7101  -24.1649  -15.6979 O   0  0  0  0  0  0  0  0  0  0  0  0
   18.6572  -21.8964  -15.0057 C   0  0  2  0  0  0  0  0  0  0  0  0
   19.9740  -22.0895  -14.4624 N   0  0  0  0  0  0  0  0  0  0  0  0
   17.6665  -22.0648  -13.9274 C   0  0  0  0  0  0  0  0  0  0  0  0
   16.3577  -21.7109  -14.1362 O   0  0  0  0  0  0  0  0  0  0  0  0
   18.0140  -22.5292  -12.8222 O   0  0  0  0  0  0  0  0  0  0  0  0
  2  1  1  6
  2  3  1  0
  3  4  1  0
  4 12  1  0
  4  5  2  0
  5  6  1  0
  7  8  2  0
  7  6  1  0
  9  8  1  0
 10  9  2  0
 11 10  1  0
 11 12  2  0
 12  7  1  0
 13 18  1  0
 13  2  1  0
 14 13  2  0
 15 16  1  0
 17 16  1  1
 17 18  1  0
 19 17  1  0
 19 25  1  0
 20 19  2  0
 22 24  1  0
 22 21  1  6
 23 22  1  0
 24 25  1  1
 24 26  1  0
 26 28  2  0
 26 27  1  0
M  END
$$$$
