WST.pdb
     RDKit          3D

 28 29  0  0  1  0  0  0  0  0999 V2000
   29.0316  -21.5051  -10.5994 N   0  0  0  0  0  0  0  0  0  0  0  0
   27.6344  -21.2186  -10.3975 C   0  0  1  0  0  0  0  0  0  0  0  0
   27.4840  -19.8686   -9.7692 C   0  0  0  0  0  0  0  0  0  0  0  0
   28.2008  -19.8693   -8.4595 C   0  0  0  0  0  0  0  0  0  0  0  0
   29.5334  -19.5690   -8.2748 C   0  0  0  0  0  0  0  0  0  0  0  0
   29.8190  -19.6318   -6.9798 N   0  0  0  0  0  0  0  0  0  0  0  0
   28.7188  -19.9658   -6.2909 C   0  0  0  0  0  0  0  0  0  0  0  0
   28.4819  -20.1672   -4.9466 C   0  0  0  0  0  0  0  0  0  0  0  0
   27.2508  -20.5204   -4.4731 C   0  0  0  0  0  0  0  0  0  0  0  0
   26.2336  -20.6733   -5.3889 C   0  0  0  0  0  0  0  0  0  0  0  0
   26.4249  -20.4809   -6.7502 C   0  0  0  0  0  0  0  0  0  0  0  0
   27.6877  -20.1221   -7.1911 C   0  0  0  0  0  0  0  0  0  0  0  0
   26.9512  -21.3004  -11.7191 C   0  0  0  0  0  0  0  0  0  0  0  0
   27.5932  -21.0038  -12.7459 O   0  0  0  0  0  0  0  0  0  0  0  0
   23.9643  -23.5207  -12.4672 O   0  0  0  0  0  0  0  0  0  0  0  0
   24.4520  -22.8334  -13.6022 C   0  0  0  0  0  0  0  0  0  0  0  0
   24.8778  -21.4600  -13.0616 C   0  0  2  0  0  0  0  0  0  0  0  0
   25.5738  -21.7120  -11.8335 N   0  0  0  0  0  0  0  0  0  0  0  0
   23.6006  -20.7225  -12.8380 C   0  0  0  0  0  0  0  0  0  0  0  0
   23.1730  -20.6288  -11.6668 O   0  0  0  0  0  0  0  0  0  0  0  0
   22.1833  -17.4341  -15.0273 C   0  0  0  0  0  0  0  0  0  0  0  0
   21.2517  -18.6317  -14.9599 C   0  0  1  0  0  0  0  0  0  0  0  0
   21.4384  -19.4086  -16.0973 O   0  0  0  0  0  0  0  0  0  0  0  0
   21.6155  -19.4485  -13.7318 C   0  0  2  0  0  0  0  0  0  0  0  0
   22.8684  -20.1343  -13.8934 N   0  0  0  0  0  0  0  0  0  0  0  0
   20.5543  -20.4430  -13.4923 C   0  0  0  0  0  0  0  0  0  0  0  0
   19.4480  -20.1027  -12.7561 O   0  0  0  0  0  0  0  0  0  0  0  0
   20.6582  -21.5966  -13.9574 O   0  0  0  0  0  0  0  0  0  0  0  0
  2  1  1  6
  2  3  1  0
  3  4  1  0
  4 12  1  0
  4  5  2  0
  5  6  1  0
  7  8  2  0
  7  6  1  0
  9  8  1  0
 10  9  2  0
 11 10  1  0
 11 12  2  0
 12  7  1  0
 13 18  1  0
 13  2  1  0
 14 13  2  0
 15 16  1  0
 17 16  1  1
 17 18  1  0
 19 17  1  0
 19 25  1  0
 20 19  2  0
 22 24  1  0
 22 21  1  6
 23 22  1  0
 24 25  1  6
 24 26  1  0
 26 28  2  0
 26 27  1  0
M  END
$$$$
