WST.pdb
     RDKit          3D

 28 29  0  0  1  0  0  0  0  0999 V2000
   27.3961  -21.8093  -11.0993 N   0  0  0  0  0  0  0  0  0  0  0  0
   26.5309  -20.9056  -10.3853 C   0  0  1  0  0  0  0  0  0  0  0  0
   27.3319  -19.7592   -9.8523 C   0  0  0  0  0  0  0  0  0  0  0  0
   28.3095  -20.2838   -8.8532 C   0  0  0  0  0  0  0  0  0  0  0  0
   29.4157  -21.0539   -9.1421 C   0  0  0  0  0  0  0  0  0  0  0  0
   30.0771  -21.3054   -8.0188 N   0  0  0  0  0  0  0  0  0  0  0  0
   29.4477  -20.7282   -6.9857 C   0  0  0  0  0  0  0  0  0  0  0  0
   29.7109  -20.6920   -5.6318 C   0  0  0  0  0  0  0  0  0  0  0  0
   28.8996  -20.0323   -4.7536 C   0  0  0  0  0  0  0  0  0  0  0  0
   27.7919  -19.3926   -5.2639 C   0  0  0  0  0  0  0  0  0  0  0  0
   27.4873  -19.4015   -6.6181 C   0  0  0  0  0  0  0  0  0  0  0  0
   28.3354  -20.0807   -7.4769 C   0  0  0  0  0  0  0  0  0  0  0  0
   25.4620  -20.4550  -11.3204 C   0  0  0  0  0  0  0  0  0  0  0  0
   25.6899  -19.4846  -12.0693 O   0  0  0  0  0  0  0  0  0  0  0  0
   22.9580  -20.2686  -14.6217 O   0  0  0  0  0  0  0  0  0  0  0  0
   23.8602  -20.8756  -13.7183 C   0  0  0  0  0  0  0  0  0  0  0  0
   23.2162  -20.6665  -12.3393 C   0  0  2  0  0  0  0  0  0  0  0  0
   24.1800  -21.1131  -11.3761 N   0  0  0  0  0  0  0  0  0  0  0  0
   21.9979  -21.5272  -12.3499 C   0  0  0  0  0  0  0  0  0  0  0  0
   22.1523  -22.7638  -12.4522 O   0  0  0  0  0  0  0  0  0  0  0  0
   18.9357  -21.1302   -9.8721 C   0  0  0  0  0  0  0  0  0  0  0  0
   18.4344  -21.1377  -11.3058 C   0  0  1  0  0  0  0  0  0  0  0  0
   18.2451  -19.8246  -11.7206 O   0  0  0  0  0  0  0  0  0  0  0  0
   19.4950  -21.7888  -12.1768 C   0  0  2  0  0  0  0  0  0  0  0  0
   20.6924  -20.9966  -12.2496 N   0  0  0  0  0  0  0  0  0  0  0  0
   18.9525  -21.9598  -13.5366 C   0  0  0  0  0  0  0  0  0  0  0  0
   17.9677  -22.8855  -13.7714 O   0  0  0  0  0  0  0  0  0  0  0  0
   19.3863  -21.2644  -14.4779 O   0  0  0  0  0  0  0  0  0  0  0  0
  2  1  1  6
  2  3  1  0
  3  4  1  0
  4 12  1  0
  4  5  2  0
  5  6  1  0
  7  8  2  0
  7  6  1  0
  9  8  1  0
 10  9  2  0
 11 10  1  0
 11 12  2  0
 12  7  1  0
 13 18  1  0
 13  2  1  0
 14 13  2  0
 15 16  1  0
 17 16  1  6
 17 18  1  0
 19 17  1  0
 19 25  1  0
 20 19  2  0
 22 24  1  0
 22 21  1  1
 23 22  1  0
 24 25  1  6
 24 26  1  0
 26 28  2  0
 26 27  1  0
M  END
$$$$
