WST.pdb
     RDKit          3D

 28 29  0  0  1  0  0  0  0  0999 V2000
   25.8169  -22.1821   -9.7713 N   0  0  0  0  0  0  0  0  0  0  0  0
   26.5337  -20.9489   -9.9723 C   0  0  1  0  0  0  0  0  0  0  0  0
   27.7554  -20.9313   -9.1078 C   0  0  0  0  0  0  0  0  0  0  0  0
   27.3691  -20.4583   -7.7454 C   0  0  0  0  0  0  0  0  0  0  0  0
   26.0962  -20.1068   -7.3499 C   0  0  0  0  0  0  0  0  0  0  0  0
   26.1155  -19.7733   -6.0650 N   0  0  0  0  0  0  0  0  0  0  0  0
   27.3625  -19.8897   -5.5873 C   0  0  0  0  0  0  0  0  0  0  0  0
   27.9127  -19.6615   -4.3428 C   0  0  0  0  0  0  0  0  0  0  0  0
   29.2430  -19.8442   -4.0944 C   0  0  0  0  0  0  0  0  0  0  0  0
   30.0352  -20.2699   -5.1375 C   0  0  0  0  0  0  0  0  0  0  0  0
   29.5260  -20.5126   -6.4058 C   0  0  0  0  0  0  0  0  0  0  0  0
   28.1714  -20.3167   -6.6175 C   0  0  0  0  0  0  0  0  0  0  0  0
   26.8705  -20.8418  -11.4198 C   0  0  0  0  0  0  0  0  0  0  0  0
   27.7903  -21.5492  -11.8757 O   0  0  0  0  0  0  0  0  0  0  0  0
   24.6535  -20.9317  -14.3689 O   0  0  0  0  0  0  0  0  0  0  0  0
   26.0586  -21.0868  -14.3768 C   0  0  0  0  0  0  0  0  0  0  0  0
   26.5839  -19.8328  -13.6617 C   0  0  2  0  0  0  0  0  0  0  0  0
   26.1599  -19.9439  -12.2964 N   0  0  0  0  0  0  0  0  0  0  0  0
   25.9267  -18.6895  -14.3589 C   0  0  0  0  0  0  0  0  0  0  0  0
   24.8305  -18.2824  -13.9161 O   0  0  0  0  0  0  0  0  0  0  0  0
   28.0754  -15.7638  -16.4452 C   0  0  0  0  0  0  0  0  0  0  0  0
   26.8783  -16.3337  -17.1860 C   0  0  1  0  0  0  0  0  0  0  0  0
   27.3172  -17.3396  -18.0390 O   0  0  0  0  0  0  0  0  0  0  0  0
   25.9246  -16.9268  -16.1633 C   0  0  2  0  0  0  0  0  0  0  0  0
   26.4959  -18.0603  -15.4886 N   0  0  0  0  0  0  0  0  0  0  0  0
   24.6938  -17.3527  -16.8536 C   0  0  0  0  0  0  0  0  0  0  0  0
   23.8419  -16.4147  -17.3792 O   0  0  0  0  0  0  0  0  0  0  0  0
   24.4224  -18.5661  -16.9621 O   0  0  0  0  0  0  0  0  0  0  0  0
  2  1  1  6
  2  3  1  0
  3  4  1  0
  4 12  1  0
  4  5  2  0
  5  6  1  0
  7  8  2  0
  7  6  1  0
  9  8  1  0
 10  9  2  0
 11 10  1  0
 11 12  2  0
 12  7  1  0
 13 18  1  0
 13  2  1  0
 14 13  2  0
 15 16  1  0
 17 16  1  6
 17 18  1  0
 19 17  1  0
 19 25  1  0
 20 19  2  0
 22 24  1  0
 22 21  1  1
 23 22  1  0
 24 25  1  6
 24 26  1  0
 26 28  2  0
 26 27  1  0
M  END
$$$$
