WST.pdb
     RDKit          3D

 28 29  0  0  1  0  0  0  0  0999 V2000
   27.0161  -22.2710  -13.2095 N   0  0  0  0  0  0  0  0  0  0  0  0
   26.1096  -21.4408  -12.4584 C   0  0  1  0  0  0  0  0  0  0  0  0
   26.7885  -20.1576  -12.0940 C   0  0  0  0  0  0  0  0  0  0  0  0
   27.7682  -20.4298  -11.0007 C   0  0  0  0  0  0  0  0  0  0  0  0
   29.1252  -20.6071  -11.1661 C   0  0  0  0  0  0  0  0  0  0  0  0
   29.6889  -20.7899   -9.9782 N   0  0  0  0  0  0  0  0  0  0  0  0
   28.7512  -20.7413   -9.0215 C   0  0  0  0  0  0  0  0  0  0  0  0
   28.8065  -20.8766   -7.6496 C   0  0  0  0  0  0  0  0  0  0  0  0
   27.6893  -20.7972   -6.8683 C   0  0  0  0  0  0  0  0  0  0  0  0
   26.4844  -20.5745   -7.4970 C   0  0  0  0  0  0  0  0  0  0  0  0
   26.3804  -20.4317   -8.8738 C   0  0  0  0  0  0  0  0  0  0  0  0
   27.5364  -20.5175   -9.6316 C   0  0  0  0  0  0  0  0  0  0  0  0
   24.8944  -21.2147  -13.2903 C   0  0  0  0  0  0  0  0  0  0  0  0
   25.0268  -21.0858  -14.5233 O   0  0  0  0  0  0  0  0  0  0  0  0
   21.1665  -21.3208  -11.6449 O   0  0  0  0  0  0  0  0  0  0  0  0
   21.3227  -21.8434  -12.9491 C   0  0  0  0  0  0  0  0  0  0  0  0
   22.4445  -20.9952  -13.5670 C   0  0  2  0  0  0  0  0  0  0  0  0
   23.5793  -21.1424  -12.7029 N   0  0  0  0  0  0  0  0  0  0  0  0
   21.9175  -19.5997  -13.5632 C   0  0  0  0  0  0  0  0  0  0  0  0
   22.0239  -18.9338  -12.5103 O   0  0  0  0  0  0  0  0  0  0  0  0
   22.2031  -16.9108  -16.6331 C   0  0  0  0  0  0  0  0  0  0  0  0
   20.7737  -17.1290  -16.1685 C   0  0  1  0  0  0  0  0  0  0  0  0
   20.1723  -18.0692  -16.9971 O   0  0  0  0  0  0  0  0  0  0  0  0
   20.8122  -17.6667  -14.7483 C   0  0  2  0  0  0  0  0  0  0  0  0
   21.3099  -19.0143  -14.6964 N   0  0  0  0  0  0  0  0  0  0  0  0
   19.4467  -17.6404  -14.1941 C   0  0  0  0  0  0  0  0  0  0  0  0
   18.8913  -16.4520  -13.7929 O   0  0  0  0  0  0  0  0  0  0  0  0
   18.7917  -18.6976  -14.0877 O   0  0  0  0  0  0  0  0  0  0  0  0
  2  1  1  6
  2  3  1  0
  3  4  1  0
  4 12  1  0
  4  5  2  0
  5  6  1  0
  7  8  2  0
  7  6  1  0
  9  8  1  0
 10  9  2  0
 11 10  1  0
 11 12  2  0
 12  7  1  0
 13 18  1  0
 13  2  1  0
 14 13  2  0
 15 16  1  0
 17 16  1  1
 17 18  1  0
 19 17  1  0
 19 25  1  0
 20 19  2  0
 22 24  1  0
 22 21  1  6
 23 22  1  0
 24 25  1  6
 24 26  1  0
 26 28  2  0
 26 27  1  0
M  END
$$$$
