WST.pdb
     RDKit          3D

 28 29  0  0  1  0  0  0  0  0999 V2000
   28.5689  -20.7120   -9.2419 N   0  0  0  0  0  0  0  0  0  0  0  0
   27.2387  -20.6897   -8.6898 C   0  0  1  0  0  0  0  0  0  0  0  0
   26.9664  -19.3460   -8.0894 C   0  0  0  0  0  0  0  0  0  0  0  0
   27.8780  -19.1509   -6.9232 C   0  0  0  0  0  0  0  0  0  0  0  0
   28.8236  -18.1551   -6.8026 C   0  0  0  0  0  0  0  0  0  0  0  0
   29.4217  -18.2627   -5.6223 N   0  0  0  0  0  0  0  0  0  0  0  0
   28.9066  -19.3005   -4.9483 C   0  0  0  0  0  0  0  0  0  0  0  0
   29.1770  -19.8362   -3.7059 C   0  0  0  0  0  0  0  0  0  0  0  0
   28.5123  -20.9291   -3.2280 C   0  0  0  0  0  0  0  0  0  0  0  0
   27.5476  -21.4928   -4.0333 C   0  0  0  0  0  0  0  0  0  0  0  0
   27.2413  -20.9883   -5.2896 C   0  0  0  0  0  0  0  0  0  0  0  0
   27.9368  -19.8779   -5.7383 C   0  0  0  0  0  0  0  0  0  0  0  0
   26.2804  -21.0195   -9.7820 C   0  0  0  0  0  0  0  0  0  0  0  0
   26.7301  -21.2984  -10.9109 O   0  0  0  0  0  0  0  0  0  0  0  0
   22.5132  -19.9860   -9.4802 O   0  0  0  0  0  0  0  0  0  0  0  0
   22.5552  -21.2502  -10.1115 C   0  0  0  0  0  0  0  0  0  0  0  0
   23.9885  -21.3573  -10.6537 C   0  0  2  0  0  0  0  0  0  0  0  0
   24.8552  -21.0225   -9.5615 N   0  0  0  0  0  0  0  0  0  0  0  0
   24.0600  -20.3502  -11.7518 C   0  0  0  0  0  0  0  0  0  0  0  0
   24.4504  -19.1969  -11.4675 O   0  0  0  0  0  0  0  0  0  0  0  0
   24.4648  -21.4591  -15.7533 C   0  0  0  0  0  0  0  0  0  0  0  0
   24.7988  -20.0833  -15.2034 C   0  0  1  0  0  0  0  0  0  0  0  0
   24.7604  -19.1636  -16.2450 O   0  0  0  0  0  0  0  0  0  0  0  0
   23.7458  -19.7147  -14.1726 C   0  0  2  0  0  0  0  0  0  0  0  0
   23.7052  -20.6540  -13.0851 N   0  0  0  0  0  0  0  0  0  0  0  0
   22.4270  -19.6886  -14.8303 C   0  0  0  0  0  0  0  0  0  0  0  0
   22.1758  -18.7827  -15.8294 O   0  0  0  0  0  0  0  0  0  0  0  0
   21.5352  -20.4891  -14.4813 O   0  0  0  0  0  0  0  0  0  0  0  0
  2  1  1  6
  2  3  1  0
  3  4  1  0
  4 12  1  0
  4  5  2  0
  5  6  1  0
  7  8  2  0
  7  6  1  0
  9  8  1  0
 10  9  2  0
 11 10  1  0
 11 12  2  0
 12  7  1  0
 13 18  1  0
 13  2  1  0
 14 13  2  0
 15 16  1  0
 17 16  1  1
 17 18  1  0
 19 17  1  0
 19 25  1  0
 20 19  2  0
 22 24  1  0
 22 21  1  6
 23 22  1  0
 24 25  1  1
 24 26  1  0
 26 28  2  0
 26 27  1  0
M  END
$$$$
