NHT.pdb
     RDKit          3D

 26 26  0  0  1  0  0  0  0  0999 V2000
   17.5952  -13.4927  -17.1914 N   0  0  0  0  0  0  0  0  0  0  0  0
   18.9243  -13.9606  -17.0839 C   0  0  0  0  0  0  0  0  0  0  0  0
   19.0781  -15.2126  -16.8943 O   0  0  0  0  0  0  0  0  0  0  0  0
   20.1130  -13.0737  -17.1808 C   0  0  0  0  0  0  0  0  0  0  0  0
   19.6184  -11.6728  -17.3821 C   0  0  2  0  0  0  0  0  0  0  0  0
   19.3077  -11.4697  -18.7760 N   0  0  0  0  0  0  0  0  0  0  0  0
   20.6064  -10.6600  -16.8948 C   0  0  0  0  0  0  0  0  0  0  0  0
   21.0540  -10.8388  -15.7570 O   0  0  0  0  0  0  0  0  0  0  0  0
   20.9991   -9.5761  -17.6808 N   0  0  0  0  0  0  0  0  0  0  0  0
   21.9000   -8.5362  -17.3855 C   0  0  1  0  0  0  0  0  0  0  0  0
   22.6695   -7.9424  -18.5511 C   0  0  0  0  0  0  0  0  0  0  0  0
   23.6652   -8.8249  -19.1481 C   0  0  0  0  0  0  0  0  0  0  0  0
   23.9868  -10.0625  -18.6054 C   0  0  0  0  0  0  0  0  0  0  0  0
   24.9294  -10.6179  -19.3863 N   0  0  0  0  0  0  0  0  0  0  0  0
   25.2162   -9.7916  -20.3922 C   0  0  0  0  0  0  0  0  0  0  0  0
   24.4405   -8.7095  -20.2321 N   0  0  0  0  0  0  0  0  0  0  0  0
   21.3708   -7.4571  -16.5576 C   0  0  0  0  0  0  0  0  0  0  0  0
   20.4358   -6.7438  -17.0596 O   0  0  0  0  0  0  0  0  0  0  0  0
   19.6085   -7.8340  -13.3098 C   0  0  0  0  0  0  0  0  0  0  0  0
   20.6685   -6.7665  -13.1434 C   0  0  1  0  0  0  0  0  0  0  0  0
   21.7347   -7.2837  -12.4391 O   0  0  0  0  0  0  0  0  0  0  0  0
   21.0676   -6.1633  -14.4722 C   0  0  2  0  0  0  0  0  0  0  0  0
   21.8007   -7.1440  -15.2687 N   0  0  0  0  0  0  0  0  0  0  0  0
   21.9394   -5.0009  -14.1756 C   0  0  0  0  0  0  0  0  0  0  0  0
   23.1561   -5.0096  -14.4145 O   0  0  0  0  0  0  0  0  0  0  0  0
   21.3740   -3.8752  -13.6154 O   0  0  0  0  0  0  0  0  0  0  0  0
  2  3  2  0
  2  1  1  0
  4  2  1  0
  5  4  1  0
  5  6  1  6
  7  5  1  0
  7  9  1  0
  8  7  2  0
 10  9  1  0
 11 12  1  0
 10 11  1  6
 12 13  2  0
 13 14  1  0
 15 14  1  0
 16 12  1  0
 16 15  2  0
 17 18  2  0
 17 10  1  0
 20 19  1  6
 20 21  1  0
 22 23  1  6
 22 20  1  0
 23 17  1  0
 24 22  1  0
 25 24  2  0
 26 24  1  0
M  END
$$$$
