NHT.pdb
     RDKit          3D

 26 26  0  0  1  0  0  0  0  0999 V2000
   13.9659  -27.0606    1.1498 N   0  0  0  0  0  0  0  0  0  0  0  0
   14.6762  -26.2384    0.2461 C   0  0  0  0  0  0  0  0  0  0  0  0
   15.1104  -26.7953   -0.8162 O   0  0  0  0  0  0  0  0  0  0  0  0
   14.9279  -24.7928    0.4817 C   0  0  0  0  0  0  0  0  0  0  0  0
   13.7812  -24.0303   -0.1111 C   0  0  2  0  0  0  0  0  0  0  0  0
   13.7842  -24.1971   -1.5440 N   0  0  0  0  0  0  0  0  0  0  0  0
   13.8238  -22.5825    0.2651 C   0  0  0  0  0  0  0  0  0  0  0  0
   14.5640  -21.8641   -0.4151 O   0  0  0  0  0  0  0  0  0  0  0  0
   13.0703  -22.0737    1.3237 N   0  0  0  0  0  0  0  0  0  0  0  0
   12.9602  -20.7503    1.7889 C   0  0  1  0  0  0  0  0  0  0  0  0
   11.5738  -20.2731    2.1807 C   0  0  0  0  0  0  0  0  0  0  0  0
   11.4872  -18.8660    2.5543 C   0  0  0  0  0  0  0  0  0  0  0  0
   11.8008  -18.4116    3.8289 C   0  0  0  0  0  0  0  0  0  0  0  0
   11.6182  -17.0800    3.8436 N   0  0  0  0  0  0  0  0  0  0  0  0
   11.2057  -16.6750    2.6425 C   0  0  0  0  0  0  0  0  0  0  0  0
   11.1317  -17.7709    1.8732 N   0  0  0  0  0  0  0  0  0  0  0  0
   13.9136  -20.3624    2.8236 C   0  0  0  0  0  0  0  0  0  0  0  0
   14.3753  -21.2939    3.5680 O   0  0  0  0  0  0  0  0  0  0  0  0
   14.6878  -16.3924    4.0885 C   0  0  0  0  0  0  0  0  0  0  0  0
   15.8319  -17.3819    4.0367 C   0  0  1  0  0  0  0  0  0  0  0  0
   16.7542  -17.0694    5.0124 O   0  0  0  0  0  0  0  0  0  0  0  0
   15.3396  -18.8103    4.1169 C   0  0  2  0  0  0  0  0  0  0  0  0
   14.3598  -19.0634    3.0635 N   0  0  0  0  0  0  0  0  0  0  0  0
   14.7047  -18.9753    5.4468 C   0  0  0  0  0  0  0  0  0  0  0  0
   13.4819  -19.1318    5.5803 O   0  0  0  0  0  0  0  0  0  0  0  0
   15.5045  -18.9534    6.5695 O   0  0  0  0  0  0  0  0  0  0  0  0
  2  3  2  0
  2  1  1  0
  4  2  1  0
  5  4  1  0
  5  6  1  6
  7  5  1  0
  7  9  1  0
  8  7  2  0
 10  9  1  0
 11 12  1  0
 10 11  1  1
 12 13  2  0
 13 14  1  0
 15 14  1  0
 16 12  1  0
 16 15  2  0
 17 18  2  0
 17 10  1  0
 20 19  1  1
 20 21  1  0
 22 23  1  6
 22 20  1  0
 23 17  1  0
 24 22  1  0
 25 24  2  0
 26 24  1  0
M  END
$$$$
