NHT.pdb
     RDKit          3D

 26 26  0  0  1  0  0  0  0  0999 V2000
   24.7497  -11.5809  -20.4216 N   0  0  0  0  0  0  0  0  0  0  0  0
   24.4283  -10.2992  -20.9227 C   0  0  0  0  0  0  0  0  0  0  0  0
   25.1051   -9.8881  -21.9227 O   0  0  0  0  0  0  0  0  0  0  0  0
   23.3629   -9.4395  -20.3443 C   0  0  0  0  0  0  0  0  0  0  0  0
   22.7123  -10.2087  -19.2340 C   0  0  2  0  0  0  0  0  0  0  0  0
   21.8579  -11.2276  -19.7932 N   0  0  0  0  0  0  0  0  0  0  0  0
   21.9509   -9.3117  -18.3094 C   0  0  0  0  0  0  0  0  0  0  0  0
   21.3172   -8.3932  -18.8401 O   0  0  0  0  0  0  0  0  0  0  0  0
   21.9567   -9.5022  -16.9270 N   0  0  0  0  0  0  0  0  0  0  0  0
   21.2558   -8.8064  -15.9248 C   0  0  1  0  0  0  0  0  0  0  0  0
   20.6552   -9.6358  -14.8046 C   0  0  0  0  0  0  0  0  0  0  0  0
   19.4492  -10.3744  -15.1608 C   0  0  0  0  0  0  0  0  0  0  0  0
   18.8412  -10.2558  -16.4041 C   0  0  0  0  0  0  0  0  0  0  0  0
   17.7638  -11.0595  -16.4096 N   0  0  0  0  0  0  0  0  0  0  0  0
   17.6644  -11.6770  -15.2325 C   0  0  0  0  0  0  0  0  0  0  0  0
   18.6944  -11.2499  -14.4876 N   0  0  0  0  0  0  0  0  0  0  0  0
   21.9461   -7.6540  -15.3543 C   0  0  0  0  0  0  0  0  0  0  0  0
   23.1071   -7.8580  -14.8589 O   0  0  0  0  0  0  0  0  0  0  0  0
   20.5916   -3.6367  -15.6684 C   0  0  0  0  0  0  0  0  0  0  0  0
   22.0558   -4.0122  -15.5911 C   0  0  1  0  0  0  0  0  0  0  0  0
   22.7821   -2.9365  -15.1266 O   0  0  0  0  0  0  0  0  0  0  0  0
   22.2680   -5.2708  -14.7786 C   0  0  2  0  0  0  0  0  0  0  0  0
   21.4433   -6.3544  -15.3073 N   0  0  0  0  0  0  0  0  0  0  0  0
   21.8622   -4.9609  -13.3864 C   0  0  0  0  0  0  0  0  0  0  0  0
   20.8808   -5.4961  -12.8496 O   0  0  0  0  0  0  0  0  0  0  0  0
   22.6036   -4.0466  -12.6687 O   0  0  0  0  0  0  0  0  0  0  0  0
  2  3  2  0
  2  1  1  0
  4  2  1  0
  5  4  1  0
  5  6  1  6
  7  5  1  0
  7  9  1  0
  8  7  2  0
 10  9  1  0
 11 12  1  0
 10 11  1  1
 12 13  2  0
 13 14  1  0
 15 14  1  0
 16 12  1  0
 16 15  2  0
 17 18  2  0
 17 10  1  0
 20 19  1  1
 20 21  1  0
 22 23  1  6
 22 20  1  0
 23 17  1  0
 24 22  1  0
 25 24  2  0
 26 24  1  0
M  END
$$$$
