NHT.pdb
     RDKit          3D

 26 26  0  0  1  0  0  0  0  0999 V2000
   14.0875  -12.4832  -13.6153 N   0  0  0  0  0  0  0  0  0  0  0  0
   14.8745  -13.1755  -14.5633 C   0  0  0  0  0  0  0  0  0  0  0  0
   14.5687  -14.3945  -14.7820 O   0  0  0  0  0  0  0  0  0  0  0  0
   16.0105  -12.5535  -15.2922 C   0  0  0  0  0  0  0  0  0  0  0  0
   16.1071  -11.1251  -14.8475 C   0  0  2  0  0  0  0  0  0  0  0  0
   15.0763  -10.3507  -15.4945 N   0  0  0  0  0  0  0  0  0  0  0  0
   17.4631  -10.5512  -15.1147 C   0  0  0  0  0  0  0  0  0  0  0  0
   18.4200  -11.1663  -14.6322 O   0  0  0  0  0  0  0  0  0  0  0  0
   17.6361   -9.3879  -15.8657 N   0  0  0  0  0  0  0  0  0  0  0  0
   18.8244   -8.7649  -16.2898 C   0  0  1  0  0  0  0  0  0  0  0  0
   18.9992   -8.5639  -17.7839 C   0  0  0  0  0  0  0  0  0  0  0  0
   19.1142   -9.7912  -18.5633 C   0  0  0  0  0  0  0  0  0  0  0  0
   20.0161  -10.7975  -18.2420 C   0  0  0  0  0  0  0  0  0  0  0  0
   19.8712  -11.7798  -19.1481 N   0  0  0  0  0  0  0  0  0  0  0  0
   18.9237  -11.4411  -20.0224 C   0  0  0  0  0  0  0  0  0  0  0  0
   18.4756  -10.2325  -19.6527 N   0  0  0  0  0  0  0  0  0  0  0  0
   19.1748   -7.5312  -15.5933 C   0  0  0  0  0  0  0  0  0  0  0  0
   18.2277   -6.7031  -15.3647 O   0  0  0  0  0  0  0  0  0  0  0  0
   22.2577   -4.6612  -12.9876 C   0  0  0  0  0  0  0  0  0  0  0  0
   21.9633   -5.9775  -13.6743 C   0  0  1  0  0  0  0  0  0  0  0  0
   21.9928   -6.9964  -12.7463 O   0  0  0  0  0  0  0  0  0  0  0  0
   20.6706   -5.9220  -14.4585 C   0  0  2  0  0  0  0  0  0  0  0  0
   20.4537   -7.1854  -15.1588 N   0  0  0  0  0  0  0  0  0  0  0  0
   20.8064   -4.8181  -15.4393 C   0  0  0  0  0  0  0  0  0  0  0  0
   21.3003   -4.9904  -16.5636 O   0  0  0  0  0  0  0  0  0  0  0  0
   20.3676   -3.5601  -15.0852 O   0  0  0  0  0  0  0  0  0  0  0  0
  2  3  2  0
  2  1  1  0
  4  2  1  0
  5  4  1  0
  5  6  1  6
  7  5  1  0
  7  9  1  0
  8  7  2  0
 10  9  1  0
 11 12  1  0
 10 11  1  6
 12 13  2  0
 13 14  1  0
 15 14  1  0
 16 12  1  0
 16 15  2  0
 17 18  2  0
 17 10  1  0
 20 19  1  1
 20 21  1  0
 22 23  1  6
 22 20  1  0
 23 17  1  0
 24 22  1  0
 25 24  2  0
 26 24  1  0
M  END
$$$$
