NHT.pdb
     RDKit          3D

 26 26  0  0  1  0  0  0  0  0999 V2000
   46.3734   -9.4255   -9.6004 N   0  0  0  0  0  0  0  0  0  0  0  0
   45.1850   -9.1981   -8.8702 C   0  0  0  0  0  0  0  0  0  0  0  0
   45.2575   -9.3245   -7.6029 O   0  0  0  0  0  0  0  0  0  0  0  0
   43.8936   -8.8283   -9.5060 C   0  0  0  0  0  0  0  0  0  0  0  0
   42.8081   -9.5848   -8.8012 C   0  0  2  0  0  0  0  0  0  0  0  0
   42.9722  -10.9972   -9.0444 N   0  0  0  0  0  0  0  0  0  0  0  0
   41.4477   -9.1189   -9.2158 C   0  0  0  0  0  0  0  0  0  0  0  0
   40.9902   -9.6223  -10.2474 O   0  0  0  0  0  0  0  0  0  0  0  0
   40.7373   -8.1704   -8.4791 N   0  0  0  0  0  0  0  0  0  0  0  0
   39.4375   -7.6706   -8.6810 C   0  0  1  0  0  0  0  0  0  0  0  0
   38.4770   -7.7616   -7.5095 C   0  0  0  0  0  0  0  0  0  0  0  0
   38.1934   -9.1151   -7.0465 C   0  0  0  0  0  0  0  0  0  0  0  0
   38.7029  -10.2422   -7.6786 C   0  0  0  0  0  0  0  0  0  0  0  0
   38.2577  -11.3206   -7.0110 N   0  0  0  0  0  0  0  0  0  0  0  0
   37.4941  -10.9277   -5.9915 C   0  0  0  0  0  0  0  0  0  0  0  0
   37.4660   -9.5875   -6.0280 N   0  0  0  0  0  0  0  0  0  0  0  0
   39.3571   -6.3367   -9.2677 C   0  0  0  0  0  0  0  0  0  0  0  0
   40.2592   -5.4965   -8.9283 O   0  0  0  0  0  0  0  0  0  0  0  0
   37.8970   -5.3651  -13.0619 C   0  0  0  0  0  0  0  0  0  0  0  0
   37.5030   -4.4571  -11.9168 C   0  0  1  0  0  0  0  0  0  0  0  0
   36.1930   -4.7032  -11.5651 O   0  0  0  0  0  0  0  0  0  0  0  0
   38.4647   -4.5738  -10.7546 C   0  0  2  0  0  0  0  0  0  0  0  0
   38.3800   -5.9076  -10.1651 N   0  0  0  0  0  0  0  0  0  0  0  0
   38.0625   -3.5542   -9.7558 C   0  0  0  0  0  0  0  0  0  0  0  0
   37.5866   -3.8616   -8.6528 O   0  0  0  0  0  0  0  0  0  0  0  0
   38.2249   -2.2213  -10.0683 O   0  0  0  0  0  0  0  0  0  0  0  0
  2  3  2  0
  2  1  1  0
  4  2  1  0
  5  4  1  0
  5  6  1  6
  7  5  1  0
  7  9  1  0
  8  7  2  0
 10  9  1  0
 11 12  1  0
 10 11  1  1
 12 13  2  0
 13 14  1  0
 15 14  1  0
 16 12  1  0
 16 15  2  0
 17 18  2  0
 17 10  1  0
 20 19  1  6
 20 21  1  0
 22 23  1  1
 22 20  1  0
 23 17  1  0
 24 22  1  0
 25 24  2  0
 26 24  1  0
M  END
$$$$
