NHT.pdb
     RDKit          3D

 26 26  0  0  1  0  0  0  0  0999 V2000
   31.9069  -35.6884   -5.7093 N   0  0  0  0  0  0  0  0  0  0  0  0
   32.9214  -34.7051   -5.6741 C   0  0  0  0  0  0  0  0  0  0  0  0
   33.1232  -34.0505   -6.7502 O   0  0  0  0  0  0  0  0  0  0  0  0
   33.7364  -34.4151   -4.4657 C   0  0  0  0  0  0  0  0  0  0  0  0
   33.2674  -35.3276   -3.3726 C   0  0  2  0  0  0  0  0  0  0  0  0
   31.9225  -34.9695   -2.9931 N   0  0  0  0  0  0  0  0  0  0  0  0
   34.1879  -35.2996   -2.1931 C   0  0  0  0  0  0  0  0  0  0  0  0
   35.3419  -35.6936   -2.3928 O   0  0  0  0  0  0  0  0  0  0  0  0
   33.7664  -34.8541   -0.9397 N   0  0  0  0  0  0  0  0  0  0  0  0
   34.5043  -34.6930    0.2476 C   0  0  1  0  0  0  0  0  0  0  0  0
   34.0747  -33.5725    1.1767 C   0  0  0  0  0  0  0  0  0  0  0  0
   32.7591  -33.7423    1.7826 C   0  0  0  0  0  0  0  0  0  0  0  0
   31.8979  -34.7704    1.4210 C   0  0  0  0  0  0  0  0  0  0  0  0
   30.7808  -34.6451    2.1580 N   0  0  0  0  0  0  0  0  0  0  0  0
   30.8968  -33.5900    2.9643 C   0  0  0  0  0  0  0  0  0  0  0  0
   32.1024  -33.0545    2.7235 N   0  0  0  0  0  0  0  0  0  0  0  0
   34.7222  -35.9079    1.0263 C   0  0  0  0  0  0  0  0  0  0  0  0
   33.7907  -36.7838    1.0109 O   0  0  0  0  0  0  0  0  0  0  0  0
   38.2660  -37.9728    1.7714 C   0  0  0  0  0  0  0  0  0  0  0  0
   37.3746  -37.6907    2.9616 C   0  0  1  0  0  0  0  0  0  0  0  0
   37.9141  -36.6640    3.7066 O   0  0  0  0  0  0  0  0  0  0  0  0
   35.9442  -37.4342    2.5402 C   0  0  2  0  0  0  0  0  0  0  0  0
   35.8601  -36.1888    1.7816 N   0  0  0  0  0  0  0  0  0  0  0  0
   35.1404  -37.3244    3.7815 C   0  0  0  0  0  0  0  0  0  0  0  0
   34.6040  -36.2619    4.1294 O   0  0  0  0  0  0  0  0  0  0  0  0
   34.9869  -38.4434    4.5721 O   0  0  0  0  0  0  0  0  0  0  0  0
  2  3  2  0
  2  1  1  0
  4  2  1  0
  5  4  1  0
  5  6  1  1
  7  5  1  0
  7  9  1  0
  8  7  2  0
 10  9  1  0
 11 12  1  0
 10 11  1  1
 12 13  2  0
 13 14  1  0
 15 14  1  0
 16 12  1  0
 16 15  2  0
 17 18  2  0
 17 10  1  0
 20 19  1  6
 20 21  1  0
 22 23  1  1
 22 20  1  0
 23 17  1  0
 24 22  1  0
 25 24  2  0
 26 24  1  0
M  END
$$$$
