NHT.pdb
     RDKit          3D

 26 26  0  0  1  0  0  0  0  0999 V2000
   16.0168  -10.9903  -17.1032 N   0  0  0  0  0  0  0  0  0  0  0  0
   16.8973  -11.4160  -16.0831 C   0  0  0  0  0  0  0  0  0  0  0  0
   16.7411  -12.6057  -15.6501 O   0  0  0  0  0  0  0  0  0  0  0  0
   17.9659  -10.5540  -15.5141 C   0  0  0  0  0  0  0  0  0  0  0  0
   18.1163   -9.3645  -16.4140 C   0  0  2  0  0  0  0  0  0  0  0  0
   18.7850   -9.7634  -17.6284 N   0  0  0  0  0  0  0  0  0  0  0  0
   18.8447   -8.2457  -15.7379 C   0  0  0  0  0  0  0  0  0  0  0  0
   18.3695   -7.8549  -14.6662 O   0  0  0  0  0  0  0  0  0  0  0  0
   19.9946   -7.6768  -16.2868 N   0  0  0  0  0  0  0  0  0  0  0  0
   20.7979   -6.6312  -15.7955 C   0  0  1  0  0  0  0  0  0  0  0  0
   22.2985   -6.8578  -15.7994 C   0  0  0  0  0  0  0  0  0  0  0  0
   22.7383   -8.0954  -15.1654 C   0  0  0  0  0  0  0  0  0  0  0  0
   21.8703   -8.9263  -14.4686 C   0  0  0  0  0  0  0  0  0  0  0  0
   22.5832   -9.9708  -14.0129 N   0  0  0  0  0  0  0  0  0  0  0  0
   23.8553   -9.8378  -14.3884 C   0  0  0  0  0  0  0  0  0  0  0  0
   23.9313   -8.6953  -15.0862 N   0  0  0  0  0  0  0  0  0  0  0  0
   20.5093   -5.3056  -16.3338 C   0  0  0  0  0  0  0  0  0  0  0  0
   20.8284   -5.0909  -17.5532 O   0  0  0  0  0  0  0  0  0  0  0  0
   17.9512   -2.5527  -14.4625 C   0  0  0  0  0  0  0  0  0  0  0  0
   18.1601   -2.6019  -15.9608 C   0  0  1  0  0  0  0  0  0  0  0  0
   17.7940   -1.3942  -16.5156 O   0  0  0  0  0  0  0  0  0  0  0  0
   19.5710   -3.0178  -16.3150 C   0  0  2  0  0  0  0  0  0  0  0  0
   19.9155   -4.2600  -15.6280 N   0  0  0  0  0  0  0  0  0  0  0  0
   20.4696   -1.9269  -15.8660 C   0  0  0  0  0  0  0  0  0  0  0  0
   21.2253   -2.0526  -14.8910 O   0  0  0  0  0  0  0  0  0  0  0  0
   20.4610   -0.7349  -16.5587 O   0  0  0  0  0  0  0  0  0  0  0  0
  2  3  2  0
  2  1  1  0
  4  2  1  0
  5  4  1  0
  5  6  1  6
  7  5  1  0
  7  9  1  0
  8  7  2  0
 10  9  1  0
 11 12  1  0
 10 11  1  6
 12 13  2  0
 13 14  1  0
 15 14  1  0
 16 12  1  0
 16 15  2  0
 17 18  2  0
 17 10  1  0
 20 19  1  1
 20 21  1  0
 22 23  1  1
 22 20  1  0
 23 17  1  0
 24 22  1  0
 25 24  2  0
 26 24  1  0
M  END
$$$$
