NHT.pdb
     RDKit          3D

 26 26  0  0  1  0  0  0  0  0999 V2000
   15.4529  -14.6259  -16.9748 N   0  0  0  0  0  0  0  0  0  0  0  0
   16.5375  -13.8149  -17.3783 C   0  0  0  0  0  0  0  0  0  0  0  0
   17.0771  -14.0951  -18.4997 O   0  0  0  0  0  0  0  0  0  0  0  0
   17.0562  -12.6821  -16.5682 C   0  0  0  0  0  0  0  0  0  0  0  0
   18.5526  -12.7744  -16.5651 C   0  0  2  0  0  0  0  0  0  0  0  0
   18.9555  -14.0083  -15.9357 N   0  0  0  0  0  0  0  0  0  0  0  0
   19.1801  -11.5940  -15.8926 C   0  0  0  0  0  0  0  0  0  0  0  0
   18.7447  -11.3101  -14.7717 O   0  0  0  0  0  0  0  0  0  0  0  0
   20.1987  -10.8566  -16.4976 N   0  0  0  0  0  0  0  0  0  0  0  0
   20.8502   -9.6935  -16.0473 C   0  0  1  0  0  0  0  0  0  0  0  0
   22.3416   -9.5959  -16.3109 C   0  0  0  0  0  0  0  0  0  0  0  0
   23.1430  -10.6685  -15.7327 C   0  0  0  0  0  0  0  0  0  0  0  0
   22.6343  -11.5573  -14.7943 C   0  0  0  0  0  0  0  0  0  0  0  0
   23.6182  -12.4129  -14.4676 N   0  0  0  0  0  0  0  0  0  0  0  0
   24.7193  -12.1063  -15.1536 C   0  0  0  0  0  0  0  0  0  0  0  0
   24.4131  -11.0462  -15.9156 N   0  0  0  0  0  0  0  0  0  0  0  0
   20.2131   -8.4315  -16.4095 C   0  0  0  0  0  0  0  0  0  0  0  0
   20.0112   -8.2179  -17.6540 O   0  0  0  0  0  0  0  0  0  0  0  0
   17.5053   -4.4472  -15.3119 C   0  0  0  0  0  0  0  0  0  0  0  0
   18.1913   -5.7294  -14.8920 C   0  0  1  0  0  0  0  0  0  0  0  0
   17.2472   -6.6334  -14.4540 O   0  0  0  0  0  0  0  0  0  0  0  0
   19.0757   -6.2760  -15.9911 C   0  0  2  0  0  0  0  0  0  0  0  0
   19.8084   -7.4450  -15.5112 N   0  0  0  0  0  0  0  0  0  0  0  0
   20.0274   -5.1990  -16.3567 C   0  0  0  0  0  0  0  0  0  0  0  0
   21.1670   -5.1320  -15.8726 O   0  0  0  0  0  0  0  0  0  0  0  0
   19.6275   -4.2426  -17.2656 O   0  0  0  0  0  0  0  0  0  0  0  0
  2  3  2  0
  2  1  1  0
  4  2  1  0
  5  4  1  0
  5  6  1  1
  7  5  1  0
  7  9  1  0
  8  7  2  0
 10  9  1  0
 11 12  1  0
 10 11  1  6
 12 13  2  0
 13 14  1  0
 15 14  1  0
 16 12  1  0
 16 15  2  0
 17 18  2  0
 17 10  1  0
 20 19  1  6
 20 21  1  0
 22 23  1  1
 22 20  1  0
 23 17  1  0
 24 22  1  0
 25 24  2  0
 26 24  1  0
M  END
$$$$
