NHT.pdb
     RDKit          3D

 26 26  0  0  1  0  0  0  0  0999 V2000
   27.6827  -16.1177  -17.7007 N   0  0  0  0  0  0  0  0  0  0  0  0
   28.2693  -17.4024  -17.7508 C   0  0  0  0  0  0  0  0  0  0  0  0
   29.2504  -17.5541  -18.5519 O   0  0  0  0  0  0  0  0  0  0  0  0
   27.7988  -18.5479  -16.9292 C   0  0  0  0  0  0  0  0  0  0  0  0
   26.6532  -18.0649  -16.0914 C   0  0  2  0  0  0  0  0  0  0  0  0
   27.1314  -17.0906  -15.1412 N   0  0  0  0  0  0  0  0  0  0  0  0
   25.9542  -19.1946  -15.4026 C   0  0  0  0  0  0  0  0  0  0  0  0
   25.5160  -20.0904  -16.1323 O   0  0  0  0  0  0  0  0  0  0  0  0
   25.8062  -19.2336  -14.0156 N   0  0  0  0  0  0  0  0  0  0  0  0
   25.1371  -20.1761  -13.2131 C   0  0  1  0  0  0  0  0  0  0  0  0
   25.6489  -20.3583  -11.7960 C   0  0  0  0  0  0  0  0  0  0  0  0
   27.0644  -20.6925  -11.6883 C   0  0  0  0  0  0  0  0  0  0  0  0
   27.8678  -20.9053  -12.8013 C   0  0  0  0  0  0  0  0  0  0  0  0
   29.1056  -21.1911  -12.3622 N   0  0  0  0  0  0  0  0  0  0  0  0
   29.1203  -21.1685  -11.0295 C   0  0  0  0  0  0  0  0  0  0  0  0
   27.8744  -20.8646  -10.6377 N   0  0  0  0  0  0  0  0  0  0  0  0
   23.6819  -20.0672  -13.1897 C   0  0  0  0  0  0  0  0  0  0  0  0
   23.1888  -18.9169  -12.9277 O   0  0  0  0  0  0  0  0  0  0  0  0
   19.4573  -20.6279  -15.1504 C   0  0  0  0  0  0  0  0  0  0  0  0
   20.9598  -20.7131  -14.9887 C   0  0  1  0  0  0  0  0  0  0  0  0
   21.5516  -19.6412  -15.6221 O   0  0  0  0  0  0  0  0  0  0  0  0
   21.3591  -20.8419  -13.5351 C   0  0  2  0  0  0  0  0  0  0  0  0
   22.7907  -21.1123  -13.4299 N   0  0  0  0  0  0  0  0  0  0  0  0
   20.5884  -21.9775  -12.9734 C   0  0  0  0  0  0  0  0  0  0  0  0
   21.0889  -23.1007  -12.8135 O   0  0  0  0  0  0  0  0  0  0  0  0
   19.2720  -21.7731  -12.6186 O   0  0  0  0  0  0  0  0  0  0  0  0
  2  3  2  0
  2  1  1  0
  4  2  1  0
  5  4  1  0
  5  6  1  1
  7  5  1  0
  7  9  1  0
  8  7  2  0
 10  9  1  0
 11 12  1  0
 10 11  1  1
 12 13  2  0
 13 14  1  0
 15 14  1  0
 16 12  1  0
 16 15  2  0
 17 18  2  0
 17 10  1  0
 20 19  1  1
 20 21  1  0
 22 23  1  6
 22 20  1  0
 23 17  1  0
 24 22  1  0
 25 24  2  0
 26 24  1  0
M  END
$$$$
