NHT.pdb
     RDKit          3D

 26 26  0  0  1  0  0  0  0  0999 V2000
   29.3140  -26.8569  -17.3145 N   0  0  0  0  0  0  0  0  0  0  0  0
   30.3576  -25.9058  -17.3728 C   0  0  0  0  0  0  0  0  0  0  0  0
   31.5373  -26.3587  -17.5467 O   0  0  0  0  0  0  0  0  0  0  0  0
   30.1369  -24.4418  -17.2430 C   0  0  0  0  0  0  0  0  0  0  0  0
   28.6638  -24.2182  -17.0765 C   0  0  2  0  0  0  0  0  0  0  0  0
   28.0566  -24.0392  -18.3727 N   0  0  0  0  0  0  0  0  0  0  0  0
   28.3769  -23.0555  -16.1793 C   0  0  0  0  0  0  0  0  0  0  0  0
   28.8987  -23.0891  -15.0597 O   0  0  0  0  0  0  0  0  0  0  0  0
   27.5663  -21.9944  -16.5846 N   0  0  0  0  0  0  0  0  0  0  0  0
   27.0951  -20.8946  -15.8440 C   0  0  1  0  0  0  0  0  0  0  0  0
   26.5745  -19.7074  -16.6332 C   0  0  0  0  0  0  0  0  0  0  0  0
   26.1990  -18.5487  -15.8311 C   0  0  0  0  0  0  0  0  0  0  0  0
   27.1150  -17.5767  -15.4495 C   0  0  0  0  0  0  0  0  0  0  0  0
   26.4551  -16.6559  -14.7261 N   0  0  0  0  0  0  0  0  0  0  0  0
   25.1707  -17.0005  -14.6340 C   0  0  0  0  0  0  0  0  0  0  0  0
   25.0333  -18.1506  -15.3097 N   0  0  0  0  0  0  0  0  0  0  0  0
   26.1561  -21.2097  -14.7720 C   0  0  0  0  0  0  0  0  0  0  0  0
   25.1272  -21.9016  -15.0846 O   0  0  0  0  0  0  0  0  0  0  0  0
   26.3087  -19.6361  -10.7990 C   0  0  0  0  0  0  0  0  0  0  0  0
   25.8243  -21.0463  -11.0589 C   0  0  1  0  0  0  0  0  0  0  0  0
   24.9237  -21.4102  -10.0808 O   0  0  0  0  0  0  0  0  0  0  0  0
   25.2767  -21.1997  -12.4609 C   0  0  2  0  0  0  0  0  0  0  0  0
   26.2913  -20.8191  -13.4404 N   0  0  0  0  0  0  0  0  0  0  0  0
   24.1060  -20.2960  -12.5697 C   0  0  0  0  0  0  0  0  0  0  0  0
   24.1512  -19.2293  -13.2005 O   0  0  0  0  0  0  0  0  0  0  0  0
   22.9303  -20.6577  -11.9473 O   0  0  0  0  0  0  0  0  0  0  0  0
  2  3  2  0
  2  1  1  0
  4  2  1  0
  5  4  1  0
  5  6  1  6
  7  5  1  0
  7  9  1  0
  8  7  2  0
 10  9  1  0
 11 12  1  0
 10 11  1  6
 12 13  2  0
 13 14  1  0
 15 14  1  0
 16 12  1  0
 16 15  2  0
 17 18  2  0
 17 10  1  0
 20 19  1  1
 20 21  1  0
 22 23  1  6
 22 20  1  0
 23 17  1  0
 24 22  1  0
 25 24  2  0
 26 24  1  0
M  END
$$$$
