NHT.pdb
     RDKit          3D

 26 26  0  0  1  0  0  0  0  0999 V2000
   18.0649  -17.2370  -15.0675 N   0  0  0  0  0  0  0  0  0  0  0  0
   18.1562  -16.8911  -16.4347 C   0  0  0  0  0  0  0  0  0  0  0  0
   18.1831  -17.8552  -17.2696 O   0  0  0  0  0  0  0  0  0  0  0  0
   18.2200  -15.4878  -16.9199 C   0  0  0  0  0  0  0  0  0  0  0  0
   18.1641  -14.5903  -15.7204 C   0  0  2  0  0  0  0  0  0  0  0  0
   16.8407  -14.6365  -15.1481 N   0  0  0  0  0  0  0  0  0  0  0  0
   18.5587  -13.1869  -16.0584 C   0  0  0  0  0  0  0  0  0  0  0  0
   19.5127  -13.0606  -16.8335 O   0  0  0  0  0  0  0  0  0  0  0  0
   17.8871  -12.0845  -15.5284 N   0  0  0  0  0  0  0  0  0  0  0  0
   18.0458  -10.7164  -15.8165 C   0  0  1  0  0  0  0  0  0  0  0  0
   16.7845   -9.8737  -15.8641 C   0  0  0  0  0  0  0  0  0  0  0  0
   15.8258  -10.2537  -16.8953 C   0  0  0  0  0  0  0  0  0  0  0  0
   16.1881  -10.4216  -18.2257 C   0  0  0  0  0  0  0  0  0  0  0  0
   15.0833  -10.7678  -18.9088 N   0  0  0  0  0  0  0  0  0  0  0  0
   14.0453  -10.8258  -18.0744 C   0  0  0  0  0  0  0  0  0  0  0  0
   14.5137  -10.5113  -16.8579 N   0  0  0  0  0  0  0  0  0  0  0  0
   19.0620  -10.0192  -15.0347 C   0  0  0  0  0  0  0  0  0  0  0  0
   18.9814  -10.1113  -13.7619 O   0  0  0  0  0  0  0  0  0  0  0  0
   22.8799  -10.4861  -15.0110 C   0  0  0  0  0  0  0  0  0  0  0  0
   22.5117   -9.0333  -15.2225 C   0  0  1  0  0  0  0  0  0  0  0  0
   22.6540   -8.7127  -16.5557 O   0  0  0  0  0  0  0  0  0  0  0  0
   21.1356   -8.7203  -14.6773 C   0  0  2  0  0  0  0  0  0  0  0  0
   20.1092   -9.2650  -15.5624 N   0  0  0  0  0  0  0  0  0  0  0  0
   21.0190   -7.2431  -14.6182 C   0  0  0  0  0  0  0  0  0  0  0  0
   20.3104   -6.6042  -15.4103 O   0  0  0  0  0  0  0  0  0  0  0  0
   21.7236   -6.5616  -13.6488 O   0  0  0  0  0  0  0  0  0  0  0  0
  2  3  2  0
  2  1  1  0
  4  2  1  0
  5  4  1  0
  5  6  1  6
  7  5  1  0
  7  9  1  0
  8  7  2  0
 10  9  1  0
 11 12  1  0
 10 11  1  1
 12 13  2  0
 13 14  1  0
 15 14  1  0
 16 12  1  0
 16 15  2  0
 17 18  2  0
 17 10  1  0
 20 19  1  6
 20 21  1  0
 22 23  1  6
 22 20  1  0
 23 17  1  0
 24 22  1  0
 25 24  2  0
 26 24  1  0
M  END
$$$$
