NHT.pdb
     RDKit          3D

 26 26  0  0  1  0  0  0  0  0999 V2000
   20.9007   -3.9698  -14.5985 N   0  0  0  0  0  0  0  0  0  0  0  0
   22.1244   -4.6665  -14.7184 C   0  0  0  0  0  0  0  0  0  0  0  0
   23.1279   -3.9962  -15.1318 O   0  0  0  0  0  0  0  0  0  0  0  0
   22.2795   -6.1076  -14.3902 C   0  0  0  0  0  0  0  0  0  0  0  0
   20.9418   -6.6181  -13.9456 C   0  0  2  0  0  0  0  0  0  0  0  0
   20.7917   -6.3979  -12.5278 N   0  0  0  0  0  0  0  0  0  0  0  0
   20.7558   -8.0620  -14.2916 C   0  0  0  0  0  0  0  0  0  0  0  0
   21.4260   -8.8696  -13.6393 O   0  0  0  0  0  0  0  0  0  0  0  0
   19.8755   -8.4723  -15.2936 N   0  0  0  0  0  0  0  0  0  0  0  0
   19.5293   -9.7732  -15.7031 C   0  0  1  0  0  0  0  0  0  0  0  0
   18.0802  -10.0095  -16.0873 C   0  0  0  0  0  0  0  0  0  0  0  0
   17.7287  -11.4008  -16.3473 C   0  0  0  0  0  0  0  0  0  0  0  0
   18.6439  -12.4380  -16.2200 C   0  0  0  0  0  0  0  0  0  0  0  0
   18.0092  -13.5821  -16.5284 N   0  0  0  0  0  0  0  0  0  0  0  0
   16.7416  -13.3158  -16.8431 C   0  0  0  0  0  0  0  0  0  0  0  0
   16.5890  -11.9885  -16.7279 N   0  0  0  0  0  0  0  0  0  0  0  0
   20.3988  -10.3712  -16.7112 C   0  0  0  0  0  0  0  0  0  0  0  0
   20.6698   -9.6622  -17.7402 O   0  0  0  0  0  0  0  0  0  0  0  0
   23.9853  -12.0795  -16.2931 C   0  0  0  0  0  0  0  0  0  0  0  0
   22.9874  -12.9318  -17.0472 C   0  0  1  0  0  0  0  0  0  0  0  0
   22.5072  -13.9210  -16.2158 O   0  0  0  0  0  0  0  0  0  0  0  0
   21.8932  -12.0925  -17.6697 C   0  0  2  0  0  0  0  0  0  0  0  0
   20.9556  -11.6476  -16.6418 N   0  0  0  0  0  0  0  0  0  0  0  0
   21.1929  -12.9542  -18.6526 C   0  0  0  0  0  0  0  0  0  0  0  0
   20.0407  -13.3712  -18.4628 O   0  0  0  0  0  0  0  0  0  0  0  0
   21.8487  -13.3007  -19.8148 O   0  0  0  0  0  0  0  0  0  0  0  0
  2  3  2  0
  2  1  1  0
  4  2  1  0
  5  4  1  0
  5  6  1  1
  7  5  1  0
  7  9  1  0
  8  7  2  0
 10  9  1  0
 11 12  1  0
 10 11  1  6
 12 13  2  0
 13 14  1  0
 15 14  1  0
 16 12  1  0
 16 15  2  0
 17 18  2  0
 17 10  1  0
 20 19  1  1
 20 21  1  0
 22 23  1  1
 22 20  1  0
 23 17  1  0
 24 22  1  0
 25 24  2  0
 26 24  1  0
M  END
$$$$
