NHT.pdb
     RDKit          3D

 26 26  0  0  1  0  0  0  0  0999 V2000
   14.2947  -13.9648  -15.5716 N   0  0  0  0  0  0  0  0  0  0  0  0
   14.8671  -12.6727  -15.5861 C   0  0  0  0  0  0  0  0  0  0  0  0
   14.8569  -12.0533  -16.7011 O   0  0  0  0  0  0  0  0  0  0  0  0
   15.4622  -12.0295  -14.3857 C   0  0  0  0  0  0  0  0  0  0  0  0
   16.6619  -11.2513  -14.8360 C   0  0  2  0  0  0  0  0  0  0  0  0
   17.6935  -12.1649  -15.2626 N   0  0  0  0  0  0  0  0  0  0  0  0
   17.1616  -10.3328  -13.7654 C   0  0  0  0  0  0  0  0  0  0  0  0
   17.2145  -10.8037  -12.6242 O   0  0  0  0  0  0  0  0  0  0  0  0
   17.5455   -9.0199  -14.0409 N   0  0  0  0  0  0  0  0  0  0  0  0
   18.1028   -8.0521  -13.1849 C   0  0  1  0  0  0  0  0  0  0  0  0
   19.1957   -7.1717  -13.7627 C   0  0  0  0  0  0  0  0  0  0  0  0
   20.3625   -7.8861  -14.2677 C   0  0  0  0  0  0  0  0  0  0  0  0
   21.2086   -8.6128  -13.4399 C   0  0  0  0  0  0  0  0  0  0  0  0
   22.1752   -9.1430  -14.2089 N   0  0  0  0  0  0  0  0  0  0  0  0
   21.9789   -8.7860  -15.4780 C   0  0  0  0  0  0  0  0  0  0  0  0
   20.8755   -8.0242  -15.4954 N   0  0  0  0  0  0  0  0  0  0  0  0
   17.1455   -7.2204  -12.4625 C   0  0  0  0  0  0  0  0  0  0  0  0
   16.1600   -6.7538  -13.1304 O   0  0  0  0  0  0  0  0  0  0  0  0
   15.8054   -7.8493   -8.6041 C   0  0  0  0  0  0  0  0  0  0  0  0
   16.1549   -6.4222   -8.9673 C   0  0  1  0  0  0  0  0  0  0  0  0
   17.3684   -6.0890   -8.4045 O   0  0  0  0  0  0  0  0  0  0  0  0
   16.1095   -6.1989  -10.4630 C   0  0  2  0  0  0  0  0  0  0  0  0
   17.2189   -6.8963  -11.1084 N   0  0  0  0  0  0  0  0  0  0  0  0
   16.2332   -4.7381  -10.6866 C   0  0  0  0  0  0  0  0  0  0  0  0
   17.2292   -4.2345  -11.2268 O   0  0  0  0  0  0  0  0  0  0  0  0
   15.2040   -3.9165  -10.2786 O   0  0  0  0  0  0  0  0  0  0  0  0
  2  3  2  0
  2  1  1  0
  4  2  1  0
  5  4  1  0
  5  6  1  1
  7  5  1  0
  7  9  1  0
  8  7  2  0
 10  9  1  0
 11 12  1  0
 10 11  1  6
 12 13  2  0
 13 14  1  0
 15 14  1  0
 16 12  1  0
 16 15  2  0
 17 18  2  0
 17 10  1  0
 20 19  1  6
 20 21  1  0
 22 23  1  6
 22 20  1  0
 23 17  1  0
 24 22  1  0
 25 24  2  0
 26 24  1  0
M  END
$$$$
