NHT.pdb
     RDKit          3D

 26 26  0  0  1  0  0  0  0  0999 V2000
   20.4837  -14.7269  -18.2169 N   0  0  0  0  0  0  0  0  0  0  0  0
   19.1334  -14.3216  -18.3141 C   0  0  0  0  0  0  0  0  0  0  0  0
   18.3312  -15.1316  -18.8864 O   0  0  0  0  0  0  0  0  0  0  0  0
   18.6298  -13.0254  -17.7898 C   0  0  0  0  0  0  0  0  0  0  0  0
   19.7813  -12.3225  -17.1360 C   0  0  2  0  0  0  0  0  0  0  0  0
   20.1563  -13.0301  -15.9362 N   0  0  0  0  0  0  0  0  0  0  0  0
   19.4626  -10.8902  -16.8421 C   0  0  0  0  0  0  0  0  0  0  0  0
   19.2758  -10.1611  -17.8221 O   0  0  0  0  0  0  0  0  0  0  0  0
   19.3813  -10.4063  -15.5357 N   0  0  0  0  0  0  0  0  0  0  0  0
   19.0365   -9.1216  -15.0770 C   0  0  1  0  0  0  0  0  0  0  0  0
   17.9724   -9.0401  -13.9980 C   0  0  0  0  0  0  0  0  0  0  0  0
   16.6747   -9.5942  -14.3666 C   0  0  0  0  0  0  0  0  0  0  0  0
   15.9120   -9.0797  -15.4073 C   0  0  0  0  0  0  0  0  0  0  0  0
   14.7846   -9.8076  -15.4852 N   0  0  0  0  0  0  0  0  0  0  0  0
   14.8008  -10.7533  -14.5460 C   0  0  0  0  0  0  0  0  0  0  0  0
   15.9540  -10.6092  -13.8770 N   0  0  0  0  0  0  0  0  0  0  0  0
   20.1559   -8.2574  -14.7162 C   0  0  0  0  0  0  0  0  0  0  0  0
   20.9473   -8.6804  -13.8053 O   0  0  0  0  0  0  0  0  0  0  0  0
   23.0053   -6.8215  -16.9349 C   0  0  0  0  0  0  0  0  0  0  0  0
   22.3215   -5.7333  -16.1355 C   0  0  1  0  0  0  0  0  0  0  0  0
   21.4686   -5.0271  -16.9565 O   0  0  0  0  0  0  0  0  0  0  0  0
   21.6404   -6.2887  -14.9039 C   0  0  2  0  0  0  0  0  0  0  0  0
   20.4304   -7.0136  -15.2835 N   0  0  0  0  0  0  0  0  0  0  0  0
   21.2875   -5.1320  -14.0457 C   0  0  0  0  0  0  0  0  0  0  0  0
   20.1126   -4.7819  -13.8592 O   0  0  0  0  0  0  0  0  0  0  0  0
   22.3026   -4.4252  -13.4370 O   0  0  0  0  0  0  0  0  0  0  0  0
  2  3  2  0
  2  1  1  0
  4  2  1  0
  5  4  1  0
  5  6  1  1
  7  5  1  0
  7  9  1  0
  8  7  2  0
 10  9  1  0
 11 12  1  0
 10 11  1  1
 12 13  2  0
 13 14  1  0
 15 14  1  0
 16 12  1  0
 16 15  2  0
 17 18  2  0
 17 10  1  0
 20 19  1  6
 20 21  1  0
 22 23  1  6
 22 20  1  0
 23 17  1  0
 24 22  1  0
 25 24  2  0
 26 24  1  0
M  END
$$$$
