LDY.pdb
     RDKit          3D

 29 29  0  0  1  0  0  0  0  0999 V2000
    7.6601  -13.0029   20.0864 C   0  0  0  0  0  0  0  0  0  0  0  0
    7.3782  -14.0497   19.0733 C   0  0  1  0  0  0  0  0  0  0  0  0
    7.4313  -13.4161   17.6870 C   0  0  0  0  0  0  0  0  0  0  0  0
    8.1294  -15.3144   19.1463 C   0  0  0  0  0  0  0  0  0  0  0  0
    8.0447  -16.1533   20.3675 C   0  0  2  0  0  0  0  0  0  0  0  0
    7.1606  -15.5062   21.3572 N   0  0  0  0  0  0  0  0  0  0  0  0
    9.3141  -16.4546   21.0528 C   0  0  0  0  0  0  0  0  0  0  0  0
    9.8598  -17.5974   21.0754 O   0  0  0  0  0  0  0  0  0  0  0  0
   10.0806  -15.4629   21.7782 N   0  0  0  0  0  0  0  0  0  0  0  0
   11.2089  -15.7691   22.5891 C   0  0  1  0  0  0  0  0  0  0  0  0
   12.3595  -14.8008   22.5008 C   0  0  0  0  0  0  0  0  0  0  0  0
   13.1553  -15.1216   21.3031 C   0  0  0  0  0  0  0  0  0  0  0  0
   13.4829  -16.2810   20.9477 O   0  0  0  0  0  0  0  0  0  0  0  0
   10.8388  -16.0604   24.0061 C   0  0  0  0  0  0  0  0  0  0  0  0
   11.7714  -16.0742   24.8539 O   0  0  0  0  0  0  0  0  0  0  0  0
   13.5957  -14.0765   20.4809 O   0  0  0  0  0  0  0  0  0  0  0  0
    6.9635  -10.5262   26.2814 O   0  0  0  0  0  0  0  0  0  0  0  0
    7.1691  -11.9131   26.1759 C   0  0  0  0  0  0  0  0  0  0  0  0
    7.5980  -12.5127   25.0175 C   0  0  0  0  0  0  0  0  0  0  0  0
    7.7845  -13.8953   24.9711 C   0  0  0  0  0  0  0  0  0  0  0  0
    7.5444  -14.6838   26.0764 C   0  0  0  0  0  0  0  0  0  0  0  0
    7.7498  -16.1259   25.9914 C   0  0  0  0  0  0  0  0  0  0  0  0
    9.1872  -16.5640   25.8537 C   0  0  2  0  0  0  0  0  0  0  0  0
    9.5417  -16.3178   24.4518 N   0  0  0  0  0  0  0  0  0  0  0  0
    9.4259  -17.9629   26.2359 C   0  0  0  0  0  0  0  0  0  0  0  0
    9.4562  -18.3996   27.4264 O   0  0  0  0  0  0  0  0  0  0  0  0
    7.1157  -14.0707   27.2270 C   0  0  0  0  0  0  0  0  0  0  0  0
    6.9221  -12.6943   27.3001 C   0  0  0  0  0  0  0  0  0  0  0  0
    9.6357  -18.8864   25.2268 O   0  0  0  0  0  0  0  0  0  0  0  0
  2  4  1  0
  2  1  1  1
  3  2  1  0
  5  7  1  0
  5  6  1  1
  5  4  1  0
  7  8  2  0
  9  7  1  0
 10  9  1  0
 10 11  1  1
 12 11  1  0
 13 12  2  0
 14 15  2  0
 14 10  1  0
 16 12  1  0
 17 18  1  0
 18 19  2  0
 19 20  1  0
 21 20  2  0
 21 22  1  0
 23 22  1  6
 23 24  1  0
 23 25  1  0
 24 14  1  0
 25 29  1  0
 26 25  2  0
 27 21  1  0
 28 18  1  0
 28 27  2  0
M  END
$$$$
