LDY.pdb
     RDKit          3D

 29 29  0  0  1  0  0  0  0  0999 V2000
    6.5371  -12.1648   19.9182 C   0  0  0  0  0  0  0  0  0  0  0  0
    7.6092  -13.1719   19.7243 C   0  0  1  0  0  0  0  0  0  0  0  0
    8.8528  -12.4668   19.1927 C   0  0  0  0  0  0  0  0  0  0  0  0
    7.9119  -14.0937   20.8322 C   0  0  0  0  0  0  0  0  0  0  0  0
    9.0346  -15.0560   20.7056 C   0  0  2  0  0  0  0  0  0  0  0  0
    8.8434  -15.8904   19.5027 N   0  0  0  0  0  0  0  0  0  0  0  0
    9.2510  -15.9732   21.8386 C   0  0  0  0  0  0  0  0  0  0  0  0
    8.3542  -16.3073   22.6682 O   0  0  0  0  0  0  0  0  0  0  0  0
   10.5261  -16.5978   22.1233 N   0  0  0  0  0  0  0  0  0  0  0  0
   10.7588  -17.4569   23.2334 C   0  0  1  0  0  0  0  0  0  0  0  0
   12.0205  -18.2777   23.1715 C   0  0  0  0  0  0  0  0  0  0  0  0
   11.9989  -19.0841   21.9386 C   0  0  0  0  0  0  0  0  0  0  0  0
   11.1394  -19.9591   21.6676 O   0  0  0  0  0  0  0  0  0  0  0  0
   10.6187  -16.7562   24.5445 C   0  0  0  0  0  0  0  0  0  0  0  0
   11.3836  -15.7778   24.7595 O   0  0  0  0  0  0  0  0  0  0  0  0
   12.9998  -18.8842   20.9792 O   0  0  0  0  0  0  0  0  0  0  0  0
    6.3850  -11.4279   24.9169 O   0  0  0  0  0  0  0  0  0  0  0  0
    6.8851  -12.6024   25.5065 C   0  0  0  0  0  0  0  0  0  0  0  0
    8.0032  -12.6134   26.3034 C   0  0  0  0  0  0  0  0  0  0  0  0
    8.4541  -13.8105   26.8621 C   0  0  0  0  0  0  0  0  0  0  0  0
    7.7942  -14.9985   26.6288 C   0  0  0  0  0  0  0  0  0  0  0  0
    8.2943  -16.2308   27.2290 C   0  0  0  0  0  0  0  0  0  0  0  0
    9.7286  -16.5688   26.9041 C   0  0  2  0  0  0  0  0  0  0  0  0
    9.7071  -17.1090   25.5405 N   0  0  0  0  0  0  0  0  0  0  0  0
   10.3516  -17.5062   27.8491 C   0  0  0  0  0  0  0  0  0  0  0  0
   10.6005  -17.2572   29.0677 O   0  0  0  0  0  0  0  0  0  0  0  0
    6.6785  -14.9721   25.8299 C   0  0  0  0  0  0  0  0  0  0  0  0
    6.2077  -13.7923   25.2609 C   0  0  0  0  0  0  0  0  0  0  0  0
   10.6990  -18.7630   27.3853 O   0  0  0  0  0  0  0  0  0  0  0  0
  2  4  1  0
  2  1  1  1
  3  2  1  0
  5  7  1  0
  5  6  1  6
  5  4  1  0
  7  8  2  0
  9  7  1  0
 10  9  1  0
 10 11  1  6
 12 11  1  0
 13 12  2  0
 14 15  2  0
 14 10  1  0
 16 12  1  0
 17 18  1  0
 18 19  2  0
 19 20  1  0
 21 20  2  0
 21 22  1  0
 23 22  1  1
 23 24  1  0
 23 25  1  0
 24 14  1  0
 25 29  1  0
 26 25  2  0
 27 21  1  0
 28 18  1  0
 28 27  2  0
M  END
$$$$
