LDY.pdb
     RDKit          3D

 29 29  0  0  1  0  0  0  0  0999 V2000
    6.4866  -13.6192   18.0854 C   0  0  0  0  0  0  0  0  0  0  0  0
    7.8103  -13.7782   18.7367 C   0  0  1  0  0  0  0  0  0  0  0  0
    8.6301  -12.5152   18.4940 C   0  0  0  0  0  0  0  0  0  0  0  0
    7.8504  -14.2172   20.1419 C   0  0  0  0  0  0  0  0  0  0  0  0
    9.1484  -14.2797   20.8586 C   0  0  2  0  0  0  0  0  0  0  0  0
   10.2519  -14.3884   19.8838 N   0  0  0  0  0  0  0  0  0  0  0  0
    9.3171  -15.3773   21.8274 C   0  0  0  0  0  0  0  0  0  0  0  0
    8.4520  -15.7057   22.6923 O   0  0  0  0  0  0  0  0  0  0  0  0
   10.5026  -16.2065   21.8907 N   0  0  0  0  0  0  0  0  0  0  0  0
   10.6862  -17.2586   22.8308 C   0  0  1  0  0  0  0  0  0  0  0  0
   11.5267  -18.4167   22.3600 C   0  0  0  0  0  0  0  0  0  0  0  0
   12.9068  -17.9445   22.1522 C   0  0  0  0  0  0  0  0  0  0  0  0
   13.8530  -18.1124   22.9612 O   0  0  0  0  0  0  0  0  0  0  0  0
   11.1249  -16.7654   24.1702 C   0  0  0  0  0  0  0  0  0  0  0  0
   12.0046  -15.8631   24.1921 O   0  0  0  0  0  0  0  0  0  0  0  0
   13.2169  -17.2515   20.9750 O   0  0  0  0  0  0  0  0  0  0  0  0
    6.1172  -11.2853   27.5502 O   0  0  0  0  0  0  0  0  0  0  0  0
    6.7241  -12.4373   27.0195 C   0  0  0  0  0  0  0  0  0  0  0  0
    6.0575  -13.3164   26.2020 C   0  0  0  0  0  0  0  0  0  0  0  0
    6.7116  -14.4447   25.7044 C   0  0  0  0  0  0  0  0  0  0  0  0
    8.0293  -14.7009   26.0194 C   0  0  0  0  0  0  0  0  0  0  0  0
    8.6809  -15.8904   25.4814 C   0  0  0  0  0  0  0  0  0  0  0  0
    9.8204  -16.4303   26.3105 C   0  0  2  0  0  0  0  0  0  0  0  0
   10.6323  -17.2328   25.3894 N   0  0  0  0  0  0  0  0  0  0  0  0
    9.3925  -17.2127   27.4787 C   0  0  0  0  0  0  0  0  0  0  0  0
    9.4947  -16.8375   28.6861 O   0  0  0  0  0  0  0  0  0  0  0  0
    8.6825  -13.8137   26.8379 C   0  0  0  0  0  0  0  0  0  0  0  0
    8.0539  -12.6811   27.3472 C   0  0  0  0  0  0  0  0  0  0  0  0
    8.8323  -18.4587   27.2577 O   0  0  0  0  0  0  0  0  0  0  0  0
  2  4  1  0
  2  1  1  1
  3  2  1  0
  5  7  1  0
  5  6  1  6
  5  4  1  0
  7  8  2  0
  9  7  1  0
 10  9  1  0
 10 11  1  6
 12 11  1  0
 13 12  2  0
 14 15  2  0
 14 10  1  0
 16 12  1  0
 17 18  1  0
 18 19  2  0
 19 20  1  0
 21 20  2  0
 21 22  1  0
 23 22  1  6
 23 24  1  0
 23 25  1  0
 24 14  1  0
 25 29  1  0
 26 25  2  0
 27 21  1  0
 28 18  1  0
 28 27  2  0
M  END
$$$$
