LDY.pdb
     RDKit          3D

 29 29  0  0  1  0  0  0  0  0999 V2000
    6.7195  -13.9264   17.2742 C   0  0  0  0  0  0  0  0  0  0  0  0
    7.9950  -13.8451   18.0278 C   0  0  1  0  0  0  0  0  0  0  0  0
    8.4428  -12.3880   18.0764 C   0  0  0  0  0  0  0  0  0  0  0  0
    8.0744  -14.5053   19.3419 C   0  0  0  0  0  0  0  0  0  0  0  0
    9.2408  -14.2540   20.2245 C   0  0  2  0  0  0  0  0  0  0  0  0
   10.4556  -14.0703   19.4058 N   0  0  0  0  0  0  0  0  0  0  0  0
    9.5472  -15.2897   21.2271 C   0  0  0  0  0  0  0  0  0  0  0  0
    8.7530  -15.6526   22.1446 O   0  0  0  0  0  0  0  0  0  0  0  0
   10.8021  -16.0113   21.2666 N   0  0  0  0  0  0  0  0  0  0  0  0
   11.0971  -17.0400   22.2043 C   0  0  1  0  0  0  0  0  0  0  0  0
   12.4020  -17.7624   21.9932 C   0  0  0  0  0  0  0  0  0  0  0  0
   12.4620  -18.9082   22.9176 C   0  0  0  0  0  0  0  0  0  0  0  0
   12.1922  -18.8570   24.1434 O   0  0  0  0  0  0  0  0  0  0  0  0
   10.9347  -16.5940   23.6201 C   0  0  0  0  0  0  0  0  0  0  0  0
   11.7110  -15.6905   24.0321 O   0  0  0  0  0  0  0  0  0  0  0  0
   12.8476  -20.1604   22.4223 O   0  0  0  0  0  0  0  0  0  0  0  0
    5.6253  -11.6513   28.0481 O   0  0  0  0  0  0  0  0  0  0  0  0
    6.3587  -12.5356   27.2374 C   0  0  0  0  0  0  0  0  0  0  0  0
    5.7705  -13.5605   26.5381 C   0  0  0  0  0  0  0  0  0  0  0  0
    6.5495  -14.4083   25.7488 C   0  0  0  0  0  0  0  0  0  0  0  0
    7.9145  -14.2385   25.6541 C   0  0  0  0  0  0  0  0  0  0  0  0
    8.6974  -15.1440   24.8197 C   0  0  0  0  0  0  0  0  0  0  0  0
    9.3198  -16.3114   25.5455 C   0  0  2  0  0  0  0  0  0  0  0  0
    9.9907  -17.1062   24.5112 N   0  0  0  0  0  0  0  0  0  0  0  0
    8.3614  -17.1187   26.3134 C   0  0  0  0  0  0  0  0  0  0  0  0
    7.8813  -16.8025   27.4441 O   0  0  0  0  0  0  0  0  0  0  0  0
    8.4885  -13.2102   26.3590 C   0  0  0  0  0  0  0  0  0  0  0  0
    7.7348  -12.3506   27.1529 C   0  0  0  0  0  0  0  0  0  0  0  0
    7.9419  -18.3209   25.7713 O   0  0  0  0  0  0  0  0  0  0  0  0
  2  4  1  0
  2  1  1  1
  3  2  1  0
  5  7  1  0
  5  6  1  6
  5  4  1  0
  7  8  2  0
  9  7  1  0
 10  9  1  0
 10 11  1  1
 12 11  1  0
 13 12  2  0
 14 15  2  0
 14 10  1  0
 16 12  1  0
 17 18  1  0
 18 19  2  0
 19 20  1  0
 21 20  2  0
 21 22  1  0
 23 22  1  6
 23 24  1  0
 23 25  1  0
 24 14  1  0
 25 29  1  0
 26 25  2  0
 27 21  1  0
 28 18  1  0
 28 27  2  0
M  END
$$$$
