LDY.pdb
     RDKit          3D

 29 29  0  0  1  0  0  0  0  0999 V2000
    8.1945  -13.0278   18.5889 C   0  0  0  0  0  0  0  0  0  0  0  0
    8.2386  -13.8632   19.8143 C   0  0  1  0  0  0  0  0  0  0  0  0
    7.3593  -13.2165   20.8796 C   0  0  0  0  0  0  0  0  0  0  0  0
    7.9971  -15.3102   19.6836 C   0  0  0  0  0  0  0  0  0  0  0  0
    8.0191  -16.1738   20.8904 C   0  0  2  0  0  0  0  0  0  0  0  0
    7.7420  -15.3606   22.0910 N   0  0  0  0  0  0  0  0  0  0  0  0
    9.2649  -16.9173   21.1493 C   0  0  0  0  0  0  0  0  0  0  0  0
    9.3259  -18.1707   21.3210 O   0  0  0  0  0  0  0  0  0  0  0  0
   10.5651  -16.2853   21.2327 N   0  0  0  0  0  0  0  0  0  0  0  0
   11.7361  -16.9384   21.7088 C   0  0  1  0  0  0  0  0  0  0  0  0
   12.9671  -16.7776   20.8554 C   0  0  0  0  0  0  0  0  0  0  0  0
   12.9330  -17.7873   19.7829 C   0  0  0  0  0  0  0  0  0  0  0  0
   13.0704  -17.5401   18.5590 O   0  0  0  0  0  0  0  0  0  0  0  0
   12.0171  -16.6442   23.1455 C   0  0  0  0  0  0  0  0  0  0  0  0
   12.8363  -15.7194   23.3946 O   0  0  0  0  0  0  0  0  0  0  0  0
   12.7320  -19.1314   20.1223 O   0  0  0  0  0  0  0  0  0  0  0  0
    8.3274  -12.2267   29.2989 O   0  0  0  0  0  0  0  0  0  0  0  0
    8.7738  -13.0250   28.2309 C   0  0  0  0  0  0  0  0  0  0  0  0
    7.9470  -13.4291   27.2118 C   0  0  0  0  0  0  0  0  0  0  0  0
    8.4458  -14.2222   26.1770 C   0  0  0  0  0  0  0  0  0  0  0  0
    9.7673  -14.6149   26.1543 C   0  0  0  0  0  0  0  0  0  0  0  0
   10.2541  -15.4442   25.0569 C   0  0  0  0  0  0  0  0  0  0  0  0
   11.0266  -16.6722   25.4721 C   0  0  2  0  0  0  0  0  0  0  0  0
   11.4402  -17.3190   24.2222 N   0  0  0  0  0  0  0  0  0  0  0  0
   10.2710  -17.5916   26.3345 C   0  0  0  0  0  0  0  0  0  0  0  0
    9.4368  -18.4558   25.9266 O   0  0  0  0  0  0  0  0  0  0  0  0
   10.5816  -14.2037   27.1797 C   0  0  0  0  0  0  0  0  0  0  0  0
   10.1097  -13.4126   28.2232 C   0  0  0  0  0  0  0  0  0  0  0  0
   10.4765  -17.5188   27.7011 O   0  0  0  0  0  0  0  0  0  0  0  0
  2  4  1  0
  2  1  1  6
  3  2  1  0
  5  7  1  0
  5  6  1  1
  5  4  1  0
  7  8  2  0
  9  7  1  0
 10  9  1  0
 10 11  1  6
 12 11  1  0
 13 12  2  0
 14 15  2  0
 14 10  1  0
 16 12  1  0
 17 18  1  0
 18 19  2  0
 19 20  1  0
 21 20  2  0
 21 22  1  0
 23 22  1  6
 23 24  1  0
 23 25  1  0
 24 14  1  0
 25 29  1  0
 26 25  2  0
 27 21  1  0
 28 18  1  0
 28 27  2  0
M  END
$$$$
