LDY.pdb
     RDKit          3D

 29 29  0  0  1  0  0  0  0  0999 V2000
    7.8986  -12.8942   19.4953 C   0  0  0  0  0  0  0  0  0  0  0  0
    8.0350  -13.8385   20.6317 C   0  0  1  0  0  0  0  0  0  0  0  0
    7.3389  -13.2415   21.8504 C   0  0  0  0  0  0  0  0  0  0  0  0
    7.6809  -15.2513   20.4137 C   0  0  0  0  0  0  0  0  0  0  0  0
    7.9501  -16.2518   21.4762 C   0  0  2  0  0  0  0  0  0  0  0  0
    7.6429  -15.6707   22.7982 N   0  0  0  0  0  0  0  0  0  0  0  0
    9.3206  -16.7889   21.5474 C   0  0  0  0  0  0  0  0  0  0  0  0
    9.6824  -17.8921   21.0410 O   0  0  0  0  0  0  0  0  0  0  0  0
   10.4102  -16.1020   22.2092 N   0  0  0  0  0  0  0  0  0  0  0  0
   11.7039  -16.6631   22.3984 C   0  0  1  0  0  0  0  0  0  0  0  0
   12.8631  -15.7449   22.1111 C   0  0  0  0  0  0  0  0  0  0  0  0
   14.0533  -16.5638   21.8217 C   0  0  0  0  0  0  0  0  0  0  0  0
   14.2359  -17.2172   20.7644 O   0  0  0  0  0  0  0  0  0  0  0  0
   11.8506  -17.3419   23.7203 C   0  0  0  0  0  0  0  0  0  0  0  0
   13.0176  -17.6501   24.0833 O   0  0  0  0  0  0  0  0  0  0  0  0
   15.0733  -16.6408   22.7787 O   0  0  0  0  0  0  0  0  0  0  0  0
   10.3622  -12.6361   28.9948 O   0  0  0  0  0  0  0  0  0  0  0  0
   10.2441  -13.9258   28.4473 C   0  0  0  0  0  0  0  0  0  0  0  0
   11.0855  -14.9558   28.7888 C   0  0  0  0  0  0  0  0  0  0  0  0
   10.9208  -16.2162   28.2120 C   0  0  0  0  0  0  0  0  0  0  0  0
    9.9195  -16.4543   27.2945 C   0  0  0  0  0  0  0  0  0  0  0  0
    9.7772  -17.7843   26.7116 C   0  0  0  0  0  0  0  0  0  0  0  0
   10.9568  -18.2608   25.9001 C   0  0  2  0  0  0  0  0  0  0  0  0
   10.7922  -17.6571   24.5735 N   0  0  0  0  0  0  0  0  0  0  0  0
   11.0763  -19.7234   25.8195 C   0  0  0  0  0  0  0  0  0  0  0  0
   10.6184  -20.4428   24.8805 O   0  0  0  0  0  0  0  0  0  0  0  0
    9.0865  -15.4152   26.9625 C   0  0  0  0  0  0  0  0  0  0  0  0
    9.2288  -14.1491   27.5229 C   0  0  0  0  0  0  0  0  0  0  0  0
   11.7383  -20.3795   26.8424 O   0  0  0  0  0  0  0  0  0  0  0  0
  2  4  1  0
  2  1  1  6
  3  2  1  0
  5  7  1  0
  5  6  1  1
  5  4  1  0
  7  8  2  0
  9  7  1  0
 10  9  1  0
 10 11  1  1
 12 11  1  0
 13 12  2  0
 14 15  2  0
 14 10  1  0
 16 12  1  0
 17 18  1  0
 18 19  2  0
 19 20  1  0
 21 20  2  0
 21 22  1  0
 23 22  1  1
 23 24  1  0
 23 25  1  0
 24 14  1  0
 25 29  1  0
 26 25  2  0
 27 21  1  0
 28 18  1  0
 28 27  2  0
M  END
$$$$
