LDY.pdb
     RDKit          3D

 29 29  0  0  1  0  0  0  0  0999 V2000
    7.2167  -11.6995   20.8131 C   0  0  0  0  0  0  0  0  0  0  0  0
    7.4614  -13.1376   20.5421 C   0  0  1  0  0  0  0  0  0  0  0  0
    8.1603  -13.2695   19.1929 C   0  0  0  0  0  0  0  0  0  0  0  0
    8.1012  -13.9484   21.5921 C   0  0  0  0  0  0  0  0  0  0  0  0
    8.3272  -15.3982   21.3696 C   0  0  2  0  0  0  0  0  0  0  0  0
    7.0411  -16.0663   21.0881 N   0  0  0  0  0  0  0  0  0  0  0  0
    8.9713  -16.1433   22.4659 C   0  0  0  0  0  0  0  0  0  0  0  0
    8.3424  -16.7569   23.3782 O   0  0  0  0  0  0  0  0  0  0  0  0
   10.4073  -16.2554   22.6147 N   0  0  0  0  0  0  0  0  0  0  0  0
   11.0427  -16.9996   23.6476 C   0  0  1  0  0  0  0  0  0  0  0  0
   12.4538  -17.4423   23.3612 C   0  0  0  0  0  0  0  0  0  0  0  0
   12.4903  -18.0697   22.0286 C   0  0  0  0  0  0  0  0  0  0  0  0
   11.9304  -19.1538   21.7295 O   0  0  0  0  0  0  0  0  0  0  0  0
   10.9295  -16.3438   24.9843 C   0  0  0  0  0  0  0  0  0  0  0  0
   11.4847  -15.2210   25.1240 O   0  0  0  0  0  0  0  0  0  0  0  0
   13.1958  -17.4348   20.9985 O   0  0  0  0  0  0  0  0  0  0  0  0
    6.4071  -11.6420   25.4110 O   0  0  0  0  0  0  0  0  0  0  0  0
    7.0484  -12.7273   26.0338 C   0  0  0  0  0  0  0  0  0  0  0  0
    8.1394  -12.5725   26.8530 C   0  0  0  0  0  0  0  0  0  0  0  0
    8.7359  -13.6875   27.4443 C   0  0  0  0  0  0  0  0  0  0  0  0
    8.2486  -14.9579   27.2216 C   0  0  0  0  0  0  0  0  0  0  0  0
    8.8976  -16.1004   27.8562 C   0  0  0  0  0  0  0  0  0  0  0  0
   10.3283  -16.3402   27.4406 C   0  0  2  0  0  0  0  0  0  0  0  0
   10.2576  -16.8857   26.0809 N   0  0  0  0  0  0  0  0  0  0  0  0
   11.0730  -17.2290   28.3436 C   0  0  0  0  0  0  0  0  0  0  0  0
   11.3497  -16.9739   29.5550 O   0  0  0  0  0  0  0  0  0  0  0  0
    7.1579  -15.0972   26.4003 C   0  0  0  0  0  0  0  0  0  0  0  0
    6.5443  -14.0023   25.7985 C   0  0  0  0  0  0  0  0  0  0  0  0
   11.5126  -18.4430   27.8453 O   0  0  0  0  0  0  0  0  0  0  0  0
  2  4  1  0
  2  1  1  1
  3  2  1  0
  5  7  1  0
  5  6  1  1
  5  4  1  0
  7  8  2  0
  9  7  1  0
 10  9  1  0
 10 11  1  6
 12 11  1  0
 13 12  2  0
 14 15  2  0
 14 10  1  0
 16 12  1  0
 17 18  1  0
 18 19  2  0
 19 20  1  0
 21 20  2  0
 21 22  1  0
 23 22  1  1
 23 24  1  0
 23 25  1  0
 24 14  1  0
 25 29  1  0
 26 25  2  0
 27 21  1  0
 28 18  1  0
 28 27  2  0
M  END
$$$$
