GGP.pdb
     RDKit          3D

 16 16  0  0  1  0  0  0  0  0999 V2000
    7.3875  -17.7886   19.6075 N   0  0  0  0  0  0  0  0  0  0  0  0
    8.0433  -17.3856   20.8132 C   0  0  0  0  0  0  0  0  0  0  0  0
    7.3295  -16.2269   21.4599 C   0  0  0  0  0  0  0  0  0  0  0  0
    6.5204  -15.5163   20.8094 O   0  0  0  0  0  0  0  0  0  0  0  0
    7.5477  -15.9003   22.8248 N   0  0  0  0  0  0  0  0  0  0  0  0
    7.2335  -14.5910   23.3322 C   0  0  0  0  0  0  0  0  0  0  0  0
    8.0248  -14.2513   24.5428 C   0  0  0  0  0  0  0  0  0  0  0  0
    9.0627  -14.9028   24.7464 O   0  0  0  0  0  0  0  0  0  0  0  0
    7.5840  -13.2278   25.3987 N   0  0  0  0  0  0  0  0  0  0  0  0
    6.6877  -12.1541   24.8902 C   0  0  0  0  0  0  0  0  0  0  0  0
    5.8534  -11.7284   26.0656 C   0  0  0  0  0  0  0  0  0  0  0  0
    6.3085  -12.6243   27.1967 C   0  0  0  0  0  0  0  0  0  0  0  0
    7.7726  -12.8694   26.7574 C   0  0  1  0  0  0  0  0  0  0  0  0
    8.4449  -13.7727   27.6573 C   0  0  0  0  0  0  0  0  0  0  0  0
    8.2219  -15.1033   27.8787 O   0  0  0  0  0  0  0  0  0  0  0  0
    9.3928  -13.2600   28.3575 O   0  0  0  0  0  0  0  0  0  0  0  0
  2  1  1  0
  3  5  1  0
  3  2  1  0
  4  3  2  0
  6  5  1  0
  7  6  1  0
  8  7  2  0
  9 13  1  0
  9  7  1  0
 10  9  1  0
 11 10  1  0
 11 12  1  0
 12 13  1  0
 14 15  1  0
 13 14  1  1
 16 14  2  0
M  END
$$$$
