GGP.pdb
     RDKit          3D

 16 16  0  0  1  0  0  0  0  0999 V2000
    7.8722  -17.6350   20.4659 N   0  0  0  0  0  0  0  0  0  0  0  0
    8.0121  -16.2114   20.4650 C   0  0  0  0  0  0  0  0  0  0  0  0
    7.3428  -15.5979   21.6674 C   0  0  0  0  0  0  0  0  0  0  0  0
    6.8081  -16.3159   22.5514 O   0  0  0  0  0  0  0  0  0  0  0  0
    7.2943  -14.1890   21.8409 N   0  0  0  0  0  0  0  0  0  0  0  0
    6.7390  -13.6088   23.0347 C   0  0  0  0  0  0  0  0  0  0  0  0
    7.6930  -13.6415   24.1731 C   0  0  0  0  0  0  0  0  0  0  0  0
    8.6837  -14.3830   24.0652 O   0  0  0  0  0  0  0  0  0  0  0  0
    7.4495  -12.8509   25.3090 N   0  0  0  0  0  0  0  0  0  0  0  0
    6.6820  -11.5812   25.1930 C   0  0  0  0  0  0  0  0  0  0  0  0
    5.9857  -11.4033   26.5130 C   0  0  0  0  0  0  0  0  0  0  0  0
    6.3786  -12.6243   27.3155 C   0  0  0  0  0  0  0  0  0  0  0  0
    7.7661  -12.9075   26.6899 C   0  0  1  0  0  0  0  0  0  0  0  0
    8.3590  -14.0969   27.2480 C   0  0  0  0  0  0  0  0  0  0  0  0
    9.4640  -14.2251   28.0429 O   0  0  0  0  0  0  0  0  0  0  0  0
    7.7693  -15.2020   26.9605 O   0  0  0  0  0  0  0  0  0  0  0  0
  2  1  1  0
  3  5  1  0
  3  2  1  0
  4  3  2  0
  6  5  1  0
  7  6  1  0
  8  7  2  0
  9 13  1  0
  9  7  1  0
 10  9  1  0
 11 10  1  0
 11 12  1  0
 12 13  1  0
 14 15  1  0
 13 14  1  1
 16 14  2  0
M  END
$$$$
