GGP.pdb
     RDKit          3D

 16 16  0  0  1  0  0  0  0  0999 V2000
    4.4230  -21.0172   20.9259 N   0  0  0  0  0  0  0  0  0  0  0  0
    3.5592  -19.8772   20.9473 C   0  0  0  0  0  0  0  0  0  0  0  0
    4.0507  -18.8402   21.9237 C   0  0  0  0  0  0  0  0  0  0  0  0
    3.9822  -19.0314   23.1652 O   0  0  0  0  0  0  0  0  0  0  0  0
    4.6071  -17.6135   21.4729 N   0  0  0  0  0  0  0  0  0  0  0  0
    5.2261  -16.6983   22.3945 C   0  0  0  0  0  0  0  0  0  0  0  0
    6.7093  -16.7464   22.3254 C   0  0  0  0  0  0  0  0  0  0  0  0
    7.2502  -17.8566   22.4591 O   0  0  0  0  0  0  0  0  0  0  0  0
    7.4358  -15.5620   22.1157 N   0  0  0  0  0  0  0  0  0  0  0  0
    6.8196  -14.4187   21.3892 C   0  0  0  0  0  0  0  0  0  0  0  0
    7.4587  -13.1825   21.9567 C   0  0  0  0  0  0  0  0  0  0  0  0
    8.4023  -13.6990   23.0207 C   0  0  0  0  0  0  0  0  0  0  0  0
    8.7364  -15.0849   22.4172 C   0  0  1  0  0  0  0  0  0  0  0  0
    9.6002  -15.8410   23.2890 C   0  0  0  0  0  0  0  0  0  0  0  0
    9.3407  -16.3701   24.5226 O   0  0  0  0  0  0  0  0  0  0  0  0
   10.7895  -16.0521   22.8501 O   0  0  0  0  0  0  0  0  0  0  0  0
  2  1  1  0
  3  5  1  0
  3  2  1  0
  4  3  2  0
  6  5  1  0
  7  6  1  0
  8  7  2  0
  9 13  1  0
  9  7  1  0
 10  9  1  0
 11 10  1  0
 11 12  1  0
 12 13  1  0
 14 15  1  0
 13 14  1  1
 16 14  2  0
M  END
$$$$
