GGP.pdb
     RDKit          3D

 16 16  0  0  1  0  0  0  0  0999 V2000
    9.4369  -17.3429   21.0303 N   0  0  0  0  0  0  0  0  0  0  0  0
    8.4216  -16.4397   20.5834 C   0  0  0  0  0  0  0  0  0  0  0  0
    7.6710  -15.8457   21.7470 C   0  0  0  0  0  0  0  0  0  0  0  0
    7.1256  -16.5788   22.6119 O   0  0  0  0  0  0  0  0  0  0  0  0
    7.5555  -14.4388   21.9043 N   0  0  0  0  0  0  0  0  0  0  0  0
    6.9162  -13.8734   23.0627 C   0  0  0  0  0  0  0  0  0  0  0  0
    7.8241  -13.8201   24.2373 C   0  0  0  0  0  0  0  0  0  0  0  0
    8.8459  -14.5255   24.2001 O   0  0  0  0  0  0  0  0  0  0  0  0
    7.5052  -12.9928   25.3274 N   0  0  0  0  0  0  0  0  0  0  0  0
    6.7234  -11.7433   25.1218 C   0  0  0  0  0  0  0  0  0  0  0  0
    5.9528  -11.5300   26.3944 C   0  0  0  0  0  0  0  0  0  0  0  0
    6.3221  -12.7125   27.2629 C   0  0  0  0  0  0  0  0  0  0  0  0
    7.7465  -12.9920   26.7245 C   0  0  1  0  0  0  0  0  0  0  0  0
    8.3283  -14.1482   27.3588 C   0  0  0  0  0  0  0  0  0  0  0  0
    9.3528  -14.2198   28.2613 O   0  0  0  0  0  0  0  0  0  0  0  0
    7.8152  -15.2807   27.0333 O   0  0  0  0  0  0  0  0  0  0  0  0
  2  1  1  0
  3  5  1  0
  3  2  1  0
  4  3  2  0
  6  5  1  0
  7  6  1  0
  8  7  2  0
  9 13  1  0
  9  7  1  0
 10  9  1  0
 11 10  1  0
 11 12  1  0
 12 13  1  0
 14 15  1  0
 13 14  1  1
 16 14  2  0
M  END
$$$$
