GGP.pdb
     RDKit          3D

 16 16  0  0  1  0  0  0  0  0999 V2000
    5.3321  -20.1141   22.1848 N   0  0  0  0  0  0  0  0  0  0  0  0
    6.4211  -19.3817   22.7539 C   0  0  0  0  0  0  0  0  0  0  0  0
    6.1509  -17.8996   22.7315 C   0  0  0  0  0  0  0  0  0  0  0  0
    5.6331  -17.3177   23.7195 O   0  0  0  0  0  0  0  0  0  0  0  0
    6.4725  -17.1123   21.5940 N   0  0  0  0  0  0  0  0  0  0  0  0
    6.9216  -15.7529   21.7373 C   0  0  0  0  0  0  0  0  0  0  0  0
    8.2836  -15.5481   21.1804 C   0  0  0  0  0  0  0  0  0  0  0  0
    9.1659  -16.3531   21.5220 O   0  0  0  0  0  0  0  0  0  0  0  0
    8.5245  -14.4752   20.3055 N   0  0  0  0  0  0  0  0  0  0  0  0
    7.3894  -13.7230   19.7052 C   0  0  0  0  0  0  0  0  0  0  0  0
    7.8946  -12.3237   19.4920 C   0  0  0  0  0  0  0  0  0  0  0  0
    9.3112  -12.3479   20.0229 C   0  0  0  0  0  0  0  0  0  0  0  0
    9.6611  -13.8318   19.7539 C   0  0  1  0  0  0  0  0  0  0  0  0
   10.9804  -14.1543   20.2368 C   0  0  0  0  0  0  0  0  0  0  0  0
   11.3739  -14.5611   21.4813 O   0  0  0  0  0  0  0  0  0  0  0  0
   11.9308  -14.0455   19.3785 O   0  0  0  0  0  0  0  0  0  0  0  0
  2  1  1  0
  3  5  1  0
  3  2  1  0
  4  3  2  0
  6  5  1  0
  7  6  1  0
  8  7  2  0
  9 13  1  0
  9  7  1  0
 10  9  1  0
 11 10  1  0
 11 12  1  0
 12 13  1  0
 14 15  1  0
 13 14  1  1
 16 14  2  0
M  END
$$$$
