GGP.pdb
     RDKit          3D

 16 16  0  0  1  0  0  0  0  0999 V2000
    5.1864  -20.2824   21.3422 N   0  0  0  0  0  0  0  0  0  0  0  0
    4.0972  -21.1828   21.1205 C   0  0  0  0  0  0  0  0  0  0  0  0
    2.7807  -20.4502   21.1008 C   0  0  0  0  0  0  0  0  0  0  0  0
    2.7059  -19.2379   21.4289 O   0  0  0  0  0  0  0  0  0  0  0  0
    1.5823  -21.1053   20.7111 N   0  0  0  0  0  0  0  0  0  0  0  0
    0.3158  -20.4245   20.7628 C   0  0  0  0  0  0  0  0  0  0  0  0
   -0.4112  -20.6832   22.0323 C   0  0  0  0  0  0  0  0  0  0  0  0
    0.0641  -21.5390   22.7969 O   0  0  0  0  0  0  0  0  0  0  0  0
   -1.5860  -19.9680   22.3205 N   0  0  0  0  0  0  0  0  0  0  0  0
   -1.8917  -18.7005   21.6033 C   0  0  0  0  0  0  0  0  0  0  0  0
   -3.3911  -18.6124   21.5514 C   0  0  0  0  0  0  0  0  0  0  0  0
   -3.8680  -19.8780   22.2295 C   0  0  0  0  0  0  0  0  0  0  0  0
   -2.6866  -20.1089   23.2030 C   0  0  1  0  0  0  0  0  0  0  0  0
   -2.8590  -21.3258   23.9561 C   0  0  0  0  0  0  0  0  0  0  0  0
   -2.6457  -22.6209   23.5736 O   0  0  0  0  0  0  0  0  0  0  0  0
   -3.2740  -21.1806   25.1637 O   0  0  0  0  0  0  0  0  0  0  0  0
  2  1  1  0
  3  5  1  0
  3  2  1  0
  4  3  2  0
  6  5  1  0
  7  6  1  0
  8  7  2  0
  9 13  1  0
  9  7  1  0
 10  9  1  0
 11 10  1  0
 11 12  1  0
 12 13  1  0
 14 15  1  0
 13 14  1  6
 16 14  2  0
M  END
$$$$
