GGP.pdb
     RDKit          3D

 16 16  0  0  1  0  0  0  0  0999 V2000
    4.7579  -22.1169   22.8711 N   0  0  0  0  0  0  0  0  0  0  0  0
    5.4955  -21.2654   21.9895 C   0  0  0  0  0  0  0  0  0  0  0  0
    5.3397  -19.8171   22.3749 C   0  0  0  0  0  0  0  0  0  0  0  0
    4.7095  -19.4839   23.4116 O   0  0  0  0  0  0  0  0  0  0  0  0
    5.8997  -18.7820   21.5798 N   0  0  0  0  0  0  0  0  0  0  0  0
    6.0554  -17.4500   22.1010 C   0  0  0  0  0  0  0  0  0  0  0  0
    7.4749  -17.1210   22.3910 C   0  0  0  0  0  0  0  0  0  0  0  0
    8.2151  -18.0538   22.7445 O   0  0  0  0  0  0  0  0  0  0  0  0
    7.9239  -15.7961   22.2592 N   0  0  0  0  0  0  0  0  0  0  0  0
    7.1770  -14.8282   21.4107 C   0  0  0  0  0  0  0  0  0  0  0  0
    7.4076  -13.4789   22.0312 C   0  0  0  0  0  0  0  0  0  0  0  0
    8.2668  -13.7622   23.2439 C   0  0  0  0  0  0  0  0  0  0  0  0
    9.0103  -15.0243   22.7430 C   0  0  1  0  0  0  0  0  0  0  0  0
    9.8801  -15.5580   23.7610 C   0  0  0  0  0  0  0  0  0  0  0  0
    9.5650  -16.0915   24.9798 O   0  0  0  0  0  0  0  0  0  0  0  0
   11.1365  -15.5314   23.4916 O   0  0  0  0  0  0  0  0  0  0  0  0
  2  1  1  0
  3  5  1  0
  3  2  1  0
  4  3  2  0
  6  5  1  0
  7  6  1  0
  8  7  2  0
  9 13  1  0
  9  7  1  0
 10  9  1  0
 11 10  1  0
 11 12  1  0
 12 13  1  0
 14 15  1  0
 13 14  1  1
 16 14  2  0
M  END
$$$$
