GGP.pdb
     RDKit          3D

 16 16  0  0  1  0  0  0  0  0999 V2000
    8.5621  -17.6422   20.9038 N   0  0  0  0  0  0  0  0  0  0  0  0
    7.9264  -16.4483   20.4380 C   0  0  0  0  0  0  0  0  0  0  0  0
    7.2339  -15.7255   21.5642 C   0  0  0  0  0  0  0  0  0  0  0  0
    6.4802  -16.3378   22.3641 O   0  0  0  0  0  0  0  0  0  0  0  0
    7.4103  -14.3296   21.7583 N   0  0  0  0  0  0  0  0  0  0  0  0
    6.8374  -13.6623   22.8970 C   0  0  0  0  0  0  0  0  0  0  0  0
    7.7130  -13.7396   24.0946 C   0  0  0  0  0  0  0  0  0  0  0  0
    8.6470  -14.5581   24.0657 O   0  0  0  0  0  0  0  0  0  0  0  0
    7.4624  -12.9039   25.1961 N   0  0  0  0  0  0  0  0  0  0  0  0
    6.7420  -11.6143   25.0150 C   0  0  0  0  0  0  0  0  0  0  0  0
    6.0128  -11.3695   26.3061 C   0  0  0  0  0  0  0  0  0  0  0  0
    6.3399  -12.5751   27.1597 C   0  0  0  0  0  0  0  0  0  0  0  0
    7.7351  -12.9245   26.5872 C   0  0  1  0  0  0  0  0  0  0  0  0
    8.2705  -14.1133   27.2019 C   0  0  0  0  0  0  0  0  0  0  0  0
    9.3296  -14.2473   28.0560 O   0  0  0  0  0  0  0  0  0  0  0  0
    7.6708  -15.2115   26.9087 O   0  0  0  0  0  0  0  0  0  0  0  0
  2  1  1  0
  3  5  1  0
  3  2  1  0
  4  3  2  0
  6  5  1  0
  7  6  1  0
  8  7  2  0
  9 13  1  0
  9  7  1  0
 10  9  1  0
 11 10  1  0
 11 12  1  0
 12 13  1  0
 14 15  1  0
 13 14  1  1
 16 14  2  0
M  END
$$$$
