GGP.pdb
     RDKit          3D

 16 16  0  0  1  0  0  0  0  0999 V2000
    8.4430  -12.9825   18.6087 N   0  0  0  0  0  0  0  0  0  0  0  0
    8.3008  -14.0024   19.6016 C   0  0  0  0  0  0  0  0  0  0  0  0
    7.7256  -13.4436   20.8772 C   0  0  0  0  0  0  0  0  0  0  0  0
    7.9141  -12.2437   21.2050 O   0  0  0  0  0  0  0  0  0  0  0  0
    6.9523  -14.2543   21.7502 N   0  0  0  0  0  0  0  0  0  0  0  0
    6.4135  -13.7207   22.9730 C   0  0  0  0  0  0  0  0  0  0  0  0
    7.3547  -13.8648   24.1133 C   0  0  0  0  0  0  0  0  0  0  0  0
    8.2601  -14.7079   24.0018 O   0  0  0  0  0  0  0  0  0  0  0  0
    7.1942  -13.0614   25.2550 N   0  0  0  0  0  0  0  0  0  0  0  0
    6.4298  -11.7870   25.1781 C   0  0  0  0  0  0  0  0  0  0  0  0
    5.8255  -11.5908   26.5402 C   0  0  0  0  0  0  0  0  0  0  0  0
    6.2630  -12.8070   27.3267 C   0  0  0  0  0  0  0  0  0  0  0  0
    7.6029  -13.1072   26.6118 C   0  0  1  0  0  0  0  0  0  0  0  0
    8.2236  -14.2957   27.1407 C   0  0  0  0  0  0  0  0  0  0  0  0
    7.6990  -15.5468   27.3108 O   0  0  0  0  0  0  0  0  0  0  0  0
    9.4484  -14.1690   27.5088 O   0  0  0  0  0  0  0  0  0  0  0  0
  2  1  1  0
  3  5  1  0
  3  2  1  0
  4  3  2  0
  6  5  1  0
  7  6  1  0
  8  7  2  0
  9 13  1  0
  9  7  1  0
 10  9  1  0
 11 10  1  0
 11 12  1  0
 12 13  1  0
 14 15  1  0
 13 14  1  1
 16 14  2  0
M  END
$$$$
