WVK.pdb
     RDKit          3D

 31 32  0  0  1  0  0  0  0  0999 V2000
   23.9791  -21.2701   -8.7622 N   0  0  0  0  0  0  0  0  0  0  0  0
   23.3784  -21.7330   -7.5272 C   0  0  1  0  0  0  0  0  0  0  0  0
   23.6922  -20.7328   -6.4581 C   0  0  0  0  0  0  0  0  0  0  0  0
   25.0967  -20.2939   -6.6696 C   0  0  0  0  0  0  0  0  0  0  0  0
   25.5897  -19.4765   -7.6565 C   0  0  0  0  0  0  0  0  0  0  0  0
   26.9124  -19.3090   -7.5215 N   0  0  0  0  0  0  0  0  0  0  0  0
   27.3118  -20.0096   -6.4487 C   0  0  0  0  0  0  0  0  0  0  0  0
   28.5209  -20.2225   -5.8219 C   0  0  0  0  0  0  0  0  0  0  0  0
   28.6664  -21.0043   -4.7065 C   0  0  0  0  0  0  0  0  0  0  0  0
   27.5482  -21.6103   -4.1826 C   0  0  0  0  0  0  0  0  0  0  0  0
   26.3029  -21.4393   -4.7623 C   0  0  0  0  0  0  0  0  0  0  0  0
   26.2009  -20.6440   -5.8837 C   0  0  0  0  0  0  0  0  0  0  0  0
   21.9268  -21.9969   -7.6832 C   0  0  0  0  0  0  0  0  0  0  0  0
   21.1183  -21.1398   -8.1088 O   0  0  0  0  0  0  0  0  0  0  0  0
   18.2178  -24.9518   -8.5964 C   0  0  0  0  0  0  0  0  0  0  0  0
   19.6789  -24.5687   -8.5424 C   0  0  1  0  0  0  0  0  0  0  0  0
   20.1152  -24.0899   -9.8986 C   0  0  0  0  0  0  0  0  0  0  0  0
   19.9819  -23.5954   -7.4490 C   0  0  2  0  0  0  0  0  0  0  0  0
   21.3896  -23.2625   -7.3466 N   0  0  0  0  0  0  0  0  0  0  0  0
   19.4579  -24.1530   -6.1727 C   0  0  0  0  0  0  0  0  0  0  0  0
   20.1693  -24.7988   -5.3702 O   0  0  0  0  0  0  0  0  0  0  0  0
   18.1003  -23.9335   -5.8731 N   0  0  0  0  0  0  0  0  0  0  0  0
   17.5190  -24.4599   -4.5631 C   0  0  1  0  0  0  0  0  0  0  0  0
   16.5955  -23.3762   -4.1421 C   0  0  0  0  0  0  0  0  0  0  0  0
   15.9057  -23.3498   -2.8624 C   0  0  0  0  0  0  0  0  0  0  0  0
   15.1316  -22.1554   -2.4991 C   0  0  0  0  0  0  0  0  0  0  0  0
   14.4730  -22.4842   -1.1250 C   0  0  0  0  0  0  0  0  0  0  0  0
   13.7433  -21.3108   -0.7277 N   0  0  0  0  0  0  0  0  0  0  0  0
   16.9002  -25.7462   -4.9291 C   0  0  0  0  0  0  0  0  0  0  0  0
   16.4681  -25.8904   -6.1452 O   0  0  0  0  0  0  0  0  0  0  0  0
   16.7293  -26.8388   -4.1172 O   0  0  0  0  0  0  0  0  0  0  0  0
  2  1  1  6
  2  3  1  0
  3  4  1  0
  4  5  2  0
  5  6  1  0
  7  6  1  0
  8  7  2  0
  9  8  1  0
 10 11  1  0
 10  9  2  0
 11 12  2  0
 12  4  1  0
 12  7  1  0
 13  2  1  0
 13 19  1  0
 14 13  2  0
 16 15  1  6
 17 16  1  0
 18 19  1  1
 18 16  1  0
 20 18  1  0
 21 20  2  0
 22 20  1  0
 23 29  1  0
 23 22  1  0
 23 24  1  6
 25 24  1  0
 25 26  1  0
 26 27  1  0
 27 28  1  0
 29 31  1  0
 30 29  2  0
M  END
$$$$
