WVK.pdb
     RDKit          3D

 31 32  0  0  1  0  0  0  0  0999 V2000
   17.5351  -11.5574  -15.2040 N   0  0  0  0  0  0  0  0  0  0  0  0
   17.0884  -10.1930  -15.0052 C   0  0  1  0  0  0  0  0  0  0  0  0
   15.5912  -10.1907  -15.0210 C   0  0  0  0  0  0  0  0  0  0  0  0
   15.1695  -10.3124  -16.4413 C   0  0  0  0  0  0  0  0  0  0  0  0
   15.0464  -11.4542  -17.1939 C   0  0  0  0  0  0  0  0  0  0  0  0
   14.6424  -11.1646  -18.4385 N   0  0  0  0  0  0  0  0  0  0  0  0
   14.4931   -9.8338  -18.5270 C   0  0  0  0  0  0  0  0  0  0  0  0
   14.1101   -8.9628  -19.5244 C   0  0  0  0  0  0  0  0  0  0  0  0
   14.0359   -7.6055  -19.3550 C   0  0  0  0  0  0  0  0  0  0  0  0
   14.3605   -7.0816  -18.1252 C   0  0  0  0  0  0  0  0  0  0  0  0
   14.7533   -7.8991  -17.0795 C   0  0  0  0  0  0  0  0  0  0  0  0
   14.8143   -9.2597  -17.2929 C   0  0  0  0  0  0  0  0  0  0  0  0
   17.6683   -9.5947  -13.7776 C   0  0  0  0  0  0  0  0  0  0  0  0
   17.7177  -10.1982  -12.6808 O   0  0  0  0  0  0  0  0  0  0  0  0
   20.6626   -6.2834  -11.7026 C   0  0  0  0  0  0  0  0  0  0  0  0
   20.1138   -7.0237  -12.9006 C   0  0  1  0  0  0  0  0  0  0  0  0
   21.1268   -8.0317  -13.3659 C   0  0  0  0  0  0  0  0  0  0  0  0
   18.7660   -7.6182  -12.6459 C   0  0  2  0  0  0  0  0  0  0  0  0
   18.2007   -8.2835  -13.8037 N   0  0  0  0  0  0  0  0  0  0  0  0
   17.8710   -6.5410  -12.1431 C   0  0  0  0  0  0  0  0  0  0  0  0
   17.5110   -5.5716  -12.8489 O   0  0  0  0  0  0  0  0  0  0  0  0
   17.4200   -6.6346  -10.8131 N   0  0  0  0  0  0  0  0  0  0  0  0
   16.4745   -5.5724  -10.2573 C   0  0  1  0  0  0  0  0  0  0  0  0
   15.3643   -6.3737   -9.6830 C   0  0  0  0  0  0  0  0  0  0  0  0
   14.2579   -5.8044   -8.9307 C   0  0  0  0  0  0  0  0  0  0  0  0
   13.2837   -6.7106   -8.3081 C   0  0  0  0  0  0  0  0  0  0  0  0
   12.1936   -5.7887   -7.6821 C   0  0  0  0  0  0  0  0  0  0  0  0
   11.2272   -6.6559   -7.0647 N   0  0  0  0  0  0  0  0  0  0  0  0
   17.3001   -4.8127   -9.3019 C   0  0  0  0  0  0  0  0  0  0  0  0
   16.8982   -3.6267   -8.9577 O   0  0  0  0  0  0  0  0  0  0  0  0
   18.4689   -5.2249   -8.7135 O   0  0  0  0  0  0  0  0  0  0  0  0
  2  1  1  1
  2  3  1  0
  3  4  1  0
  4  5  2  0
  5  6  1  0
  7  6  1  0
  8  7  2  0
  9  8  1  0
 10 11  1  0
 10  9  2  0
 11 12  2  0
 12  4  1  0
 12  7  1  0
 13  2  1  0
 13 19  1  0
 14 13  2  0
 16 15  1  1
 17 16  1  0
 18 19  1  6
 18 16  1  0
 20 18  1  0
 21 20  2  0
 22 20  1  0
 23 29  1  0
 23 22  1  0
 23 24  1  1
 25 24  1  0
 25 26  1  0
 26 27  1  0
 27 28  1  0
 29 31  1  0
 30 29  2  0
M  END
$$$$
