WVK.pdb
     RDKit          3D

 31 32  0  0  1  0  0  0  0  0999 V2000
   28.1507  -21.3390   -9.7913 N   0  0  0  0  0  0  0  0  0  0  0  0
   26.8700  -20.6688   -9.6868 C   0  0  1  0  0  0  0  0  0  0  0  0
   27.0735  -19.4023   -8.9144 C   0  0  0  0  0  0  0  0  0  0  0  0
   28.0349  -19.7069   -7.8222 C   0  0  0  0  0  0  0  0  0  0  0  0
   29.3977  -19.5389   -7.8215 C   0  0  0  0  0  0  0  0  0  0  0  0
   29.9263  -19.9289   -6.6534 N   0  0  0  0  0  0  0  0  0  0  0  0
   28.9260  -20.3583   -5.8682 C   0  0  0  0  0  0  0  0  0  0  0  0
   28.8437  -20.8664   -4.5895 C   0  0  0  0  0  0  0  0  0  0  0  0
   27.6654  -21.2410   -3.9997 C   0  0  0  0  0  0  0  0  0  0  0  0
   26.5015  -21.1040   -4.7199 C   0  0  0  0  0  0  0  0  0  0  0  0
   26.5121  -20.6008   -6.0094 C   0  0  0  0  0  0  0  0  0  0  0  0
   27.7197  -20.2356   -6.5650 C   0  0  0  0  0  0  0  0  0  0  0  0
   26.2464  -20.4574  -11.0163 C   0  0  0  0  0  0  0  0  0  0  0  0
   26.6484  -19.5940  -11.8303 O   0  0  0  0  0  0  0  0  0  0  0  0
   25.4144  -23.2031  -13.7378 C   0  0  0  0  0  0  0  0  0  0  0  0
   24.1746  -22.4290  -13.3528 C   0  0  1  0  0  0  0  0  0  0  0  0
   23.2872  -23.3029  -12.5115 C   0  0  0  0  0  0  0  0  0  0  0  0
   24.4884  -21.1164  -12.7098 C   0  0  2  0  0  0  0  0  0  0  0  0
   25.1437  -21.2463  -11.4228 N   0  0  0  0  0  0  0  0  0  0  0  0
   23.2249  -20.3375  -12.6038 C   0  0  0  0  0  0  0  0  0  0  0  0
   22.5248  -20.3157  -11.5662 O   0  0  0  0  0  0  0  0  0  0  0  0
   22.8165  -19.5995  -13.7305 N   0  0  0  0  0  0  0  0  0  0  0  0
   21.5515  -18.7474  -13.6601 C   0  0  1  0  0  0  0  0  0  0  0  0
   21.6730  -17.8612  -14.8451 C   0  0  0  0  0  0  0  0  0  0  0  0
   20.8119  -16.7162  -15.0934 C   0  0  0  0  0  0  0  0  0  0  0  0
   21.0417  -15.9043  -16.2958 C   0  0  0  0  0  0  0  0  0  0  0  0
   20.0298  -14.7221  -16.2034 C   0  0  0  0  0  0  0  0  0  0  0  0
   20.2287  -13.9181  -17.3787 N   0  0  0  0  0  0  0  0  0  0  0  0
   20.4503  -19.7265  -13.6811 C   0  0  0  0  0  0  0  0  0  0  0  0
   20.6157  -20.8149  -14.3699 O   0  0  0  0  0  0  0  0  0  0  0  0
   19.2437  -19.6232  -13.0364 O   0  0  0  0  0  0  0  0  0  0  0  0
  2  1  1  6
  2  3  1  0
  3  4  1  0
  4  5  2  0
  5  6  1  0
  7  6  1  0
  8  7  2  0
  9  8  1  0
 10 11  1  0
 10  9  2  0
 11 12  2  0
 12  4  1  0
 12  7  1  0
 13  2  1  0
 13 19  1  0
 14 13  2  0
 16 15  1  1
 17 16  1  0
 18 19  1  1
 18 16  1  0
 20 18  1  0
 21 20  2  0
 22 20  1  0
 23 29  1  0
 23 22  1  0
 23 24  1  6
 25 24  1  0
 25 26  1  0
 26 27  1  0
 27 28  1  0
 29 31  1  0
 30 29  2  0
M  END
$$$$
