WVK.pdb
     RDKit          3D

 31 32  0  0  1  0  0  0  0  0999 V2000
   28.3525  -22.0064  -11.2436 N   0  0  0  0  0  0  0  0  0  0  0  0
   27.1306  -21.2854  -10.9478 C   0  0  1  0  0  0  0  0  0  0  0  0
   27.5027  -20.0110  -10.2556 C   0  0  0  0  0  0  0  0  0  0  0  0
   28.3575  -20.3776   -9.0960 C   0  0  0  0  0  0  0  0  0  0  0  0
   29.6065  -20.9480   -9.1105 C   0  0  0  0  0  0  0  0  0  0  0  0
   30.0615  -21.1331   -7.8637 N   0  0  0  0  0  0  0  0  0  0  0  0
   29.1252  -20.6899   -7.0104 C   0  0  0  0  0  0  0  0  0  0  0  0
   29.0178  -20.6154   -5.6381 C   0  0  0  0  0  0  0  0  0  0  0  0
   27.9235  -20.1034   -4.9925 C   0  0  0  0  0  0  0  0  0  0  0  0
   26.8749  -19.6385   -5.7518 C   0  0  0  0  0  0  0  0  0  0  0  0
   26.9167  -19.6834   -7.1347 C   0  0  0  0  0  0  0  0  0  0  0  0
   28.0372  -20.2066   -7.7441 C   0  0  0  0  0  0  0  0  0  0  0  0
   26.3024  -21.0797  -12.1615 C   0  0  0  0  0  0  0  0  0  0  0  0
   26.7685  -20.6502  -13.2422 O   0  0  0  0  0  0  0  0  0  0  0  0
   24.9424  -23.3018  -14.4841 C   0  0  0  0  0  0  0  0  0  0  0  0
   23.7300  -22.6097  -13.9048 C   0  0  1  0  0  0  0  0  0  0  0  0
   23.0394  -23.5402  -12.9477 C   0  0  0  0  0  0  0  0  0  0  0  0
   24.0551  -21.2807  -13.3025 C   0  0  2  0  0  0  0  0  0  0  0  0
   24.9171  -21.3695  -12.1398 N   0  0  0  0  0  0  0  0  0  0  0  0
   22.7761  -20.5902  -12.9833 C   0  0  0  0  0  0  0  0  0  0  0  0
   22.2585  -20.6109  -11.8436 O   0  0  0  0  0  0  0  0  0  0  0  0
   22.1362  -19.8885  -14.0221 N   0  0  0  0  0  0  0  0  0  0  0  0
   20.8841  -19.0677  -13.7225 C   0  0  1  0  0  0  0  0  0  0  0  0
   20.7326  -18.2251  -14.9356 C   0  0  0  0  0  0  0  0  0  0  0  0
   21.4220  -16.9607  -15.1362 C   0  0  0  0  0  0  0  0  0  0  0  0
   22.3585  -16.8349  -16.2610 C   0  0  0  0  0  0  0  0  0  0  0  0
   23.0211  -15.4330  -16.1004 C   0  0  0  0  0  0  0  0  0  0  0  0
   23.9394  -15.2845  -17.1966 N   0  0  0  0  0  0  0  0  0  0  0  0
   19.8350  -20.0752  -13.4863 C   0  0  0  0  0  0  0  0  0  0  0  0
   19.9373  -21.2164  -14.0975 O   0  0  0  0  0  0  0  0  0  0  0  0
   18.7394  -19.9480  -12.6704 O   0  0  0  0  0  0  0  0  0  0  0  0
  2  1  1  6
  2  3  1  0
  3  4  1  0
  4  5  2  0
  5  6  1  0
  7  6  1  0
  8  7  2  0
  9  8  1  0
 10 11  1  0
 10  9  2  0
 11 12  2  0
 12  4  1  0
 12  7  1  0
 13  2  1  0
 13 19  1  0
 14 13  2  0
 16 15  1  1
 17 16  1  0
 18 19  1  1
 18 16  1  0
 20 18  1  0
 21 20  2  0
 22 20  1  0
 23 29  1  0
 23 22  1  0
 23 24  1  6
 25 24  1  0
 25 26  1  0
 26 27  1  0
 27 28  1  0
 29 31  1  0
 30 29  2  0
M  END
$$$$
