WVK.pdb
     RDKit          3D

 31 32  0  0  1  0  0  0  0  0999 V2000
   27.8251  -20.2415  -16.6336 N   0  0  0  0  0  0  0  0  0  0  0  0
   26.8315  -19.5184  -15.8653 C   0  0  1  0  0  0  0  0  0  0  0  0
   25.9217  -18.8205  -16.8282 C   0  0  0  0  0  0  0  0  0  0  0  0
   26.6844  -17.6803  -17.4012 C   0  0  0  0  0  0  0  0  0  0  0  0
   27.0387  -17.4706  -18.7111 C   0  0  0  0  0  0  0  0  0  0  0  0
   27.7270  -16.3283  -18.8426 N   0  0  0  0  0  0  0  0  0  0  0  0
   27.8374  -15.7683  -17.6280 C   0  0  0  0  0  0  0  0  0  0  0  0
   28.4187  -14.6191  -17.1366 C   0  0  0  0  0  0  0  0  0  0  0  0
   28.3902  -14.2637  -15.8140 C   0  0  0  0  0  0  0  0  0  0  0  0
   27.7481  -15.0965  -14.9272 C   0  0  0  0  0  0  0  0  0  0  0  0
   27.1433  -16.2666  -15.3529 C   0  0  0  0  0  0  0  0  0  0  0  0
   27.1953  -16.5863  -16.6929 C   0  0  0  0  0  0  0  0  0  0  0  0
   26.1179  -20.4035  -14.9122 C   0  0  0  0  0  0  0  0  0  0  0  0
   25.6585  -21.5240  -15.2329 O   0  0  0  0  0  0  0  0  0  0  0  0
   24.7640  -21.3117  -10.1910 C   0  0  0  0  0  0  0  0  0  0  0  0
   25.6053  -20.5516  -11.1905 C   0  0  1  0  0  0  0  0  0  0  0  0
   27.0540  -20.8890  -10.9758 C   0  0  0  0  0  0  0  0  0  0  0  0
   25.1556  -20.7582  -12.6011 C   0  0  2  0  0  0  0  0  0  0  0  0
   25.9254  -20.0008  -13.5689 N   0  0  0  0  0  0  0  0  0  0  0  0
   23.7060  -20.4310  -12.6790 C   0  0  0  0  0  0  0  0  0  0  0  0
   23.2620  -19.2705  -12.5266 O   0  0  0  0  0  0  0  0  0  0  0  0
   22.8114  -21.4867  -12.9363 N   0  0  0  0  0  0  0  0  0  0  0  0
   21.3170  -21.1998  -13.0609 C   0  0  1  0  0  0  0  0  0  0  0  0
   20.8156  -22.3507  -13.8537 C   0  0  0  0  0  0  0  0  0  0  0  0
   19.4102  -22.5846  -14.1442 C   0  0  0  0  0  0  0  0  0  0  0  0
   19.0200  -23.8466  -14.7869 C   0  0  0  0  0  0  0  0  0  0  0  0
   17.4695  -23.7806  -14.9340 C   0  0  0  0  0  0  0  0  0  0  0  0
   17.0846  -24.9090  -15.7376 N   0  0  0  0  0  0  0  0  0  0  0  0
   20.8460  -21.1057  -11.6677 C   0  0  0  0  0  0  0  0  0  0  0  0
   21.4234  -21.8544  -10.7774 O   0  0  0  0  0  0  0  0  0  0  0  0
   19.8490  -20.2945  -11.1881 O   0  0  0  0  0  0  0  0  0  0  0  0
  2  1  1  6
  2  3  1  0
  3  4  1  0
  4  5  2  0
  5  6  1  0
  7  6  1  0
  8  7  2  0
  9  8  1  0
 10 11  1  0
 10  9  2  0
 11 12  2  0
 12  4  1  0
 12  7  1  0
 13  2  1  0
 13 19  1  0
 14 13  2  0
 16 15  1  1
 17 16  1  0
 18 19  1  6
 18 16  1  0
 20 18  1  0
 21 20  2  0
 22 20  1  0
 23 29  1  0
 23 22  1  0
 23 24  1  1
 25 24  1  0
 25 26  1  0
 26 27  1  0
 27 28  1  0
 29 31  1  0
 30 29  2  0
M  END
$$$$
