WVK.pdb
     RDKit          3D

 31 32  0  0  1  0  0  0  0  0999 V2000
   24.4565  -19.6688  -10.5022 N   0  0  0  0  0  0  0  0  0  0  0  0
   25.7143  -20.2703  -10.8980 C   0  0  1  0  0  0  0  0  0  0  0  0
   25.9529  -21.4602  -10.0211 C   0  0  0  0  0  0  0  0  0  0  0  0
   26.1720  -20.9494   -8.6423 C   0  0  0  0  0  0  0  0  0  0  0  0
   25.2338  -20.7058   -7.6697 C   0  0  0  0  0  0  0  0  0  0  0  0
   25.8129  -20.2463   -6.5520 N   0  0  0  0  0  0  0  0  0  0  0  0
   27.1359  -20.1796   -6.7676 C   0  0  0  0  0  0  0  0  0  0  0  0
   28.2252  -19.7950   -6.0154 C   0  0  0  0  0  0  0  0  0  0  0  0
   29.5129  -19.8217   -6.4817 C   0  0  0  0  0  0  0  0  0  0  0  0
   29.7332  -20.2547   -7.7686 C   0  0  0  0  0  0  0  0  0  0  0  0
   28.6848  -20.6553   -8.5789 C   0  0  0  0  0  0  0  0  0  0  0  0
   27.4043  -20.6128   -8.0699 C   0  0  0  0  0  0  0  0  0  0  0  0
   25.7436  -20.5876  -12.3470 C   0  0  0  0  0  0  0  0  0  0  0  0
   24.7268  -20.9343  -12.9915 O   0  0  0  0  0  0  0  0  0  0  0  0
   28.3966  -20.1698  -16.5783 C   0  0  0  0  0  0  0  0  0  0  0  0
   28.3224  -20.0638  -15.0724 C   0  0  1  0  0  0  0  0  0  0  0  0
   28.6000  -18.6448  -14.6621 C   0  0  0  0  0  0  0  0  0  0  0  0
   27.0408  -20.5970  -14.5173 C   0  0  2  0  0  0  0  0  0  0  0  0
   26.9565  -20.5076  -13.0724 N   0  0  0  0  0  0  0  0  0  0  0  0
   26.8784  -21.9990  -14.9887 C   0  0  0  0  0  0  0  0  0  0  0  0
   27.7329  -22.8898  -14.7796 O   0  0  0  0  0  0  0  0  0  0  0  0
   25.7055  -22.3174  -15.6986 N   0  0  0  0  0  0  0  0  0  0  0  0
   25.4267  -23.7667  -16.0898 C   0  0  1  0  0  0  0  0  0  0  0  0
   24.1840  -24.0865  -15.3427 C   0  0  0  0  0  0  0  0  0  0  0  0
   23.6961  -25.4381  -15.1210 C   0  0  0  0  0  0  0  0  0  0  0  0
   22.4333  -25.6253  -14.3941 C   0  0  0  0  0  0  0  0  0  0  0  0
   22.2442  -27.1679  -14.2722 C   0  0  0  0  0  0  0  0  0  0  0  0
   21.0631  -27.3756  -13.4791 N   0  0  0  0  0  0  0  0  0  0  0  0
   25.3208  -23.7342  -17.5592 C   0  0  0  0  0  0  0  0  0  0  0  0
   25.1503  -22.5815  -18.1326 O   0  0  0  0  0  0  0  0  0  0  0  0
   25.3903  -24.8050  -18.4140 O   0  0  0  0  0  0  0  0  0  0  0  0
  2  1  1  1
  2  3  1  0
  3  4  1  0
  4  5  2  0
  5  6  1  0
  7  6  1  0
  8  7  2  0
  9  8  1  0
 10 11  1  0
 10  9  2  0
 11 12  2  0
 12  4  1  0
 12  7  1  0
 13  2  1  0
 13 19  1  0
 14 13  2  0
 16 15  1  6
 17 16  1  0
 18 19  1  1
 18 16  1  0
 20 18  1  0
 21 20  2  0
 22 20  1  0
 23 29  1  0
 23 22  1  0
 23 24  1  1
 25 24  1  0
 25 26  1  0
 26 27  1  0
 27 28  1  0
 29 31  1  0
 30 29  2  0
M  END
$$$$
