WVK.pdb
     RDKit          3D

 31 32  0  0  1  0  0  0  0  0999 V2000
   24.5004  -19.8951  -16.5703 N   0  0  0  0  0  0  0  0  0  0  0  0
   23.3726  -19.3924  -15.8114 C   0  0  1  0  0  0  0  0  0  0  0  0
   22.2591  -19.1101  -16.7717 C   0  0  0  0  0  0  0  0  0  0  0  0
   22.6324  -17.8838  -17.5246 C   0  0  0  0  0  0  0  0  0  0  0  0
   23.5388  -17.7611  -18.5487 C   0  0  0  0  0  0  0  0  0  0  0  0
   23.6070  -16.4930  -18.9767 N   0  0  0  0  0  0  0  0  0  0  0  0
   22.7510  -15.7620  -18.2459 C   0  0  0  0  0  0  0  0  0  0  0  0
   22.3856  -14.4331  -18.2181 C   0  0  0  0  0  0  0  0  0  0  0  0
   21.4582  -13.9225  -17.3488 C   0  0  0  0  0  0  0  0  0  0  0  0
   20.8586  -14.7793  -16.4552 C   0  0  0  0  0  0  0  0  0  0  0  0
   21.1790  -16.1257  -16.4287 C   0  0  0  0  0  0  0  0  0  0  0  0
   22.1175  -16.5981  -17.3211 C   0  0  0  0  0  0  0  0  0  0  0  0
   22.9888  -20.3150  -14.7147 C   0  0  0  0  0  0  0  0  0  0  0  0
   22.8986  -21.5555  -14.8653 O   0  0  0  0  0  0  0  0  0  0  0  0
   22.3264  -20.9469   -9.8114 C   0  0  0  0  0  0  0  0  0  0  0  0
   22.7669  -20.0929  -10.9781 C   0  0  1  0  0  0  0  0  0  0  0  0
   24.2508  -19.8695  -10.8952 C   0  0  0  0  0  0  0  0  0  0  0  0
   22.3273  -20.6434  -12.2966 C   0  0  2  0  0  0  0  0  0  0  0  0
   22.7025  -19.8112  -13.4233 N   0  0  0  0  0  0  0  0  0  0  0  0
   20.8560  -20.8592  -12.2423 C   0  0  0  0  0  0  0  0  0  0  0  0
   20.0282  -19.9235  -12.3239 O   0  0  0  0  0  0  0  0  0  0  0  0
   20.3950  -22.1806  -12.0926 N   0  0  0  0  0  0  0  0  0  0  0  0
   18.8956  -22.4673  -12.1179 C   0  0  1  0  0  0  0  0  0  0  0  0
   18.8348  -23.9410  -12.2881 C   0  0  0  0  0  0  0  0  0  0  0  0
   17.5959  -24.6988  -12.3597 C   0  0  0  0  0  0  0  0  0  0  0  0
   17.6567  -26.1249  -12.7066 C   0  0  0  0  0  0  0  0  0  0  0  0
   16.1816  -26.6280  -12.6731 C   0  0  0  0  0  0  0  0  0  0  0  0
   16.1976  -27.9806  -13.1605 N   0  0  0  0  0  0  0  0  0  0  0  0
   18.4000  -21.9321  -10.8374 C   0  0  0  0  0  0  0  0  0  0  0  0
   19.1915  -21.9817   -9.8091 O   0  0  0  0  0  0  0  0  0  0  0  0
   17.1724  -21.3671  -10.6006 O   0  0  0  0  0  0  0  0  0  0  0  0
  2  1  1  6
  2  3  1  0
  3  4  1  0
  4  5  2  0
  5  6  1  0
  7  6  1  0
  8  7  2  0
  9  8  1  0
 10 11  1  0
 10  9  2  0
 11 12  2  0
 12  4  1  0
 12  7  1  0
 13  2  1  0
 13 19  1  0
 14 13  2  0
 16 15  1  1
 17 16  1  0
 18 19  1  6
 18 16  1  0
 20 18  1  0
 21 20  2  0
 22 20  1  0
 23 29  1  0
 23 22  1  0
 23 24  1  1
 25 24  1  0
 25 26  1  0
 26 27  1  0
 27 28  1  0
 29 31  1  0
 30 29  2  0
M  END
$$$$
