WVK.pdb
     RDKit          3D

 31 32  0  0  1  0  0  0  0  0999 V2000
   26.3696  -21.9663  -11.9967 N   0  0  0  0  0  0  0  0  0  0  0  0
   25.7307  -21.1917  -10.9515 C   0  0  1  0  0  0  0  0  0  0  0  0
   26.5956  -20.0042  -10.6629 C   0  0  0  0  0  0  0  0  0  0  0  0
   27.8275  -20.5114  -10.0032 C   0  0  0  0  0  0  0  0  0  0  0  0
   28.8385  -21.2584  -10.5556 C   0  0  0  0  0  0  0  0  0  0  0  0
   29.7845  -21.5288   -9.6457 N   0  0  0  0  0  0  0  0  0  0  0  0
   29.4151  -20.9674   -8.4840 C   0  0  0  0  0  0  0  0  0  0  0  0
   29.9607  -20.9006   -7.2199 C   0  0  0  0  0  0  0  0  0  0  0  0
   29.3669  -20.2444   -6.1743 C   0  0  0  0  0  0  0  0  0  0  0  0
   28.1622  -19.6183   -6.3951 C   0  0  0  0  0  0  0  0  0  0  0  0
   27.5582  -19.6460   -7.6403 C   0  0  0  0  0  0  0  0  0  0  0  0
   28.1901  -20.3176   -8.6651 C   0  0  0  0  0  0  0  0  0  0  0  0
   24.3340  -20.8353  -11.3028 C   0  0  0  0  0  0  0  0  0  0  0  0
   23.7084  -19.8996  -10.7526 O   0  0  0  0  0  0  0  0  0  0  0  0
   20.9862  -20.3408  -14.7388 C   0  0  0  0  0  0  0  0  0  0  0  0
   22.3504  -20.7540  -14.2361 C   0  0  1  0  0  0  0  0  0  0  0  0
   23.3325  -19.6486  -14.5054 C   0  0  0  0  0  0  0  0  0  0  0  0
   22.3325  -21.1902  -12.8064 C   0  0  2  0  0  0  0  0  0  0  0  0
   23.6397  -21.5613  -12.3000 N   0  0  0  0  0  0  0  0  0  0  0  0
   21.3577  -22.3067  -12.6738 C   0  0  0  0  0  0  0  0  0  0  0  0
   21.4130  -23.3439  -13.3726 O   0  0  0  0  0  0  0  0  0  0  0  0
   20.3366  -22.1713  -11.7147 N   0  0  0  0  0  0  0  0  0  0  0  0
   19.3828  -23.3349  -11.4544 C   0  0  1  0  0  0  0  0  0  0  0  0
   18.9970  -23.1457  -10.0331 C   0  0  0  0  0  0  0  0  0  0  0  0
   18.1813  -24.0863   -9.2820 C   0  0  0  0  0  0  0  0  0  0  0  0
   17.8011  -23.7509   -7.9033 C   0  0  0  0  0  0  0  0  0  0  0  0
   18.2410  -24.9709   -7.0383 C   0  0  0  0  0  0  0  0  0  0  0  0
   17.9392  -24.6367   -5.6729 N   0  0  0  0  0  0  0  0  0  0  0  0
   18.3145  -23.1619  -12.4546 C   0  0  0  0  0  0  0  0  0  0  0  0
   17.9047  -21.9556  -12.7061 O   0  0  0  0  0  0  0  0  0  0  0  0
   17.6919  -24.1502  -13.1741 O   0  0  0  0  0  0  0  0  0  0  0  0
  2  1  1  6
  2  3  1  0
  3  4  1  0
  4  5  2  0
  5  6  1  0
  7  6  1  0
  8  7  2  0
  9  8  1  0
 10 11  1  0
 10  9  2  0
 11 12  2  0
 12  4  1  0
 12  7  1  0
 13  2  1  0
 13 19  1  0
 14 13  2  0
 16 15  1  1
 17 16  1  0
 18 19  1  6
 18 16  1  0
 20 18  1  0
 21 20  2  0
 22 20  1  0
 23 29  1  0
 23 22  1  0
 23 24  1  1
 25 24  1  0
 25 26  1  0
 26 27  1  0
 27 28  1  0
 29 31  1  0
 30 29  2  0
M  END
$$$$
