WVK.pdb
     RDKit          3D

 31 32  0  0  1  0  0  0  0  0999 V2000
   23.2103  -20.8812  -16.1895 N   0  0  0  0  0  0  0  0  0  0  0  0
   23.7056  -19.9271  -15.2176 C   0  0  1  0  0  0  0  0  0  0  0  0
   22.5271  -19.2226  -14.6204 C   0  0  0  0  0  0  0  0  0  0  0  0
   21.8572  -18.4820  -15.7216 C   0  0  0  0  0  0  0  0  0  0  0  0
   20.5780  -18.6413  -16.1947 C   0  0  0  0  0  0  0  0  0  0  0  0
   20.3318  -17.7916  -17.2012 N   0  0  0  0  0  0  0  0  0  0  0  0
   21.4388  -17.0613  -17.4078 C   0  0  0  0  0  0  0  0  0  0  0  0
   21.7895  -16.0533  -18.2801 C   0  0  0  0  0  0  0  0  0  0  0  0
   23.0215  -15.4544  -18.2867 C   0  0  0  0  0  0  0  0  0  0  0  0
   23.9600  -15.8800  -17.3755 C   0  0  0  0  0  0  0  0  0  0  0  0
   23.6744  -16.8880  -16.4709 C   0  0  0  0  0  0  0  0  0  0  0  0
   22.4220  -17.4636  -16.4983 C   0  0  0  0  0  0  0  0  0  0  0  0
   24.5840  -20.5700  -14.2096 C   0  0  0  0  0  0  0  0  0  0  0  0
   24.3555  -21.7036  -13.7276 O   0  0  0  0  0  0  0  0  0  0  0  0
   28.8267  -20.4377  -11.5783 C   0  0  0  0  0  0  0  0  0  0  0  0
   27.9994  -19.9849  -12.7595 C   0  0  1  0  0  0  0  0  0  0  0  0
   28.6484  -20.4600  -14.0291 C   0  0  0  0  0  0  0  0  0  0  0  0
   26.5633  -20.3844  -12.6473 C   0  0  2  0  0  0  0  0  0  0  0  0
   25.7438  -19.9057  -13.7437 N   0  0  0  0  0  0  0  0  0  0  0  0
   26.0505  -19.9093  -11.3336 C   0  0  0  0  0  0  0  0  0  0  0  0
   25.8341  -18.7016  -11.0849 O   0  0  0  0  0  0  0  0  0  0  0  0
   25.8042  -20.8759  -10.3406 N   0  0  0  0  0  0  0  0  0  0  0  0
   25.2776  -20.4417   -8.9748 C   0  0  1  0  0  0  0  0  0  0  0  0
   24.5379  -21.6384   -8.5004 C   0  0  0  0  0  0  0  0  0  0  0  0
   23.8280  -21.7035   -7.2331 C   0  0  0  0  0  0  0  0  0  0  0  0
   22.4303  -22.1555   -7.2263 C   0  0  0  0  0  0  0  0  0  0  0  0
   21.9624  -22.0491   -5.7431 C   0  0  0  0  0  0  0  0  0  0  0  0
   20.5767  -22.4322   -5.7209 N   0  0  0  0  0  0  0  0  0  0  0  0
   26.4870  -20.0731   -8.2178 C   0  0  0  0  0  0  0  0  0  0  0  0
   26.3981  -19.0987   -7.3639 O   0  0  0  0  0  0  0  0  0  0  0  0
   27.7247  -20.6583   -8.3065 O   0  0  0  0  0  0  0  0  0  0  0  0
  2  1  1  6
  2  3  1  0
  3  4  1  0
  4  5  2  0
  5  6  1  0
  7  6  1  0
  8  7  2  0
  9  8  1  0
 10 11  1  0
 10  9  2  0
 11 12  2  0
 12  4  1  0
 12  7  1  0
 13  2  1  0
 13 19  1  0
 14 13  2  0
 16 15  1  1
 17 16  1  0
 18 19  1  6
 18 16  1  0
 20 18  1  0
 21 20  2  0
 22 20  1  0
 23 29  1  0
 23 22  1  0
 23 24  1  1
 25 24  1  0
 25 26  1  0
 26 27  1  0
 27 28  1  0
 29 31  1  0
 30 29  2  0
M  END
$$$$
