WVK.pdb
     RDKit          3D

 31 32  0  0  1  0  0  0  0  0999 V2000
   27.9849  -20.9485   -9.4779 N   0  0  0  0  0  0  0  0  0  0  0  0
   26.5674  -21.2391   -9.3967 C   0  0  1  0  0  0  0  0  0  0  0  0
   26.0589  -20.6971   -8.0969 C   0  0  0  0  0  0  0  0  0  0  0  0
   27.1604  -19.9004   -7.4953 C   0  0  0  0  0  0  0  0  0  0  0  0
   27.9692  -18.9749   -8.1075 C   0  0  0  0  0  0  0  0  0  0  0  0
   28.8527  -18.4641   -7.2391 N   0  0  0  0  0  0  0  0  0  0  0  0
   28.6425  -19.0410   -6.0457 C   0  0  0  0  0  0  0  0  0  0  0  0
   29.2173  -18.9303   -4.7977 C   0  0  0  0  0  0  0  0  0  0  0  0
   28.8057  -19.6532   -3.7094 C   0  0  0  0  0  0  0  0  0  0  0  0
   27.7639  -20.5372   -3.8679 C   0  0  0  0  0  0  0  0  0  0  0  0
   27.1413  -20.6982   -5.0937 C   0  0  0  0  0  0  0  0  0  0  0  0
   27.5869  -19.9508   -6.1630 C   0  0  0  0  0  0  0  0  0  0  0  0
   25.8300  -20.7302  -10.5792 C   0  0  0  0  0  0  0  0  0  0  0  0
   25.9592  -19.5626  -11.0147 O   0  0  0  0  0  0  0  0  0  0  0  0
   23.6239  -21.9094  -14.8340 C   0  0  0  0  0  0  0  0  0  0  0  0
   24.3528  -22.2794  -13.5626 C   0  0  1  0  0  0  0  0  0  0  0  0
   25.7586  -22.6900  -13.9000 C   0  0  0  0  0  0  0  0  0  0  0  0
   24.2861  -21.2061  -12.5241 C   0  0  2  0  0  0  0  0  0  0  0  0
   24.9287  -21.5701  -11.2761 N   0  0  0  0  0  0  0  0  0  0  0  0
   22.8568  -20.8469  -12.3187 C   0  0  0  0  0  0  0  0  0  0  0  0
   22.1138  -21.4495  -11.5111 O   0  0  0  0  0  0  0  0  0  0  0  0
   22.3366  -19.7799  -13.0748 N   0  0  0  0  0  0  0  0  0  0  0  0
   20.8872  -19.3442  -12.8728 C   0  0  1  0  0  0  0  0  0  0  0  0
   20.8188  -18.0485  -13.5946 C   0  0  0  0  0  0  0  0  0  0  0  0
   19.6174  -17.2348  -13.6885 C   0  0  0  0  0  0  0  0  0  0  0  0
   19.6575  -16.0014  -14.4854 C   0  0  0  0  0  0  0  0  0  0  0  0
   18.2076  -15.4300  -14.4471 C   0  0  0  0  0  0  0  0  0  0  0  0
   18.2243  -14.2152  -15.2160 N   0  0  0  0  0  0  0  0  0  0  0  0
   20.0919  -20.4515  -13.4323 C   0  0  0  0  0  0  0  0  0  0  0  0
   20.5659  -21.0817  -14.4641 O   0  0  0  0  0  0  0  0  0  0  0  0
   18.8826  -20.9104  -12.9748 O   0  0  0  0  0  0  0  0  0  0  0  0
  2  1  1  6
  2  3  1  0
  3  4  1  0
  4  5  2  0
  5  6  1  0
  7  6  1  0
  8  7  2  0
  9  8  1  0
 10 11  1  0
 10  9  2  0
 11 12  2  0
 12  4  1  0
 12  7  1  0
 13  2  1  0
 13 19  1  0
 14 13  2  0
 16 15  1  6
 17 16  1  0
 18 19  1  1
 18 16  1  0
 20 18  1  0
 21 20  2  0
 22 20  1  0
 23 29  1  0
 23 22  1  0
 23 24  1  6
 25 24  1  0
 25 26  1  0
 26 27  1  0
 27 28  1  0
 29 31  1  0
 30 29  2  0
M  END
$$$$
