WVK.pdb
     RDKit          3D

 31 32  0  0  1  0  0  0  0  0999 V2000
   27.9407  -21.0576   -9.4590 N   0  0  0  0  0  0  0  0  0  0  0  0
   26.4998  -21.2117   -9.4404 C   0  0  1  0  0  0  0  0  0  0  0  0
   25.9743  -20.4934   -8.2364 C   0  0  0  0  0  0  0  0  0  0  0  0
   27.1447  -19.9046   -7.5340 C   0  0  0  0  0  0  0  0  0  0  0  0
   28.1331  -19.1071   -8.0558 C   0  0  0  0  0  0  0  0  0  0  0  0
   29.0241  -18.7719   -7.1125 N   0  0  0  0  0  0  0  0  0  0  0  0
   28.6401  -19.3399   -5.9588 C   0  0  0  0  0  0  0  0  0  0  0  0
   29.1360  -19.3595   -4.6727 C   0  0  0  0  0  0  0  0  0  0  0  0
   28.5376  -20.0355   -3.6424 C   0  0  0  0  0  0  0  0  0  0  0  0
   27.3807  -20.7325   -3.9026 C   0  0  0  0  0  0  0  0  0  0  0  0
   26.8282  -20.7553   -5.1716 C   0  0  0  0  0  0  0  0  0  0  0  0
   27.4626  -20.0612   -6.1798 C   0  0  0  0  0  0  0  0  0  0  0  0
   25.8797  -20.7668  -10.7126 C   0  0  0  0  0  0  0  0  0  0  0  0
   26.0813  -19.6357  -11.2123 O   0  0  0  0  0  0  0  0  0  0  0  0
   23.9550  -22.0779  -15.0535 C   0  0  0  0  0  0  0  0  0  0  0  0
   24.5827  -22.4136  -13.7202 C   0  0  1  0  0  0  0  0  0  0  0  0
   26.0079  -22.8384  -13.9373 C   0  0  0  0  0  0  0  0  0  0  0  0
   24.4430  -21.3106  -12.7208 C   0  0  2  0  0  0  0  0  0  0  0  0
   25.0134  -21.6292  -11.4263 N   0  0  0  0  0  0  0  0  0  0  0  0
   23.0002  -20.9629  -12.6118 C   0  0  0  0  0  0  0  0  0  0  0  0
   22.1972  -21.6086  -11.9008 O   0  0  0  0  0  0  0  0  0  0  0  0
   22.5380  -19.8560  -13.3481 N   0  0  0  0  0  0  0  0  0  0  0  0
   21.0712  -19.4426  -13.2538 C   0  0  1  0  0  0  0  0  0  0  0  0
   21.0789  -18.0470  -13.7604 C   0  0  0  0  0  0  0  0  0  0  0  0
   19.9899  -17.1049  -13.5587 C   0  0  0  0  0  0  0  0  0  0  0  0
   18.6223  -17.5192  -13.8992 C   0  0  0  0  0  0  0  0  0  0  0  0
   17.7293  -16.2668  -13.6462 C   0  0  0  0  0  0  0  0  0  0  0  0
   16.3789  -16.6573  -13.9480 N   0  0  0  0  0  0  0  0  0  0  0  0
   20.3583  -20.4367  -14.0756 C   0  0  0  0  0  0  0  0  0  0  0  0
   20.9367  -20.8596  -15.1586 O   0  0  0  0  0  0  0  0  0  0  0  0
   19.1277  -20.9866  -13.8200 O   0  0  0  0  0  0  0  0  0  0  0  0
  2  1  1  6
  2  3  1  0
  3  4  1  0
  4  5  2  0
  5  6  1  0
  7  6  1  0
  8  7  2  0
  9  8  1  0
 10 11  1  0
 10  9  2  0
 11 12  2  0
 12  4  1  0
 12  7  1  0
 13  2  1  0
 13 19  1  0
 14 13  2  0
 16 15  1  6
 17 16  1  0
 18 19  1  1
 18 16  1  0
 20 18  1  0
 21 20  2  0
 22 20  1  0
 23 29  1  0
 23 22  1  0
 23 24  1  6
 25 24  1  0
 25 26  1  0
 26 27  1  0
 27 28  1  0
 29 31  1  0
 30 29  2  0
M  END
$$$$
