RTH.pdb
     RDKit          3D

 29 29  0  0  1  0  0  0  0  0999 V2000
   21.7657  -29.4719  -15.5912 N   0  0  0  0  0  0  0  0  0  0  0  0
   23.1481  -29.2782  -15.8110 C   0  0  0  0  0  0  0  0  0  0  0  0
   23.9237  -30.3010  -15.9823 N   0  0  0  0  0  0  0  0  0  0  0  0
   23.6779  -27.9531  -15.8424 N   0  0  0  0  0  0  0  0  0  0  0  0
   22.9840  -26.8358  -15.2765 C   0  0  0  0  0  0  0  0  0  0  0  0
   23.7448  -25.5342  -15.4865 C   0  0  0  0  0  0  0  0  0  0  0  0
   24.3651  -25.5596  -16.8568 C   0  0  0  0  0  0  0  0  0  0  0  0
   25.2636  -24.3603  -17.1174 C   0  0  2  0  0  0  0  0  0  0  0  0
   26.4523  -24.5670  -16.2535 N   0  0  0  0  0  0  0  0  0  0  0  0
   24.6926  -23.0757  -16.7398 C   0  0  0  0  0  0  0  0  0  0  0  0
   25.1400  -22.4172  -15.7337 O   0  0  0  0  0  0  0  0  0  0  0  0
   24.9469  -30.1650  -16.1542 C   0  0  0  0  0  0  0  0  0  0  0  0
   23.1282  -20.6961  -19.4377 C   0  0  2  0  0  0  0  0  0  0  0  0
   22.2795  -20.6013  -18.1902 O   0  0  0  0  0  0  0  0  0  0  0  0
   21.1968  -21.4318  -18.3321 C   0  0  2  0  0  0  0  0  0  0  0  0
   23.1560  -21.0843  -17.0323 N   0  0  0  0  0  0  0  0  0  0  0  0
   23.6165  -22.4079  -17.4032 C   0  0  0  0  0  0  0  0  0  0  0  0
   22.4503  -21.0534  -15.7529 O   0  0  0  0  0  0  0  0  0  0  0  0
   21.8960  -22.1000  -15.3305 N   0  0  0  0  0  0  0  0  0  0  0  0
   22.3968  -19.8502  -15.0025 C   0  0  1  0  0  0  0  0  0  0  0  0
   21.7382  -19.7817  -13.6896 C   0  0  0  0  0  0  0  0  0  0  0  0
   22.6328  -19.0728  -12.6995 C   0  0  0  0  0  0  0  0  0  0  0  0
   23.5424  -19.9547  -11.9593 C   0  0  0  0  0  0  0  0  0  0  0  0
   23.6714  -21.3210  -12.0195 N   0  0  0  0  0  0  0  0  0  0  0  0
   24.6299  -21.7099  -11.1482 C   0  0  0  0  0  0  0  0  0  0  0  0
   25.0758  -20.5970  -10.5678 N   0  0  0  0  0  0  0  0  0  0  0  0
   24.4284  -19.5269  -11.0471 C   0  0  0  0  0  0  0  0  0  0  0  0
   20.4943  -19.0056  -13.8433 O   0  0  0  0  0  0  0  0  0  0  0  0
   20.3590  -18.2629  -14.8460 O   0  0  0  0  0  0  0  0  0  0  0  0
  1  2  1  0
  2  3  2  0
  4  5  1  0
  4  2  1  0
  6  5  1  0
  7  6  1  0
  8  7  1  0
  8  9  1  1
  8 10  1  0
 10 11  2  0
 13 12  1  6
 13 14  1  0
 13 15  1  0
 15 17  1  0
 16 10  1  0
 15 16  1  1
 17 18  2  0
 19 17  1  0
 19 20  1  0
 20 27  1  0
 20 21  1  1
 22 21  1  0
 23 22  2  0
 24 23  1  0
 25 24  1  0
 25 26  2  0
 26 22  1  0
 27 28  2  0
 27 29  1  0
M  END
$$$$
