RTH.pdb
     RDKit          3D

 29 29  0  0  1  0  0  0  0  0999 V2000
   21.5722  -24.8722  -24.1141 N   0  0  0  0  0  0  0  0  0  0  0  0
   21.2290  -23.5150  -23.9210 C   0  0  0  0  0  0  0  0  0  0  0  0
   20.9496  -22.7686  -24.9417 N   0  0  0  0  0  0  0  0  0  0  0  0
   21.1936  -22.9782  -22.5987 N   0  0  0  0  0  0  0  0  0  0  0  0
   22.3241  -23.0245  -21.7213 C   0  0  0  0  0  0  0  0  0  0  0  0
   22.3521  -24.3089  -20.9049 C   0  0  0  0  0  0  0  0  0  0  0  0
   21.8581  -24.0033  -19.5172 C   0  0  0  0  0  0  0  0  0  0  0  0
   22.4236  -22.7038  -18.9650 C   0  0  2  0  0  0  0  0  0  0  0  0
   23.5745  -23.1059  -18.1190 N   0  0  0  0  0  0  0  0  0  0  0  0
   21.5151  -21.9588  -18.1056 C   0  0  0  0  0  0  0  0  0  0  0  0
   21.3372  -22.2887  -16.8786 O   0  0  0  0  0  0  0  0  0  0  0  0
   20.6774  -21.7675  -24.8051 C   0  0  0  0  0  0  0  0  0  0  0  0
   18.3997  -18.1762  -17.4042 C   0  0  1  0  0  0  0  0  0  0  0  0
   19.3817  -18.8718  -18.3193 O   0  0  0  0  0  0  0  0  0  0  0  0
   20.4568  -18.0435  -18.5200 C   0  0  1  0  0  0  0  0  0  0  0  0
   19.8319  -20.1389  -17.5886 N   0  0  0  0  0  0  0  0  0  0  0  0
   20.7417  -20.8191  -18.4892 C   0  0  0  0  0  0  0  0  0  0  0  0
   18.7032  -20.9676  -17.1700 O   0  0  0  0  0  0  0  0  0  0  0  0
   18.6233  -22.1527  -17.5828 N   0  0  0  0  0  0  0  0  0  0  0  0
   17.7129  -20.4315  -16.3066 C   0  0  1  0  0  0  0  0  0  0  0  0
   16.5633  -21.2284  -15.8530 C   0  0  0  0  0  0  0  0  0  0  0  0
   17.0359  -22.3634  -14.9747 C   0  0  0  0  0  0  0  0  0  0  0  0
   15.9714  -23.2620  -14.5140 C   0  0  0  0  0  0  0  0  0  0  0  0
   14.6160  -23.1859  -14.7241 N   0  0  0  0  0  0  0  0  0  0  0  0
   14.0164  -24.2251  -14.0999 C   0  0  0  0  0  0  0  0  0  0  0  0
   14.9925  -24.9212  -13.5195 N   0  0  0  0  0  0  0  0  0  0  0  0
   16.1808  -24.3520  -13.7603 C   0  0  0  0  0  0  0  0  0  0  0  0
   15.6845  -20.3502  -15.0593 O   0  0  0  0  0  0  0  0  0  0  0  0
   16.1394  -19.2643  -14.6245 O   0  0  0  0  0  0  0  0  0  0  0  0
  1  2  1  0
  2  3  2  0
  4  5  1  0
  4  2  1  0
  6  5  1  0
  7  6  1  0
  8  7  1  0
  8  9  1  1
  8 10  1  0
 10 11  2  0
 13 12  1  6
 13 14  1  0
 13 15  1  0
 15 17  1  0
 16 10  1  0
 15 16  1  6
 17 18  2  0
 19 17  1  0
 19 20  1  0
 20 27  1  0
 20 21  1  6
 22 21  1  0
 23 22  2  0
 24 23  1  0
 25 24  1  0
 25 26  2  0
 26 22  1  0
 27 28  2  0
 27 29  1  0
M  END
$$$$
