RTH.pdb
     RDKit          3D

 29 29  0  0  1  0  0  0  0  0999 V2000
   28.5120  -18.6217  -20.6253 N   0  0  0  0  0  0  0  0  0  0  0  0
   29.5716  -18.9315  -19.7430 C   0  0  0  0  0  0  0  0  0  0  0  0
   30.6722  -19.4318  -20.2071 N   0  0  0  0  0  0  0  0  0  0  0  0
   29.4181  -18.6892  -18.3447 N   0  0  0  0  0  0  0  0  0  0  0  0
   28.2087  -18.1656  -17.7850 C   0  0  0  0  0  0  0  0  0  0  0  0
   28.3212  -17.9734  -16.2792 C   0  0  0  0  0  0  0  0  0  0  0  0
   27.1842  -18.7039  -15.6184 C   0  0  0  0  0  0  0  0  0  0  0  0
   27.6378  -19.9578  -14.8865 C   0  0  2  0  0  0  0  0  0  0  0  0
   28.1382  -20.8694  -15.9450 N   0  0  0  0  0  0  0  0  0  0  0  0
   26.5804  -20.6727  -14.1867 C   0  0  0  0  0  0  0  0  0  0  0  0
   25.9123  -21.6048  -14.7620 O   0  0  0  0  0  0  0  0  0  0  0  0
   31.4615  -19.6626  -19.5601 C   0  0  0  0  0  0  0  0  0  0  0  0
   26.6203  -21.6587  -10.6290 C   0  0  2  0  0  0  0  0  0  0  0  0
   25.2034  -21.1524  -10.7758 O   0  0  0  0  0  0  0  0  0  0  0  0
   25.1097  -19.9275  -10.1651 C   0  0  2  0  0  0  0  0  0  0  0  0
   24.9499  -21.0044  -12.2778 N   0  0  0  0  0  0  0  0  0  0  0  0
   26.1665  -20.4484  -12.8367 C   0  0  0  0  0  0  0  0  0  0  0  0
   23.7617  -20.2024  -12.5628 O   0  0  0  0  0  0  0  0  0  0  0  0
   23.8952  -18.9859  -12.8513 N   0  0  0  0  0  0  0  0  0  0  0  0
   22.4755  -20.7995  -12.5120 C   0  0  1  0  0  0  0  0  0  0  0  0
   21.3286  -20.2381  -13.2413 C   0  0  0  0  0  0  0  0  0  0  0  0
   21.5698  -20.3270  -14.7302 C   0  0  0  0  0  0  0  0  0  0  0  0
   20.4750  -19.8073  -15.5574 C   0  0  0  0  0  0  0  0  0  0  0  0
   19.2896  -19.2307  -15.1709 N   0  0  0  0  0  0  0  0  0  0  0  0
   18.5756  -18.9135  -16.2749 C   0  0  0  0  0  0  0  0  0  0  0  0
   19.3159  -19.2919  -17.3155 N   0  0  0  0  0  0  0  0  0  0  0  0
   20.4675  -19.8343  -16.8988 C   0  0  0  0  0  0  0  0  0  0  0  0
   20.1382  -21.0404  -12.9061 O   0  0  0  0  0  0  0  0  0  0  0  0
   20.2178  -22.2926  -12.9382 O   0  0  0  0  0  0  0  0  0  0  0  0
  1  2  1  0
  2  3  2  0
  4  5  1  0
  4  2  1  0
  6  5  1  0
  7  6  1  0
  8  7  1  0
  8  9  1  6
  8 10  1  0
 10 11  2  0
 13 12  1  1
 13 14  1  0
 13 15  1  0
 15 17  1  0
 16 10  1  0
 15 16  1  6
 17 18  2  0
 19 17  1  0
 19 20  1  0
 20 27  1  0
 20 21  1  1
 22 21  1  0
 23 22  2  0
 24 23  1  0
 25 24  1  0
 25 26  2  0
 26 22  1  0
 27 28  2  0
 27 29  1  0
M  END
$$$$
