RTH.pdb
     RDKit          3D

 29 29  0  0  1  0  0  0  0  0999 V2000
   28.2809  -30.4357  -15.0207 N   0  0  0  0  0  0  0  0  0  0  0  0
   28.7579  -30.5433  -16.3465 C   0  0  0  0  0  0  0  0  0  0  0  0
   29.0814  -31.7029  -16.8237 N   0  0  0  0  0  0  0  0  0  0  0  0
   28.8788  -29.3693  -17.1495 N   0  0  0  0  0  0  0  0  0  0  0  0
   28.5513  -28.0655  -16.6565 C   0  0  0  0  0  0  0  0  0  0  0  0
   27.0490  -27.8201  -16.6660 C   0  0  0  0  0  0  0  0  0  0  0  0
   26.8043  -26.3692  -16.9793 C   0  0  0  0  0  0  0  0  0  0  0  0
   25.7574  -26.1709  -18.0647 C   0  0  2  0  0  0  0  0  0  0  0  0
   26.4112  -26.6071  -19.3234 N   0  0  0  0  0  0  0  0  0  0  0  0
   25.3419  -24.7907  -18.2677 C   0  0  0  0  0  0  0  0  0  0  0  0
   25.9749  -24.0151  -19.0702 O   0  0  0  0  0  0  0  0  0  0  0  0
   29.4228  -31.7920  -17.8088 C   0  0  0  0  0  0  0  0  0  0  0  0
   22.9018  -23.3945  -20.0352 C   0  0  2  0  0  0  0  0  0  0  0  0
   22.5616  -22.8095  -18.6832 O   0  0  0  0  0  0  0  0  0  0  0  0
   21.6653  -23.6395  -18.0591 C   0  0  2  0  0  0  0  0  0  0  0  0
   23.8690  -22.7659  -17.8889 N   0  0  0  0  0  0  0  0  0  0  0  0
   24.2316  -24.1469  -17.6377 C   0  0  0  0  0  0  0  0  0  0  0  0
   23.7509  -21.9669  -16.6708 O   0  0  0  0  0  0  0  0  0  0  0  0
   23.5273  -22.5434  -15.5760 N   0  0  0  0  0  0  0  0  0  0  0  0
   23.8887  -20.5560  -16.7333 C   0  0  1  0  0  0  0  0  0  0  0  0
   23.8553  -19.7176  -15.5258 C   0  0  0  0  0  0  0  0  0  0  0  0
   24.4842  -18.3739  -15.8125 C   0  0  0  0  0  0  0  0  0  0  0  0
   25.9328  -18.4153  -16.0423 C   0  0  0  0  0  0  0  0  0  0  0  0
   26.8056  -19.4680  -15.9112 N   0  0  0  0  0  0  0  0  0  0  0  0
   28.0533  -19.0436  -16.2151 C   0  0  0  0  0  0  0  0  0  0  0  0
   27.9399  -17.7533  -16.5254 N   0  0  0  0  0  0  0  0  0  0  0  0
   26.6641  -17.3578  -16.4258 C   0  0  0  0  0  0  0  0  0  0  0  0
   22.4440  -19.5097  -15.1539 O   0  0  0  0  0  0  0  0  0  0  0  0
   21.5464  -19.7950  -15.9835 O   0  0  0  0  0  0  0  0  0  0  0  0
  1  2  1  0
  2  3  2  0
  4  5  1  0
  4  2  1  0
  6  5  1  0
  7  6  1  0
  8  7  1  0
  8  9  1  6
  8 10  1  0
 10 11  2  0
 13 12  1  6
 13 14  1  0
 13 15  1  0
 15 17  1  0
 16 10  1  0
 15 16  1  1
 17 18  2  0
 19 17  1  0
 19 20  1  0
 20 27  1  0
 20 21  1  1
 22 21  1  0
 23 22  2  0
 24 23  1  0
 25 24  1  0
 25 26  2  0
 26 22  1  0
 27 28  2  0
 27 29  1  0
M  END
$$$$
