RTH.pdb
     RDKit          3D

 29 29  0  0  1  0  0  0  0  0999 V2000
   19.8956  -23.1654   -9.1372 N   0  0  0  0  0  0  0  0  0  0  0  0
   19.6259  -21.8605   -9.6081 C   0  0  0  0  0  0  0  0  0  0  0  0
   18.4311  -21.5499   -9.9992 N   0  0  0  0  0  0  0  0  0  0  0  0
   20.6762  -20.8946   -9.6482 N   0  0  0  0  0  0  0  0  0  0  0  0
   22.0531  -21.2512   -9.4841 C   0  0  0  0  0  0  0  0  0  0  0  0
   22.9651  -20.0359   -9.5762 C   0  0  0  0  0  0  0  0  0  0  0  0
   24.3905  -20.5125   -9.6417 C   0  0  0  0  0  0  0  0  0  0  0  0
   24.6636  -21.3832  -10.8586 C   0  0  2  0  0  0  0  0  0  0  0  0
   25.9276  -22.0979  -10.5526 N   0  0  0  0  0  0  0  0  0  0  0  0
   24.8885  -20.6503  -12.0960 C   0  0  0  0  0  0  0  0  0  0  0  0
   25.0270  -19.3748  -12.0995 O   0  0  0  0  0  0  0  0  0  0  0  0
   18.2340  -20.5998  -10.3909 C   0  0  0  0  0  0  0  0  0  0  0  0
   27.5440  -21.1487  -14.4746 C   0  0  2  0  0  0  0  0  0  0  0  0
   26.3254  -21.1526  -15.3695 O   0  0  0  0  0  0  0  0  0  0  0  0
   25.9577  -22.4533  -15.6041 C   0  0  2  0  0  0  0  0  0  0  0  0
   25.2185  -20.4314  -14.5971 N   0  0  0  0  0  0  0  0  0  0  0  0
   24.9831  -21.2202  -13.4038 C   0  0  0  0  0  0  0  0  0  0  0  0
   24.0179  -20.2318  -15.4062 O   0  0  0  0  0  0  0  0  0  0  0  0
   22.9282  -20.7287  -15.0233 N   0  0  0  0  0  0  0  0  0  0  0  0
   24.0913  -19.4837  -16.6097 C   0  0  1  0  0  0  0  0  0  0  0  0
   22.8934  -19.1632  -17.4000 C   0  0  0  0  0  0  0  0  0  0  0  0
   21.9488  -18.3119  -16.5837 C   0  0  0  0  0  0  0  0  0  0  0  0
   20.8257  -19.0455  -15.9894 C   0  0  0  0  0  0  0  0  0  0  0  0
   20.5328  -20.3863  -16.0483 N   0  0  0  0  0  0  0  0  0  0  0  0
   19.3892  -20.6159  -15.3637 C   0  0  0  0  0  0  0  0  0  0  0  0
   18.9937  -19.4328  -14.8967 N   0  0  0  0  0  0  0  0  0  0  0  0
   19.8514  -18.4728  -15.2663 C   0  0  0  0  0  0  0  0  0  0  0  0
   23.3201  -18.3948  -18.5835 O   0  0  0  0  0  0  0  0  0  0  0  0
   24.5000  -17.9710  -18.6426 O   0  0  0  0  0  0  0  0  0  0  0  0
  1  2  1  0
  2  3  2  0
  4  5  1  0
  4  2  1  0
  6  5  1  0
  7  6  1  0
  8  7  1  0
  8  9  1  1
  8 10  1  0
 10 11  2  0
 13 12  1  6
 13 14  1  0
 13 15  1  0
 15 17  1  0
 16 10  1  0
 15 16  1  6
 17 18  2  0
 19 17  1  0
 19 20  1  0
 20 27  1  0
 20 21  1  6
 22 21  1  0
 23 22  2  0
 24 23  1  0
 25 24  1  0
 25 26  2  0
 26 22  1  0
 27 28  2  0
 27 29  1  0
M  END
$$$$
