RTH.pdb
     RDKit          3D

 29 29  0  0  1  0  0  0  0  0999 V2000
   23.3601  -12.7649  -21.5165 N   0  0  0  0  0  0  0  0  0  0  0  0
   22.1410  -13.4556  -21.3324 C   0  0  0  0  0  0  0  0  0  0  0  0
   21.0711  -13.0486  -21.9379 N   0  0  0  0  0  0  0  0  0  0  0  0
   22.1006  -14.5986  -20.4783 N   0  0  0  0  0  0  0  0  0  0  0  0
   23.2009  -14.9698  -19.6407 C   0  0  0  0  0  0  0  0  0  0  0  0
   24.0554  -16.0551  -20.2803 C   0  0  0  0  0  0  0  0  0  0  0  0
   23.8331  -17.3409  -19.5316 C   0  0  0  0  0  0  0  0  0  0  0  0
   23.8634  -17.1549  -18.0223 C   0  0  2  0  0  0  0  0  0  0  0  0
   24.8249  -16.0501  -17.7835 N   0  0  0  0  0  0  0  0  0  0  0  0
   24.3547  -18.3034  -17.2750 C   0  0  0  0  0  0  0  0  0  0  0  0
   23.7296  -19.4238  -17.2878 O   0  0  0  0  0  0  0  0  0  0  0  0
   20.1597  -13.5401  -21.7873 C   0  0  0  0  0  0  0  0  0  0  0  0
   27.4536  -19.8961  -17.6165 C   0  0  2  0  0  0  0  0  0  0  0  0
   27.4207  -19.7503  -16.1121 O   0  0  0  0  0  0  0  0  0  0  0  0
   28.1758  -18.6602  -15.7604 C   0  0  2  0  0  0  0  0  0  0  0  0
   25.9574  -19.5127  -15.7319 N   0  0  0  0  0  0  0  0  0  0  0  0
   25.5367  -18.3390  -16.4715 C   0  0  0  0  0  0  0  0  0  0  0  0
   25.7740  -19.3843  -14.2876 O   0  0  0  0  0  0  0  0  0  0  0  0
   25.3445  -18.3008  -13.8158 N   0  0  0  0  0  0  0  0  0  0  0  0
   26.0803  -20.4765  -13.4351 C   0  0  1  0  0  0  0  0  0  0  0  0
   25.6862  -20.4911  -12.0185 C   0  0  0  0  0  0  0  0  0  0  0  0
   24.1832  -20.3910  -11.8995 C   0  0  0  0  0  0  0  0  0  0  0  0
   23.6752  -20.4487  -10.5242 C   0  0  0  0  0  0  0  0  0  0  0  0
   24.3700  -20.5298   -9.3419 N   0  0  0  0  0  0  0  0  0  0  0  0
   23.4885  -20.5728   -8.3172 C   0  0  0  0  0  0  0  0  0  0  0  0
   22.2772  -20.5188   -8.8686 N   0  0  0  0  0  0  0  0  0  0  0  0
   22.3727  -20.4435  -10.2025 C   0  0  0  0  0  0  0  0  0  0  0  0
   26.1225  -21.7735  -11.4370 O   0  0  0  0  0  0  0  0  0  0  0  0
   25.9270  -22.8330  -12.0809 O   0  0  0  0  0  0  0  0  0  0  0  0
  1  2  1  0
  2  3  2  0
  4  5  1  0
  4  2  1  0
  6  5  1  0
  7  6  1  0
  8  7  1  0
  8  9  1  6
  8 10  1  0
 10 11  2  0
 13 12  1  1
 13 14  1  0
 13 15  1  0
 15 17  1  0
 16 10  1  0
 15 16  1  1
 17 18  2  0
 19 17  1  0
 19 20  1  0
 20 27  1  0
 20 21  1  1
 22 21  1  0
 23 22  2  0
 24 23  1  0
 25 24  1  0
 25 26  2  0
 26 22  1  0
 27 28  2  0
 27 29  1  0
M  END
$$$$
