RTH.pdb
     RDKit          3D

 29 29  0  0  1  0  0  0  0  0999 V2000
   29.0743  -31.5642  -18.1707 N   0  0  0  0  0  0  0  0  0  0  0  0
   29.9068  -31.2126  -17.0842 C   0  0  0  0  0  0  0  0  0  0  0  0
   30.7595  -32.0701  -16.6208 N   0  0  0  0  0  0  0  0  0  0  0  0
   29.7996  -29.9118  -16.5062 N   0  0  0  0  0  0  0  0  0  0  0  0
   28.8027  -28.9696  -16.9168 C   0  0  0  0  0  0  0  0  0  0  0  0
   29.1735  -28.2920  -18.2284 C   0  0  0  0  0  0  0  0  0  0  0  0
   28.5722  -26.9131  -18.2402 C   0  0  0  0  0  0  0  0  0  0  0  0
   29.3926  -25.9075  -17.4470 C   0  0  2  0  0  0  0  0  0  0  0  0
   29.9616  -26.6753  -16.3117 N   0  0  0  0  0  0  0  0  0  0  0  0
   28.6253  -24.8145  -16.8677 C   0  0  0  0  0  0  0  0  0  0  0  0
   28.7246  -24.5164  -15.6238 O   0  0  0  0  0  0  0  0  0  0  0  0
   31.3523  -31.8306  -15.7926 C   0  0  0  0  0  0  0  0  0  0  0  0
   29.4150  -21.9146  -16.9081 C   0  0  2  0  0  0  0  0  0  0  0  0
   28.0305  -21.6132  -17.4354 O   0  0  0  0  0  0  0  0  0  0  0  0
   28.0830  -21.5686  -18.8055 C   0  0  2  0  0  0  0  0  0  0  0  0
   27.1351  -22.7707  -16.9875 N   0  0  0  0  0  0  0  0  0  0  0  0
   27.7090  -23.9690  -17.5674 C   0  0  0  0  0  0  0  0  0  0  0  0
   25.7357  -22.5624  -17.3538 O   0  0  0  0  0  0  0  0  0  0  0  0
   25.0945  -23.5003  -17.8926 N   0  0  0  0  0  0  0  0  0  0  0  0
   25.1159  -21.3113  -17.1001 C   0  0  1  0  0  0  0  0  0  0  0  0
   23.7124  -21.0531  -17.4547 C   0  0  0  0  0  0  0  0  0  0  0  0
   22.8087  -22.0161  -16.7207 C   0  0  0  0  0  0  0  0  0  0  0  0
   21.3846  -21.8873  -17.0498 C   0  0  0  0  0  0  0  0  0  0  0  0
   20.7583  -20.9764  -17.8653 N   0  0  0  0  0  0  0  0  0  0  0  0
   19.4292  -21.2270  -17.8634 C   0  0  0  0  0  0  0  0  0  0  0  0
   19.2513  -22.2737  -17.0590 N   0  0  0  0  0  0  0  0  0  0  0  0
   20.4239  -22.6849  -16.5590 C   0  0  0  0  0  0  0  0  0  0  0  0
   23.3813  -19.6795  -17.0344 O   0  0  0  0  0  0  0  0  0  0  0  0
   24.1002  -19.1148  -16.1744 O   0  0  0  0  0  0  0  0  0  0  0  0
  1  2  1  0
  2  3  2  0
  4  5  1  0
  4  2  1  0
  6  5  1  0
  7  6  1  0
  8  7  1  0
  8  9  1  1
  8 10  1  0
 10 11  2  0
 13 12  1  1
 13 14  1  0
 13 15  1  0
 15 17  1  0
 16 10  1  0
 15 16  1  1
 17 18  2  0
 19 17  1  0
 19 20  1  0
 20 27  1  0
 20 21  1  6
 22 21  1  0
 23 22  2  0
 24 23  1  0
 25 24  1  0
 25 26  2  0
 26 22  1  0
 27 28  2  0
 27 29  1  0
M  END
$$$$
