RTH.pdb
     RDKit          3D

 29 29  0  0  1  0  0  0  0  0999 V2000
   18.0430  -22.7433  -11.4647 N   0  0  0  0  0  0  0  0  0  0  0  0
   18.9133  -23.8558  -11.5103 C   0  0  0  0  0  0  0  0  0  0  0  0
   18.6444  -24.9143  -10.8144 N   0  0  0  0  0  0  0  0  0  0  0  0
   20.0839  -23.8019  -12.3254 N   0  0  0  0  0  0  0  0  0  0  0  0
   20.1920  -22.9302  -13.4561 C   0  0  0  0  0  0  0  0  0  0  0  0
   21.5807  -22.9817  -14.0772 C   0  0  0  0  0  0  0  0  0  0  0  0
   22.0548  -21.5722  -14.3044 C   0  0  0  0  0  0  0  0  0  0  0  0
   23.3760  -21.2776  -13.6109 C   0  0  2  0  0  0  0  0  0  0  0  0
   23.1357  -21.5612  -12.1742 N   0  0  0  0  0  0  0  0  0  0  0  0
   23.8140  -19.8919  -13.6943 C   0  0  0  0  0  0  0  0  0  0  0  0
   23.6628  -19.0845  -12.7087 O   0  0  0  0  0  0  0  0  0  0  0  0
   19.2725  -25.7499  -10.8600 C   0  0  0  0  0  0  0  0  0  0  0  0
   27.0043  -18.3758  -13.9187 C   0  0  2  0  0  0  0  0  0  0  0  0
   26.3126  -17.8421  -15.1526 O   0  0  0  0  0  0  0  0  0  0  0  0
   26.5968  -18.6711  -16.2080 C   0  0  2  0  0  0  0  0  0  0  0  0
   24.8116  -17.8750  -14.8560 N   0  0  0  0  0  0  0  0  0  0  0  0
   24.4404  -19.2760  -14.8224 C   0  0  0  0  0  0  0  0  0  0  0  0
   24.0391  -17.0937  -15.8198 O   0  0  0  0  0  0  0  0  0  0  0  0
   23.5937  -17.6565  -16.8522 N   0  0  0  0  0  0  0  0  0  0  0  0
   23.7996  -15.7151  -15.5840 C   0  0  1  0  0  0  0  0  0  0  0  0
   23.0775  -14.8751  -16.5511 C   0  0  0  0  0  0  0  0  0  0  0  0
   22.8264  -13.5071  -15.9607 C   0  0  0  0  0  0  0  0  0  0  0  0
   22.1415  -12.5713  -16.8597 C   0  0  0  0  0  0  0  0  0  0  0  0
   21.5969  -12.7966  -18.1006 N   0  0  0  0  0  0  0  0  0  0  0  0
   21.0789  -11.6384  -18.5690 C   0  0  0  0  0  0  0  0  0  0  0  0
   21.3056  -10.7241  -17.6273 N   0  0  0  0  0  0  0  0  0  0  0  0
   21.9473  -11.2720  -16.5872 C   0  0  0  0  0  0  0  0  0  0  0  0
   23.9253  -14.7257  -17.7478 O   0  0  0  0  0  0  0  0  0  0  0  0
   25.1731  -14.7734  -17.6209 O   0  0  0  0  0  0  0  0  0  0  0  0
  1  2  1  0
  2  3  2  0
  4  5  1  0
  4  2  1  0
  6  5  1  0
  7  6  1  0
  8  7  1  0
  8  9  1  1
  8 10  1  0
 10 11  2  0
 13 12  1  6
 13 14  1  0
 13 15  1  0
 15 17  1  0
 16 10  1  0
 15 16  1  6
 17 18  2  0
 19 17  1  0
 19 20  1  0
 20 27  1  0
 20 21  1  6
 22 21  1  0
 23 22  2  0
 24 23  1  0
 25 24  1  0
 25 26  2  0
 26 22  1  0
 27 28  2  0
 27 29  1  0
M  END
$$$$
