RTH.pdb
     RDKit          3D

 29 29  0  0  1  0  0  0  0  0999 V2000
   16.0085  -22.8221  -12.4087 N   0  0  0  0  0  0  0  0  0  0  0  0
   16.3962  -22.6112  -11.0662 C   0  0  0  0  0  0  0  0  0  0  0  0
   15.8022  -23.2573  -10.1140 N   0  0  0  0  0  0  0  0  0  0  0  0
   17.4420  -21.6853  -10.7719 N   0  0  0  0  0  0  0  0  0  0  0  0
   18.0882  -20.9096  -11.7871 C   0  0  0  0  0  0  0  0  0  0  0  0
   18.9424  -21.7766  -12.7012 C   0  0  0  0  0  0  0  0  0  0  0  0
   20.2042  -21.0259  -13.0292 C   0  0  0  0  0  0  0  0  0  0  0  0
   21.0211  -21.6987  -14.1217 C   0  0  2  0  0  0  0  0  0  0  0  0
   21.6365  -22.8846  -13.4760 N   0  0  0  0  0  0  0  0  0  0  0  0
   22.1155  -20.8961  -14.6479 C   0  0  0  0  0  0  0  0  0  0  0  0
   23.2089  -20.7485  -13.9930 O   0  0  0  0  0  0  0  0  0  0  0  0
   16.0981  -23.1221   -9.1195 C   0  0  0  0  0  0  0  0  0  0  0  0
   24.1689  -21.5724  -17.2000 C   0  0  2  0  0  0  0  0  0  0  0  0
   23.7422  -20.1917  -17.6440 O   0  0  0  0  0  0  0  0  0  0  0  0
   22.7022  -20.3176  -18.5298 C   0  0  2  0  0  0  0  0  0  0  0  0
   23.2675  -19.4599  -16.3865 N   0  0  0  0  0  0  0  0  0  0  0  0
   22.1225  -20.2031  -15.8985 C   0  0  0  0  0  0  0  0  0  0  0  0
   22.9776  -18.0504  -16.6420 O   0  0  0  0  0  0  0  0  0  0  0  0
   21.7959  -17.6352  -16.5309 N   0  0  0  0  0  0  0  0  0  0  0  0
   24.0254  -17.1674  -17.0108 C   0  0  1  0  0  0  0  0  0  0  0  0
   23.7766  -15.7510  -17.3172 C   0  0  0  0  0  0  0  0  0  0  0  0
   25.0837  -15.0446  -17.5919 C   0  0  0  0  0  0  0  0  0  0  0  0
   25.9429  -14.8725  -16.4150 C   0  0  0  0  0  0  0  0  0  0  0  0
   25.6596  -15.0969  -15.0897 N   0  0  0  0  0  0  0  0  0  0  0  0
   26.7495  -14.7900  -14.3501 C   0  0  0  0  0  0  0  0  0  0  0  0
   27.6801  -14.3853  -15.2129 N   0  0  0  0  0  0  0  0  0  0  0  0
   27.2082  -14.4292  -16.4657 C   0  0  0  0  0  0  0  0  0  0  0  0
   22.9403  -15.6868  -18.5296 O   0  0  0  0  0  0  0  0  0  0  0  0
   22.7951  -16.7211  -19.2257 O   0  0  0  0  0  0  0  0  0  0  0  0
  1  2  1  0
  2  3  2  0
  4  5  1  0
  4  2  1  0
  6  5  1  0
  7  6  1  0
  8  7  1  0
  8  9  1  1
  8 10  1  0
 10 11  2  0
 13 12  1  6
 13 14  1  0
 13 15  1  0
 15 17  1  0
 16 10  1  0
 15 16  1  1
 17 18  2  0
 19 17  1  0
 19 20  1  0
 20 27  1  0
 20 21  1  6
 22 21  1  0
 23 22  2  0
 24 23  1  0
 25 24  1  0
 25 26  2  0
 26 22  1  0
 27 28  2  0
 27 29  1  0
M  END
$$$$
