EGC.pdb
     RDKit          3D

 20 19  0  0  1  0  0  0  0  0999 V2000
   11.4705  -17.3597   19.7892 N   0  0  0  0  0  0  0  0  0  0  0  0
   11.3664  -18.3620   20.8171 C   0  0  1  0  0  0  0  0  0  0  0  0
   12.6829  -18.8376   21.3165 C   0  0  0  0  0  0  0  0  0  0  0  0
   13.5575  -17.8595   21.9853 C   0  0  0  0  0  0  0  0  0  0  0  0
   14.9850  -17.9080   21.7238 C   0  0  0  0  0  0  0  0  0  0  0  0
   15.4513  -16.9548   20.9971 O   0  0  0  0  0  0  0  0  0  0  0  0
   10.4982  -17.8563   21.9424 C   0  0  0  0  0  0  0  0  0  0  0  0
   10.1022  -18.6829   22.8103 O   0  0  0  0  0  0  0  0  0  0  0  0
   15.9110  -18.8268   22.1379 O   0  0  0  0  0  0  0  0  0  0  0  0
   10.1096  -16.5145   22.0732 N   0  0  0  0  0  0  0  0  0  0  0  0
    9.2631  -15.9853   23.0913 C   0  0  0  0  0  0  0  0  0  0  0  0
    9.9756  -15.8003   24.3904 C   0  0  0  0  0  0  0  0  0  0  0  0
   11.1645  -16.1386   24.4656 O   0  0  0  0  0  0  0  0  0  0  0  0
    9.3007  -15.2460   25.5149 N   0  0  0  0  0  0  0  0  0  0  0  0
    9.9778  -14.9136   26.7405 C   0  0  1  0  0  0  0  0  0  0  0  0
    9.3518  -13.7268   27.4395 C   0  0  0  0  0  0  0  0  0  0  0  0
   10.4063  -13.2498   28.8378 S   0  0  0  0  0  0  0  0  0  0  0  0
   10.1358  -16.0814   27.6349 C   0  0  0  0  0  0  0  0  0  0  0  0
   11.2452  -16.1269   28.4580 O   0  0  0  0  0  0  0  0  0  0  0  0
    9.3171  -17.0126   27.6736 O   0  0  0  0  0  0  0  0  0  0  0  0
  2  1  1  6
  3  2  1  0
  4  3  1  0
  4  5  1  0
  5  6  2  0
  7  2  1  0
  8  7  2  0
  9  5  1  0
 10  7  1  0
 11 12  1  0
 11 10  1  0
 12 14  1  0
 13 12  2  0
 15 14  1  0
 15 16  1  1
 16 17  1  0
 18 15  1  0
 19 18  1  0
 20 18  2  0
M  END
$$$$
