EGC.pdb
     RDKit          3D

 20 19  0  0  1  0  0  0  0  0999 V2000
    9.5302  -16.4719   19.7488 N   0  0  0  0  0  0  0  0  0  0  0  0
    9.2283  -17.4952   20.7151 C   0  0  1  0  0  0  0  0  0  0  0  0
   10.4355  -18.0867   21.3488 C   0  0  0  0  0  0  0  0  0  0  0  0
   11.5335  -17.1767   21.7162 C   0  0  0  0  0  0  0  0  0  0  0  0
   12.7337  -17.7374   22.3110 C   0  0  0  0  0  0  0  0  0  0  0  0
   13.8269  -17.5223   21.6686 O   0  0  0  0  0  0  0  0  0  0  0  0
    8.2679  -16.9598   21.7480 C   0  0  0  0  0  0  0  0  0  0  0  0
    7.6919  -17.7825   22.5127 O   0  0  0  0  0  0  0  0  0  0  0  0
   12.8713  -18.4677   23.4603 O   0  0  0  0  0  0  0  0  0  0  0  0
    7.9834  -15.5946   21.9019 N   0  0  0  0  0  0  0  0  0  0  0  0
    7.1509  -15.0228   22.9085 C   0  0  0  0  0  0  0  0  0  0  0  0
    7.9322  -14.4917   24.0649 C   0  0  0  0  0  0  0  0  0  0  0  0
    9.1642  -14.6167   24.0529 O   0  0  0  0  0  0  0  0  0  0  0  0
    7.2725  -13.8554   25.1544 N   0  0  0  0  0  0  0  0  0  0  0  0
    7.9866  -13.2253   26.2334 C   0  0  1  0  0  0  0  0  0  0  0  0
    7.1446  -12.1978   26.9574 C   0  0  0  0  0  0  0  0  0  0  0  0
    5.6695  -11.8443   25.9606 S   0  0  0  0  0  0  0  0  0  0  0  0
    8.6021  -14.2062   27.1540 C   0  0  0  0  0  0  0  0  0  0  0  0
    9.5329  -13.7483   28.0674 O   0  0  0  0  0  0  0  0  0  0  0  0
    8.3164  -15.4132   27.1373 O   0  0  0  0  0  0  0  0  0  0  0  0
  2  1  1  6
  3  2  1  0
  4  3  1  0
  4  5  1  0
  5  6  2  0
  7  2  1  0
  8  7  2  0
  9  5  1  0
 10  7  1  0
 11 12  1  0
 11 10  1  0
 12 14  1  0
 13 12  2  0
 15 14  1  0
 15 16  1  1
 16 17  1  0
 18 15  1  0
 19 18  1  0
 20 18  2  0
M  END
$$$$
