EGC.pdb
     RDKit          3D

 20 19  0  0  1  0  0  0  0  0999 V2000
   11.6756  -20.2868   21.8373 N   0  0  0  0  0  0  0  0  0  0  0  0
   11.9321  -18.8888   22.0647 C   0  0  1  0  0  0  0  0  0  0  0  0
   12.0827  -18.1025   20.8125 C   0  0  0  0  0  0  0  0  0  0  0  0
   11.9351  -18.8154   19.5325 C   0  0  0  0  0  0  0  0  0  0  0  0
   13.0671  -18.8579   18.6240 C   0  0  0  0  0  0  0  0  0  0  0  0
   14.1196  -18.2307   19.0152 O   0  0  0  0  0  0  0  0  0  0  0  0
   10.8627  -18.3083   22.9566 C   0  0  0  0  0  0  0  0  0  0  0  0
    9.9548  -19.0764   23.3798 O   0  0  0  0  0  0  0  0  0  0  0  0
   13.1768  -19.4690   17.4043 O   0  0  0  0  0  0  0  0  0  0  0  0
   10.8269  -16.9591   23.3398 N   0  0  0  0  0  0  0  0  0  0  0  0
    9.9016  -16.3743   24.2535 C   0  0  0  0  0  0  0  0  0  0  0  0
   10.5314  -16.0229   25.5610 C   0  0  0  0  0  0  0  0  0  0  0  0
   11.7122  -16.3430   25.7530 O   0  0  0  0  0  0  0  0  0  0  0  0
    9.7887  -15.3342   26.5616 N   0  0  0  0  0  0  0  0  0  0  0  0
   10.3815  -14.8739   27.7896 C   0  0  1  0  0  0  0  0  0  0  0  0
    9.6023  -13.7369   28.4133 C   0  0  0  0  0  0  0  0  0  0  0  0
    8.9688  -12.6681   27.0900 S   0  0  0  0  0  0  0  0  0  0  0  0
   10.6388  -15.9761   28.7422 C   0  0  0  0  0  0  0  0  0  0  0  0
   11.4686  -15.7268   29.8191 O   0  0  0  0  0  0  0  0  0  0  0  0
   10.1420  -17.1053   28.6120 O   0  0  0  0  0  0  0  0  0  0  0  0
  2  1  1  6
  3  2  1  0
  4  3  1  0
  4  5  1  0
  5  6  2  0
  7  2  1  0
  8  7  2  0
  9  5  1  0
 10  7  1  0
 11 12  1  0
 11 10  1  0
 12 14  1  0
 13 12  2  0
 15 14  1  0
 15 16  1  1
 16 17  1  0
 18 15  1  0
 19 18  1  0
 20 18  2  0
M  END
$$$$
