EGC.pdb
     RDKit          3D

 20 19  0  0  1  0  0  0  0  0999 V2000
    8.4461  -19.0375   21.9154 N   0  0  0  0  0  0  0  0  0  0  0  0
    9.6509  -18.2746   21.7187 C   0  0  1  0  0  0  0  0  0  0  0  0
   10.2911  -18.5081   20.3979 C   0  0  0  0  0  0  0  0  0  0  0  0
    9.8232  -17.7039   19.2565 C   0  0  0  0  0  0  0  0  0  0  0  0
   10.3966  -17.9543   17.9461 C   0  0  0  0  0  0  0  0  0  0  0  0
   11.3413  -17.1577   17.5896 O   0  0  0  0  0  0  0  0  0  0  0  0
    9.3747  -16.8093   21.9478 C   0  0  0  0  0  0  0  0  0  0  0  0
   10.3576  -16.0230   22.0431 O   0  0  0  0  0  0  0  0  0  0  0  0
   10.0747  -18.9180   17.0291 O   0  0  0  0  0  0  0  0  0  0  0  0
    8.0815  -16.2767   22.0595 N   0  0  0  0  0  0  0  0  0  0  0  0
    7.7517  -14.8912   22.1299 C   0  0  0  0  0  0  0  0  0  0  0  0
    7.9527  -14.3228   23.4960 C   0  0  0  0  0  0  0  0  0  0  0  0
    8.9900  -14.6097   24.1086 O   0  0  0  0  0  0  0  0  0  0  0  0
    6.9723  -13.4697   24.0776 N   0  0  0  0  0  0  0  0  0  0  0  0
    7.0772  -12.9711   25.4235 C   0  0  1  0  0  0  0  0  0  0  0  0
    5.8880  -12.1223   25.8165 C   0  0  0  0  0  0  0  0  0  0  0  0
    6.2168  -11.3702   27.4353 S   0  0  0  0  0  0  0  0  0  0  0  0
    7.3594  -14.0423   26.4039 C   0  0  0  0  0  0  0  0  0  0  0  0
    8.3026  -13.7974   27.3841 O   0  0  0  0  0  0  0  0  0  0  0  0
    6.7860  -15.1422   26.3798 O   0  0  0  0  0  0  0  0  0  0  0  0
  2  1  1  6
  3  2  1  0
  4  3  1  0
  4  5  1  0
  5  6  2  0
  7  2  1  0
  8  7  2  0
  9  5  1  0
 10  7  1  0
 11 12  1  0
 11 10  1  0
 12 14  1  0
 13 12  2  0
 15 14  1  0
 15 16  1  1
 16 17  1  0
 18 15  1  0
 19 18  1  0
 20 18  2  0
M  END
$$$$
