EGC.pdb
     RDKit          3D

 20 19  0  0  1  0  0  0  0  0999 V2000
    7.3965  -18.7585   23.4869 N   0  0  0  0  0  0  0  0  0  0  0  0
    6.9518  -18.4070   22.1638 C   0  0  1  0  0  0  0  0  0  0  0  0
    5.6626  -19.0414   21.7838 C   0  0  0  0  0  0  0  0  0  0  0  0
    5.6316  -20.5079   21.6530 C   0  0  0  0  0  0  0  0  0  0  0  0
    4.3763  -21.1499   21.3055 C   0  0  0  0  0  0  0  0  0  0  0  0
    3.3745  -20.3611   21.1375 O   0  0  0  0  0  0  0  0  0  0  0  0
    6.8919  -16.9061   22.0233 C   0  0  0  0  0  0  0  0  0  0  0  0
    7.0378  -16.4066   20.8733 O   0  0  0  0  0  0  0  0  0  0  0  0
    4.1019  -22.4796   21.1324 O   0  0  0  0  0  0  0  0  0  0  0  0
    6.6818  -16.0382   23.1055 N   0  0  0  0  0  0  0  0  0  0  0  0
    6.6966  -14.6135   23.0491 C   0  0  0  0  0  0  0  0  0  0  0  0
    7.5647  -14.0072   24.1019 C   0  0  0  0  0  0  0  0  0  0  0  0
    8.6492  -13.5149   23.7623 O   0  0  0  0  0  0  0  0  0  0  0  0
    7.1514  -13.9958   25.4643 N   0  0  0  0  0  0  0  0  0  0  0  0
    7.9173  -13.3584   26.5027 C   0  0  1  0  0  0  0  0  0  0  0  0
    7.0507  -12.5470   27.4406 C   0  0  0  0  0  0  0  0  0  0  0  0
    5.7184  -11.7725   26.4816 S   0  0  0  0  0  0  0  0  0  0  0  0
    8.7979  -14.3063   27.2199 C   0  0  0  0  0  0  0  0  0  0  0  0
    9.6700  -13.7991   28.1645 O   0  0  0  0  0  0  0  0  0  0  0  0
    8.7827  -15.5284   27.0074 O   0  0  0  0  0  0  0  0  0  0  0  0
  2  1  1  1
  3  2  1  0
  4  3  1  0
  4  5  1  0
  5  6  2  0
  7  2  1  0
  8  7  2  0
  9  5  1  0
 10  7  1  0
 11 12  1  0
 11 10  1  0
 12 14  1  0
 13 12  2  0
 15 14  1  0
 15 16  1  1
 16 17  1  0
 18 15  1  0
 19 18  1  0
 20 18  2  0
M  END
$$$$
