EGC.pdb
     RDKit          3D

 20 19  0  0  1  0  0  0  0  0999 V2000
   10.0668  -18.4316   21.1783 N   0  0  0  0  0  0  0  0  0  0  0  0
   10.8953  -18.7386   22.3147 C   0  0  1  0  0  0  0  0  0  0  0  0
   12.2601  -19.1975   21.9464 C   0  0  0  0  0  0  0  0  0  0  0  0
   12.9425  -18.5039   20.8411 C   0  0  0  0  0  0  0  0  0  0  0  0
   14.2689  -18.9491   20.4523 C   0  0  0  0  0  0  0  0  0  0  0  0
   15.2355  -18.5329   21.1916 O   0  0  0  0  0  0  0  0  0  0  0  0
   10.9434  -17.5562   23.2504 C   0  0  0  0  0  0  0  0  0  0  0  0
   11.5766  -17.6774   24.3355 O   0  0  0  0  0  0  0  0  0  0  0  0
   14.6425  -19.7493   19.4067 O   0  0  0  0  0  0  0  0  0  0  0  0
   10.3208  -16.3294   22.9751 N   0  0  0  0  0  0  0  0  0  0  0  0
   10.4131  -15.1488   23.7694 C   0  0  0  0  0  0  0  0  0  0  0  0
    9.4795  -15.1675   24.9346 C   0  0  0  0  0  0  0  0  0  0  0  0
    8.5826  -16.0211   24.9595 O   0  0  0  0  0  0  0  0  0  0  0  0
    9.6208  -14.2245   25.9920 N   0  0  0  0  0  0  0  0  0  0  0  0
    8.6157  -14.0374   27.0049 C   0  0  1  0  0  0  0  0  0  0  0  0
    9.1691  -13.3779   28.2490 C   0  0  0  0  0  0  0  0  0  0  0  0
   10.7604  -14.1485   28.6598 S   0  0  0  0  0  0  0  0  0  0  0  0
    7.4106  -13.3531   26.4873 C   0  0  0  0  0  0  0  0  0  0  0  0
    6.3010  -13.2769   27.3078 O   0  0  0  0  0  0  0  0  0  0  0  0
    7.3594  -12.8493   25.3548 O   0  0  0  0  0  0  0  0  0  0  0  0
  2  1  1  6
  3  2  1  0
  4  3  1  0
  4  5  1  0
  5  6  2  0
  7  2  1  0
  8  7  2  0
  9  5  1  0
 10  7  1  0
 11 12  1  0
 11 10  1  0
 12 14  1  0
 13 12  2  0
 15 14  1  0
 15 16  1  1
 16 17  1  0
 18 15  1  0
 19 18  1  0
 20 18  2  0
M  END
$$$$
