EGC.pdb
     RDKit          3D

 20 19  0  0  1  0  0  0  0  0999 V2000
    9.4990  -13.8269   18.8927 N   0  0  0  0  0  0  0  0  0  0  0  0
    9.8421  -15.0867   19.4988 C   0  0  1  0  0  0  0  0  0  0  0  0
   11.2853  -15.2108   19.8314 C   0  0  0  0  0  0  0  0  0  0  0  0
   12.2455  -14.4471   19.0169 C   0  0  0  0  0  0  0  0  0  0  0  0
   13.6636  -14.7152   19.1776 C   0  0  0  0  0  0  0  0  0  0  0  0
   14.2141  -14.1981   20.2187 O   0  0  0  0  0  0  0  0  0  0  0  0
    8.9733  -15.3290   20.7081 C   0  0  0  0  0  0  0  0  0  0  0  0
    8.9875  -16.4760   21.2348 O   0  0  0  0  0  0  0  0  0  0  0  0
   14.5047  -15.4394   18.3770 O   0  0  0  0  0  0  0  0  0  0  0  0
    8.1515  -14.3442   21.2768 N   0  0  0  0  0  0  0  0  0  0  0  0
    7.2754  -14.5261   22.3870 C   0  0  0  0  0  0  0  0  0  0  0  0
    7.9727  -14.3738   23.6985 C   0  0  0  0  0  0  0  0  0  0  0  0
    9.1916  -14.5871   23.7479 O   0  0  0  0  0  0  0  0  0  0  0  0
    7.2498  -13.9907   24.8638 N   0  0  0  0  0  0  0  0  0  0  0  0
    7.8883  -13.7599   26.1327 C   0  0  1  0  0  0  0  0  0  0  0  0
    7.0354  -12.9244   27.0619 C   0  0  0  0  0  0  0  0  0  0  0  0
    6.1385  -11.6896   26.0792 S   0  0  0  0  0  0  0  0  0  0  0  0
    8.3595  -15.0113   26.7654 C   0  0  0  0  0  0  0  0  0  0  0  0
    9.2004  -14.9132   27.8579 O   0  0  0  0  0  0  0  0  0  0  0  0
    8.0308  -16.1353   26.3561 O   0  0  0  0  0  0  0  0  0  0  0  0
  2  1  1  1
  3  2  1  0
  4  3  1  0
  4  5  1  0
  5  6  2  0
  7  2  1  0
  8  7  2  0
  9  5  1  0
 10  7  1  0
 11 12  1  0
 11 10  1  0
 12 14  1  0
 13 12  2  0
 15 14  1  0
 15 16  1  1
 16 17  1  0
 18 15  1  0
 19 18  1  0
 20 18  2  0
M  END
$$$$
