EGC.pdb
     RDKit          3D

 20 19  0  0  1  0  0  0  0  0999 V2000
    9.5140  -16.5798   20.3548 N   0  0  0  0  0  0  0  0  0  0  0  0
    8.5972  -17.6542   20.6324 C   0  0  1  0  0  0  0  0  0  0  0  0
    9.2638  -18.9702   20.8135 C   0  0  0  0  0  0  0  0  0  0  0  0
   10.7137  -19.0448   20.5669 C   0  0  0  0  0  0  0  0  0  0  0  0
   11.6154  -18.4205   21.5188 C   0  0  0  0  0  0  0  0  0  0  0  0
   11.2456  -18.4669   22.7497 O   0  0  0  0  0  0  0  0  0  0  0  0
    7.7371  -17.3021   21.8208 C   0  0  0  0  0  0  0  0  0  0  0  0
    6.5748  -17.7902   21.8836 O   0  0  0  0  0  0  0  0  0  0  0  0
   12.8063  -17.7842   21.2952 O   0  0  0  0  0  0  0  0  0  0  0  0
    8.1640  -16.4607   22.8592 N   0  0  0  0  0  0  0  0  0  0  0  0
    7.3845  -16.0600   23.9839 C   0  0  0  0  0  0  0  0  0  0  0  0
    8.1215  -15.1298   24.8901 C   0  0  0  0  0  0  0  0  0  0  0  0
    9.3316  -14.9512   24.6962 O   0  0  0  0  0  0  0  0  0  0  0  0
    7.4451  -14.4639   25.9513 N   0  0  0  0  0  0  0  0  0  0  0  0
    8.1077  -13.5448   26.8386 C   0  0  1  0  0  0  0  0  0  0  0  0
    7.1375  -12.6114   27.5288 C   0  0  0  0  0  0  0  0  0  0  0  0
    5.8715  -12.0974   26.3340 S   0  0  0  0  0  0  0  0  0  0  0  0
    9.0124  -14.2280   27.7890 C   0  0  0  0  0  0  0  0  0  0  0  0
    9.9007  -13.4558   28.5136 O   0  0  0  0  0  0  0  0  0  0  0  0
    9.0035  -15.4569   27.9587 O   0  0  0  0  0  0  0  0  0  0  0  0
  2  1  1  1
  3  2  1  0
  4  3  1  0
  4  5  1  0
  5  6  2  0
  7  2  1  0
  8  7  2  0
  9  5  1  0
 10  7  1  0
 11 12  1  0
 11 10  1  0
 12 14  1  0
 13 12  2  0
 15 14  1  0
 15 16  1  1
 16 17  1  0
 18 15  1  0
 19 18  1  0
 20 18  2  0
M  END
$$$$
