EGC.pdb
     RDKit          3D

 20 19  0  0  1  0  0  0  0  0999 V2000
   -2.2220  -27.9046   28.4849 N   0  0  0  0  0  0  0  0  0  0  0  0
   -3.3050  -28.5557   29.1742 C   0  0  1  0  0  0  0  0  0  0  0  0
   -3.0732  -28.7053   30.6346 C   0  0  0  0  0  0  0  0  0  0  0  0
   -2.4003  -27.6012   31.3394 C   0  0  0  0  0  0  0  0  0  0  0  0
   -2.2694  -27.6738   32.7838 C   0  0  0  0  0  0  0  0  0  0  0  0
   -1.7043  -26.6632   33.3437 O   0  0  0  0  0  0  0  0  0  0  0  0
   -4.6008  -27.8370   28.8908 C   0  0  0  0  0  0  0  0  0  0  0  0
   -5.6761  -28.3614   29.2932 O   0  0  0  0  0  0  0  0  0  0  0  0
   -2.6595  -28.6674   33.6404 O   0  0  0  0  0  0  0  0  0  0  0  0
   -4.6708  -26.6158   28.2038 N   0  0  0  0  0  0  0  0  0  0  0  0
   -5.8456  -25.8304   28.0134 C   0  0  0  0  0  0  0  0  0  0  0  0
   -5.9163  -24.6687   28.9489 C   0  0  0  0  0  0  0  0  0  0  0  0
   -5.4120  -24.7845   30.0740 O   0  0  0  0  0  0  0  0  0  0  0  0
   -6.5490  -23.4563   28.5526 N   0  0  0  0  0  0  0  0  0  0  0  0
   -6.6029  -22.2952   29.4012 C   0  0  1  0  0  0  0  0  0  0  0  0
   -6.2777  -21.0209   28.6534 C   0  0  0  0  0  0  0  0  0  0  0  0
   -4.6344  -21.1884   27.9010 S   0  0  0  0  0  0  0  0  0  0  0  0
   -7.8723  -22.2034   30.1553 C   0  0  0  0  0  0  0  0  0  0  0  0
   -7.9031  -21.4094   31.2862 O   0  0  0  0  0  0  0  0  0  0  0  0
   -8.9010  -22.8065   29.8134 O   0  0  0  0  0  0  0  0  0  0  0  0
  2  1  1  1
  3  2  1  0
  4  3  1  0
  4  5  1  0
  5  6  2  0
  7  2  1  0
  8  7  2  0
  9  5  1  0
 10  7  1  0
 11 12  1  0
 11 10  1  0
 12 14  1  0
 13 12  2  0
 15 14  1  0
 15 16  1  6
 16 17  1  0
 18 15  1  0
 19 18  1  0
 20 18  2  0
M  END
$$$$
