EYA.pdb
     RDKit          3D

 27 27  0  0  1  0  0  0  0  0999 V2000
   11.6530  -16.7641   20.0200 N   0  0  0  0  0  0  0  0  0  0  0  0
   10.9746  -17.4013   21.1251 C   0  0  1  0  0  0  0  0  0  0  0  0
   11.8617  -18.4196   21.8139 C   0  0  0  0  0  0  0  0  0  0  0  0
   12.7675  -19.1244   20.8329 C   0  0  0  0  0  0  0  0  0  0  0  0
   13.5153  -20.1661   21.5950 C   0  0  0  0  0  0  0  0  0  0  0  0
   12.9112  -21.1524   22.0963 O   0  0  0  0  0  0  0  0  0  0  0  0
   10.6377  -16.3693   22.1402 C   0  0  0  0  0  0  0  0  0  0  0  0
   11.3140  -15.3165   22.2742 O   0  0  0  0  0  0  0  0  0  0  0  0
   14.8939  -20.1060   21.7896 O   0  0  0  0  0  0  0  0  0  0  0  0
    5.9231  -11.4353   27.6865 O   0  0  0  0  0  0  0  0  0  0  0  0
    6.3491  -12.3562   26.7351 C   0  0  0  0  0  0  0  0  0  0  0  0
    6.1497  -13.7049   26.9543 C   0  0  0  0  0  0  0  0  0  0  0  0
    6.5401  -14.6855   26.0651 C   0  0  0  0  0  0  0  0  0  0  0  0
    7.1584  -14.2920   24.9036 C   0  0  0  0  0  0  0  0  0  0  0  0
    7.5946  -15.3121   23.9195 C   0  0  0  0  0  0  0  0  0  0  0  0
    9.1011  -15.4882   23.9435 C   0  0  2  0  0  0  0  0  0  0  0  0
    9.5260  -16.5252   23.0146 N   0  0  0  0  0  0  0  0  0  0  0  0
    9.5990  -15.8334   25.2845 C   0  0  0  0  0  0  0  0  0  0  0  0
    9.7493  -17.0509   25.6457 O   0  0  0  0  0  0  0  0  0  0  0  0
    7.3716  -12.9560   24.6557 C   0  0  0  0  0  0  0  0  0  0  0  0
    6.9704  -11.9756   25.5660 C   0  0  0  0  0  0  0  0  0  0  0  0
   10.7986  -14.0137   28.4038 C   0  0  0  0  0  0  0  0  0  0  0  0
   10.5288  -15.2279   27.5465 C   0  0  2  0  0  0  0  0  0  0  0  0
    9.9466  -14.8661   26.2685 N   0  0  0  0  0  0  0  0  0  0  0  0
    9.6936  -16.2303   28.2549 C   0  0  0  0  0  0  0  0  0  0  0  0
    8.5141  -16.4034   27.8812 O   0  0  0  0  0  0  0  0  0  0  0  0
   10.2335  -16.9488   29.3081 O   0  0  0  0  0  0  0  0  0  0  0  0
  2  1  1  6
  2  7  1  0
  3  4  1  0
  3  2  1  0
  4  5  1  0
  5  6  2  0
  7  8  2  0
  9  5  1  0
 10 11  1  0
 11 21  2  0
 11 12  1  0
 12 13  2  0
 13 14  1  0
 14 15  1  0
 16 15  1  1
 17 16  1  0
 17  7  1  0
 18 24  1  0
 18 16  1  0
 19 18  2  0
 20 14  2  0
 21 20  1  0
 23 24  1  0
 23 22  1  1
 25 23  1  0
 26 25  2  0
 27 25  1  0
M  END
$$$$
