EYA.pdb
     RDKit          3D

 27 27  0  0  1  0  0  0  0  0999 V2000
   11.3766  -17.2647   20.2438 N   0  0  0  0  0  0  0  0  0  0  0  0
   10.1428  -17.4816   20.9637 C   0  0  1  0  0  0  0  0  0  0  0  0
   10.1422  -18.8159   21.6833 C   0  0  0  0  0  0  0  0  0  0  0  0
   11.5233  -19.4239   21.7322 C   0  0  0  0  0  0  0  0  0  0  0  0
   11.4052  -20.7268   22.4488 C   0  0  0  0  0  0  0  0  0  0  0  0
   11.0549  -21.7690   21.8323 O   0  0  0  0  0  0  0  0  0  0  0  0
   10.0051  -16.4316   22.0064 C   0  0  0  0  0  0  0  0  0  0  0  0
   10.9937  -15.7841   22.4388 O   0  0  0  0  0  0  0  0  0  0  0  0
   11.6704  -20.8590   23.8105 O   0  0  0  0  0  0  0  0  0  0  0  0
    6.4875  -10.8960   27.9081 O   0  0  0  0  0  0  0  0  0  0  0  0
    6.6799  -11.7828   26.8539 C   0  0  0  0  0  0  0  0  0  0  0  0
    5.9727  -12.9684   26.8225 C   0  0  0  0  0  0  0  0  0  0  0  0
    6.1015  -13.9040   25.8161 C   0  0  0  0  0  0  0  0  0  0  0  0
    6.9809  -13.6351   24.7960 C   0  0  0  0  0  0  0  0  0  0  0  0
    7.1512  -14.6125   23.6937 C   0  0  0  0  0  0  0  0  0  0  0  0
    8.5757  -15.1302   23.6352 C   0  0  2  0  0  0  0  0  0  0  0  0
    8.7387  -16.1071   22.5685 N   0  0  0  0  0  0  0  0  0  0  0  0
    8.9938  -15.7515   24.9018 C   0  0  0  0  0  0  0  0  0  0  0  0
    9.5556  -15.0677   25.8251 O   0  0  0  0  0  0  0  0  0  0  0  0
    7.7003  -12.4628   24.7983 C   0  0  0  0  0  0  0  0  0  0  0  0
    7.5584  -11.5260   25.8244 C   0  0  0  0  0  0  0  0  0  0  0  0
    8.3694  -18.9890   26.7370 C   0  0  0  0  0  0  0  0  0  0  0  0
    9.1099  -17.6933   26.5030 C   0  0  2  0  0  0  0  0  0  0  0  0
    8.8130  -17.1311   25.1996 N   0  0  0  0  0  0  0  0  0  0  0  0
   10.5730  -17.8491   26.7024 C   0  0  0  0  0  0  0  0  0  0  0  0
   10.9903  -18.2515   27.8090 O   0  0  0  0  0  0  0  0  0  0  0  0
   11.4403  -17.5477   25.6661 O   0  0  0  0  0  0  0  0  0  0  0  0
  2  1  1  1
  2  7  1  0
  3  4  1  0
  3  2  1  0
  4  5  1  0
  5  6  2  0
  7  8  2  0
  9  5  1  0
 10 11  1  0
 11 21  2  0
 11 12  1  0
 12 13  2  0
 13 14  1  0
 14 15  1  0
 16 15  1  1
 17 16  1  0
 17  7  1  0
 18 24  1  0
 18 16  1  0
 19 18  2  0
 20 14  2  0
 21 20  1  0
 23 24  1  0
 23 22  1  6
 25 23  1  0
 26 25  2  0
 27 25  1  0
M  END
$$$$
