EYA.pdb
     RDKit          3D

 27 27  0  0  1  0  0  0  0  0999 V2000
   10.5040  -16.9442   18.7777 N   0  0  0  0  0  0  0  0  0  0  0  0
    9.4800  -17.3991   19.6898 C   0  0  1  0  0  0  0  0  0  0  0  0
    9.6878  -18.8474   20.0869 C   0  0  0  0  0  0  0  0  0  0  0  0
   10.2935  -19.6526   18.9627 C   0  0  0  0  0  0  0  0  0  0  0  0
   10.3534  -21.0711   19.4203 C   0  0  0  0  0  0  0  0  0  0  0  0
   11.0649  -21.9133   18.8093 O   0  0  0  0  0  0  0  0  0  0  0  0
    9.5586  -16.5963   20.9380 C   0  0  0  0  0  0  0  0  0  0  0  0
   10.6563  -16.2117   21.4184 O   0  0  0  0  0  0  0  0  0  0  0  0
    9.6404  -21.5319   20.5255 O   0  0  0  0  0  0  0  0  0  0  0  0
    7.0921  -11.8068   27.9385 O   0  0  0  0  0  0  0  0  0  0  0  0
    7.1128  -12.4871   26.7254 C   0  0  0  0  0  0  0  0  0  0  0  0
    6.5177  -13.7295   26.6301 C   0  0  0  0  0  0  0  0  0  0  0  0
    6.4918  -14.4728   25.4676 C   0  0  0  0  0  0  0  0  0  0  0  0
    7.0912  -13.9429   24.3512 C   0  0  0  0  0  0  0  0  0  0  0  0
    7.0871  -14.7071   23.0803 C   0  0  0  0  0  0  0  0  0  0  0  0
    8.4227  -15.3867   22.8448 C   0  0  2  0  0  0  0  0  0  0  0  0
    8.3869  -16.2222   21.6535 N   0  0  0  0  0  0  0  0  0  0  0  0
    8.8301  -16.2218   23.9858 C   0  0  0  0  0  0  0  0  0  0  0  0
    8.1550  -17.2513   24.3318 O   0  0  0  0  0  0  0  0  0  0  0  0
    7.6926  -12.7075   24.4136 C   0  0  0  0  0  0  0  0  0  0  0  0
    7.7102  -11.9676   25.5981 C   0  0  0  0  0  0  0  0  0  0  0  0
   11.9687  -17.0765   25.6850 C   0  0  0  0  0  0  0  0  0  0  0  0
   10.4714  -16.8977   25.7739 C   0  0  2  0  0  0  0  0  0  0  0  0
    9.9810  -15.9613   24.7811 N   0  0  0  0  0  0  0  0  0  0  0  0
   10.0413  -16.5086   27.1408 C   0  0  0  0  0  0  0  0  0  0  0  0
   10.3372  -17.2527   28.0997 O   0  0  0  0  0  0  0  0  0  0  0  0
    9.3261  -15.3376   27.3253 O   0  0  0  0  0  0  0  0  0  0  0  0
  2  1  1  6
  2  7  1  0
  3  4  1  0
  3  2  1  0
  4  5  1  0
  5  6  2  0
  7  8  2  0
  9  5  1  0
 10 11  1  0
 11 21  2  0
 11 12  1  0
 12 13  2  0
 13 14  1  0
 14 15  1  0
 16 15  1  1
 17 16  1  0
 17  7  1  0
 18 24  1  0
 18 16  1  0
 19 18  2  0
 20 14  2  0
 21 20  1  0
 23 24  1  0
 23 22  1  1
 25 23  1  0
 26 25  2  0
 27 25  1  0
M  END
$$$$
