EYA.pdb
     RDKit          3D

 27 27  0  0  1  0  0  0  0  0999 V2000
    8.7224  -15.4050   19.0761 N   0  0  0  0  0  0  0  0  0  0  0  0
    7.9329  -15.8647   20.1954 C   0  0  1  0  0  0  0  0  0  0  0  0
    7.7317  -17.3668   20.1586 C   0  0  0  0  0  0  0  0  0  0  0  0
    7.0951  -17.8128   18.8643 C   0  0  0  0  0  0  0  0  0  0  0  0
    6.9076  -19.2900   18.9524 C   0  0  0  0  0  0  0  0  0  0  0  0
    5.8726  -19.7752   19.4838 O   0  0  0  0  0  0  0  0  0  0  0  0
    8.6624  -15.5601   21.4539 C   0  0  0  0  0  0  0  0  0  0  0  0
    9.9192  -15.5658   21.5172 O   0  0  0  0  0  0  0  0  0  0  0  0
    7.8476  -20.1945   18.4621 O   0  0  0  0  0  0  0  0  0  0  0  0
   10.2307  -14.0108   30.0057 O   0  0  0  0  0  0  0  0  0  0  0  0
    9.5976  -14.1727   28.7778 C   0  0  0  0  0  0  0  0  0  0  0  0
    9.4878  -13.0961   27.9201 C   0  0  0  0  0  0  0  0  0  0  0  0
    8.8765  -13.1676   26.6848 C   0  0  0  0  0  0  0  0  0  0  0  0
    8.3523  -14.3756   26.2949 C   0  0  0  0  0  0  0  0  0  0  0  0
    7.6865  -14.4981   24.9755 C   0  0  0  0  0  0  0  0  0  0  0  0
    8.6463  -15.0204   23.9233 C   0  0  2  0  0  0  0  0  0  0  0  0
    7.9679  -15.2453   22.6553 N   0  0  0  0  0  0  0  0  0  0  0  0
    9.2912  -16.2775   24.3344 C   0  0  0  0  0  0  0  0  0  0  0  0
    8.6188  -17.3567   24.4718 O   0  0  0  0  0  0  0  0  0  0  0  0
    8.4456  -15.4672   27.1266 C   0  0  0  0  0  0  0  0  0  0  0  0
    9.0676  -15.3783   28.3741 C   0  0  0  0  0  0  0  0  0  0  0  0
   12.4164  -17.9156   23.7718 C   0  0  0  0  0  0  0  0  0  0  0  0
   11.3337  -17.6780   24.7980 C   0  0  2  0  0  0  0  0  0  0  0  0
   10.6827  -16.3962   24.6072 N   0  0  0  0  0  0  0  0  0  0  0  0
   11.8450  -17.8218   26.1845 C   0  0  0  0  0  0  0  0  0  0  0  0
   12.4417  -18.8731   26.5002 O   0  0  0  0  0  0  0  0  0  0  0  0
   11.6526  -16.7960   27.0942 O   0  0  0  0  0  0  0  0  0  0  0  0
  2  1  1  6
  2  7  1  0
  3  4  1  0
  3  2  1  0
  4  5  1  0
  5  6  2  0
  7  8  2  0
  9  5  1  0
 10 11  1  0
 11 21  2  0
 11 12  1  0
 12 13  2  0
 13 14  1  0
 14 15  1  0
 16 15  1  1
 17 16  1  0
 17  7  1  0
 18 24  1  0
 18 16  1  0
 19 18  2  0
 20 14  2  0
 21 20  1  0
 23 24  1  0
 23 22  1  6
 25 23  1  0
 26 25  2  0
 27 25  1  0
M  END
$$$$
