EYA.pdb
     RDKit          3D

 27 27  0  0  1  0  0  0  0  0999 V2000
   10.2616  -17.1081   18.7819 N   0  0  0  0  0  0  0  0  0  0  0  0
    8.9750  -17.0671   19.4378 C   0  0  1  0  0  0  0  0  0  0  0  0
    8.4341  -18.4595   19.6962 C   0  0  0  0  0  0  0  0  0  0  0  0
    9.5458  -19.4637   19.8839 C   0  0  0  0  0  0  0  0  0  0  0  0
    8.9084  -20.8059   20.0159 C   0  0  0  0  0  0  0  0  0  0  0  0
    7.8183  -21.0587   19.4356 O   0  0  0  0  0  0  0  0  0  0  0  0
    9.1335  -16.4153   20.7641 C   0  0  0  0  0  0  0  0  0  0  0  0
   10.2404  -16.3735   21.3612 O   0  0  0  0  0  0  0  0  0  0  0  0
    9.4725  -21.8314   20.7723 O   0  0  0  0  0  0  0  0  0  0  0  0
    7.3467  -11.7835   28.0630 O   0  0  0  0  0  0  0  0  0  0  0  0
    7.2112  -12.4440   26.8463 C   0  0  0  0  0  0  0  0  0  0  0  0
    7.8190  -11.9280   25.7189 C   0  0  0  0  0  0  0  0  0  0  0  0
    7.7366  -12.5173   24.4737 C   0  0  0  0  0  0  0  0  0  0  0  0
    7.0106  -13.6773   24.3573 C   0  0  0  0  0  0  0  0  0  0  0  0
    6.8954  -14.3447   23.0380 C   0  0  0  0  0  0  0  0  0  0  0  0
    8.1639  -15.1019   22.6939 C   0  0  2  0  0  0  0  0  0  0  0  0
    8.0321  -15.8034   21.4254 N   0  0  0  0  0  0  0  0  0  0  0  0
    8.5250  -16.0814   23.7310 C   0  0  0  0  0  0  0  0  0  0  0  0
    7.7956  -17.1061   23.9617 O   0  0  0  0  0  0  0  0  0  0  0  0
    6.3931  -14.2167   25.4617 C   0  0  0  0  0  0  0  0  0  0  0  0
    6.4861  -13.6079   26.7152 C   0  0  0  0  0  0  0  0  0  0  0  0
   11.4586  -17.4921   25.3005 C   0  0  0  0  0  0  0  0  0  0  0  0
   10.0531  -16.9837   25.5196 C   0  0  2  0  0  0  0  0  0  0  0  0
    9.6874  -15.9741   24.5447 N   0  0  0  0  0  0  0  0  0  0  0  0
    9.8530  -16.4918   26.9061 C   0  0  0  0  0  0  0  0  0  0  0  0
    9.5068  -15.3039   27.0795 O   0  0  0  0  0  0  0  0  0  0  0  0
   10.0524  -17.3521   27.9724 O   0  0  0  0  0  0  0  0  0  0  0  0
  2  1  1  1
  2  7  1  0
  3  4  1  0
  3  2  1  0
  4  5  1  0
  5  6  2  0
  7  8  2  0
  9  5  1  0
 10 11  1  0
 11 21  2  0
 11 12  1  0
 12 13  2  0
 13 14  1  0
 14 15  1  0
 16 15  1  1
 17 16  1  0
 17  7  1  0
 18 24  1  0
 18 16  1  0
 19 18  2  0
 20 14  2  0
 21 20  1  0
 23 24  1  0
 23 22  1  1
 25 23  1  0
 26 25  2  0
 27 25  1  0
M  END
$$$$
