EYA.pdb
     RDKit          3D

 27 27  0  0  1  0  0  0  0  0999 V2000
   10.8344  -17.3756   20.1817 N   0  0  0  0  0  0  0  0  0  0  0  0
    9.4525  -17.1193   20.5165 C   0  0  1  0  0  0  0  0  0  0  0  0
    8.6924  -18.4048   20.7776 C   0  0  0  0  0  0  0  0  0  0  0  0
    9.6090  -19.5093   21.2461 C   0  0  0  0  0  0  0  0  0  0  0  0
    8.7681  -20.7261   21.4398 C   0  0  0  0  0  0  0  0  0  0  0  0
    8.1252  -21.2223   20.4756 O   0  0  0  0  0  0  0  0  0  0  0  0
    9.4026  -16.3283   21.7738 C   0  0  0  0  0  0  0  0  0  0  0  0
   10.4225  -16.1386   22.4861 O   0  0  0  0  0  0  0  0  0  0  0  0
    8.6505  -21.3664   22.6719 O   0  0  0  0  0  0  0  0  0  0  0  0
    6.4983  -10.8412   28.0469 O   0  0  0  0  0  0  0  0  0  0  0  0
    6.5567  -11.6614   26.9250 C   0  0  0  0  0  0  0  0  0  0  0  0
    7.3178  -11.2777   25.8386 C   0  0  0  0  0  0  0  0  0  0  0  0
    7.4319  -12.0293   24.6868 C   0  0  0  0  0  0  0  0  0  0  0  0
    6.7502  -13.2200   24.6250 C   0  0  0  0  0  0  0  0  0  0  0  0
    6.8442  -14.0600   23.4065 C   0  0  0  0  0  0  0  0  0  0  0  0
    8.1251  -14.8725   23.3981 C   0  0  2  0  0  0  0  0  0  0  0  0
    8.1894  -15.7442   22.2341 N   0  0  0  0  0  0  0  0  0  0  0  0
    8.2660  -15.7002   24.6065 C   0  0  0  0  0  0  0  0  0  0  0  0
    8.5422  -15.1796   25.7415 O   0  0  0  0  0  0  0  0  0  0  0  0
    5.9834  -13.6304   25.6906 C   0  0  0  0  0  0  0  0  0  0  0  0
    5.8783  -12.8579   26.8495 C   0  0  0  0  0  0  0  0  0  0  0  0
    7.1731  -19.0354   25.8160 C   0  0  0  0  0  0  0  0  0  0  0  0
    8.1678  -17.8987   25.8334 C   0  0  2  0  0  0  0  0  0  0  0  0
    8.1110  -17.1147   24.6146 N   0  0  0  0  0  0  0  0  0  0  0  0
    9.5477  -18.3758   26.1036 C   0  0  0  0  0  0  0  0  0  0  0  0
   10.4328  -18.1761   25.2449 O   0  0  0  0  0  0  0  0  0  0  0  0
    9.8251  -19.0279   27.2930 O   0  0  0  0  0  0  0  0  0  0  0  0
  2  1  1  1
  2  7  1  0
  3  4  1  0
  3  2  1  0
  4  5  1  0
  5  6  2  0
  7  8  2  0
  9  5  1  0
 10 11  1  0
 11 21  2  0
 11 12  1  0
 12 13  2  0
 13 14  1  0
 14 15  1  0
 16 15  1  1
 17 16  1  0
 17  7  1  0
 18 24  1  0
 18 16  1  0
 19 18  2  0
 20 14  2  0
 21 20  1  0
 23 24  1  0
 23 22  1  6
 25 23  1  0
 26 25  2  0
 27 25  1  0
M  END
$$$$
