EYA.pdb
     RDKit          3D

 27 27  0  0  1  0  0  0  0  0999 V2000
    7.6502  -16.9243   20.7458 N   0  0  0  0  0  0  0  0  0  0  0  0
    9.0846  -17.0424   20.6197 C   0  0  1  0  0  0  0  0  0  0  0  0
    9.5323  -16.9087   19.1775 C   0  0  0  0  0  0  0  0  0  0  0  0
    8.3567  -16.8071   18.2357 C   0  0  0  0  0  0  0  0  0  0  0  0
    8.9086  -16.6593   16.8577 C   0  0  0  0  0  0  0  0  0  0  0  0
    9.5113  -17.6166   16.3015 O   0  0  0  0  0  0  0  0  0  0  0  0
    9.7250  -15.9325   21.3726 C   0  0  0  0  0  0  0  0  0  0  0  0
    9.9687  -14.8174   20.8426 O   0  0  0  0  0  0  0  0  0  0  0  0
    8.7899  -15.4790   16.1264 O   0  0  0  0  0  0  0  0  0  0  0  0
    5.9199  -11.3700   27.3183 O   0  0  0  0  0  0  0  0  0  0  0  0
    6.4349  -12.2501   26.3723 C   0  0  0  0  0  0  0  0  0  0  0  0
    7.2580  -11.7713   25.3723 C   0  0  0  0  0  0  0  0  0  0  0  0
    7.8116  -12.5727   24.3946 C   0  0  0  0  0  0  0  0  0  0  0  0
    7.5248  -13.9155   24.4241 C   0  0  0  0  0  0  0  0  0  0  0  0
    8.0982  -14.8139   23.3930 C   0  0  0  0  0  0  0  0  0  0  0  0
    9.4601  -15.3327   23.8138 C   0  0  2  0  0  0  0  0  0  0  0  0
   10.0952  -16.0804   22.7386 N   0  0  0  0  0  0  0  0  0  0  0  0
    9.3822  -16.2003   24.9998 C   0  0  0  0  0  0  0  0  0  0  0  0
    8.7919  -15.8167   26.0675 O   0  0  0  0  0  0  0  0  0  0  0  0
    6.7081  -14.4235   25.4075 C   0  0  0  0  0  0  0  0  0  0  0  0
    6.1555  -13.5989   26.3900 C   0  0  0  0  0  0  0  0  0  0  0  0
    9.9268  -19.7790   25.9794 C   0  0  0  0  0  0  0  0  0  0  0  0
    9.9541  -18.2975   26.2736 C   0  0  2  0  0  0  0  0  0  0  0  0
    9.9429  -17.5068   25.0579 N   0  0  0  0  0  0  0  0  0  0  0  0
   11.0970  -17.9283   27.1464 C   0  0  0  0  0  0  0  0  0  0  0  0
   11.8990  -17.0556   26.7513 O   0  0  0  0  0  0  0  0  0  0  0  0
   11.2512  -18.5532   28.3722 O   0  0  0  0  0  0  0  0  0  0  0  0
  2  1  1  6
  2  7  1  0
  3  4  1  0
  3  2  1  0
  4  5  1  0
  5  6  2  0
  7  8  2  0
  9  5  1  0
 10 11  1  0
 11 21  2  0
 11 12  1  0
 12 13  2  0
 13 14  1  0
 14 15  1  0
 16 15  1  6
 17 16  1  0
 17  7  1  0
 18 24  1  0
 18 16  1  0
 19 18  2  0
 20 14  2  0
 21 20  1  0
 23 24  1  0
 23 22  1  6
 25 23  1  0
 26 25  2  0
 27 25  1  0
M  END
$$$$
