EYA.pdb
     RDKit          3D

 27 27  0  0  1  0  0  0  0  0999 V2000
    9.0643  -18.8596   20.1662 N   0  0  0  0  0  0  0  0  0  0  0  0
   10.3742  -18.2510   20.2007 C   0  0  1  0  0  0  0  0  0  0  0  0
   10.5712  -17.2817   19.0518 C   0  0  0  0  0  0  0  0  0  0  0  0
   11.5695  -17.8036   18.0467 C   0  0  0  0  0  0  0  0  0  0  0  0
   10.8040  -18.5821   17.0301 C   0  0  0  0  0  0  0  0  0  0  0  0
   10.2518  -17.9998   16.0580 O   0  0  0  0  0  0  0  0  0  0  0  0
   10.5038  -17.4629   21.4541 C   0  0  0  0  0  0  0  0  0  0  0  0
   11.5673  -16.8644   21.7614 O   0  0  0  0  0  0  0  0  0  0  0  0
   10.6614  -19.9666   17.0993 O   0  0  0  0  0  0  0  0  0  0  0  0
    7.5532  -12.4208   18.9958 O   0  0  0  0  0  0  0  0  0  0  0  0
    7.6852  -13.2371   20.1142 C   0  0  0  0  0  0  0  0  0  0  0  0
    8.4972  -12.8384   21.1575 C   0  0  0  0  0  0  0  0  0  0  0  0
    8.6853  -13.5852   22.3027 C   0  0  0  0  0  0  0  0  0  0  0  0
    8.0274  -14.7865   22.4031 C   0  0  0  0  0  0  0  0  0  0  0  0
    8.2004  -15.6218   23.6162 C   0  0  0  0  0  0  0  0  0  0  0  0
    9.4594  -16.4633   23.5276 C   0  0  2  0  0  0  0  0  0  0  0  0
    9.4227  -17.3477   22.3722 N   0  0  0  0  0  0  0  0  0  0  0  0
    9.6666  -17.2818   24.7327 C   0  0  0  0  0  0  0  0  0  0  0  0
    8.8249  -18.1796   25.0805 O   0  0  0  0  0  0  0  0  0  0  0  0
    7.2112  -15.2120   21.3810 C   0  0  0  0  0  0  0  0  0  0  0  0
    7.0313  -14.4442   20.2281 C   0  0  0  0  0  0  0  0  0  0  0  0
   12.4777  -18.0541   27.1254 C   0  0  0  0  0  0  0  0  0  0  0  0
   11.0225  -18.0281   26.7208 C   0  0  2  0  0  0  0  0  0  0  0  0
   10.7930  -17.1474   25.5918 N   0  0  0  0  0  0  0  0  0  0  0  0
   10.1376  -17.6833   27.8621 C   0  0  0  0  0  0  0  0  0  0  0  0
    9.4632  -16.6332   27.8053 O   0  0  0  0  0  0  0  0  0  0  0  0
   10.0770  -18.5256   28.9593 O   0  0  0  0  0  0  0  0  0  0  0  0
  2  1  1  6
  2  7  1  0
  3  4  1  0
  3  2  1  0
  4  5  1  0
  5  6  2  0
  7  8  2  0
  9  5  1  0
 10 11  1  0
 11 21  2  0
 11 12  1  0
 12 13  2  0
 13 14  1  0
 14 15  1  0
 16 15  1  1
 17 16  1  0
 17  7  1  0
 18 24  1  0
 18 16  1  0
 19 18  2  0
 20 14  2  0
 21 20  1  0
 23 24  1  0
 23 22  1  1
 25 23  1  0
 26 25  2  0
 27 25  1  0
M  END
$$$$
