EYA.pdb
     RDKit          3D

 27 27  0  0  1  0  0  0  0  0999 V2000
    8.3498  -19.5045   21.2169 N   0  0  0  0  0  0  0  0  0  0  0  0
    9.2533  -18.4036   21.4602 C   0  0  1  0  0  0  0  0  0  0  0  0
    9.0440  -17.2781   20.4664 C   0  0  0  0  0  0  0  0  0  0  0  0
    9.6362  -17.6079   19.1173 C   0  0  0  0  0  0  0  0  0  0  0  0
    9.3671  -16.4449   18.2227 C   0  0  0  0  0  0  0  0  0  0  0  0
   10.2413  -15.5535   18.0482 O   0  0  0  0  0  0  0  0  0  0  0  0
    8.9743  -17.8433   22.8082 C   0  0  0  0  0  0  0  0  0  0  0  0
    7.8865  -18.0490   23.4064 O   0  0  0  0  0  0  0  0  0  0  0  0
    8.1597  -16.2848   17.5457 O   0  0  0  0  0  0  0  0  0  0  0  0
   10.1600  -14.8550   30.9603 O   0  0  0  0  0  0  0  0  0  0  0  0
   10.3767  -15.1816   29.6258 C   0  0  0  0  0  0  0  0  0  0  0  0
   10.4056  -16.5085   29.2444 C   0  0  0  0  0  0  0  0  0  0  0  0
   10.6142  -16.9214   27.9442 C   0  0  0  0  0  0  0  0  0  0  0  0
   10.8021  -15.9569   26.9848 C   0  0  0  0  0  0  0  0  0  0  0  0
   11.0296  -16.3554   25.5746 C   0  0  0  0  0  0  0  0  0  0  0  0
    9.7167  -16.5274   24.8347 C   0  0  2  0  0  0  0  0  0  0  0  0
    9.9321  -17.0418   23.4902 N   0  0  0  0  0  0  0  0  0  0  0  0
    8.9657  -15.2659   24.7346 C   0  0  0  0  0  0  0  0  0  0  0  0
    9.3293  -14.3364   23.9350 O   0  0  0  0  0  0  0  0  0  0  0  0
   10.7790  -14.6263   27.3325 C   0  0  0  0  0  0  0  0  0  0  0  0
   10.5666  -14.2247   28.6533 C   0  0  0  0  0  0  0  0  0  0  0  0
    5.7187  -13.7666   25.9524 C   0  0  0  0  0  0  0  0  0  0  0  0
    7.1498  -13.6845   25.4759 C   0  0  2  0  0  0  0  0  0  0  0  0
    7.8005  -14.9803   25.4999 N   0  0  0  0  0  0  0  0  0  0  0  0
    7.9290  -12.6758   26.2375 C   0  0  0  0  0  0  0  0  0  0  0  0
    8.8755  -13.0626   26.9553 O   0  0  0  0  0  0  0  0  0  0  0  0
    7.5943  -11.3360   26.1385 O   0  0  0  0  0  0  0  0  0  0  0  0
  2  1  1  6
  2  7  1  0
  3  4  1  0
  3  2  1  0
  4  5  1  0
  5  6  2  0
  7  8  2  0
  9  5  1  0
 10 11  1  0
 11 21  2  0
 11 12  1  0
 12 13  2  0
 13 14  1  0
 14 15  1  0
 16 15  1  6
 17 16  1  0
 17  7  1  0
 18 24  1  0
 18 16  1  0
 19 18  2  0
 20 14  2  0
 21 20  1  0
 23 24  1  0
 23 22  1  1
 25 23  1  0
 26 25  2  0
 27 25  1  0
M  END
$$$$
