EYA.pdb
     RDKit          3D

 27 27  0  0  1  0  0  0  0  0999 V2000
    9.3383  -18.6227   21.1967 N   0  0  0  0  0  0  0  0  0  0  0  0
   10.5163  -17.7900   21.2766 C   0  0  1  0  0  0  0  0  0  0  0  0
   10.8495  -17.1622   19.9375 C   0  0  0  0  0  0  0  0  0  0  0  0
   10.5297  -18.0910   18.7910 C   0  0  0  0  0  0  0  0  0  0  0  0
   10.9797  -17.4158   17.5393 C   0  0  0  0  0  0  0  0  0  0  0  0
   11.3235  -18.0926   16.5329 O   0  0  0  0  0  0  0  0  0  0  0  0
   10.2507  -16.6728   22.2201 C   0  0  0  0  0  0  0  0  0  0  0  0
   11.1186  -15.8015   22.4870 O   0  0  0  0  0  0  0  0  0  0  0  0
   11.0428  -16.0290   17.4180 O   0  0  0  0  0  0  0  0  0  0  0  0
    6.0245  -11.0405   27.5235 O   0  0  0  0  0  0  0  0  0  0  0  0
    6.3810  -11.9416   26.5258 C   0  0  0  0  0  0  0  0  0  0  0  0
    5.8123  -13.1998   26.5082 C   0  0  0  0  0  0  0  0  0  0  0  0
    6.1082  -14.1546   25.5567 C   0  0  0  0  0  0  0  0  0  0  0  0
    7.0165  -13.8295   24.5792 C   0  0  0  0  0  0  0  0  0  0  0  0
    7.3643  -14.8249   23.5365 C   0  0  0  0  0  0  0  0  0  0  0  0
    8.7073  -15.4702   23.8206 C   0  0  2  0  0  0  0  0  0  0  0  0
    8.9925  -16.5355   22.8705 N   0  0  0  0  0  0  0  0  0  0  0  0
    8.7790  -16.0288   25.1800 C   0  0  0  0  0  0  0  0  0  0  0  0
    8.6103  -15.2926   26.2120 O   0  0  0  0  0  0  0  0  0  0  0  0
    7.6007  -12.5843   24.5691 C   0  0  0  0  0  0  0  0  0  0  0  0
    7.2905  -11.6289   25.5395 C   0  0  0  0  0  0  0  0  0  0  0  0
    8.3955  -19.2647   26.9143 C   0  0  0  0  0  0  0  0  0  0  0  0
    9.0927  -17.9291   26.8045 C   0  0  2  0  0  0  0  0  0  0  0  0
    9.0358  -17.4012   25.4549 N   0  0  0  0  0  0  0  0  0  0  0  0
   10.4909  -17.9930   27.2998 C   0  0  0  0  0  0  0  0  0  0  0  0
   10.6974  -18.3696   28.4730 O   0  0  0  0  0  0  0  0  0  0  0  0
   11.5314  -17.6369   26.4587 O   0  0  0  0  0  0  0  0  0  0  0  0
  2  1  1  6
  2  7  1  0
  3  4  1  0
  3  2  1  0
  4  5  1  0
  5  6  2  0
  7  8  2  0
  9  5  1  0
 10 11  1  0
 11 21  2  0
 11 12  1  0
 12 13  2  0
 13 14  1  0
 14 15  1  0
 16 15  1  6
 17 16  1  0
 17  7  1  0
 18 24  1  0
 18 16  1  0
 19 18  2  0
 20 14  2  0
 21 20  1  0
 23 24  1  0
 23 22  1  6
 25 23  1  0
 26 25  2  0
 27 25  1  0
M  END
$$$$
