TSI.pdb
     RDKit          3D

 22 21  0  0  1  0  0  0  0  0999 V2000
   11.0707  -18.3529   18.9000 C   0  0  0  0  0  0  0  0  0  0  0  0
   10.3040  -17.7372   20.0482 C   0  0  1  0  0  0  0  0  0  0  0  0
   10.5724  -16.3920   20.1355 O   0  0  0  0  0  0  0  0  0  0  0  0
    8.8165  -17.9591   19.9222 C   0  0  2  0  0  0  0  0  0  0  0  0
    8.3443  -17.3682   18.6613 N   0  0  0  0  0  0  0  0  0  0  0  0
    8.0249  -17.3824   21.0086 C   0  0  0  0  0  0  0  0  0  0  0  0
    7.5043  -16.2387   20.8977 O   0  0  0  0  0  0  0  0  0  0  0  0
    7.3411  -19.2300   24.9107 O   0  0  0  0  0  0  0  0  0  0  0  0
    6.4233  -18.5680   24.1367 C   0  0  0  0  0  0  0  0  0  0  0  0
    7.0282  -17.4325   23.3236 C   0  0  2  0  0  0  0  0  0  0  0  0
    7.7772  -18.0408   22.2538 N   0  0  0  0  0  0  0  0  0  0  0  0
    7.8650  -16.5358   24.1549 C   0  0  0  0  0  0  0  0  0  0  0  0
    9.1109  -16.6017   23.9947 O   0  0  0  0  0  0  0  0  0  0  0  0
    5.9353  -11.8643   26.4232 C   0  0  0  0  0  0  0  0  0  0  0  0
    6.8803  -12.7311   25.6208 C   0  0  0  0  0  0  0  0  0  0  0  0
    7.5842  -13.6589   26.5514 C   0  0  2  0  0  0  0  0  0  0  0  0
    8.6978  -12.8616   27.2263 C   0  0  0  0  0  0  0  0  0  0  0  0
    8.2265  -14.8316   25.8693 C   0  0  2  0  0  0  0  0  0  0  0  0
    7.3296  -15.6272   25.1017 N   0  0  0  0  0  0  0  0  0  0  0  0
    8.7783  -15.7096   26.9627 C   0  0  0  0  0  0  0  0  0  0  0  0
    8.1152  -16.6391   27.4508 O   0  0  0  0  0  0  0  0  0  0  0  0
   10.0653  -15.5066   27.4690 O   0  0  0  0  0  0  0  0  0  0  0  0
  2  1  1  6
  2  3  1  0
  2  4  1  0
  4  5  1  6
  6  4  1  0
  6 11  1  0
  7  6  2  0
  8  9  1  0
 10 11  1  0
 10  9  1  1
 10 12  1  0
 12 13  2  0
 12 19  1  0
 15 14  1  0
 16 17  1  6
 16 15  1  0
 18 16  1  0
 18 19  1  1
 20 22  1  0
 20 18  1  0
 21 20  2  0
M  END
$$$$
