TSI.pdb
     RDKit          3D

 22 21  0  0  1  0  0  0  0  0999 V2000
   10.2237  -13.5115   20.0823 C   0  0  0  0  0  0  0  0  0  0  0  0
    9.0885  -13.3294   19.1008 C   0  0  1  0  0  0  0  0  0  0  0  0
    9.5770  -13.2090   17.8217 O   0  0  0  0  0  0  0  0  0  0  0  0
    8.0922  -14.4612   19.1678 C   0  0  2  0  0  0  0  0  0  0  0  0
    6.9789  -14.1807   18.2492 N   0  0  0  0  0  0  0  0  0  0  0  0
    7.5264  -14.6907   20.4970 C   0  0  0  0  0  0  0  0  0  0  0  0
    6.8127  -13.8159   21.0598 O   0  0  0  0  0  0  0  0  0  0  0  0
    8.2528  -18.1986   22.9869 O   0  0  0  0  0  0  0  0  0  0  0  0
    7.0419  -17.5968   22.7609 C   0  0  0  0  0  0  0  0  0  0  0  0
    7.1458  -16.0920   22.5577 C   0  0  2  0  0  0  0  0  0  0  0  0
    7.7238  -15.8879   21.2539 N   0  0  0  0  0  0  0  0  0  0  0  0
    7.9329  -15.4378   23.6290 C   0  0  0  0  0  0  0  0  0  0  0  0
    9.1479  -15.2132   23.3929 O   0  0  0  0  0  0  0  0  0  0  0  0
    5.7881  -12.1035   27.6743 C   0  0  0  0  0  0  0  0  0  0  0  0
    6.2543  -13.3859   27.0214 C   0  0  0  0  0  0  0  0  0  0  0  0
    7.5941  -13.1516   26.4111 C   0  0  2  0  0  0  0  0  0  0  0  0
    7.4038  -12.1463   25.2778 C   0  0  0  0  0  0  0  0  0  0  0  0
    8.2138  -14.3822   25.8155 C   0  0  2  0  0  0  0  0  0  0  0  0
    7.3838  -15.0633   24.8807 N   0  0  0  0  0  0  0  0  0  0  0  0
    8.4658  -15.3284   26.9610 C   0  0  0  0  0  0  0  0  0  0  0  0
    7.8493  -16.4007   27.0700 O   0  0  0  0  0  0  0  0  0  0  0  0
    9.4096  -15.0295   27.9479 O   0  0  0  0  0  0  0  0  0  0  0  0
  2  1  1  1
  2  3  1  0
  2  4  1  0
  4  5  1  6
  6  4  1  0
  6 11  1  0
  7  6  2  0
  8  9  1  0
 10 11  1  0
 10  9  1  1
 10 12  1  0
 12 13  2  0
 12 19  1  0
 15 14  1  0
 16 17  1  6
 16 15  1  0
 18 16  1  0
 18 19  1  6
 20 22  1  0
 20 18  1  0
 21 20  2  0
M  END
$$$$
