TSI.pdb
     RDKit          3D

 22 21  0  0  1  0  0  0  0  0999 V2000
   10.4901  -14.1631   17.8909 C   0  0  0  0  0  0  0  0  0  0  0  0
    9.9096  -14.4216   19.2625 C   0  0  1  0  0  0  0  0  0  0  0  0
   10.4231  -13.5307   20.1746 O   0  0  0  0  0  0  0  0  0  0  0  0
    8.4020  -14.3501   19.2643 C   0  0  2  0  0  0  0  0  0  0  0  0
    7.9802  -13.0197   18.8014 N   0  0  0  0  0  0  0  0  0  0  0  0
    7.7871  -14.5829   20.5709 C   0  0  0  0  0  0  0  0  0  0  0  0
    7.4504  -13.6193   21.3121 O   0  0  0  0  0  0  0  0  0  0  0  0
    7.8031  -18.3145   22.7842 O   0  0  0  0  0  0  0  0  0  0  0  0
    6.6739  -17.5733   22.5496 C   0  0  0  0  0  0  0  0  0  0  0  0
    6.9490  -16.0823   22.4160 C   0  0  2  0  0  0  0  0  0  0  0  0
    7.5205  -15.8809   21.1090 N   0  0  0  0  0  0  0  0  0  0  0  0
    7.8286  -15.5787   23.4967 C   0  0  0  0  0  0  0  0  0  0  0  0
    9.0036  -15.2609   23.1790 O   0  0  0  0  0  0  0  0  0  0  0  0
    5.8983  -11.9322   26.5278 C   0  0  0  0  0  0  0  0  0  0  0  0
    7.0096  -12.5954   25.7448 C   0  0  0  0  0  0  0  0  0  0  0  0
    7.5800  -13.7002   26.5672 C   0  0  2  0  0  0  0  0  0  0  0  0
    8.6338  -13.0826   27.4835 C   0  0  0  0  0  0  0  0  0  0  0  0
    8.2612  -14.7679   25.7615 C   0  0  2  0  0  0  0  0  0  0  0  0
    7.4085  -15.4438   24.8434 N   0  0  0  0  0  0  0  0  0  0  0  0
    8.7575  -15.7935   26.7479 C   0  0  0  0  0  0  0  0  0  0  0  0
    9.7379  -15.5761   27.4781 O   0  0  0  0  0  0  0  0  0  0  0  0
    8.1265  -17.0342   26.8759 O   0  0  0  0  0  0  0  0  0  0  0  0
  2  1  1  6
  2  3  1  0
  2  4  1  0
  4  5  1  1
  6  4  1  0
  6 11  1  0
  7  6  2  0
  8  9  1  0
 10 11  1  0
 10  9  1  1
 10 12  1  0
 12 13  2  0
 12 19  1  0
 15 14  1  0
 16 17  1  1
 16 15  1  0
 18 16  1  0
 18 19  1  6
 20 22  1  0
 20 18  1  0
 21 20  2  0
M  END
$$$$
