TSI.pdb
     RDKit          3D

 22 21  0  0  1  0  0  0  0  0999 V2000
    8.2335  -16.5779   18.0706 C   0  0  0  0  0  0  0  0  0  0  0  0
    8.4590  -15.1859   17.5259 C   0  0  1  0  0  0  0  0  0  0  0  0
    7.9757  -15.0905   16.2428 O   0  0  0  0  0  0  0  0  0  0  0  0
    7.8269  -14.1262   18.3951 C   0  0  2  0  0  0  0  0  0  0  0  0
    7.9798  -12.8149   17.7477 N   0  0  0  0  0  0  0  0  0  0  0  0
    8.3953  -14.0286   19.7393 C   0  0  0  0  0  0  0  0  0  0  0  0
    9.4573  -13.3814   19.9509 O   0  0  0  0  0  0  0  0  0  0  0  0
    6.6092  -15.8527   23.1477 O   0  0  0  0  0  0  0  0  0  0  0  0
    7.3407  -14.6959   23.2266 C   0  0  0  0  0  0  0  0  0  0  0  0
    8.4526  -14.6144   22.1906 C   0  0  2  0  0  0  0  0  0  0  0  0
    7.8179  -14.6374   20.8975 N   0  0  0  0  0  0  0  0  0  0  0  0
    9.4430  -15.7050   22.3488 C   0  0  0  0  0  0  0  0  0  0  0  0
    9.3104  -16.7126   21.6075 O   0  0  0  0  0  0  0  0  0  0  0  0
   14.5512  -15.0843   22.2938 C   0  0  0  0  0  0  0  0  0  0  0  0
   13.2605  -15.8368   22.0569 C   0  0  0  0  0  0  0  0  0  0  0  0
   12.8311  -16.4643   23.3392 C   0  0  2  0  0  0  0  0  0  0  0  0
   13.5934  -17.7803   23.4748 C   0  0  0  0  0  0  0  0  0  0  0  0
   11.3669  -16.7898   23.3956 C   0  0  2  0  0  0  0  0  0  0  0  0
   10.5097  -15.6591   23.2808 N   0  0  0  0  0  0  0  0  0  0  0  0
   11.1193  -17.4021   24.7501 C   0  0  0  0  0  0  0  0  0  0  0  0
   10.6787  -16.7328   25.6986 O   0  0  0  0  0  0  0  0  0  0  0  0
   11.3790  -18.7550   24.9874 O   0  0  0  0  0  0  0  0  0  0  0  0
  2  1  1  1
  2  3  1  0
  2  4  1  0
  4  5  1  6
  6  4  1  0
  6 11  1  0
  7  6  2  0
  8  9  1  0
 10 11  1  0
 10  9  1  1
 10 12  1  0
 12 13  2  0
 12 19  1  0
 15 14  1  0
 16 17  1  6
 16 15  1  0
 18 16  1  0
 18 19  1  1
 20 22  1  0
 20 18  1  0
 21 20  2  0
M  END
$$$$
