TSI.pdb
     RDKit          3D

 22 21  0  0  1  0  0  0  0  0999 V2000
   10.8262  -13.7814   17.5657 C   0  0  0  0  0  0  0  0  0  0  0  0
   10.1219  -14.1533   18.8506 C   0  0  1  0  0  0  0  0  0  0  0  0
   10.5141  -13.3185   19.8697 O   0  0  0  0  0  0  0  0  0  0  0  0
    8.6199  -14.1197   18.7057 C   0  0  2  0  0  0  0  0  0  0  0  0
    8.2065  -12.7800   18.2627 N   0  0  0  0  0  0  0  0  0  0  0  0
    7.8870  -14.4292   19.9331 C   0  0  0  0  0  0  0  0  0  0  0  0
    7.2048  -13.5472   20.5231 O   0  0  0  0  0  0  0  0  0  0  0  0
    8.3879  -18.0435   22.2523 O   0  0  0  0  0  0  0  0  0  0  0  0
    7.1664  -17.4846   21.9787 C   0  0  0  0  0  0  0  0  0  0  0  0
    7.2196  -15.9728   21.8112 C   0  0  2  0  0  0  0  0  0  0  0  0
    7.8772  -15.7170   20.5551 N   0  0  0  0  0  0  0  0  0  0  0  0
    7.9020  -15.3097   22.9469 C   0  0  0  0  0  0  0  0  0  0  0  0
    9.0744  -14.8981   22.7508 O   0  0  0  0  0  0  0  0  0  0  0  0
    7.0330  -11.3055   27.2711 C   0  0  0  0  0  0  0  0  0  0  0  0
    7.8732  -12.5007   26.8789 C   0  0  0  0  0  0  0  0  0  0  0  0
    7.1888  -13.2223   25.7685 C   0  0  2  0  0  0  0  0  0  0  0  0
    5.9061  -13.8199   26.3421 C   0  0  0  0  0  0  0  0  0  0  0  0
    7.9900  -14.3546   25.1950 C   0  0  2  0  0  0  0  0  0  0  0  0
    7.3001  -15.1249   24.2166 N   0  0  0  0  0  0  0  0  0  0  0  0
    8.3086  -15.2752   26.3448 C   0  0  0  0  0  0  0  0  0  0  0  0
    7.7372  -16.3689   26.4831 O   0  0  0  0  0  0  0  0  0  0  0  0
    9.2654  -14.9272   27.3024 O   0  0  0  0  0  0  0  0  0  0  0  0
  2  1  1  6
  2  3  1  0
  2  4  1  0
  4  5  1  1
  6  4  1  0
  6 11  1  0
  7  6  2  0
  8  9  1  0
 10 11  1  0
 10  9  1  1
 10 12  1  0
 12 13  2  0
 12 19  1  0
 15 14  1  0
 16 17  1  1
 16 15  1  0
 18 16  1  0
 18 19  1  6
 20 22  1  0
 20 18  1  0
 21 20  2  0
M  END
$$$$
