TSI.pdb
     RDKit          3D

 22 21  0  0  1  0  0  0  0  0999 V2000
    9.2138  -12.5775   17.8362 C   0  0  0  0  0  0  0  0  0  0  0  0
    9.0195  -13.1765   19.2105 C   0  0  1  0  0  0  0  0  0  0  0  0
    8.4588  -12.2527   20.0598 O   0  0  0  0  0  0  0  0  0  0  0  0
    8.1704  -14.4237   19.1720 C   0  0  2  0  0  0  0  0  0  0  0  0
    6.8618  -14.1000   18.5848 N   0  0  0  0  0  0  0  0  0  0  0  0
    7.9334  -15.0345   20.4798 C   0  0  0  0  0  0  0  0  0  0  0  0
    6.8492  -14.8486   21.0974 O   0  0  0  0  0  0  0  0  0  0  0  0
    8.9586  -18.7730   21.8822 O   0  0  0  0  0  0  0  0  0  0  0  0
    9.4851  -17.6977   22.5501 C   0  0  0  0  0  0  0  0  0  0  0  0
    8.6243  -16.4464   22.4506 C   0  0  2  0  0  0  0  0  0  0  0  0
    8.8775  -15.8702   21.1546 N   0  0  0  0  0  0  0  0  0  0  0  0
    8.8971  -15.4931   23.5514 C   0  0  0  0  0  0  0  0  0  0  0  0
    9.8090  -14.6468   23.3650 O   0  0  0  0  0  0  0  0  0  0  0  0
    6.8766  -11.3576   26.9571 C   0  0  0  0  0  0  0  0  0  0  0  0
    7.7252  -12.5932   27.1602 C   0  0  0  0  0  0  0  0  0  0  0  0
    7.3876  -13.5844   26.0991 C   0  0  2  0  0  0  0  0  0  0  0  0
    6.2363  -14.4367   26.6280 C   0  0  0  0  0  0  0  0  0  0  0  0
    8.5131  -14.5177   25.7594 C   0  0  2  0  0  0  0  0  0  0  0  0
    8.1876  -15.4965   24.7783 N   0  0  0  0  0  0  0  0  0  0  0  0
    8.8528  -15.2542   27.0294 C   0  0  0  0  0  0  0  0  0  0  0  0
    8.5673  -16.4525   27.1856 O   0  0  0  0  0  0  0  0  0  0  0  0
    9.5061  -14.6092   28.0834 O   0  0  0  0  0  0  0  0  0  0  0  0
  2  1  1  6
  2  3  1  0
  2  4  1  0
  4  5  1  1
  6  4  1  0
  6 11  1  0
  7  6  2  0
  8  9  1  0
 10 11  1  0
 10  9  1  1
 10 12  1  0
 12 13  2  0
 12 19  1  0
 15 14  1  0
 16 17  1  1
 16 15  1  0
 18 16  1  0
 18 19  1  6
 20 22  1  0
 20 18  1  0
 21 20  2  0
M  END
$$$$
