TSI.pdb
     RDKit          3D

 22 21  0  0  1  0  0  0  0  0999 V2000
    7.6542  -17.1237   18.9193 C   0  0  0  0  0  0  0  0  0  0  0  0
    7.5245  -16.8448   20.3994 C   0  0  1  0  0  0  0  0  0  0  0  0
    7.0810  -15.5605   20.6068 O   0  0  0  0  0  0  0  0  0  0  0  0
    6.6035  -17.8252   21.0839 C   0  0  2  0  0  0  0  0  0  0  0  0
    5.2767  -17.7641   20.4530 N   0  0  0  0  0  0  0  0  0  0  0  0
    6.4270  -17.5899   22.5167 C   0  0  0  0  0  0  0  0  0  0  0  0
    5.4062  -16.9934   22.9568 O   0  0  0  0  0  0  0  0  0  0  0  0
    8.3626  -19.4297   26.1972 O   0  0  0  0  0  0  0  0  0  0  0  0
    7.1656  -19.1238   25.6029 C   0  0  0  0  0  0  0  0  0  0  0  0
    7.1616  -17.7626   24.9220 C   0  0  2  0  0  0  0  0  0  0  0  0
    7.3641  -18.0012   23.5157 N   0  0  0  0  0  0  0  0  0  0  0  0
    8.1837  -16.8524   25.4894 C   0  0  0  0  0  0  0  0  0  0  0  0
    9.2801  -16.7685   24.8784 O   0  0  0  0  0  0  0  0  0  0  0  0
    7.1779  -11.9319   27.0527 C   0  0  0  0  0  0  0  0  0  0  0  0
    7.9978  -13.0501   26.4482 C   0  0  0  0  0  0  0  0  0  0  0  0
    8.5692  -13.8739   27.5516 C   0  0  2  0  0  0  0  0  0  0  0  0
    9.7946  -13.1319   28.0801 C   0  0  0  0  0  0  0  0  0  0  0  0
    9.0260  -15.2365   27.1183 C   0  0  2  0  0  0  0  0  0  0  0  0
    7.9799  -16.0897   26.6665 N   0  0  0  0  0  0  0  0  0  0  0  0
    9.6386  -15.8856   28.3326 C   0  0  0  0  0  0  0  0  0  0  0  0
   10.7183  -15.4964   28.8063 O   0  0  0  0  0  0  0  0  0  0  0  0
    9.0076  -16.9563   28.9725 O   0  0  0  0  0  0  0  0  0  0  0  0
  2  1  1  6
  2  3  1  0
  2  4  1  0
  4  5  1  6
  6  4  1  0
  6 11  1  0
  7  6  2  0
  8  9  1  0
 10 11  1  0
 10  9  1  1
 10 12  1  0
 12 13  2  0
 12 19  1  0
 15 14  1  0
 16 17  1  6
 16 15  1  0
 18 16  1  0
 18 19  1  1
 20 22  1  0
 20 18  1  0
 21 20  2  0
M  END
$$$$
