TSI.pdb
     RDKit          3D

 22 21  0  0  1  0  0  0  0  0999 V2000
   10.2623  -14.3946   17.5707 C   0  0  0  0  0  0  0  0  0  0  0  0
    9.7652  -14.5362   18.9913 C   0  0  1  0  0  0  0  0  0  0  0  0
   10.3778  -13.6144   19.8063 O   0  0  0  0  0  0  0  0  0  0  0  0
    8.2658  -14.3922   19.0858 C   0  0  2  0  0  0  0  0  0  0  0  0
    7.8797  -13.0466   18.6361 N   0  0  0  0  0  0  0  0  0  0  0  0
    7.7234  -14.5856   20.4304 C   0  0  0  0  0  0  0  0  0  0  0  0
    7.4050  -13.6003   21.1510 O   0  0  0  0  0  0  0  0  0  0  0  0
    7.7321  -18.2691   22.6970 O   0  0  0  0  0  0  0  0  0  0  0  0
    6.6059  -17.5172   22.4833 C   0  0  0  0  0  0  0  0  0  0  0  0
    6.8950  -16.0316   22.3219 C   0  0  2  0  0  0  0  0  0  0  0  0
    7.5113  -15.8664   21.0302 N   0  0  0  0  0  0  0  0  0  0  0  0
    7.7413  -15.5061   23.4186 C   0  0  0  0  0  0  0  0  0  0  0  0
    8.9454  -15.2624   23.1480 O   0  0  0  0  0  0  0  0  0  0  0  0
    5.6175  -12.0392   26.9227 C   0  0  0  0  0  0  0  0  0  0  0  0
    6.6204  -12.6042   25.9413 C   0  0  0  0  0  0  0  0  0  0  0  0
    7.3826  -13.6957   26.6122 C   0  0  2  0  0  0  0  0  0  0  0  0
    8.4375  -13.0325   27.4946 C   0  0  0  0  0  0  0  0  0  0  0  0
    8.1050  -14.6052   25.6614 C   0  0  2  0  0  0  0  0  0  0  0  0
    7.2592  -15.2721   24.7306 N   0  0  0  0  0  0  0  0  0  0  0  0
    8.7640  -15.6657   26.5053 C   0  0  0  0  0  0  0  0  0  0  0  0
    9.8044  -15.4388   27.1439 O   0  0  0  0  0  0  0  0  0  0  0  0
    8.2227  -16.9510   26.5990 O   0  0  0  0  0  0  0  0  0  0  0  0
  2  1  1  6
  2  3  1  0
  2  4  1  0
  4  5  1  1
  6  4  1  0
  6 11  1  0
  7  6  2  0
  8  9  1  0
 10 11  1  0
 10  9  1  1
 10 12  1  0
 12 13  2  0
 12 19  1  0
 15 14  1  0
 16 17  1  1
 16 15  1  0
 18 16  1  0
 18 19  1  6
 20 22  1  0
 20 18  1  0
 21 20  2  0
M  END
$$$$
