NFM.pdb
     RDKit          3D

 28 28  0  0  1  0  0  0  0  0999 V2000
   26.4477  -20.4800  -16.0286 N   0  0  0  0  0  0  0  0  0  0  0  0
   25.8100  -19.8168  -14.9526 C   0  0  0  0  0  0  0  0  0  0  0  0
   24.6225  -19.4446  -15.1116 O   0  0  0  0  0  0  0  0  0  0  0  0
   26.5841  -19.6037  -13.7070 C   0  0  0  0  0  0  0  0  0  0  0  0
   27.2002  -20.8938  -13.2050 C   0  0  2  0  0  0  0  0  0  0  0  0
   26.8083  -22.0291  -14.0081 N   0  0  0  0  0  0  0  0  0  0  0  0
   26.8347  -21.1188  -11.7748 C   0  0  0  0  0  0  0  0  0  0  0  0
   25.9242  -21.9372  -11.4467 O   0  0  0  0  0  0  0  0  0  0  0  0
   27.4807  -20.4354  -10.7240 N   0  0  0  0  0  0  0  0  0  0  0  0
   27.1824  -20.6271   -9.3195 C   0  0  1  0  0  0  0  0  0  0  0  0
   28.2674  -19.9994   -8.4719 C   0  0  0  0  0  0  0  0  0  0  0  0
   27.9369  -20.0511   -7.0243 C   0  0  0  0  0  0  0  0  0  0  0  0
   27.9437  -21.2460   -6.3199 C   0  0  0  0  0  0  0  0  0  0  0  0
   27.6371  -21.2956   -4.9719 C   0  0  0  0  0  0  0  0  0  0  0  0
   27.3100  -20.1517   -4.2677 C   0  0  0  0  0  0  0  0  0  0  0  0
   27.3012  -18.9610   -4.9609 C   0  0  0  0  0  0  0  0  0  0  0  0
   27.6091  -18.9217   -6.3091 C   0  0  0  0  0  0  0  0  0  0  0  0
   25.8314  -20.1530   -9.0401 C   0  0  0  0  0  0  0  0  0  0  0  0
   25.4552  -19.0426   -9.5312 O   0  0  0  0  0  0  0  0  0  0  0  0
   22.1833  -22.0694  -12.0985 C   0  0  0  0  0  0  0  0  0  0  0  0
   21.1532  -20.6582  -11.6089 S   0  0  0  0  0  0  0  0  0  0  0  0
   21.5051  -20.3675   -9.8281 C   0  0  0  0  0  0  0  0  0  0  0  0
   22.9744  -20.5442   -9.6495 C   0  0  0  0  0  0  0  0  0  0  0  0
   23.4518  -20.4552   -8.2140 C   0  0  2  0  0  0  0  0  0  0  0  0
   24.8703  -20.8190   -8.2603 N   0  0  0  0  0  0  0  0  0  0  0  0
   22.7000  -21.2697   -7.2709 C   0  0  0  0  0  0  0  0  0  0  0  0
   23.1573  -22.3428   -6.7946 O   0  0  0  0  0  0  0  0  0  0  0  0
   21.4356  -20.9058   -6.8441 O   0  0  0  0  0  0  0  0  0  0  0  0
  1  2  1  0
  2  3  2  0
  4  5  1  0
  4  2  1  0
  5  6  1  6
  7  5  1  0
  7  8  2  0
  9  7  1  0
 10  9  1  0
 10 11  1  1
 11 12  1  0
 12 17  2  0
 13 12  1  0
 13 14  2  0
 14 15  1  0
 15 16  2  0
 17 16  1  0
 18 10  1  0
 19 18  2  0
 21 20  1  0
 22 21  1  0
 24 23  1  6
 23 22  1  0
 24 25  1  0
 25 18  1  0
 26 24  1  0
 27 26  2  0
 28 26  1  0
M  END
$$$$
