NFM.pdb
     RDKit          3D

 28 28  0  0  1  0  0  0  0  0999 V2000
   28.2047  -23.4545  -17.3906 N   0  0  0  0  0  0  0  0  0  0  0  0
   27.0274  -22.7682  -17.7744 C   0  0  0  0  0  0  0  0  0  0  0  0
   26.9808  -22.2802  -18.9293 O   0  0  0  0  0  0  0  0  0  0  0  0
   25.9247  -22.6691  -16.7893 C   0  0  0  0  0  0  0  0  0  0  0  0
   26.2881  -23.3318  -15.4760 C   0  0  2  0  0  0  0  0  0  0  0  0
   26.2401  -24.7731  -15.5656 N   0  0  0  0  0  0  0  0  0  0  0  0
   25.3878  -22.8491  -14.3870 C   0  0  0  0  0  0  0  0  0  0  0  0
   24.4856  -23.5929  -13.8977 O   0  0  0  0  0  0  0  0  0  0  0  0
   25.4956  -21.5488  -13.8522 N   0  0  0  0  0  0  0  0  0  0  0  0
   24.6312  -21.0159  -12.8193 C   0  0  1  0  0  0  0  0  0  0  0  0
   25.3182  -19.8666  -12.1145 C   0  0  0  0  0  0  0  0  0  0  0  0
   26.1162  -20.3303  -10.9502 C   0  0  0  0  0  0  0  0  0  0  0  0
   27.3796  -20.8805  -11.1082 C   0  0  0  0  0  0  0  0  0  0  0  0
   28.1241  -21.3118  -10.0250 C   0  0  0  0  0  0  0  0  0  0  0  0
   27.6380  -21.2121   -8.7346 C   0  0  0  0  0  0  0  0  0  0  0  0
   26.3834  -20.6667   -8.5699 C   0  0  0  0  0  0  0  0  0  0  0  0
   25.6466  -20.2383   -9.6596 C   0  0  0  0  0  0  0  0  0  0  0  0
   23.3284  -20.6959  -13.3927 C   0  0  0  0  0  0  0  0  0  0  0  0
   23.2743  -19.9392  -14.4126 O   0  0  0  0  0  0  0  0  0  0  0  0
   20.2090  -24.2578  -16.1120 C   0  0  0  0  0  0  0  0  0  0  0  0
   18.6134  -23.5311  -15.6447 S   0  0  0  0  0  0  0  0  0  0  0  0
   18.9997  -21.8935  -14.9040 C   0  0  0  0  0  0  0  0  0  0  0  0
   20.2969  -22.0458  -14.1858 C   0  0  0  0  0  0  0  0  0  0  0  0
   20.7956  -20.7856  -13.5077 C   0  0  2  0  0  0  0  0  0  0  0  0
   22.0865  -21.1537  -12.9203 N   0  0  0  0  0  0  0  0  0  0  0  0
   19.8809  -20.2188  -12.5280 C   0  0  0  0  0  0  0  0  0  0  0  0
   18.7310  -19.8085  -12.8392 O   0  0  0  0  0  0  0  0  0  0  0  0
   20.2277  -20.1007  -11.1941 O   0  0  0  0  0  0  0  0  0  0  0  0
  1  2  1  0
  2  3  2  0
  4  5  1  0
  4  2  1  0
  5  6  1  6
  7  5  1  0
  7  8  2  0
  9  7  1  0
 10  9  1  0
 10 11  1  6
 11 12  1  0
 12 17  2  0
 13 12  1  0
 13 14  2  0
 14 15  1  0
 15 16  2  0
 17 16  1  0
 18 10  1  0
 19 18  2  0
 21 20  1  0
 22 21  1  0
 24 23  1  1
 23 22  1  0
 24 25  1  0
 25 18  1  0
 26 24  1  0
 27 26  2  0
 28 26  1  0
M  END
$$$$
