NFM.pdb
     RDKit          3D

 28 28  0  0  1  0  0  0  0  0999 V2000
   28.2868  -18.6729  -18.5370 N   0  0  0  0  0  0  0  0  0  0  0  0
   27.1525  -19.3629  -19.0286 C   0  0  0  0  0  0  0  0  0  0  0  0
   26.4966  -18.8309  -19.9565 O   0  0  0  0  0  0  0  0  0  0  0  0
   26.8109  -20.6689  -18.4173 C   0  0  0  0  0  0  0  0  0  0  0  0
   27.7579  -21.0217  -17.2884 C   0  0  2  0  0  0  0  0  0  0  0  0
   28.6267  -22.1230  -17.6349 N   0  0  0  0  0  0  0  0  0  0  0  0
   26.9888  -21.3377  -16.0482 C   0  0  0  0  0  0  0  0  0  0  0  0
   26.1233  -22.2635  -16.0256 O   0  0  0  0  0  0  0  0  0  0  0  0
   27.1857  -20.6256  -14.8471 N   0  0  0  0  0  0  0  0  0  0  0  0
   26.4668  -20.8843  -13.6165 C   0  0  1  0  0  0  0  0  0  0  0  0
   27.2433  -20.3334  -12.4404 C   0  0  0  0  0  0  0  0  0  0  0  0
   26.4786  -20.4466  -11.1717 C   0  0  0  0  0  0  0  0  0  0  0  0
   25.7590  -19.3771  -10.6593 C   0  0  0  0  0  0  0  0  0  0  0  0
   25.0458  -19.4813   -9.4786 C   0  0  0  0  0  0  0  0  0  0  0  0
   25.0202  -20.6604   -8.7572 C   0  0  0  0  0  0  0  0  0  0  0  0
   25.7329  -21.7271   -9.2600 C   0  0  0  0  0  0  0  0  0  0  0  0
   26.4432  -21.6129  -10.4417 C   0  0  0  0  0  0  0  0  0  0  0  0
   25.1001  -20.3887  -13.7383 C   0  0  0  0  0  0  0  0  0  0  0  0
   24.9128  -19.1767  -14.0725 O   0  0  0  0  0  0  0  0  0  0  0  0
   21.3077  -22.4474  -17.1861 C   0  0  0  0  0  0  0  0  0  0  0  0
   19.8383  -21.8040  -16.3379 S   0  0  0  0  0  0  0  0  0  0  0  0
   20.4628  -20.8467  -14.8979 C   0  0  0  0  0  0  0  0  0  0  0  0
   21.8827  -21.2543  -14.6986 C   0  0  0  0  0  0  0  0  0  0  0  0
   22.5780  -20.5744  -13.5363 C   0  0  2  0  0  0  0  0  0  0  0  0
   23.9308  -21.1370  -13.5191 N   0  0  0  0  0  0  0  0  0  0  0  0
   21.9016  -20.7154  -12.2555 C   0  0  0  0  0  0  0  0  0  0  0  0
   20.9182  -19.9976  -11.9311 O   0  0  0  0  0  0  0  0  0  0  0  0
   22.3046  -21.6520  -11.3208 O   0  0  0  0  0  0  0  0  0  0  0  0
  1  2  1  0
  2  3  2  0
  4  5  1  0
  4  2  1  0
  5  6  1  6
  7  5  1  0
  7  8  2  0
  9  7  1  0
 10  9  1  0
 10 11  1  1
 11 12  1  0
 12 17  2  0
 13 12  1  0
 13 14  2  0
 14 15  1  0
 15 16  2  0
 17 16  1  0
 18 10  1  0
 19 18  2  0
 21 20  1  0
 22 21  1  0
 24 23  1  6
 23 22  1  0
 24 25  1  0
 25 18  1  0
 26 24  1  0
 27 26  2  0
 28 26  1  0
M  END
$$$$
