NFM.pdb
     RDKit          3D

 28 28  0  0  1  0  0  0  0  0999 V2000
   35.2986  -21.6722  -19.9387 N   0  0  0  0  0  0  0  0  0  0  0  0
   35.5699  -22.7741  -20.7852 C   0  0  0  0  0  0  0  0  0  0  0  0
   35.4596  -22.6059  -22.0236 O   0  0  0  0  0  0  0  0  0  0  0  0
   35.9670  -24.0560  -20.1566 C   0  0  0  0  0  0  0  0  0  0  0  0
   35.9172  -23.9752  -18.6443 C   0  0  2  0  0  0  0  0  0  0  0  0
   37.1728  -23.5308  -18.0844 N   0  0  0  0  0  0  0  0  0  0  0  0
   35.5314  -25.2978  -18.0686 C   0  0  0  0  0  0  0  0  0  0  0  0
   36.3744  -26.2366  -17.9472 O   0  0  0  0  0  0  0  0  0  0  0  0
   34.2171  -25.5668  -17.6339 N   0  0  0  0  0  0  0  0  0  0  0  0
   33.7704  -26.8478  -17.1266 C   0  0  1  0  0  0  0  0  0  0  0  0
   32.8430  -26.6408  -15.9490 C   0  0  0  0  0  0  0  0  0  0  0  0
   33.5500  -26.0418  -14.7876 C   0  0  0  0  0  0  0  0  0  0  0  0
   33.2028  -24.7943  -14.2904 C   0  0  0  0  0  0  0  0  0  0  0  0
   33.8595  -24.2356  -13.2087 C   0  0  0  0  0  0  0  0  0  0  0  0
   34.8933  -24.9002  -12.5754 C   0  0  0  0  0  0  0  0  0  0  0  0
   35.2438  -26.1399  -13.0638 C   0  0  0  0  0  0  0  0  0  0  0  0
   34.5810  -26.6901  -14.1464 C   0  0  0  0  0  0  0  0  0  0  0  0
   33.2110  -27.6356  -18.2196 C   0  0  0  0  0  0  0  0  0  0  0  0
   33.1168  -27.1083  -19.3724 O   0  0  0  0  0  0  0  0  0  0  0  0
   34.5699  -29.8673  -23.7490 C   0  0  0  0  0  0  0  0  0  0  0  0
   34.9894  -30.7746  -22.2346 S   0  0  0  0  0  0  0  0  0  0  0  0
   33.4336  -30.8824  -21.2611 C   0  0  0  0  0  0  0  0  0  0  0  0
   33.5748  -29.9279  -20.1249 C   0  0  0  0  0  0  0  0  0  0  0  0
   32.3295  -29.7670  -19.2763 C   0  0  2  0  0  0  0  0  0  0  0  0
   32.7519  -28.9607  -18.1281 N   0  0  0  0  0  0  0  0  0  0  0  0
   31.7001  -31.0165  -18.8761 C   0  0  0  0  0  0  0  0  0  0  0  0
   30.9326  -31.6589  -19.6414 O   0  0  0  0  0  0  0  0  0  0  0  0
   31.9134  -31.5693  -17.6262 O   0  0  0  0  0  0  0  0  0  0  0  0
  1  2  1  0
  2  3  2  0
  4  5  1  0
  4  2  1  0
  5  6  1  1
  7  5  1  0
  7  8  2  0
  9  7  1  0
 10  9  1  0
 10 11  1  1
 11 12  1  0
 12 17  2  0
 13 12  1  0
 13 14  2  0
 14 15  1  0
 15 16  2  0
 17 16  1  0
 18 10  1  0
 19 18  2  0
 21 20  1  0
 22 21  1  0
 24 23  1  6
 23 22  1  0
 24 25  1  0
 25 18  1  0
 26 24  1  0
 27 26  2  0
 28 26  1  0
M  END
$$$$
