NFM.pdb
     RDKit          3D

 28 28  0  0  1  0  0  0  0  0999 V2000
   28.2555  -17.3518  -18.9985 N   0  0  0  0  0  0  0  0  0  0  0  0
   27.0957  -18.0886  -19.3397 C   0  0  0  0  0  0  0  0  0  0  0  0
   26.6818  -18.0203  -20.5222 O   0  0  0  0  0  0  0  0  0  0  0  0
   26.4435  -18.8937  -18.2802 C   0  0  0  0  0  0  0  0  0  0  0  0
   27.4022  -19.8970  -17.6716 C   0  0  2  0  0  0  0  0  0  0  0  0
   27.7708  -20.9316  -18.6104 N   0  0  0  0  0  0  0  0  0  0  0  0
   26.8073  -20.4999  -16.4419 C   0  0  0  0  0  0  0  0  0  0  0  0
   26.0361  -21.5038  -16.5052 O   0  0  0  0  0  0  0  0  0  0  0  0
   27.0723  -19.9850  -15.1561 N   0  0  0  0  0  0  0  0  0  0  0  0
   26.4562  -20.4707  -13.9385 C   0  0  1  0  0  0  0  0  0  0  0  0
   27.2247  -19.9678  -12.7360 C   0  0  0  0  0  0  0  0  0  0  0  0
   26.5066  -20.2463  -11.4654 C   0  0  0  0  0  0  0  0  0  0  0  0
   25.8023  -19.2559  -10.7969 C   0  0  0  0  0  0  0  0  0  0  0  0
   25.1325  -19.5139   -9.6144 C   0  0  0  0  0  0  0  0  0  0  0  0
   25.1372  -20.7748   -9.0473 C   0  0  0  0  0  0  0  0  0  0  0  0
   25.8350  -21.7637   -9.7058 C   0  0  0  0  0  0  0  0  0  0  0  0
   26.5018  -21.4957  -10.8880 C   0  0  0  0  0  0  0  0  0  0  0  0
   25.0361  -20.1366  -13.9453 C   0  0  0  0  0  0  0  0  0  0  0  0
   24.6878  -18.9357  -14.1738 O   0  0  0  0  0  0  0  0  0  0  0  0
   21.2336  -22.3850  -17.3902 C   0  0  0  0  0  0  0  0  0  0  0  0
   19.8209  -22.2049  -16.2659 S   0  0  0  0  0  0  0  0  0  0  0  0
   20.4170  -21.1764  -14.8636 C   0  0  0  0  0  0  0  0  0  0  0  0
   21.8822  -21.4238  -14.7461 C   0  0  0  0  0  0  0  0  0  0  0  0
   22.5685  -20.6428  -13.6436 C   0  0  2  0  0  0  0  0  0  0  0  0
   23.9784  -21.0341  -13.7197 N   0  0  0  0  0  0  0  0  0  0  0  0
   22.0074  -20.8430  -12.3159 C   0  0  0  0  0  0  0  0  0  0  0  0
   21.0833  -20.1184  -11.8594 O   0  0  0  0  0  0  0  0  0  0  0  0
   22.4614  -21.8469  -11.4796 O   0  0  0  0  0  0  0  0  0  0  0  0
  1  2  1  0
  2  3  2  0
  4  5  1  0
  4  2  1  0
  5  6  1  6
  7  5  1  0
  7  8  2  0
  9  7  1  0
 10  9  1  0
 10 11  1  1
 11 12  1  0
 12 17  2  0
 13 12  1  0
 13 14  2  0
 14 15  1  0
 15 16  2  0
 17 16  1  0
 18 10  1  0
 19 18  2  0
 21 20  1  0
 22 21  1  0
 24 23  1  6
 23 22  1  0
 24 25  1  0
 25 18  1  0
 26 24  1  0
 27 26  2  0
 28 26  1  0
M  END
$$$$
