NFM.pdb
     RDKit          3D

 28 28  0  0  1  0  0  0  0  0999 V2000
   28.3575  -21.0791  -19.0648 N   0  0  0  0  0  0  0  0  0  0  0  0
   27.1200  -21.7539  -19.1982 C   0  0  0  0  0  0  0  0  0  0  0  0
   26.6050  -21.8183  -20.3405 O   0  0  0  0  0  0  0  0  0  0  0  0
   26.5109  -22.3415  -17.9818 C   0  0  0  0  0  0  0  0  0  0  0  0
   27.3429  -22.0574  -16.7477 C   0  0  2  0  0  0  0  0  0  0  0  0
   28.5015  -22.9169  -16.6664 N   0  0  0  0  0  0  0  0  0  0  0  0
   26.5072  -22.1950  -15.5180 C   0  0  0  0  0  0  0  0  0  0  0  0
   26.3147  -23.3231  -14.9731 O   0  0  0  0  0  0  0  0  0  0  0  0
   25.8937  -21.0829  -14.9054 N   0  0  0  0  0  0  0  0  0  0  0  0
   25.2379  -21.1198  -13.6144 C   0  0  1  0  0  0  0  0  0  0  0  0
   25.8147  -20.0504  -12.7125 C   0  0  0  0  0  0  0  0  0  0  0  0
   27.1552  -20.4281  -12.1950 C   0  0  0  0  0  0  0  0  0  0  0  0
   27.3011  -21.2341  -11.0756 C   0  0  0  0  0  0  0  0  0  0  0  0
   28.5485  -21.5873  -10.5931 C   0  0  0  0  0  0  0  0  0  0  0  0
   29.7064  -21.1502  -11.2092 C   0  0  0  0  0  0  0  0  0  0  0  0
   29.5693  -20.3491  -12.3218 C   0  0  0  0  0  0  0  0  0  0  0  0
   28.3173  -20.0012  -12.7965 C   0  0  0  0  0  0  0  0  0  0  0  0
   23.7925  -21.0538  -13.8010 C   0  0  0  0  0  0  0  0  0  0  0  0
   23.2842  -20.0013  -14.3007 O   0  0  0  0  0  0  0  0  0  0  0  0
   21.4889  -26.1771  -13.1384 C   0  0  0  0  0  0  0  0  0  0  0  0
   21.4934  -25.6845  -14.8847 S   0  0  0  0  0  0  0  0  0  0  0  0
   20.6838  -24.0351  -14.9482 C   0  0  0  0  0  0  0  0  0  0  0  0
   20.9197  -23.3933  -13.6238 C   0  0  0  0  0  0  0  0  0  0  0  0
   21.4281  -21.9674  -13.6941 C   0  0  2  0  0  0  0  0  0  0  0  0
   22.8737  -22.0666  -13.4767 N   0  0  0  0  0  0  0  0  0  0  0  0
   20.7888  -21.0467  -12.7660 C   0  0  0  0  0  0  0  0  0  0  0  0
   19.7455  -20.4065  -13.0643 O   0  0  0  0  0  0  0  0  0  0  0  0
   21.2958  -20.8252  -11.4982 O   0  0  0  0  0  0  0  0  0  0  0  0
  1  2  1  0
  2  3  2  0
  4  5  1  0
  4  2  1  0
  5  6  1  1
  7  5  1  0
  7  8  2  0
  9  7  1  0
 10  9  1  0
 10 11  1  1
 11 12  1  0
 12 17  2  0
 13 12  1  0
 13 14  2  0
 14 15  1  0
 15 16  2  0
 17 16  1  0
 18 10  1  0
 19 18  2  0
 21 20  1  0
 22 21  1  0
 24 23  1  1
 23 22  1  0
 24 25  1  0
 25 18  1  0
 26 24  1  0
 27 26  2  0
 28 26  1  0
M  END
$$$$
