FVF.pdb
     RDKit          3D

 30 31  0  0  1  0  0  0  0  0999 V2000
   27.3312  -20.3988  -16.7522 N   0  0  0  0  0  0  0  0  0  0  0  0
   26.3703  -21.4172  -16.3276 C   0  0  1  0  0  0  0  0  0  0  0  0
   26.9073  -22.1392  -15.1108 C   0  0  0  0  0  0  0  0  0  0  0  0
   27.9440  -23.0867  -15.5825 C   0  0  0  0  0  0  0  0  0  0  0  0
   27.6546  -24.2647  -16.2282 C   0  0  0  0  0  0  0  0  0  0  0  0
   28.6672  -25.1290  -16.6557 C   0  0  0  0  0  0  0  0  0  0  0  0
   29.9911  -24.7811  -16.4183 C   0  0  0  0  0  0  0  0  0  0  0  0
   30.2842  -23.6168  -15.7800 C   0  0  0  0  0  0  0  0  0  0  0  0
   29.2697  -22.7792  -15.3669 C   0  0  0  0  0  0  0  0  0  0  0  0
   25.1041  -20.6949  -16.0322 C   0  0  0  0  0  0  0  0  0  0  0  0
   25.1977  -19.6836  -15.2721 O   0  0  0  0  0  0  0  0  0  0  0  0
   20.6180  -19.2087  -17.1792 C   0  0  0  0  0  0  0  0  0  0  0  0
   21.9925  -19.7639  -17.4031 C   0  0  1  0  0  0  0  0  0  0  0  0
   22.8591  -18.6191  -17.9099 C   0  0  0  0  0  0  0  0  0  0  0  0
   22.5998  -20.4000  -16.1772 C   0  0  2  0  0  0  0  0  0  0  0  0
   23.8454  -21.0847  -16.5521 N   0  0  0  0  0  0  0  0  0  0  0  0
   21.7481  -21.3655  -15.4877 C   0  0  0  0  0  0  0  0  0  0  0  0
   21.4907  -22.4689  -16.0895 O   0  0  0  0  0  0  0  0  0  0  0  0
   21.1570  -21.2456  -14.2151 N   0  0  0  0  0  0  0  0  0  0  0  0
   20.2427  -22.2578  -13.6809 C   0  0  1  0  0  0  0  0  0  0  0  0
   20.6734  -22.5475  -12.2785 C   0  0  0  0  0  0  0  0  0  0  0  0
   20.6178  -21.4090  -11.3562 C   0  0  0  0  0  0  0  0  0  0  0  0
   21.7012  -20.5484  -11.3068 C   0  0  0  0  0  0  0  0  0  0  0  0
   21.6722  -19.4722  -10.4571 C   0  0  0  0  0  0  0  0  0  0  0  0
   20.5601  -19.2670   -9.6651 C   0  0  0  0  0  0  0  0  0  0  0  0
   19.4785  -20.1321   -9.7190 C   0  0  0  0  0  0  0  0  0  0  0  0
   19.5000  -21.2143  -10.5692 C   0  0  0  0  0  0  0  0  0  0  0  0
   18.8655  -21.7259  -13.7315 C   0  0  0  0  0  0  0  0  0  0  0  0
   17.7732  -22.5637  -13.6725 O   0  0  0  0  0  0  0  0  0  0  0  0
   18.6510  -20.4971  -13.8304 O   0  0  0  0  0  0  0  0  0  0  0  0
  2 10  1  0
  2  1  1  1
  3  4  1  0
  3  2  1  0
  4  9  1  0
  5  4  2  0
  5  6  1  0
  6  7  2  0
  7  8  1  0
  9  8  2  0
 10 11  2  0
 13 12  1  1
 13 14  1  0
 15 13  1  0
 15 16  1  6
 16 10  1  0
 17 18  2  0
 17 15  1  0
 19 17  1  0
 20 19  1  0
 21 22  1  0
 20 21  1  1
 22 27  1  0
 23 22  2  0
 23 24  1  0
 24 25  2  0
 25 26  1  0
 27 26  2  0
 28 29  1  0
 28 20  1  0
 30 28  2  0
M  END
$$$$
