FVF.pdb
     RDKit          3D

 30 31  0  0  1  0  0  0  0  0999 V2000
   24.7097  -19.5738  -15.6996 N   0  0  0  0  0  0  0  0  0  0  0  0
   25.0450  -18.8597  -14.4674 C   0  0  1  0  0  0  0  0  0  0  0  0
   23.7912  -18.2433  -13.8861 C   0  0  0  0  0  0  0  0  0  0  0  0
   23.4531  -17.0647  -14.7179 C   0  0  0  0  0  0  0  0  0  0  0  0
   22.2752  -16.9437  -15.4150 C   0  0  0  0  0  0  0  0  0  0  0  0
   21.9992  -15.8117  -16.1881 C   0  0  0  0  0  0  0  0  0  0  0  0
   22.9417  -14.7928  -16.2468 C   0  0  0  0  0  0  0  0  0  0  0  0
   24.1094  -14.9064  -15.5592 C   0  0  0  0  0  0  0  0  0  0  0  0
   24.3610  -16.0317  -14.8029 C   0  0  0  0  0  0  0  0  0  0  0  0
   25.6442  -19.8685  -13.5535 C   0  0  0  0  0  0  0  0  0  0  0  0
   25.1553  -21.0378  -13.6084 O   0  0  0  0  0  0  0  0  0  0  0  0
   29.5167  -21.4064  -10.9008 C   0  0  0  0  0  0  0  0  0  0  0  0
   28.8038  -20.4880  -11.8475 C   0  0  1  0  0  0  0  0  0  0  0  0
   29.3269  -20.7933  -13.2444 C   0  0  0  0  0  0  0  0  0  0  0  0
   27.3007  -20.6062  -11.7952 C   0  0  2  0  0  0  0  0  0  0  0  0
   26.7025  -19.5773  -12.6580 N   0  0  0  0  0  0  0  0  0  0  0  0
   26.7098  -20.4748  -10.4660 C   0  0  0  0  0  0  0  0  0  0  0  0
   26.3047  -19.3118  -10.1068 O   0  0  0  0  0  0  0  0  0  0  0  0
   26.5177  -21.4815   -9.5001 N   0  0  0  0  0  0  0  0  0  0  0  0
   25.9184  -21.2042   -8.1926 C   0  0  1  0  0  0  0  0  0  0  0  0
   26.4721  -19.8981   -7.7198 C   0  0  0  0  0  0  0  0  0  0  0  0
   27.4372  -19.9861   -6.6194 C   0  0  0  0  0  0  0  0  0  0  0  0
   28.1817  -18.8618   -6.3053 C   0  0  0  0  0  0  0  0  0  0  0  0
   29.0870  -18.9156   -5.2765 C   0  0  0  0  0  0  0  0  0  0  0  0
   29.2390  -20.0930   -4.5716 C   0  0  0  0  0  0  0  0  0  0  0  0
   28.4907  -21.2152   -4.8907 C   0  0  0  0  0  0  0  0  0  0  0  0
   27.5801  -21.1692   -5.9218 C   0  0  0  0  0  0  0  0  0  0  0  0
   24.4500  -21.1526   -8.3460 C   0  0  0  0  0  0  0  0  0  0  0  0
   23.8622  -21.1201   -9.5917 O   0  0  0  0  0  0  0  0  0  0  0  0
   23.6966  -21.1363   -7.3471 O   0  0  0  0  0  0  0  0  0  0  0  0
  2 10  1  0
  2  1  1  6
  3  4  1  0
  3  2  1  0
  4  9  1  0
  5  4  2  0
  5  6  1  0
  6  7  2  0
  7  8  1  0
  9  8  2  0
 10 11  2  0
 13 12  1  1
 13 14  1  0
 15 13  1  0
 15 16  1  6
 16 10  1  0
 17 18  2  0
 17 15  1  0
 19 17  1  0
 20 19  1  0
 21 22  1  0
 20 21  1  6
 22 27  1  0
 23 22  2  0
 23 24  1  0
 24 25  2  0
 25 26  1  0
 27 26  2  0
 28 29  1  0
 28 20  1  0
 30 28  2  0
M  END
$$$$
