FVF.pdb
     RDKit          3D

 30 31  0  0  1  0  0  0  0  0999 V2000
   27.9472  -20.9663  -10.1724 N   0  0  0  0  0  0  0  0  0  0  0  0
   26.5043  -20.8839   -9.9448 C   0  0  1  0  0  0  0  0  0  0  0  0
   26.1765  -19.5732   -9.2632 C   0  0  0  0  0  0  0  0  0  0  0  0
   26.8044  -19.6051   -7.9216 C   0  0  0  0  0  0  0  0  0  0  0  0
   27.8938  -18.8413   -7.5780 C   0  0  0  0  0  0  0  0  0  0  0  0
   28.4535  -18.9047   -6.2982 C   0  0  0  0  0  0  0  0  0  0  0  0
   27.8895  -19.7609   -5.3606 C   0  0  0  0  0  0  0  0  0  0  0  0
   26.8115  -20.5194   -5.6944 C   0  0  0  0  0  0  0  0  0  0  0  0
   26.2755  -20.4411   -6.9626 C   0  0  0  0  0  0  0  0  0  0  0  0
   25.8666  -20.9891  -11.2844 C   0  0  0  0  0  0  0  0  0  0  0  0
   26.2931  -20.1921  -12.1744 O   0  0  0  0  0  0  0  0  0  0  0  0
   23.7766  -23.4036  -14.9073 C   0  0  0  0  0  0  0  0  0  0  0  0
   24.4636  -23.2468  -13.5839 C   0  0  1  0  0  0  0  0  0  0  0  0
   25.9568  -23.4066  -13.8346 C   0  0  0  0  0  0  0  0  0  0  0  0
   24.1680  -21.9374  -12.8953 C   0  0  2  0  0  0  0  0  0  0  0  0
   24.8379  -21.9148  -11.5871 N   0  0  0  0  0  0  0  0  0  0  0  0
   22.7522  -21.6515  -12.6784 C   0  0  0  0  0  0  0  0  0  0  0  0
   22.1506  -22.2963  -11.7467 O   0  0  0  0  0  0  0  0  0  0  0  0
   21.9371  -20.7364  -13.3723 N   0  0  0  0  0  0  0  0  0  0  0  0
   20.5160  -20.5656  -13.0610 C   0  0  1  0  0  0  0  0  0  0  0  0
   20.2428  -19.0957  -13.0311 C   0  0  0  0  0  0  0  0  0  0  0  0
   20.5436  -18.3753  -14.2723 C   0  0  0  0  0  0  0  0  0  0  0  0
   19.5521  -18.2782  -15.2338 C   0  0  0  0  0  0  0  0  0  0  0  0
   19.8054  -17.6045  -16.4013 C   0  0  0  0  0  0  0  0  0  0  0  0
   21.0477  -17.0344  -16.5960 C   0  0  0  0  0  0  0  0  0  0  0  0
   22.0363  -17.1349  -15.6297 C   0  0  0  0  0  0  0  0  0  0  0  0
   21.7897  -17.8093  -14.4554 C   0  0  0  0  0  0  0  0  0  0  0  0
   19.7181  -21.2494  -14.0993 C   0  0  0  0  0  0  0  0  0  0  0  0
   20.2913  -21.6703  -15.2794 O   0  0  0  0  0  0  0  0  0  0  0  0
   18.4964  -21.4657  -13.9369 O   0  0  0  0  0  0  0  0  0  0  0  0
  2 10  1  0
  2  1  1  6
  3  4  1  0
  3  2  1  0
  4  9  1  0
  5  4  2  0
  5  6  1  0
  6  7  2  0
  7  8  1  0
  9  8  2  0
 10 11  2  0
 13 12  1  6
 13 14  1  0
 15 13  1  0
 15 16  1  1
 16 10  1  0
 17 18  2  0
 17 15  1  0
 19 17  1  0
 20 19  1  0
 21 22  1  0
 20 21  1  6
 22 27  1  0
 23 22  2  0
 23 24  1  0
 24 25  2  0
 25 26  1  0
 27 26  2  0
 28 29  1  0
 28 20  1  0
 30 28  2  0
M  END
$$$$
