FVF.pdb
     RDKit          3D

 30 31  0  0  1  0  0  0  0  0999 V2000
   26.2964  -20.9883  -17.8664 N   0  0  0  0  0  0  0  0  0  0  0  0
   25.7501  -20.0064  -16.9294 C   0  0  1  0  0  0  0  0  0  0  0  0
   24.5810  -19.2930  -17.5731 C   0  0  0  0  0  0  0  0  0  0  0  0
   25.1343  -18.3713  -18.5926 C   0  0  0  0  0  0  0  0  0  0  0  0
   25.2257  -18.6863  -19.9271 C   0  0  0  0  0  0  0  0  0  0  0  0
   25.7560  -17.7836  -20.8540 C   0  0  0  0  0  0  0  0  0  0  0  0
   26.1973  -16.5444  -20.4072 C   0  0  0  0  0  0  0  0  0  0  0  0
   26.1096  -16.2266  -19.0881 C   0  0  0  0  0  0  0  0  0  0  0  0
   25.5831  -17.1321  -18.1911 C   0  0  0  0  0  0  0  0  0  0  0  0
   25.3389  -20.7703  -15.7213 C   0  0  0  0  0  0  0  0  0  0  0  0
   24.9008  -21.9441  -15.9203 O   0  0  0  0  0  0  0  0  0  0  0  0
   25.3574  -21.4539  -10.8146 C   0  0  0  0  0  0  0  0  0  0  0  0
   25.8566  -20.8533  -12.0944 C   0  0  1  0  0  0  0  0  0  0  0  0
   27.1809  -21.5310  -12.4187 C   0  0  0  0  0  0  0  0  0  0  0  0
   24.8887  -20.9792  -13.2448 C   0  0  2  0  0  0  0  0  0  0  0  0
   25.4176  -20.2497  -14.4062 N   0  0  0  0  0  0  0  0  0  0  0  0
   23.5394  -20.4857  -12.9826 C   0  0  0  0  0  0  0  0  0  0  0  0
   23.3671  -19.2150  -12.9445 O   0  0  0  0  0  0  0  0  0  0  0  0
   22.3695  -21.2381  -12.7621 N   0  0  0  0  0  0  0  0  0  0  0  0
   21.0616  -20.6078  -12.5673 C   0  0  1  0  0  0  0  0  0  0  0  0
   20.7664  -19.8110  -13.7978 C   0  0  0  0  0  0  0  0  0  0  0  0
   20.5016  -20.5971  -15.0069 C   0  0  0  0  0  0  0  0  0  0  0  0
   21.5783  -21.0029  -15.7771 C   0  0  0  0  0  0  0  0  0  0  0  0
   21.3587  -21.7444  -16.9097 C   0  0  0  0  0  0  0  0  0  0  0  0
   20.0646  -22.0730  -17.2613 C   0  0  0  0  0  0  0  0  0  0  0  0
   18.9908  -21.6639  -16.4862 C   0  0  0  0  0  0  0  0  0  0  0  0
   19.2030  -20.9195  -15.3480 C   0  0  0  0  0  0  0  0  0  0  0  0
   20.0544  -21.6654  -12.3456 C   0  0  0  0  0  0  0  0  0  0  0  0
   20.3922  -22.9995  -12.4127 O   0  0  0  0  0  0  0  0  0  0  0  0
   18.8631  -21.3795  -12.0908 O   0  0  0  0  0  0  0  0  0  0  0  0
  2 10  1  0
  2  1  1  6
  3  4  1  0
  3  2  1  0
  4  9  1  0
  5  4  2  0
  5  6  1  0
  6  7  2  0
  7  8  1  0
  9  8  2  0
 10 11  2  0
 13 12  1  1
 13 14  1  0
 15 13  1  0
 15 16  1  6
 16 10  1  0
 17 18  2  0
 17 15  1  0
 19 17  1  0
 20 19  1  0
 21 22  1  0
 20 21  1  6
 22 27  1  0
 23 22  2  0
 23 24  1  0
 24 25  2  0
 25 26  1  0
 27 26  2  0
 28 29  1  0
 28 20  1  0
 30 28  2  0
M  END
$$$$
