FVF.pdb
     RDKit          3D

 30 31  0  0  1  0  0  0  0  0999 V2000
   23.2879  -20.2968  -15.5959 N   0  0  0  0  0  0  0  0  0  0  0  0
   23.5993  -19.6000  -14.3476 C   0  0  1  0  0  0  0  0  0  0  0  0
   22.3405  -19.4673  -13.5181 C   0  0  0  0  0  0  0  0  0  0  0  0
   21.4371  -18.5365  -14.2340 C   0  0  0  0  0  0  0  0  0  0  0  0
   21.7308  -17.2110  -14.4465 C   0  0  0  0  0  0  0  0  0  0  0  0
   20.8465  -16.3691  -15.1281 C   0  0  0  0  0  0  0  0  0  0  0  0
   19.6480  -16.8926  -15.5969 C   0  0  0  0  0  0  0  0  0  0  0  0
   19.3515  -18.2034  -15.3899 C   0  0  0  0  0  0  0  0  0  0  0  0
   20.2383  -19.0158  -14.7150 C   0  0  0  0  0  0  0  0  0  0  0  0
   24.6335  -20.4201  -13.6619 C   0  0  0  0  0  0  0  0  0  0  0  0
   24.4425  -21.6741  -13.6538 O   0  0  0  0  0  0  0  0  0  0  0  0
   29.2995  -21.0138  -12.2334 C   0  0  0  0  0  0  0  0  0  0  0  0
   28.1650  -20.3183  -12.9239 C   0  0  1  0  0  0  0  0  0  0  0  0
   28.2893  -20.6284  -14.4094 C   0  0  0  0  0  0  0  0  0  0  0  0
   26.8038  -20.7074  -12.4023 C   0  0  2  0  0  0  0  0  0  0  0  0
   25.7808  -19.8674  -13.0414 N   0  0  0  0  0  0  0  0  0  0  0  0
   26.6344  -20.5971  -10.9559 C   0  0  0  0  0  0  0  0  0  0  0  0
   26.4460  -19.4264  -10.4661 O   0  0  0  0  0  0  0  0  0  0  0  0
   26.6480  -21.6319  -10.0007 N   0  0  0  0  0  0  0  0  0  0  0  0
   26.6773  -21.3642   -8.5609 C   0  0  1  0  0  0  0  0  0  0  0  0
   27.8787  -20.5152   -8.2927 C   0  0  0  0  0  0  0  0  0  0  0  0
   28.1027  -20.1700   -6.8853 C   0  0  0  0  0  0  0  0  0  0  0  0
   27.7182  -18.9144   -6.4463 C   0  0  0  0  0  0  0  0  0  0  0  0
   27.9109  -18.5685   -5.1332 C   0  0  0  0  0  0  0  0  0  0  0  0
   28.4861  -19.4813   -4.2718 C   0  0  0  0  0  0  0  0  0  0  0  0
   28.8689  -20.7369   -4.7172 C   0  0  0  0  0  0  0  0  0  0  0  0
   28.6788  -21.0916   -6.0335 C   0  0  0  0  0  0  0  0  0  0  0  0
   25.4260  -20.6771   -8.1812 C   0  0  0  0  0  0  0  0  0  0  0  0
   24.8448  -20.8800   -6.9485 O   0  0  0  0  0  0  0  0  0  0  0  0
   24.8564  -19.8902   -8.9700 O   0  0  0  0  0  0  0  0  0  0  0  0
  2 10  1  0
  2  1  1  6
  3  4  1  0
  3  2  1  0
  4  9  1  0
  5  4  2  0
  5  6  1  0
  6  7  2  0
  7  8  1  0
  9  8  2  0
 10 11  2  0
 13 12  1  1
 13 14  1  0
 15 13  1  0
 15 16  1  6
 16 10  1  0
 17 18  2  0
 17 15  1  0
 19 17  1  0
 20 19  1  0
 21 22  1  0
 20 21  1  6
 22 27  1  0
 23 22  2  0
 23 24  1  0
 24 25  2  0
 25 26  1  0
 27 26  2  0
 28 29  1  0
 28 20  1  0
 30 28  2  0
M  END
$$$$
