FVF.pdb
     RDKit          3D

 30 31  0  0  1  0  0  0  0  0999 V2000
   24.3141  -17.2419  -17.2182 N   0  0  0  0  0  0  0  0  0  0  0  0
   25.0822  -18.0054  -16.2344 C   0  0  1  0  0  0  0  0  0  0  0  0
   26.0886  -17.0948  -15.5652 C   0  0  0  0  0  0  0  0  0  0  0  0
   27.2398  -16.9570  -16.4877 C   0  0  0  0  0  0  0  0  0  0  0  0
   28.0648  -18.0015  -16.8291 C   0  0  0  0  0  0  0  0  0  0  0  0
   29.1406  -17.8241  -17.7044 C   0  0  0  0  0  0  0  0  0  0  0  0
   29.3728  -16.5615  -18.2354 C   0  0  0  0  0  0  0  0  0  0  0  0
   28.5601  -15.5236  -17.9015 C   0  0  0  0  0  0  0  0  0  0  0  0
   27.5047  -15.7211  -17.0362 C   0  0  0  0  0  0  0  0  0  0  0  0
   24.0922  -18.5476  -15.2658 C   0  0  0  0  0  0  0  0  0  0  0  0
   23.2187  -17.7329  -14.8390 O   0  0  0  0  0  0  0  0  0  0  0  0
   21.2425  -22.0070  -13.4897 C   0  0  0  0  0  0  0  0  0  0  0  0
   22.2689  -21.4483  -14.4290 C   0  0  1  0  0  0  0  0  0  0  0  0
   21.5193  -20.9079  -15.6390 C   0  0  0  0  0  0  0  0  0  0  0  0
   23.1420  -20.3828  -13.8136 C   0  0  2  0  0  0  0  0  0  0  0  0
   24.0932  -19.8928  -14.8216 N   0  0  0  0  0  0  0  0  0  0  0  0
   23.9071  -20.8019  -12.6423 C   0  0  0  0  0  0  0  0  0  0  0  0
   24.5686  -21.8980  -12.7242 O   0  0  0  0  0  0  0  0  0  0  0  0
   24.0211  -20.1451  -11.4017 N   0  0  0  0  0  0  0  0  0  0  0  0
   24.6653  -20.7703  -10.2442 C   0  0  1  0  0  0  0  0  0  0  0  0
   25.8926  -19.9733   -9.9365 C   0  0  0  0  0  0  0  0  0  0  0  0
   26.9374  -20.0061  -10.9647 C   0  0  0  0  0  0  0  0  0  0  0  0
   26.9367  -19.0188  -11.9355 C   0  0  0  0  0  0  0  0  0  0  0  0
   27.9065  -19.0229  -12.9053 C   0  0  0  0  0  0  0  0  0  0  0  0
   28.8676  -20.0140  -12.8949 C   0  0  0  0  0  0  0  0  0  0  0  0
   28.8631  -20.9997  -11.9204 C   0  0  0  0  0  0  0  0  0  0  0  0
   27.8932  -21.0024  -10.9438 C   0  0  0  0  0  0  0  0  0  0  0  0
   23.7139  -20.7684   -9.1142 C   0  0  0  0  0  0  0  0  0  0  0  0
   24.0222  -21.3811   -7.9192 O   0  0  0  0  0  0  0  0  0  0  0  0
   22.5983  -20.2098   -9.2101 O   0  0  0  0  0  0  0  0  0  0  0  0
  2 10  1  0
  2  1  1  6
  3  4  1  0
  3  2  1  0
  4  9  1  0
  5  4  2  0
  5  6  1  0
  6  7  2  0
  7  8  1  0
  9  8  2  0
 10 11  2  0
 13 12  1  1
 13 14  1  0
 15 13  1  0
 15 16  1  6
 16 10  1  0
 17 18  2  0
 17 15  1  0
 19 17  1  0
 20 19  1  0
 21 22  1  0
 20 21  1  1
 22 27  1  0
 23 22  2  0
 23 24  1  0
 24 25  2  0
 25 26  1  0
 27 26  2  0
 28 29  1  0
 28 20  1  0
 30 28  2  0
M  END
$$$$
