FVF.pdb
     RDKit          3D

 30 31  0  0  1  0  0  0  0  0999 V2000
   27.2729  -17.7413  -17.5296 N   0  0  0  0  0  0  0  0  0  0  0  0
   26.7554  -17.3490  -16.2185 C   0  0  1  0  0  0  0  0  0  0  0  0
   25.3817  -16.7358  -16.3828 C   0  0  0  0  0  0  0  0  0  0  0  0
   25.5693  -15.3798  -16.9496 C   0  0  0  0  0  0  0  0  0  0  0  0
   25.1325  -15.0158  -18.2006 C   0  0  0  0  0  0  0  0  0  0  0  0
   25.3323  -13.7229  -18.6943 C   0  0  0  0  0  0  0  0  0  0  0  0
   25.9873  -12.7934  -17.8962 C   0  0  0  0  0  0  0  0  0  0  0  0
   26.4221  -13.1473  -16.6573 C   0  0  0  0  0  0  0  0  0  0  0  0
   26.2143  -14.4281  -16.1902 C   0  0  0  0  0  0  0  0  0  0  0  0
   26.7164  -18.5901  -15.3999 C   0  0  0  0  0  0  0  0  0  0  0  0
   26.2533  -19.6249  -15.9691 O   0  0  0  0  0  0  0  0  0  0  0  0
   28.1978  -21.2084  -11.4663 C   0  0  0  0  0  0  0  0  0  0  0  0
   28.3029  -20.1281  -12.5006 C   0  0  1  0  0  0  0  0  0  0  0  0
   29.4100  -20.5373  -13.4624 C   0  0  0  0  0  0  0  0  0  0  0  0
   27.0143  -19.8650  -13.2399 C   0  0  2  0  0  0  0  0  0  0  0  0
   27.1624  -18.6519  -14.0568 N   0  0  0  0  0  0  0  0  0  0  0  0
   25.8339  -19.6957  -12.3966 C   0  0  0  0  0  0  0  0  0  0  0  0
   25.6917  -18.5745  -11.7896 O   0  0  0  0  0  0  0  0  0  0  0  0
   24.8014  -20.6226  -12.1556 N   0  0  0  0  0  0  0  0  0  0  0  0
   23.7027  -20.3429  -11.2280 C   0  0  1  0  0  0  0  0  0  0  0  0
   22.4291  -20.6772  -11.9367 C   0  0  0  0  0  0  0  0  0  0  0  0
   21.2122  -20.5718  -11.1254 C   0  0  0  0  0  0  0  0  0  0  0  0
   20.5984  -19.3355  -11.0170 C   0  0  0  0  0  0  0  0  0  0  0  0
   19.4555  -19.2107  -10.2692 C   0  0  0  0  0  0  0  0  0  0  0  0
   18.9374  -20.3234   -9.6370 C   0  0  0  0  0  0  0  0  0  0  0  0
   19.5564  -21.5586   -9.7493 C   0  0  0  0  0  0  0  0  0  0  0  0
   20.7037  -21.6919  -10.4980 C   0  0  0  0  0  0  0  0  0  0  0  0
   23.8860  -21.1655  -10.0148 C   0  0  0  0  0  0  0  0  0  0  0  0
   23.3924  -20.7590   -8.7943 O   0  0  0  0  0  0  0  0  0  0  0  0
   24.4967  -22.2567  -10.0606 O   0  0  0  0  0  0  0  0  0  0  0  0
  2 10  1  0
  2  1  1  6
  3  4  1  0
  3  2  1  0
  4  9  1  0
  5  4  2  0
  5  6  1  0
  6  7  2  0
  7  8  1  0
  9  8  2  0
 10 11  2  0
 13 12  1  1
 13 14  1  0
 15 13  1  0
 15 16  1  1
 16 10  1  0
 17 18  2  0
 17 15  1  0
 19 17  1  0
 20 19  1  0
 21 22  1  0
 20 21  1  6
 22 27  1  0
 23 22  2  0
 23 24  1  0
 24 25  2  0
 25 26  1  0
 27 26  2  0
 28 29  1  0
 28 20  1  0
 30 28  2  0
M  END
$$$$
