CWP.pdb
     RDKit          3D

 28 30  0  0  1  0  0  0  0  0999 V2000
   26.2452  -18.3580  -15.8563 N   0  0  0  0  0  0  0  0  0  0  0  0
   25.4242  -18.0548  -14.7324 C   0  0  1  0  0  0  0  0  0  0  0  0
   23.9576  -17.9708  -15.0966 C   0  0  0  0  0  0  0  0  0  0  0  0
   23.6062  -16.3181  -15.7546 S   0  0  0  0  0  0  0  0  0  0  0  0
   25.6525  -19.0595  -13.6492 C   0  0  0  0  0  0  0  0  0  0  0  0
   25.4561  -20.2687  -13.9235 O   0  0  0  0  0  0  0  0  0  0  0  0
   26.0704  -18.7048  -12.3615 N   0  0  0  0  0  0  0  0  0  0  0  0
   26.2029  -19.7469  -11.3259 C   0  0  1  0  0  0  0  0  0  0  0  0
   27.4579  -19.3945  -10.6206 C   0  0  0  0  0  0  0  0  0  0  0  0
   27.8807  -20.1730   -9.4642 C   0  0  0  0  0  0  0  0  0  0  0  0
   28.3936  -21.4436   -9.4116 C   0  0  0  0  0  0  0  0  0  0  0  0
   28.6449  -21.7856   -8.1388 N   0  0  0  0  0  0  0  0  0  0  0  0
   28.3124  -20.7742   -7.3411 C   0  0  0  0  0  0  0  0  0  0  0  0
   28.4067  -20.6404   -5.9649 C   0  0  0  0  0  0  0  0  0  0  0  0
   28.0027  -19.4456   -5.4196 C   0  0  0  0  0  0  0  0  0  0  0  0
   27.5155  -18.3933   -6.1681 C   0  0  0  0  0  0  0  0  0  0  0  0
   27.4416  -18.5848   -7.5523 C   0  0  0  0  0  0  0  0  0  0  0  0
   27.8331  -19.7557   -8.1347 C   0  0  0  0  0  0  0  0  0  0  0  0
   24.9810  -19.9110  -10.5651 C   0  0  0  0  0  0  0  0  0  0  0  0
   24.2151  -18.9214  -10.3112 O   0  0  0  0  0  0  0  0  0  0  0  0
   24.5190  -21.1800  -10.0481 N   0  0  0  0  0  0  0  0  0  0  0  0
   25.1819  -22.4624  -10.1405 C   0  0  0  0  0  0  0  0  0  0  0  0
   24.0682  -23.4310  -10.5302 C   0  0  0  0  0  0  0  0  0  0  0  0
   22.7883  -22.6444  -10.2575 C   0  0  0  0  0  0  0  0  0  0  0  0
   23.2632  -21.4503   -9.3976 C   0  0  1  0  0  0  0  0  0  0  0  0
   23.3648  -21.9655   -8.0393 C   0  0  0  0  0  0  0  0  0  0  0  0
   24.4770  -22.4061   -7.5970 O   0  0  0  0  0  0  0  0  0  0  0  0
   22.3224  -22.0276   -7.1338 O   0  0  0  0  0  0  0  0  0  0  0  0
  2  5  1  0
  2  1  1  6
  3  2  1  0
  4  3  1  0
  5  6  2  0
  7  8  1  0
  7  5  1  0
  9 10  1  0
  8  9  1  1
 10 18  1  0
 11 10  2  0
 11 12  1  0
 12 13  1  0
 13 14  1  0
 14 15  2  0
 16 15  1  0
 17 16  2  0
 18 13  2  0
 18 17  1  0
 19 20  2  0
 19  8  1  0
 21 19  1  0
 22 21  1  0
 23 22  1  0
 24 25  1  0
 24 23  1  0
 25 21  1  0
 25 26  1  1
 26 28  1  0
 27 26  2  0
M  END
$$$$
