CWP.pdb
     RDKit          3D

 28 30  0  0  1  0  0  0  0  0999 V2000
   21.0076  -19.6326  -11.1324 N   0  0  0  0  0  0  0  0  0  0  0  0
   21.8270  -20.7346  -11.5114 C   0  0  1  0  0  0  0  0  0  0  0  0
   21.5192  -21.2269  -12.9091 C   0  0  0  0  0  0  0  0  0  0  0  0
   22.1109  -22.9325  -13.0781 S   0  0  0  0  0  0  0  0  0  0  0  0
   23.2696  -20.3666  -11.3765 C   0  0  0  0  0  0  0  0  0  0  0  0
   23.6688  -19.3391  -11.9773 O   0  0  0  0  0  0  0  0  0  0  0  0
   24.1754  -21.1151  -10.6164 N   0  0  0  0  0  0  0  0  0  0  0  0
   25.6145  -20.7970  -10.6771 C   0  0  1  0  0  0  0  0  0  0  0  0
   26.1261  -21.1925   -9.3435 C   0  0  0  0  0  0  0  0  0  0  0  0
   26.6118  -20.1728   -8.4235 C   0  0  0  0  0  0  0  0  0  0  0  0
   26.2600  -18.8510   -8.3259 C   0  0  0  0  0  0  0  0  0  0  0  0
   26.9564  -18.2614   -7.3422 N   0  0  0  0  0  0  0  0  0  0  0  0
   27.7639  -19.1575   -6.7812 C   0  0  0  0  0  0  0  0  0  0  0  0
   28.6521  -19.0365   -5.7241 C   0  0  0  0  0  0  0  0  0  0  0  0
   29.3389  -20.1651   -5.3468 C   0  0  0  0  0  0  0  0  0  0  0  0
   29.1865  -21.3906   -5.9633 C   0  0  0  0  0  0  0  0  0  0  0  0
   28.2773  -21.4539   -7.0250 C   0  0  0  0  0  0  0  0  0  0  0  0
   27.5740  -20.3566   -7.4314 C   0  0  0  0  0  0  0  0  0  0  0  0
   26.2379  -21.3381  -11.8676 C   0  0  0  0  0  0  0  0  0  0  0  0
   25.8771  -22.4605  -12.3582 O   0  0  0  0  0  0  0  0  0  0  0  0
   27.2891  -20.6688  -12.6010 N   0  0  0  0  0  0  0  0  0  0  0  0
   28.0577  -19.5165  -12.1838 C   0  0  0  0  0  0  0  0  0  0  0  0
   28.0928  -18.6233  -13.4212 C   0  0  0  0  0  0  0  0  0  0  0  0
   27.6396  -19.5458  -14.5503 C   0  0  0  0  0  0  0  0  0  0  0  0
   27.7419  -20.9612  -13.9362 C   0  0  1  0  0  0  0  0  0  0  0  0
   29.1452  -21.3334  -14.0493 C   0  0  0  0  0  0  0  0  0  0  0  0
   29.9123  -21.2779  -13.0319 O   0  0  0  0  0  0  0  0  0  0  0  0
   29.7613  -21.7640  -15.2093 O   0  0  0  0  0  0  0  0  0  0  0  0
  2  5  1  0
  2  1  1  6
  3  2  1  0
  4  3  1  0
  5  6  2  0
  7  8  1  0
  7  5  1  0
  9 10  1  0
  8  9  1  1
 10 18  1  0
 11 10  2  0
 11 12  1  0
 12 13  1  0
 13 14  1  0
 14 15  2  0
 16 15  1  0
 17 16  2  0
 18 13  2  0
 18 17  1  0
 19 20  2  0
 19  8  1  0
 21 19  1  0
 22 21  1  0
 23 22  1  0
 24 25  1  0
 24 23  1  0
 25 21  1  0
 25 26  1  1
 26 28  1  0
 27 26  2  0
M  END
$$$$
