CWP.pdb
     RDKit          3D

 28 30  0  0  1  0  0  0  0  0999 V2000
   29.1944  -21.0198  -16.8213 N   0  0  0  0  0  0  0  0  0  0  0  0
   28.8087  -20.0869  -15.8163 C   0  0  1  0  0  0  0  0  0  0  0  0
   28.1320  -18.8634  -16.3958 C   0  0  0  0  0  0  0  0  0  0  0  0
   29.4010  -17.7088  -16.9825 S   0  0  0  0  0  0  0  0  0  0  0  0
   27.9334  -20.7581  -14.8073 C   0  0  0  0  0  0  0  0  0  0  0  0
   26.9904  -21.4691  -15.2331 O   0  0  0  0  0  0  0  0  0  0  0  0
   28.1254  -20.6237  -13.4276 N   0  0  0  0  0  0  0  0  0  0  0  0
   27.0703  -21.0700  -12.4984 C   0  0  1  0  0  0  0  0  0  0  0  0
   27.7143  -21.0038  -11.1652 C   0  0  0  0  0  0  0  0  0  0  0  0
   26.8950  -20.8252   -9.9742 C   0  0  0  0  0  0  0  0  0  0  0  0
   25.5311  -20.8756   -9.8413 C   0  0  0  0  0  0  0  0  0  0  0  0
   25.1847  -20.6470   -8.5654 N   0  0  0  0  0  0  0  0  0  0  0  0
   26.2841  -20.4456   -7.8439 C   0  0  0  0  0  0  0  0  0  0  0  0
   26.4428  -20.1963   -6.4898 C   0  0  0  0  0  0  0  0  0  0  0  0
   27.7272  -20.0569   -6.0219 C   0  0  0  0  0  0  0  0  0  0  0  0
   28.8448  -20.1516   -6.8263 C   0  0  0  0  0  0  0  0  0  0  0  0
   28.6246  -20.4034   -8.1850 C   0  0  0  0  0  0  0  0  0  0  0  0
   27.3651  -20.5492   -8.6909 C   0  0  0  0  0  0  0  0  0  0  0  0
   25.8221  -20.3690  -12.7213 C   0  0  0  0  0  0  0  0  0  0  0  0
   25.7919  -19.1091  -12.9263 O   0  0  0  0  0  0  0  0  0  0  0  0
   24.5290  -21.0158  -12.7465 N   0  0  0  0  0  0  0  0  0  0  0  0
   24.2431  -22.4203  -12.5515 C   0  0  0  0  0  0  0  0  0  0  0  0
   23.2381  -22.7528  -13.6515 C   0  0  0  0  0  0  0  0  0  0  0  0
   22.7693  -21.3854  -14.1430 C   0  0  0  0  0  0  0  0  0  0  0  0
   23.2579  -20.4100  -13.0472 C   0  0  1  0  0  0  0  0  0  0  0  0
   22.2646  -20.4894  -11.9853 C   0  0  0  0  0  0  0  0  0  0  0  0
   22.4484  -21.2587  -10.9849 O   0  0  0  0  0  0  0  0  0  0  0  0
   21.0808  -19.7767  -11.9508 O   0  0  0  0  0  0  0  0  0  0  0  0
  2  5  1  0
  2  1  1  6
  3  2  1  0
  4  3  1  0
  5  6  2  0
  7  8  1  0
  7  5  1  0
  9 10  1  0
  8  9  1  1
 10 18  1  0
 11 10  2  0
 11 12  1  0
 12 13  1  0
 13 14  1  0
 14 15  2  0
 16 15  1  0
 17 16  2  0
 18 13  2  0
 18 17  1  0
 19 20  2  0
 19  8  1  0
 21 19  1  0
 22 21  1  0
 23 22  1  0
 24 25  1  0
 24 23  1  0
 25 21  1  0
 25 26  1  1
 26 28  1  0
 27 26  2  0
M  END
$$$$
