CWP.pdb
     RDKit          3D

 28 30  0  0  1  0  0  0  0  0999 V2000
   15.2103  -21.4748    0.9459 N   0  0  0  0  0  0  0  0  0  0  0  0
   15.1306  -21.4621    2.3681 C   0  0  1  0  0  0  0  0  0  0  0  0
   15.3659  -22.8306    2.9702 C   0  0  0  0  0  0  0  0  0  0  0  0
   14.1351  -23.9862    2.3089 S   0  0  0  0  0  0  0  0  0  0  0  0
   16.0897  -20.4585    2.9229 C   0  0  0  0  0  0  0  0  0  0  0  0
   17.2383  -20.4076    2.4187 O   0  0  0  0  0  0  0  0  0  0  0  0
   15.7574  -19.5885    3.9674 N   0  0  0  0  0  0  0  0  0  0  0  0
   16.7563  -18.6176    4.4525 C   0  0  1  0  0  0  0  0  0  0  0  0
   16.1355  -17.2990    4.1834 C   0  0  0  0  0  0  0  0  0  0  0  0
   16.8114  -16.0809    4.6092 C   0  0  0  0  0  0  0  0  0  0  0  0
   16.6585  -15.3604    5.7659 C   0  0  0  0  0  0  0  0  0  0  0  0
   17.4735  -14.2946    5.7548 N   0  0  0  0  0  0  0  0  0  0  0  0
   18.1663  -14.2866    4.6191 C   0  0  0  0  0  0  0  0  0  0  0  0
   19.1383  -13.4117    4.1601 C   0  0  0  0  0  0  0  0  0  0  0  0
   19.7030  -13.6837    2.9373 C   0  0  0  0  0  0  0  0  0  0  0  0
   19.3507  -14.7689    2.1607 C   0  0  0  0  0  0  0  0  0  0  0  0
   18.3636  -15.6177    2.6735 C   0  0  0  0  0  0  0  0  0  0  0  0
   17.7774  -15.3844    3.8841 C   0  0  0  0  0  0  0  0  0  0  0  0
   17.2082  -18.9311    5.7927 C   0  0  0  0  0  0  0  0  0  0  0  0
   16.4798  -19.5954    6.6042 O   0  0  0  0  0  0  0  0  0  0  0  0
   18.4986  -18.5442    6.3183 N   0  0  0  0  0  0  0  0  0  0  0  0
   19.5996  -17.9446    5.5965 C   0  0  0  0  0  0  0  0  0  0  0  0
   20.8266  -18.7115    6.0830 C   0  0  0  0  0  0  0  0  0  0  0  0
   20.3310  -19.4396    7.3302 C   0  0  0  0  0  0  0  0  0  0  0  0
   18.9894  -18.7440    7.6571 C   0  0  1  0  0  0  0  0  0  0  0  0
   19.3466  -17.5291    8.3762 C   0  0  0  0  0  0  0  0  0  0  0  0
   19.3752  -16.4059    7.7727 O   0  0  0  0  0  0  0  0  0  0  0  0
   19.6743  -17.4679    9.7176 O   0  0  0  0  0  0  0  0  0  0  0  0
  2  5  1  0
  2  1  1  6
  3  2  1  0
  4  3  1  0
  5  6  2  0
  7  8  1  0
  7  5  1  0
  9 10  1  0
  8  9  1  1
 10 18  1  0
 11 10  2  0
 11 12  1  0
 12 13  1  0
 13 14  1  0
 14 15  2  0
 16 15  1  0
 17 16  2  0
 18 13  2  0
 18 17  1  0
 19 20  2  0
 19  8  1  0
 21 19  1  0
 22 21  1  0
 23 22  1  0
 24 25  1  0
 24 23  1  0
 25 21  1  0
 25 26  1  6
 26 28  1  0
 27 26  2  0
M  END
$$$$
