CWP.pdb
     RDKit          3D

 28 30  0  0  1  0  0  0  0  0999 V2000
   29.0415  -35.9089   -0.9006 N   0  0  0  0  0  0  0  0  0  0  0  0
   28.5380  -36.2634    0.3839 C   0  0  1  0  0  0  0  0  0  0  0  0
   29.4356  -37.2476    1.1025 C   0  0  0  0  0  0  0  0  0  0  0  0
   28.6697  -37.7008    2.6823 S   0  0  0  0  0  0  0  0  0  0  0  0
   28.3244  -35.0323    1.2046 C   0  0  0  0  0  0  0  0  0  0  0  0
   29.2927  -34.2444    1.3385 O   0  0  0  0  0  0  0  0  0  0  0  0
   27.1032  -34.7325    1.8187 N   0  0  0  0  0  0  0  0  0  0  0  0
   27.0001  -33.5523    2.6976 C   0  0  1  0  0  0  0  0  0  0  0  0
   25.9729  -32.7068    2.0443 C   0  0  0  0  0  0  0  0  0  0  0  0
   25.3836  -31.5918    2.7732 C   0  0  0  0  0  0  0  0  0  0  0  0
   25.9708  -30.4339    3.2147 C   0  0  0  0  0  0  0  0  0  0  0  0
   25.0672  -29.6742    3.8523 N   0  0  0  0  0  0  0  0  0  0  0  0
   23.8915  -30.2969    3.8467 C   0  0  0  0  0  0  0  0  0  0  0  0
   22.6615  -29.9090    4.3541 C   0  0  0  0  0  0  0  0  0  0  0  0
   21.6049  -30.7675    4.1680 C   0  0  0  0  0  0  0  0  0  0  0  0
   21.7132  -31.9767    3.5112 C   0  0  0  0  0  0  0  0  0  0  0  0
   22.9788  -32.3171    3.0210 C   0  0  0  0  0  0  0  0  0  0  0  0
   24.0548  -31.4929    3.1836 C   0  0  0  0  0  0  0  0  0  0  0  0
   26.8350  -33.9264    4.0874 C   0  0  0  0  0  0  0  0  0  0  0  0
   26.2706  -35.0220    4.4210 O   0  0  0  0  0  0  0  0  0  0  0  0
   27.2951  -33.1221    5.1976 N   0  0  0  0  0  0  0  0  0  0  0  0
   28.0272  -31.8758    5.1383 C   0  0  0  0  0  0  0  0  0  0  0  0
   29.1224  -32.0359    6.1895 C   0  0  0  0  0  0  0  0  0  0  0  0
   28.6667  -33.2396    7.0110 C   0  0  0  0  0  0  0  0  0  0  0  0
   27.1884  -33.4307    6.5999 C   0  0  1  0  0  0  0  0  0  0  0  0
   26.4369  -32.4680    7.3930 C   0  0  0  0  0  0  0  0  0  0  0  0
   26.2666  -32.6536    8.6432 O   0  0  0  0  0  0  0  0  0  0  0  0
   25.8599  -31.3123    6.9010 O   0  0  0  0  0  0  0  0  0  0  0  0
  2  5  1  0
  2  1  1  6
  3  2  1  0
  4  3  1  0
  5  6  2  0
  7  8  1  0
  7  5  1  0
  9 10  1  0
  8  9  1  6
 10 18  1  0
 11 10  2  0
 11 12  1  0
 12 13  1  0
 13 14  1  0
 14 15  2  0
 16 15  1  0
 17 16  2  0
 18 13  2  0
 18 17  1  0
 19 20  2  0
 19  8  1  0
 21 19  1  0
 22 21  1  0
 23 22  1  0
 24 25  1  0
 24 23  1  0
 25 21  1  0
 25 26  1  1
 26 28  1  0
 27 26  2  0
M  END
$$$$
