CWP.pdb
     RDKit          3D

 28 30  0  0  1  0  0  0  0  0999 V2000
   29.2969  -20.6929  -15.1952 N   0  0  0  0  0  0  0  0  0  0  0  0
   28.4302  -19.7380  -14.5899 C   0  0  1  0  0  0  0  0  0  0  0  0
   27.7426  -18.8566  -15.6102 C   0  0  0  0  0  0  0  0  0  0  0  0
   28.9055  -17.5828  -16.1696 S   0  0  0  0  0  0  0  0  0  0  0  0
   27.4323  -20.4345  -13.7217 C   0  0  0  0  0  0  0  0  0  0  0  0
   27.0016  -21.5495  -14.1056 O   0  0  0  0  0  0  0  0  0  0  0  0
   26.9692  -19.8959  -12.5159 N   0  0  0  0  0  0  0  0  0  0  0  0
   25.8383  -20.5368  -11.8185 C   0  0  1  0  0  0  0  0  0  0  0  0
   26.0543  -20.1931  -10.3931 C   0  0  0  0  0  0  0  0  0  0  0  0
   27.2726  -20.6251   -9.7214 C   0  0  0  0  0  0  0  0  0  0  0  0
   28.2541  -21.4750  -10.1625 C   0  0  0  0  0  0  0  0  0  0  0  0
   29.2028  -21.6087   -9.2231 N   0  0  0  0  0  0  0  0  0  0  0  0
   28.8781  -20.8687   -8.1663 C   0  0  0  0  0  0  0  0  0  0  0  0
   29.5442  -20.6630   -6.9685 C   0  0  0  0  0  0  0  0  0  0  0  0
   28.9634  -19.8068   -6.0643 C   0  0  0  0  0  0  0  0  0  0  0  0
   27.7678  -19.1558   -6.2921 C   0  0  0  0  0  0  0  0  0  0  0  0
   27.1392  -19.4018   -7.5177 C   0  0  0  0  0  0  0  0  0  0  0  0
   27.6823  -20.2445   -8.4443 C   0  0  0  0  0  0  0  0  0  0  0  0
   24.5696  -20.2207  -12.4424 C   0  0  0  0  0  0  0  0  0  0  0  0
   24.3489  -19.0757  -12.9628 O   0  0  0  0  0  0  0  0  0  0  0  0
   23.4685  -21.1524  -12.5447 N   0  0  0  0  0  0  0  0  0  0  0  0
   23.4486  -22.5402  -12.1367 C   0  0  0  0  0  0  0  0  0  0  0  0
   22.7649  -23.2602  -13.2962 C   0  0  0  0  0  0  0  0  0  0  0  0
   22.1256  -22.1312  -14.1010 C   0  0  0  0  0  0  0  0  0  0  0  0
   22.1812  -20.9170  -13.1451 C   0  0  1  0  0  0  0  0  0  0  0  0
   21.0411  -21.0725  -12.2526 C   0  0  0  0  0  0  0  0  0  0  0  0
   19.8569  -20.8551  -12.6733 O   0  0  0  0  0  0  0  0  0  0  0  0
   21.1176  -21.4526  -10.9259 O   0  0  0  0  0  0  0  0  0  0  0  0
  2  5  1  0
  2  1  1  6
  3  2  1  0
  4  3  1  0
  5  6  2  0
  7  8  1  0
  7  5  1  0
  9 10  1  0
  8  9  1  1
 10 18  1  0
 11 10  2  0
 11 12  1  0
 12 13  1  0
 13 14  1  0
 14 15  2  0
 16 15  1  0
 17 16  2  0
 18 13  2  0
 18 17  1  0
 19 20  2  0
 19  8  1  0
 21 19  1  0
 22 21  1  0
 23 22  1  0
 24 25  1  0
 24 23  1  0
 25 21  1  0
 25 26  1  1
 26 28  1  0
 27 26  2  0
M  END
$$$$
