CWP.pdb
     RDKit          3D

 28 30  0  0  1  0  0  0  0  0999 V2000
   24.1709  -19.0470  -13.3993 N   0  0  0  0  0  0  0  0  0  0  0  0
   24.0357  -20.0190  -12.3668 C   0  0  1  0  0  0  0  0  0  0  0  0
   23.7158  -21.3951  -12.9100 C   0  0  0  0  0  0  0  0  0  0  0  0
   22.9207  -22.3740  -11.6073 S   0  0  0  0  0  0  0  0  0  0  0  0
   25.2727  -20.0463  -11.5279 C   0  0  0  0  0  0  0  0  0  0  0  0
   26.3769  -20.1361  -12.1185 O   0  0  0  0  0  0  0  0  0  0  0  0
   25.2432  -19.9766  -10.1305 N   0  0  0  0  0  0  0  0  0  0  0  0
   26.5073  -20.0247   -9.3720 C   0  0  1  0  0  0  0  0  0  0  0  0
   26.1733  -19.3863   -8.0768 C   0  0  0  0  0  0  0  0  0  0  0  0
   27.2387  -19.0356   -7.1473 C   0  0  0  0  0  0  0  0  0  0  0  0
   27.9239  -17.8552   -7.0151 C   0  0  0  0  0  0  0  0  0  0  0  0
   28.8345  -17.9594   -6.0353 N   0  0  0  0  0  0  0  0  0  0  0  0
   28.7734  -19.1803   -5.5105 C   0  0  0  0  0  0  0  0  0  0  0  0
   29.4888  -19.7537   -4.4711 C   0  0  0  0  0  0  0  0  0  0  0  0
   29.1778  -21.0484   -4.1320 C   0  0  0  0  0  0  0  0  0  0  0  0
   28.2032  -21.7890   -4.7697 C   0  0  0  0  0  0  0  0  0  0  0  0
   27.5138  -21.1598   -5.8122 C   0  0  0  0  0  0  0  0  0  0  0  0
   27.7909  -19.8749   -6.1806 C   0  0  0  0  0  0  0  0  0  0  0  0
   27.0935  -21.3495   -9.3821 C   0  0  0  0  0  0  0  0  0  0  0  0
   26.3740  -22.3965   -9.5105 O   0  0  0  0  0  0  0  0  0  0  0  0
   28.5124  -21.6029   -9.2655 N   0  0  0  0  0  0  0  0  0  0  0  0
   29.5647  -20.6347   -9.0464 C   0  0  0  0  0  0  0  0  0  0  0  0
   30.6591  -21.0444  -10.0285 C   0  0  0  0  0  0  0  0  0  0  0  0
   30.2556  -22.4528  -10.4581 C   0  0  0  0  0  0  0  0  0  0  0  0
   29.1873  -22.8654   -9.4192 C   0  0  1  0  0  0  0  0  0  0  0  0
   29.9332  -23.3177   -8.2532 C   0  0  0  0  0  0  0  0  0  0  0  0
   30.4248  -22.4735   -7.4334 O   0  0  0  0  0  0  0  0  0  0  0  0
   30.1740  -24.6396   -7.9286 O   0  0  0  0  0  0  0  0  0  0  0  0
  2  5  1  0
  2  1  1  6
  3  2  1  0
  4  3  1  0
  5  6  2  0
  7  8  1  0
  7  5  1  0
  9 10  1  0
  8  9  1  1
 10 18  1  0
 11 10  2  0
 11 12  1  0
 12 13  1  0
 13 14  1  0
 14 15  2  0
 16 15  1  0
 17 16  2  0
 18 13  2  0
 18 17  1  0
 19 20  2  0
 19  8  1  0
 21 19  1  0
 22 21  1  0
 23 22  1  0
 24 25  1  0
 24 23  1  0
 25 21  1  0
 25 26  1  1
 26 28  1  0
 27 26  2  0
M  END
$$$$
