THV.pdb
     RDKit          3D

 25 25  0  0  1  0  0  0  0  0999 V2000
    9.0178  -12.6994   18.3694 C   0  0  0  0  0  0  0  0  0  0  0  0
    8.4851  -13.1641   19.7097 C   0  0  1  0  0  0  0  0  0  0  0  0
    7.2337  -12.5781   19.9176 O   0  0  0  0  0  0  0  0  0  0  0  0
    8.2864  -14.6586   19.5995 C   0  0  2  0  0  0  0  0  0  0  0  0
    7.3351  -14.8998   18.5547 N   0  0  0  0  0  0  0  0  0  0  0  0
    7.9478  -15.2931   20.8766 C   0  0  0  0  0  0  0  0  0  0  0  0
    6.7451  -15.5820   21.1092 O   0  0  0  0  0  0  0  0  0  0  0  0
    8.8842  -15.6170   21.8973 N   0  0  0  0  0  0  0  0  0  0  0  0
    8.4701  -16.2093   23.1534 C   0  0  1  0  0  0  0  0  0  0  0  0
    9.1812  -17.5247   23.4112 C   0  0  0  0  0  0  0  0  0  0  0  0
    8.6150  -18.5730   22.5231 C   0  0  0  0  0  0  0  0  0  0  0  0
    7.4954  -19.3234   22.7312 C   0  0  0  0  0  0  0  0  0  0  0  0
    7.3536  -20.1546   21.6640 N   0  0  0  0  0  0  0  0  0  0  0  0
    8.3633  -19.9192   20.8205 C   0  0  0  0  0  0  0  0  0  0  0  0
    9.1450  -18.9450   21.3442 N   0  0  0  0  0  0  0  0  0  0  0  0
    8.7439  -15.2278   24.2403 C   0  0  0  0  0  0  0  0  0  0  0  0
    9.8728  -14.6898   24.3585 O   0  0  0  0  0  0  0  0  0  0  0  0
    7.2039  -12.1135   27.7312 C   0  0  0  0  0  0  0  0  0  0  0  0
    6.8767  -13.0736   26.6269 C   0  0  1  0  0  0  0  0  0  0  0  0
    6.1597  -12.4103   25.4962 C   0  0  0  0  0  0  0  0  0  0  0  0
    8.0920  -13.8639   26.1822 C   0  0  2  0  0  0  0  0  0  0  0  0
    7.7553  -14.8551   25.1860 N   0  0  0  0  0  0  0  0  0  0  0  0
    8.7346  -14.5531   27.3151 C   0  0  0  0  0  0  0  0  0  0  0  0
    9.6192  -13.8720   28.1381 O   0  0  0  0  0  0  0  0  0  0  0  0
    8.5086  -15.7732   27.5779 O   0  0  0  0  0  0  0  0  0  0  0  0
  2  1  1  6
  2  3  1  0
  4  2  1  0
  4  5  1  6
  6  7  2  0
  6  4  1  0
  8  6  1  0
  9 16  1  0
  9  8  1  0
  9 10  1  1
 11 12  2  0
 11 10  1  0
 13 12  1  0
 14 15  2  0
 14 13  1  0
 15 11  1  0
 16 22  1  0
 17 16  2  0
 19 18  1  1
 19 20  1  0
 21 19  1  0
 21 23  1  0
 21 22  1  6
 23 25  2  0
 23 24  1  0
M  END
$$$$
