THV.pdb
     RDKit          3D

 25 25  0  0  1  0  0  0  0  0999 V2000
    9.4047  -12.5590   18.2238 C   0  0  0  0  0  0  0  0  0  0  0  0
    8.6967  -12.9065   19.5177 C   0  0  1  0  0  0  0  0  0  0  0  0
    7.4265  -12.3245   19.4991 O   0  0  0  0  0  0  0  0  0  0  0  0
    8.5205  -14.4079   19.5224 C   0  0  2  0  0  0  0  0  0  0  0  0
    7.6519  -14.7521   18.4353 N   0  0  0  0  0  0  0  0  0  0  0  0
    8.0937  -14.9365   20.8211 C   0  0  0  0  0  0  0  0  0  0  0  0
    6.8638  -14.9719   21.0859 O   0  0  0  0  0  0  0  0  0  0  0  0
    8.9713  -15.4233   21.8292 N   0  0  0  0  0  0  0  0  0  0  0  0
    8.4732  -16.0283   23.0482 C   0  0  1  0  0  0  0  0  0  0  0  0
    9.0365  -17.4228   23.2494 C   0  0  0  0  0  0  0  0  0  0  0  0
    8.3515  -18.3681   22.3300 C   0  0  0  0  0  0  0  0  0  0  0  0
    7.4250  -18.0738   21.3735 C   0  0  0  0  0  0  0  0  0  0  0  0
    7.0696  -19.2411   20.7728 N   0  0  0  0  0  0  0  0  0  0  0  0
    7.7623  -20.2289   21.3478 C   0  0  0  0  0  0  0  0  0  0  0  0
    8.5548  -19.6975   22.3090 N   0  0  0  0  0  0  0  0  0  0  0  0
    8.8282  -15.1353   24.1866 C   0  0  0  0  0  0  0  0  0  0  0  0
    9.9616  -14.5987   24.2605 O   0  0  0  0  0  0  0  0  0  0  0  0
    7.0315  -11.9843   25.4300 C   0  0  0  0  0  0  0  0  0  0  0  0
    7.2650  -12.9084   26.5875 C   0  0  1  0  0  0  0  0  0  0  0  0
    5.9940  -13.5033   27.1003 C   0  0  0  0  0  0  0  0  0  0  0  0
    8.3290  -13.9447   26.2817 C   0  0  2  0  0  0  0  0  0  0  0  0
    7.9151  -14.8486   25.2329 N   0  0  0  0  0  0  0  0  0  0  0  0
    8.6626  -14.7464   27.4722 C   0  0  0  0  0  0  0  0  0  0  0  0
    9.3269  -14.1667   28.5429 O   0  0  0  0  0  0  0  0  0  0  0  0
    8.3614  -15.9751   27.5636 O   0  0  0  0  0  0  0  0  0  0  0  0
  2  1  1  6
  2  3  1  0
  4  2  1  0
  4  5  1  6
  6  7  2  0
  6  4  1  0
  8  6  1  0
  9 16  1  0
  9  8  1  0
  9 10  1  1
 11 12  2  0
 11 10  1  0
 13 12  1  0
 14 15  2  0
 14 13  1  0
 15 11  1  0
 16 22  1  0
 17 16  2  0
 19 18  1  6
 19 20  1  0
 21 19  1  0
 21 23  1  0
 21 22  1  6
 23 25  2  0
 23 24  1  0
M  END
$$$$
