THV.pdb
     RDKit          3D

 25 25  0  0  1  0  0  0  0  0999 V2000
    8.7413  -12.5470   20.1312 C   0  0  0  0  0  0  0  0  0  0  0  0
    7.7869  -13.3101   19.2350 C   0  0  1  0  0  0  0  0  0  0  0  0
    7.9987  -12.9059   17.9143 O   0  0  0  0  0  0  0  0  0  0  0  0
    8.1690  -14.7688   19.3421 C   0  0  2  0  0  0  0  0  0  0  0  0
    7.4137  -15.4942   18.3633 N   0  0  0  0  0  0  0  0  0  0  0  0
    8.0518  -15.2993   20.7033 C   0  0  0  0  0  0  0  0  0  0  0  0
    6.9211  -15.6695   21.1138 O   0  0  0  0  0  0  0  0  0  0  0  0
    9.1316  -15.4340   21.6194 N   0  0  0  0  0  0  0  0  0  0  0  0
    8.9832  -16.1398   22.8764 C   0  0  1  0  0  0  0  0  0  0  0  0
   10.0190  -17.2387   23.0247 C   0  0  0  0  0  0  0  0  0  0  0  0
    9.8512  -17.8986   24.3455 C   0  0  0  0  0  0  0  0  0  0  0  0
    9.4953  -17.3169   25.5266 C   0  0  0  0  0  0  0  0  0  0  0  0
    9.4637  -18.2936   26.4726 N   0  0  0  0  0  0  0  0  0  0  0  0
    9.7928  -19.4480   25.8851 C   0  0  0  0  0  0  0  0  0  0  0  0
   10.0331  -19.2117   24.5733 N   0  0  0  0  0  0  0  0  0  0  0  0
    9.0915  -15.1458   23.9808 C   0  0  0  0  0  0  0  0  0  0  0  0
   10.1053  -14.4132   24.0964 O   0  0  0  0  0  0  0  0  0  0  0  0
    6.9107  -12.1577   27.1833 C   0  0  0  0  0  0  0  0  0  0  0  0
    6.8294  -13.2168   26.1250 C   0  0  1  0  0  0  0  0  0  0  0  0
    6.1819  -12.7169   24.8747 C   0  0  0  0  0  0  0  0  0  0  0  0
    8.1714  -13.8787   25.8792 C   0  0  2  0  0  0  0  0  0  0  0  0
    8.0673  -14.9780   24.9469 N   0  0  0  0  0  0  0  0  0  0  0  0
    8.7592  -14.3923   27.1290 C   0  0  0  0  0  0  0  0  0  0  0  0
    9.5141  -13.5593   27.9416 O   0  0  0  0  0  0  0  0  0  0  0  0
    8.6015  -15.5935   27.5045 O   0  0  0  0  0  0  0  0  0  0  0  0
  2  1  1  1
  2  3  1  0
  4  2  1  0
  4  5  1  6
  6  7  2  0
  6  4  1  0
  8  6  1  0
  9 16  1  0
  9  8  1  0
  9 10  1  1
 11 12  2  0
 11 10  1  0
 13 12  1  0
 14 15  2  0
 14 13  1  0
 15 11  1  0
 16 22  1  0
 17 16  2  0
 19 18  1  1
 19 20  1  0
 21 19  1  0
 21 23  1  0
 21 22  1  6
 23 25  2  0
 23 24  1  0
M  END
$$$$
