THV.pdb
     RDKit          3D

 25 25  0  0  1  0  0  0  0  0999 V2000
    8.2615  -12.7768   17.6147 C   0  0  0  0  0  0  0  0  0  0  0  0
    7.5808  -13.7450   18.5611 C   0  0  1  0  0  0  0  0  0  0  0  0
    7.1646  -14.8613   17.8310 O   0  0  0  0  0  0  0  0  0  0  0  0
    8.6354  -14.1991   19.5445 C   0  0  2  0  0  0  0  0  0  0  0  0
    9.5613  -15.0369   18.8406 N   0  0  0  0  0  0  0  0  0  0  0  0
    8.0749  -14.8088   20.7537 C   0  0  0  0  0  0  0  0  0  0  0  0
    6.8283  -14.7790   20.9249 O   0  0  0  0  0  0  0  0  0  0  0  0
    8.8373  -15.4453   21.7720 N   0  0  0  0  0  0  0  0  0  0  0  0
    8.2097  -16.0607   22.9241 C   0  0  1  0  0  0  0  0  0  0  0  0
    8.6548  -17.5006   23.0992 C   0  0  0  0  0  0  0  0  0  0  0  0
    8.0380  -18.0606   24.3297 C   0  0  0  0  0  0  0  0  0  0  0  0
    8.6676  -18.4281   25.4824 C   0  0  0  0  0  0  0  0  0  0  0  0
    7.7177  -18.8864   26.3412 N   0  0  0  0  0  0  0  0  0  0  0  0
    6.5326  -18.8021   25.7292 C   0  0  0  0  0  0  0  0  0  0  0  0
    6.7228  -18.2936   24.4883 N   0  0  0  0  0  0  0  0  0  0  0  0
    8.5445  -15.2443   24.1246 C   0  0  0  0  0  0  0  0  0  0  0  0
    9.7182  -14.8472   24.3315 O   0  0  0  0  0  0  0  0  0  0  0  0
    7.1087  -12.2353   27.7510 C   0  0  0  0  0  0  0  0  0  0  0  0
    6.7272  -13.2212   26.6876 C   0  0  1  0  0  0  0  0  0  0  0  0
    5.8616  -12.6092   25.6347 C   0  0  0  0  0  0  0  0  0  0  0  0
    7.9350  -13.9434   26.1226 C   0  0  2  0  0  0  0  0  0  0  0  0
    7.5666  -14.8781   25.0838 N   0  0  0  0  0  0  0  0  0  0  0  0
    8.6617  -14.6843   27.1687 C   0  0  0  0  0  0  0  0  0  0  0  0
    9.7733  -14.1234   27.7798 O   0  0  0  0  0  0  0  0  0  0  0  0
    8.3064  -15.8424   27.5449 O   0  0  0  0  0  0  0  0  0  0  0  0
  2  1  1  6
  2  3  1  0
  4  2  1  0
  4  5  1  6
  6  7  2  0
  6  4  1  0
  8  6  1  0
  9 16  1  0
  9  8  1  0
  9 10  1  1
 11 12  2  0
 11 10  1  0
 13 12  1  0
 14 15  2  0
 14 13  1  0
 15 11  1  0
 16 22  1  0
 17 16  2  0
 19 18  1  1
 19 20  1  0
 21 19  1  0
 21 23  1  0
 21 22  1  6
 23 25  2  0
 23 24  1  0
M  END
$$$$
