THV.pdb
     RDKit          3D

 25 25  0  0  1  0  0  0  0  0999 V2000
    5.6200  -17.3691   24.3739 C   0  0  0  0  0  0  0  0  0  0  0  0
    6.1797  -18.3819   23.3956 C   0  0  1  0  0  0  0  0  0  0  0  0
    5.2516  -19.4159   23.2471 O   0  0  0  0  0  0  0  0  0  0  0  0
    6.3035  -17.6734   22.0659 C   0  0  2  0  0  0  0  0  0  0  0  0
    6.4235  -18.6724   21.0449 N   0  0  0  0  0  0  0  0  0  0  0  0
    7.3660  -16.6641   22.0448 C   0  0  0  0  0  0  0  0  0  0  0  0
    8.5512  -17.0365   21.8426 O   0  0  0  0  0  0  0  0  0  0  0  0
    7.1664  -15.2690   22.2376 N   0  0  0  0  0  0  0  0  0  0  0  0
    8.2661  -14.3264   22.1896 C   0  0  1  0  0  0  0  0  0  0  0  0
    7.9626  -13.1615   21.2660 C   0  0  0  0  0  0  0  0  0  0  0  0
    7.9973  -13.6289   19.8559 C   0  0  0  0  0  0  0  0  0  0  0  0
    7.1130  -13.3350   18.8602 C   0  0  0  0  0  0  0  0  0  0  0  0
    7.5318  -13.9761   17.7362 N   0  0  0  0  0  0  0  0  0  0  0  0
    8.6476  -14.6479   18.0357 C   0  0  0  0  0  0  0  0  0  0  0  0
    8.9404  -14.4383   19.3413 N   0  0  0  0  0  0  0  0  0  0  0  0
    8.5338  -13.8566   23.5779 C   0  0  0  0  0  0  0  0  0  0  0  0
    8.6462  -12.6328   23.8376 O   0  0  0  0  0  0  0  0  0  0  0  0
    7.8447  -12.7027   27.7297 C   0  0  0  0  0  0  0  0  0  0  0  0
    7.6531  -13.3321   26.3823 C   0  0  1  0  0  0  0  0  0  0  0  0
    7.3019  -12.3266   25.3344 C   0  0  0  0  0  0  0  0  0  0  0  0
    8.8243  -14.2141   25.9953 C   0  0  2  0  0  0  0  0  0  0  0  0
    8.6735  -14.7568   24.6645 N   0  0  0  0  0  0  0  0  0  0  0  0
    8.9885  -15.3390   26.9328 C   0  0  0  0  0  0  0  0  0  0  0  0
    9.5474  -15.1308   28.1850 O   0  0  0  0  0  0  0  0  0  0  0  0
    8.6321  -16.5200   26.6378 O   0  0  0  0  0  0  0  0  0  0  0  0
  2  1  1  1
  2  3  1  0
  4  2  1  0
  4  5  1  6
  6  7  2  0
  6  4  1  0
  8  6  1  0
  9 16  1  0
  9  8  1  0
  9 10  1  6
 11 12  2  0
 11 10  1  0
 13 12  1  0
 14 15  2  0
 14 13  1  0
 15 11  1  0
 16 22  1  0
 17 16  2  0
 19 18  1  1
 19 20  1  0
 21 19  1  0
 21 23  1  0
 21 22  1  6
 23 25  2  0
 23 24  1  0
M  END
$$$$
