THV.pdb
     RDKit          3D

 25 25  0  0  1  0  0  0  0  0999 V2000
    8.6355  -12.6189   20.4354 C   0  0  0  0  0  0  0  0  0  0  0  0
    8.0617  -13.3929   19.2659 C   0  0  1  0  0  0  0  0  0  0  0  0
    8.6419  -12.9134   18.0885 O   0  0  0  0  0  0  0  0  0  0  0  0
    8.4950  -14.8299   19.4464 C   0  0  2  0  0  0  0  0  0  0  0  0
    8.0595  -15.5680   18.2974 N   0  0  0  0  0  0  0  0  0  0  0  0
    8.0703  -15.4060   20.7253 C   0  0  0  0  0  0  0  0  0  0  0  0
    6.8785  -15.7912   20.8501 O   0  0  0  0  0  0  0  0  0  0  0  0
    8.9095  -15.5702   21.8621 N   0  0  0  0  0  0  0  0  0  0  0  0
    8.4048  -16.0970   23.1142 C   0  0  1  0  0  0  0  0  0  0  0  0
    9.0523  -17.4243   23.4626 C   0  0  0  0  0  0  0  0  0  0  0  0
    8.4010  -18.5094   22.6839 C   0  0  0  0  0  0  0  0  0  0  0  0
    8.7591  -18.9818   21.4556 C   0  0  0  0  0  0  0  0  0  0  0  0
    7.8880  -19.9733   21.1269 N   0  0  0  0  0  0  0  0  0  0  0  0
    7.0156  -20.1060   22.1306 C   0  0  0  0  0  0  0  0  0  0  0  0
    7.3261  -19.2062   23.0941 N   0  0  0  0  0  0  0  0  0  0  0  0
    8.6527  -15.0822   24.1766 C   0  0  0  0  0  0  0  0  0  0  0  0
    9.7963  -14.5928   24.3511 O   0  0  0  0  0  0  0  0  0  0  0  0
    7.0429  -11.8181   27.5062 C   0  0  0  0  0  0  0  0  0  0  0  0
    6.7195  -12.8321   26.4500 C   0  0  1  0  0  0  0  0  0  0  0  0
    5.9753  -12.2330   25.3013 C   0  0  0  0  0  0  0  0  0  0  0  0
    7.9438  -13.6187   26.0236 C   0  0  2  0  0  0  0  0  0  0  0  0
    7.6220  -14.6224   25.0349 N   0  0  0  0  0  0  0  0  0  0  0  0
    8.5813  -14.2919   27.1689 C   0  0  0  0  0  0  0  0  0  0  0  0
    9.5133  -13.6199   27.9458 O   0  0  0  0  0  0  0  0  0  0  0  0
    8.3084  -15.4899   27.4841 O   0  0  0  0  0  0  0  0  0  0  0  0
  2  1  1  1
  2  3  1  0
  4  2  1  0
  4  5  1  6
  6  7  2  0
  6  4  1  0
  8  6  1  0
  9 16  1  0
  9  8  1  0
  9 10  1  1
 11 12  2  0
 11 10  1  0
 13 12  1  0
 14 15  2  0
 14 13  1  0
 15 11  1  0
 16 22  1  0
 17 16  2  0
 19 18  1  1
 19 20  1  0
 21 19  1  0
 21 23  1  0
 21 22  1  6
 23 25  2  0
 23 24  1  0
M  END
$$$$
