EPV.pdb
     RDKit          3D

 24 24  0  0  1  0  0  0  0  0999 V2000
   19.3894  -12.5187  -17.4621 N   0  0  0  0  0  0  0  0  0  0  0  0
   19.5402  -11.1526  -17.8543 C   0  0  1  0  0  0  0  0  0  0  0  0
   18.1399  -10.6513  -18.1643 C   0  0  0  0  0  0  0  0  0  0  0  0
   17.5291  -11.4484  -19.2790 C   0  0  0  0  0  0  0  0  0  0  0  0
   16.1336  -11.0037  -19.5698 C   0  0  0  0  0  0  0  0  0  0  0  0
   15.4969  -11.4746  -20.5289 O   0  0  0  0  0  0  0  0  0  0  0  0
   20.2869  -10.2815  -16.9452 C   0  0  0  0  0  0  0  0  0  0  0  0
   19.7567  -10.1726  -15.7744 O   0  0  0  0  0  0  0  0  0  0  0  0
   15.5848  -10.0497  -18.7288 O   0  0  0  0  0  0  0  0  0  0  0  0
   21.4654   -9.5677  -17.1602 N   0  0  0  0  0  0  0  0  0  0  0  0
   22.6822  -10.1164  -17.7750 C   0  0  0  0  0  0  0  0  0  0  0  0
   22.8246   -9.0885  -18.9112 C   0  0  0  0  0  0  0  0  0  0  0  0
   22.2142   -7.7925  -18.3500 C   0  0  0  0  0  0  0  0  0  0  0  0
   21.9225   -8.2328  -16.9213 C   0  0  1  0  0  0  0  0  0  0  0  0
   21.1595   -7.3070  -16.1524 C   0  0  0  0  0  0  0  0  0  0  0  0
   20.0388   -6.8012  -16.3434 O   0  0  0  0  0  0  0  0  0  0  0  0
   19.8813   -7.6939  -12.8724 C   0  0  0  0  0  0  0  0  0  0  0  0
   20.7999   -6.5020  -12.7066 C   0  0  1  0  0  0  0  0  0  0  0  0
   22.0384   -6.9746  -11.9858 C   0  0  0  0  0  0  0  0  0  0  0  0
   21.1320   -5.9000  -14.0525 C   0  0  2  0  0  0  0  0  0  0  0  0
   21.7836   -6.8592  -14.9185 N   0  0  0  0  0  0  0  0  0  0  0  0
   21.9762   -4.6950  -13.8384 C   0  0  0  0  0  0  0  0  0  0  0  0
   21.4361   -3.6840  -13.3308 O   0  0  0  0  0  0  0  0  0  0  0  0
   23.3141   -4.6224  -14.1633 O   0  0  0  0  0  0  0  0  0  0  0  0
  2  1  1  1
  2  3  1  0
  3  4  1  0
  4  5  1  0
  5  9  1  0
  5  6  2  0
  7  2  1  0
  8  7  2  0
 10  7  1  0
 10 14  1  0
 11 12  1  0
 11 10  1  0
 12 13  1  0
 13 14  1  0
 14 15  1  6
 15 16  2  0
 18 17  1  6
 18 20  1  0
 19 18  1  0
 20 21  1  6
 20 22  1  0
 21 15  1  0
 22 23  2  0
 22 24  1  0
M  END
$$$$
