EPV.pdb
     RDKit          3D

 24 24  0  0  1  0  0  0  0  0999 V2000
   16.8139  -14.5619  -16.2010 N   0  0  0  0  0  0  0  0  0  0  0  0
   16.8366  -13.1857  -16.5867 C   0  0  1  0  0  0  0  0  0  0  0  0
   15.6968  -12.5229  -15.8320 C   0  0  0  0  0  0  0  0  0  0  0  0
   14.4057  -13.2434  -16.0874 C   0  0  0  0  0  0  0  0  0  0  0  0
   13.2781  -12.6357  -15.3202 C   0  0  0  0  0  0  0  0  0  0  0  0
   12.1076  -13.0227  -15.4854 O   0  0  0  0  0  0  0  0  0  0  0  0
   18.1138  -12.4825  -16.4556 C   0  0  0  0  0  0  0  0  0  0  0  0
   18.6021  -12.5063  -15.2620 O   0  0  0  0  0  0  0  0  0  0  0  0
   13.5928  -11.6288  -14.4227 O   0  0  0  0  0  0  0  0  0  0  0  0
   18.8622  -11.8049  -17.4175 N   0  0  0  0  0  0  0  0  0  0  0  0
   19.1255  -12.2939  -18.7780 C   0  0  0  0  0  0  0  0  0  0  0  0
   18.5709  -11.0820  -19.5472 C   0  0  0  0  0  0  0  0  0  0  0  0
   18.8001   -9.8821  -18.6119 C   0  0  0  0  0  0  0  0  0  0  0  0
   19.5711  -10.5637  -17.4888 C   0  0  1  0  0  0  0  0  0  0  0  0
   19.7862   -9.7575  -16.3338 C   0  0  0  0  0  0  0  0  0  0  0  0
   18.9916   -9.2461  -15.5242 O   0  0  0  0  0  0  0  0  0  0  0  0
   22.3879  -10.5413  -13.5142 C   0  0  0  0  0  0  0  0  0  0  0  0
   22.7379   -9.2172  -14.1593 C   0  0  1  0  0  0  0  0  0  0  0  0
   23.8986   -9.4552  -15.0937 C   0  0  0  0  0  0  0  0  0  0  0  0
   21.5406   -8.6520  -14.8882 C   0  0  2  0  0  0  0  0  0  0  0  0
   21.1770   -9.4676  -16.0272 N   0  0  0  0  0  0  0  0  0  0  0  0
   21.8470   -7.2544  -15.2922 C   0  0  0  0  0  0  0  0  0  0  0  0
   22.1954   -7.0506  -16.4790 O   0  0  0  0  0  0  0  0  0  0  0  0
   21.7711   -6.1713  -14.4425 O   0  0  0  0  0  0  0  0  0  0  0  0
  2  1  1  1
  2  3  1  0
  3  4  1  0
  4  5  1  0
  5  9  1  0
  5  6  2  0
  7  2  1  0
  8  7  2  0
 10  7  1  0
 10 14  1  0
 11 12  1  0
 11 10  1  0
 12 13  1  0
 13 14  1  0
 14 15  1  1
 15 16  2  0
 18 17  1  6
 18 20  1  0
 19 18  1  0
 20 21  1  6
 20 22  1  0
 21 15  1  0
 22 23  2  0
 22 24  1  0
M  END
$$$$
