EPV.pdb
     RDKit          3D

 24 24  0  0  1  0  0  0  0  0999 V2000
   20.0087  -12.9193  -18.6976 N   0  0  0  0  0  0  0  0  0  0  0  0
   19.8095  -11.5095  -18.8244 C   0  0  1  0  0  0  0  0  0  0  0  0
   18.3123  -11.2871  -18.6940 C   0  0  0  0  0  0  0  0  0  0  0  0
   17.5718  -12.0477  -19.7544 C   0  0  0  0  0  0  0  0  0  0  0  0
   16.0964  -11.8458  -19.6440 C   0  0  0  0  0  0  0  0  0  0  0  0
   15.4868  -11.1171  -20.4467 O   0  0  0  0  0  0  0  0  0  0  0  0
   20.6085  -10.6471  -17.9523 C   0  0  0  0  0  0  0  0  0  0  0  0
   20.4386  -10.8765  -16.6944 O   0  0  0  0  0  0  0  0  0  0  0  0
   15.4427  -12.5024  -18.6145 O   0  0  0  0  0  0  0  0  0  0  0  0
   21.5087   -9.6340  -18.2810 N   0  0  0  0  0  0  0  0  0  0  0  0
   22.5380   -9.7282  -19.3256 C   0  0  0  0  0  0  0  0  0  0  0  0
   22.1216   -8.4921  -20.1420 C   0  0  0  0  0  0  0  0  0  0  0  0
   21.5068   -7.5279  -19.1127 C   0  0  0  0  0  0  0  0  0  0  0  0
   21.7752   -8.3026  -17.8290 C   0  0  1  0  0  0  0  0  0  0  0  0
   21.1510   -7.7687  -16.6646 C   0  0  0  0  0  0  0  0  0  0  0  0
   19.9525   -7.6172  -16.3661 O   0  0  0  0  0  0  0  0  0  0  0  0
   21.3090   -6.9346  -11.9445 C   0  0  0  0  0  0  0  0  0  0  0  0
   21.9113   -7.5421  -13.1935 C   0  0  1  0  0  0  0  0  0  0  0  0
   21.3887   -8.9524  -13.3153 C   0  0  0  0  0  0  0  0  0  0  0  0
   21.5627   -6.7103  -14.4063 C   0  0  2  0  0  0  0  0  0  0  0  0
   22.0588   -7.3125  -15.6253 N   0  0  0  0  0  0  0  0  0  0  0  0
   22.1051   -5.3395  -14.2136 C   0  0  0  0  0  0  0  0  0  0  0  0
   23.2570   -5.0991  -14.6459 O   0  0  0  0  0  0  0  0  0  0  0  0
   21.4194   -4.3189  -13.5900 O   0  0  0  0  0  0  0  0  0  0  0  0
  2  1  1  1
  2  3  1  0
  3  4  1  0
  4  5  1  0
  5  9  1  0
  5  6  2  0
  7  2  1  0
  8  7  2  0
 10  7  1  0
 10 14  1  0
 11 12  1  0
 11 10  1  0
 12 13  1  0
 13 14  1  0
 14 15  1  1
 15 16  2  0
 18 17  1  1
 18 20  1  0
 19 18  1  0
 20 21  1  6
 20 22  1  0
 21 15  1  0
 22 23  2  0
 22 24  1  0
M  END
$$$$
