EPV.pdb
     RDKit          3D

 24 24  0  0  1  0  0  0  0  0999 V2000
   17.3729  -11.9024  -17.8188 N   0  0  0  0  0  0  0  0  0  0  0  0
   17.8573  -11.4275  -16.5606 C   0  0  1  0  0  0  0  0  0  0  0  0
   18.8420  -12.4758  -16.0711 C   0  0  0  0  0  0  0  0  0  0  0  0
   18.2077  -13.8355  -16.0698 C   0  0  0  0  0  0  0  0  0  0  0  0
   19.1804  -14.8934  -15.6647 C   0  0  0  0  0  0  0  0  0  0  0  0
   20.2901  -14.9905  -16.2181 O   0  0  0  0  0  0  0  0  0  0  0  0
   18.3882  -10.0638  -16.5278 C   0  0  0  0  0  0  0  0  0  0  0  0
   19.5466   -9.9416  -17.0818 O   0  0  0  0  0  0  0  0  0  0  0  0
   18.7932  -15.7554  -14.6521 O   0  0  0  0  0  0  0  0  0  0  0  0
   17.8312   -8.9020  -15.9943 N   0  0  0  0  0  0  0  0  0  0  0  0
   16.4483   -8.4545  -16.2108 C   0  0  0  0  0  0  0  0  0  0  0  0
   16.0292   -8.3474  -14.7341 C   0  0  0  0  0  0  0  0  0  0  0  0
   17.3245   -7.9995  -13.9802 C   0  0  0  0  0  0  0  0  0  0  0  0
   18.2795   -7.8328  -15.1552 C   0  0  1  0  0  0  0  0  0  0  0  0
   19.6510   -7.6872  -14.7972 C   0  0  0  0  0  0  0  0  0  0  0  0
   20.4614   -8.4846  -14.2913 O   0  0  0  0  0  0  0  0  0  0  0  0
   23.7149   -5.0022  -15.5100 C   0  0  0  0  0  0  0  0  0  0  0  0
   22.2853   -5.3368  -15.8791 C   0  0  1  0  0  0  0  0  0  0  0  0
   22.3176   -6.1413  -17.1552 C   0  0  0  0  0  0  0  0  0  0  0  0
   21.6140   -6.0951  -14.7572 C   0  0  2  0  0  0  0  0  0  0  0  0
   20.2280   -6.3798  -15.0618 N   0  0  0  0  0  0  0  0  0  0  0  0
   21.7474   -5.3059  -13.5043 C   0  0  0  0  0  0  0  0  0  0  0  0
   20.8734   -4.4408  -13.2610 O   0  0  0  0  0  0  0  0  0  0  0  0
   22.7717   -5.4676  -12.5957 O   0  0  0  0  0  0  0  0  0  0  0  0
  2  1  1  6
  2  3  1  0
  3  4  1  0
  4  5  1  0
  5  9  1  0
  5  6  2  0
  7  2  1  0
  8  7  2  0
 10  7  1  0
 10 14  1  0
 11 12  1  0
 11 10  1  0
 12 13  1  0
 13 14  1  0
 14 15  1  1
 15 16  2  0
 18 17  1  1
 18 20  1  0
 19 18  1  0
 20 21  1  6
 20 22  1  0
 21 15  1  0
 22 23  2  0
 22 24  1  0
M  END
$$$$
