NNL.pdb
     RDKit          3D

 25 24  0  0  1  0  0  0  0  0999 V2000
    3.0543  -20.0665   21.6370 N   0  0  0  0  0  0  0  0  0  0  0  0
    4.3406  -19.6094   21.2710 C   0  0  0  0  0  0  0  0  0  0  0  0
    4.5517  -19.3757   20.0590 O   0  0  0  0  0  0  0  0  0  0  0  0
    5.4133  -19.4051   22.2496 C   0  0  0  0  0  0  0  0  0  0  0  0
    5.8791  -17.9719   22.2344 C   0  0  2  0  0  0  0  0  0  0  0  0
    5.9362  -17.4639   20.8837 N   0  0  0  0  0  0  0  0  0  0  0  0
    7.1878  -17.8117   22.9047 C   0  0  0  0  0  0  0  0  0  0  0  0
    7.3856  -18.1538   24.1031 O   0  0  0  0  0  0  0  0  0  0  0  0
   12.1448  -16.5688   23.6470 N   0  0  0  0  0  0  0  0  0  0  0  0
   11.9197  -16.3736   22.2703 C   0  0  0  0  0  0  0  0  0  0  0  0
   12.8698  -16.0562   21.5079 O   0  0  0  0  0  0  0  0  0  0  0  0
   10.5612  -16.5410   21.7105 C   0  0  0  0  0  0  0  0  0  0  0  0
    9.5658  -17.0062   22.7581 C   0  0  2  0  0  0  0  0  0  0  0  0
    8.2652  -17.2514   22.1738 N   0  0  0  0  0  0  0  0  0  0  0  0
    9.4298  -15.8716   23.7179 C   0  0  0  0  0  0  0  0  0  0  0  0
    9.5340  -14.7076   23.2550 O   0  0  0  0  0  0  0  0  0  0  0  0
    8.0182  -11.9817   26.2045 C   0  0  0  0  0  0  0  0  0  0  0  0
    7.1897  -13.2777   26.4949 C   0  0  1  0  0  0  0  0  0  0  0  0
    5.7814  -12.8776   26.2375 C   0  0  0  0  0  0  0  0  0  0  0  0
    7.8004  -14.3107   25.6505 C   0  0  0  0  0  0  0  0  0  0  0  0
    9.1048  -14.9213   25.9846 C   0  0  2  0  0  0  0  0  0  0  0  0
    9.1930  -16.1100   25.0931 N   0  0  0  0  0  0  0  0  0  0  0  0
    9.1529  -15.4194   27.3628 C   0  0  0  0  0  0  0  0  0  0  0  0
    8.8066  -16.7727   27.5842 O   0  0  0  0  0  0  0  0  0  0  0  0
    9.4688  -14.7814   28.3879 O   0  0  0  0  0  0  0  0  0  0  0  0
  1  2  1  0
  2  3  2  0
  4  2  1  0
  5  4  1  0
  5  6  1  6
  7  8  2  0
  7  5  1  0
 10  9  1  0
 10 12  1  0
 11 10  2  0
 13 12  1  6
 13 14  1  0
 14  7  1  0
 15 22  1  0
 15 13  1  0
 16 15  2  0
 18 19  1  6
 18 17  1  0
 20 18  1  0
 21 20  1  1
 21 22  1  0
 23 21  1  0
 24 23  1  0
 25 23  2  0
M  END
$$$$
