NNL.pdb
     RDKit          3D

 25 24  0  0  1  0  0  0  0  0999 V2000
    8.9476  -12.7257   17.4574 N   0  0  0  0  0  0  0  0  0  0  0  0
    7.7517  -13.4541   17.6489 C   0  0  0  0  0  0  0  0  0  0  0  0
    6.9013  -13.4278   16.7302 O   0  0  0  0  0  0  0  0  0  0  0  0
    7.4836  -14.2241   18.8676 C   0  0  0  0  0  0  0  0  0  0  0  0
    8.6124  -14.0665   19.8535 C   0  0  2  0  0  0  0  0  0  0  0  0
    9.8628  -14.5041   19.2783 N   0  0  0  0  0  0  0  0  0  0  0  0
    8.3432  -14.7857   21.1177 C   0  0  0  0  0  0  0  0  0  0  0  0
    7.2646  -14.6546   21.7595 O   0  0  0  0  0  0  0  0  0  0  0  0
   10.6129  -19.1332   20.8963 N   0  0  0  0  0  0  0  0  0  0  0  0
    9.7309  -18.7342   21.9196 C   0  0  0  0  0  0  0  0  0  0  0  0
    8.6167  -19.3033   22.0585 O   0  0  0  0  0  0  0  0  0  0  0  0
   10.1101  -17.6406   22.8399 C   0  0  0  0  0  0  0  0  0  0  0  0
    9.1213  -16.4894   22.7961 C   0  0  2  0  0  0  0  0  0  0  0  0
    9.3350  -15.6582   21.6314 N   0  0  0  0  0  0  0  0  0  0  0  0
    9.4083  -15.6643   24.0061 C   0  0  0  0  0  0  0  0  0  0  0  0
   10.5314  -15.1034   24.0698 O   0  0  0  0  0  0  0  0  0  0  0  0
    5.8711  -12.4716   26.7442 C   0  0  0  0  0  0  0  0  0  0  0  0
    7.2097  -12.8559   26.0294 C   0  0  1  0  0  0  0  0  0  0  0  0
    8.0467  -11.6322   26.1364 C   0  0  0  0  0  0  0  0  0  0  0  0
    7.6551  -14.0822   26.7009 C   0  0  0  0  0  0  0  0  0  0  0  0
    8.8667  -14.8120   26.2702 C   0  0  2  0  0  0  0  0  0  0  0  0
    8.4453  -15.5267   25.0345 N   0  0  0  0  0  0  0  0  0  0  0  0
    9.2751  -15.8373   27.2356 C   0  0  0  0  0  0  0  0  0  0  0  0
    8.9797  -17.1853   26.9260 O   0  0  0  0  0  0  0  0  0  0  0  0
    9.8644  -15.6627   28.3219 O   0  0  0  0  0  0  0  0  0  0  0  0
  1  2  1  0
  2  3  2  0
  4  2  1  0
  5  4  1  0
  5  6  1  6
  7  8  2  0
  7  5  1  0
 10  9  1  0
 10 12  1  0
 11 10  2  0
 13 12  1  6
 13 14  1  0
 14  7  1  0
 15 22  1  0
 15 13  1  0
 16 15  2  0
 18 19  1  1
 18 17  1  0
 20 18  1  0
 21 20  1  1
 21 22  1  0
 23 21  1  0
 24 23  1  0
 25 23  2  0
M  END
$$$$
