NNL.pdb
     RDKit          3D

 25 24  0  0  1  0  0  0  0  0999 V2000
    9.2768  -19.0616   19.8683 N   0  0  0  0  0  0  0  0  0  0  0  0
   10.6324  -19.4295   19.7109 C   0  0  0  0  0  0  0  0  0  0  0  0
   10.9642  -19.9820   18.6373 O   0  0  0  0  0  0  0  0  0  0  0  0
   11.6408  -19.1877   20.7476 C   0  0  0  0  0  0  0  0  0  0  0  0
   11.0191  -18.5191   21.9465 C   0  0  2  0  0  0  0  0  0  0  0  0
    9.8383  -19.2302   22.3774 N   0  0  0  0  0  0  0  0  0  0  0  0
   10.7015  -17.0990   21.6813 C   0  0  0  0  0  0  0  0  0  0  0  0
   11.5529  -16.2831   21.2319 O   0  0  0  0  0  0  0  0  0  0  0  0
    8.1560  -12.7382   20.9727 N   0  0  0  0  0  0  0  0  0  0  0  0
    7.2360  -13.7855   20.7705 C   0  0  0  0  0  0  0  0  0  0  0  0
    6.1062  -13.5530   20.2664 O   0  0  0  0  0  0  0  0  0  0  0  0
    7.5932  -15.1692   21.1507 C   0  0  0  0  0  0  0  0  0  0  0  0
    8.9902  -15.2570   21.7383 C   0  0  2  0  0  0  0  0  0  0  0  0
    9.3886  -16.6327   21.9416 N   0  0  0  0  0  0  0  0  0  0  0  0
    8.9072  -14.6020   23.0767 C   0  0  0  0  0  0  0  0  0  0  0  0
    8.7152  -13.3600   23.1012 O   0  0  0  0  0  0  0  0  0  0  0  0
    5.6300  -12.7971   25.7748 C   0  0  0  0  0  0  0  0  0  0  0  0
    7.1633  -12.8097   25.4597 C   0  0  1  0  0  0  0  0  0  0  0  0
    7.7248  -11.7427   26.3291 C   0  0  0  0  0  0  0  0  0  0  0  0
    7.5805  -14.1990   25.6807 C   0  0  0  0  0  0  0  0  0  0  0  0
    8.9924  -14.6195   25.5544 C   0  0  2  0  0  0  0  0  0  0  0  0
    9.0409  -15.3606   24.2645 N   0  0  0  0  0  0  0  0  0  0  0  0
    9.3906  -15.5645   26.6025 C   0  0  0  0  0  0  0  0  0  0  0  0
    9.6679  -16.8961   26.2149 O   0  0  0  0  0  0  0  0  0  0  0  0
    9.5175  -15.3330   27.8222 O   0  0  0  0  0  0  0  0  0  0  0  0
  1  2  1  0
  2  3  2  0
  4  2  1  0
  5  4  1  0
  5  6  1  6
  7  8  2  0
  7  5  1  0
 10  9  1  0
 10 12  1  0
 11 10  2  0
 13 12  1  1
 13 14  1  0
 14  7  1  0
 15 22  1  0
 15 13  1  0
 16 15  2  0
 18 19  1  1
 18 17  1  0
 20 18  1  0
 21 20  1  1
 21 22  1  0
 23 21  1  0
 24 23  1  0
 25 23  2  0
M  END
$$$$
