NNL.pdb
     RDKit          3D

 25 24  0  0  1  0  0  0  0  0999 V2000
    9.3604  -13.9723   16.0504 N   0  0  0  0  0  0  0  0  0  0  0  0
    8.0287  -13.7448   16.4657 C   0  0  0  0  0  0  0  0  0  0  0  0
    7.1937  -13.4212   15.5905 O   0  0  0  0  0  0  0  0  0  0  0  0
    7.6053  -13.8741   17.8636 C   0  0  0  0  0  0  0  0  0  0  0  0
    8.7483  -14.3519   18.7218 C   0  0  2  0  0  0  0  0  0  0  0  0
    9.5907  -15.2703   17.9920 N   0  0  0  0  0  0  0  0  0  0  0  0
    8.2718  -14.9713   19.9776 C   0  0  0  0  0  0  0  0  0  0  0  0
    7.1258  -14.7466   20.4558 O   0  0  0  0  0  0  0  0  0  0  0  0
    8.1073  -19.6983   21.3221 N   0  0  0  0  0  0  0  0  0  0  0  0
    9.2057  -18.8455   21.0978 C   0  0  0  0  0  0  0  0  0  0  0  0
    9.8997  -18.9611   20.0539 O   0  0  0  0  0  0  0  0  0  0  0  0
    9.5513  -17.8056   22.0908 C   0  0  0  0  0  0  0  0  0  0  0  0
    8.7459  -16.5345   21.8898 C   0  0  2  0  0  0  0  0  0  0  0  0
    9.1352  -15.8532   20.6745 N   0  0  0  0  0  0  0  0  0  0  0  0
    9.0923  -15.6506   23.0412 C   0  0  0  0  0  0  0  0  0  0  0  0
   10.2580  -15.1817   23.0792 O   0  0  0  0  0  0  0  0  0  0  0  0
    6.1336  -11.5009   25.7820 C   0  0  0  0  0  0  0  0  0  0  0  0
    7.4351  -12.3057   26.1119 C   0  0  1  0  0  0  0  0  0  0  0  0
    7.3102  -12.6280   27.5575 C   0  0  0  0  0  0  0  0  0  0  0  0
    7.4545  -13.4034   25.1384 C   0  0  0  0  0  0  0  0  0  0  0  0
    8.5416  -14.4052   25.1129 C   0  0  2  0  0  0  0  0  0  0  0  0
    8.1371  -15.3592   24.0445 N   0  0  0  0  0  0  0  0  0  0  0  0
    8.6242  -15.1731   26.3593 C   0  0  0  0  0  0  0  0  0  0  0  0
    9.5996  -14.7842   27.3066 O   0  0  0  0  0  0  0  0  0  0  0  0
    7.9238  -16.1503   26.6944 O   0  0  0  0  0  0  0  0  0  0  0  0
  1  2  1  0
  2  3  2  0
  4  2  1  0
  5  4  1  0
  5  6  1  6
  7  8  2  0
  7  5  1  0
 10  9  1  0
 10 12  1  0
 11 10  2  0
 13 12  1  1
 13 14  1  0
 14  7  1  0
 15 22  1  0
 15 13  1  0
 16 15  2  0
 18 19  1  1
 18 17  1  0
 20 18  1  0
 21 20  1  1
 21 22  1  0
 23 21  1  0
 24 23  1  0
 25 23  2  0
M  END
$$$$
