NNL.pdb
     RDKit          3D

 25 24  0  0  1  0  0  0  0  0999 V2000
    8.1205  -12.0623   18.3324 N   0  0  0  0  0  0  0  0  0  0  0  0
    7.8766  -13.4454   18.1736 C   0  0  0  0  0  0  0  0  0  0  0  0
    8.2471  -13.9823   17.1048 O   0  0  0  0  0  0  0  0  0  0  0  0
    7.2156  -14.2532   19.2035 C   0  0  0  0  0  0  0  0  0  0  0  0
    8.2226  -14.7730   20.1969 C   0  0  2  0  0  0  0  0  0  0  0  0
    9.2473  -15.5455   19.5345 N   0  0  0  0  0  0  0  0  0  0  0  0
    7.5808  -15.5703   21.2647 C   0  0  0  0  0  0  0  0  0  0  0  0
    6.6027  -16.3376   21.0475 O   0  0  0  0  0  0  0  0  0  0  0  0
   12.6407  -16.2984   23.4639 N   0  0  0  0  0  0  0  0  0  0  0  0
   11.5732  -16.8611   22.7375 C   0  0  0  0  0  0  0  0  0  0  0  0
   11.5651  -18.0903   22.4657 O   0  0  0  0  0  0  0  0  0  0  0  0
   10.4516  -16.0084   22.2882 C   0  0  0  0  0  0  0  0  0  0  0  0
    9.1798  -16.2787   23.0720 C   0  0  2  0  0  0  0  0  0  0  0  0
    8.0825  -15.4706   22.5866 N   0  0  0  0  0  0  0  0  0  0  0  0
    9.4724  -15.8588   24.4738 C   0  0  0  0  0  0  0  0  0  0  0  0
   10.4974  -16.3404   25.0192 O   0  0  0  0  0  0  0  0  0  0  0  0
    6.0752  -12.1317   26.6834 C   0  0  0  0  0  0  0  0  0  0  0  0
    7.3696  -12.6518   25.9731 C   0  0  1  0  0  0  0  0  0  0  0  0
    8.1040  -11.4151   25.5981 C   0  0  0  0  0  0  0  0  0  0  0  0
    7.9799  -13.5764   26.9352 C   0  0  0  0  0  0  0  0  0  0  0  0
    9.0131  -14.5538   26.5311 C   0  0  2  0  0  0  0  0  0  0  0  0
    8.6215  -14.9530   25.1517 N   0  0  0  0  0  0  0  0  0  0  0  0
    8.9837  -15.7699   27.3498 C   0  0  0  0  0  0  0  0  0  0  0  0
    9.4959  -15.6880   28.6655 O   0  0  0  0  0  0  0  0  0  0  0  0
    8.5527  -16.8940   27.0207 O   0  0  0  0  0  0  0  0  0  0  0  0
  1  2  1  0
  2  3  2  0
  4  2  1  0
  5  4  1  0
  5  6  1  6
  7  8  2  0
  7  5  1  0
 10  9  1  0
 10 12  1  0
 11 10  2  0
 13 12  1  6
 13 14  1  0
 14  7  1  0
 15 22  1  0
 15 13  1  0
 16 15  2  0
 18 19  1  1
 18 17  1  0
 20 18  1  0
 21 20  1  1
 21 22  1  0
 23 21  1  0
 24 23  1  0
 25 23  2  0
M  END
$$$$
