HNS.pdb
     RDKit          3D

 25 25  0  0  1  0  0  0  0  0999 V2000
   21.2531  -10.2931  -16.1779 N   0  0  0  0  0  0  0  0  0  0  0  0
   20.3503   -9.3456  -15.6010 C   0  0  1  0  0  0  0  0  0  0  0  0
   19.4864   -9.9484  -14.4966 C   0  0  0  0  0  0  0  0  0  0  0  0
   18.6024  -11.0012  -15.0887 C   0  0  0  0  0  0  0  0  0  0  0  0
   18.5728  -11.3952  -16.4112 C   0  0  0  0  0  0  0  0  0  0  0  0
   17.6551  -12.3520  -16.5313 N   0  0  0  0  0  0  0  0  0  0  0  0
   17.1236  -12.5530  -15.3189 C   0  0  0  0  0  0  0  0  0  0  0  0
   17.6990  -11.7319  -14.4404 N   0  0  0  0  0  0  0  0  0  0  0  0
   21.0685   -8.1470  -15.0581 C   0  0  0  0  0  0  0  0  0  0  0  0
   22.1600   -8.2596  -14.4565 O   0  0  0  0  0  0  0  0  0  0  0  0
   22.8283   -3.4459  -14.3107 N   0  0  0  0  0  0  0  0  0  0  0  0
   23.4275   -4.4490  -15.1304 C   0  0  0  0  0  0  0  0  0  0  0  0
   24.6048   -4.2363  -15.4999 O   0  0  0  0  0  0  0  0  0  0  0  0
   22.6182   -5.6207  -15.4592 C   0  0  0  0  0  0  0  0  0  0  0  0
   21.2648   -5.6371  -14.7909 C   0  0  2  0  0  0  0  0  0  0  0  0
   20.5432   -6.8328  -15.2020 N   0  0  0  0  0  0  0  0  0  0  0  0
   20.4930   -4.4028  -15.1085 C   0  0  0  0  0  0  0  0  0  0  0  0
   20.2992   -4.1386  -16.3222 O   0  0  0  0  0  0  0  0  0  0  0  0
   17.4283   -0.9411  -13.5015 O   0  0  0  0  0  0  0  0  0  0  0  0
   18.2719   -2.0003  -13.2252 C   0  0  0  0  0  0  0  0  0  0  0  0
   19.1183   -2.4017  -14.4046 C   0  0  2  0  0  0  0  0  0  0  0  0
   19.9690   -3.5179  -14.1526 N   0  0  0  0  0  0  0  0  0  0  0  0
   19.9132   -1.2360  -14.8397 C   0  0  0  0  0  0  0  0  0  0  0  0
   19.5263   -0.4972  -15.7828 O   0  0  0  0  0  0  0  0  0  0  0  0
   21.1168   -0.9064  -14.2292 O   0  0  0  0  0  0  0  0  0  0  0  0
  2  1  1  1
  3  2  1  0
  4  3  1  0
  5  4  2  0
  6  5  1  0
  7  6  1  0
  7  8  2  0
  8  4  1  0
  9  2  1  0
  9 10  2  0
 11 12  1  0
 12 14  1  0
 12 13  2  0
 15 14  1  6
 15 16  1  0
 16  9  1  0
 17 15  1  0
 18 17  2  0
 19 20  1  0
 21 20  1  1
 21 22  1  0
 21 23  1  0
 22 17  1  0
 23 24  2  0
 23 25  1  0
M  END
$$$$
