HNS.pdb
     RDKit          3D

 25 25  0  0  1  0  0  0  0  0999 V2000
   22.8543  -17.4685  -18.5904 N   0  0  0  0  0  0  0  0  0  0  0  0
   22.6586  -17.3183  -17.1817 C   0  0  1  0  0  0  0  0  0  0  0  0
   21.4798  -16.4103  -16.8419 C   0  0  0  0  0  0  0  0  0  0  0  0
   21.8228  -15.0034  -17.2209 C   0  0  0  0  0  0  0  0  0  0  0  0
   22.4556  -14.5997  -18.3791 C   0  0  0  0  0  0  0  0  0  0  0  0
   22.5757  -13.2746  -18.3377 N   0  0  0  0  0  0  0  0  0  0  0  0
   22.0337  -12.8582  -17.1863 C   0  0  0  0  0  0  0  0  0  0  0  0
   21.5753  -13.9089  -16.5060 N   0  0  0  0  0  0  0  0  0  0  0  0
   22.4684  -18.6393  -16.4991 C   0  0  0  0  0  0  0  0  0  0  0  0
   21.6984  -19.5082  -16.9660 O   0  0  0  0  0  0  0  0  0  0  0  0
   25.0391  -20.6809  -16.2586 N   0  0  0  0  0  0  0  0  0  0  0  0
   25.3213  -20.8832  -14.8742 C   0  0  0  0  0  0  0  0  0  0  0  0
   26.4802  -21.2642  -14.5918 O   0  0  0  0  0  0  0  0  0  0  0  0
   24.2408  -20.6292  -13.9234 C   0  0  0  0  0  0  0  0  0  0  0  0
   22.9432  -20.2080  -14.5695 C   0  0  2  0  0  0  0  0  0  0  0  0
   23.1523  -18.9630  -15.2944 N   0  0  0  0  0  0  0  0  0  0  0  0
   21.8584  -20.0697  -13.5575 C   0  0  0  0  0  0  0  0  0  0  0  0
   21.7487  -18.9609  -12.9756 O   0  0  0  0  0  0  0  0  0  0  0  0
   17.5519  -19.7115  -13.0153 O   0  0  0  0  0  0  0  0  0  0  0  0
   18.7903  -19.9755  -13.5688 C   0  0  0  0  0  0  0  0  0  0  0  0
   19.6224  -20.9102  -12.7306 C   0  0  2  0  0  0  0  0  0  0  0  0
   20.9540  -21.0857  -13.2093 N   0  0  0  0  0  0  0  0  0  0  0  0
   18.9317  -22.2120  -12.6398 C   0  0  0  0  0  0  0  0  0  0  0  0
   19.0567  -23.0817  -13.5414 O   0  0  0  0  0  0  0  0  0  0  0  0
   18.1179  -22.5309  -11.5600 O   0  0  0  0  0  0  0  0  0  0  0  0
  2  1  1  6
  3  2  1  0
  4  3  1  0
  5  4  2  0
  6  5  1  0
  7  6  1  0
  7  8  2  0
  8  4  1  0
  9  2  1  0
  9 10  2  0
 11 12  1  0
 12 14  1  0
 12 13  2  0
 15 14  1  1
 15 16  1  0
 16  9  1  0
 17 15  1  0
 18 17  2  0
 19 20  1  0
 21 20  1  6
 21 22  1  0
 21 23  1  0
 22 17  1  0
 23 24  2  0
 23 25  1  0
M  END
$$$$
