HNS.pdb
     RDKit          3D

 25 25  0  0  1  0  0  0  0  0999 V2000
   24.0734  -12.8407  -17.5186 N   0  0  0  0  0  0  0  0  0  0  0  0
   24.2829  -11.8353  -16.5232 C   0  0  1  0  0  0  0  0  0  0  0  0
   25.6602  -11.1849  -16.6201 C   0  0  0  0  0  0  0  0  0  0  0  0
   26.7085  -12.2219  -16.3624 C   0  0  0  0  0  0  0  0  0  0  0  0
   26.4875  -13.5387  -16.0130 C   0  0  0  0  0  0  0  0  0  0  0  0
   27.6729  -14.1285  -15.8748 N   0  0  0  0  0  0  0  0  0  0  0  0
   28.6113  -13.2082  -16.1301 C   0  0  0  0  0  0  0  0  0  0  0  0
   28.0259  -12.0479  -16.4268 N   0  0  0  0  0  0  0  0  0  0  0  0
   23.2342  -10.7655  -16.5789 C   0  0  0  0  0  0  0  0  0  0  0  0
   22.8790  -10.2583  -17.6664 O   0  0  0  0  0  0  0  0  0  0  0  0
   19.7547  -11.1608  -16.2339 N   0  0  0  0  0  0  0  0  0  0  0  0
   19.5826  -10.6969  -14.8951 C   0  0  0  0  0  0  0  0  0  0  0  0
   18.6693  -11.2382  -14.2312 O   0  0  0  0  0  0  0  0  0  0  0  0
   20.4806   -9.6427  -14.4280 C   0  0  0  0  0  0  0  0  0  0  0  0
   21.5533   -9.2674  -15.4214 C   0  0  2  0  0  0  0  0  0  0  0  0
   22.5981  -10.2809  -15.4023 N   0  0  0  0  0  0  0  0  0  0  0  0
   22.1059   -7.9145  -15.1310 C   0  0  0  0  0  0  0  0  0  0  0  0
   23.0306   -7.8377  -14.2828 O   0  0  0  0  0  0  0  0  0  0  0  0
   22.0787   -3.0931  -16.1378 O   0  0  0  0  0  0  0  0  0  0  0  0
   21.5245   -4.3441  -16.3315 C   0  0  0  0  0  0  0  0  0  0  0  0
   22.1939   -5.4174  -15.5138 C   0  0  2  0  0  0  0  0  0  0  0  0
   21.6690   -6.7246  -15.7349 N   0  0  0  0  0  0  0  0  0  0  0  0
   22.0972   -5.0581  -14.0849 C   0  0  0  0  0  0  0  0  0  0  0  0
   22.9992   -4.3877  -13.5178 O   0  0  0  0  0  0  0  0  0  0  0  0
   21.0110   -5.4433  -13.3092 O   0  0  0  0  0  0  0  0  0  0  0  0
  2  1  1  6
  3  2  1  0
  4  3  1  0
  5  4  2  0
  6  5  1  0
  7  6  1  0
  7  8  2  0
  8  4  1  0
  9  2  1  0
  9 10  2  0
 11 12  1  0
 12 14  1  0
 12 13  2  0
 15 14  1  1
 15 16  1  0
 16  9  1  0
 17 15  1  0
 18 17  2  0
 19 20  1  0
 21 20  1  6
 21 22  1  0
 21 23  1  0
 22 17  1  0
 23 24  2  0
 23 25  1  0
M  END
$$$$
