HNS.pdb
     RDKit          3D

 25 25  0  0  1  0  0  0  0  0999 V2000
   23.6395  -11.0917  -17.4365 N   0  0  0  0  0  0  0  0  0  0  0  0
   23.8224  -10.2632  -16.2852 C   0  0  1  0  0  0  0  0  0  0  0  0
   25.2369   -9.6995  -16.1808 C   0  0  0  0  0  0  0  0  0  0  0  0
   26.2129  -10.8340  -16.1486 C   0  0  0  0  0  0  0  0  0  0  0  0
   27.2660  -11.0315  -17.0186 C   0  0  0  0  0  0  0  0  0  0  0  0
   27.8918  -12.1486  -16.6545 N   0  0  0  0  0  0  0  0  0  0  0  0
   27.2500  -12.6384  -15.5864 C   0  0  0  0  0  0  0  0  0  0  0  0
   26.2284  -11.8396  -15.2776 N   0  0  0  0  0  0  0  0  0  0  0  0
   22.8425   -9.1293  -16.2502 C   0  0  0  0  0  0  0  0  0  0  0  0
   22.5764   -8.4671  -17.2782 O   0  0  0  0  0  0  0  0  0  0  0  0
   19.0130   -6.0360  -14.8151 N   0  0  0  0  0  0  0  0  0  0  0  0
   19.0610   -7.0742  -13.8368 C   0  0  0  0  0  0  0  0  0  0  0  0
   18.1377   -7.0857  -12.9912 O   0  0  0  0  0  0  0  0  0  0  0  0
   20.1737   -8.0188  -13.9126 C   0  0  0  0  0  0  0  0  0  0  0  0
   21.1794   -7.6949  -14.9907 C   0  0  2  0  0  0  0  0  0  0  0  0
   22.1737   -8.7566  -15.0512 N   0  0  0  0  0  0  0  0  0  0  0  0
   21.8165   -6.3694  -14.7514 C   0  0  0  0  0  0  0  0  0  0  0  0
   23.0547   -6.3540  -14.5346 O   0  0  0  0  0  0  0  0  0  0  0  0
   23.1255   -2.3985  -16.1756 O   0  0  0  0  0  0  0  0  0  0  0  0
   22.6004   -3.6723  -16.0684 C   0  0  0  0  0  0  0  0  0  0  0  0
   21.7193   -3.8458  -14.8592 C   0  0  2  0  0  0  0  0  0  0  0  0
   21.1349   -5.1419  -14.7508 N   0  0  0  0  0  0  0  0  0  0  0  0
   20.6698   -2.8076  -14.8811 C   0  0  0  0  0  0  0  0  0  0  0  0
   19.6159   -2.9587  -15.5529 O   0  0  0  0  0  0  0  0  0  0  0  0
   20.8003   -1.6248  -14.1642 O   0  0  0  0  0  0  0  0  0  0  0  0
  2  1  1  6
  3  2  1  0
  4  3  1  0
  5  4  2  0
  6  5  1  0
  7  6  1  0
  7  8  2  0
  8  4  1  0
  9  2  1  0
  9 10  2  0
 11 12  1  0
 12 14  1  0
 12 13  2  0
 15 14  1  1
 15 16  1  0
 16  9  1  0
 17 15  1  0
 18 17  2  0
 19 20  1  0
 21 20  1  6
 21 22  1  0
 21 23  1  0
 22 17  1  0
 23 24  2  0
 23 25  1  0
M  END
$$$$
