HNS.pdb
     RDKit          3D

 25 25  0  0  1  0  0  0  0  0999 V2000
   19.9790  -12.5163  -19.3743 N   0  0  0  0  0  0  0  0  0  0  0  0
   21.1430  -11.9861  -18.7343 C   0  0  1  0  0  0  0  0  0  0  0  0
   22.2941  -11.7439  -19.7067 C   0  0  0  0  0  0  0  0  0  0  0  0
   22.7618  -13.0595  -20.2462 C   0  0  0  0  0  0  0  0  0  0  0  0
   22.7615  -14.2653  -19.5747 C   0  0  0  0  0  0  0  0  0  0  0  0
   23.2530  -15.1900  -20.3965 N   0  0  0  0  0  0  0  0  0  0  0  0
   23.5533  -14.5821  -21.5511 C   0  0  0  0  0  0  0  0  0  0  0  0
   23.2549  -13.2861  -21.4610 N   0  0  0  0  0  0  0  0  0  0  0  0
   20.8477  -10.7118  -18.0022 C   0  0  0  0  0  0  0  0  0  0  0  0
   19.8963   -9.9724  -18.3402 O   0  0  0  0  0  0  0  0  0  0  0  0
   21.0192   -6.8617  -14.5759 N   0  0  0  0  0  0  0  0  0  0  0  0
   21.2948   -8.0824  -13.8895 C   0  0  0  0  0  0  0  0  0  0  0  0
   21.3057   -8.0277  -12.6386 O   0  0  0  0  0  0  0  0  0  0  0  0
   21.5366   -9.2719  -14.7034 C   0  0  0  0  0  0  0  0  0  0  0  0
   21.4032   -9.0352  -16.1883 C   0  0  2  0  0  0  0  0  0  0  0  0
   21.6328  -10.2874  -16.8943 N   0  0  0  0  0  0  0  0  0  0  0  0
   22.3409   -7.9734  -16.6501 C   0  0  0  0  0  0  0  0  0  0  0  0
   22.2695   -6.8532  -16.0842 O   0  0  0  0  0  0  0  0  0  0  0  0
   24.9621   -8.5440  -19.9543 O   0  0  0  0  0  0  0  0  0  0  0  0
   25.3593   -7.7048  -18.9308 C   0  0  0  0  0  0  0  0  0  0  0  0
   24.2020   -7.1445  -18.1465 C   0  0  2  0  0  0  0  0  0  0  0  0
   23.2944   -8.1347  -17.6681 N   0  0  0  0  0  0  0  0  0  0  0  0
   23.4925   -6.1566  -18.9835 C   0  0  0  0  0  0  0  0  0  0  0  0
   22.2605   -6.2648  -19.2185 O   0  0  0  0  0  0  0  0  0  0  0  0
   24.1518   -5.0703  -19.5449 O   0  0  0  0  0  0  0  0  0  0  0  0
  2  1  1  6
  3  2  1  0
  4  3  1  0
  5  4  2  0
  6  5  1  0
  7  6  1  0
  7  8  2  0
  8  4  1  0
  9  2  1  0
  9 10  2  0
 11 12  1  0
 12 14  1  0
 12 13  2  0
 15 14  1  1
 15 16  1  0
 16  9  1  0
 17 15  1  0
 18 17  2  0
 19 20  1  0
 21 20  1  6
 21 22  1  0
 21 23  1  0
 22 17  1  0
 23 24  2  0
 23 25  1  0
M  END
$$$$
