HNS.pdb
     RDKit          3D

 25 25  0  0  1  0  0  0  0  0999 V2000
   21.1463  -11.7983  -16.7649 N   0  0  0  0  0  0  0  0  0  0  0  0
   20.5597  -10.5723  -17.2101 C   0  0  1  0  0  0  0  0  0  0  0  0
   19.1603  -10.7622  -17.7889 C   0  0  0  0  0  0  0  0  0  0  0  0
   19.2443  -11.6606  -18.9832 C   0  0  0  0  0  0  0  0  0  0  0  0
   20.3484  -11.8472  -19.7901 C   0  0  0  0  0  0  0  0  0  0  0  0
   20.0175  -12.7205  -20.7387 N   0  0  0  0  0  0  0  0  0  0  0  0
   18.7420  -13.0722  -20.5333 C   0  0  0  0  0  0  0  0  0  0  0  0
   18.2705  -12.4281  -19.4657 N   0  0  0  0  0  0  0  0  0  0  0  0
   20.4992   -9.5506  -16.1148 C   0  0  0  0  0  0  0  0  0  0  0  0
   19.9180   -9.7902  -15.0327 O   0  0  0  0  0  0  0  0  0  0  0  0
   22.9239   -4.8026  -13.7766 N   0  0  0  0  0  0  0  0  0  0  0  0
   22.2741   -6.0402  -13.4882 C   0  0  0  0  0  0  0  0  0  0  0  0
   21.7447   -6.1411  -12.3580 O   0  0  0  0  0  0  0  0  0  0  0  0
   22.2872   -7.0654  -14.5297 C   0  0  0  0  0  0  0  0  0  0  0  0
   20.9730   -7.2163  -15.2568 C   0  0  2  0  0  0  0  0  0  0  0  0
   21.0976   -8.2677  -16.2559 N   0  0  0  0  0  0  0  0  0  0  0  0
   20.5496   -5.9288  -15.8756 C   0  0  0  0  0  0  0  0  0  0  0  0
   21.1894   -5.5336  -16.8829 O   0  0  0  0  0  0  0  0  0  0  0  0
   16.7529   -4.6403  -16.1614 O   0  0  0  0  0  0  0  0  0  0  0  0
   17.5822   -3.6159  -15.7461 C   0  0  0  0  0  0  0  0  0  0  0  0
   19.0404   -3.9041  -15.9892 C   0  0  2  0  0  0  0  0  0  0  0  0
   19.4912   -5.1291  -15.4154 N   0  0  0  0  0  0  0  0  0  0  0  0
   19.8411   -2.7720  -15.4817 C   0  0  0  0  0  0  0  0  0  0  0  0
   20.7556   -2.9471  -14.6345 O   0  0  0  0  0  0  0  0  0  0  0  0
   19.6200   -1.4711  -15.9160 O   0  0  0  0  0  0  0  0  0  0  0  0
  2  1  1  1
  3  2  1  0
  4  3  1  0
  5  4  2  0
  6  5  1  0
  7  6  1  0
  7  8  2  0
  8  4  1  0
  9  2  1  0
  9 10  2  0
 11 12  1  0
 12 14  1  0
 12 13  2  0
 15 14  1  6
 15 16  1  0
 16  9  1  0
 17 15  1  0
 18 17  2  0
 19 20  1  0
 21 20  1  1
 21 22  1  0
 21 23  1  0
 22 17  1  0
 23 24  2  0
 23 25  1  0
M  END
$$$$
