HNS.pdb
     RDKit          3D

 25 25  0  0  1  0  0  0  0  0999 V2000
   25.8785   -9.3549  -18.3472 N   0  0  0  0  0  0  0  0  0  0  0  0
   26.5248   -8.8904  -17.1589 C   0  0  1  0  0  0  0  0  0  0  0  0
   25.7055   -9.1538  -15.8985 C   0  0  0  0  0  0  0  0  0  0  0  0
   24.3751   -8.4807  -16.0320 C   0  0  0  0  0  0  0  0  0  0  0  0
   24.1497   -7.1205  -16.0967 C   0  0  0  0  0  0  0  0  0  0  0  0
   22.8374   -6.9296  -16.2125 N   0  0  0  0  0  0  0  0  0  0  0  0
   22.2555   -8.1354  -16.2203 C   0  0  0  0  0  0  0  0  0  0  0  0
   23.1898   -9.0798  -16.1105 N   0  0  0  0  0  0  0  0  0  0  0  0
   27.8864   -9.4942  -16.9898 C   0  0  0  0  0  0  0  0  0  0  0  0
   28.5647   -9.2912  -15.9579 O   0  0  0  0  0  0  0  0  0  0  0  0
   28.6656  -12.6085  -15.9258 N   0  0  0  0  0  0  0  0  0  0  0  0
   29.0137  -13.2582  -17.1480 C   0  0  0  0  0  0  0  0  0  0  0  0
   28.7720  -14.4850  -17.2151 O   0  0  0  0  0  0  0  0  0  0  0  0
   29.6144  -12.4383  -18.1982 C   0  0  0  0  0  0  0  0  0  0  0  0
   29.7547  -10.9807  -17.8320 C   0  0  2  0  0  0  0  0  0  0  0  0
   28.4663  -10.3219  -17.9910 N   0  0  0  0  0  0  0  0  0  0  0  0
   30.8065  -10.3184  -18.6536 C   0  0  0  0  0  0  0  0  0  0  0  0
   30.4882   -9.9505  -19.8128 O   0  0  0  0  0  0  0  0  0  0  0  0
   34.7662   -9.6216  -17.1926 O   0  0  0  0  0  0  0  0  0  0  0  0
   34.1811   -8.7417  -18.0832 C   0  0  0  0  0  0  0  0  0  0  0  0
   33.1392   -9.3924  -18.9548 C   0  0  2  0  0  0  0  0  0  0  0  0
   32.1222  -10.0772  -18.2268 N   0  0  0  0  0  0  0  0  0  0  0  0
   33.8104  -10.3139  -19.8931 C   0  0  0  0  0  0  0  0  0  0  0  0
   33.5302  -11.5410  -19.9158 O   0  0  0  0  0  0  0  0  0  0  0  0
   34.7757   -9.8676  -20.7869 O   0  0  0  0  0  0  0  0  0  0  0  0
  2  1  1  6
  3  2  1  0
  4  3  1  0
  5  4  2  0
  6  5  1  0
  7  6  1  0
  7  8  2  0
  8  4  1  0
  9  2  1  0
  9 10  2  0
 11 12  1  0
 12 14  1  0
 12 13  2  0
 15 14  1  6
 15 16  1  0
 16  9  1  0
 17 15  1  0
 18 17  2  0
 19 20  1  0
 21 20  1  1
 21 22  1  0
 21 23  1  0
 22 17  1  0
 23 24  2  0
 23 25  1  0
M  END
$$$$
