LVI.pdb
     RDKit          3D

 24 23  0  0  1  0  0  0  0  0999 V2000
   22.0834  -18.9319  -12.8607 C   0  0  0  0  0  0  0  0  0  0  0  0
   21.5767  -20.2873  -12.4408 C   0  0  2  0  0  0  0  0  0  0  0  0
   20.2586  -20.1163  -11.7351 C   0  0  0  0  0  0  0  0  0  0  0  0
   22.5844  -20.9274  -11.5408 C   0  0  0  0  0  0  0  0  0  0  0  0
   23.9408  -20.9675  -12.2583 C   0  0  2  0  0  0  0  0  0  0  0  0
   23.8016  -21.9303  -13.3161 N   0  0  0  0  0  0  0  0  0  0  0  0
   24.9577  -21.3619  -11.2550 C   0  0  0  0  0  0  0  0  0  0  0  0
   24.8586  -22.4986  -10.7250 O   0  0  0  0  0  0  0  0  0  0  0  0
   28.2879  -22.0446  -11.8523 C   0  0  0  0  0  0  0  0  0  0  0  0
   28.3423  -21.1017  -10.6775 C   0  0  1  0  0  0  0  0  0  0  0  0
   28.8811  -19.7414  -11.0489 C   0  0  0  0  0  0  0  0  0  0  0  0
   27.0338  -21.0319   -9.9290 C   0  0  2  0  0  0  0  0  0  0  0  0
   26.0463  -20.5386  -10.8467 N   0  0  0  0  0  0  0  0  0  0  0  0
   27.1114  -20.2718   -8.6733 C   0  0  0  0  0  0  0  0  0  0  0  0
   26.4906  -19.1682   -8.6484 O   0  0  0  0  0  0  0  0  0  0  0  0
   27.7148  -22.5664   -3.5827 C   0  0  0  0  0  0  0  0  0  0  0  0
   27.3204  -21.6298   -4.6393 C   0  0  0  0  0  0  0  0  0  0  0  0
   28.2261  -20.5890   -5.1443 C   0  0  2  0  0  0  0  0  0  0  0  0
   28.6329  -19.7144   -3.9489 C   0  0  0  0  0  0  0  0  0  0  0  0
   27.8194  -19.8109   -6.3046 C   0  0  2  0  0  0  0  0  0  0  0  0
   27.7885  -20.6378   -7.5249 N   0  0  0  0  0  0  0  0  0  0  0  0
   28.4883  -18.5864   -6.6959 C   0  0  0  0  0  0  0  0  0  0  0  0
   29.5005  -18.5369   -7.6125 O   0  0  0  0  0  0  0  0  0  0  0  0
   28.1839  -17.4338   -6.1999 O   0  0  0  0  0  0  0  0  0  0  0  0
  2  1  1  1
  2  3  1  0
  4  5  1  0
  4  2  1  0
  5  7  1  0
  5  6  1  6
  7  8  2  0
 10 11  1  6
 10 12  1  0
 10  9  1  0
 12 13  1  6
 13  7  1  0
 14 12  1  0
 14 15  2  0
 16 17  1  0
 17 18  1  0
 18 20  1  0
 18 19  1  1
 20 22  1  0
 20 21  1  6
 21 14  1  0
 22 23  1  0
 24 22  2  0
M  END
$$$$
