LVI.pdb
     RDKit          3D

 24 23  0  0  1  0  0  0  0  0999 V2000
   29.2846  -20.4202  -14.9007 C   0  0  0  0  0  0  0  0  0  0  0  0
   28.5573  -19.2340  -15.4788 C   0  0  2  0  0  0  0  0  0  0  0  0
   29.5617  -18.1657  -15.8172 C   0  0  0  0  0  0  0  0  0  0  0  0
   27.5648  -18.7353  -14.4781 C   0  0  0  0  0  0  0  0  0  0  0  0
   26.7510  -19.9234  -13.9468 C   0  0  2  0  0  0  0  0  0  0  0  0
   25.6466  -20.0842  -14.8522 N   0  0  0  0  0  0  0  0  0  0  0  0
   26.3189  -19.5808  -12.5713 C   0  0  0  0  0  0  0  0  0  0  0  0
   26.0640  -18.3764  -12.3123 O   0  0  0  0  0  0  0  0  0  0  0  0
   23.0919  -20.3858   -9.4073 C   0  0  0  0  0  0  0  0  0  0  0  0
   24.0036  -20.6851  -10.5699 C   0  0  1  0  0  0  0  0  0  0  0  0
   23.4310  -20.2282  -11.8897 C   0  0  0  0  0  0  0  0  0  0  0  0
   25.4138  -20.1994  -10.3407 C   0  0  2  0  0  0  0  0  0  0  0  0
   26.1710  -20.5260  -11.5158 N   0  0  0  0  0  0  0  0  0  0  0  0
   26.0123  -20.6913   -9.0915 C   0  0  0  0  0  0  0  0  0  0  0  0
   26.3890  -21.9005   -9.0903 O   0  0  0  0  0  0  0  0  0  0  0  0
   29.8242  -18.1673   -6.2809 C   0  0  0  0  0  0  0  0  0  0  0  0
   28.9377  -19.2263   -6.7728 C   0  0  0  0  0  0  0  0  0  0  0  0
   27.7104  -19.6147   -6.0649 C   0  0  2  0  0  0  0  0  0  0  0  0
   28.1150  -20.0497   -4.6484 C   0  0  0  0  0  0  0  0  0  0  0  0
   26.7988  -20.5496   -6.7071 C   0  0  2  0  0  0  0  0  0  0  0  0
   26.2045  -19.9722   -7.9266 N   0  0  0  0  0  0  0  0  0  0  0  0
   25.6919  -21.1669   -6.0043 C   0  0  0  0  0  0  0  0  0  0  0  0
   25.8213  -22.2724   -5.2116 O   0  0  0  0  0  0  0  0  0  0  0  0
   24.4819  -20.7223   -6.0770 O   0  0  0  0  0  0  0  0  0  0  0  0
  2  1  1  1
  2  3  1  0
  4  5  1  0
  4  2  1  0
  5  7  1  0
  5  6  1  6
  7  8  2  0
 10 11  1  6
 10 12  1  0
 10  9  1  0
 12 13  1  6
 13  7  1  0
 14 12  1  0
 14 15  2  0
 16 17  1  0
 17 18  1  0
 18 20  1  0
 18 19  1  1
 20 22  1  0
 20 21  1  6
 21 14  1  0
 22 23  1  0
 24 22  2  0
M  END
$$$$
