LVI.pdb
     RDKit          3D

 24 23  0  0  1  0  0  0  0  0999 V2000
   13.1880  -26.2510  -10.8342 C   0  0  0  0  0  0  0  0  0  0  0  0
   13.5497  -27.7126  -10.7794 C   0  0  2  0  0  0  0  0  0  0  0  0
   12.3196  -28.5050  -10.4278 C   0  0  0  0  0  0  0  0  0  0  0  0
   14.6226  -27.9115   -9.7574 C   0  0  0  0  0  0  0  0  0  0  0  0
   15.8547  -27.0894  -10.1600 C   0  0  2  0  0  0  0  0  0  0  0  0
   16.4778  -27.8098  -11.2362 N   0  0  0  0  0  0  0  0  0  0  0  0
   16.7228  -26.9831   -8.9637 C   0  0  0  0  0  0  0  0  0  0  0  0
   17.4177  -27.9821   -8.6443 O   0  0  0  0  0  0  0  0  0  0  0  0
   19.2895  -24.1821   -5.8881 C   0  0  0  0  0  0  0  0  0  0  0  0
   18.5172  -24.4972   -7.1437 C   0  0  1  0  0  0  0  0  0  0  0  0
   19.3735  -24.4287   -8.3849 C   0  0  0  0  0  0  0  0  0  0  0  0
   17.7376  -25.7849   -7.0371 C   0  0  2  0  0  0  0  0  0  0  0  0
   16.8260  -25.8216   -8.1453 N   0  0  0  0  0  0  0  0  0  0  0  0
   17.0935  -25.9789   -5.7302 C   0  0  0  0  0  0  0  0  0  0  0  0
   16.0109  -25.3493   -5.5414 O   0  0  0  0  0  0  0  0  0  0  0  0
   15.2725  -30.1394   -1.7982 C   0  0  0  0  0  0  0  0  0  0  0  0
   15.6981  -28.7589   -2.0480 C   0  0  0  0  0  0  0  0  0  0  0  0
   16.3637  -28.3558   -3.2942 C   0  0  2  0  0  0  0  0  0  0  0  0
   17.4867  -29.3686   -3.5637 C   0  0  0  0  0  0  0  0  0  0  0  0
   16.7979  -26.9747   -3.4399 C   0  0  2  0  0  0  0  0  0  0  0  0
   17.5467  -26.7740   -4.6941 N   0  0  0  0  0  0  0  0  0  0  0  0
   17.5725  -26.2894   -2.4247 C   0  0  0  0  0  0  0  0  0  0  0  0
   18.9254  -26.1113   -2.4972 O   0  0  0  0  0  0  0  0  0  0  0  0
   17.0429  -25.7939   -1.3565 O   0  0  0  0  0  0  0  0  0  0  0  0
  2  1  1  1
  2  3  1  0
  4  5  1  0
  4  2  1  0
  5  7  1  0
  5  6  1  6
  7  8  2  0
 10 11  1  6
 10 12  1  0
 10  9  1  0
 12 13  1  6
 13  7  1  0
 14 12  1  0
 14 15  2  0
 16 17  1  0
 17 18  1  0
 18 20  1  0
 18 19  1  1
 20 22  1  0
 20 21  1  6
 21 14  1  0
 22 23  1  0
 24 22  2  0
M  END
$$$$
