LVI.pdb
     RDKit          3D

 24 23  0  0  1  0  0  0  0  0999 V2000
   22.1877  -18.9731  -12.9626 C   0  0  0  0  0  0  0  0  0  0  0  0
   21.5979  -20.1572  -12.2412 C   0  0  2  0  0  0  0  0  0  0  0  0
   20.3859  -19.7040  -11.4729 C   0  0  0  0  0  0  0  0  0  0  0  0
   22.6280  -20.7312  -11.3223 C   0  0  0  0  0  0  0  0  0  0  0  0
   23.9085  -21.0124  -12.1206 C   0  0  2  0  0  0  0  0  0  0  0  0
   23.6105  -22.1362  -12.9654 N   0  0  0  0  0  0  0  0  0  0  0  0
   24.9830  -21.3007  -11.1417 C   0  0  0  0  0  0  0  0  0  0  0  0
   24.8528  -22.3062  -10.3969 O   0  0  0  0  0  0  0  0  0  0  0  0
   29.6877  -21.2354   -9.9937 C   0  0  0  0  0  0  0  0  0  0  0  0
   28.5018  -20.8520  -10.8415 C   0  0  1  0  0  0  0  0  0  0  0  0
   28.4598  -21.5981  -12.1530 C   0  0  0  0  0  0  0  0  0  0  0  0
   27.1995  -20.9227  -10.0824 C   0  0  2  0  0  0  0  0  0  0  0  0
   26.1602  -20.5139  -10.9844 N   0  0  0  0  0  0  0  0  0  0  0  0
   27.2136  -20.1788   -8.8147 C   0  0  0  0  0  0  0  0  0  0  0  0
   26.7081  -19.0179   -8.8420 O   0  0  0  0  0  0  0  0  0  0  0  0
   26.5910  -22.3862   -3.7486 C   0  0  0  0  0  0  0  0  0  0  0  0
   26.6228  -21.4886   -4.9074 C   0  0  0  0  0  0  0  0  0  0  0  0
   27.7622  -20.6033   -5.1838 C   0  0  2  0  0  0  0  0  0  0  0  0
   28.0302  -19.7880   -3.9098 C   0  0  0  0  0  0  0  0  0  0  0  0
   27.7362  -19.7848   -6.3865 C   0  0  2  0  0  0  0  0  0  0  0  0
   27.7188  -20.6158   -7.6044 N   0  0  0  0  0  0  0  0  0  0  0  0
   28.7187  -18.7524   -6.6487 C   0  0  0  0  0  0  0  0  0  0  0  0
   28.5566  -17.4445   -6.2875 O   0  0  0  0  0  0  0  0  0  0  0  0
   29.8335  -18.9858   -7.2568 O   0  0  0  0  0  0  0  0  0  0  0  0
  2  1  1  1
  2  3  1  0
  4  5  1  0
  4  2  1  0
  5  7  1  0
  5  6  1  6
  7  8  2  0
 10 11  1  6
 10 12  1  0
 10  9  1  0
 12 13  1  6
 13  7  1  0
 14 12  1  0
 14 15  2  0
 16 17  1  0
 17 18  1  0
 18 20  1  0
 18 19  1  1
 20 22  1  0
 20 21  1  6
 21 14  1  0
 22 23  1  0
 24 22  2  0
M  END
$$$$
