LVI.pdb
     RDKit          3D

 24 23  0  0  1  0  0  0  0  0999 V2000
   21.4264  -18.8595  -12.1878 C   0  0  0  0  0  0  0  0  0  0  0  0
   21.0068  -20.2478  -11.7795 C   0  0  2  0  0  0  0  0  0  0  0  0
   19.8037  -20.1475  -10.8810 C   0  0  0  0  0  0  0  0  0  0  0  0
   22.1448  -20.9138  -11.0748 C   0  0  0  0  0  0  0  0  0  0  0  0
   23.3836  -20.8767  -11.9804 C   0  0  2  0  0  0  0  0  0  0  0  0
   23.1423  -21.8370  -13.0220 N   0  0  0  0  0  0  0  0  0  0  0  0
   24.5535  -21.2249  -11.1401 C   0  0  0  0  0  0  0  0  0  0  0  0
   24.5957  -22.3735  -10.6286 O   0  0  0  0  0  0  0  0  0  0  0  0
   29.2370  -21.0171  -10.1237 C   0  0  0  0  0  0  0  0  0  0  0  0
   27.9955  -20.6096  -10.8752 C   0  0  1  0  0  0  0  0  0  0  0  0
   27.8962  -21.2646  -12.2315 C   0  0  0  0  0  0  0  0  0  0  0  0
   26.7409  -20.7687  -10.0518 C   0  0  2  0  0  0  0  0  0  0  0  0
   25.6402  -20.3443  -10.8697 N   0  0  0  0  0  0  0  0  0  0  0  0
   26.8035  -20.0994   -8.7446 C   0  0  0  0  0  0  0  0  0  0  0  0
   26.1537  -19.0174   -8.6387 O   0  0  0  0  0  0  0  0  0  0  0  0
   28.3381  -20.8121   -2.7158 C   0  0  0  0  0  0  0  0  0  0  0  0
   27.7986  -20.1023   -3.8796 C   0  0  0  0  0  0  0  0  0  0  0  0
   27.9210  -20.6280   -5.2460 C   0  0  2  0  0  0  0  0  0  0  0  0
   29.3387  -21.2006   -5.3928 C   0  0  0  0  0  0  0  0  0  0  0  0
   27.5348  -19.7757   -6.3603 C   0  0  2  0  0  0  0  0  0  0  0  0
   27.4948  -20.5290   -7.6271 N   0  0  0  0  0  0  0  0  0  0  0  0
   28.2285  -18.5432   -6.6764 C   0  0  0  0  0  0  0  0  0  0  0  0
   28.0122  -17.3638   -6.0211 O   0  0  0  0  0  0  0  0  0  0  0  0
   29.1096  -18.4577   -7.6163 O   0  0  0  0  0  0  0  0  0  0  0  0
  2  1  1  1
  2  3  1  0
  4  5  1  0
  4  2  1  0
  5  7  1  0
  5  6  1  6
  7  8  2  0
 10 11  1  6
 10 12  1  0
 10  9  1  0
 12 13  1  6
 13  7  1  0
 14 12  1  0
 14 15  2  0
 16 17  1  0
 17 18  1  0
 18 20  1  0
 18 19  1  6
 20 22  1  0
 20 21  1  6
 21 14  1  0
 22 23  1  0
 24 22  2  0
M  END
$$$$
