LVI.pdb
     RDKit          3D

 24 23  0  0  1  0  0  0  0  0999 V2000
   22.7939  -17.7615  -16.3361 C   0  0  0  0  0  0  0  0  0  0  0  0
   21.6760  -18.5410  -15.6935 C   0  0  2  0  0  0  0  0  0  0  0  0
   20.7059  -17.5748  -15.0691 C   0  0  0  0  0  0  0  0  0  0  0  0
   22.2512  -19.4597  -14.6638 C   0  0  0  0  0  0  0  0  0  0  0  0
   23.5040  -20.1340  -15.2398 C   0  0  2  0  0  0  0  0  0  0  0  0
   23.0300  -21.1914  -16.0898 N   0  0  0  0  0  0  0  0  0  0  0  0
   24.3009  -20.6334  -14.0945 C   0  0  0  0  0  0  0  0  0  0  0  0
   23.8525  -21.6104  -13.4409 O   0  0  0  0  0  0  0  0  0  0  0  0
   28.6818  -21.0121  -11.8895 C   0  0  0  0  0  0  0  0  0  0  0  0
   27.7600  -20.5992  -13.0084 C   0  0  1  0  0  0  0  0  0  0  0  0
   28.0715  -21.3027  -14.3072 C   0  0  0  0  0  0  0  0  0  0  0  0
   26.3037  -20.6916  -12.6239 C   0  0  2  0  0  0  0  0  0  0  0  0
   25.5468  -20.0810  -13.6797 N   0  0  0  0  0  0  0  0  0  0  0  0
   26.0095  -20.1487  -11.2900 C   0  0  0  0  0  0  0  0  0  0  0  0
   25.8549  -18.8937  -11.2188 O   0  0  0  0  0  0  0  0  0  0  0  0
   22.7976  -20.8960   -6.1944 C   0  0  0  0  0  0  0  0  0  0  0  0
   23.8965  -20.2808   -6.9449 C   0  0  0  0  0  0  0  0  0  0  0  0
   24.4489  -20.8846   -8.1650 C   0  0  2  0  0  0  0  0  0  0  0  0
   24.6944  -22.3721   -7.8709 C   0  0  0  0  0  0  0  0  0  0  0  0
   25.5806  -20.2399   -8.8137 C   0  0  2  0  0  0  0  0  0  0  0  0
   25.8848  -20.8648  -10.1141 N   0  0  0  0  0  0  0  0  0  0  0  0
   26.8654  -20.0800   -8.1627 C   0  0  0  0  0  0  0  0  0  0  0  0
   27.1253  -19.1173   -7.2283 O   0  0  0  0  0  0  0  0  0  0  0  0
   27.8794  -20.8363   -8.4208 O   0  0  0  0  0  0  0  0  0  0  0  0
  2  1  1  1
  2  3  1  0
  4  5  1  0
  4  2  1  0
  5  7  1  0
  5  6  1  6
  7  8  2  0
 10 11  1  6
 10 12  1  0
 10  9  1  0
 12 13  1  6
 13  7  1  0
 14 12  1  0
 14 15  2  0
 16 17  1  0
 17 18  1  0
 18 20  1  0
 18 19  1  1
 20 22  1  0
 20 21  1  6
 21 14  1  0
 22 23  1  0
 24 22  2  0
M  END
$$$$
