CWK.pdb
     RDKit          3D

 30 31  0  0  1  0  0  0  0  0999 V2000
   28.9375  -23.0635  -16.1172 N   0  0  0  0  0  0  0  0  0  0  0  0
   27.9424  -21.9896  -16.2458 C   0  0  1  0  0  0  0  0  0  0  0  0
   27.1415  -22.2883  -17.4946 C   0  0  0  0  0  0  0  0  0  0  0  0
   25.7945  -21.0822  -17.6237 S   0  0  0  0  0  0  0  0  0  0  0  0
   27.0992  -22.0419  -15.0257 C   0  0  0  0  0  0  0  0  0  0  0  0
   26.5734  -23.1055  -14.6087 O   0  0  0  0  0  0  0  0  0  0  0  0
   26.8391  -20.8605  -14.2502 N   0  0  0  0  0  0  0  0  0  0  0  0
   26.0214  -20.9062  -13.0533 C   0  0  1  0  0  0  0  0  0  0  0  0
   26.5203  -19.8238  -12.1207 C   0  0  0  0  0  0  0  0  0  0  0  0
   27.5065  -20.3157  -11.1576 C   0  0  0  0  0  0  0  0  0  0  0  0
   28.7732  -20.7631  -11.4604 C   0  0  0  0  0  0  0  0  0  0  0  0
   29.3708  -21.1291  -10.3113 N   0  0  0  0  0  0  0  0  0  0  0  0
   28.5518  -20.9429   -9.2559 C   0  0  0  0  0  0  0  0  0  0  0  0
   28.7063  -21.1638   -7.9039 C   0  0  0  0  0  0  0  0  0  0  0  0
   27.6451  -20.8574   -7.0764 C   0  0  0  0  0  0  0  0  0  0  0  0
   26.4757  -20.3468   -7.6104 C   0  0  0  0  0  0  0  0  0  0  0  0
   26.3053  -20.1202   -8.9598 C   0  0  0  0  0  0  0  0  0  0  0  0
   27.3670  -20.4259   -9.7939 C   0  0  0  0  0  0  0  0  0  0  0  0
   24.5894  -20.7767  -13.3525 C   0  0  0  0  0  0  0  0  0  0  0  0
   24.2139  -19.9241  -14.1969 O   0  0  0  0  0  0  0  0  0  0  0  0
   23.5784  -21.5642  -12.7414 N   0  0  0  0  0  0  0  0  0  0  0  0
   22.1417  -21.3498  -13.0493 C   0  0  1  0  0  0  0  0  0  0  0  0
   21.3746  -22.5841  -12.5948 C   0  0  0  0  0  0  0  0  0  0  0  0
   19.9326  -22.4397  -12.9129 C   0  0  0  0  0  0  0  0  0  0  0  0
   19.0827  -23.6183  -12.5251 C   0  0  0  0  0  0  0  0  0  0  0  0
   17.6404  -23.4832  -12.8183 C   0  0  0  0  0  0  0  0  0  0  0  0
   16.8444  -24.6163  -12.4674 N   0  0  0  0  0  0  0  0  0  0  0  0
   21.7153  -20.1171  -12.3834 C   0  0  0  0  0  0  0  0  0  0  0  0
   22.1738  -19.6622  -11.3106 O   0  0  0  0  0  0  0  0  0  0  0  0
   20.6923  -19.3564  -12.9926 O   0  0  0  0  0  0  0  0  0  0  0  0
  2  1  1  1
  2  5  1  0
  3  2  1  0
  4  3  1  0
  5  6  2  0
  7  5  1  0
  7  8  1  0
  8  9  1  1
  9 10  1  0
 10 11  2  0
 11 12  1  0
 13 14  2  0
 13 12  1  0
 15 14  1  0
 16 15  2  0
 17 16  1  0
 17 18  2  0
 18 10  1  0
 18 13  1  0
 19 21  1  0
 19  8  1  0
 20 19  2  0
 22 23  1  1
 22 28  1  0
 22 21  1  0
 24 23  1  0
 25 24  1  0
 26 25  1  0
 27 26  1  0
 28 30  1  0
 29 28  2  0
M  END
$$$$
