CWK.pdb
     RDKit          3D

 30 31  0  0  1  0  0  0  0  0999 V2000
   28.7755  -22.0260  -15.2494 N   0  0  0  0  0  0  0  0  0  0  0  0
   28.1117  -20.8187  -14.7377 C   0  0  1  0  0  0  0  0  0  0  0  0
   27.4717  -20.1386  -15.9286 C   0  0  0  0  0  0  0  0  0  0  0  0
   28.7720  -19.6859  -17.1077 S   0  0  0  0  0  0  0  0  0  0  0  0
   27.0983  -21.2743  -13.7540 C   0  0  0  0  0  0  0  0  0  0  0  0
   26.5757  -22.4174  -13.7973 O   0  0  0  0  0  0  0  0  0  0  0  0
   26.6586  -20.4169  -12.6879 N   0  0  0  0  0  0  0  0  0  0  0  0
   25.6409  -20.8421  -11.7462 C   0  0  1  0  0  0  0  0  0  0  0  0
   25.9120  -20.1364  -10.4351 C   0  0  0  0  0  0  0  0  0  0  0  0
   27.1442  -20.5922   -9.7903 C   0  0  0  0  0  0  0  0  0  0  0  0
   28.1370  -21.3366  -10.3874 C   0  0  0  0  0  0  0  0  0  0  0  0
   29.1003  -21.5546   -9.4730 N   0  0  0  0  0  0  0  0  0  0  0  0
   28.7877  -20.9846   -8.2913 C   0  0  0  0  0  0  0  0  0  0  0  0
   29.4411  -20.9320   -7.0784 C   0  0  0  0  0  0  0  0  0  0  0  0
   28.8292  -20.2487   -6.0471 C   0  0  0  0  0  0  0  0  0  0  0  0
   27.6010  -19.6453   -6.2490 C   0  0  0  0  0  0  0  0  0  0  0  0
   26.9348  -19.6888   -7.4555 C   0  0  0  0  0  0  0  0  0  0  0  0
   27.5445  -20.3729   -8.4930 C   0  0  0  0  0  0  0  0  0  0  0  0
   24.2822  -20.5981  -12.2475 C   0  0  0  0  0  0  0  0  0  0  0  0
   23.9546  -19.4335  -12.5895 O   0  0  0  0  0  0  0  0  0  0  0  0
   23.2922  -21.6078  -12.3753 N   0  0  0  0  0  0  0  0  0  0  0  0
   21.9315  -21.2947  -12.8807 C   0  0  1  0  0  0  0  0  0  0  0  0
   21.4616  -22.4715  -13.7249 C   0  0  0  0  0  0  0  0  0  0  0  0
   22.2602  -22.5612  -14.9721 C   0  0  0  0  0  0  0  0  0  0  0  0
   21.7953  -23.6130  -15.9414 C   0  0  0  0  0  0  0  0  0  0  0  0
   22.6506  -23.7995  -17.1323 C   0  0  0  0  0  0  0  0  0  0  0  0
   22.2558  -24.8651  -17.9980 N   0  0  0  0  0  0  0  0  0  0  0  0
   21.0721  -21.0214  -11.7268 C   0  0  0  0  0  0  0  0  0  0  0  0
   21.2620  -21.4205  -10.5552 O   0  0  0  0  0  0  0  0  0  0  0  0
   19.9160  -20.2362  -11.9347 O   0  0  0  0  0  0  0  0  0  0  0  0
  2  1  1  6
  2  5  1  0
  3  2  1  0
  4  3  1  0
  5  6  2  0
  7  5  1  0
  7  8  1  0
  8  9  1  1
  9 10  1  0
 10 11  2  0
 11 12  1  0
 13 14  2  0
 13 12  1  0
 15 14  1  0
 16 15  2  0
 17 16  1  0
 17 18  2  0
 18 10  1  0
 18 13  1  0
 19 21  1  0
 19  8  1  0
 20 19  2  0
 22 23  1  1
 22 28  1  0
 22 21  1  0
 24 23  1  0
 25 24  1  0
 26 25  1  0
 27 26  1  0
 28 30  1  0
 29 28  2  0
M  END
$$$$
