CWK.pdb
     RDKit          3D

 30 31  0  0  1  0  0  0  0  0999 V2000
   27.7731  -19.8137  -14.7024 N   0  0  0  0  0  0  0  0  0  0  0  0
   27.4903  -21.2496  -14.8369 C   0  0  1  0  0  0  0  0  0  0  0  0
   28.8245  -21.9614  -14.7767 C   0  0  0  0  0  0  0  0  0  0  0  0
   29.7914  -21.5087  -16.2417 S   0  0  0  0  0  0  0  0  0  0  0  0
   26.6169  -21.6204  -13.6958 C   0  0  0  0  0  0  0  0  0  0  0  0
   26.2392  -22.8013  -13.4854 O   0  0  0  0  0  0  0  0  0  0  0  0
   26.1538  -20.6315  -12.7617 N   0  0  0  0  0  0  0  0  0  0  0  0
   25.1914  -20.9598  -11.7276 C   0  0  1  0  0  0  0  0  0  0  0  0
   25.5441  -20.1434  -10.5031 C   0  0  0  0  0  0  0  0  0  0  0  0
   26.7994  -20.5673   -9.8815 C   0  0  0  0  0  0  0  0  0  0  0  0
   27.7252  -21.4209  -10.4388 C   0  0  0  0  0  0  0  0  0  0  0  0
   28.7381  -21.5644   -9.5641 N   0  0  0  0  0  0  0  0  0  0  0  0
   28.5227  -20.8400   -8.4469 C   0  0  0  0  0  0  0  0  0  0  0  0
   29.2551  -20.6652   -7.2920 C   0  0  0  0  0  0  0  0  0  0  0  0
   28.7354  -19.8345   -6.3201 C   0  0  0  0  0  0  0  0  0  0  0  0
   27.5179  -19.2097   -6.5219 C   0  0  0  0  0  0  0  0  0  0  0  0
   26.7735  -19.3741   -7.6709 C   0  0  0  0  0  0  0  0  0  0  0  0
   27.2906  -20.2062   -8.6487 C   0  0  0  0  0  0  0  0  0  0  0  0
   23.8068  -20.7463  -12.1681 C   0  0  0  0  0  0  0  0  0  0  0  0
   23.4459  -19.5947  -12.5207 O   0  0  0  0  0  0  0  0  0  0  0  0
   22.8267  -21.7721  -12.2245 N   0  0  0  0  0  0  0  0  0  0  0  0
   21.4999  -21.5381  -12.8487 C   0  0  1  0  0  0  0  0  0  0  0  0
   20.9893  -22.8705  -13.3803 C   0  0  0  0  0  0  0  0  0  0  0  0
   21.6562  -23.2019  -14.6635 C   0  0  0  0  0  0  0  0  0  0  0  0
   22.5799  -24.3873  -14.6037 C   0  0  0  0  0  0  0  0  0  0  0  0
   23.2987  -24.6944  -15.8581 C   0  0  0  0  0  0  0  0  0  0  0  0
   24.3065  -25.7006  -15.7454 N   0  0  0  0  0  0  0  0  0  0  0  0
   20.6252  -20.9359  -11.8402 C   0  0  0  0  0  0  0  0  0  0  0  0
   20.8883  -20.7982  -10.6238 O   0  0  0  0  0  0  0  0  0  0  0  0
   19.3626  -20.4601  -12.2592 O   0  0  0  0  0  0  0  0  0  0  0  0
  2  1  1  1
  2  5  1  0
  3  2  1  0
  4  3  1  0
  5  6  2  0
  7  5  1  0
  7  8  1  0
  8  9  1  1
  9 10  1  0
 10 11  2  0
 11 12  1  0
 13 14  2  0
 13 12  1  0
 15 14  1  0
 16 15  2  0
 17 16  1  0
 17 18  2  0
 18 10  1  0
 18 13  1  0
 19 21  1  0
 19  8  1  0
 20 19  2  0
 22 23  1  1
 22 28  1  0
 22 21  1  0
 24 23  1  0
 25 24  1  0
 26 25  1  0
 27 26  1  0
 28 30  1  0
 29 28  2  0
M  END
$$$$
