CWK.pdb
     RDKit          3D

 30 31  0  0  1  0  0  0  0  0999 V2000
   28.3431  -21.4150  -15.4783 N   0  0  0  0  0  0  0  0  0  0  0  0
   28.3420  -20.3003  -14.5205 C   0  0  1  0  0  0  0  0  0  0  0  0
   27.6749  -19.1329  -15.2152 C   0  0  0  0  0  0  0  0  0  0  0  0
   28.9299  -18.2191  -16.1511 S   0  0  0  0  0  0  0  0  0  0  0  0
   27.5663  -20.7541  -13.3396 C   0  0  0  0  0  0  0  0  0  0  0  0
   26.5041  -21.4199  -13.4397 O   0  0  0  0  0  0  0  0  0  0  0  0
   27.9990  -20.4493  -12.0036 N   0  0  0  0  0  0  0  0  0  0  0  0
   27.2072  -20.8245  -10.8479 C   0  0  1  0  0  0  0  0  0  0  0  0
   27.9940  -20.4398   -9.6138 C   0  0  0  0  0  0  0  0  0  0  0  0
   27.2092  -20.5511   -8.3836 C   0  0  0  0  0  0  0  0  0  0  0  0
   25.9198  -21.0259   -8.2920 C   0  0  0  0  0  0  0  0  0  0  0  0
   25.5474  -20.9714   -6.9997 N   0  0  0  0  0  0  0  0  0  0  0  0
   26.5380  -20.4792   -6.2280 C   0  0  0  0  0  0  0  0  0  0  0  0
   26.6344  -20.2380   -4.8740 C   0  0  0  0  0  0  0  0  0  0  0  0
   27.8197  -19.7170   -4.3961 C   0  0  0  0  0  0  0  0  0  0  0  0
   28.8615  -19.4540   -5.2672 C   0  0  0  0  0  0  0  0  0  0  0  0
   28.7810  -19.6895   -6.6234 C   0  0  0  0  0  0  0  0  0  0  0  0
   27.5942  -20.2122   -7.1076 C   0  0  0  0  0  0  0  0  0  0  0  0
   25.8674  -20.2235  -10.8726 C   0  0  0  0  0  0  0  0  0  0  0  0
   25.7551  -18.9816  -11.0332 O   0  0  0  0  0  0  0  0  0  0  0  0
   24.6647  -20.9635  -10.7244 N   0  0  0  0  0  0  0  0  0  0  0  0
   23.3945  -20.5029  -11.3401 C   0  0  1  0  0  0  0  0  0  0  0  0
   23.0666  -21.4380  -12.4961 C   0  0  0  0  0  0  0  0  0  0  0  0
   21.7909  -21.0352  -13.1378 C   0  0  0  0  0  0  0  0  0  0  0  0
   21.3504  -21.9209  -14.2707 C   0  0  0  0  0  0  0  0  0  0  0  0
   20.0772  -21.5379  -14.9161 C   0  0  0  0  0  0  0  0  0  0  0  0
   20.1880  -21.1503  -16.2866 N   0  0  0  0  0  0  0  0  0  0  0  0
   22.3678  -20.4799  -10.2960 C   0  0  0  0  0  0  0  0  0  0  0  0
   22.1277  -21.3970   -9.4779 O   0  0  0  0  0  0  0  0  0  0  0  0
   21.5628  -19.3241  -10.1856 O   0  0  0  0  0  0  0  0  0  0  0  0
  2  1  1  6
  2  5  1  0
  3  2  1  0
  4  3  1  0
  5  6  2  0
  7  5  1  0
  7  8  1  0
  8  9  1  1
  9 10  1  0
 10 11  2  0
 11 12  1  0
 13 14  2  0
 13 12  1  0
 15 14  1  0
 16 15  2  0
 17 16  1  0
 17 18  2  0
 18 10  1  0
 18 13  1  0
 19 21  1  0
 19  8  1  0
 20 19  2  0
 22 23  1  6
 22 28  1  0
 22 21  1  0
 24 23  1  0
 25 24  1  0
 26 25  1  0
 27 26  1  0
 28 30  1  0
 29 28  2  0
M  END
$$$$
