CWK.pdb
     RDKit          3D

 30 31  0  0  1  0  0  0  0  0999 V2000
   29.0794  -20.8295  -14.8922 N   0  0  0  0  0  0  0  0  0  0  0  0
   28.2438  -19.8449  -14.1904 C   0  0  1  0  0  0  0  0  0  0  0  0
   27.5494  -19.0268  -15.2577 C   0  0  0  0  0  0  0  0  0  0  0  0
   28.6521  -17.6816  -15.7683 S   0  0  0  0  0  0  0  0  0  0  0  0
   27.2757  -20.6150  -13.3707 C   0  0  0  0  0  0  0  0  0  0  0  0
   26.8976  -21.7746  -13.6771 O   0  0  0  0  0  0  0  0  0  0  0  0
   26.7149  -20.0631  -12.1682 N   0  0  0  0  0  0  0  0  0  0  0  0
   25.6924  -20.7669  -11.4181 C   0  0  1  0  0  0  0  0  0  0  0  0
   25.7635  -20.2807   -9.9868 C   0  0  0  0  0  0  0  0  0  0  0  0
   27.0110  -20.6581   -9.3212 C   0  0  0  0  0  0  0  0  0  0  0  0
   28.0198  -21.4162   -9.8726 C   0  0  0  0  0  0  0  0  0  0  0  0
   28.9938  -21.5447   -8.9526 N   0  0  0  0  0  0  0  0  0  0  0  0
   28.6731  -20.9020   -7.8111 C   0  0  0  0  0  0  0  0  0  0  0  0
   29.3318  -20.7479   -6.6098 C   0  0  0  0  0  0  0  0  0  0  0  0
   28.7080  -20.0106   -5.6239 C   0  0  0  0  0  0  0  0  0  0  0  0
   27.4630  -19.4550   -5.8579 C   0  0  0  0  0  0  0  0  0  0  0  0
   26.7912  -19.5998   -7.0533 C   0  0  0  0  0  0  0  0  0  0  0  0
   27.4129  -20.3385   -8.0454 C   0  0  0  0  0  0  0  0  0  0  0  0
   24.3568  -20.5987  -12.0052 C   0  0  0  0  0  0  0  0  0  0  0  0
   23.9186  -19.4382  -12.2101 O   0  0  0  0  0  0  0  0  0  0  0  0
   23.5082  -21.6787  -12.3650 N   0  0  0  0  0  0  0  0  0  0  0  0
   22.1487  -21.4423  -12.9132 C   0  0  1  0  0  0  0  0  0  0  0  0
   21.6365  -22.7582  -13.4828 C   0  0  0  0  0  0  0  0  0  0  0  0
   20.2966  -22.5686  -14.0912 C   0  0  0  0  0  0  0  0  0  0  0  0
   19.6652  -23.8252  -14.6243 C   0  0  0  0  0  0  0  0  0  0  0  0
   18.3106  -23.6618  -15.1926 C   0  0  0  0  0  0  0  0  0  0  0  0
   17.6823  -24.8738  -15.6131 N   0  0  0  0  0  0  0  0  0  0  0  0
   21.3136  -20.9055  -11.8365 C   0  0  0  0  0  0  0  0  0  0  0  0
   21.3781  -21.2214  -10.6265 O   0  0  0  0  0  0  0  0  0  0  0  0
   20.3386  -19.9405  -12.1744 O   0  0  0  0  0  0  0  0  0  0  0  0
  2  1  1  6
  2  5  1  0
  3  2  1  0
  4  3  1  0
  5  6  2  0
  7  5  1  0
  7  8  1  0
  8  9  1  1
  9 10  1  0
 10 11  2  0
 11 12  1  0
 13 14  2  0
 13 12  1  0
 15 14  1  0
 16 15  2  0
 17 16  1  0
 17 18  2  0
 18 10  1  0
 18 13  1  0
 19 21  1  0
 19  8  1  0
 20 19  2  0
 22 23  1  1
 22 28  1  0
 22 21  1  0
 24 23  1  0
 25 24  1  0
 26 25  1  0
 27 26  1  0
 28 30  1  0
 29 28  2  0
M  END
$$$$
