CWK.pdb
     RDKit          3D

 30 31  0  0  1  0  0  0  0  0999 V2000
   28.5199  -21.5754  -15.4313 N   0  0  0  0  0  0  0  0  0  0  0  0
   28.5923  -20.5259  -14.4051 C   0  0  1  0  0  0  0  0  0  0  0  0
   28.0755  -19.2563  -15.0466 C   0  0  0  0  0  0  0  0  0  0  0  0
   29.3421  -18.6183  -16.1756 S   0  0  0  0  0  0  0  0  0  0  0  0
   27.7270  -20.9670  -13.2830 C   0  0  0  0  0  0  0  0  0  0  0  0
   26.6556  -21.6012  -13.4603 O   0  0  0  0  0  0  0  0  0  0  0  0
   28.0779  -20.6858  -11.9182 N   0  0  0  0  0  0  0  0  0  0  0  0
   27.2062  -21.0588  -10.8208 C   0  0  1  0  0  0  0  0  0  0  0  0
   28.0211  -20.9838   -9.5477 C   0  0  0  0  0  0  0  0  0  0  0  0
   27.1952  -20.7774   -8.3574 C   0  0  0  0  0  0  0  0  0  0  0  0
   25.8658  -21.1143   -8.2321 C   0  0  0  0  0  0  0  0  0  0  0  0
   25.4637  -20.7680   -6.9952 N   0  0  0  0  0  0  0  0  0  0  0  0
   26.4730  -20.2140   -6.2925 C   0  0  0  0  0  0  0  0  0  0  0  0
   26.5529  -19.7122   -5.0109 C   0  0  0  0  0  0  0  0  0  0  0  0
   27.7668  -19.2059   -4.5927 C   0  0  0  0  0  0  0  0  0  0  0  0
   28.8523  -19.2131   -5.4500 C   0  0  0  0  0  0  0  0  0  0  0  0
   28.7888  -19.7112   -6.7342 C   0  0  0  0  0  0  0  0  0  0  0  0
   27.5734  -20.2201   -7.1583 C   0  0  0  0  0  0  0  0  0  0  0  0
   25.9957  -20.2292  -10.7651 C   0  0  0  0  0  0  0  0  0  0  0  0
   26.1091  -18.9772  -10.7758 O   0  0  0  0  0  0  0  0  0  0  0  0
   24.6782  -20.7544  -10.6986 N   0  0  0  0  0  0  0  0  0  0  0  0
   23.5247  -20.0204  -11.2779 C   0  0  1  0  0  0  0  0  0  0  0  0
   23.5995  -20.1485  -12.7933 C   0  0  0  0  0  0  0  0  0  0  0  0
   22.4864  -19.4009  -13.4283 C   0  0  0  0  0  0  0  0  0  0  0  0
   22.4337  -19.5061  -14.9277 C   0  0  0  0  0  0  0  0  0  0  0  0
   21.5224  -18.5550  -15.5980 C   0  0  0  0  0  0  0  0  0  0  0  0
   21.4845  -18.6573  -17.0223 N   0  0  0  0  0  0  0  0  0  0  0  0
   22.2987  -20.5777  -10.7027 C   0  0  0  0  0  0  0  0  0  0  0  0
   21.3312  -19.9223  -10.2529 O   0  0  0  0  0  0  0  0  0  0  0  0
   22.1773  -21.9840  -10.6406 O   0  0  0  0  0  0  0  0  0  0  0  0
  2  1  1  6
  2  5  1  0
  3  2  1  0
  4  3  1  0
  5  6  2  0
  7  5  1  0
  7  8  1  0
  8  9  1  1
  9 10  1  0
 10 11  2  0
 11 12  1  0
 13 14  2  0
 13 12  1  0
 15 14  1  0
 16 15  2  0
 17 16  1  0
 17 18  2  0
 18 10  1  0
 18 13  1  0
 19 21  1  0
 19  8  1  0
 20 19  2  0
 22 23  1  6
 22 28  1  0
 22 21  1  0
 24 23  1  0
 25 24  1  0
 26 25  1  0
 27 26  1  0
 28 30  1  0
 29 28  2  0
M  END
$$$$
