CWK.pdb
     RDKit          3D

 30 31  0  0  1  0  0  0  0  0999 V2000
   24.4942  -30.9094    2.5864 N   0  0  0  0  0  0  0  0  0  0  0  0
   24.5615  -31.7263    3.8062 C   0  0  1  0  0  0  0  0  0  0  0  0
   25.9821  -32.2384    3.9069 C   0  0  0  0  0  0  0  0  0  0  0  0
   26.0674  -33.4566    5.2465 S   0  0  0  0  0  0  0  0  0  0  0  0
   24.2181  -30.8305    4.9384 C   0  0  0  0  0  0  0  0  0  0  0  0
   24.6631  -29.6583    5.0360 O   0  0  0  0  0  0  0  0  0  0  0  0
   23.3465  -31.2669    5.9943 N   0  0  0  0  0  0  0  0  0  0  0  0
   23.0694  -30.4257    7.1427 C   0  0  1  0  0  0  0  0  0  0  0  0
   21.5668  -30.2784    7.2459 C   0  0  0  0  0  0  0  0  0  0  0  0
   21.0443  -29.1982    6.4082 C   0  0  0  0  0  0  0  0  0  0  0  0
   20.6384  -29.3204    5.0979 C   0  0  0  0  0  0  0  0  0  0  0  0
   20.2245  -28.1111    4.6762 N   0  0  0  0  0  0  0  0  0  0  0  0
   20.3388  -27.1892    5.6540 C   0  0  0  0  0  0  0  0  0  0  0  0
   20.0499  -25.8421    5.7054 C   0  0  0  0  0  0  0  0  0  0  0  0
   20.2907  -25.1771    6.8905 C   0  0  0  0  0  0  0  0  0  0  0  0
   20.8054  -25.8621    7.9765 C   0  0  0  0  0  0  0  0  0  0  0  0
   21.0997  -27.2087    7.9413 C   0  0  0  0  0  0  0  0  0  0  0  0
   20.8598  -27.8801    6.7547 C   0  0  0  0  0  0  0  0  0  0  0  0
   23.6705  -30.9513    8.3753 C   0  0  0  0  0  0  0  0  0  0  0  0
   23.6526  -32.1905    8.5864 O   0  0  0  0  0  0  0  0  0  0  0  0
   24.2833  -30.1395    9.3660 N   0  0  0  0  0  0  0  0  0  0  0  0
   24.8648  -30.7317   10.5973 C   0  0  1  0  0  0  0  0  0  0  0  0
   25.9532  -29.7935   11.1009 C   0  0  0  0  0  0  0  0  0  0  0  0
   27.2819  -30.4462   11.0008 C   0  0  0  0  0  0  0  0  0  0  0  0
   28.4408  -29.5771   11.4051 C   0  0  0  0  0  0  0  0  0  0  0  0
   29.7766  -30.1911   11.2530 C   0  0  0  0  0  0  0  0  0  0  0  0
   30.8754  -29.3249   11.5412 N   0  0  0  0  0  0  0  0  0  0  0  0
   23.7782  -30.9371   11.5574 C   0  0  0  0  0  0  0  0  0  0  0  0
   22.8431  -30.1387   11.7943 O   0  0  0  0  0  0  0  0  0  0  0  0
   23.7665  -32.1421   12.2949 O   0  0  0  0  0  0  0  0  0  0  0  0
  2  1  1  6
  2  5  1  0
  3  2  1  0
  4  3  1  0
  5  6  2  0
  7  5  1  0
  7  8  1  0
  8  9  1  1
  9 10  1  0
 10 11  2  0
 11 12  1  0
 13 14  2  0
 13 12  1  0
 15 14  1  0
 16 15  2  0
 17 16  1  0
 17 18  2  0
 18 10  1  0
 18 13  1  0
 19 21  1  0
 19  8  1  0
 20 19  2  0
 22 23  1  1
 22 28  1  0
 22 21  1  0
 24 23  1  0
 25 24  1  0
 26 25  1  0
 27 26  1  0
 28 30  1  0
 29 28  2  0
M  END
$$$$
