CWK.pdb
     RDKit          3D

 30 31  0  0  1  0  0  0  0  0999 V2000
   28.8579  -20.7455  -14.7249 N   0  0  0  0  0  0  0  0  0  0  0  0
   28.3016  -19.7444  -13.8038 C   0  0  1  0  0  0  0  0  0  0  0  0
   27.6675  -18.6712  -14.6619 C   0  0  0  0  0  0  0  0  0  0  0  0
   28.9829  -17.6878  -15.4292 S   0  0  0  0  0  0  0  0  0  0  0  0
   27.2958  -20.4466  -12.9685 C   0  0  0  0  0  0  0  0  0  0  0  0
   26.6797  -21.4692  -13.3634 O   0  0  0  0  0  0  0  0  0  0  0  0
   26.9729  -19.9836  -11.6469 N   0  0  0  0  0  0  0  0  0  0  0  0
   25.9431  -20.6243  -10.8517 C   0  0  1  0  0  0  0  0  0  0  0  0
   26.1055  -20.1438   -9.4259 C   0  0  0  0  0  0  0  0  0  0  0  0
   27.4079  -20.4908   -8.8557 C   0  0  0  0  0  0  0  0  0  0  0  0
   28.3773  -21.2530   -9.4685 C   0  0  0  0  0  0  0  0  0  0  0  0
   29.4249  -21.3472   -8.6288 N   0  0  0  0  0  0  0  0  0  0  0  0
   29.1909  -20.6777   -7.4815 C   0  0  0  0  0  0  0  0  0  0  0  0
   29.9439  -20.4851   -6.3428 C   0  0  0  0  0  0  0  0  0  0  0  0
   29.3940  -19.7282   -5.3282 C   0  0  0  0  0  0  0  0  0  0  0  0
   28.1273  -19.1916   -5.4733 C   0  0  0  0  0  0  0  0  0  0  0  0
   27.3617  -19.3749   -6.6053 C   0  0  0  0  0  0  0  0  0  0  0  0
   27.9090  -20.1334   -7.6258 C   0  0  0  0  0  0  0  0  0  0  0  0
   24.5959  -20.3751  -11.3808 C   0  0  0  0  0  0  0  0  0  0  0  0
   24.1794  -19.1919  -11.4654 O   0  0  0  0  0  0  0  0  0  0  0  0
   23.7127  -21.3996  -11.8125 N   0  0  0  0  0  0  0  0  0  0  0  0
   22.3887  -21.0787  -12.4030 C   0  0  1  0  0  0  0  0  0  0  0  0
   21.9441  -22.2729  -13.2364 C   0  0  0  0  0  0  0  0  0  0  0  0
   20.5797  -22.0462  -13.7734 C   0  0  0  0  0  0  0  0  0  0  0  0
   20.0259  -23.1861  -14.5832 C   0  0  0  0  0  0  0  0  0  0  0  0
   18.6535  -22.9910  -15.0959 C   0  0  0  0  0  0  0  0  0  0  0  0
   18.0703  -24.1403  -15.7122 N   0  0  0  0  0  0  0  0  0  0  0  0
   21.4715  -20.7544  -11.3083 C   0  0  0  0  0  0  0  0  0  0  0  0
   21.4816  -21.2618  -10.1635 O   0  0  0  0  0  0  0  0  0  0  0  0
   20.4756  -19.7810  -11.5464 O   0  0  0  0  0  0  0  0  0  0  0  0
  2  1  1  6
  2  5  1  0
  3  2  1  0
  4  3  1  0
  5  6  2  0
  7  5  1  0
  7  8  1  0
  8  9  1  1
  9 10  1  0
 10 11  2  0
 11 12  1  0
 13 14  2  0
 13 12  1  0
 15 14  1  0
 16 15  2  0
 17 16  1  0
 17 18  2  0
 18 10  1  0
 18 13  1  0
 19 21  1  0
 19  8  1  0
 20 19  2  0
 22 23  1  1
 22 28  1  0
 22 21  1  0
 24 23  1  0
 25 24  1  0
 26 25  1  0
 27 26  1  0
 28 30  1  0
 29 28  2  0
M  END
$$$$
