CWK.pdb
     RDKit          3D

 30 31  0  0  1  0  0  0  0  0999 V2000
   25.7409  -21.0840  -14.3821 N   0  0  0  0  0  0  0  0  0  0  0  0
   25.3095  -21.4578  -13.0278 C   0  0  1  0  0  0  0  0  0  0  0  0
   26.1040  -20.5992  -12.0676 C   0  0  0  0  0  0  0  0  0  0  0  0
   27.6124  -21.4905  -11.6024 S   0  0  0  0  0  0  0  0  0  0  0  0
   23.8557  -21.1702  -12.9492 C   0  0  0  0  0  0  0  0  0  0  0  0
   23.4031  -20.0354  -12.6513 O   0  0  0  0  0  0  0  0  0  0  0  0
   22.8802  -22.1915  -13.2142 N   0  0  0  0  0  0  0  0  0  0  0  0
   21.4581  -21.9183  -13.1338 C   0  0  1  0  0  0  0  0  0  0  0  0
   20.9773  -21.5982  -14.5326 C   0  0  0  0  0  0  0  0  0  0  0  0
   21.2964  -20.2299  -14.9424 C   0  0  0  0  0  0  0  0  0  0  0  0
   22.5366  -19.7749  -15.3313 C   0  0  0  0  0  0  0  0  0  0  0  0
   22.4250  -18.4673  -15.6299 N   0  0  0  0  0  0  0  0  0  0  0  0
   21.1597  -18.0343  -15.4551 C   0  0  0  0  0  0  0  0  0  0  0  0
   20.5620  -16.8038  -15.6267 C   0  0  0  0  0  0  0  0  0  0  0  0
   19.2134  -16.6998  -15.3524 C   0  0  0  0  0  0  0  0  0  0  0  0
   18.5071  -17.8080  -14.9209 C   0  0  0  0  0  0  0  0  0  0  0  0
   19.0899  -19.0451  -14.7443 C   0  0  0  0  0  0  0  0  0  0  0  0
   20.4424  -19.1545  -15.0182 C   0  0  0  0  0  0  0  0  0  0  0  0
   20.7127  -23.0253  -12.5209 C   0  0  0  0  0  0  0  0  0  0  0  0
   20.7613  -24.1648  -13.0499 O   0  0  0  0  0  0  0  0  0  0  0  0
   19.9242  -22.8950  -11.3473 N   0  0  0  0  0  0  0  0  0  0  0  0
   19.1345  -24.0355  -10.8177 C   0  0  1  0  0  0  0  0  0  0  0  0
   18.9175  -23.8053   -9.3283 C   0  0  0  0  0  0  0  0  0  0  0  0
   18.0542  -24.8714   -8.7633 C   0  0  0  0  0  0  0  0  0  0  0  0
   17.8091  -24.7630   -7.2834 C   0  0  0  0  0  0  0  0  0  0  0  0
   16.8560  -25.7451   -6.7254 C   0  0  0  0  0  0  0  0  0  0  0  0
   16.6746  -25.6734   -5.3102 N   0  0  0  0  0  0  0  0  0  0  0  0
   17.8898  -24.1190  -11.5849 C   0  0  0  0  0  0  0  0  0  0  0  0
   17.3192  -25.1716  -11.9515 O   0  0  0  0  0  0  0  0  0  0  0  0
   17.2592  -22.9103  -11.9555 O   0  0  0  0  0  0  0  0  0  0  0  0
  2  1  1  6
  2  5  1  0
  3  2  1  0
  4  3  1  0
  5  6  2  0
  7  5  1  0
  7  8  1  0
  8  9  1  6
  9 10  1  0
 10 11  2  0
 11 12  1  0
 13 14  2  0
 13 12  1  0
 15 14  1  0
 16 15  2  0
 17 16  1  0
 17 18  2  0
 18 10  1  0
 18 13  1  0
 19 21  1  0
 19  8  1  0
 20 19  2  0
 22 23  1  1
 22 28  1  0
 22 21  1  0
 24 23  1  0
 25 24  1  0
 26 25  1  0
 27 26  1  0
 28 30  1  0
 29 28  2  0
M  END
$$$$
