DIF.pdb
     RDKit          3D

 28 28  0  0  1  0  0  0  0  0999 V2000
   29.4967  -21.0247  -18.1959 N   0  0  0  0  0  0  0  0  0  0  0  0
   28.7644  -21.9054  -17.2851 C   0  0  1  0  0  0  0  0  0  0  0  0
   29.7682  -22.4675  -16.3424 C   0  0  0  0  0  0  0  0  0  0  0  0
   30.3393  -23.7639  -16.6668 C   0  0  0  0  0  0  0  0  0  0  0  0
   29.9022  -24.3594  -17.6868 O   0  0  0  0  0  0  0  0  0  0  0  0
   27.6568  -21.1494  -16.6375 C   0  0  0  0  0  0  0  0  0  0  0  0
   27.7053  -19.9162  -16.4359 O   0  0  0  0  0  0  0  0  0  0  0  0
   31.3273  -24.4086  -15.9491 O   0  0  0  0  0  0  0  0  0  0  0  0
   24.4774  -19.0460  -17.8851 C   0  0  0  0  0  0  0  0  0  0  0  0
   24.2005  -20.5057  -17.7810 C   0  0  0  0  0  0  0  0  0  0  0  0
   24.1302  -21.0783  -16.4157 C   0  0  2  0  0  0  0  0  0  0  0  0
   22.9331  -20.4872  -15.7017 C   0  0  0  0  0  0  0  0  0  0  0  0
   25.3865  -21.0754  -15.6122 C   0  0  2  0  0  0  0  0  0  0  0  0
   26.4563  -21.8287  -16.2074 N   0  0  0  0  0  0  0  0  0  0  0  0
   25.0986  -21.4946  -14.2224 C   0  0  0  0  0  0  0  0  0  0  0  0
   24.7066  -22.6629  -13.9310 O   0  0  0  0  0  0  0  0  0  0  0  0
   25.2513  -20.5944  -13.1379 N   0  0  0  0  0  0  0  0  0  0  0  0
   24.9160  -21.0036  -11.7607 C   0  0  1  0  0  0  0  0  0  0  0  0
   25.8770  -20.2753  -10.8492 C   0  0  0  0  0  0  0  0  0  0  0  0
   27.2952  -20.6188  -11.1273 C   0  0  0  0  0  0  0  0  0  0  0  0
   27.9922  -20.1119  -12.2026 C   0  0  0  0  0  0  0  0  0  0  0  0
   29.3189  -20.4437  -12.4477 C   0  0  0  0  0  0  0  0  0  0  0  0
   29.9934  -21.3066  -11.6073 C   0  0  0  0  0  0  0  0  0  0  0  0
   29.3175  -21.8247  -10.5276 C   0  0  0  0  0  0  0  0  0  0  0  0
   28.0039  -21.4893  -10.2947 C   0  0  0  0  0  0  0  0  0  0  0  0
   23.5402  -20.5793  -11.4079 C   0  0  0  0  0  0  0  0  0  0  0  0
   22.8420  -21.0794  -10.3343 O   0  0  0  0  0  0  0  0  0  0  0  0
   22.9943  -19.7074  -12.1484 O   0  0  0  0  0  0  0  0  0  0  0  0
  2  6  1  0
  2  1  1  6
  3  2  1  0
  4  3  1  0
  5  4  2  0
  6 14  1  0
  7  6  2  0
  8  4  1  0
 10  9  1  0
 10 11  1  0
 11 12  1  1
 13 11  1  0
 13 14  1  6
 15 13  1  0
 16 15  2  0
 17 15  1  0
 18 26  1  0
 18 17  1  0
 18 19  1  1
 20 19  1  0
 21 20  2  0
 22 21  1  0
 23 22  2  0
 23 24  1  0
 24 25  2  0
 25 20  1  0
 26 27  1  0
 28 26  2  0
M  END
$$$$
