DIF.pdb
     RDKit          3D

 28 28  0  0  1  0  0  0  0  0999 V2000
   28.1280  -22.3706  -16.1631 N   0  0  0  0  0  0  0  0  0  0  0  0
   27.5109  -21.1249  -15.7060 C   0  0  1  0  0  0  0  0  0  0  0  0
   27.0898  -20.3885  -16.9278 C   0  0  0  0  0  0  0  0  0  0  0  0
   28.1365  -19.9068  -17.8134 C   0  0  0  0  0  0  0  0  0  0  0  0
   27.9438  -19.9989  -19.0547 O   0  0  0  0  0  0  0  0  0  0  0  0
   26.4086  -21.4308  -14.7525 C   0  0  0  0  0  0  0  0  0  0  0  0
   25.5504  -22.3140  -14.9695 O   0  0  0  0  0  0  0  0  0  0  0  0
   29.3361  -19.3528  -17.4124 O   0  0  0  0  0  0  0  0  0  0  0  0
   26.9785  -20.7347   -9.2046 C   0  0  0  0  0  0  0  0  0  0  0  0
   26.6368  -21.2091  -10.5744 C   0  0  0  0  0  0  0  0  0  0  0  0
   25.4395  -20.6107  -11.2111 C   0  0  2  0  0  0  0  0  0  0  0  0
   24.2519  -20.8056  -10.2927 C   0  0  0  0  0  0  0  0  0  0  0  0
   25.1782  -20.9663  -12.6356 C   0  0  2  0  0  0  0  0  0  0  0  0
   26.2866  -20.7009  -13.5115 N   0  0  0  0  0  0  0  0  0  0  0  0
   23.9240  -20.3282  -13.0938 C   0  0  0  0  0  0  0  0  0  0  0  0
   23.8080  -19.0746  -13.2298 O   0  0  0  0  0  0  0  0  0  0  0  0
   22.7785  -21.1027  -13.4068 N   0  0  0  0  0  0  0  0  0  0  0  0
   21.5369  -20.4618  -13.8805 C   0  0  1  0  0  0  0  0  0  0  0  0
   21.5469  -20.5661  -15.3884 C   0  0  0  0  0  0  0  0  0  0  0  0
   20.3614  -19.9223  -16.0105 C   0  0  0  0  0  0  0  0  0  0  0  0
   19.2946  -20.6384  -16.5085 C   0  0  0  0  0  0  0  0  0  0  0  0
   18.1933  -20.0198  -17.0870 C   0  0  0  0  0  0  0  0  0  0  0  0
   18.1310  -18.6440  -17.1831 C   0  0  0  0  0  0  0  0  0  0  0  0
   19.1846  -17.9090  -16.6926 C   0  0  0  0  0  0  0  0  0  0  0  0
   20.2701  -18.5321  -16.1218 C   0  0  0  0  0  0  0  0  0  0  0  0
   20.3468  -21.1897  -13.3793 C   0  0  0  0  0  0  0  0  0  0  0  0
   19.1699  -20.5720  -13.0279 O   0  0  0  0  0  0  0  0  0  0  0  0
   20.4387  -22.4496  -13.2758 O   0  0  0  0  0  0  0  0  0  0  0  0
  2  6  1  0
  2  1  1  6
  3  2  1  0
  4  3  1  0
  5  4  2  0
  6 14  1  0
  7  6  2  0
  8  4  1  0
 10  9  1  0
 10 11  1  0
 11 12  1  1
 13 11  1  0
 13 14  1  6
 15 13  1  0
 16 15  2  0
 17 15  1  0
 18 26  1  0
 18 17  1  0
 18 19  1  6
 20 19  1  0
 21 20  2  0
 22 21  1  0
 23 22  2  0
 23 24  1  0
 24 25  2  0
 25 20  1  0
 26 27  1  0
 28 26  2  0
M  END
$$$$
