DIF.pdb
     RDKit          3D

 28 28  0  0  1  0  0  0  0  0999 V2000
   28.1927  -21.0814  -16.2833 N   0  0  0  0  0  0  0  0  0  0  0  0
   27.4067  -20.1217  -15.5071 C   0  0  1  0  0  0  0  0  0  0  0  0
   26.8693  -19.1317  -16.4784 C   0  0  0  0  0  0  0  0  0  0  0  0
   27.8298  -18.3356  -17.2238 C   0  0  0  0  0  0  0  0  0  0  0  0
   28.7073  -17.7112  -16.5710 O   0  0  0  0  0  0  0  0  0  0  0  0
   26.3714  -20.8433  -14.7164 C   0  0  0  0  0  0  0  0  0  0  0  0
   25.7785  -21.8584  -15.1427 O   0  0  0  0  0  0  0  0  0  0  0  0
   27.8663  -18.1997  -18.5975 O   0  0  0  0  0  0  0  0  0  0  0  0
   25.7250  -20.3078   -8.8997 C   0  0  0  0  0  0  0  0  0  0  0  0
   25.4265  -20.1016  -10.3442 C   0  0  0  0  0  0  0  0  0  0  0  0
   25.4064  -21.3095  -11.2030 C   0  0  2  0  0  0  0  0  0  0  0  0
   26.6949  -22.0762  -10.9939 C   0  0  0  0  0  0  0  0  0  0  0  0
   25.0309  -21.1197  -12.6337 C   0  0  2  0  0  0  0  0  0  0  0  0
   26.0045  -20.3864  -13.3957 N   0  0  0  0  0  0  0  0  0  0  0  0
   23.6750  -20.5339  -12.7270 C   0  0  0  0  0  0  0  0  0  0  0  0
   23.4012  -19.3778  -12.2890 O   0  0  0  0  0  0  0  0  0  0  0  0
   22.6052  -21.2506  -13.3203 N   0  0  0  0  0  0  0  0  0  0  0  0
   21.2541  -20.6640  -13.4029 C   0  0  1  0  0  0  0  0  0  0  0  0
   20.9970  -20.3795  -14.8650 C   0  0  0  0  0  0  0  0  0  0  0  0
   21.6888  -19.1519  -15.3354 C   0  0  0  0  0  0  0  0  0  0  0  0
   22.8487  -19.1832  -16.0787 C   0  0  0  0  0  0  0  0  0  0  0  0
   23.4825  -18.0249  -16.5108 C   0  0  0  0  0  0  0  0  0  0  0  0
   22.9617  -16.7837  -16.2043 C   0  0  0  0  0  0  0  0  0  0  0  0
   21.8045  -16.7282  -15.4634 C   0  0  0  0  0  0  0  0  0  0  0  0
   21.1855  -17.8817  -15.0408 C   0  0  0  0  0  0  0  0  0  0  0  0
   20.2326  -21.6327  -12.9388 C   0  0  0  0  0  0  0  0  0  0  0  0
   18.9658  -21.2717  -12.5450 O   0  0  0  0  0  0  0  0  0  0  0  0
   20.5638  -22.8558  -12.9103 O   0  0  0  0  0  0  0  0  0  0  0  0
  2  6  1  0
  2  1  1  6
  3  2  1  0
  4  3  1  0
  5  4  2  0
  6 14  1  0
  7  6  2  0
  8  4  1  0
 10  9  1  0
 10 11  1  0
 11 12  1  6
 13 11  1  0
 13 14  1  1
 15 13  1  0
 16 15  2  0
 17 15  1  0
 18 26  1  0
 18 17  1  0
 18 19  1  6
 20 19  1  0
 21 20  2  0
 22 21  1  0
 23 22  2  0
 23 24  1  0
 24 25  2  0
 25 20  1  0
 26 27  1  0
 28 26  2  0
M  END
$$$$
