DIF.pdb
     RDKit          3D

 28 28  0  0  1  0  0  0  0  0999 V2000
   22.1763  -22.5182  -14.5610 N   0  0  0  0  0  0  0  0  0  0  0  0
   22.4640  -21.3806  -13.6868 C   0  0  1  0  0  0  0  0  0  0  0  0
   21.3555  -21.3170  -12.6971 C   0  0  0  0  0  0  0  0  0  0  0  0
   20.0320  -20.9811  -13.1945 C   0  0  0  0  0  0  0  0  0  0  0  0
   19.8288  -19.7959  -13.5687 O   0  0  0  0  0  0  0  0  0  0  0  0
   23.8210  -21.5340  -13.0928 C   0  0  0  0  0  0  0  0  0  0  0  0
   24.3228  -22.6484  -12.8279 O   0  0  0  0  0  0  0  0  0  0  0  0
   18.9660  -21.8532  -13.2936 O   0  0  0  0  0  0  0  0  0  0  0  0
   28.3005  -19.1079  -14.7976 C   0  0  0  0  0  0  0  0  0  0  0  0
   27.2130  -19.9195  -14.1836 C   0  0  0  0  0  0  0  0  0  0  0  0
   27.0026  -19.7629  -12.7248 C   0  0  2  0  0  0  0  0  0  0  0  0
   28.3326  -19.9300  -12.0210 C   0  0  0  0  0  0  0  0  0  0  0  0
   25.8835  -20.5357  -12.1129 C   0  0  2  0  0  0  0  0  0  0  0  0
   24.6277  -20.3734  -12.7932 N   0  0  0  0  0  0  0  0  0  0  0  0
   25.7919  -20.2335  -10.6670 C   0  0  0  0  0  0  0  0  0  0  0  0
   25.0627  -19.3045  -10.2105 O   0  0  0  0  0  0  0  0  0  0  0  0
   26.5266  -20.9818   -9.7130 N   0  0  0  0  0  0  0  0  0  0  0  0
   26.5769  -20.5648   -8.2987 C   0  0  1  0  0  0  0  0  0  0  0  0
   27.6974  -21.3510   -7.6576 C   0  0  0  0  0  0  0  0  0  0  0  0
   28.0310  -20.8584   -6.2965 C   0  0  0  0  0  0  0  0  0  0  0  0
   27.3728  -21.2840   -5.1631 C   0  0  0  0  0  0  0  0  0  0  0  0
   27.6981  -20.8129   -3.8973 C   0  0  0  0  0  0  0  0  0  0  0  0
   28.7088  -19.8873   -3.7311 C   0  0  0  0  0  0  0  0  0  0  0  0
   29.3795  -19.4483   -4.8484 C   0  0  0  0  0  0  0  0  0  0  0  0
   29.0488  -19.9216   -6.0970 C   0  0  0  0  0  0  0  0  0  0  0  0
   26.9073  -19.1240   -8.1883 C   0  0  0  0  0  0  0  0  0  0  0  0
   26.3078  -18.2730   -7.2903 O   0  0  0  0  0  0  0  0  0  0  0  0
   27.7932  -18.6704   -8.9731 O   0  0  0  0  0  0  0  0  0  0  0  0
  2  6  1  0
  2  1  1  6
  3  2  1  0
  4  3  1  0
  5  4  2  0
  6 14  1  0
  7  6  2  0
  8  4  1  0
 10  9  1  0
 10 11  1  0
 11 12  1  1
 13 11  1  0
 13 14  1  6
 15 13  1  0
 16 15  2  0
 17 15  1  0
 18 26  1  0
 18 17  1  0
 18 19  1  1
 20 19  1  0
 21 20  2  0
 22 21  1  0
 23 22  2  0
 23 24  1  0
 24 25  2  0
 25 20  1  0
 26 27  1  0
 28 26  2  0
M  END
$$$$
