DIF.pdb
     RDKit          3D

 28 28  0  0  1  0  0  0  0  0999 V2000
   20.8654  -18.4943  -16.2828 N   0  0  0  0  0  0  0  0  0  0  0  0
   21.5882  -18.1416  -15.0604 C   0  0  1  0  0  0  0  0  0  0  0  0
   20.8319  -18.7480  -13.9322 C   0  0  0  0  0  0  0  0  0  0  0  0
   19.5594  -18.1428  -13.5770 C   0  0  0  0  0  0  0  0  0  0  0  0
   19.2034  -17.1118  -14.2067 O   0  0  0  0  0  0  0  0  0  0  0  0
   23.0057  -18.5849  -15.1693 C   0  0  0  0  0  0  0  0  0  0  0  0
   23.3327  -19.7056  -15.6174 O   0  0  0  0  0  0  0  0  0  0  0  0
   18.6972  -18.6003  -12.6002 O   0  0  0  0  0  0  0  0  0  0  0  0
   27.1689  -14.9874  -16.0512 C   0  0  0  0  0  0  0  0  0  0  0  0
   26.2163  -16.1301  -15.9784 C   0  0  0  0  0  0  0  0  0  0  0  0
   26.4599  -17.1386  -14.9200 C   0  0  2  0  0  0  0  0  0  0  0  0
   27.8771  -17.6536  -15.0560 C   0  0  0  0  0  0  0  0  0  0  0  0
   25.4330  -18.2065  -14.7497 C   0  0  2  0  0  0  0  0  0  0  0  0
   24.0818  -17.7161  -14.7513 N   0  0  0  0  0  0  0  0  0  0  0  0
   25.7430  -19.0195  -13.5526 C   0  0  0  0  0  0  0  0  0  0  0  0
   26.2421  -18.5206  -12.5012 O   0  0  0  0  0  0  0  0  0  0  0  0
   25.4910  -20.4145  -13.5276 N   0  0  0  0  0  0  0  0  0  0  0  0
   25.7688  -21.2130  -12.3186 C   0  0  1  0  0  0  0  0  0  0  0  0
   24.8671  -20.6753  -11.2310 C   0  0  0  0  0  0  0  0  0  0  0  0
   25.6065  -20.3684   -9.9797 C   0  0  0  0  0  0  0  0  0  0  0  0
   25.7882  -21.2898   -8.9712 C   0  0  0  0  0  0  0  0  0  0  0  0
   26.4830  -20.9858   -7.8072 C   0  0  0  0  0  0  0  0  0  0  0  0
   27.0233  -19.7292   -7.6201 C   0  0  0  0  0  0  0  0  0  0  0  0
   26.8543  -18.7935   -8.6135 C   0  0  0  0  0  0  0  0  0  0  0  0
   26.1644  -19.1056   -9.7620 C   0  0  0  0  0  0  0  0  0  0  0  0
   25.4207  -22.6369  -12.5392 C   0  0  0  0  0  0  0  0  0  0  0  0
   24.7371  -23.0904  -13.6424 O   0  0  0  0  0  0  0  0  0  0  0  0
   25.7813  -23.4663  -11.6512 O   0  0  0  0  0  0  0  0  0  0  0  0
  2  6  1  0
  2  1  1  6
  3  2  1  0
  4  3  1  0
  5  4  2  0
  6 14  1  0
  7  6  2  0
  8  4  1  0
 10  9  1  0
 10 11  1  0
 11 12  1  6
 13 11  1  0
 13 14  1  1
 15 13  1  0
 16 15  2  0
 17 15  1  0
 18 26  1  0
 18 17  1  0
 18 19  1  1
 20 19  1  0
 21 20  2  0
 22 21  1  0
 23 22  2  0
 23 24  1  0
 24 25  2  0
 25 20  1  0
 26 27  1  0
 28 26  2  0
M  END
$$$$
