DIF.pdb
     RDKit          3D

 28 28  0  0  1  0  0  0  0  0999 V2000
   11.1922  -19.2208    1.0112 N   0  0  0  0  0  0  0  0  0  0  0  0
   11.6151  -19.3516    2.4060 C   0  0  1  0  0  0  0  0  0  0  0  0
   10.9449  -20.5680    2.9387 C   0  0  0  0  0  0  0  0  0  0  0  0
    9.4920  -20.5719    2.9717 C   0  0  0  0  0  0  0  0  0  0  0  0
    8.9103  -21.6834    3.0828 O   0  0  0  0  0  0  0  0  0  0  0  0
   13.1022  -19.3774    2.4797 C   0  0  0  0  0  0  0  0  0  0  0  0
   13.8209  -19.7685    1.5341 O   0  0  0  0  0  0  0  0  0  0  0  0
    8.6837  -19.4554    2.8899 O   0  0  0  0  0  0  0  0  0  0  0  0
   17.8186  -16.6329    5.4667 C   0  0  0  0  0  0  0  0  0  0  0  0
   17.2650  -17.7665    4.6751 C   0  0  0  0  0  0  0  0  0  0  0  0
   15.7890  -17.8934    4.6291 C   0  0  2  0  0  0  0  0  0  0  0  0
   15.2638  -17.9768    6.0467 C   0  0  0  0  0  0  0  0  0  0  0  0
   15.2235  -18.9176    3.7044 C   0  0  2  0  0  0  0  0  0  0  0  0
   13.7866  -18.9412    3.6751 N   0  0  0  0  0  0  0  0  0  0  0  0
   15.8095  -20.2440    4.0000 C   0  0  0  0  0  0  0  0  0  0  0  0
   15.3196  -21.0271    4.8661 O   0  0  0  0  0  0  0  0  0  0  0  0
   16.9627  -20.7056    3.3167 N   0  0  0  0  0  0  0  0  0  0  0  0
   17.5650  -22.0120    3.6437 C   0  0  1  0  0  0  0  0  0  0  0  0
   18.4063  -22.4086    2.4521 C   0  0  0  0  0  0  0  0  0  0  0  0
   19.0277  -23.7480    2.6156 C   0  0  0  0  0  0  0  0  0  0  0  0
   18.3171  -24.9230    2.5006 C   0  0  0  0  0  0  0  0  0  0  0  0
   18.9146  -26.1676    2.6562 C   0  0  0  0  0  0  0  0  0  0  0  0
   20.2627  -26.2690    2.9357 C   0  0  0  0  0  0  0  0  0  0  0  0
   20.9918  -25.1092    3.0549 C   0  0  0  0  0  0  0  0  0  0  0  0
   20.3897  -23.8822    2.8989 C   0  0  0  0  0  0  0  0  0  0  0  0
   18.4614  -21.8968    4.8187 C   0  0  0  0  0  0  0  0  0  0  0  0
   19.0937  -20.7311    5.1813 O   0  0  0  0  0  0  0  0  0  0  0  0
   18.6426  -22.9406    5.5144 O   0  0  0  0  0  0  0  0  0  0  0  0
  2  6  1  0
  2  1  1  6
  3  2  1  0
  4  3  1  0
  5  4  2  0
  6 14  1  0
  7  6  2  0
  8  4  1  0
 10  9  1  0
 10 11  1  0
 11 12  1  1
 13 11  1  0
 13 14  1  1
 15 13  1  0
 16 15  2  0
 17 15  1  0
 18 26  1  0
 18 17  1  0
 18 19  1  6
 20 19  1  0
 21 20  2  0
 22 21  1  0
 23 22  2  0
 23 24  1  0
 24 25  2  0
 25 20  1  0
 26 27  1  0
 28 26  2  0
M  END
$$$$
