DIF.pdb
     RDKit          3D

 28 28  0  0  1  0  0  0  0  0999 V2000
   12.0526   -8.8181  -13.2290 N   0  0  0  0  0  0  0  0  0  0  0  0
   12.7280   -8.6782  -14.5196 C   0  0  1  0  0  0  0  0  0  0  0  0
   12.7537   -7.2233  -14.8278 C   0  0  0  0  0  0  0  0  0  0  0  0
   11.4806   -6.5698  -15.0812 C   0  0  0  0  0  0  0  0  0  0  0  0
   11.2518   -5.4810  -14.4909 O   0  0  0  0  0  0  0  0  0  0  0  0
   14.0677   -9.3255  -14.4583 C   0  0  0  0  0  0  0  0  0  0  0  0
   14.7120   -9.4501  -13.3938 O   0  0  0  0  0  0  0  0  0  0  0  0
   10.4885   -7.0408  -15.9183 O   0  0  0  0  0  0  0  0  0  0  0  0
   14.5047  -13.3005  -17.6602 C   0  0  0  0  0  0  0  0  0  0  0  0
   15.0418  -12.7525  -16.3837 C   0  0  0  0  0  0  0  0  0  0  0  0
   16.0711  -11.6914  -16.4909 C   0  0  2  0  0  0  0  0  0  0  0  0
   17.4390  -12.3400  -16.4998 C   0  0  0  0  0  0  0  0  0  0  0  0
   15.9489  -10.5302  -15.5632 C   0  0  2  0  0  0  0  0  0  0  0  0
   14.6882   -9.8458  -15.6549 N   0  0  0  0  0  0  0  0  0  0  0  0
   17.1045   -9.6219  -15.7355 C   0  0  0  0  0  0  0  0  0  0  0  0
   17.1993   -8.8177  -16.7090 O   0  0  0  0  0  0  0  0  0  0  0  0
   18.1737   -9.6099  -14.8046 N   0  0  0  0  0  0  0  0  0  0  0  0
   19.3484   -8.7417  -15.0111 C   0  0  1  0  0  0  0  0  0  0  0  0
   20.2154   -8.8909  -13.7819 C   0  0  0  0  0  0  0  0  0  0  0  0
   21.5493   -8.2581  -13.9469 C   0  0  0  0  0  0  0  0  0  0  0  0
   21.7532   -6.8997  -13.8371 C   0  0  0  0  0  0  0  0  0  0  0  0
   23.0080   -6.3245  -13.9941 C   0  0  0  0  0  0  0  0  0  0  0  0
   24.1102   -7.1087  -14.2699 C   0  0  0  0  0  0  0  0  0  0  0  0
   23.9302   -8.4673  -14.3839 C   0  0  0  0  0  0  0  0  0  0  0  0
   22.6831   -9.0260  -14.2265 C   0  0  0  0  0  0  0  0  0  0  0  0
   20.1349   -9.1937  -16.1834 C   0  0  0  0  0  0  0  0  0  0  0  0
   20.2872  -10.5144  -16.5336 O   0  0  0  0  0  0  0  0  0  0  0  0
   20.6900   -8.2991  -16.8892 O   0  0  0  0  0  0  0  0  0  0  0  0
  2  6  1  0
  2  1  1  1
  3  2  1  0
  4  3  1  0
  5  4  2  0
  6 14  1  0
  7  6  2  0
  8  4  1  0
 10  9  1  0
 10 11  1  0
 11 12  1  1
 13 11  1  0
 13 14  1  6
 15 13  1  0
 16 15  2  0
 17 15  1  0
 18 26  1  0
 18 17  1  0
 18 19  1  1
 20 19  1  0
 21 20  2  0
 22 21  1  0
 23 22  2  0
 23 24  1  0
 24 25  2  0
 25 20  1  0
 26 27  1  0
 28 26  2  0
M  END
$$$$
