DIF.pdb
     RDKit          3D

 28 28  0  0  1  0  0  0  0  0999 V2000
   25.0866  -20.5439  -15.4145 N   0  0  0  0  0  0  0  0  0  0  0  0
   25.2928  -20.0643  -14.0475 C   0  0  1  0  0  0  0  0  0  0  0  0
   23.9405  -19.8586  -13.4632 C   0  0  0  0  0  0  0  0  0  0  0  0
   23.0584  -18.9169  -14.1316 C   0  0  0  0  0  0  0  0  0  0  0  0
   23.5688  -17.8648  -14.5995 O   0  0  0  0  0  0  0  0  0  0  0  0
   26.1534  -21.0247  -13.3027 C   0  0  0  0  0  0  0  0  0  0  0  0
   25.9946  -22.2636  -13.3617 O   0  0  0  0  0  0  0  0  0  0  0  0
   21.6968  -19.0727  -14.3004 O   0  0  0  0  0  0  0  0  0  0  0  0
   31.8239  -21.7918  -10.9872 C   0  0  0  0  0  0  0  0  0  0  0  0
   30.3645  -22.0870  -10.9507 C   0  0  0  0  0  0  0  0  0  0  0  0
   29.4733  -21.1497  -11.6746 C   0  0  2  0  0  0  0  0  0  0  0  0
   29.7667  -19.7403  -11.2063 C   0  0  0  0  0  0  0  0  0  0  0  0
   28.0224  -21.4910  -11.7213 C   0  0  2  0  0  0  0  0  0  0  0  0
   27.2296  -20.5495  -12.4638 N   0  0  0  0  0  0  0  0  0  0  0  0
   27.5106  -21.7112  -10.3503 C   0  0  0  0  0  0  0  0  0  0  0  0
   28.1186  -22.4303   -9.5038 O   0  0  0  0  0  0  0  0  0  0  0  0
   26.2987  -21.1178   -9.9153 N   0  0  0  0  0  0  0  0  0  0  0  0
   26.0790  -20.8001   -8.4915 C   0  0  1  0  0  0  0  0  0  0  0  0
   26.9673  -19.6195   -8.1718 C   0  0  0  0  0  0  0  0  0  0  0  0
   27.6067  -19.7346   -6.8360 C   0  0  0  0  0  0  0  0  0  0  0  0
   27.9604  -18.6398   -6.0774 C   0  0  0  0  0  0  0  0  0  0  0  0
   28.5575  -18.7658   -4.8293 C   0  0  0  0  0  0  0  0  0  0  0  0
   28.8204  -20.0132   -4.2996 C   0  0  0  0  0  0  0  0  0  0  0  0
   28.4759  -21.1202   -5.0392 C   0  0  0  0  0  0  0  0  0  0  0  0
   27.8850  -20.9836   -6.2739 C   0  0  0  0  0  0  0  0  0  0  0  0
   24.6735  -20.3922   -8.2560 C   0  0  0  0  0  0  0  0  0  0  0  0
   24.0163  -20.5818   -7.0634 O   0  0  0  0  0  0  0  0  0  0  0  0
   24.0608  -19.8404   -9.2186 O   0  0  0  0  0  0  0  0  0  0  0  0
  2  6  1  0
  2  1  1  6
  3  2  1  0
  4  3  1  0
  5  4  2  0
  6 14  1  0
  7  6  2  0
  8  4  1  0
 10  9  1  0
 10 11  1  0
 11 12  1  1
 13 11  1  0
 13 14  1  1
 15 13  1  0
 16 15  2  0
 17 15  1  0
 18 26  1  0
 18 17  1  0
 18 19  1  6
 20 19  1  0
 21 20  2  0
 22 21  1  0
 23 22  2  0
 23 24  1  0
 24 25  2  0
 25 20  1  0
 26 27  1  0
 28 26  2  0
M  END
$$$$
