DIF.pdb
     RDKit          3D

 28 28  0  0  1  0  0  0  0  0999 V2000
   20.3046  -21.0152  -13.3553 N   0  0  0  0  0  0  0  0  0  0  0  0
   21.2763  -20.0257  -12.8881 C   0  0  1  0  0  0  0  0  0  0  0  0
   20.5583  -19.1515  -11.9224 C   0  0  0  0  0  0  0  0  0  0  0  0
   19.5589  -18.2421  -12.4573 C   0  0  0  0  0  0  0  0  0  0  0  0
   19.7651  -17.7475  -13.5971 O   0  0  0  0  0  0  0  0  0  0  0  0
   22.4710  -20.7189  -12.3314 C   0  0  0  0  0  0  0  0  0  0  0  0
   22.4001  -21.5454  -11.3956 O   0  0  0  0  0  0  0  0  0  0  0  0
   18.3923  -17.8665  -11.8211 O   0  0  0  0  0  0  0  0  0  0  0  0
   26.4120  -22.5996  -15.5954 C   0  0  0  0  0  0  0  0  0  0  0  0
   25.4390  -22.3321  -14.4999 C   0  0  0  0  0  0  0  0  0  0  0  0
   25.9321  -21.5474  -13.3432 C   0  0  2  0  0  0  0  0  0  0  0  0
   27.1569  -22.2336  -12.7767 C   0  0  0  0  0  0  0  0  0  0  0  0
   24.9268  -21.1428  -12.3186 C   0  0  2  0  0  0  0  0  0  0  0  0
   23.7880  -20.4560  -12.8642 N   0  0  0  0  0  0  0  0  0  0  0  0
   25.5875  -20.3804  -11.2358 C   0  0  0  0  0  0  0  0  0  0  0  0
   25.8308  -19.1411  -11.3263 O   0  0  0  0  0  0  0  0  0  0  0  0
   25.9834  -21.0119  -10.0298 N   0  0  0  0  0  0  0  0  0  0  0  0
   26.9448  -20.3655   -9.1163 C   0  0  1  0  0  0  0  0  0  0  0  0
   26.4176  -20.5781   -7.7158 C   0  0  0  0  0  0  0  0  0  0  0  0
   27.2996  -19.9817   -6.6798 C   0  0  0  0  0  0  0  0  0  0  0  0
   27.9987  -20.7384   -5.7646 C   0  0  0  0  0  0  0  0  0  0  0  0
   28.8198  -20.1639   -4.8023 C   0  0  0  0  0  0  0  0  0  0  0  0
   28.9643  -18.7929   -4.7308 C   0  0  0  0  0  0  0  0  0  0  0  0
   28.2760  -18.0177   -5.6343 C   0  0  0  0  0  0  0  0  0  0  0  0
   27.4657  -18.5974   -6.5829 C   0  0  0  0  0  0  0  0  0  0  0  0
   28.2739  -21.0154   -9.2085 C   0  0  0  0  0  0  0  0  0  0  0  0
   29.4617  -20.3452   -9.0351 O   0  0  0  0  0  0  0  0  0  0  0  0
   28.2961  -22.2571   -9.4619 O   0  0  0  0  0  0  0  0  0  0  0  0
  2  6  1  0
  2  1  1  1
  3  2  1  0
  4  3  1  0
  5  4  2  0
  6 14  1  0
  7  6  2  0
  8  4  1  0
 10  9  1  0
 10 11  1  0
 11 12  1  1
 13 11  1  0
 13 14  1  6
 15 13  1  0
 16 15  2  0
 17 15  1  0
 18 26  1  0
 18 17  1  0
 18 19  1  1
 20 19  1  0
 21 20  2  0
 22 21  1  0
 23 22  2  0
 23 24  1  0
 24 25  2  0
 25 20  1  0
 26 27  1  0
 28 26  2  0
M  END
$$$$
