DIF.pdb
     RDKit          3D

 28 28  0  0  1  0  0  0  0  0999 V2000
   19.6438  -13.9416  -15.8506 N   0  0  0  0  0  0  0  0  0  0  0  0
   19.8593  -12.6915  -16.5801 C   0  0  1  0  0  0  0  0  0  0  0  0
   18.5110  -12.1464  -16.8922 C   0  0  0  0  0  0  0  0  0  0  0  0
   17.6490  -12.9422  -17.7499 C   0  0  0  0  0  0  0  0  0  0  0  0
   18.1907  -13.6070  -18.6723 O   0  0  0  0  0  0  0  0  0  0  0  0
   20.7270  -11.7851  -15.7781 C   0  0  0  0  0  0  0  0  0  0  0  0
   20.5698  -11.6076  -14.5503 O   0  0  0  0  0  0  0  0  0  0  0  0
   16.2754  -13.0349  -17.6442 O   0  0  0  0  0  0  0  0  0  0  0  0
   25.9696  -12.1031  -15.6729 C   0  0  0  0  0  0  0  0  0  0  0  0
   24.5338  -11.8018  -15.4159 C   0  0  0  0  0  0  0  0  0  0  0  0
   24.0751  -10.4241  -15.7131 C   0  0  2  0  0  0  0  0  0  0  0  0
   24.9345   -9.4478  -14.9383 C   0  0  0  0  0  0  0  0  0  0  0  0
   22.6103  -10.1606  -15.6189 C   0  0  2  0  0  0  0  0  0  0  0  0
   21.8085  -11.0594  -16.4036 N   0  0  0  0  0  0  0  0  0  0  0  0
   22.3322   -8.7385  -15.9194 C   0  0  0  0  0  0  0  0  0  0  0  0
   22.3505   -8.2754  -17.0978 O   0  0  0  0  0  0  0  0  0  0  0  0
   22.0276   -7.8162  -14.8867 N   0  0  0  0  0  0  0  0  0  0  0  0
   21.7614   -6.3976  -15.1920 C   0  0  1  0  0  0  0  0  0  0  0  0
   21.1732   -5.7906  -13.9389 C   0  0  0  0  0  0  0  0  0  0  0  0
   20.8465   -4.3509  -14.1041 C   0  0  0  0  0  0  0  0  0  0  0  0
   21.7171   -3.3402  -13.7585 C   0  0  0  0  0  0  0  0  0  0  0  0
   21.3953   -1.9984  -13.9201 C   0  0  0  0  0  0  0  0  0  0  0  0
   20.1718   -1.6279  -14.4412 C   0  0  0  0  0  0  0  0  0  0  0  0
   19.2869   -2.6198  -14.7932 C   0  0  0  0  0  0  0  0  0  0  0  0
   19.6162   -3.9453  -14.6288 C   0  0  0  0  0  0  0  0  0  0  0  0
   23.0226   -5.6816  -15.4988 C   0  0  0  0  0  0  0  0  0  0  0  0
   24.2046   -5.9039  -14.8326 O   0  0  0  0  0  0  0  0  0  0  0  0
   22.9896   -4.8213  -16.4290 O   0  0  0  0  0  0  0  0  0  0  0  0
  2  6  1  0
  2  1  1  1
  3  2  1  0
  4  3  1  0
  5  4  2  0
  6 14  1  0
  7  6  2  0
  8  4  1  0
 10  9  1  0
 10 11  1  0
 11 12  1  1
 13 11  1  0
 13 14  1  6
 15 13  1  0
 16 15  2  0
 17 15  1  0
 18 26  1  0
 18 17  1  0
 18 19  1  1
 20 19  1  0
 21 20  2  0
 22 21  1  0
 23 22  2  0
 23 24  1  0
 24 25  2  0
 25 20  1  0
 26 27  1  0
 28 26  2  0
M  END
$$$$
