YAH.pdb
     RDKit          3D

 28 29  0  0  1  0  0  0  0  0999 V2000
   28.8807  -19.4634   -3.9313 O   0  0  0  0  0  0  0  0  0  0  0  0
   28.5748  -19.5775   -5.2810 C   0  0  0  0  0  0  0  0  0  0  0  0
   27.5700  -18.8180   -5.8480 C   0  0  0  0  0  0  0  0  0  0  0  0
   27.2820  -18.9407   -7.1704 C   0  0  0  0  0  0  0  0  0  0  0  0
   27.9736  -19.8187   -7.9906 C   0  0  0  0  0  0  0  0  0  0  0  0
   27.6404  -19.9356   -9.4356 C   0  0  0  0  0  0  0  0  0  0  0  0
   26.2465  -20.5057   -9.5578 C   0  0  2  0  0  0  0  0  0  0  0  0
   26.2832  -21.9019   -9.1124 N   0  0  0  0  0  0  0  0  0  0  0  0
   25.7534  -20.5103  -10.9409 C   0  0  0  0  0  0  0  0  0  0  0  0
   25.7109  -19.4607  -11.6693 O   0  0  0  0  0  0  0  0  0  0  0  0
   28.9886  -20.5946   -7.4476 C   0  0  0  0  0  0  0  0  0  0  0  0
   29.2634  -20.4521   -6.0990 C   0  0  0  0  0  0  0  0  0  0  0  0
   24.5164  -23.0890  -13.4609 C   0  0  0  0  0  0  0  0  0  0  0  0
   24.6902  -21.6822  -12.8992 C   0  0  2  0  0  0  0  0  0  0  0  0
   25.2769  -21.6995  -11.5899 N   0  0  0  0  0  0  0  0  0  0  0  0
   23.3263  -21.1059  -12.7908 C   0  0  0  0  0  0  0  0  0  0  0  0
   22.6857  -21.2786  -11.7268 O   0  0  0  0  0  0  0  0  0  0  0  0
   22.7126  -20.3714  -13.8277 N   0  0  0  0  0  0  0  0  0  0  0  0
   21.4604  -19.6742  -13.5503 C   0  0  1  0  0  0  0  0  0  0  0  0
   21.5996  -18.1979  -13.8223 C   0  0  0  0  0  0  0  0  0  0  0  0
   20.3098  -17.5164  -13.7127 C   0  0  0  0  0  0  0  0  0  0  0  0
   19.1072  -18.1097  -13.3774 C   0  0  0  0  0  0  0  0  0  0  0  0
   18.1796  -17.1452  -13.4049 N   0  0  0  0  0  0  0  0  0  0  0  0
   18.7517  -15.9846  -13.7412 C   0  0  0  0  0  0  0  0  0  0  0  0
   20.0643  -16.1908  -13.9355 N   0  0  0  0  0  0  0  0  0  0  0  0
   20.4050  -20.3403  -14.3314 C   0  0  0  0  0  0  0  0  0  0  0  0
   20.6473  -20.7517  -15.4865 O   0  0  0  0  0  0  0  0  0  0  0  0
   19.1365  -20.5292  -13.8205 O   0  0  0  0  0  0  0  0  0  0  0  0
  2 12  2  0
  2  1  1  0
  3  2  1  0
  4  5  1  0
  4  3  2  0
  5 11  2  0
  6  5  1  0
  6  7  1  0
  7  8  1  6
  9  7  1  0
  9 15  1  0
 10  9  2  0
 11 12  1  0
 14 13  1  1
 14 15  1  0
 14 16  1  0
 16 17  2  0
 16 18  1  0
 18 19  1  0
 19 26  1  0
 19 20  1  6
 21 20  1  0
 22 21  2  0
 23 24  1  0
 23 22  1  0
 24 25  2  0
 25 21  1  0
 26 27  2  0
 26 28  1  0
M  END
$$$$
