YAH.pdb
     RDKit          3D

 28 29  0  0  1  0  0  0  0  0999 V2000
   32.9176   -7.6128  -17.5106 O   0  0  0  0  0  0  0  0  0  0  0  0
   31.6507   -8.1812  -17.4972 C   0  0  0  0  0  0  0  0  0  0  0  0
   30.5346   -7.4360  -17.8242 C   0  0  0  0  0  0  0  0  0  0  0  0
   29.3012   -8.0062  -17.8066 C   0  0  0  0  0  0  0  0  0  0  0  0
   29.1160   -9.3371  -17.4654 C   0  0  0  0  0  0  0  0  0  0  0  0
   27.7559   -9.9392  -17.4532 C   0  0  0  0  0  0  0  0  0  0  0  0
   27.7544  -11.1299  -18.3833 C   0  0  2  0  0  0  0  0  0  0  0  0
   27.9681  -10.6429  -19.7494 N   0  0  0  0  0  0  0  0  0  0  0  0
   26.4754  -11.8514  -18.3811 C   0  0  0  0  0  0  0  0  0  0  0  0
   25.4662  -11.4834  -19.0740 O   0  0  0  0  0  0  0  0  0  0  0  0
   30.2200  -10.1099  -17.1323 C   0  0  0  0  0  0  0  0  0  0  0  0
   31.4653   -9.5073  -17.1574 C   0  0  0  0  0  0  0  0  0  0  0  0
   25.0946  -15.0455  -16.8101 C   0  0  0  0  0  0  0  0  0  0  0  0
   25.0186  -13.7628  -17.6309 C   0  0  2  0  0  0  0  0  0  0  0  0
   26.2541  -13.0340  -17.5969 N   0  0  0  0  0  0  0  0  0  0  0  0
   23.9670  -12.9264  -16.9994 C   0  0  0  0  0  0  0  0  0  0  0  0
   24.2900  -12.1734  -16.0502 O   0  0  0  0  0  0  0  0  0  0  0  0
   22.6184  -12.9359  -17.4147 N   0  0  0  0  0  0  0  0  0  0  0  0
   21.6626  -12.0776  -16.7215 C   0  0  1  0  0  0  0  0  0  0  0  0
   21.4877  -10.7719  -17.4547 C   0  0  0  0  0  0  0  0  0  0  0  0
   22.3040   -9.7160  -16.8559 C   0  0  0  0  0  0  0  0  0  0  0  0
   23.0663   -9.8349  -15.7089 C   0  0  0  0  0  0  0  0  0  0  0  0
   23.6389   -8.6433  -15.5002 N   0  0  0  0  0  0  0  0  0  0  0  0
   23.2667   -7.7940  -16.4633 C   0  0  0  0  0  0  0  0  0  0  0  0
   22.4439   -8.4346  -17.3093 N   0  0  0  0  0  0  0  0  0  0  0  0
   20.4215  -12.8510  -16.5510 C   0  0  0  0  0  0  0  0  0  0  0  0
   20.1474  -13.7764  -17.3452 O   0  0  0  0  0  0  0  0  0  0  0  0
   19.5372  -12.5836  -15.5251 O   0  0  0  0  0  0  0  0  0  0  0  0
  2 12  2  0
  2  1  1  0
  3  2  1  0
  4  5  1  0
  4  3  2  0
  5 11  2  0
  6  5  1  0
  6  7  1  0
  7  8  1  6
  9  7  1  0
  9 15  1  0
 10  9  2  0
 11 12  1  0
 14 13  1  1
 14 15  1  0
 14 16  1  0
 16 17  2  0
 16 18  1  0
 18 19  1  0
 19 26  1  0
 19 20  1  6
 21 20  1  0
 22 21  2  0
 23 24  1  0
 23 22  1  0
 24 25  2  0
 25 21  1  0
 26 27  2  0
 26 28  1  0
M  END
$$$$
