YAH.pdb
     RDKit          3D

 28 29  0  0  1  0  0  0  0  0999 V2000
   21.3408  -16.0281  -24.6098 O   0  0  0  0  0  0  0  0  0  0  0  0
   21.3184  -15.0854  -23.5905 C   0  0  0  0  0  0  0  0  0  0  0  0
   22.1037  -13.9509  -23.6553 C   0  0  0  0  0  0  0  0  0  0  0  0
   22.0711  -13.0371  -22.6500 C   0  0  0  0  0  0  0  0  0  0  0  0
   21.2616  -13.2036  -21.5369 C   0  0  0  0  0  0  0  0  0  0  0  0
   21.2429  -12.1895  -20.4488 C   0  0  0  0  0  0  0  0  0  0  0  0
   22.4071  -12.4612  -19.5251 C   0  0  2  0  0  0  0  0  0  0  0  0
   22.0591  -13.6036  -18.6749 N   0  0  0  0  0  0  0  0  0  0  0  0
   22.6976  -11.3340  -18.6299 C   0  0  0  0  0  0  0  0  0  0  0  0
   22.0168  -11.0869  -17.5766 O   0  0  0  0  0  0  0  0  0  0  0  0
   20.4618  -14.3345  -21.4452 C   0  0  0  0  0  0  0  0  0  0  0  0
   20.5121  -15.2505  -22.4810 C   0  0  0  0  0  0  0  0  0  0  0  0
   25.3138   -8.5626  -18.4044 C   0  0  0  0  0  0  0  0  0  0  0  0
   24.0355   -9.2937  -18.0087 C   0  0  2  0  0  0  0  0  0  0  0  0
   23.7749  -10.4141  -18.8663 N   0  0  0  0  0  0  0  0  0  0  0  0
   22.9299   -8.3162  -18.1706 C   0  0  0  0  0  0  0  0  0  0  0  0
   22.3236   -8.2736  -19.2674 O   0  0  0  0  0  0  0  0  0  0  0  0
   22.5256   -7.4301  -17.1496 N   0  0  0  0  0  0  0  0  0  0  0  0
   21.3700   -6.5689  -17.3820 C   0  0  1  0  0  0  0  0  0  0  0  0
   20.1578   -7.3885  -17.7449 C   0  0  0  0  0  0  0  0  0  0  0  0
   18.9709   -6.5445  -17.8820 C   0  0  0  0  0  0  0  0  0  0  0  0
   18.9591   -5.2263  -18.2979 C   0  0  0  0  0  0  0  0  0  0  0  0
   17.6831   -4.8234  -18.2691 N   0  0  0  0  0  0  0  0  0  0  0  0
   16.9062   -5.8295  -17.8552 C   0  0  0  0  0  0  0  0  0  0  0  0
   17.6795   -6.8998  -17.6111 N   0  0  0  0  0  0  0  0  0  0  0  0
   21.2008   -5.7289  -16.1848 C   0  0  0  0  0  0  0  0  0  0  0  0
   20.2422   -4.9300  -16.1119 O   0  0  0  0  0  0  0  0  0  0  0  0
   22.0798   -5.7972  -15.1225 O   0  0  0  0  0  0  0  0  0  0  0  0
  2 12  2  0
  2  1  1  0
  3  2  1  0
  4  5  1  0
  4  3  2  0
  5 11  2  0
  6  5  1  0
  6  7  1  0
  7  8  1  1
  9  7  1  0
  9 15  1  0
 10  9  2  0
 11 12  1  0
 14 13  1  6
 14 15  1  0
 14 16  1  0
 16 17  2  0
 16 18  1  0
 18 19  1  0
 19 26  1  0
 19 20  1  1
 21 20  1  0
 22 21  2  0
 23 24  1  0
 23 22  1  0
 24 25  2  0
 25 21  1  0
 26 27  2  0
 26 28  1  0
M  END
$$$$
