YAH.pdb
     RDKit          3D

 28 29  0  0  1  0  0  0  0  0999 V2000
   16.7711  -24.7142  -14.0809 O   0  0  0  0  0  0  0  0  0  0  0  0
   17.9920  -24.0529  -14.0760 C   0  0  0  0  0  0  0  0  0  0  0  0
   18.1966  -22.9339  -14.8596 C   0  0  0  0  0  0  0  0  0  0  0  0
   19.3971  -22.2973  -14.8443 C   0  0  0  0  0  0  0  0  0  0  0  0
   20.4479  -22.7377  -14.0545 C   0  0  0  0  0  0  0  0  0  0  0  0
   21.7531  -22.0241  -14.0544 C   0  0  0  0  0  0  0  0  0  0  0  0
   21.7950  -21.1091  -12.8528 C   0  0  2  0  0  0  0  0  0  0  0  0
   20.8530  -20.0097  -13.0826 N   0  0  0  0  0  0  0  0  0  0  0  0
   23.1167  -20.5041  -12.6448 C   0  0  0  0  0  0  0  0  0  0  0  0
   23.4592  -19.3842  -13.1572 O   0  0  0  0  0  0  0  0  0  0  0  0
   20.2706  -23.8598  -13.2568 C   0  0  0  0  0  0  0  0  0  0  0  0
   19.0397  -24.4910  -13.2893 C   0  0  0  0  0  0  0  0  0  0  0  0
   26.1558  -20.9883  -10.4630 C   0  0  0  0  0  0  0  0  0  0  0  0
   25.4777  -20.6205  -11.7782 C   0  0  2  0  0  0  0  0  0  0  0  0
   24.1359  -21.1244  -11.8454 N   0  0  0  0  0  0  0  0  0  0  0  0
   26.2727  -21.2681  -12.8518 C   0  0  0  0  0  0  0  0  0  0  0  0
   26.2031  -22.5134  -12.9807 O   0  0  0  0  0  0  0  0  0  0  0  0
   27.1053  -20.5510  -13.7371 N   0  0  0  0  0  0  0  0  0  0  0  0
   26.8497  -20.6406  -15.1715 C   0  0  1  0  0  0  0  0  0  0  0  0
   25.3879  -20.4216  -15.4682 C   0  0  0  0  0  0  0  0  0  0  0  0
   25.1333  -20.4341  -16.9086 C   0  0  0  0  0  0  0  0  0  0  0  0
   25.5343  -21.4182  -17.7927 C   0  0  0  0  0  0  0  0  0  0  0  0
   25.1165  -21.0405  -19.0068 N   0  0  0  0  0  0  0  0  0  0  0  0
   24.4768  -19.8702  -18.9152 C   0  0  0  0  0  0  0  0  0  0  0  0
   24.4756  -19.4784  -17.6308 N   0  0  0  0  0  0  0  0  0  0  0  0
   27.7553  -19.6907  -15.8388 C   0  0  0  0  0  0  0  0  0  0  0  0
   28.4392  -20.0610  -16.8173 O   0  0  0  0  0  0  0  0  0  0  0  0
   27.8743  -18.3830  -15.4127 O   0  0  0  0  0  0  0  0  0  0  0  0
  2 12  2  0
  2  1  1  0
  3  2  1  0
  4  5  1  0
  4  3  2  0
  5 11  2  0
  6  5  1  0
  6  7  1  0
  7  8  1  6
  9  7  1  0
  9 15  1  0
 10  9  2  0
 11 12  1  0
 14 13  1  1
 14 15  1  0
 14 16  1  0
 16 17  2  0
 16 18  1  0
 18 19  1  0
 19 26  1  0
 19 20  1  1
 21 20  1  0
 22 21  2  0
 23 24  1  0
 23 22  1  0
 24 25  2  0
 25 21  1  0
 26 27  2  0
 26 28  1  0
M  END
$$$$
