YAH.pdb
     RDKit          3D

 28 29  0  0  1  0  0  0  0  0999 V2000
   16.5901  -12.0139  -22.4217 O   0  0  0  0  0  0  0  0  0  0  0  0
   17.0081  -11.4615  -21.2182 C   0  0  0  0  0  0  0  0  0  0  0  0
   18.3293  -11.1112  -21.0186 C   0  0  0  0  0  0  0  0  0  0  0  0
   18.7234  -10.5715  -19.8354 C   0  0  0  0  0  0  0  0  0  0  0  0
   17.8303  -10.3542  -18.7975 C   0  0  0  0  0  0  0  0  0  0  0  0
   18.2853   -9.7620  -17.5111 C   0  0  0  0  0  0  0  0  0  0  0  0
   19.0776  -10.8066  -16.7603 C   0  0  2  0  0  0  0  0  0  0  0  0
   18.1499  -11.8503  -16.3138 N   0  0  0  0  0  0  0  0  0  0  0  0
   19.7296  -10.2707  -15.5587 C   0  0  0  0  0  0  0  0  0  0  0  0
   19.0823   -9.9029  -14.5196 O   0  0  0  0  0  0  0  0  0  0  0  0
   16.4961  -10.6968  -18.9703 C   0  0  0  0  0  0  0  0  0  0  0  0
   16.1188  -11.2446  -20.1836 C   0  0  0  0  0  0  0  0  0  0  0  0
   23.2207  -10.0766  -14.1362 C   0  0  0  0  0  0  0  0  0  0  0  0
   21.7871   -9.5786  -14.2834 C   0  0  2  0  0  0  0  0  0  0  0  0
   21.1535  -10.1158  -15.4533 N   0  0  0  0  0  0  0  0  0  0  0  0
   21.8723   -8.1042  -14.4354 C   0  0  0  0  0  0  0  0  0  0  0  0
   22.3267   -7.4288  -13.4816 O   0  0  0  0  0  0  0  0  0  0  0  0
   21.4665   -7.4225  -15.6023 N   0  0  0  0  0  0  0  0  0  0  0  0
   21.4722   -5.9627  -15.6024 C   0  0  1  0  0  0  0  0  0  0  0  0
   22.2120   -5.4317  -16.8039 C   0  0  0  0  0  0  0  0  0  0  0  0
   22.1094   -3.9748  -16.8863 C   0  0  0  0  0  0  0  0  0  0  0  0
   22.1028   -3.1022  -15.8143 C   0  0  0  0  0  0  0  0  0  0  0  0
   21.9789   -1.8694  -16.3203 N   0  0  0  0  0  0  0  0  0  0  0  0
   21.9086   -1.9386  -17.6535 C   0  0  0  0  0  0  0  0  0  0  0  0
   21.9871   -3.2271  -18.0235 N   0  0  0  0  0  0  0  0  0  0  0  0
   20.0720   -5.5184  -15.5044 C   0  0  0  0  0  0  0  0  0  0  0  0
   19.1456   -6.2968  -15.8177 O   0  0  0  0  0  0  0  0  0  0  0  0
   19.7439   -4.2499  -15.0693 O   0  0  0  0  0  0  0  0  0  0  0  0
  2 12  2  0
  2  1  1  0
  3  2  1  0
  4  5  1  0
  4  3  2  0
  5 11  2  0
  6  5  1  0
  6  7  1  0
  7  8  1  1
  9  7  1  0
  9 15  1  0
 10  9  2  0
 11 12  1  0
 14 13  1  6
 14 15  1  0
 14 16  1  0
 16 17  2  0
 16 18  1  0
 18 19  1  0
 19 26  1  0
 19 20  1  6
 21 20  1  0
 22 21  2  0
 23 24  1  0
 23 22  1  0
 24 25  2  0
 25 21  1  0
 26 27  2  0
 26 28  1  0
M  END
$$$$
