YAH.pdb
     RDKit          3D

 28 29  0  0  1  0  0  0  0  0999 V2000
   30.3226  -27.0080  -16.2661 O   0  0  0  0  0  0  0  0  0  0  0  0
   29.5320  -25.8675  -16.2187 C   0  0  0  0  0  0  0  0  0  0  0  0
   30.0933  -24.6224  -16.0116 C   0  0  0  0  0  0  0  0  0  0  0  0
   29.3066  -23.5153  -15.9677 C   0  0  0  0  0  0  0  0  0  0  0  0
   27.9314  -23.5890  -16.1263 C   0  0  0  0  0  0  0  0  0  0  0  0
   27.0907  -22.3629  -16.0743 C   0  0  0  0  0  0  0  0  0  0  0  0
   26.8273  -21.9063  -17.4902 C   0  0  2  0  0  0  0  0  0  0  0  0
   28.0406  -21.2553  -17.9936 N   0  0  0  0  0  0  0  0  0  0  0  0
   25.7441  -20.9187  -17.5769 C   0  0  0  0  0  0  0  0  0  0  0  0
   25.8946  -19.6893  -17.2606 O   0  0  0  0  0  0  0  0  0  0  0  0
   27.3401  -24.8274  -16.3359 C   0  0  0  0  0  0  0  0  0  0  0  0
   28.1615  -25.9401  -16.3767 C   0  0  0  0  0  0  0  0  0  0  0  0
   22.6023  -20.2762  -19.3444 C   0  0  0  0  0  0  0  0  0  0  0  0
   23.3383  -20.3155  -18.0096 C   0  0  2  0  0  0  0  0  0  0  0  0
   24.4222  -21.2556  -18.0259 N   0  0  0  0  0  0  0  0  0  0  0  0
   22.3467  -20.7655  -17.0006 C   0  0  0  0  0  0  0  0  0  0  0  0
   22.2105  -21.9960  -16.8016 O   0  0  0  0  0  0  0  0  0  0  0  0
   21.5473  -19.8758  -16.2518 N   0  0  0  0  0  0  0  0  0  0  0  0
   20.6649  -20.4183  -15.2232 C   0  0  1  0  0  0  0  0  0  0  0  0
   21.0990  -19.9632  -13.8530 C   0  0  0  0  0  0  0  0  0  0  0  0
   22.3976  -20.5329  -13.4937 C   0  0  0  0  0  0  0  0  0  0  0  0
   22.6573  -21.8700  -13.2582 C   0  0  0  0  0  0  0  0  0  0  0  0
   23.9557  -21.9624  -12.9466 N   0  0  0  0  0  0  0  0  0  0  0  0
   24.5104  -20.7464  -12.9783 C   0  0  0  0  0  0  0  0  0  0  0  0
   23.5678  -19.8506  -13.3134 N   0  0  0  0  0  0  0  0  0  0  0  0
   19.2880  -20.0404  -15.5823 C   0  0  0  0  0  0  0  0  0  0  0  0
   19.0797  -19.2978  -16.5659 O   0  0  0  0  0  0  0  0  0  0  0  0
   18.2021  -20.4881  -14.8569 O   0  0  0  0  0  0  0  0  0  0  0  0
  2 12  2  0
  2  1  1  0
  3  2  1  0
  4  5  1  0
  4  3  2  0
  5 11  2  0
  6  5  1  0
  6  7  1  0
  7  8  1  1
  9  7  1  0
  9 15  1  0
 10  9  2  0
 11 12  1  0
 14 13  1  6
 14 15  1  0
 14 16  1  0
 16 17  2  0
 16 18  1  0
 18 19  1  0
 19 26  1  0
 19 20  1  1
 21 20  1  0
 22 21  2  0
 23 24  1  0
 23 22  1  0
 24 25  2  0
 25 21  1  0
 26 27  2  0
 26 28  1  0
M  END
$$$$
