PYV.pdb
     RDKit          3D

 27 28  0  0  1  0  0  0  0  0999 V2000
   28.3639  -22.3415  -17.2690 N   0  0  0  0  0  0  0  0  0  0  0  0
   28.9174  -21.7587  -18.5012 C   0  0  0  0  0  0  0  0  0  0  0  0
   28.1620  -20.4778  -18.7301 C   0  0  0  0  0  0  0  0  0  0  0  0
   27.2703  -20.3417  -17.5074 C   0  0  0  0  0  0  0  0  0  0  0  0
   28.0779  -21.1689  -16.5023 C   0  0  1  0  0  0  0  0  0  0  0  0
   27.3180  -21.4300  -15.2707 C   0  0  0  0  0  0  0  0  0  0  0  0
   26.4929  -22.3795  -15.2827 O   0  0  0  0  0  0  0  0  0  0  0  0
   24.0018  -20.5370   -7.0400 O   0  0  0  0  0  0  0  0  0  0  0  0
   24.8056  -20.5046   -8.1939 C   0  0  0  0  0  0  0  0  0  0  0  0
   25.2668  -21.6609   -8.7756 C   0  0  0  0  0  0  0  0  0  0  0  0
   26.0550  -21.6112   -9.9085 C   0  0  0  0  0  0  0  0  0  0  0  0
   26.4018  -20.4151  -10.4873 C   0  0  0  0  0  0  0  0  0  0  0  0
   27.2515  -20.4216  -11.6966 C   0  0  0  0  0  0  0  0  0  0  0  0
   26.5494  -20.9147  -12.9226 C   0  0  2  0  0  0  0  0  0  0  0  0
   27.4427  -20.6943  -14.0690 N   0  0  0  0  0  0  0  0  0  0  0  0
   25.2318  -20.2650  -13.1664 C   0  0  0  0  0  0  0  0  0  0  0  0
   25.1968  -19.0749  -13.5741 O   0  0  0  0  0  0  0  0  0  0  0  0
   25.9477  -19.2517   -9.9160 C   0  0  0  0  0  0  0  0  0  0  0  0
   25.1559  -19.3084   -8.7776 C   0  0  0  0  0  0  0  0  0  0  0  0
   22.9362  -20.6646  -15.7489 C   0  0  0  0  0  0  0  0  0  0  0  0
   22.1141  -20.8504  -14.5190 C   0  0  1  0  0  0  0  0  0  0  0  0
   21.7568  -22.2966  -14.2949 C   0  0  0  0  0  0  0  0  0  0  0  0
   22.7636  -20.2695  -13.2829 C   0  0  2  0  0  0  0  0  0  0  0  0
   24.0013  -20.9258  -12.9604 N   0  0  0  0  0  0  0  0  0  0  0  0
   21.8630  -20.3826  -12.0987 C   0  0  0  0  0  0  0  0  0  0  0  0
   22.1282  -21.1877  -11.1447 O   0  0  0  0  0  0  0  0  0  0  0  0
   20.7126  -19.6162  -12.0014 O   0  0  0  0  0  0  0  0  0  0  0  0
  1  2  1  0
  3  2  1  0
  4  5  1  0
  4  3  1  0
  5  1  1  0
  5  6  1  1
  7  6  2  0
  8  9  1  0
  9 19  2  0
 10 11  2  0
 10  9  1  0
 11 12  1  0
 12 13  1  0
 12 18  2  0
 14 13  1  1
 14 15  1  0
 15  6  1  0
 16 14  1  0
 17 16  2  0
 19 18  1  0
 21 23  1  0
 21 20  1  6
 22 21  1  0
 23 25  1  0
 23 24  1  1
 24 16  1  0
 25 27  1  0
 26 25  2  0
M  END
$$$$
