PYV.pdb
     RDKit          3D

 27 28  0  0  1  0  0  0  0  0999 V2000
   27.8345  -21.7249  -15.5435 N   0  0  0  0  0  0  0  0  0  0  0  0
   28.6298  -21.6638  -16.7797 C   0  0  0  0  0  0  0  0  0  0  0  0
   28.4726  -20.2630  -17.3055 C   0  0  0  0  0  0  0  0  0  0  0  0
   27.6622  -19.5476  -16.2376 C   0  0  0  0  0  0  0  0  0  0  0  0
   28.0187  -20.4068  -15.0205 C   0  0  1  0  0  0  0  0  0  0  0  0
   27.1662  -20.0981  -13.8627 C   0  0  0  0  0  0  0  0  0  0  0  0
   27.2658  -18.9529  -13.3517 O   0  0  0  0  0  0  0  0  0  0  0  0
   22.0533  -18.1500  -17.2430 O   0  0  0  0  0  0  0  0  0  0  0  0
   22.5153  -18.8435  -16.1097 C   0  0  0  0  0  0  0  0  0  0  0  0
   23.1521  -20.0557  -16.2248 C   0  0  0  0  0  0  0  0  0  0  0  0
   23.5996  -20.7233  -15.1018 C   0  0  0  0  0  0  0  0  0  0  0  0
   23.4250  -20.2033  -13.8428 C   0  0  0  0  0  0  0  0  0  0  0  0
   23.9204  -20.9636  -12.6762 C   0  0  0  0  0  0  0  0  0  0  0  0
   25.2934  -20.5632  -12.2360 C   0  0  2  0  0  0  0  0  0  0  0  0
   26.2396  -20.9916  -13.2763 N   0  0  0  0  0  0  0  0  0  0  0  0
   25.6925  -21.1258  -10.9162 C   0  0  0  0  0  0  0  0  0  0  0  0
   26.0227  -22.3375  -10.8365 O   0  0  0  0  0  0  0  0  0  0  0  0
   22.7900  -18.9924  -13.7134 C   0  0  0  0  0  0  0  0  0  0  0  0
   22.3427  -18.3265  -14.8459 C   0  0  0  0  0  0  0  0  0  0  0  0
   28.3012  -20.0174   -8.2444 C   0  0  0  0  0  0  0  0  0  0  0  0
   26.9528  -20.1633   -7.6251 C   0  0  1  0  0  0  0  0  0  0  0  0
   26.3404  -18.8282   -7.2907 C   0  0  0  0  0  0  0  0  0  0  0  0
   26.0026  -20.9833   -8.4689 C   0  0  2  0  0  0  0  0  0  0  0  0
   25.7199  -20.3576   -9.7320 N   0  0  0  0  0  0  0  0  0  0  0  0
   24.7054  -21.1978   -7.7635 C   0  0  0  0  0  0  0  0  0  0  0  0
   23.6253  -20.6761   -8.1991 O   0  0  0  0  0  0  0  0  0  0  0  0
   24.6371  -21.9699   -6.6148 O   0  0  0  0  0  0  0  0  0  0  0  0
  1  2  1  0
  3  2  1  0
  4  5  1  0
  4  3  1  0
  5  1  1  0
  5  6  1  1
  7  6  2  0
  8  9  1  0
  9 19  2  0
 10 11  2  0
 10  9  1  0
 11 12  1  0
 12 13  1  0
 12 18  2  0
 14 13  1  6
 14 15  1  0
 15  6  1  0
 16 14  1  0
 17 16  2  0
 19 18  1  0
 21 23  1  0
 21 20  1  6
 22 21  1  0
 23 25  1  0
 23 24  1  6
 24 16  1  0
 25 27  1  0
 26 25  2  0
M  END
$$$$
