PYV.pdb
     RDKit          3D

 27 28  0  0  1  0  0  0  0  0999 V2000
   26.8126  -20.1886  -14.2905 N   0  0  0  0  0  0  0  0  0  0  0  0
   27.7188  -20.7034  -15.3289 C   0  0  0  0  0  0  0  0  0  0  0  0
   29.0462  -20.9157  -14.6532 C   0  0  0  0  0  0  0  0  0  0  0  0
   28.7780  -20.6089  -13.1893 C   0  0  0  0  0  0  0  0  0  0  0  0
   27.2737  -20.8931  -13.1347 C   0  0  1  0  0  0  0  0  0  0  0  0
   26.6738  -20.4315  -11.8740 C   0  0  0  0  0  0  0  0  0  0  0  0
   26.3499  -19.2188  -11.7897 O   0  0  0  0  0  0  0  0  0  0  0  0
   20.3696  -19.3849  -12.4282 O   0  0  0  0  0  0  0  0  0  0  0  0
   21.4199  -19.8641  -11.6244 C   0  0  0  0  0  0  0  0  0  0  0  0
   22.1387  -20.9800  -11.9792 C   0  0  0  0  0  0  0  0  0  0  0  0
   23.1669  -21.4371  -11.1785 C   0  0  0  0  0  0  0  0  0  0  0  0
   23.5031  -20.7976  -10.0106 C   0  0  0  0  0  0  0  0  0  0  0  0
   24.6098  -21.3337   -9.1907 C   0  0  0  0  0  0  0  0  0  0  0  0
   25.9333  -20.6963   -9.4758 C   0  0  2  0  0  0  0  0  0  0  0  0
   26.4314  -21.2475  -10.7443 N   0  0  0  0  0  0  0  0  0  0  0  0
   26.9429  -20.8934   -8.3990 C   0  0  0  0  0  0  0  0  0  0  0  0
   27.4955  -22.0166   -8.2695 O   0  0  0  0  0  0  0  0  0  0  0  0
   22.7926  -19.6808   -9.6441 C   0  0  0  0  0  0  0  0  0  0  0  0
   21.7606  -19.2266  -10.4531 C   0  0  0  0  0  0  0  0  0  0  0  0
   28.1319  -17.7768   -5.6226 C   0  0  0  0  0  0  0  0  0  0  0  0
   29.0417  -18.8646   -6.0830 C   0  0  1  0  0  0  0  0  0  0  0  0
   30.1001  -19.1831   -5.0593 C   0  0  0  0  0  0  0  0  0  0  0  0
   28.3017  -20.1208   -6.4853 C   0  0  2  0  0  0  0  0  0  0  0  0
   27.3175  -19.8691   -7.5025 N   0  0  0  0  0  0  0  0  0  0  0  0
   27.6057  -20.7326   -5.3159 C   0  0  0  0  0  0  0  0  0  0  0  0
   26.3318  -20.7447   -5.2407 O   0  0  0  0  0  0  0  0  0  0  0  0
   28.3234  -21.3053   -4.2779 O   0  0  0  0  0  0  0  0  0  0  0  0
  1  2  1  0
  3  2  1  0
  4  5  1  0
  4  3  1  0
  5  1  1  0
  5  6  1  1
  7  6  2  0
  8  9  1  0
  9 19  2  0
 10 11  2  0
 10  9  1  0
 11 12  1  0
 12 13  1  0
 12 18  2  0
 14 13  1  1
 14 15  1  0
 15  6  1  0
 16 14  1  0
 17 16  2  0
 19 18  1  0
 21 23  1  0
 21 20  1  1
 22 21  1  0
 23 25  1  0
 23 24  1  6
 24 16  1  0
 25 27  1  0
 26 25  2  0
M  END
$$$$
