PYV.pdb
     RDKit          3D

 27 28  0  0  1  0  0  0  0  0999 V2000
   24.7348  -11.2887  -15.7119 N   0  0  0  0  0  0  0  0  0  0  0  0
   25.6756  -12.3432  -16.1209 C   0  0  0  0  0  0  0  0  0  0  0  0
   25.0153  -13.0688  -17.2617 C   0  0  0  0  0  0  0  0  0  0  0  0
   23.7413  -12.2827  -17.5222 C   0  0  0  0  0  0  0  0  0  0  0  0
   24.1592  -10.9174  -16.9671 C   0  0  1  0  0  0  0  0  0  0  0  0
   23.0166   -9.9987  -16.8530 C   0  0  0  0  0  0  0  0  0  0  0  0
   22.4696   -9.6105  -17.9172 O   0  0  0  0  0  0  0  0  0  0  0  0
   17.8273  -13.6961  -17.6182 O   0  0  0  0  0  0  0  0  0  0  0  0
   18.4272  -12.6365  -16.9136 C   0  0  0  0  0  0  0  0  0  0  0  0
   18.1846  -11.3268  -17.2510 C   0  0  0  0  0  0  0  0  0  0  0  0
   18.7817  -10.2985  -16.5488 C   0  0  0  0  0  0  0  0  0  0  0  0
   19.6309  -10.5475  -15.4985 C   0  0  0  0  0  0  0  0  0  0  0  0
   20.2453   -9.4080  -14.7855 C   0  0  0  0  0  0  0  0  0  0  0  0
   21.2747   -8.6790  -15.5906 C   0  0  2  0  0  0  0  0  0  0  0  0
   22.4826   -9.5156  -15.6355 N   0  0  0  0  0  0  0  0  0  0  0  0
   21.6067   -7.3263  -15.0636 C   0  0  0  0  0  0  0  0  0  0  0  0
   22.2929   -7.2246  -14.0135 O   0  0  0  0  0  0  0  0  0  0  0  0
   19.8822  -11.8522  -15.1508 C   0  0  0  0  0  0  0  0  0  0  0  0
   19.2789  -12.8810  -15.8605 C   0  0  0  0  0  0  0  0  0  0  0  0
   23.4234   -4.5491  -16.8887 C   0  0  0  0  0  0  0  0  0  0  0  0
   22.1910   -3.9788  -16.2730 C   0  0  1  0  0  0  0  0  0  0  0  0
   21.1412   -3.6626  -17.3061 C   0  0  0  0  0  0  0  0  0  0  0  0
   21.6141   -4.8584  -15.1864 C   0  0  2  0  0  0  0  0  0  0  0  0
   21.1847   -6.1342  -15.6911 N   0  0  0  0  0  0  0  0  0  0  0  0
   20.4420   -4.2064  -14.5326 C   0  0  0  0  0  0  0  0  0  0  0  0
   20.5932   -3.1976  -13.7657 O   0  0  0  0  0  0  0  0  0  0  0  0
   19.1557   -4.6782  -14.7397 O   0  0  0  0  0  0  0  0  0  0  0  0
  1  2  1  0
  3  2  1  0
  4  5  1  0
  4  3  1  0
  5  1  1  0
  5  6  1  1
  7  6  2  0
  8  9  1  0
  9 19  2  0
 10 11  2  0
 10  9  1  0
 11 12  1  0
 12 13  1  0
 12 18  2  0
 14 13  1  1
 14 15  1  0
 15  6  1  0
 16 14  1  0
 17 16  2  0
 19 18  1  0
 21 23  1  0
 21 20  1  6
 22 21  1  0
 23 25  1  0
 23 24  1  6
 24 16  1  0
 25 27  1  0
 26 25  2  0
M  END
$$$$
