PYV.pdb
     RDKit          3D

 27 28  0  0  1  0  0  0  0  0999 V2000
   27.8305  -21.0631  -17.8984 N   0  0  0  0  0  0  0  0  0  0  0  0
   28.8787  -21.2619  -18.9114 C   0  0  0  0  0  0  0  0  0  0  0  0
   30.0463  -21.8735  -18.1858 C   0  0  0  0  0  0  0  0  0  0  0  0
   29.5347  -22.1037  -16.7737 C   0  0  0  0  0  0  0  0  0  0  0  0
   28.0315  -22.1989  -17.0532 C   0  0  1  0  0  0  0  0  0  0  0  0
   27.2403  -22.1699  -15.8140 C   0  0  0  0  0  0  0  0  0  0  0  0
   26.4637  -23.1347  -15.5931 O   0  0  0  0  0  0  0  0  0  0  0  0
   24.6709  -20.3739   -7.4963 O   0  0  0  0  0  0  0  0  0  0  0  0
   25.3235  -20.4203   -8.7417 C   0  0  0  0  0  0  0  0  0  0  0  0
   26.0601  -21.5163   -9.1214 C   0  0  0  0  0  0  0  0  0  0  0  0
   26.6944  -21.5456  -10.3477 C   0  0  0  0  0  0  0  0  0  0  0  0
   26.6114  -20.4896  -11.2219 C   0  0  0  0  0  0  0  0  0  0  0  0
   27.3144  -20.5739  -12.5193 C   0  0  0  0  0  0  0  0  0  0  0  0
   26.4972  -21.1968  -13.6071 C   0  0  2  0  0  0  0  0  0  0  0  0
   27.2842  -21.1383  -14.8473 N   0  0  0  0  0  0  0  0  0  0  0  0
   25.1705  -20.5519  -13.8103 C   0  0  0  0  0  0  0  0  0  0  0  0
   25.1098  -19.4319  -14.3811 O   0  0  0  0  0  0  0  0  0  0  0  0
   25.8784  -19.3878  -10.8548 C   0  0  0  0  0  0  0  0  0  0  0  0
   25.2433  -19.3647   -9.6211 C   0  0  0  0  0  0  0  0  0  0  0  0
   20.5053  -20.6817  -14.8382 C   0  0  0  0  0  0  0  0  0  0  0  0
   21.8723  -21.2517  -14.6663 C   0  0  1  0  0  0  0  0  0  0  0  0
   22.6051  -21.3604  -15.9780 C   0  0  0  0  0  0  0  0  0  0  0  0
   22.7049  -20.4919  -13.6580 C   0  0  2  0  0  0  0  0  0  0  0  0
   23.9589  -21.1416  -13.3891 N   0  0  0  0  0  0  0  0  0  0  0  0
   21.9785  -20.3442  -12.3630 C   0  0  0  0  0  0  0  0  0  0  0  0
   22.0364  -21.2527  -11.4687 O   0  0  0  0  0  0  0  0  0  0  0  0
   21.2203  -19.2157  -12.0949 O   0  0  0  0  0  0  0  0  0  0  0  0
  1  2  1  0
  3  2  1  0
  4  5  1  0
  4  3  1  0
  5  1  1  0
  5  6  1  1
  7  6  2  0
  8  9  1  0
  9 19  2  0
 10 11  2  0
 10  9  1  0
 11 12  1  0
 12 13  1  0
 12 18  2  0
 14 13  1  1
 14 15  1  0
 15  6  1  0
 16 14  1  0
 17 16  2  0
 19 18  1  0
 21 23  1  0
 21 20  1  6
 22 21  1  0
 23 25  1  0
 23 24  1  1
 24 16  1  0
 25 27  1  0
 26 25  2  0
M  END
$$$$
