PYV.pdb
     RDKit          3D

 27 28  0  0  1  0  0  0  0  0999 V2000
   26.8068  -32.8879  -16.7302 N   0  0  0  0  0  0  0  0  0  0  0  0
   28.0413  -32.3286  -17.3026 C   0  0  0  0  0  0  0  0  0  0  0  0
   27.8308  -30.8403  -17.3692 C   0  0  0  0  0  0  0  0  0  0  0  0
   26.4855  -30.6190  -16.6982 C   0  0  0  0  0  0  0  0  0  0  0  0
   26.4311  -31.8632  -15.8062 C   0  0  1  0  0  0  0  0  0  0  0  0
   25.1001  -32.0534  -15.2107 C   0  0  0  0  0  0  0  0  0  0  0  0
   24.4485  -33.0750  -15.5489 O   0  0  0  0  0  0  0  0  0  0  0  0
   26.5419  -32.5337   -8.3513 O   0  0  0  0  0  0  0  0  0  0  0  0
   25.7276  -32.5847   -9.4972 C   0  0  0  0  0  0  0  0  0  0  0  0
   24.4244  -32.1505   -9.4670 C   0  0  0  0  0  0  0  0  0  0  0  0
   23.6386  -32.2074  -10.6012 C   0  0  0  0  0  0  0  0  0  0  0  0
   24.1286  -32.6957  -11.7876 C   0  0  0  0  0  0  0  0  0  0  0  0
   23.2411  -32.7372  -12.9688 C   0  0  0  0  0  0  0  0  0  0  0  0
   23.1655  -31.4398  -13.7105 C   0  0  2  0  0  0  0  0  0  0  0  0
   24.4927  -31.1742  -14.2839 N   0  0  0  0  0  0  0  0  0  0  0  0
   22.7293  -30.2892  -12.8717 C   0  0  0  0  0  0  0  0  0  0  0  0
   23.5974  -29.5512  -12.3372 O   0  0  0  0  0  0  0  0  0  0  0  0
   25.4297  -33.1331  -11.8317 C   0  0  0  0  0  0  0  0  0  0  0  0
   26.2141  -33.0731  -10.6884 C   0  0  0  0  0  0  0  0  0  0  0  0
   20.6536  -27.3757  -13.9648 C   0  0  0  0  0  0  0  0  0  0  0  0
   20.0539  -27.9162  -12.7113 C   0  0  1  0  0  0  0  0  0  0  0  0
   18.7691  -28.6569  -12.9767 C   0  0  0  0  0  0  0  0  0  0  0  0
   21.0116  -28.7850  -11.9270 C   0  0  2  0  0  0  0  0  0  0  0  0
   21.3713  -29.9794  -12.6418 N   0  0  0  0  0  0  0  0  0  0  0  0
   20.4191  -29.1943  -10.6201 C   0  0  0  0  0  0  0  0  0  0  0  0
   20.0878  -30.4067  -10.3986 O   0  0  0  0  0  0  0  0  0  0  0  0
   20.2118  -28.2690   -9.6096 O   0  0  0  0  0  0  0  0  0  0  0  0
  1  2  1  0
  3  2  1  0
  4  5  1  0
  4  3  1  0
  5  1  1  0
  5  6  1  6
  7  6  2  0
  8  9  1  0
  9 19  2  0
 10 11  2  0
 10  9  1  0
 11 12  1  0
 12 13  1  0
 12 18  2  0
 14 13  1  1
 14 15  1  0
 15  6  1  0
 16 14  1  0
 17 16  2  0
 19 18  1  0
 21 23  1  0
 21 20  1  6
 22 21  1  0
 23 25  1  0
 23 24  1  6
 24 16  1  0
 25 27  1  0
 26 25  2  0
M  END
$$$$
