PYV.pdb
     RDKit          3D

 27 28  0  0  1  0  0  0  0  0999 V2000
   28.4833  -22.8789  -17.0210 N   0  0  0  0  0  0  0  0  0  0  0  0
   29.5243  -23.1032  -18.0361 C   0  0  0  0  0  0  0  0  0  0  0  0
   29.6641  -21.8036  -18.7812 C   0  0  0  0  0  0  0  0  0  0  0  0
   28.7442  -20.8448  -18.0441 C   0  0  0  0  0  0  0  0  0  0  0  0
   28.7201  -21.5140  -16.6663 C   0  0  1  0  0  0  0  0  0  0  0  0
   27.6880  -20.9351  -15.7934 C   0  0  0  0  0  0  0  0  0  0  0  0
   27.8571  -19.7554  -15.3903 O   0  0  0  0  0  0  0  0  0  0  0  0
   19.5659  -18.8708  -12.9863 O   0  0  0  0  0  0  0  0  0  0  0  0
   20.7125  -19.4054  -13.6014 C   0  0  0  0  0  0  0  0  0  0  0  0
   21.4775  -18.6544  -14.4609 C   0  0  0  0  0  0  0  0  0  0  0  0
   22.6003  -19.1948  -15.0564 C   0  0  0  0  0  0  0  0  0  0  0  0
   22.9871  -20.4896  -14.8120 C   0  0  0  0  0  0  0  0  0  0  0  0
   24.1952  -21.0169  -15.4805 C   0  0  0  0  0  0  0  0  0  0  0  0
   25.4369  -20.9083  -14.6524 C   0  0  2  0  0  0  0  0  0  0  0  0
   26.5154  -21.6033  -15.3699 N   0  0  0  0  0  0  0  0  0  0  0  0
   25.2958  -21.4616  -13.2771 C   0  0  0  0  0  0  0  0  0  0  0  0
   25.2159  -22.7074  -13.1184 O   0  0  0  0  0  0  0  0  0  0  0  0
   22.2313  -21.2514  -13.9549 C   0  0  0  0  0  0  0  0  0  0  0  0
   21.1042  -20.7024  -13.3597 C   0  0  0  0  0  0  0  0  0  0  0  0
   27.5817  -20.9632  -10.3554 C   0  0  0  0  0  0  0  0  0  0  0  0
   26.1926  -20.7278   -9.8674 C   0  0  1  0  0  0  0  0  0  0  0  0
   25.9476  -19.2762   -9.5475 C   0  0  0  0  0  0  0  0  0  0  0  0
   25.1380  -21.2435  -10.8208 C   0  0  2  0  0  0  0  0  0  0  0  0
   25.2464  -20.6476  -12.1246 N   0  0  0  0  0  0  0  0  0  0  0  0
   23.7655  -20.9684  -10.3042 C   0  0  0  0  0  0  0  0  0  0  0  0
   23.0004  -20.1274  -10.8838 O   0  0  0  0  0  0  0  0  0  0  0  0
   23.2827  -21.6188   -9.1799 O   0  0  0  0  0  0  0  0  0  0  0  0
  1  2  1  0
  3  2  1  0
  4  5  1  0
  4  3  1  0
  5  1  1  0
  5  6  1  1
  7  6  2  0
  8  9  1  0
  9 19  2  0
 10 11  2  0
 10  9  1  0
 11 12  1  0
 12 13  1  0
 12 18  2  0
 14 13  1  6
 14 15  1  0
 15  6  1  0
 16 14  1  0
 17 16  2  0
 19 18  1  0
 21 23  1  0
 21 20  1  6
 22 21  1  0
 23 25  1  0
 23 24  1  6
 24 16  1  0
 25 27  1  0
 26 25  2  0
M  END
$$$$
