PYV.pdb
     RDKit          3D

 27 28  0  0  1  0  0  0  0  0999 V2000
   27.1722  -19.2955  -14.6932 N   0  0  0  0  0  0  0  0  0  0  0  0
   28.5318  -19.2166  -15.2497 C   0  0  0  0  0  0  0  0  0  0  0  0
   29.3469  -20.2347  -14.4995 C   0  0  0  0  0  0  0  0  0  0  0  0
   28.3401  -20.9417  -13.6077 C   0  0  0  0  0  0  0  0  0  0  0  0
   27.0600  -20.6930  -14.4115 C   0  0  1  0  0  0  0  0  0  0  0  0
   25.8552  -21.0548  -13.6499 C   0  0  0  0  0  0  0  0  0  0  0  0
   25.5977  -22.2781  -13.5090 O   0  0  0  0  0  0  0  0  0  0  0  0
   27.8503  -20.8606   -7.2222 O   0  0  0  0  0  0  0  0  0  0  0  0
   26.8472  -20.5671   -8.1637 C   0  0  0  0  0  0  0  0  0  0  0  0
   25.5734  -21.0642   -8.0284 C   0  0  0  0  0  0  0  0  0  0  0  0
   24.6004  -20.7663   -8.9619 C   0  0  0  0  0  0  0  0  0  0  0  0
   24.8701  -19.9699  -10.0478 C   0  0  0  0  0  0  0  0  0  0  0  0
   23.7912  -19.6876  -11.0176 C   0  0  0  0  0  0  0  0  0  0  0  0
   23.8273  -20.5642  -12.2298 C   0  0  2  0  0  0  0  0  0  0  0  0
   24.9597  -20.1316  -13.0613 N   0  0  0  0  0  0  0  0  0  0  0  0
   22.5692  -20.5455  -13.0263 C   0  0  0  0  0  0  0  0  0  0  0  0
   22.3240  -19.5599  -13.7694 O   0  0  0  0  0  0  0  0  0  0  0  0
   26.1394  -19.4664  -10.1952 C   0  0  0  0  0  0  0  0  0  0  0  0
   27.1127  -19.7696   -9.2535 C   0  0  0  0  0  0  0  0  0  0  0  0
   19.1136  -22.7983  -15.5411 C   0  0  0  0  0  0  0  0  0  0  0  0
   20.3411  -22.7955  -14.6948 C   0  0  1  0  0  0  0  0  0  0  0  0
   21.5891  -22.9973  -15.5142 C   0  0  0  0  0  0  0  0  0  0  0  0
   20.4654  -21.5533  -13.8412 C   0  0  2  0  0  0  0  0  0  0  0  0
   21.6232  -21.5928  -12.9899 N   0  0  0  0  0  0  0  0  0  0  0  0
   19.2647  -21.3748  -12.9736 C   0  0  0  0  0  0  0  0  0  0  0  0
   19.2621  -21.7776  -11.7626 O   0  0  0  0  0  0  0  0  0  0  0  0
   18.1180  -20.7664  -13.4585 O   0  0  0  0  0  0  0  0  0  0  0  0
  1  2  1  0
  3  2  1  0
  4  5  1  0
  4  3  1  0
  5  1  1  0
  5  6  1  1
  7  6  2  0
  8  9  1  0
  9 19  2  0
 10 11  2  0
 10  9  1  0
 11 12  1  0
 12 13  1  0
 12 18  2  0
 14 13  1  1
 14 15  1  0
 15  6  1  0
 16 14  1  0
 17 16  2  0
 19 18  1  0
 21 23  1  0
 21 20  1  6
 22 21  1  0
 23 25  1  0
 23 24  1  1
 24 16  1  0
 25 27  1  0
 26 25  2  0
M  END
$$$$
