PYV.pdb
     RDKit          3D

 27 28  0  0  1  0  0  0  0  0999 V2000
   28.4485  -21.5644  -16.7720 N   0  0  0  0  0  0  0  0  0  0  0  0
   29.4380  -21.4594  -17.8556 C   0  0  0  0  0  0  0  0  0  0  0  0
   29.2063  -20.1200  -18.5007 C   0  0  0  0  0  0  0  0  0  0  0  0
   28.1367  -19.4670  -17.6414 C   0  0  0  0  0  0  0  0  0  0  0  0
   28.3730  -20.2091  -16.3223 C   0  0  1  0  0  0  0  0  0  0  0  0
   27.2963  -19.9599  -15.3522 C   0  0  0  0  0  0  0  0  0  0  0  0
   27.1487  -18.7835  -14.9316 O   0  0  0  0  0  0  0  0  0  0  0  0
   19.0901  -20.0971  -12.1775 O   0  0  0  0  0  0  0  0  0  0  0  0
   20.3121  -20.3595  -12.8230 C   0  0  0  0  0  0  0  0  0  0  0  0
   20.9666  -21.5558  -12.6538 C   0  0  0  0  0  0  0  0  0  0  0  0
   22.1656  -21.7972  -13.2951 C   0  0  0  0  0  0  0  0  0  0  0  0
   22.7398  -20.8582  -14.1166 C   0  0  0  0  0  0  0  0  0  0  0  0
   24.0265  -21.1690  -14.7738 C   0  0  0  0  0  0  0  0  0  0  0  0
   25.2155  -20.5926  -14.0716 C   0  0  2  0  0  0  0  0  0  0  0  0
   26.4102  -20.9430  -14.8532 N   0  0  0  0  0  0  0  0  0  0  0  0
   25.3689  -21.0553  -12.6645 C   0  0  0  0  0  0  0  0  0  0  0  0
   25.7344  -22.2386  -12.4406 O   0  0  0  0  0  0  0  0  0  0  0  0
   22.0961  -19.6581  -14.2944 C   0  0  0  0  0  0  0  0  0  0  0  0
   20.8915  -19.4217  -13.6471 C   0  0  0  0  0  0  0  0  0  0  0  0
   26.2028  -20.2828   -7.9371 C   0  0  0  0  0  0  0  0  0  0  0  0
   26.1579  -19.8531   -9.3642 C   0  0  1  0  0  0  0  0  0  0  0  0
   27.5357  -19.7557   -9.9655 C   0  0  0  0  0  0  0  0  0  0  0  0
   25.2709  -20.7328  -10.2166 C   0  0  2  0  0  0  0  0  0  0  0  0
   25.1216  -20.2220  -11.5521 N   0  0  0  0  0  0  0  0  0  0  0  0
   23.9092  -20.8618   -9.6206 C   0  0  0  0  0  0  0  0  0  0  0  0
   22.9319  -20.1659  -10.0554 O   0  0  0  0  0  0  0  0  0  0  0  0
   23.6673  -21.7415   -8.5775 O   0  0  0  0  0  0  0  0  0  0  0  0
  1  2  1  0
  3  2  1  0
  4  5  1  0
  4  3  1  0
  5  1  1  0
  5  6  1  1
  7  6  2  0
  8  9  1  0
  9 19  2  0
 10 11  2  0
 10  9  1  0
 11 12  1  0
 12 13  1  0
 12 18  2  0
 14 13  1  6
 14 15  1  0
 15  6  1  0
 16 14  1  0
 17 16  2  0
 19 18  1  0
 21 23  1  0
 21 20  1  1
 22 21  1  0
 23 25  1  0
 23 24  1  6
 24 16  1  0
 25 27  1  0
 26 25  2  0
M  END
$$$$
