PYV.pdb
     RDKit          3D

 27 28  0  0  1  0  0  0  0  0999 V2000
   31.0161  -21.3238  -10.7695 N   0  0  0  0  0  0  0  0  0  0  0  0
   32.3810  -21.8677  -10.8439 C   0  0  0  0  0  0  0  0  0  0  0  0
   32.6794  -22.4282   -9.4799 C   0  0  0  0  0  0  0  0  0  0  0  0
   31.3768  -22.2701   -8.7136 C   0  0  0  0  0  0  0  0  0  0  0  0
   30.3870  -22.2525   -9.8826 C   0  0  1  0  0  0  0  0  0  0  0  0
   29.0389  -21.8510   -9.4538 C   0  0  0  0  0  0  0  0  0  0  0  0
   28.3705  -22.6747   -8.7776 O   0  0  0  0  0  0  0  0  0  0  0  0
   28.6261  -20.4296   -2.9823 O   0  0  0  0  0  0  0  0  0  0  0  0
   28.2994  -20.0835   -4.3061 C   0  0  0  0  0  0  0  0  0  0  0  0
   27.1231  -20.4975   -4.8829 C   0  0  0  0  0  0  0  0  0  0  0  0
   26.8178  -20.1488   -6.1838 C   0  0  0  0  0  0  0  0  0  0  0  0
   27.6720  -19.3830   -6.9388 C   0  0  0  0  0  0  0  0  0  0  0  0
   27.2958  -19.0436   -8.3272 C   0  0  0  0  0  0  0  0  0  0  0  0
   27.1131  -20.2379   -9.2101 C   0  0  2  0  0  0  0  0  0  0  0  0
   28.4326  -20.6062   -9.7433 N   0  0  0  0  0  0  0  0  0  0  0  0
   26.1507  -20.0226  -10.3258 C   0  0  0  0  0  0  0  0  0  0  0  0
   26.2231  -18.9676  -11.0081 O   0  0  0  0  0  0  0  0  0  0  0  0
   28.8513  -18.9624   -6.3745 C   0  0  0  0  0  0  0  0  0  0  0  0
   29.1522  -19.3163   -5.0667 C   0  0  0  0  0  0  0  0  0  0  0  0
   25.9979  -21.5149  -13.4624 C   0  0  0  0  0  0  0  0  0  0  0  0
   24.6093  -21.6710  -12.9421 C   0  0  1  0  0  0  0  0  0  0  0  0
   24.3150  -23.0937  -12.5438 C   0  0  0  0  0  0  0  0  0  0  0  0
   24.2983  -20.7283  -11.8011 C   0  0  2  0  0  0  0  0  0  0  0  0
   25.1460  -20.9556  -10.6624 N   0  0  0  0  0  0  0  0  0  0  0  0
   22.8822  -20.8738  -11.3543 C   0  0  0  0  0  0  0  0  0  0  0  0
   22.6007  -21.3448  -10.2021 O   0  0  0  0  0  0  0  0  0  0  0  0
   21.8322  -20.5014  -12.1783 O   0  0  0  0  0  0  0  0  0  0  0  0
  1  2  1  0
  3  2  1  0
  4  5  1  0
  4  3  1  0
  5  1  1  0
  5  6  1  1
  7  6  2  0
  8  9  1  0
  9 19  2  0
 10 11  2  0
 10  9  1  0
 11 12  1  0
 12 13  1  0
 12 18  2  0
 14 13  1  6
 14 15  1  0
 15  6  1  0
 16 14  1  0
 17 16  2  0
 19 18  1  0
 21 23  1  0
 21 20  1  1
 22 21  1  0
 23 25  1  0
 23 24  1  1
 24 16  1  0
 25 27  1  0
 26 25  2  0
M  END
$$$$
