IPD.pdb
     RDKit          3D

 24 24  0  0  1  0  0  0  0  0999 V2000
   18.1134  -12.1375  -20.2390 C   0  0  0  0  0  0  0  0  0  0  0  0
   18.9996  -12.7414  -19.1393 C   0  0  0  0  0  0  0  0  0  0  0  0
   19.2717  -11.6478  -18.1628 C   0  0  2  0  0  0  0  0  0  0  0  0
   19.9956  -10.5255  -18.8214 C   0  0  0  0  0  0  0  0  0  0  0  0
   19.9041  -12.1272  -16.8760 C   0  0  2  0  0  0  0  0  0  0  0  0
   19.1584  -13.2319  -16.3659 N   0  0  0  0  0  0  0  0  0  0  0  0
   20.1721  -11.0591  -15.9036 C   0  0  0  0  0  0  0  0  0  0  0  0
   19.2096  -10.2956  -15.6204 O   0  0  0  0  0  0  0  0  0  0  0  0
   21.4345  -10.8319  -15.2664 N   0  0  0  0  0  0  0  0  0  0  0  0
   22.5203  -11.7837  -15.3585 C   0  0  0  0  0  0  0  0  0  0  0  0
   23.6051  -11.2785  -14.4382 C   0  0  0  0  0  0  0  0  0  0  0  0
   23.3544   -9.8062  -14.4623 C   0  0  0  0  0  0  0  0  0  0  0  0
   21.8450   -9.7363  -14.4771 C   0  0  1  0  0  0  0  0  0  0  0  0
   21.5080   -8.3985  -15.0346 C   0  0  0  0  0  0  0  0  0  0  0  0
   21.3322   -8.1716  -16.2564 O   0  0  0  0  0  0  0  0  0  0  0  0
   21.3742   -7.3068  -14.1472 N   0  0  0  0  0  0  0  0  0  0  0  0
   21.1248   -5.9499  -14.5571 C   0  0  1  0  0  0  0  0  0  0  0  0
   19.7481   -5.4606  -14.2234 C   0  0  0  0  0  0  0  0  0  0  0  0
   19.5022   -4.0692  -14.6366 C   0  0  0  0  0  0  0  0  0  0  0  0
   19.4778   -3.0762  -13.8788 O   0  0  0  0  0  0  0  0  0  0  0  0
   22.1066   -5.0270  -13.9294 C   0  0  0  0  0  0  0  0  0  0  0  0
   22.9388   -5.4076  -12.8879 O   0  0  0  0  0  0  0  0  0  0  0  0
   19.2768   -3.8354  -15.9891 O   0  0  0  0  0  0  0  0  0  0  0  0
   22.2076   -3.8437  -14.3416 O   0  0  0  0  0  0  0  0  0  0  0  0
  2  1  1  0
  3  2  1  0
  3  4  1  6
  5  7  1  0
  5  3  1  0
  5  6  1  1
  7  8  2  0
  9 13  1  0
  9  7  1  0
 10  9  1  0
 11 10  1  0
 11 12  1  0
 12 13  1  0
 14 15  2  0
 13 14  1  6
 16 14  1  0
 17 16  1  0
 17 21  1  0
 17 18  1  1
 19 20  2  0
 19 18  1  0
 21 22  1  0
 23 19  1  0
 24 21  2  0
M  END
$$$$
