IPD.pdb
     RDKit          3D

 24 24  0  0  1  0  0  0  0  0999 V2000
   21.5134  -13.6456  -20.7198 C   0  0  0  0  0  0  0  0  0  0  0  0
   22.4825  -13.9650  -19.5717 C   0  0  0  0  0  0  0  0  0  0  0  0
   22.5317  -12.7521  -18.7056 C   0  0  2  0  0  0  0  0  0  0  0  0
   23.1686  -11.6171  -19.4293 C   0  0  0  0  0  0  0  0  0  0  0  0
   23.1017  -13.0120  -17.3297 C   0  0  2  0  0  0  0  0  0  0  0  0
   22.4686  -14.1596  -16.7650 N   0  0  0  0  0  0  0  0  0  0  0  0
   23.1316  -11.8297  -16.4583 C   0  0  0  0  0  0  0  0  0  0  0  0
   22.0173  -11.3546  -16.1087 O   0  0  0  0  0  0  0  0  0  0  0  0
   24.3242  -11.1915  -15.9872 N   0  0  0  0  0  0  0  0  0  0  0  0
   25.6283  -11.7995  -16.1389 C   0  0  0  0  0  0  0  0  0  0  0  0
   26.5958  -10.9189  -15.3857 C   0  0  0  0  0  0  0  0  0  0  0  0
   25.9236   -9.5885  -15.4804 C   0  0  0  0  0  0  0  0  0  0  0  0
   24.4651   -9.9525  -15.3263 C   0  0  1  0  0  0  0  0  0  0  0  0
   23.7019   -8.8271  -15.9305 C   0  0  0  0  0  0  0  0  0  0  0  0
   23.3267   -8.7968  -17.1278 O   0  0  0  0  0  0  0  0  0  0  0  0
   23.3716   -7.7176  -15.1199 N   0  0  0  0  0  0  0  0  0  0  0  0
   22.5876   -6.5932  -15.5585 C   0  0  1  0  0  0  0  0  0  0  0  0
   21.2032   -6.9575  -16.0023 C   0  0  0  0  0  0  0  0  0  0  0  0
   20.3969   -5.8000  -16.4236 C   0  0  0  0  0  0  0  0  0  0  0  0
   20.4001   -5.2835  -17.5611 O   0  0  0  0  0  0  0  0  0  0  0  0
   22.4731   -5.5830  -14.4741 C   0  0  0  0  0  0  0  0  0  0  0  0
   22.9032   -5.8180  -13.1773 O   0  0  0  0  0  0  0  0  0  0  0  0
   19.5562   -5.2284  -15.4743 O   0  0  0  0  0  0  0  0  0  0  0  0
   21.9677   -4.4576  -14.7160 O   0  0  0  0  0  0  0  0  0  0  0  0
  2  1  1  0
  3  2  1  0
  3  4  1  6
  5  7  1  0
  5  3  1  0
  5  6  1  1
  7  8  2  0
  9 13  1  0
  9  7  1  0
 10  9  1  0
 11 10  1  0
 11 12  1  0
 12 13  1  0
 14 15  2  0
 13 14  1  6
 16 14  1  0
 17 16  1  0
 17 21  1  0
 17 18  1  1
 19 20  2  0
 19 18  1  0
 21 22  1  0
 23 19  1  0
 24 21  2  0
M  END
$$$$
