IPD.pdb
     RDKit          3D

 24 24  0  0  1  0  0  0  0  0999 V2000
   19.7424  -15.0238  -15.9935 C   0  0  0  0  0  0  0  0  0  0  0  0
   20.9238  -14.6078  -16.8826 C   0  0  0  0  0  0  0  0  0  0  0  0
   21.1280  -13.1469  -16.6640 C   0  0  2  0  0  0  0  0  0  0  0  0
   19.9015  -12.3859  -17.0306 C   0  0  0  0  0  0  0  0  0  0  0  0
   22.4002  -12.6131  -17.2821 C   0  0  2  0  0  0  0  0  0  0  0  0
   23.5094  -13.3829  -16.8196 N   0  0  0  0  0  0  0  0  0  0  0  0
   22.5628  -11.1580  -17.1610 C   0  0  0  0  0  0  0  0  0  0  0  0
   23.0397  -10.7291  -16.0756 O   0  0  0  0  0  0  0  0  0  0  0  0
   22.2207  -10.2100  -18.1787 N   0  0  0  0  0  0  0  0  0  0  0  0
   21.7698  -10.6240  -19.4896 C   0  0  0  0  0  0  0  0  0  0  0  0
   21.6680   -9.3666  -20.3188 C   0  0  0  0  0  0  0  0  0  0  0  0
   21.3853   -8.3408  -19.2707 C   0  0  0  0  0  0  0  0  0  0  0  0
   22.2581   -8.8002  -18.1259 C   0  0  1  0  0  0  0  0  0  0  0  0
   21.6650   -8.2009  -16.8999 C   0  0  0  0  0  0  0  0  0  0  0  0
   20.6435   -8.6482  -16.3240 O   0  0  0  0  0  0  0  0  0  0  0  0
   22.2776   -7.0582  -16.3376 N   0  0  0  0  0  0  0  0  0  0  0  0
   21.8121   -6.3837  -15.1545 C   0  0  1  0  0  0  0  0  0  0  0  0
   22.8776   -5.6065  -14.4426 C   0  0  0  0  0  0  0  0  0  0  0  0
   22.3850   -4.8793  -13.2611 C   0  0  0  0  0  0  0  0  0  0  0  0
   22.0754   -3.6694  -13.2254 O   0  0  0  0  0  0  0  0  0  0  0  0
   20.7055   -5.4491  -15.4888 C   0  0  0  0  0  0  0  0  0  0  0  0
   19.6749   -5.1567  -14.6089 O   0  0  0  0  0  0  0  0  0  0  0  0
   22.2511   -5.5992  -12.0785 O   0  0  0  0  0  0  0  0  0  0  0  0
   20.6783   -4.8854  -16.6121 O   0  0  0  0  0  0  0  0  0  0  0  0
  2  1  1  0
  3  2  1  0
  3  4  1  6
  5  7  1  0
  5  3  1  0
  5  6  1  1
  7  8  2  0
  9 13  1  0
  9  7  1  0
 10  9  1  0
 11 10  1  0
 11 12  1  0
 12 13  1  0
 14 15  2  0
 13 14  1  1
 16 14  1  0
 17 16  1  0
 17 21  1  0
 17 18  1  6
 19 20  2  0
 19 18  1  0
 21 22  1  0
 23 19  1  0
 24 21  2  0
M  END
$$$$
