IPD.pdb
     RDKit          3D

 24 24  0  0  1  0  0  0  0  0999 V2000
   27.4395  -11.1814  -15.8486 C   0  0  0  0  0  0  0  0  0  0  0  0
   26.1000  -11.8780  -16.1308 C   0  0  0  0  0  0  0  0  0  0  0  0
   25.0440  -10.8307  -16.0233 C   0  0  2  0  0  0  0  0  0  0  0  0
   25.0483  -10.2199  -14.6652 C   0  0  0  0  0  0  0  0  0  0  0  0
   23.6833  -11.2907  -16.4951 C   0  0  2  0  0  0  0  0  0  0  0  0
   23.8249  -12.0010  -17.7248 N   0  0  0  0  0  0  0  0  0  0  0  0
   22.6616  -10.2350  -16.5039 C   0  0  0  0  0  0  0  0  0  0  0  0
   22.9247   -9.1968  -17.1690 O   0  0  0  0  0  0  0  0  0  0  0  0
   21.4065  -10.3067  -15.8176 N   0  0  0  0  0  0  0  0  0  0  0  0
   20.9279  -11.5366  -15.2247 C   0  0  0  0  0  0  0  0  0  0  0  0
   19.5233  -11.2576  -14.7473 C   0  0  0  0  0  0  0  0  0  0  0  0
   19.5881   -9.7911  -14.4716 C   0  0  0  0  0  0  0  0  0  0  0  0
   20.4535   -9.2881  -15.6036 C   0  0  1  0  0  0  0  0  0  0  0  0
   21.0136   -7.9906  -15.1381 C   0  0  0  0  0  0  0  0  0  0  0  0
   22.1134   -7.8737  -14.5449 O   0  0  0  0  0  0  0  0  0  0  0  0
   20.2743   -6.8088  -15.3706 N   0  0  0  0  0  0  0  0  0  0  0  0
   20.6994   -5.4915  -14.9768 C   0  0  1  0  0  0  0  0  0  0  0  0
   21.6191   -4.8334  -15.9603 C   0  0  0  0  0  0  0  0  0  0  0  0
   22.0385   -3.4805  -15.5593 C   0  0  0  0  0  0  0  0  0  0  0  0
   22.8475   -3.2074  -14.6473 O   0  0  0  0  0  0  0  0  0  0  0  0
   19.5247   -4.6024  -14.7781 C   0  0  0  0  0  0  0  0  0  0  0  0
   19.5265   -3.5398  -13.8877 O   0  0  0  0  0  0  0  0  0  0  0  0
   21.4876   -2.4092  -16.2546 O   0  0  0  0  0  0  0  0  0  0  0  0
   18.4703   -4.8003  -15.4334 O   0  0  0  0  0  0  0  0  0  0  0  0
  2  1  1  0
  3  2  1  0
  3  4  1  1
  5  7  1  0
  5  3  1  0
  5  6  1  6
  7  8  2  0
  9 13  1  0
  9  7  1  0
 10  9  1  0
 11 10  1  0
 11 12  1  0
 12 13  1  0
 14 15  2  0
 13 14  1  1
 16 14  1  0
 17 16  1  0
 17 21  1  0
 17 18  1  6
 19 20  2  0
 19 18  1  0
 21 22  1  0
 23 19  1  0
 24 21  2  0
M  END
$$$$
