MWT.pdb
     RDKit          3D

 30 31  0  0  1  0  0  0  0  0999 V2000
    8.8043  -19.2265   19.0735 C   0  0  0  0  0  0  0  0  0  0  0  0
    7.1293  -18.9752   18.4246 S   0  0  0  0  0  0  0  0  0  0  0  0
    6.3202  -17.6791   19.4019 C   0  0  0  0  0  0  0  0  0  0  0  0
    7.3968  -16.8603   20.0407 C   0  0  0  0  0  0  0  0  0  0  0  0
    6.8231  -15.8364   21.0365 C   0  0  2  0  0  0  0  0  0  0  0  0
    6.6138  -14.6286   20.2709 N   0  0  0  0  0  0  0  0  0  0  0  0
    7.9155  -15.6254   22.0146 C   0  0  0  0  0  0  0  0  0  0  0  0
    8.8124  -14.7997   21.7040 O   0  0  0  0  0  0  0  0  0  0  0  0
    7.9510  -16.3215   23.2452 N   0  0  0  0  0  0  0  0  0  0  0  0
    9.0492  -16.1930   24.2122 C   0  0  1  0  0  0  0  0  0  0  0  0
    8.5268  -16.0092   25.5800 C   0  0  0  0  0  0  0  0  0  0  0  0
    7.5165  -14.9878   25.8083 C   0  0  0  0  0  0  0  0  0  0  0  0
    6.1494  -15.1553   25.8008 C   0  0  0  0  0  0  0  0  0  0  0  0
    5.5352  -13.9651   26.0245 N   0  0  0  0  0  0  0  0  0  0  0  0
    6.5009  -13.0392   26.1751 C   0  0  0  0  0  0  0  0  0  0  0  0
    6.4053  -11.6914   26.4316 C   0  0  0  0  0  0  0  0  0  0  0  0
    7.5506  -10.8988   26.5707 C   0  0  0  0  0  0  0  0  0  0  0  0
    8.7914  -11.4899   26.4464 C   0  0  0  0  0  0  0  0  0  0  0  0
    8.8647  -12.8326   26.1901 C   0  0  0  0  0  0  0  0  0  0  0  0
    7.7391  -13.6550   26.0446 C   0  0  0  0  0  0  0  0  0  0  0  0
   10.0805  -17.1958   23.9819 C   0  0  0  0  0  0  0  0  0  0  0  0
    9.9543  -18.4316   24.1547 O   0  0  0  0  0  0  0  0  0  0  0  0
   12.2717  -17.2186   20.7530 C   0  0  0  0  0  0  0  0  0  0  0  0
   13.1947  -17.3129   21.9726 C   0  0  1  0  0  0  0  0  0  0  0  0
   13.8398  -16.1014   22.1767 O   0  0  0  0  0  0  0  0  0  0  0  0
   12.3908  -17.7377   23.1831 C   0  0  2  0  0  0  0  0  0  0  0  0
   11.3682  -16.7768   23.5174 N   0  0  0  0  0  0  0  0  0  0  0  0
   13.4012  -17.8339   24.3014 C   0  0  0  0  0  0  0  0  0  0  0  0
   13.2851  -16.9854   25.3727 O   0  0  0  0  0  0  0  0  0  0  0  0
   14.3317  -18.6638   24.2685 O   0  0  0  0  0  0  0  0  0  0  0  0
  2  3  1  0
  2  1  1  0
  4  3  1  0
  5  4  1  0
  5  6  1  6
  7  8  2  0
  7  5  1  0
  9  7  1  0
 10  9  1  0
 10 11  1  1
 12 13  2  0
 12 11  1  0
 14 13  1  0
 15 20  2  0
 15 14  1  0
 16 15  1  0
 17 18  1  0
 17 16  2  0
 18 19  2  0
 19 20  1  0
 20 12  1  0
 21 10  1  0
 21 22  2  0
 24 23  1  6
 25 24  1  0
 26 27  1  1
 26 24  1  0
 27 21  1  0
 28 26  1  0
 29 28  1  0
 30 28  2  0
M  END
$$$$
