MWT.pdb
     RDKit          3D

 30 31  0  0  1  0  0  0  0  0999 V2000
    6.5168  -12.3850   18.5485 C   0  0  0  0  0  0  0  0  0  0  0  0
    8.0129  -12.7055   19.5225 S   0  0  0  0  0  0  0  0  0  0  0  0
    8.0948  -14.4803   19.8873 C   0  0  0  0  0  0  0  0  0  0  0  0
    9.2377  -14.6930   20.8286 C   0  0  0  0  0  0  0  0  0  0  0  0
    9.4135  -16.1790   21.1897 C   0  0  2  0  0  0  0  0  0  0  0  0
    8.1585  -16.8101   20.8497 N   0  0  0  0  0  0  0  0  0  0  0  0
    9.5913  -16.1796   22.6604 C   0  0  0  0  0  0  0  0  0  0  0  0
   10.5274  -15.4795   23.1256 O   0  0  0  0  0  0  0  0  0  0  0  0
    8.7467  -16.9344   23.5072 N   0  0  0  0  0  0  0  0  0  0  0  0
    8.9610  -17.0597   24.9550 C   0  0  1  0  0  0  0  0  0  0  0  0
    7.6958  -16.8757   25.6918 C   0  0  0  0  0  0  0  0  0  0  0  0
    7.0536  -15.5709   25.6581 C   0  0  0  0  0  0  0  0  0  0  0  0
    5.8108  -15.2696   25.1464 C   0  0  0  0  0  0  0  0  0  0  0  0
    5.5695  -13.9389   25.2682 N   0  0  0  0  0  0  0  0  0  0  0  0
    6.6494  -13.3888   25.8544 C   0  0  0  0  0  0  0  0  0  0  0  0
    6.8981  -12.0834   26.2085 C   0  0  0  0  0  0  0  0  0  0  0  0
    8.0968  -11.7195   26.8331 C   0  0  0  0  0  0  0  0  0  0  0  0
    9.0378  -12.6948   27.0930 C   0  0  0  0  0  0  0  0  0  0  0  0
    8.7711  -13.9879   26.7318 C   0  0  0  0  0  0  0  0  0  0  0  0
    7.5826  -14.3867   26.1050 C   0  0  0  0  0  0  0  0  0  0  0  0
    9.7984  -18.2091   25.2709 C   0  0  0  0  0  0  0  0  0  0  0  0
    9.6275  -19.3790   24.8525 O   0  0  0  0  0  0  0  0  0  0  0  0
   13.2399  -18.9647   24.5156 C   0  0  0  0  0  0  0  0  0  0  0  0
   13.1928  -18.9655   26.0473 C   0  0  1  0  0  0  0  0  0  0  0  0
   13.7535  -17.7965   26.5418 O   0  0  0  0  0  0  0  0  0  0  0  0
   11.7624  -19.1471   26.5088 C   0  0  2  0  0  0  0  0  0  0  0  0
   10.9274  -18.0324   26.1333 N   0  0  0  0  0  0  0  0  0  0  0  0
   11.8532  -19.2468   28.0130 C   0  0  0  0  0  0  0  0  0  0  0  0
   12.4637  -20.3427   28.5677 O   0  0  0  0  0  0  0  0  0  0  0  0
   11.3867  -18.3585   28.7537 O   0  0  0  0  0  0  0  0  0  0  0  0
  2  3  1  0
  2  1  1  0
  4  3  1  0
  5  4  1  0
  5  6  1  1
  7  8  2  0
  7  5  1  0
  9  7  1  0
 10  9  1  0
 10 11  1  1
 12 13  2  0
 12 11  1  0
 14 13  1  0
 15 20  2  0
 15 14  1  0
 16 15  1  0
 17 18  1  0
 17 16  2  0
 18 19  2  0
 19 20  1  0
 20 12  1  0
 21 10  1  0
 21 22  2  0
 24 23  1  6
 25 24  1  0
 26 27  1  1
 26 24  1  0
 27 21  1  0
 28 26  1  0
 29 28  1  0
 30 28  2  0
M  END
$$$$
