MWT.pdb
     RDKit          3D

 30 31  0  0  1  0  0  0  0  0999 V2000
   10.5462  -20.5005   18.9125 C   0  0  0  0  0  0  0  0  0  0  0  0
    9.8401  -19.4767   17.5922 S   0  0  0  0  0  0  0  0  0  0  0  0
    8.9240  -18.1076   18.3511 C   0  0  0  0  0  0  0  0  0  0  0  0
    9.7675  -17.5629   19.4599 C   0  0  0  0  0  0  0  0  0  0  0  0
    9.0513  -16.4339   20.2228 C   0  0  2  0  0  0  0  0  0  0  0  0
    8.9658  -15.3322   19.2914 N   0  0  0  0  0  0  0  0  0  0  0  0
    9.9817  -16.0881   21.3226 C   0  0  0  0  0  0  0  0  0  0  0  0
   11.1751  -16.4686   21.2057 O   0  0  0  0  0  0  0  0  0  0  0  0
    9.5491  -15.3617   22.4563 N   0  0  0  0  0  0  0  0  0  0  0  0
    9.3734  -15.9679   23.7827 C   0  0  1  0  0  0  0  0  0  0  0  0
    7.9500  -15.9790   24.1716 C   0  0  0  0  0  0  0  0  0  0  0  0
    7.2443  -14.7105   24.2678 C   0  0  0  0  0  0  0  0  0  0  0  0
    6.3771  -14.1701   23.3441 C   0  0  0  0  0  0  0  0  0  0  0  0
    5.9403  -12.9578   23.7722 N   0  0  0  0  0  0  0  0  0  0  0  0
    6.5222  -12.7208   24.9628 C   0  0  0  0  0  0  0  0  0  0  0  0
    6.4006  -11.6453   25.8112 C   0  0  0  0  0  0  0  0  0  0  0  0
    7.0905  -11.6029   27.0284 C   0  0  0  0  0  0  0  0  0  0  0  0
    7.9037  -12.6633   27.3729 C   0  0  0  0  0  0  0  0  0  0  0  0
    8.0116  -13.7237   26.5141 C   0  0  0  0  0  0  0  0  0  0  0  0
    7.3360  -13.7985   25.2883 C   0  0  0  0  0  0  0  0  0  0  0  0
   10.1480  -17.1947   23.9134 C   0  0  0  0  0  0  0  0  0  0  0  0
    9.8341  -18.3145   23.4439 O   0  0  0  0  0  0  0  0  0  0  0  0
   13.8009  -18.3242   23.3446 C   0  0  0  0  0  0  0  0  0  0  0  0
   13.5153  -18.3567   24.8498 C   0  0  1  0  0  0  0  0  0  0  0  0
   14.1190  -17.2735   25.4727 O   0  0  0  0  0  0  0  0  0  0  0  0
   12.0192  -18.3810   25.0799 C   0  0  2  0  0  0  0  0  0  0  0  0
   11.3839  -17.1646   24.6354 N   0  0  0  0  0  0  0  0  0  0  0  0
   11.8622  -18.5350   26.5740 C   0  0  0  0  0  0  0  0  0  0  0  0
   12.3478  -19.6671   27.1771 O   0  0  0  0  0  0  0  0  0  0  0  0
   11.3034  -17.6588   27.2637 O   0  0  0  0  0  0  0  0  0  0  0  0
  2  3  1  0
  2  1  1  0
  4  3  1  0
  5  4  1  0
  5  6  1  6
  7  8  2  0
  7  5  1  0
  9  7  1  0
 10  9  1  0
 10 11  1  6
 12 13  2  0
 12 11  1  0
 14 13  1  0
 15 20  2  0
 15 14  1  0
 16 15  1  0
 17 18  1  0
 17 16  2  0
 18 19  2  0
 19 20  1  0
 20 12  1  0
 21 10  1  0
 21 22  2  0
 24 23  1  6
 25 24  1  0
 26 27  1  1
 26 24  1  0
 27 21  1  0
 28 26  1  0
 29 28  1  0
 30 28  2  0
M  END
$$$$
