MWT.pdb
     RDKit          3D

 30 31  0  0  1  0  0  0  0  0999 V2000
   10.3634  -22.2354   17.2343 C   0  0  0  0  0  0  0  0  0  0  0  0
   10.5256  -21.1705   18.6936 S   0  0  0  0  0  0  0  0  0  0  0  0
   10.1204  -19.4689   18.2141 C   0  0  0  0  0  0  0  0  0  0  0  0
   10.1403  -18.6354   19.4561 C   0  0  0  0  0  0  0  0  0  0  0  0
    9.6460  -17.2019   19.1919 C   0  0  2  0  0  0  0  0  0  0  0  0
   10.6369  -16.6051   18.3256 N   0  0  0  0  0  0  0  0  0  0  0  0
    9.6865  -16.5500   20.5216 C   0  0  0  0  0  0  0  0  0  0  0  0
   10.8149  -16.2030   20.9565 O   0  0  0  0  0  0  0  0  0  0  0  0
    8.5088  -16.3267   21.2721 N   0  0  0  0  0  0  0  0  0  0  0  0
    8.5167  -15.8441   22.6594 C   0  0  1  0  0  0  0  0  0  0  0  0
    7.2264  -15.2175   23.0057 C   0  0  0  0  0  0  0  0  0  0  0  0
    6.9890  -14.8297   24.3875 C   0  0  0  0  0  0  0  0  0  0  0  0
    6.4599  -15.6114   25.3906 C   0  0  0  0  0  0  0  0  0  0  0  0
    6.3631  -14.8911   26.5376 N   0  0  0  0  0  0  0  0  0  0  0  0
    6.8273  -13.6552   26.2737 C   0  0  0  0  0  0  0  0  0  0  0  0
    6.9537  -12.5607   27.0967 C   0  0  0  0  0  0  0  0  0  0  0  0
    7.4842  -11.3558   26.6211 C   0  0  0  0  0  0  0  0  0  0  0  0
    7.8836  -11.2758   25.3027 C   0  0  0  0  0  0  0  0  0  0  0  0
    7.7484  -12.3764   24.4999 C   0  0  0  0  0  0  0  0  0  0  0  0
    7.2213  -13.5972   24.9430 C   0  0  0  0  0  0  0  0  0  0  0  0
    9.0823  -16.8360   23.5641 C   0  0  0  0  0  0  0  0  0  0  0  0
    8.6798  -18.0155   23.7045 O   0  0  0  0  0  0  0  0  0  0  0  0
   12.9675  -18.4200   26.0780 C   0  0  0  0  0  0  0  0  0  0  0  0
   12.3477  -17.3723   25.1472 C   0  0  1  0  0  0  0  0  0  0  0  0
   12.7944  -17.5658   23.8477 O   0  0  0  0  0  0  0  0  0  0  0  0
   10.8384  -17.4405   25.2435 C   0  0  2  0  0  0  0  0  0  0  0  0
   10.1976  -16.4741   24.3854 N   0  0  0  0  0  0  0  0  0  0  0  0
   10.5311  -17.1372   26.6906 C   0  0  0  0  0  0  0  0  0  0  0  0
    9.8944  -15.9623   26.9996 O   0  0  0  0  0  0  0  0  0  0  0  0
   10.8436  -17.9289   27.6023 O   0  0  0  0  0  0  0  0  0  0  0  0
  2  3  1  0
  2  1  1  0
  4  3  1  0
  5  4  1  0
  5  6  1  6
  7  8  2  0
  7  5  1  0
  9  7  1  0
 10  9  1  0
 10 11  1  1
 12 13  2  0
 12 11  1  0
 14 13  1  0
 15 20  2  0
 15 14  1  0
 16 15  1  0
 17 18  1  0
 17 16  2  0
 18 19  2  0
 19 20  1  0
 20 12  1  0
 21 10  1  0
 21 22  2  0
 24 23  1  1
 25 24  1  0
 26 27  1  6
 26 24  1  0
 27 21  1  0
 28 26  1  0
 29 28  1  0
 30 28  2  0
M  END
$$$$
