MWT.pdb
     RDKit          3D

 30 31  0  0  1  0  0  0  0  0999 V2000
   10.8250  -21.6590   20.0051 C   0  0  0  0  0  0  0  0  0  0  0  0
   11.3125  -20.9782   18.3962 S   0  0  0  0  0  0  0  0  0  0  0  0
   10.2843  -19.5250   18.0490 C   0  0  0  0  0  0  0  0  0  0  0  0
   10.1912  -18.7287   19.3118 C   0  0  0  0  0  0  0  0  0  0  0  0
    9.1969  -17.5611   19.1807 C   0  0  2  0  0  0  0  0  0  0  0  0
    9.7326  -16.7124   18.1407 N   0  0  0  0  0  0  0  0  0  0  0  0
    9.2768  -16.8641   20.4856 C   0  0  0  0  0  0  0  0  0  0  0  0
   10.3542  -16.2733   20.7556 O   0  0  0  0  0  0  0  0  0  0  0  0
    8.1901  -16.8620   21.3907 N   0  0  0  0  0  0  0  0  0  0  0  0
    8.2678  -16.2905   22.7416 C   0  0  1  0  0  0  0  0  0  0  0  0
    6.9616  -15.7440   23.1574 C   0  0  0  0  0  0  0  0  0  0  0  0
    6.8196  -15.2333   24.5120 C   0  0  0  0  0  0  0  0  0  0  0  0
    6.3153  -15.9041   25.6042 C   0  0  0  0  0  0  0  0  0  0  0  0
    6.3145  -15.0883   26.6896 N   0  0  0  0  0  0  0  0  0  0  0  0
    6.8152  -13.9016   26.2980 C   0  0  0  0  0  0  0  0  0  0  0  0
    7.0346  -12.7504   27.0177 C   0  0  0  0  0  0  0  0  0  0  0  0
    7.5882  -11.6150   26.4145 C   0  0  0  0  0  0  0  0  0  0  0  0
    7.9153  -11.6625   25.0747 C   0  0  0  0  0  0  0  0  0  0  0  0
    7.6881  -12.8176   24.3762 C   0  0  0  0  0  0  0  0  0  0  0  0
    7.1354  -13.9716   24.9482 C   0  0  0  0  0  0  0  0  0  0  0  0
    8.9827  -17.1744   23.6525 C   0  0  0  0  0  0  0  0  0  0  0  0
    8.6692  -18.3580   23.9239 O   0  0  0  0  0  0  0  0  0  0  0  0
   12.5120  -18.2202   23.3083 C   0  0  0  0  0  0  0  0  0  0  0  0
   12.4085  -17.5725   24.6933 C   0  0  1  0  0  0  0  0  0  0  0  0
   12.9551  -16.2974   24.6649 O   0  0  0  0  0  0  0  0  0  0  0  0
   10.9614  -17.5588   25.1379 C   0  0  2  0  0  0  0  0  0  0  0  0
   10.1525  -16.6887   24.3197 N   0  0  0  0  0  0  0  0  0  0  0  0
   11.0005  -17.0499   26.5592 C   0  0  0  0  0  0  0  0  0  0  0  0
   10.4234  -15.8387   26.8444 O   0  0  0  0  0  0  0  0  0  0  0  0
   11.5437  -17.7053   27.4708 O   0  0  0  0  0  0  0  0  0  0  0  0
  2  3  1  0
  2  1  1  0
  4  3  1  0
  5  4  1  0
  5  6  1  6
  7  8  2  0
  7  5  1  0
  9  7  1  0
 10  9  1  0
 10 11  1  1
 12 13  2  0
 12 11  1  0
 14 13  1  0
 15 20  2  0
 15 14  1  0
 16 15  1  0
 17 18  1  0
 17 16  2  0
 18 19  2  0
 19 20  1  0
 20 12  1  0
 21 10  1  0
 21 22  2  0
 24 23  1  6
 25 24  1  0
 26 27  1  6
 26 24  1  0
 27 21  1  0
 28 26  1  0
 29 28  1  0
 30 28  2  0
M  END
$$$$
