MWT.pdb
     RDKit          3D

 30 31  0  0  1  0  0  0  0  0999 V2000
    7.5477  -11.3606   18.6405 C   0  0  0  0  0  0  0  0  0  0  0  0
    8.3009  -12.9952   18.8659 S   0  0  0  0  0  0  0  0  0  0  0  0
    7.3163  -13.9226   20.0743 C   0  0  0  0  0  0  0  0  0  0  0  0
    8.0292  -15.2103   20.3409 C   0  0  0  0  0  0  0  0  0  0  0  0
    7.2614  -16.0937   21.3405 C   0  0  2  0  0  0  0  0  0  0  0  0
    5.9831  -15.4455   21.5263 N   0  0  0  0  0  0  0  0  0  0  0  0
    8.0530  -16.0058   22.5897 C   0  0  0  0  0  0  0  0  0  0  0  0
    8.7020  -14.9458   22.7843 O   0  0  0  0  0  0  0  0  0  0  0  0
    8.0799  -17.0666   23.5245 N   0  0  0  0  0  0  0  0  0  0  0  0
    8.9320  -17.0649   24.7210 C   0  0  1  0  0  0  0  0  0  0  0  0
    8.1294  -16.8360   25.9380 C   0  0  0  0  0  0  0  0  0  0  0  0
    7.3216  -15.6292   26.0228 C   0  0  0  0  0  0  0  0  0  0  0  0
    5.9645  -15.5215   25.8133 C   0  0  0  0  0  0  0  0  0  0  0  0
    5.5751  -14.2283   25.9530 N   0  0  0  0  0  0  0  0  0  0  0  0
    6.6740  -13.5098   26.2507 C   0  0  0  0  0  0  0  0  0  0  0  0
    6.8137  -12.1646   26.5002 C   0  0  0  0  0  0  0  0  0  0  0  0
    8.0618  -11.6128   26.8119 C   0  0  0  0  0  0  0  0  0  0  0  0
    9.1638  -12.4415   26.8668 C   0  0  0  0  0  0  0  0  0  0  0  0
    9.0035  -13.7773   26.6143 C   0  0  0  0  0  0  0  0  0  0  0  0
    7.7695  -14.3624   26.2990 C   0  0  0  0  0  0  0  0  0  0  0  0
    9.8792  -18.1716   24.7007 C   0  0  0  0  0  0  0  0  0  0  0  0
    9.5841  -19.3895   24.6500 O   0  0  0  0  0  0  0  0  0  0  0  0
   12.8223  -18.4529   22.2738 C   0  0  0  0  0  0  0  0  0  0  0  0
   13.3825  -18.5943   23.6931 C   0  0  1  0  0  0  0  0  0  0  0  0
   14.0356  -17.4281   24.0658 O   0  0  0  0  0  0  0  0  0  0  0  0
   12.2601  -18.9446   24.6468 C   0  0  2  0  0  0  0  0  0  0  0  0
   11.2819  -17.8887   24.7419 N   0  0  0  0  0  0  0  0  0  0  0  0
   12.9382  -19.1485   25.9807 C   0  0  0  0  0  0  0  0  0  0  0  0
   13.7265  -20.2566   26.1596 O   0  0  0  0  0  0  0  0  0  0  0  0
   12.7954  -18.3346   26.9149 O   0  0  0  0  0  0  0  0  0  0  0  0
  2  3  1  0
  2  1  1  0
  4  3  1  0
  5  4  1  0
  5  6  1  1
  7  8  2  0
  7  5  1  0
  9  7  1  0
 10  9  1  0
 10 11  1  1
 12 13  2  0
 12 11  1  0
 14 13  1  0
 15 20  2  0
 15 14  1  0
 16 15  1  0
 17 18  1  0
 17 16  2  0
 18 19  2  0
 19 20  1  0
 20 12  1  0
 21 10  1  0
 21 22  2  0
 24 23  1  6
 25 24  1  0
 26 27  1  1
 26 24  1  0
 27 21  1  0
 28 26  1  0
 29 28  1  0
 30 28  2  0
M  END
$$$$
