MWT.pdb
     RDKit          3D

 30 31  0  0  1  0  0  0  0  0999 V2000
    8.3957  -11.6785   19.5606 C   0  0  0  0  0  0  0  0  0  0  0  0
    7.4666  -12.8216   18.5022 S   0  0  0  0  0  0  0  0  0  0  0  0
    6.9722  -14.2558   19.4964 C   0  0  0  0  0  0  0  0  0  0  0  0
    8.2119  -14.8267   20.1086 C   0  0  0  0  0  0  0  0  0  0  0  0
    7.9128  -16.0894   20.9364 C   0  0  2  0  0  0  0  0  0  0  0  0
    6.5034  -16.0214   21.2490 N   0  0  0  0  0  0  0  0  0  0  0  0
    8.7085  -15.9130   22.1735 C   0  0  0  0  0  0  0  0  0  0  0  0
    9.5119  -14.9455   22.2059 O   0  0  0  0  0  0  0  0  0  0  0  0
    8.5729  -16.7934   23.2719 N   0  0  0  0  0  0  0  0  0  0  0  0
    9.4689  -16.7736   24.4358 C   0  0  1  0  0  0  0  0  0  0  0  0
    8.6985  -16.6806   25.6910 C   0  0  0  0  0  0  0  0  0  0  0  0
    7.6531  -15.6743   25.7937 C   0  0  0  0  0  0  0  0  0  0  0  0
    6.3061  -15.8494   25.5650 C   0  0  0  0  0  0  0  0  0  0  0  0
    5.6507  -14.6720   25.7315 N   0  0  0  0  0  0  0  0  0  0  0  0
    6.5698  -13.7466   26.0653 C   0  0  0  0  0  0  0  0  0  0  0  0
    6.4195  -12.4099   26.3515 C   0  0  0  0  0  0  0  0  0  0  0  0
    7.5194  -11.6163   26.6975 C   0  0  0  0  0  0  0  0  0  0  0  0
    8.7711  -12.1951   26.7490 C   0  0  0  0  0  0  0  0  0  0  0  0
    8.8993  -13.5269   26.4598 C   0  0  0  0  0  0  0  0  0  0  0  0
    7.8202  -14.3499   26.1095 C   0  0  0  0  0  0  0  0  0  0  0  0
   10.5099  -17.7863   24.3226 C   0  0  0  0  0  0  0  0  0  0  0  0
   10.3294  -18.9974   24.0514 O   0  0  0  0  0  0  0  0  0  0  0  0
   15.2625  -18.7625   23.5259 C   0  0  0  0  0  0  0  0  0  0  0  0
   14.1546  -17.7160   23.6858 C   0  0  1  0  0  0  0  0  0  0  0  0
   13.8416  -17.1615   22.4529 O   0  0  0  0  0  0  0  0  0  0  0  0
   12.9487  -18.3529   24.3431 C   0  0  2  0  0  0  0  0  0  0  0  0
   11.8747  -17.4088   24.5330 N   0  0  0  0  0  0  0  0  0  0  0  0
   13.4533  -18.8438   25.6792 C   0  0  0  0  0  0  0  0  0  0  0  0
   14.2693  -19.9458   25.7139 O   0  0  0  0  0  0  0  0  0  0  0  0
   13.1438  -18.2705   26.7427 O   0  0  0  0  0  0  0  0  0  0  0  0
  2  3  1  0
  2  1  1  0
  4  3  1  0
  5  4  1  0
  5  6  1  1
  7  8  2  0
  7  5  1  0
  9  7  1  0
 10  9  1  0
 10 11  1  1
 12 13  2  0
 12 11  1  0
 14 13  1  0
 15 20  2  0
 15 14  1  0
 16 15  1  0
 17 18  1  0
 17 16  2  0
 18 19  2  0
 19 20  1  0
 20 12  1  0
 21 10  1  0
 21 22  2  0
 24 23  1  6
 25 24  1  0
 26 27  1  1
 26 24  1  0
 27 21  1  0
 28 26  1  0
 29 28  1  0
 30 28  2  0
M  END
$$$$
