MWT.pdb
     RDKit          3D

 30 31  0  0  1  0  0  0  0  0999 V2000
    7.7602  -22.2979   17.5210 C   0  0  0  0  0  0  0  0  0  0  0  0
    7.8714  -21.3636   19.0716 S   0  0  0  0  0  0  0  0  0  0  0  0
    8.3099  -19.6476   18.6812 C   0  0  0  0  0  0  0  0  0  0  0  0
    8.4574  -18.9157   19.9774 C   0  0  0  0  0  0  0  0  0  0  0  0
    8.7069  -17.4123   19.7611 C   0  0  2  0  0  0  0  0  0  0  0  0
    9.7472  -17.3333   18.7610 N   0  0  0  0  0  0  0  0  0  0  0  0
    9.2283  -16.9368   21.0637 C   0  0  0  0  0  0  0  0  0  0  0  0
   10.4354  -17.1797   21.3219 O   0  0  0  0  0  0  0  0  0  0  0  0
    8.4062  -16.2399   21.9796 N   0  0  0  0  0  0  0  0  0  0  0  0
    8.8887  -15.7325   23.2709 C   0  0  1  0  0  0  0  0  0  0  0  0
    8.1936  -14.4838   23.6382 C   0  0  0  0  0  0  0  0  0  0  0  0
    8.3704  -13.9579   24.9830 C   0  0  0  0  0  0  0  0  0  0  0  0
    9.4016  -14.2329   25.8536 C   0  0  0  0  0  0  0  0  0  0  0  0
    9.2049  -13.5784   27.0269 N   0  0  0  0  0  0  0  0  0  0  0  0
    8.0555  -12.8871   26.9110 C   0  0  0  0  0  0  0  0  0  0  0  0
    7.4240  -12.0589   27.8092 C   0  0  0  0  0  0  0  0  0  0  0  0
    6.2265  -11.4135   27.4794 C   0  0  0  0  0  0  0  0  0  0  0  0
    5.6790  -11.6190   26.2294 C   0  0  0  0  0  0  0  0  0  0  0  0
    6.3228  -12.4478   25.3505 C   0  0  0  0  0  0  0  0  0  0  0  0
    7.5220  -13.1096   25.6480 C   0  0  0  0  0  0  0  0  0  0  0  0
    8.9873  -16.7994   24.2580 C   0  0  0  0  0  0  0  0  0  0  0  0
    8.0360  -17.4996   24.6795 O   0  0  0  0  0  0  0  0  0  0  0  0
   11.2217  -19.8245   23.9455 C   0  0  0  0  0  0  0  0  0  0  0  0
   11.5880  -19.1263   25.2595 C   0  0  1  0  0  0  0  0  0  0  0  0
   12.7663  -18.4098   25.1059 O   0  0  0  0  0  0  0  0  0  0  0  0
   10.4404  -18.2421   25.6989 C   0  0  2  0  0  0  0  0  0  0  0  0
   10.2653  -17.1087   24.8240 N   0  0  0  0  0  0  0  0  0  0  0  0
   10.8216  -17.7771   27.0843 C   0  0  0  0  0  0  0  0  0  0  0  0
   10.8303  -18.6887   28.1091 O   0  0  0  0  0  0  0  0  0  0  0  0
   11.1258  -16.5891   27.3116 O   0  0  0  0  0  0  0  0  0  0  0  0
  2  3  1  0
  2  1  1  0
  4  3  1  0
  5  4  1  0
  5  6  1  6
  7  8  2  0
  7  5  1  0
  9  7  1  0
 10  9  1  0
 10 11  1  1
 12 13  2  0
 12 11  1  0
 14 13  1  0
 15 20  2  0
 15 14  1  0
 16 15  1  0
 17 18  1  0
 17 16  2  0
 18 19  2  0
 19 20  1  0
 20 12  1  0
 21 10  1  0
 21 22  2  0
 24 23  1  6
 25 24  1  0
 26 27  1  6
 26 24  1  0
 27 21  1  0
 28 26  1  0
 29 28  1  0
 30 28  2  0
M  END
$$$$
