GGQ.pdb
     RDKit          3D

 18 17  0  0  1  0  0  0  0  0999 V2000
   25.4228  -21.0507  -11.1515 N   0  0  0  0  0  0  0  0  0  0  0  0
   26.8275  -20.9640  -11.4050 C   0  0  0  0  0  0  0  0  0  0  0  0
   27.1214  -20.3649  -12.7427 C   0  0  0  0  0  0  0  0  0  0  0  0
   27.5013  -21.1547  -13.6546 O   0  0  0  0  0  0  0  0  0  0  0  0
   26.9862  -18.9833  -12.9931 N   0  0  0  0  0  0  0  0  0  0  0  0
   27.1840  -18.4527  -14.3080 C   0  0  0  0  0  0  0  0  0  0  0  0
   26.0937  -18.8738  -15.2158 C   0  0  0  0  0  0  0  0  0  0  0  0
   26.3068  -19.8195  -16.0155 O   0  0  0  0  0  0  0  0  0  0  0  0
   22.3238  -21.4101  -12.3573 N   0  0  0  0  0  0  0  0  0  0  0  0
   21.5172  -21.3825  -13.5188 C   0  0  0  0  0  0  0  0  0  0  0  0
   20.4657  -22.0546  -13.5378 O   0  0  0  0  0  0  0  0  0  0  0  0
   21.9183  -20.5783  -14.6688 C   0  0  0  0  0  0  0  0  0  0  0  0
   23.1704  -19.7926  -14.4790 C   0  0  0  0  0  0  0  0  0  0  0  0
   23.6194  -18.9952  -15.6591 C   0  0  2  0  0  0  0  0  0  0  0  0
   24.8184  -18.2605  -15.2266 N   0  0  0  0  0  0  0  0  0  0  0  0
   22.5848  -17.9755  -16.0494 C   0  0  0  0  0  0  0  0  0  0  0  0
   21.7457  -18.2289  -16.9487 O   0  0  0  0  0  0  0  0  0  0  0  0
   22.5430  -16.7437  -15.4231 O   0  0  0  0  0  0  0  0  0  0  0  0
  2  1  1  0
  3  2  1  0
  4  3  2  0
  5  3  1  0
  6  5  1  0
  7  6  1  0
  7  8  2  0
 10  9  1  0
 10 12  1  0
 11 10  2  0
 13 12  1  0
 14 13  1  1
 14 15  1  0
 15  7  1  0
 16 18  1  0
 16 14  1  0
 17 16  2  0
M  END
$$$$
