GGQ.pdb
     RDKit          3D

 18 17  0  0  1  0  0  0  0  0999 V2000
   28.8284  -22.9620  -16.3098 N   0  0  0  0  0  0  0  0  0  0  0  0
   27.5915  -22.4296  -16.7911 C   0  0  0  0  0  0  0  0  0  0  0  0
   27.4527  -20.9716  -16.4918 C   0  0  0  0  0  0  0  0  0  0  0  0
   28.3079  -20.1956  -17.0078 O   0  0  0  0  0  0  0  0  0  0  0  0
   26.4206  -20.4677  -15.6730 N   0  0  0  0  0  0  0  0  0  0  0  0
   25.8103  -19.2038  -15.9553 C   0  0  0  0  0  0  0  0  0  0  0  0
   24.3492  -19.3530  -16.1372 C   0  0  0  0  0  0  0  0  0  0  0  0
   23.9171  -20.3695  -16.7366 O   0  0  0  0  0  0  0  0  0  0  0  0
   21.0515  -21.9763  -14.2053 N   0  0  0  0  0  0  0  0  0  0  0  0
   20.6477  -20.7135  -13.7125 C   0  0  0  0  0  0  0  0  0  0  0  0
   19.4740  -20.5703  -13.3130 O   0  0  0  0  0  0  0  0  0  0  0  0
   21.5962  -19.6047  -13.6772 C   0  0  0  0  0  0  0  0  0  0  0  0
   21.2894  -18.4865  -14.6134 C   0  0  0  0  0  0  0  0  0  0  0  0
   21.9735  -18.5463  -15.9395 C   0  0  2  0  0  0  0  0  0  0  0  0
   23.4120  -18.4026  -15.6668 N   0  0  0  0  0  0  0  0  0  0  0  0
   21.5648  -17.3918  -16.8126 C   0  0  0  0  0  0  0  0  0  0  0  0
   22.2650  -16.3505  -16.8638 O   0  0  0  0  0  0  0  0  0  0  0  0
   20.4115  -17.4606  -17.5719 O   0  0  0  0  0  0  0  0  0  0  0  0
  2  1  1  0
  3  2  1  0
  4  3  2  0
  5  3  1  0
  6  5  1  0
  7  6  1  0
  7  8  2  0
 10  9  1  0
 10 12  1  0
 11 10  2  0
 13 12  1  0
 14 13  1  1
 14 15  1  0
 15  7  1  0
 16 18  1  0
 16 14  1  0
 17 16  2  0
M  END
$$$$
