GGQ.pdb
     RDKit          3D

 18 17  0  0  1  0  0  0  0  0999 V2000
   27.9995  -24.7122  -16.5095 N   0  0  0  0  0  0  0  0  0  0  0  0
   26.7965  -23.9400  -16.5458 C   0  0  0  0  0  0  0  0  0  0  0  0
   26.7589  -22.9070  -15.4660 C   0  0  0  0  0  0  0  0  0  0  0  0
   27.8626  -22.5901  -14.9357 O   0  0  0  0  0  0  0  0  0  0  0  0
   25.5554  -22.3031  -15.0456 N   0  0  0  0  0  0  0  0  0  0  0  0
   25.5685  -21.0831  -14.2968 C   0  0  0  0  0  0  0  0  0  0  0  0
   24.1967  -20.6920  -13.9022 C   0  0  0  0  0  0  0  0  0  0  0  0
   24.0425  -19.6624  -13.1984 O   0  0  0  0  0  0  0  0  0  0  0  0
   22.2728  -17.5432  -15.5353 N   0  0  0  0  0  0  0  0  0  0  0  0
   21.2300  -18.4406  -15.8635 C   0  0  0  0  0  0  0  0  0  0  0  0
   20.0639  -18.0037  -15.9479 O   0  0  0  0  0  0  0  0  0  0  0  0
   21.5250  -19.8508  -16.0968 C   0  0  0  0  0  0  0  0  0  0  0  0
   20.9182  -20.7901  -15.1116 C   0  0  0  0  0  0  0  0  0  0  0  0
   21.7003  -21.0079  -13.8582 C   0  0  2  0  0  0  0  0  0  0  0  0
   23.0465  -21.4245  -14.2808 N   0  0  0  0  0  0  0  0  0  0  0  0
   21.1180  -22.1307  -13.0442 C   0  0  0  0  0  0  0  0  0  0  0  0
   21.6593  -23.2639  -13.0401 O   0  0  0  0  0  0  0  0  0  0  0  0
   19.9778  -21.9309  -12.2885 O   0  0  0  0  0  0  0  0  0  0  0  0
  2  1  1  0
  3  2  1  0
  4  3  2  0
  5  3  1  0
  6  5  1  0
  7  6  1  0
  7  8  2  0
 10  9  1  0
 10 12  1  0
 11 10  2  0
 13 12  1  0
 14 13  1  6
 14 15  1  0
 15  7  1  0
 16 18  1  0
 16 14  1  0
 17 16  2  0
M  END
$$$$
