GGQ.pdb
     RDKit          3D

 18 17  0  0  1  0  0  0  0  0999 V2000
   20.3890  -20.7189  -12.4391 N   0  0  0  0  0  0  0  0  0  0  0  0
   21.1874  -21.1867  -13.5293 C   0  0  0  0  0  0  0  0  0  0  0  0
   22.5993  -21.4544  -13.1178 C   0  0  0  0  0  0  0  0  0  0  0  0
   23.3418  -22.0380  -13.9592 O   0  0  0  0  0  0  0  0  0  0  0  0
   23.0969  -21.0795  -11.8523 N   0  0  0  0  0  0  0  0  0  0  0  0
   24.4386  -21.3977  -11.4672 C   0  0  0  0  0  0  0  0  0  0  0  0
   25.4114  -20.5651  -12.2092 C   0  0  0  0  0  0  0  0  0  0  0  0
   25.1191  -19.3668  -12.4499 O   0  0  0  0  0  0  0  0  0  0  0  0
   31.1902  -21.0224  -10.1252 N   0  0  0  0  0  0  0  0  0  0  0  0
   30.3949  -21.6569  -11.1079 C   0  0  0  0  0  0  0  0  0  0  0  0
   30.8221  -22.6976  -11.6483 O   0  0  0  0  0  0  0  0  0  0  0  0
   29.0992  -21.0944  -11.4752 C   0  0  0  0  0  0  0  0  0  0  0  0
   28.9850  -20.6565  -12.8951 C   0  0  0  0  0  0  0  0  0  0  0  0
   27.6369  -20.1718  -13.3166 C   0  0  2  0  0  0  0  0  0  0  0  0
   26.6592  -21.0553  -12.6624 N   0  0  0  0  0  0  0  0  0  0  0  0
   27.4489  -20.3165  -14.8019 C   0  0  0  0  0  0  0  0  0  0  0  0
   27.8535  -19.4236  -15.5869 O   0  0  0  0  0  0  0  0  0  0  0  0
   26.8275  -21.4355  -15.3244 O   0  0  0  0  0  0  0  0  0  0  0  0
  2  1  1  0
  3  2  1  0
  4  3  2  0
  5  3  1  0
  6  5  1  0
  7  6  1  0
  7  8  2  0
 10  9  1  0
 10 12  1  0
 11 10  2  0
 13 12  1  0
 14 13  1  6
 14 15  1  0
 15  7  1  0
 16 18  1  0
 16 14  1  0
 17 16  2  0
M  END
$$$$
