GGQ.pdb
     RDKit          3D

 18 17  0  0  1  0  0  0  0  0999 V2000
   17.1374  -26.5913   -4.7531 N   0  0  0  0  0  0  0  0  0  0  0  0
   17.0479  -25.3901   -5.5239 C   0  0  0  0  0  0  0  0  0  0  0  0
   18.0610  -25.3502   -6.6223 C   0  0  0  0  0  0  0  0  0  0  0  0
   18.9558  -26.2440   -6.6109 O   0  0  0  0  0  0  0  0  0  0  0  0
   18.0345  -24.3669   -7.6334 N   0  0  0  0  0  0  0  0  0  0  0  0
   19.0234  -24.3512   -8.6684 C   0  0  0  0  0  0  0  0  0  0  0  0
   18.7083  -23.3207   -9.6828 C   0  0  0  0  0  0  0  0  0  0  0  0
   17.5945  -22.7413   -9.6275 O   0  0  0  0  0  0  0  0  0  0  0  0
   22.8580  -21.0514  -13.8874 N   0  0  0  0  0  0  0  0  0  0  0  0
   21.7062  -20.2808  -14.1708 C   0  0  0  0  0  0  0  0  0  0  0  0
   21.7604  -19.4296  -15.0819 O   0  0  0  0  0  0  0  0  0  0  0  0
   20.4816  -20.4866  -13.4037 C   0  0  0  0  0  0  0  0  0  0  0  0
   20.5746  -21.5267  -12.3404 C   0  0  0  0  0  0  0  0  0  0  0  0
   19.2958  -21.8554  -11.6428 C   0  0  2  0  0  0  0  0  0  0  0  0
   19.6042  -22.9551  -10.7155 N   0  0  0  0  0  0  0  0  0  0  0  0
   18.2641  -22.3624  -12.6128 C   0  0  0  0  0  0  0  0  0  0  0  0
   18.2719  -23.5620  -12.9845 O   0  0  0  0  0  0  0  0  0  0  0  0
   17.2918  -21.5143  -13.1094 O   0  0  0  0  0  0  0  0  0  0  0  0
  2  1  1  0
  3  2  1  0
  4  3  2  0
  5  3  1  0
  6  5  1  0
  7  6  1  0
  7  8  2  0
 10  9  1  0
 10 12  1  0
 11 10  2  0
 13 12  1  0
 14 13  1  6
 14 15  1  0
 15  7  1  0
 16 18  1  0
 16 14  1  0
 17 16  2  0
M  END
$$$$
