GGQ.pdb
     RDKit          3D

 18 17  0  0  1  0  0  0  0  0999 V2000
   23.2287  -24.8076  -15.6395 N   0  0  0  0  0  0  0  0  0  0  0  0
   24.6515  -24.7395  -15.5127 C   0  0  0  0  0  0  0  0  0  0  0  0
   25.0915  -23.5230  -14.7636 C   0  0  0  0  0  0  0  0  0  0  0  0
   25.9289  -22.7677  -15.3363 O   0  0  0  0  0  0  0  0  0  0  0  0
   24.6046  -23.2169  -13.4755 N   0  0  0  0  0  0  0  0  0  0  0  0
   24.9879  -22.0064  -12.8143 C   0  0  0  0  0  0  0  0  0  0  0  0
   24.0475  -20.9098  -13.1358 C   0  0  0  0  0  0  0  0  0  0  0  0
   24.1376  -19.8317  -12.4963 O   0  0  0  0  0  0  0  0  0  0  0  0
   23.0780  -17.7608  -17.5189 N   0  0  0  0  0  0  0  0  0  0  0  0
   21.7037  -17.6889  -17.1920 C   0  0  0  0  0  0  0  0  0  0  0  0
   21.0350  -16.7217  -17.6104 O   0  0  0  0  0  0  0  0  0  0  0  0
   21.0899  -18.7337  -16.3785 C   0  0  0  0  0  0  0  0  0  0  0  0
   22.0325  -19.7731  -15.8765 C   0  0  0  0  0  0  0  0  0  0  0  0
   22.1050  -19.9186  -14.3920 C   0  0  2  0  0  0  0  0  0  0  0  0
   23.0483  -21.0173  -14.1322 N   0  0  0  0  0  0  0  0  0  0  0  0
   20.7740  -20.3257  -13.8218 C   0  0  0  0  0  0  0  0  0  0  0  0
   20.5054  -21.5373  -13.6289 O   0  0  0  0  0  0  0  0  0  0  0  0
   19.8267  -19.3711  -13.5015 O   0  0  0  0  0  0  0  0  0  0  0  0
  2  1  1  0
  3  2  1  0
  4  3  2  0
  5  3  1  0
  6  5  1  0
  7  6  1  0
  7  8  2  0
 10  9  1  0
 10 12  1  0
 11 10  2  0
 13 12  1  0
 14 13  1  6
 14 15  1  0
 15  7  1  0
 16 18  1  0
 16 14  1  0
 17 16  2  0
M  END
$$$$
