GGQ.pdb
     RDKit          3D

 18 17  0  0  1  0  0  0  0  0999 V2000
   15.2889  -14.9630  -11.4558 N   0  0  0  0  0  0  0  0  0  0  0  0
   16.2230  -14.1967  -12.2209 C   0  0  0  0  0  0  0  0  0  0  0  0
   15.8529  -12.7494  -12.2738 C   0  0  0  0  0  0  0  0  0  0  0  0
   14.9839  -12.4097  -13.1277 O   0  0  0  0  0  0  0  0  0  0  0  0
   16.4370  -11.7928  -11.4172 N   0  0  0  0  0  0  0  0  0  0  0  0
   15.9680  -10.4404  -11.3987 C   0  0  0  0  0  0  0  0  0  0  0  0
   16.9486   -9.5516  -10.7362 C   0  0  0  0  0  0  0  0  0  0  0  0
   17.5592   -9.9766   -9.7234 O   0  0  0  0  0  0  0  0  0  0  0  0
   20.4135   -6.8771  -13.9797 N   0  0  0  0  0  0  0  0  0  0  0  0
   20.9236   -7.7626  -13.0017 C   0  0  0  0  0  0  0  0  0  0  0  0
   21.8593   -8.5280  -13.3119 O   0  0  0  0  0  0  0  0  0  0  0  0
   20.3569   -7.7718  -11.6567 C   0  0  0  0  0  0  0  0  0  0  0  0
   19.1649   -6.8965  -11.4721 C   0  0  0  0  0  0  0  0  0  0  0  0
   18.1668   -7.3660  -10.4654 C   0  0  2  0  0  0  0  0  0  0  0  0
   17.2327   -8.2416  -11.1902 N   0  0  0  0  0  0  0  0  0  0  0  0
   17.3688   -6.2155   -9.9161 C   0  0  0  0  0  0  0  0  0  0  0  0
   16.2303   -5.9508  -10.3755 O   0  0  0  0  0  0  0  0  0  0  0  0
   17.8777   -5.4323   -8.8969 O   0  0  0  0  0  0  0  0  0  0  0  0
  2  1  1  0
  3  2  1  0
  4  3  2  0
  5  3  1  0
  6  5  1  0
  7  6  1  0
  7  8  2  0
 10  9  1  0
 10 12  1  0
 11 10  2  0
 13 12  1  0
 14 13  1  6
 14 15  1  0
 15  7  1  0
 16 18  1  0
 16 14  1  0
 17 16  2  0
M  END
$$$$
