GGQ.pdb
     RDKit          3D

 18 17  0  0  1  0  0  0  0  0999 V2000
   26.3889  -16.5815  -18.6045 N   0  0  0  0  0  0  0  0  0  0  0  0
   25.0155  -16.8077  -18.2769 C   0  0  0  0  0  0  0  0  0  0  0  0
   24.8324  -18.0278  -17.4329 C   0  0  0  0  0  0  0  0  0  0  0  0
   24.1911  -18.9899  -17.9459 O   0  0  0  0  0  0  0  0  0  0  0  0
   25.3452  -18.1184  -16.1220 N   0  0  0  0  0  0  0  0  0  0  0  0
   25.8696  -19.3533  -15.6224 C   0  0  0  0  0  0  0  0  0  0  0  0
   24.7963  -20.1777  -15.0235 C   0  0  0  0  0  0  0  0  0  0  0  0
   25.1078  -21.2596  -14.4650 O   0  0  0  0  0  0  0  0  0  0  0  0
   22.6364  -20.0333  -10.1917 N   0  0  0  0  0  0  0  0  0  0  0  0
   21.6859  -20.9625  -10.6751 C   0  0  0  0  0  0  0  0  0  0  0  0
   20.9526  -21.5545   -9.8570 O   0  0  0  0  0  0  0  0  0  0  0  0
   21.5744  -21.2162  -12.1081 C   0  0  0  0  0  0  0  0  0  0  0  0
   22.5734  -20.5010  -12.9515 C   0  0  0  0  0  0  0  0  0  0  0  0
   22.3963  -20.6451  -14.4273 C   0  0  2  0  0  0  0  0  0  0  0  0
   23.4313  -19.8049  -15.0496 N   0  0  0  0  0  0  0  0  0  0  0  0
   21.0607  -20.1115  -14.8675 C   0  0  0  0  0  0  0  0  0  0  0  0
   20.9073  -18.8869  -15.0999 O   0  0  0  0  0  0  0  0  0  0  0  0
   19.9821  -20.9623  -15.0227 O   0  0  0  0  0  0  0  0  0  0  0  0
  2  1  1  0
  3  2  1  0
  4  3  2  0
  5  3  1  0
  6  5  1  0
  7  6  1  0
  7  8  2  0
 10  9  1  0
 10 12  1  0
 11 10  2  0
 13 12  1  0
 14 13  1  1
 14 15  1  0
 15  7  1  0
 16 18  1  0
 16 14  1  0
 17 16  2  0
M  END
$$$$
