GGQ.pdb
     RDKit          3D

 18 17  0  0  1  0  0  0  0  0999 V2000
   18.5109  -14.0463  -18.9649 N   0  0  0  0  0  0  0  0  0  0  0  0
   19.6976  -14.1364  -18.1722 C   0  0  0  0  0  0  0  0  0  0  0  0
   20.6100  -12.9728  -18.3916 C   0  0  0  0  0  0  0  0  0  0  0  0
   20.9349  -12.7152  -19.5865 O   0  0  0  0  0  0  0  0  0  0  0  0
   21.0955  -12.1874  -17.3252 N   0  0  0  0  0  0  0  0  0  0  0  0
   21.9417  -11.0590  -17.5704 C   0  0  0  0  0  0  0  0  0  0  0  0
   21.1772   -9.7956  -17.4722 C   0  0  0  0  0  0  0  0  0  0  0  0
   19.9335   -9.8555  -17.3016 O   0  0  0  0  0  0  0  0  0  0  0  0
   22.4728   -5.4320  -13.8156 N   0  0  0  0  0  0  0  0  0  0  0  0
   21.6229   -6.5547  -13.6820 C   0  0  0  0  0  0  0  0  0  0  0  0
   21.3223   -6.9495  -12.5369 O   0  0  0  0  0  0  0  0  0  0  0  0
   21.1129   -7.2314  -14.8704 C   0  0  0  0  0  0  0  0  0  0  0  0
   21.5238   -6.6197  -16.1657 C   0  0  0  0  0  0  0  0  0  0  0  0
   20.9956   -7.2867  -17.3930 C   0  0  2  0  0  0  0  0  0  0  0  0
   21.7814   -8.5190  -17.5616 N   0  0  0  0  0  0  0  0  0  0  0  0
   21.2257   -6.4375  -18.6130 C   0  0  0  0  0  0  0  0  0  0  0  0
   22.1663   -6.6969  -19.4036 O   0  0  0  0  0  0  0  0  0  0  0  0
   20.4042   -5.3584  -18.8814 O   0  0  0  0  0  0  0  0  0  0  0  0
  2  1  1  0
  3  2  1  0
  4  3  2  0
  5  3  1  0
  6  5  1  0
  7  6  1  0
  7  8  2  0
 10  9  1  0
 10 12  1  0
 11 10  2  0
 13 12  1  0
 14 13  1  1
 14 15  1  0
 15  7  1  0
 16 18  1  0
 16 14  1  0
 17 16  2  0
M  END
$$$$
