GGQ.pdb
     RDKit          3D

 18 17  0  0  1  0  0  0  0  0999 V2000
   13.1778  -10.8778   -9.7974 N   0  0  0  0  0  0  0  0  0  0  0  0
   12.9743   -9.4791  -10.0150 C   0  0  0  0  0  0  0  0  0  0  0  0
   13.8213   -8.6408   -9.1125 C   0  0  0  0  0  0  0  0  0  0  0  0
   13.3513   -8.3729   -7.9692 O   0  0  0  0  0  0  0  0  0  0  0  0
   15.0895   -8.1623   -9.5029 N   0  0  0  0  0  0  0  0  0  0  0  0
   15.9426   -7.4951   -8.5666 C   0  0  0  0  0  0  0  0  0  0  0  0
   17.1653   -6.9932   -9.2325 C   0  0  0  0  0  0  0  0  0  0  0  0
   17.9733   -6.2993   -8.5654 O   0  0  0  0  0  0  0  0  0  0  0  0
   20.7967   -9.6195  -13.3719 N   0  0  0  0  0  0  0  0  0  0  0  0
   21.1419   -8.2667  -13.5989 C   0  0  0  0  0  0  0  0  0  0  0  0
   22.0764   -8.0075  -14.3845 O   0  0  0  0  0  0  0  0  0  0  0  0
   20.4107   -7.2015  -12.9201 C   0  0  0  0  0  0  0  0  0  0  0  0
   19.2769   -7.6620  -12.0696 C   0  0  0  0  0  0  0  0  0  0  0  0
   18.6018   -6.6029  -11.2618 C   0  0  2  0  0  0  0  0  0  0  0  0
   17.4694   -7.2582  -10.5890 N   0  0  0  0  0  0  0  0  0  0  0  0
   18.0360   -5.5254  -12.1456 C   0  0  0  0  0  0  0  0  0  0  0  0
   18.7558   -4.5703  -12.5290 O   0  0  0  0  0  0  0  0  0  0  0  0
   16.7144   -5.5711  -12.5489 O   0  0  0  0  0  0  0  0  0  0  0  0
  2  1  1  0
  3  2  1  0
  4  3  2  0
  5  3  1  0
  6  5  1  0
  7  6  1  0
  7  8  2  0
 10  9  1  0
 10 12  1  0
 11 10  2  0
 13 12  1  0
 14 13  1  6
 14 15  1  0
 15  7  1  0
 16 18  1  0
 16 14  1  0
 17 16  2  0
M  END
$$$$
