GGQ.pdb
     RDKit          3D

 18 17  0  0  1  0  0  0  0  0999 V2000
   19.8648  -14.3836  -20.4201 N   0  0  0  0  0  0  0  0  0  0  0  0
   20.1406  -13.9275  -19.0931 C   0  0  0  0  0  0  0  0  0  0  0  0
   20.0219  -12.4422  -18.9732 C   0  0  0  0  0  0  0  0  0  0  0  0
   18.8811  -11.9788  -18.6843 O   0  0  0  0  0  0  0  0  0  0  0  0
   21.1226  -11.5823  -19.1702 N   0  0  0  0  0  0  0  0  0  0  0  0
   20.9893  -10.1675  -18.9967 C   0  0  0  0  0  0  0  0  0  0  0  0
   21.3107   -9.7744  -17.6066 C   0  0  0  0  0  0  0  0  0  0  0  0
   20.3995   -9.8170  -16.7422 O   0  0  0  0  0  0  0  0  0  0  0  0
   27.0860  -10.0527  -15.3372 N   0  0  0  0  0  0  0  0  0  0  0  0
   26.1876  -11.1177  -15.5804 C   0  0  0  0  0  0  0  0  0  0  0  0
   26.6336  -12.2822  -15.6306 O   0  0  0  0  0  0  0  0  0  0  0  0
   24.7658  -10.8467  -15.7680 C   0  0  0  0  0  0  0  0  0  0  0  0
   24.3772   -9.4141  -15.6349 C   0  0  0  0  0  0  0  0  0  0  0  0
   22.9204   -9.1219  -15.7854 C   0  0  2  0  0  0  0  0  0  0  0  0
   22.5993   -9.3513  -17.2027 N   0  0  0  0  0  0  0  0  0  0  0  0
   22.6236   -7.6780  -15.4861 C   0  0  0  0  0  0  0  0  0  0  0  0
   22.6007   -7.2631  -14.3010 O   0  0  0  0  0  0  0  0  0  0  0  0
   22.3716   -6.7865  -16.5122 O   0  0  0  0  0  0  0  0  0  0  0  0
  2  1  1  0
  3  2  1  0
  4  3  2  0
  5  3  1  0
  6  5  1  0
  7  6  1  0
  7  8  2  0
 10  9  1  0
 10 12  1  0
 11 10  2  0
 13 12  1  0
 14 13  1  6
 14 15  1  0
 15  7  1  0
 16 18  1  0
 16 14  1  0
 17 16  2  0
M  END
$$$$
