CST.pdb
     RDKit          3D

 20 19  0  0  1  0  0  0  0  0999 V2000
    9.7994  -17.3006   15.5930 N   0  0  0  0  0  0  0  0  0  0  0  0
    9.0130  -17.5676   16.7490 C   0  0  1  0  0  0  0  0  0  0  0  0
    8.9555  -19.0846   16.9391 C   0  0  0  0  0  0  0  0  0  0  0  0
    8.1638  -19.8671   15.5037 S   0  0  0  0  0  0  0  0  0  0  0  0
    9.5517  -17.0129   17.9989 C   0  0  0  0  0  0  0  0  0  0  0  0
   10.8014  -16.8593   18.0746 O   0  0  0  0  0  0  0  0  0  0  0  0
    7.2347  -16.2523   21.3126 O   0  0  0  0  0  0  0  0  0  0  0  0
    8.1686  -15.2577   20.9599 C   0  0  0  0  0  0  0  0  0  0  0  0
    9.3411  -15.9953   20.3008 C   0  0  2  0  0  0  0  0  0  0  0  0
    8.7909  -16.6368   19.1230 N   0  0  0  0  0  0  0  0  0  0  0  0
    9.9471  -16.9651   21.2336 C   0  0  0  0  0  0  0  0  0  0  0  0
    9.4696  -18.1257   21.2720 O   0  0  0  0  0  0  0  0  0  0  0  0
   13.4784  -17.7538   21.1623 C   0  0  0  0  0  0  0  0  0  0  0  0
   13.2375  -17.4271   22.6090 C   0  0  1  0  0  0  0  0  0  0  0  0
   13.7252  -16.1448   22.8475 O   0  0  0  0  0  0  0  0  0  0  0  0
   11.7494  -17.5003   22.8782 C   0  0  2  0  0  0  0  0  0  0  0  0
   11.0350  -16.5308   22.0341 N   0  0  0  0  0  0  0  0  0  0  0  0
   11.4333  -17.2229   24.2976 C   0  0  0  0  0  0  0  0  0  0  0  0
   11.8713  -18.0713   25.3048 O   0  0  0  0  0  0  0  0  0  0  0  0
   10.7602  -16.2182   24.6671 O   0  0  0  0  0  0  0  0  0  0  0  0
  2  5  1  0
  2  1  1  6
  3  2  1  0
  4  3  1  0
  5  6  2  0
  7  8  1  0
  9  8  1  1
 10  9  1  0
 10  5  1  0
 11  9  1  0
 12 11  2  0
 14 13  1  6
 14 15  1  0
 14 16  1  0
 16 18  1  0
 16 17  1  6
 17 11  1  0
 18 19  1  0
 20 18  2  0
M  END
$$$$
