CST.pdb
     RDKit          3D

 20 19  0  0  1  0  0  0  0  0999 V2000
    8.5276  -16.7709   17.6254 N   0  0  0  0  0  0  0  0  0  0  0  0
    7.8898  -16.9144   18.8897 C   0  0  1  0  0  0  0  0  0  0  0  0
    7.5039  -18.3853   19.0580 C   0  0  0  0  0  0  0  0  0  0  0  0
    5.8944  -18.7046   18.2789 S   0  0  0  0  0  0  0  0  0  0  0  0
    8.7323  -16.5718   20.0443 C   0  0  0  0  0  0  0  0  0  0  0  0
    9.9773  -16.7339   19.9227 O   0  0  0  0  0  0  0  0  0  0  0  0
    7.2580  -15.3894   23.7711 O   0  0  0  0  0  0  0  0  0  0  0  0
    8.3454  -14.6897   23.2109 C   0  0  0  0  0  0  0  0  0  0  0  0
    9.1302  -15.7194   22.3881 C   0  0  2  0  0  0  0  0  0  0  0  0
    8.2684  -16.0766   21.2785 N   0  0  0  0  0  0  0  0  0  0  0  0
    9.4936  -16.8884   23.2121 C   0  0  0  0  0  0  0  0  0  0  0  0
    8.6607  -17.8225   23.3126 O   0  0  0  0  0  0  0  0  0  0  0  0
   12.5188  -18.8720   22.7336 C   0  0  0  0  0  0  0  0  0  0  0  0
   12.5686  -18.5054   24.1899 C   0  0  1  0  0  0  0  0  0  0  0  0
   13.4925  -17.4748   24.3427 O   0  0  0  0  0  0  0  0  0  0  0  0
   11.1868  -18.0639   24.6232 C   0  0  2  0  0  0  0  0  0  0  0  0
   10.7639  -16.8904   23.8442 N   0  0  0  0  0  0  0  0  0  0  0  0
   11.1452  -17.7223   26.0630 C   0  0  0  0  0  0  0  0  0  0  0  0
   10.9180  -16.4183   26.4803 O   0  0  0  0  0  0  0  0  0  0  0  0
   11.3107  -18.5803   26.9771 O   0  0  0  0  0  0  0  0  0  0  0  0
  2  5  1  0
  2  1  1  6
  3  2  1  0
  4  3  1  0
  5  6  2  0
  7  8  1  0
  9  8  1  1
 10  9  1  0
 10  5  1  0
 11  9  1  0
 12 11  2  0
 14 13  1  6
 14 15  1  0
 14 16  1  0
 16 18  1  0
 16 17  1  6
 17 11  1  0
 18 19  1  0
 20 18  2  0
M  END
$$$$
