CST.pdb
     RDKit          3D

 20 19  0  0  1  0  0  0  0  0999 V2000
    7.2612  -15.5291   19.4871 N   0  0  0  0  0  0  0  0  0  0  0  0
    8.2345  -14.9229   20.3304 C   0  0  1  0  0  0  0  0  0  0  0  0
    7.8619  -13.4481   20.4946 C   0  0  0  0  0  0  0  0  0  0  0  0
    8.0824  -12.5666   18.9217 S   0  0  0  0  0  0  0  0  0  0  0  0
    8.3075  -15.4857   21.6862 C   0  0  0  0  0  0  0  0  0  0  0  0
    7.2401  -15.5235   22.3572 O   0  0  0  0  0  0  0  0  0  0  0  0
   11.6685  -17.2913   23.0230 O   0  0  0  0  0  0  0  0  0  0  0  0
   10.4411  -17.8217   23.4683 C   0  0  0  0  0  0  0  0  0  0  0  0
    9.4899  -16.6259   23.6046 C   0  0  2  0  0  0  0  0  0  0  0  0
    9.4698  -15.9882   22.3029 N   0  0  0  0  0  0  0  0  0  0  0  0
    9.9423  -15.7092   24.6689 C   0  0  0  0  0  0  0  0  0  0  0  0
   10.7172  -14.7733   24.3528 O   0  0  0  0  0  0  0  0  0  0  0  0
    9.4544  -13.2906   28.6540 C   0  0  0  0  0  0  0  0  0  0  0  0
    8.9006  -14.1386   27.5441 C   0  0  1  0  0  0  0  0  0  0  0  0
    8.5204  -13.2928   26.5052 O   0  0  0  0  0  0  0  0  0  0  0  0
    9.9763  -15.1034   27.0920 C   0  0  2  0  0  0  0  0  0  0  0  0
    9.4757  -15.9377   25.9892 N   0  0  0  0  0  0  0  0  0  0  0  0
   10.4222  -15.9852   28.1943 C   0  0  0  0  0  0  0  0  0  0  0  0
   11.2489  -15.5061   29.2009 O   0  0  0  0  0  0  0  0  0  0  0  0
   10.0832  -17.2004   28.2811 O   0  0  0  0  0  0  0  0  0  0  0  0
  2  5  1  0
  2  1  1  6
  3  2  1  0
  4  3  1  0
  5  6  2  0
  7  8  1  0
  9  8  1  6
 10  9  1  0
 10  5  1  0
 11  9  1  0
 12 11  2  0
 14 13  1  1
 14 15  1  0
 14 16  1  0
 16 18  1  0
 16 17  1  6
 17 11  1  0
 18 19  1  0
 20 18  2  0
M  END
$$$$
