CST.pdb
     RDKit          3D

 20 19  0  0  1  0  0  0  0  0999 V2000
    8.5025  -20.0642   16.7990 N   0  0  0  0  0  0  0  0  0  0  0  0
    8.3176  -20.5378   18.1285 C   0  0  1  0  0  0  0  0  0  0  0  0
    9.5822  -21.2951   18.5385 C   0  0  0  0  0  0  0  0  0  0  0  0
    9.7610  -22.8032   17.5420 S   0  0  0  0  0  0  0  0  0  0  0  0
    8.1212  -19.4835   19.1335 C   0  0  0  0  0  0  0  0  0  0  0  0
    8.6270  -18.3528   18.8950 O   0  0  0  0  0  0  0  0  0  0  0  0
    5.6571  -19.8923   22.4604 O   0  0  0  0  0  0  0  0  0  0  0  0
    5.7279  -18.6867   21.7342 C   0  0  0  0  0  0  0  0  0  0  0  0
    7.1888  -18.5494   21.2868 C   0  0  2  0  0  0  0  0  0  0  0  0
    7.4149  -19.6268   20.3436 N   0  0  0  0  0  0  0  0  0  0  0  0
    8.1041  -18.6172   22.4424 C   0  0  0  0  0  0  0  0  0  0  0  0
    8.5630  -19.7397   22.7677 O   0  0  0  0  0  0  0  0  0  0  0  0
   10.7138  -15.6580   23.3105 C   0  0  0  0  0  0  0  0  0  0  0  0
    9.9019  -16.0549   24.5110 C   0  0  1  0  0  0  0  0  0  0  0  0
    8.8870  -15.1154   24.6735 O   0  0  0  0  0  0  0  0  0  0  0  0
    9.3295  -17.4357   24.2706 C   0  0  2  0  0  0  0  0  0  0  0  0
    8.4137  -17.4098   23.1201 N   0  0  0  0  0  0  0  0  0  0  0  0
    8.5969  -17.9406   25.4537 C   0  0  0  0  0  0  0  0  0  0  0  0
    9.2747  -18.3201   26.6038 O   0  0  0  0  0  0  0  0  0  0  0  0
    7.3377  -18.0532   25.4847 O   0  0  0  0  0  0  0  0  0  0  0  0
  2  5  1  0
  2  1  1  6
  3  2  1  0
  4  3  1  0
  5  6  2  0
  7  8  1  0
  9  8  1  1
 10  9  1  0
 10  5  1  0
 11  9  1  0
 12 11  2  0
 14 13  1  6
 14 15  1  0
 14 16  1  0
 16 18  1  0
 16 17  1  6
 17 11  1  0
 18 19  1  0
 20 18  2  0
M  END
$$$$
