CST.pdb
     RDKit          3D

 20 19  0  0  1  0  0  0  0  0999 V2000
   -0.5891  -26.3820   29.1428 N   0  0  0  0  0  0  0  0  0  0  0  0
   -1.9706  -26.6911   28.9949 C   0  0  1  0  0  0  0  0  0  0  0  0
   -2.4609  -27.2972   30.3113 C   0  0  0  0  0  0  0  0  0  0  0  0
   -1.8886  -29.0144   30.4628 S   0  0  0  0  0  0  0  0  0  0  0  0
   -2.8331  -25.5320   28.7251 C   0  0  0  0  0  0  0  0  0  0  0  0
   -2.4967  -24.4275   29.2331 O   0  0  0  0  0  0  0  0  0  0  0  0
   -5.7301  -25.6712   25.9102 O   0  0  0  0  0  0  0  0  0  0  0  0
   -5.0606  -24.4486   26.1174 C   0  0  0  0  0  0  0  0  0  0  0  0
   -4.7860  -24.3686   27.6245 C   0  0  2  0  0  0  0  0  0  0  0  0
   -4.0063  -25.5477   27.9460 N   0  0  0  0  0  0  0  0  0  0  0  0
   -6.0468  -24.3069   28.3891 C   0  0  0  0  0  0  0  0  0  0  0  0
   -6.6314  -25.3863   28.6527 O   0  0  0  0  0  0  0  0  0  0  0  0
   -6.5014  -22.0957   31.5662 C   0  0  0  0  0  0  0  0  0  0  0  0
   -7.5987  -21.7783   30.5901 C   0  0  1  0  0  0  0  0  0  0  0  0
   -7.2550  -20.6051   29.9232 O   0  0  0  0  0  0  0  0  0  0  0  0
   -7.7311  -22.9341   29.6212 C   0  0  2  0  0  0  0  0  0  0  0  0
   -6.5266  -23.0311   28.7829 N   0  0  0  0  0  0  0  0  0  0  0  0
   -8.9136  -22.7830   28.7436 C   0  0  0  0  0  0  0  0  0  0  0  0
  -10.1994  -22.8492   29.2617 O   0  0  0  0  0  0  0  0  0  0  0  0
   -8.8230  -22.5888   27.4973 O   0  0  0  0  0  0  0  0  0  0  0  0
  2  5  1  0
  2  1  1  1
  3  2  1  0
  4  3  1  0
  5  6  2  0
  7  8  1  0
  9  8  1  6
 10  9  1  0
 10  5  1  0
 11  9  1  0
 12 11  2  0
 14 13  1  1
 14 15  1  0
 14 16  1  0
 16 18  1  0
 16 17  1  6
 17 11  1  0
 18 19  1  0
 20 18  2  0
M  END
$$$$
