CST.pdb
     RDKit          3D

 20 19  0  0  1  0  0  0  0  0999 V2000
    5.1585  -19.1604   19.2520 N   0  0  0  0  0  0  0  0  0  0  0  0
    5.4055  -18.3059   20.3633 C   0  0  1  0  0  0  0  0  0  0  0  0
    4.6172  -18.8472   21.5576 C   0  0  0  0  0  0  0  0  0  0  0  0
    4.8891  -17.7987   23.0157 S   0  0  0  0  0  0  0  0  0  0  0  0
    6.8111  -18.2429   20.7881 C   0  0  0  0  0  0  0  0  0  0  0  0
    7.3090  -19.2813   21.3028 O   0  0  0  0  0  0  0  0  0  0  0  0
    8.9000  -15.7801   19.1911 O   0  0  0  0  0  0  0  0  0  0  0  0
    9.8355  -16.4232   20.0261 C   0  0  0  0  0  0  0  0  0  0  0  0
    9.0196  -17.0726   21.1511 C   0  0  2  0  0  0  0  0  0  0  0  0
    7.6529  -17.1199   20.6700 N   0  0  0  0  0  0  0  0  0  0  0  0
    9.1441  -16.3050   22.4053 C   0  0  0  0  0  0  0  0  0  0  0  0
    8.6869  -15.1358   22.4305 O   0  0  0  0  0  0  0  0  0  0  0  0
    7.7203  -15.1184   24.5642 C   0  0  0  0  0  0  0  0  0  0  0  0
    8.5461  -16.0307   25.4266 C   0  0  1  0  0  0  0  0  0  0  0  0
    7.8811  -17.2505   25.5225 O   0  0  0  0  0  0  0  0  0  0  0  0
    9.9053  -16.2031   24.7823 C   0  0  2  0  0  0  0  0  0  0  0  0
    9.7734  -16.9318   23.5117 N   0  0  0  0  0  0  0  0  0  0  0  0
   10.8408  -16.9402   25.6614 C   0  0  0  0  0  0  0  0  0  0  0  0
   11.3496  -16.3543   26.8121 O   0  0  0  0  0  0  0  0  0  0  0  0
   11.2226  -18.1214   25.4205 O   0  0  0  0  0  0  0  0  0  0  0  0
  2  5  1  0
  2  1  1  6
  3  2  1  0
  4  3  1  0
  5  6  2  0
  7  8  1  0
  9  8  1  6
 10  9  1  0
 10  5  1  0
 11  9  1  0
 12 11  2  0
 14 13  1  6
 14 15  1  0
 14 16  1  0
 16 18  1  0
 16 17  1  6
 17 11  1  0
 18 19  1  0
 20 18  2  0
M  END
$$$$
