CST.pdb
     RDKit          3D

 20 19  0  0  1  0  0  0  0  0999 V2000
    7.0811  -18.8829   19.8746 N   0  0  0  0  0  0  0  0  0  0  0  0
    6.9415  -19.4523   21.1716 C   0  0  1  0  0  0  0  0  0  0  0  0
    7.3519  -20.9237   21.0865 C   0  0  0  0  0  0  0  0  0  0  0  0
    6.0721  -21.8830   20.2256 S   0  0  0  0  0  0  0  0  0  0  0  0
    7.7923  -18.8433   22.2038 C   0  0  0  0  0  0  0  0  0  0  0  0
    8.9882  -18.5881   21.8939 O   0  0  0  0  0  0  0  0  0  0  0  0
    6.2335  -17.5652   25.6129 O   0  0  0  0  0  0  0  0  0  0  0  0
    7.4683  -16.9583   25.3079 C   0  0  0  0  0  0  0  0  0  0  0  0
    8.2766  -18.0109   24.5386 C   0  0  2  0  0  0  0  0  0  0  0  0
    7.3868  -18.5188   23.5130 N   0  0  0  0  0  0  0  0  0  0  0  0
    8.7531  -19.0759   25.4422 C   0  0  0  0  0  0  0  0  0  0  0  0
    8.0114  -20.0726   25.6239 O   0  0  0  0  0  0  0  0  0  0  0  0
   12.5987  -21.3075   27.3719 C   0  0  0  0  0  0  0  0  0  0  0  0
   12.0700  -20.1439   26.5817 C   0  0  1  0  0  0  0  0  0  0  0  0
   12.3038  -20.3983   25.2327 O   0  0  0  0  0  0  0  0  0  0  0  0
   10.5879  -20.0068   26.8589 C   0  0  2  0  0  0  0  0  0  0  0  0
   10.0226  -18.9129   26.0546 N   0  0  0  0  0  0  0  0  0  0  0  0
   10.3189  -19.7369   28.2893 C   0  0  0  0  0  0  0  0  0  0  0  0
   10.2775  -20.7705   29.2146 O   0  0  0  0  0  0  0  0  0  0  0  0
   10.1155  -18.5738   28.7419 O   0  0  0  0  0  0  0  0  0  0  0  0
  2  5  1  0
  2  1  1  6
  3  2  1  0
  4  3  1  0
  5  6  2  0
  7  8  1  0
  9  8  1  1
 10  9  1  0
 10  5  1  0
 11  9  1  0
 12 11  2  0
 14 13  1  1
 14 15  1  0
 14 16  1  0
 16 18  1  0
 16 17  1  6
 17 11  1  0
 18 19  1  0
 20 18  2  0
M  END
$$$$
