CST.pdb
     RDKit          3D

 20 19  0  0  1  0  0  0  0  0999 V2000
    8.8857  -16.9804   15.8714 N   0  0  0  0  0  0  0  0  0  0  0  0
    8.0509  -17.2287   16.9972 C   0  0  1  0  0  0  0  0  0  0  0  0
    8.0156  -18.7400   17.2327 C   0  0  0  0  0  0  0  0  0  0  0  0
    7.0165  -19.5514   15.9509 S   0  0  0  0  0  0  0  0  0  0  0  0
    8.5181  -16.6239   18.2526 C   0  0  0  0  0  0  0  0  0  0  0  0
    9.7635  -16.4971   18.4075 O   0  0  0  0  0  0  0  0  0  0  0  0
    6.0504  -15.9223   21.4232 O   0  0  0  0  0  0  0  0  0  0  0  0
    6.9657  -14.8825   21.1640 C   0  0  0  0  0  0  0  0  0  0  0  0
    8.1852  -15.5472   20.5128 C   0  0  2  0  0  0  0  0  0  0  0  0
    7.6931  -16.1723   19.3010 N   0  0  0  0  0  0  0  0  0  0  0  0
    8.8093  -16.5206   21.4298 C   0  0  0  0  0  0  0  0  0  0  0  0
    8.3781  -17.6998   21.4227 O   0  0  0  0  0  0  0  0  0  0  0  0
   12.1528  -17.6600   21.5590 C   0  0  0  0  0  0  0  0  0  0  0  0
   11.9656  -17.1155   22.9469 C   0  0  1  0  0  0  0  0  0  0  0  0
   12.5835  -15.8691   23.0070 O   0  0  0  0  0  0  0  0  0  0  0  0
   10.4815  -16.9991   23.2228 C   0  0  2  0  0  0  0  0  0  0  0  0
    9.8615  -16.0686   22.2675 N   0  0  0  0  0  0  0  0  0  0  0  0
   10.2139  -16.5212   24.5981 C   0  0  0  0  0  0  0  0  0  0  0  0
   10.5685  -17.2861   25.7005 O   0  0  0  0  0  0  0  0  0  0  0  0
    9.6585  -15.4119   24.8433 O   0  0  0  0  0  0  0  0  0  0  0  0
  2  5  1  0
  2  1  1  6
  3  2  1  0
  4  3  1  0
  5  6  2  0
  7  8  1  0
  9  8  1  1
 10  9  1  0
 10  5  1  0
 11  9  1  0
 12 11  2  0
 14 13  1  6
 14 15  1  0
 14 16  1  0
 16 18  1  0
 16 17  1  6
 17 11  1  0
 18 19  1  0
 20 18  2  0
M  END
$$$$
