VHV.pdb
     RDKit          3D

 25 25  0  0  1  0  0  0  0  0999 V2000
    8.2517  -12.6080   20.3190 C   0  0  0  0  0  0  0  0  0  0  0  0
    7.8067  -13.5282   19.2166 C   0  0  1  0  0  0  0  0  0  0  0  0
    8.3849  -13.0606   17.8978 C   0  0  0  0  0  0  0  0  0  0  0  0
    8.3097  -14.9389   19.4474 C   0  0  2  0  0  0  0  0  0  0  0  0
    7.7529  -15.8108   18.3795 N   0  0  0  0  0  0  0  0  0  0  0  0
    7.8340  -15.5331   20.7189 C   0  0  0  0  0  0  0  0  0  0  0  0
    6.6116  -15.9142   20.8045 O   0  0  0  0  0  0  0  0  0  0  0  0
    8.5942  -15.7346   21.8769 N   0  0  0  0  0  0  0  0  0  0  0  0
    7.9668  -16.1429   23.1617 C   0  0  1  0  0  0  0  0  0  0  0  0
    8.3168  -17.5740   23.3125 C   0  0  0  0  0  0  0  0  0  0  0  0
    7.9343  -18.2084   24.5873 C   0  0  0  0  0  0  0  0  0  0  0  0
    6.6661  -18.4402   25.0757 C   0  0  0  0  0  0  0  0  0  0  0  0
    6.8305  -19.0111   26.2802 N   0  0  0  0  0  0  0  0  0  0  0  0
    8.1359  -19.1249   26.5209 C   0  0  0  0  0  0  0  0  0  0  0  0
    8.8480  -18.6405   25.4993 N   0  0  0  0  0  0  0  0  0  0  0  0
    8.3246  -15.2126   24.2124 C   0  0  0  0  0  0  0  0  0  0  0  0
    9.5657  -14.8737   24.2805 O   0  0  0  0  0  0  0  0  0  0  0  0
    7.2519  -11.6692   27.4142 C   0  0  0  0  0  0  0  0  0  0  0  0
    6.8006  -12.7555   26.4807 C   0  0  1  0  0  0  0  0  0  0  0  0
    6.0703  -12.2540   25.2736 C   0  0  0  0  0  0  0  0  0  0  0  0
    8.0143  -13.6068   26.0871 C   0  0  2  0  0  0  0  0  0  0  0  0
    7.5059  -14.6113   25.1812 N   0  0  0  0  0  0  0  0  0  0  0  0
    8.5908  -14.2660   27.2696 C   0  0  0  0  0  0  0  0  0  0  0  0
    9.5932  -13.6624   28.0460 O   0  0  0  0  0  0  0  0  0  0  0  0
    8.2220  -15.3967   27.6486 O   0  0  0  0  0  0  0  0  0  0  0  0
  2  4  1  0
  2  1  1  1
  3  2  1  0
  4  5  1  6
  6  7  2  0
  6  4  1  0
  8  6  1  0
  9  8  1  0
  9 10  1  1
 11 15  1  0
 11 10  1  0
 12 11  2  0
 13 12  1  0
 13 14  1  0
 14 15  2  0
 16 22  1  0
 16  9  1  0
 17 16  2  0
 19 21  1  0
 19 18  1  6
 20 19  1  0
 21 23  1  0
 21 22  1  6
 23 24  1  0
 25 23  2  0
M  END
$$$$
