VHV.pdb
     RDKit          3D

 25 25  0  0  1  0  0  0  0  0999 V2000
    7.9100  -11.7084   25.1960 C   0  0  0  0  0  0  0  0  0  0  0  0
    6.6644  -12.0832   25.9497 C   0  0  1  0  0  0  0  0  0  0  0  0
    5.7076  -10.9100   25.9687 C   0  0  0  0  0  0  0  0  0  0  0  0
    5.9443  -13.2334   25.2755 C   0  0  2  0  0  0  0  0  0  0  0  0
    4.7610  -13.5891   26.1025 N   0  0  0  0  0  0  0  0  0  0  0  0
    6.7527  -14.4733   25.2038 C   0  0  0  0  0  0  0  0  0  0  0  0
    6.7719  -15.2588   26.2184 O   0  0  0  0  0  0  0  0  0  0  0  0
    7.5230  -14.9007   24.1159 N   0  0  0  0  0  0  0  0  0  0  0  0
    8.3936  -16.1032   24.1999 C   0  0  1  0  0  0  0  0  0  0  0  0
    8.7628  -16.3983   22.7962 C   0  0  0  0  0  0  0  0  0  0  0  0
    9.5848  -17.6025   22.5772 C   0  0  0  0  0  0  0  0  0  0  0  0
   10.1361  -18.4402   23.5233 C   0  0  0  0  0  0  0  0  0  0  0  0
   10.8191  -19.3734   22.8404 N   0  0  0  0  0  0  0  0  0  0  0  0
   10.6940  -19.1220   21.5379 C   0  0  0  0  0  0  0  0  0  0  0  0
    9.9397  -18.0376   21.3371 N   0  0  0  0  0  0  0  0  0  0  0  0
    9.4411  -15.8965   25.1783 C   0  0  0  0  0  0  0  0  0  0  0  0
   10.2476  -14.9164   24.9571 O   0  0  0  0  0  0  0  0  0  0  0  0
   11.0574  -15.1187   29.4400 C   0  0  0  0  0  0  0  0  0  0  0  0
   10.1304  -15.2777   28.2692 C   0  0  1  0  0  0  0  0  0  0  0  0
    9.7312  -13.9834   27.6310 C   0  0  0  0  0  0  0  0  0  0  0  0
   10.7747  -16.2280   27.2522 C   0  0  2  0  0  0  0  0  0  0  0  0
    9.7104  -16.6142   26.3542 N   0  0  0  0  0  0  0  0  0  0  0  0
   11.3024  -17.4261   27.9240 C   0  0  0  0  0  0  0  0  0  0  0  0
   12.5855  -17.4581   28.4936 O   0  0  0  0  0  0  0  0  0  0  0  0
   10.6405  -18.4796   28.0252 O   0  0  0  0  0  0  0  0  0  0  0  0
  2  4  1  0
  2  1  1  6
  3  2  1  0
  4  5  1  1
  6  7  2  0
  6  4  1  0
  8  6  1  0
  9  8  1  0
  9 10  1  6
 11 15  1  0
 11 10  1  0
 12 11  2  0
 13 12  1  0
 13 14  1  0
 14 15  2  0
 16 22  1  0
 16  9  1  0
 17 16  2  0
 19 21  1  0
 19 18  1  1
 20 19  1  0
 21 23  1  0
 21 22  1  6
 23 24  1  0
 25 23  2  0
M  END
$$$$
