VHV.pdb
     RDKit          3D

 25 25  0  0  1  0  0  0  0  0999 V2000
    7.0119  -12.6698   19.2531 C   0  0  0  0  0  0  0  0  0  0  0  0
    7.8552  -13.8265   18.7936 C   0  0  1  0  0  0  0  0  0  0  0  0
    8.6298  -13.4320   17.5541 C   0  0  0  0  0  0  0  0  0  0  0  0
    8.8716  -14.2133   19.8488 C   0  0  2  0  0  0  0  0  0  0  0  0
    9.6186  -15.4025   19.3601 N   0  0  0  0  0  0  0  0  0  0  0  0
    8.2586  -14.6409   21.1284 C   0  0  0  0  0  0  0  0  0  0  0  0
    7.5558  -13.7957   21.7906 O   0  0  0  0  0  0  0  0  0  0  0  0
    8.3613  -15.9072   21.7162 N   0  0  0  0  0  0  0  0  0  0  0  0
    7.6547  -16.2406   22.9813 C   0  0  1  0  0  0  0  0  0  0  0  0
    7.6881  -17.7196   23.0516 C   0  0  0  0  0  0  0  0  0  0  0  0
    9.0209  -18.3365   23.1826 C   0  0  0  0  0  0  0  0  0  0  0  0
   10.2506  -17.7680   22.9274 C   0  0  0  0  0  0  0  0  0  0  0  0
   11.1598  -18.7279   23.1631 N   0  0  0  0  0  0  0  0  0  0  0  0
   10.5206  -19.8329   23.5447 C   0  0  0  0  0  0  0  0  0  0  0  0
    9.2002  -19.6297   23.5685 N   0  0  0  0  0  0  0  0  0  0  0  0
    8.1990  -15.4677   24.0784 C   0  0  0  0  0  0  0  0  0  0  0  0
    9.4432  -15.1447   23.9909 O   0  0  0  0  0  0  0  0  0  0  0  0
    7.7273  -12.0878   27.5120 C   0  0  0  0  0  0  0  0  0  0  0  0
    7.1424  -13.0535   26.5218 C   0  0  1  0  0  0  0  0  0  0  0  0
    6.5673  -12.3999   25.3036 C   0  0  0  0  0  0  0  0  0  0  0  0
    8.2103  -14.0897   26.1497 C   0  0  2  0  0  0  0  0  0  0  0  0
    7.5610  -15.0062   25.2404 N   0  0  0  0  0  0  0  0  0  0  0  0
    8.6577  -14.8248   27.3433 C   0  0  0  0  0  0  0  0  0  0  0  0
    9.7289  -14.3806   28.1352 O   0  0  0  0  0  0  0  0  0  0  0  0
    8.1113  -15.8825   27.7186 O   0  0  0  0  0  0  0  0  0  0  0  0
  2  4  1  0
  2  1  1  1
  3  2  1  0
  4  5  1  6
  6  7  2  0
  6  4  1  0
  8  6  1  0
  9  8  1  0
  9 10  1  1
 11 15  1  0
 11 10  1  0
 12 11  2  0
 13 12  1  0
 13 14  1  0
 14 15  2  0
 16 22  1  0
 16  9  1  0
 17 16  2  0
 19 21  1  0
 19 18  1  1
 20 19  1  0
 21 23  1  0
 21 22  1  6
 23 24  1  0
 25 23  2  0
M  END
$$$$
