VHV.pdb
     RDKit          3D

 25 25  0  0  1  0  0  0  0  0999 V2000
    8.2375  -12.3966   20.5219 C   0  0  0  0  0  0  0  0  0  0  0  0
    7.7288  -13.4069   19.5317 C   0  0  1  0  0  0  0  0  0  0  0  0
    8.0288  -12.9371   18.1241 C   0  0  0  0  0  0  0  0  0  0  0  0
    8.4208  -14.7430   19.7116 C   0  0  2  0  0  0  0  0  0  0  0  0
    7.8256  -15.7074   18.7490 N   0  0  0  0  0  0  0  0  0  0  0  0
    8.2010  -15.3450   21.0477 C   0  0  0  0  0  0  0  0  0  0  0  0
    7.0245  -15.7539   21.3562 O   0  0  0  0  0  0  0  0  0  0  0  0
    9.1658  -15.5261   22.0457 N   0  0  0  0  0  0  0  0  0  0  0  0
    8.8203  -16.1089   23.3693 C   0  0  1  0  0  0  0  0  0  0  0  0
    9.5685  -17.3859   23.4243 C   0  0  0  0  0  0  0  0  0  0  0  0
    9.0569  -18.4786   22.5768 C   0  0  0  0  0  0  0  0  0  0  0  0
    7.8747  -19.1754   22.7083 C   0  0  0  0  0  0  0  0  0  0  0  0
    7.8691  -20.0871   21.7222 N   0  0  0  0  0  0  0  0  0  0  0  0
    8.9930  -19.9575   21.0185 C   0  0  0  0  0  0  0  0  0  0  0  0
    9.7504  -18.9755   21.5160 N   0  0  0  0  0  0  0  0  0  0  0  0
    9.0177  -15.1278   24.4162 C   0  0  0  0  0  0  0  0  0  0  0  0
   10.2111  -14.6600   24.5464 O   0  0  0  0  0  0  0  0  0  0  0  0
    7.2317  -11.8813   25.2305 C   0  0  0  0  0  0  0  0  0  0  0  0
    7.3241  -12.6825   26.4974 C   0  0  1  0  0  0  0  0  0  0  0  0
    6.0481  -13.3682   26.8763 C   0  0  0  0  0  0  0  0  0  0  0  0
    8.4800  -13.6824   26.3684 C   0  0  2  0  0  0  0  0  0  0  0  0
    8.0857  -14.5981   25.3223 N   0  0  0  0  0  0  0  0  0  0  0  0
    8.6630  -14.4282   27.6235 C   0  0  0  0  0  0  0  0  0  0  0  0
    9.3223  -13.8731   28.7321 O   0  0  0  0  0  0  0  0  0  0  0  0
    8.2432  -15.5942   27.7733 O   0  0  0  0  0  0  0  0  0  0  0  0
  2  4  1  0
  2  1  1  1
  3  2  1  0
  4  5  1  6
  6  7  2  0
  6  4  1  0
  8  6  1  0
  9  8  1  0
  9 10  1  1
 11 15  1  0
 11 10  1  0
 12 11  2  0
 13 12  1  0
 13 14  1  0
 14 15  2  0
 16 22  1  0
 16  9  1  0
 17 16  2  0
 19 21  1  0
 19 18  1  6
 20 19  1  0
 21 23  1  0
 21 22  1  6
 23 24  1  0
 25 23  2  0
M  END
$$$$
