VHV.pdb
     RDKit          3D

 25 25  0  0  1  0  0  0  0  0999 V2000
    8.3058  -12.4989   20.2910 C   0  0  0  0  0  0  0  0  0  0  0  0
    7.8108  -13.4893   19.2741 C   0  0  1  0  0  0  0  0  0  0  0  0
    8.3716  -13.1438   17.9109 C   0  0  0  0  0  0  0  0  0  0  0  0
    8.2797  -14.8916   19.6054 C   0  0  2  0  0  0  0  0  0  0  0  0
    7.7190  -15.8209   18.5892 N   0  0  0  0  0  0  0  0  0  0  0  0
    7.7736  -15.3900   20.9060 C   0  0  0  0  0  0  0  0  0  0  0  0
    6.5305  -15.6904   21.0121 O   0  0  0  0  0  0  0  0  0  0  0  0
    8.5247  -15.5785   22.0722 N   0  0  0  0  0  0  0  0  0  0  0  0
    7.8889  -15.9851   23.3534 C   0  0  1  0  0  0  0  0  0  0  0  0
    8.1725  -17.4340   23.4702 C   0  0  0  0  0  0  0  0  0  0  0  0
    7.7965  -18.0716   24.7452 C   0  0  0  0  0  0  0  0  0  0  0  0
    7.1836  -17.4947   25.8370 C   0  0  0  0  0  0  0  0  0  0  0  0
    7.0772  -18.4652   26.7593 N   0  0  0  0  0  0  0  0  0  0  0  0
    7.5992  -19.5844   26.2592 C   0  0  0  0  0  0  0  0  0  0  0  0
    8.0529  -19.3803   25.0191 N   0  0  0  0  0  0  0  0  0  0  0  0
    8.2981  -15.0958   24.4206 C   0  0  0  0  0  0  0  0  0  0  0  0
    9.5478  -14.7853   24.4612 O   0  0  0  0  0  0  0  0  0  0  0  0
    6.9596  -11.6982   25.5969 C   0  0  0  0  0  0  0  0  0  0  0  0
    7.0821  -12.6090   26.7846 C   0  0  1  0  0  0  0  0  0  0  0  0
    5.7820  -13.2028   27.2308 C   0  0  0  0  0  0  0  0  0  0  0  0
    8.1160  -13.6974   26.4702 C   0  0  2  0  0  0  0  0  0  0  0  0
    7.5219  -14.5080   25.4318 N   0  0  0  0  0  0  0  0  0  0  0  0
    8.3663  -14.5328   27.6553 C   0  0  0  0  0  0  0  0  0  0  0  0
    9.1952  -14.1079   28.7063 O   0  0  0  0  0  0  0  0  0  0  0  0
    7.8570  -15.6640   27.7932 O   0  0  0  0  0  0  0  0  0  0  0  0
  2  4  1  0
  2  1  1  1
  3  2  1  0
  4  5  1  6
  6  7  2  0
  6  4  1  0
  8  6  1  0
  9  8  1  0
  9 10  1  1
 11 15  1  0
 11 10  1  0
 12 11  2  0
 13 12  1  0
 13 14  1  0
 14 15  2  0
 16 22  1  0
 16  9  1  0
 17 16  2  0
 19 21  1  0
 19 18  1  6
 20 19  1  0
 21 23  1  0
 21 22  1  6
 23 24  1  0
 25 23  2  0
M  END
$$$$
