VHV.pdb
     RDKit          3D

 25 25  0  0  1  0  0  0  0  0999 V2000
    8.2852  -12.2657   20.7124 C   0  0  0  0  0  0  0  0  0  0  0  0
    7.6931  -13.2640   19.7569 C   0  0  1  0  0  0  0  0  0  0  0  0
    7.7113  -12.6985   18.3527 C   0  0  0  0  0  0  0  0  0  0  0  0
    8.5055  -14.5430   19.7318 C   0  0  2  0  0  0  0  0  0  0  0  0
    7.8764  -15.4735   18.7574 N   0  0  0  0  0  0  0  0  0  0  0  0
    8.4975  -15.2712   21.0223 C   0  0  0  0  0  0  0  0  0  0  0  0
    7.4154  -15.8479   21.4007 O   0  0  0  0  0  0  0  0  0  0  0  0
    9.5751  -15.4078   21.9054 N   0  0  0  0  0  0  0  0  0  0  0  0
    9.4358  -16.1199   23.2033 C   0  0  1  0  0  0  0  0  0  0  0  0
   10.4289  -17.2167   23.1383 C   0  0  0  0  0  0  0  0  0  0  0  0
   10.0471  -18.3961   22.3403 C   0  0  0  0  0  0  0  0  0  0  0  0
    8.8931  -18.5938   21.6124 C   0  0  0  0  0  0  0  0  0  0  0  0
    8.9916  -19.8260   21.0873 N   0  0  0  0  0  0  0  0  0  0  0  0
   10.1495  -20.3601   21.4733 C   0  0  0  0  0  0  0  0  0  0  0  0
   10.8275  -19.5077   22.2472 N   0  0  0  0  0  0  0  0  0  0  0  0
    9.4936  -15.1773   24.3012 C   0  0  0  0  0  0  0  0  0  0  0  0
   10.5329  -14.4175   24.3509 O   0  0  0  0  0  0  0  0  0  0  0  0
    7.4719  -12.3135   25.2762 C   0  0  0  0  0  0  0  0  0  0  0  0
    7.5805  -13.1554   26.5150 C   0  0  1  0  0  0  0  0  0  0  0  0
    6.3609  -13.9762   26.7999 C   0  0  0  0  0  0  0  0  0  0  0  0
    8.8339  -14.0332   26.4096 C   0  0  2  0  0  0  0  0  0  0  0  0
    8.5680  -14.9611   25.3341 N   0  0  0  0  0  0  0  0  0  0  0  0
    9.0478  -14.7836   27.6570 C   0  0  0  0  0  0  0  0  0  0  0  0
    9.5868  -14.1829   28.8062 O   0  0  0  0  0  0  0  0  0  0  0  0
    8.7628  -15.9942   27.7640 O   0  0  0  0  0  0  0  0  0  0  0  0
  2  4  1  0
  2  1  1  1
  3  2  1  0
  4  5  1  6
  6  7  2  0
  6  4  1  0
  8  6  1  0
  9  8  1  0
  9 10  1  1
 11 15  1  0
 11 10  1  0
 12 11  2  0
 13 12  1  0
 13 14  1  0
 14 15  2  0
 16 22  1  0
 16  9  1  0
 17 16  2  0
 19 21  1  0
 19 18  1  6
 20 19  1  0
 21 23  1  0
 21 22  1  6
 23 24  1  0
 25 23  2  0
M  END
$$$$
