VHV.pdb
     RDKit          3D

 25 25  0  0  1  0  0  0  0  0999 V2000
    8.3827  -12.3343   20.4406 C   0  0  0  0  0  0  0  0  0  0  0  0
    7.9573  -13.2052   19.2914 C   0  0  1  0  0  0  0  0  0  0  0  0
    7.3094  -12.3546   18.2197 C   0  0  0  0  0  0  0  0  0  0  0  0
    9.1502  -13.8897   18.6552 C   0  0  2  0  0  0  0  0  0  0  0  0
    8.6613  -14.7114   17.5165 N   0  0  0  0  0  0  0  0  0  0  0  0
    9.8309  -14.8470   19.5586 C   0  0  0  0  0  0  0  0  0  0  0  0
    9.2891  -15.9911   19.7693 O   0  0  0  0  0  0  0  0  0  0  0  0
   11.0413  -14.6382   20.2301 N   0  0  0  0  0  0  0  0  0  0  0  0
   11.6505  -15.6895   21.0871 C   0  0  1  0  0  0  0  0  0  0  0  0
   13.1055  -15.5875   20.8295 C   0  0  0  0  0  0  0  0  0  0  0  0
   13.5428  -15.8470   19.4456 C   0  0  0  0  0  0  0  0  0  0  0  0
   14.0621  -14.9516   18.5351 C   0  0  0  0  0  0  0  0  0  0  0  0
   14.2793  -15.6505   17.4090 N   0  0  0  0  0  0  0  0  0  0  0  0
   13.9116  -16.9142   17.6168 C   0  0  0  0  0  0  0  0  0  0  0  0
   13.4523  -17.0733   18.8614 N   0  0  0  0  0  0  0  0  0  0  0  0
   11.1628  -15.5740   22.4457 C   0  0  0  0  0  0  0  0  0  0  0  0
   11.7463  -14.7011   23.1925 O   0  0  0  0  0  0  0  0  0  0  0  0
    8.0116  -14.4981   23.7589 C   0  0  0  0  0  0  0  0  0  0  0  0
    8.2844  -15.7825   24.4879 C   0  0  1  0  0  0  0  0  0  0  0  0
    7.5120  -16.9535   23.9643 C   0  0  0  0  0  0  0  0  0  0  0  0
    9.7940  -16.0532   24.4672 C   0  0  2  0  0  0  0  0  0  0  0  0
   10.1283  -16.2799   23.0797 N   0  0  0  0  0  0  0  0  0  0  0  0
   10.1154  -17.2586   25.2475 C   0  0  0  0  0  0  0  0  0  0  0  0
   10.5709  -18.4405   24.6413 O   0  0  0  0  0  0  0  0  0  0  0  0
   10.0016  -17.2984   26.4900 O   0  0  0  0  0  0  0  0  0  0  0  0
  2  4  1  0
  2  1  1  1
  3  2  1  0
  4  5  1  6
  6  7  2  0
  6  4  1  0
  8  6  1  0
  9  8  1  0
  9 10  1  1
 11 15  1  0
 11 10  1  0
 12 11  2  0
 13 12  1  0
 13 14  1  0
 14 15  2  0
 16 22  1  0
 16  9  1  0
 17 16  2  0
 19 21  1  0
 19 18  1  6
 20 19  1  0
 21 23  1  0
 21 22  1  6
 23 24  1  0
 25 23  2  0
M  END
$$$$
