DWT.pdb
     RDKit          3D

 30 31  0  0  1  0  0  0  0  0999 V2000
    9.5533  -17.8739   20.6950 N   0  0  0  0  0  0  0  0  0  0  0  0
   10.7609  -17.2603   21.1892 C   0  0  1  0  0  0  0  0  0  0  0  0
   11.0467  -16.0570   20.2936 C   0  0  0  0  0  0  0  0  0  0  0  0
   11.8594  -16.5452   19.1652 C   0  0  0  0  0  0  0  0  0  0  0  0
   11.9208  -15.8758   18.1158 O   0  0  0  0  0  0  0  0  0  0  0  0
   10.6402  -16.8512   22.6230 C   0  0  0  0  0  0  0  0  0  0  0  0
   11.6495  -16.3431   23.1578 O   0  0  0  0  0  0  0  0  0  0  0  0
   12.5487  -17.7317   19.2613 O   0  0  0  0  0  0  0  0  0  0  0  0
    9.4397  -17.0270   23.3540 N   0  0  0  0  0  0  0  0  0  0  0  0
    9.2772  -16.8644   24.7734 C   0  0  1  0  0  0  0  0  0  0  0  0
    7.8635  -16.4898   25.1986 C   0  0  0  0  0  0  0  0  0  0  0  0
    7.5056  -15.1710   24.6486 C   0  0  0  0  0  0  0  0  0  0  0  0
    7.3228  -14.7839   23.3741 C   0  0  0  0  0  0  0  0  0  0  0  0
    6.9943  -13.4587   23.3382 N   0  0  0  0  0  0  0  0  0  0  0  0
    6.9657  -12.9918   24.5986 C   0  0  0  0  0  0  0  0  0  0  0  0
    6.6964  -11.7540   25.1489 C   0  0  0  0  0  0  0  0  0  0  0  0
    6.7396  -11.5624   26.5189 C   0  0  0  0  0  0  0  0  0  0  0  0
    7.0518  -12.6062   27.3447 C   0  0  0  0  0  0  0  0  0  0  0  0
    7.3288  -13.8695   26.8079 C   0  0  0  0  0  0  0  0  0  0  0  0
    7.2831  -14.0474   25.4439 C   0  0  0  0  0  0  0  0  0  0  0  0
    9.8923  -17.8943   25.5959 C   0  0  0  0  0  0  0  0  0  0  0  0
    9.5022  -19.1137   25.5928 O   0  0  0  0  0  0  0  0  0  0  0  0
   13.9165  -19.4654   27.8797 C   0  0  0  0  0  0  0  0  0  0  0  0
   13.0894  -18.5196   27.0783 C   0  0  1  0  0  0  0  0  0  0  0  0
   13.3604  -18.7072   25.7113 O   0  0  0  0  0  0  0  0  0  0  0  0
   11.6073  -18.6215   27.2858 C   0  0  2  0  0  0  0  0  0  0  0  0
   10.9656  -17.6133   26.4547 N   0  0  0  0  0  0  0  0  0  0  0  0
   11.1915  -18.5422   28.6851 C   0  0  0  0  0  0  0  0  0  0  0  0
   11.4224  -19.5254   29.6314 O   0  0  0  0  0  0  0  0  0  0  0  0
   10.5784  -17.5148   29.0784 O   0  0  0  0  0  0  0  0  0  0  0  0
  2  1  1  6
  2  3  1  0
  4  3  1  0
  5  4  2  0
  6  9  1  0
  6  2  1  0
  7  6  2  0
  8  4  1  0
 10  9  1  0
 11 12  1  0
 10 11  1  6
 12 13  2  0
 12 20  1  0
 13 14  1  0
 14 15  1  0
 15 16  2  0
 16 17  1  0
 18 17  2  0
 19 18  1  0
 20 19  2  0
 20 15  1  0
 21 22  2  0
 21 10  1  0
 24 23  1  1
 24 25  1  0
 24 26  1  0
 26 27  1  6
 26 28  1  0
 27 21  1  0
 28 29  1  0
 30 28  2  0
M  END
$$$$
