DWT.pdb
     RDKit          3D

 30 31  0  0  1  0  0  0  0  0999 V2000
    7.9884  -17.3360   21.3012 N   0  0  0  0  0  0  0  0  0  0  0  0
    9.2730  -16.7041   21.4727 C   0  0  1  0  0  0  0  0  0  0  0  0
    9.2620  -15.4364   20.6216 C   0  0  0  0  0  0  0  0  0  0  0  0
    9.1823  -15.8652   19.2138 C   0  0  0  0  0  0  0  0  0  0  0  0
   10.1932  -15.7888   18.4889 O   0  0  0  0  0  0  0  0  0  0  0  0
    9.5610  -16.3906   22.9067 C   0  0  0  0  0  0  0  0  0  0  0  0
   10.4656  -15.5593   23.1380 O   0  0  0  0  0  0  0  0  0  0  0  0
    8.0031  -16.3475   18.6951 O   0  0  0  0  0  0  0  0  0  0  0  0
    8.8468  -17.0030   23.9657 N   0  0  0  0  0  0  0  0  0  0  0  0
    9.2209  -17.0046   25.3541 C   0  0  1  0  0  0  0  0  0  0  0  0
    8.1002  -16.5951   26.3006 C   0  0  0  0  0  0  0  0  0  0  0  0
    7.2662  -15.5558   25.6730 C   0  0  0  0  0  0  0  0  0  0  0  0
    6.2198  -15.6719   24.8369 C   0  0  0  0  0  0  0  0  0  0  0  0
    5.7503  -14.4312   24.5120 N   0  0  0  0  0  0  0  0  0  0  0  0
    6.5003  -13.5120   25.1444 C   0  0  0  0  0  0  0  0  0  0  0  0
    6.4799  -12.1317   25.1852 C   0  0  0  0  0  0  0  0  0  0  0  0
    7.3985  -11.4310   25.9472 C   0  0  0  0  0  0  0  0  0  0  0  0
    8.3410  -12.1061   26.6716 C   0  0  0  0  0  0  0  0  0  0  0  0
    8.3801  -13.5056   26.6443 C   0  0  0  0  0  0  0  0  0  0  0  0
    7.4615  -14.1910   25.8823 C   0  0  0  0  0  0  0  0  0  0  0  0
    9.9791  -18.1642   25.7966 C   0  0  0  0  0  0  0  0  0  0  0  0
    9.5312  -19.3610   25.7177 O   0  0  0  0  0  0  0  0  0  0  0  0
   13.3962  -19.3302   24.8437 C   0  0  0  0  0  0  0  0  0  0  0  0
   13.3576  -19.2019   26.3279 C   0  0  1  0  0  0  0  0  0  0  0  0
   14.0517  -18.0412   26.7132 O   0  0  0  0  0  0  0  0  0  0  0  0
   11.9878  -19.1590   26.9375 C   0  0  2  0  0  0  0  0  0  0  0  0
   11.2653  -18.0434   26.3441 N   0  0  0  0  0  0  0  0  0  0  0  0
   11.9835  -19.1161   28.3989 C   0  0  0  0  0  0  0  0  0  0  0  0
   12.4031  -20.1500   29.2176 O   0  0  0  0  0  0  0  0  0  0  0  0
   11.5728  -18.0736   28.9738 O   0  0  0  0  0  0  0  0  0  0  0  0
  2  1  1  1
  2  3  1  0
  4  3  1  0
  5  4  2  0
  6  9  1  0
  6  2  1  0
  7  6  2  0
  8  4  1  0
 10  9  1  0
 11 12  1  0
 10 11  1  1
 12 13  2  0
 12 20  1  0
 13 14  1  0
 14 15  1  0
 15 16  2  0
 16 17  1  0
 18 17  2  0
 19 18  1  0
 20 19  2  0
 20 15  1  0
 21 22  2  0
 21 10  1  0
 24 23  1  6
 24 25  1  0
 24 26  1  0
 26 27  1  6
 26 28  1  0
 27 21  1  0
 28 29  1  0
 30 28  2  0
M  END
$$$$
