DWT.pdb
     RDKit          3D

 30 31  0  0  1  0  0  0  0  0999 V2000
    9.8802  -17.6332   21.4826 N   0  0  0  0  0  0  0  0  0  0  0  0
   11.0114  -17.2138   22.2722 C   0  0  1  0  0  0  0  0  0  0  0  0
   11.5989  -15.9817   21.5877 C   0  0  0  0  0  0  0  0  0  0  0  0
   12.4453  -16.4669   20.4831 C   0  0  0  0  0  0  0  0  0  0  0  0
   13.2143  -17.4290   20.6737 O   0  0  0  0  0  0  0  0  0  0  0  0
   10.6322  -16.9168   23.6884 C   0  0  0  0  0  0  0  0  0  0  0  0
   11.5225  -16.4484   24.4308 O   0  0  0  0  0  0  0  0  0  0  0  0
   12.3932  -15.8671   19.2463 O   0  0  0  0  0  0  0  0  0  0  0  0
    9.3245  -17.1522   24.1793 N   0  0  0  0  0  0  0  0  0  0  0  0
    8.8826  -16.9818   25.5369 C   0  0  1  0  0  0  0  0  0  0  0  0
    7.4519  -16.4758   25.6664 C   0  0  0  0  0  0  0  0  0  0  0  0
    7.3045  -15.1958   24.9526 C   0  0  0  0  0  0  0  0  0  0  0  0
    7.3275  -14.9304   23.6348 C   0  0  0  0  0  0  0  0  0  0  0  0
    7.1437  -13.5924   23.4314 N   0  0  0  0  0  0  0  0  0  0  0  0
    7.0014  -12.9946   24.6271 C   0  0  0  0  0  0  0  0  0  0  0  0
    6.7917  -11.6867   25.0181 C   0  0  0  0  0  0  0  0  0  0  0  0
    6.6779  -11.3563   26.3573 C   0  0  0  0  0  0  0  0  0  0  0  0
    6.7731  -12.3310   27.3112 C   0  0  0  0  0  0  0  0  0  0  0  0
    6.9859  -13.6634   26.9370 C   0  0  0  0  0  0  0  0  0  0  0  0
    7.0978  -13.9793   25.6021 C   0  0  0  0  0  0  0  0  0  0  0  0
    9.2129  -18.0698   26.4439 C   0  0  0  0  0  0  0  0  0  0  0  0
    8.4367  -19.0673   26.6473 O   0  0  0  0  0  0  0  0  0  0  0  0
   11.6799  -20.5454   26.2154 C   0  0  0  0  0  0  0  0  0  0  0  0
   11.9137  -19.9217   27.5485 C   0  0  1  0  0  0  0  0  0  0  0  0
   13.0286  -19.0681   27.4742 O   0  0  0  0  0  0  0  0  0  0  0  0
   10.7595  -19.1457   28.1102 C   0  0  2  0  0  0  0  0  0  0  0  0
   10.4182  -18.0956   27.1616 N   0  0  0  0  0  0  0  0  0  0  0  0
   10.9842  -18.6306   29.4599 C   0  0  0  0  0  0  0  0  0  0  0  0
   11.1266  -19.4181   30.5890 O   0  0  0  0  0  0  0  0  0  0  0  0
   11.0567  -17.3848   29.6293 O   0  0  0  0  0  0  0  0  0  0  0  0
  2  1  1  6
  2  3  1  0
  4  3  1  0
  5  4  2  0
  6  9  1  0
  6  2  1  0
  7  6  2  0
  8  4  1  0
 10  9  1  0
 11 12  1  0
 10 11  1  6
 12 13  2  0
 12 20  1  0
 13 14  1  0
 14 15  1  0
 15 16  2  0
 16 17  1  0
 18 17  2  0
 19 18  1  0
 20 19  2  0
 20 15  1  0
 21 22  2  0
 21 10  1  0
 24 23  1  6
 24 25  1  0
 24 26  1  0
 26 27  1  6
 26 28  1  0
 27 21  1  0
 28 29  1  0
 30 28  2  0
M  END
$$$$
