DWT.pdb
     RDKit          3D

 30 31  0  0  1  0  0  0  0  0999 V2000
   10.8256  -16.2860   20.4066 N   0  0  0  0  0  0  0  0  0  0  0  0
   10.5603  -17.3946   21.2896 C   0  0  1  0  0  0  0  0  0  0  0  0
   11.7614  -18.3329   21.1983 C   0  0  0  0  0  0  0  0  0  0  0  0
   11.7541  -18.9088   19.8417 C   0  0  0  0  0  0  0  0  0  0  0  0
   12.6955  -18.6621   19.0632 O   0  0  0  0  0  0  0  0  0  0  0  0
   10.3265  -16.9503   22.6988 C   0  0  0  0  0  0  0  0  0  0  0  0
   11.2812  -16.3991   23.2886 O   0  0  0  0  0  0  0  0  0  0  0  0
   10.7182  -19.7144   19.4292 O   0  0  0  0  0  0  0  0  0  0  0  0
    9.0820  -17.1408   23.3480 N   0  0  0  0  0  0  0  0  0  0  0  0
    8.7870  -16.8453   24.7239 C   0  0  1  0  0  0  0  0  0  0  0  0
    7.3806  -16.3094   24.9571 C   0  0  0  0  0  0  0  0  0  0  0  0
    7.2839  -14.9220   24.4718 C   0  0  0  0  0  0  0  0  0  0  0  0
    7.2896  -14.4403   23.2166 C   0  0  0  0  0  0  0  0  0  0  0  0
    7.1719  -13.0799   23.2451 N   0  0  0  0  0  0  0  0  0  0  0  0
    7.0897  -12.6854   24.5277 C   0  0  0  0  0  0  0  0  0  0  0  0
    6.9585  -11.4534   25.1377 C   0  0  0  0  0  0  0  0  0  0  0  0
    6.8940  -11.3477   26.5162 C   0  0  0  0  0  0  0  0  0  0  0  0
    6.9602  -12.4723   27.2908 C   0  0  0  0  0  0  0  0  0  0  0  0
    7.0936  -13.7315   26.6931 C   0  0  0  0  0  0  0  0  0  0  0  0
    7.1571  -13.8235   25.3213 C   0  0  0  0  0  0  0  0  0  0  0  0
    9.2059  -17.8539   25.6844 C   0  0  0  0  0  0  0  0  0  0  0  0
    8.7843  -19.0624   25.6543 O   0  0  0  0  0  0  0  0  0  0  0  0
   12.7203  -20.0611   27.7704 C   0  0  0  0  0  0  0  0  0  0  0  0
   11.9552  -19.0639   26.9697 C   0  0  1  0  0  0  0  0  0  0  0  0
   11.6574  -19.6093   25.7083 O   0  0  0  0  0  0  0  0  0  0  0  0
   10.6781  -18.5799   27.5900 C   0  0  2  0  0  0  0  0  0  0  0  0
   10.1102  -17.5630   26.7170 N   0  0  0  0  0  0  0  0  0  0  0  0
   10.8197  -18.1186   28.9701 C   0  0  0  0  0  0  0  0  0  0  0  0
   11.1294  -18.9342   30.0444 O   0  0  0  0  0  0  0  0  0  0  0  0
   10.6522  -16.8959   29.2211 O   0  0  0  0  0  0  0  0  0  0  0  0
  2  1  1  6
  2  3  1  0
  4  3  1  0
  5  4  2  0
  6  9  1  0
  6  2  1  0
  7  6  2  0
  8  4  1  0
 10  9  1  0
 11 12  1  0
 10 11  1  6
 12 13  2  0
 12 20  1  0
 13 14  1  0
 14 15  1  0
 15 16  2  0
 16 17  1  0
 18 17  2  0
 19 18  1  0
 20 19  2  0
 20 15  1  0
 21 22  2  0
 21 10  1  0
 24 23  1  1
 24 25  1  0
 24 26  1  0
 26 27  1  6
 26 28  1  0
 27 21  1  0
 28 29  1  0
 30 28  2  0
M  END
$$$$
