DWT.pdb
     RDKit          3D

 30 31  0  0  1  0  0  0  0  0999 V2000
   10.2839  -17.7171   21.5818 N   0  0  0  0  0  0  0  0  0  0  0  0
   11.2344  -16.8585   22.2438 C   0  0  1  0  0  0  0  0  0  0  0  0
   11.4667  -15.6609   21.3253 C   0  0  0  0  0  0  0  0  0  0  0  0
   12.2716  -16.1418   20.1883 C   0  0  0  0  0  0  0  0  0  0  0  0
   11.7043  -16.6688   19.2117 O   0  0  0  0  0  0  0  0  0  0  0  0
   10.7567  -16.4215   23.5923 C   0  0  0  0  0  0  0  0  0  0  0  0
   11.4350  -15.5537   24.1838 O   0  0  0  0  0  0  0  0  0  0  0  0
   13.6411  -16.0138   20.1969 O   0  0  0  0  0  0  0  0  0  0  0  0
    9.5882  -16.9606   24.1844 N   0  0  0  0  0  0  0  0  0  0  0  0
    9.0946  -16.6748   25.5043 C   0  0  1  0  0  0  0  0  0  0  0  0
    7.6150  -16.3166   25.5509 C   0  0  0  0  0  0  0  0  0  0  0  0
    7.3807  -15.0522   24.8325 C   0  0  0  0  0  0  0  0  0  0  0  0
    7.3742  -14.7931   23.5132 C   0  0  0  0  0  0  0  0  0  0  0  0
    7.1049  -13.4704   23.3052 N   0  0  0  0  0  0  0  0  0  0  0  0
    6.9369  -12.8762   24.4993 C   0  0  0  0  0  0  0  0  0  0  0  0
    6.6492  -11.5819   24.8860 C   0  0  0  0  0  0  0  0  0  0  0  0
    6.5278  -11.2520   26.2247 C   0  0  0  0  0  0  0  0  0  0  0  0
    6.6932  -12.2136   27.1823 C   0  0  0  0  0  0  0  0  0  0  0  0
    6.9856  -13.5320   26.8125 C   0  0  0  0  0  0  0  0  0  0  0  0
    7.1043  -13.8475   25.4781 C   0  0  0  0  0  0  0  0  0  0  0  0
    9.5153  -17.6007   26.5440 C   0  0  0  0  0  0  0  0  0  0  0  0
    8.9479  -17.6664   27.6898 O   0  0  0  0  0  0  0  0  0  0  0  0
   10.5374  -21.3567   25.6776 C   0  0  0  0  0  0  0  0  0  0  0  0
   11.5004  -20.6872   26.5969 C   0  0  1  0  0  0  0  0  0  0  0  0
   12.6361  -20.2870   25.8707 O   0  0  0  0  0  0  0  0  0  0  0  0
   10.9668  -19.4960   27.3360 C   0  0  2  0  0  0  0  0  0  0  0  0
   10.5822  -18.4920   26.3546 N   0  0  0  0  0  0  0  0  0  0  0  0
   11.8734  -18.9669   28.3536 C   0  0  0  0  0  0  0  0  0  0  0  0
   12.2394  -19.6384   29.5070 O   0  0  0  0  0  0  0  0  0  0  0  0
   12.3678  -17.8205   28.1884 O   0  0  0  0  0  0  0  0  0  0  0  0
  2  1  1  6
  2  3  1  0
  4  3  1  0
  5  4  2  0
  6  9  1  0
  6  2  1  0
  7  6  2  0
  8  4  1  0
 10  9  1  0
 11 12  1  0
 10 11  1  6
 12 13  2  0
 12 20  1  0
 13 14  1  0
 14 15  1  0
 15 16  2  0
 16 17  1  0
 18 17  2  0
 19 18  1  0
 20 19  2  0
 20 15  1  0
 21 22  2  0
 21 10  1  0
 24 23  1  6
 24 25  1  0
 24 26  1  0
 26 27  1  6
 26 28  1  0
 27 21  1  0
 28 29  1  0
 30 28  2  0
M  END
$$$$
