DWT.pdb
     RDKit          3D

 30 31  0  0  1  0  0  0  0  0999 V2000
    9.9358  -17.3241   21.3150 N   0  0  0  0  0  0  0  0  0  0  0  0
   11.0763  -17.1137   22.1717 C   0  0  1  0  0  0  0  0  0  0  0  0
   11.9025  -15.9930   21.5446 C   0  0  0  0  0  0  0  0  0  0  0  0
   12.4696  -16.5264   20.2932 C   0  0  0  0  0  0  0  0  0  0  0  0
   11.8740  -17.4379   19.6869 O   0  0  0  0  0  0  0  0  0  0  0  0
   10.6753  -16.7720   23.5717 C   0  0  0  0  0  0  0  0  0  0  0  0
   11.5238  -16.1903   24.2820 O   0  0  0  0  0  0  0  0  0  0  0  0
   13.6487  -16.0269   19.7908 O   0  0  0  0  0  0  0  0  0  0  0  0
    9.3926  -17.0889   24.0824 N   0  0  0  0  0  0  0  0  0  0  0  0
    8.9400  -16.8828   25.4315 C   0  0  1  0  0  0  0  0  0  0  0  0
    7.5094  -16.3708   25.5362 C   0  0  0  0  0  0  0  0  0  0  0  0
    7.3716  -15.1073   24.7916 C   0  0  0  0  0  0  0  0  0  0  0  0
    7.3381  -14.8812   23.4667 C   0  0  0  0  0  0  0  0  0  0  0  0
    7.1915  -13.5438   23.2316 N   0  0  0  0  0  0  0  0  0  0  0  0
    7.1301  -12.9069   24.4140 C   0  0  0  0  0  0  0  0  0  0  0  0
    6.9861  -11.5815   24.7744 C   0  0  0  0  0  0  0  0  0  0  0  0
    6.9509  -11.2086   26.1068 C   0  0  0  0  0  0  0  0  0  0  0  0
    7.0593  -12.1581   27.0844 C   0  0  0  0  0  0  0  0  0  0  0  0
    7.2063  -13.5077   26.7413 C   0  0  0  0  0  0  0  0  0  0  0  0
    7.2404  -13.8659   25.4128 C   0  0  0  0  0  0  0  0  0  0  0  0
    9.2605  -17.9478   26.3688 C   0  0  0  0  0  0  0  0  0  0  0  0
    8.4450  -18.8921   26.6558 O   0  0  0  0  0  0  0  0  0  0  0  0
   11.9194  -20.3151   25.9544 C   0  0  0  0  0  0  0  0  0  0  0  0
   12.0874  -19.7706   27.3315 C   0  0  1  0  0  0  0  0  0  0  0  0
   13.1537  -18.8540   27.3430 O   0  0  0  0  0  0  0  0  0  0  0  0
   10.8787  -19.0986   27.9125 C   0  0  2  0  0  0  0  0  0  0  0  0
   10.4990  -18.0089   27.0253 N   0  0  0  0  0  0  0  0  0  0  0  0
   11.0441  -18.6620   29.2979 C   0  0  0  0  0  0  0  0  0  0  0  0
   11.2382  -19.5119   30.3728 O   0  0  0  0  0  0  0  0  0  0  0  0
   11.0109  -17.4293   29.5534 O   0  0  0  0  0  0  0  0  0  0  0  0
  2  1  1  6
  2  3  1  0
  4  3  1  0
  5  4  2  0
  6  9  1  0
  6  2  1  0
  7  6  2  0
  8  4  1  0
 10  9  1  0
 11 12  1  0
 10 11  1  6
 12 13  2  0
 12 20  1  0
 13 14  1  0
 14 15  1  0
 15 16  2  0
 16 17  1  0
 18 17  2  0
 19 18  1  0
 20 19  2  0
 20 15  1  0
 21 22  2  0
 21 10  1  0
 24 23  1  6
 24 25  1  0
 24 26  1  0
 26 27  1  6
 26 28  1  0
 27 21  1  0
 28 29  1  0
 30 28  2  0
M  END
$$$$
