DWT.pdb
     RDKit          3D

 30 31  0  0  1  0  0  0  0  0999 V2000
   10.8834  -16.0601   19.9586 N   0  0  0  0  0  0  0  0  0  0  0  0
   10.5333  -17.1500   20.8352 C   0  0  1  0  0  0  0  0  0  0  0  0
   11.7094  -18.1238   20.8253 C   0  0  0  0  0  0  0  0  0  0  0  0
   11.9546  -18.4865   19.4180 C   0  0  0  0  0  0  0  0  0  0  0  0
   11.0170  -18.4409   18.5983 O   0  0  0  0  0  0  0  0  0  0  0  0
   10.2294  -16.6827   22.2233 C   0  0  0  0  0  0  0  0  0  0  0  0
   11.0847  -15.9624   22.7824 O   0  0  0  0  0  0  0  0  0  0  0  0
   13.2076  -18.8743   19.0037 O   0  0  0  0  0  0  0  0  0  0  0  0
    9.0282  -17.0346   22.8864 N   0  0  0  0  0  0  0  0  0  0  0  0
    8.6688  -16.6886   24.2350 C   0  0  1  0  0  0  0  0  0  0  0  0
    7.2801  -16.0782   24.3713 C   0  0  0  0  0  0  0  0  0  0  0  0
    7.3596  -14.6131   24.2413 C   0  0  0  0  0  0  0  0  0  0  0  0
    7.7128  -13.8541   23.1893 C   0  0  0  0  0  0  0  0  0  0  0  0
    7.6350  -12.5332   23.5279 N   0  0  0  0  0  0  0  0  0  0  0  0
    7.2285  -12.4436   24.8062 C   0  0  0  0  0  0  0  0  0  0  0  0
    6.9796  -11.3816   25.6533 C   0  0  0  0  0  0  0  0  0  0  0  0
    6.5558  -11.5955   26.9533 C   0  0  0  0  0  0  0  0  0  0  0  0
    6.3787  -12.8710   27.4124 C   0  0  0  0  0  0  0  0  0  0  0  0
    6.6256  -13.9624   26.5706 C   0  0  0  0  0  0  0  0  0  0  0  0
    7.0472  -13.7367   25.2800 C   0  0  0  0  0  0  0  0  0  0  0  0
    8.9794  -17.6906   25.2423 C   0  0  0  0  0  0  0  0  0  0  0  0
    8.2245  -18.6970   25.4800 O   0  0  0  0  0  0  0  0  0  0  0  0
   11.6398  -19.9913   25.2039 C   0  0  0  0  0  0  0  0  0  0  0  0
   11.7500  -19.3145   26.5270 C   0  0  1  0  0  0  0  0  0  0  0  0
   12.7890  -18.3680   26.4808 O   0  0  0  0  0  0  0  0  0  0  0  0
   10.5056  -18.6288   27.0078 C   0  0  2  0  0  0  0  0  0  0  0  0
   10.1406  -17.6175   26.0265 N   0  0  0  0  0  0  0  0  0  0  0  0
   10.6055  -18.0860   28.3616 C   0  0  0  0  0  0  0  0  0  0  0  0
   10.7313  -18.8505   29.5084 O   0  0  0  0  0  0  0  0  0  0  0  0
   10.5775  -16.8367   28.5178 O   0  0  0  0  0  0  0  0  0  0  0  0
  2  1  1  6
  2  3  1  0
  4  3  1  0
  5  4  2  0
  6  9  1  0
  6  2  1  0
  7  6  2  0
  8  4  1  0
 10  9  1  0
 11 12  1  0
 10 11  1  6
 12 13  2  0
 12 20  1  0
 13 14  1  0
 14 15  1  0
 15 16  2  0
 16 17  1  0
 18 17  2  0
 19 18  1  0
 20 19  2  0
 20 15  1  0
 21 22  2  0
 21 10  1  0
 24 23  1  6
 24 25  1  0
 24 26  1  0
 26 27  1  6
 26 28  1  0
 27 21  1  0
 28 29  1  0
 30 28  2  0
M  END
$$$$
