QMR.pdb
     RDKit          3D

 29 28  0  0  1  0  0  0  0  0999 V2000
    8.7394  -20.7911   25.1338 N   0  0  0  0  0  0  0  0  0  0  0  0
    7.6151  -20.9306   24.2907 C   0  0  0  0  0  0  0  0  0  0  0  0
    6.9481  -21.9845   24.3327 O   0  0  0  0  0  0  0  0  0  0  0  0
    7.2139  -19.8583   23.3634 C   0  0  0  0  0  0  0  0  0  0  0  0
    5.8052  -19.3512   23.6334 C   0  0  0  0  0  0  0  0  0  0  0  0
    5.5513  -18.2772   22.6008 C   0  0  2  0  0  0  0  0  0  0  0  0
    5.5977  -18.7746   21.2627 N   0  0  0  0  0  0  0  0  0  0  0  0
    6.5643  -17.1798   22.7048 C   0  0  0  0  0  0  0  0  0  0  0  0
    7.5094  -17.0415   21.8781 O   0  0  0  0  0  0  0  0  0  0  0  0
    8.1212  -12.2665   27.8920 C   0  0  0  0  0  0  0  0  0  0  0  0
    6.7566  -12.1748   26.7002 S   0  0  0  0  0  0  0  0  0  0  0  0
    7.3187  -12.8590   25.0954 C   0  0  0  0  0  0  0  0  0  0  0  0
    6.5337  -14.1130   24.8257 C   0  0  0  0  0  0  0  0  0  0  0  0
    7.2842  -15.0679   23.9200 C   0  0  2  0  0  0  0  0  0  0  0  0
    6.4706  -16.2501   23.7718 N   0  0  0  0  0  0  0  0  0  0  0  0
    8.6286  -15.3872   24.4714 C   0  0  0  0  0  0  0  0  0  0  0  0
    9.4350  -14.4496   24.6505 O   0  0  0  0  0  0  0  0  0  0  0  0
   14.0917  -19.9381   23.3783 N   0  0  0  0  0  0  0  0  0  0  0  0
   14.3084  -20.5988   24.6199 C   0  0  0  0  0  0  0  0  0  0  0  0
   15.4941  -20.9621   25.0310 N   0  0  0  0  0  0  0  0  0  0  0  0
   13.2301  -20.9104   25.5100 N   0  0  0  0  0  0  0  0  0  0  0  0
   11.8652  -20.5167   25.2138 C   0  0  0  0  0  0  0  0  0  0  0  0
   11.7277  -19.0858   25.8019 C   0  0  0  0  0  0  0  0  0  0  0  0
   10.3495  -18.5709   25.5850 C   0  0  0  0  0  0  0  0  0  0  0  0
   10.3115  -17.1197   25.2861 C   0  0  2  0  0  0  0  0  0  0  0  0
    8.9952  -16.7104   24.7877 N   0  0  0  0  0  0  0  0  0  0  0  0
   11.4102  -16.5749   24.4668 C   0  0  0  0  0  0  0  0  0  0  0  0
   12.3979  -16.0521   25.0306 O   0  0  0  0  0  0  0  0  0  0  0  0
   11.4176  -16.6026   23.0986 O   0  0  0  0  0  0  0  0  0  0  0  0
  1  2  1  0
  2  3  2  0
  4  5  1  0
  4  2  1  0
  6  7  1  6
  6  5  1  0
  8  6  1  0
  9  8  2  0
 11 10  1  0
 11 12  1  0
 12 13  1  0
 14 13  1  1
 14 15  1  0
 15  8  1  0
 16 17  2  0
 16 14  1  0
 18 19  1  0
 19 21  1  0
 20 19  2  0
 21 22  1  0
 22 23  1  0
 23 24  1  0
 25 24  1  6
 25 26  1  0
 26 16  1  0
 27 25  1  0
 28 27  2  0
 29 27  1  0
M  END
$$$$
