QMR.pdb
     RDKit          3D

 29 28  0  0  1  0  0  0  0  0999 V2000
    9.6279  -13.9716   17.3385 N   0  0  0  0  0  0  0  0  0  0  0  0
    8.2730  -13.6965   17.0509 C   0  0  0  0  0  0  0  0  0  0  0  0
    7.8015  -14.0401   15.9477 O   0  0  0  0  0  0  0  0  0  0  0  0
    7.4054  -13.0127   18.0258 C   0  0  0  0  0  0  0  0  0  0  0  0
    8.0906  -12.8006   19.3674 C   0  0  0  0  0  0  0  0  0  0  0  0
    8.0616  -14.1440   20.0593 C   0  0  2  0  0  0  0  0  0  0  0  0
    6.7357  -14.6403   20.2480 N   0  0  0  0  0  0  0  0  0  0  0  0
    8.7067  -14.0690   21.4083 C   0  0  0  0  0  0  0  0  0  0  0  0
    9.9206  -13.7587   21.5691 O   0  0  0  0  0  0  0  0  0  0  0  0
    4.7380  -12.4693   26.8616 C   0  0  0  0  0  0  0  0  0  0  0  0
    6.5034  -12.1952   26.5465 S   0  0  0  0  0  0  0  0  0  0  0  0
    6.8881  -12.6994   24.8268 C   0  0  0  0  0  0  0  0  0  0  0  0
    7.2887  -14.1488   24.8475 C   0  0  0  0  0  0  0  0  0  0  0  0
    8.4444  -14.4309   23.9094 C   0  0  2  0  0  0  0  0  0  0  0  0
    7.9336  -14.3566   22.5621 N   0  0  0  0  0  0  0  0  0  0  0  0
    9.0584  -15.7555   24.1959 C   0  0  0  0  0  0  0  0  0  0  0  0
    8.3179  -16.7618   24.2139 O   0  0  0  0  0  0  0  0  0  0  0  0
   13.9082  -15.1607   19.6312 N   0  0  0  0  0  0  0  0  0  0  0  0
   14.5287  -15.0942   20.9101 C   0  0  0  0  0  0  0  0  0  0  0  0
   15.4745  -14.2390   21.1945 N   0  0  0  0  0  0  0  0  0  0  0  0
   14.1520  -15.9683   21.9806 N   0  0  0  0  0  0  0  0  0  0  0  0
   13.4988  -17.2391   21.7271 C   0  0  0  0  0  0  0  0  0  0  0  0
   12.1467  -17.1494   22.4858 C   0  0  0  0  0  0  0  0  0  0  0  0
   12.3683  -17.2879   23.9498 C   0  0  0  0  0  0  0  0  0  0  0  0
   11.1238  -17.1459   24.7421 C   0  0  2  0  0  0  0  0  0  0  0  0
   10.4396  -15.8846   24.4423 N   0  0  0  0  0  0  0  0  0  0  0  0
   11.2203  -17.3949   26.1925 C   0  0  0  0  0  0  0  0  0  0  0  0
   11.5354  -18.5350   26.6019 O   0  0  0  0  0  0  0  0  0  0  0  0
   10.9790  -16.4383   27.1409 O   0  0  0  0  0  0  0  0  0  0  0  0
  1  2  1  0
  2  3  2  0
  4  5  1  0
  4  2  1  0
  6  7  1  1
  6  5  1  0
  8  6  1  0
  9  8  2  0
 11 10  1  0
 11 12  1  0
 12 13  1  0
 14 13  1  1
 14 15  1  0
 15  8  1  0
 16 17  2  0
 16 14  1  0
 18 19  1  0
 19 21  1  0
 20 19  2  0
 21 22  1  0
 22 23  1  0
 23 24  1  0
 25 24  1  1
 25 26  1  0
 26 16  1  0
 27 25  1  0
 28 27  2  0
 29 27  1  0
M  END
$$$$
