QMR.pdb
     RDKit          3D

 29 28  0  0  1  0  0  0  0  0999 V2000
    9.1248  -17.7194   18.2821 N   0  0  0  0  0  0  0  0  0  0  0  0
    7.7426  -17.6226   18.5553 C   0  0  0  0  0  0  0  0  0  0  0  0
    7.0422  -18.6551   18.5313 O   0  0  0  0  0  0  0  0  0  0  0  0
    7.1114  -16.3286   18.8680 C   0  0  0  0  0  0  0  0  0  0  0  0
    8.1267  -15.2051   19.0141 C   0  0  0  0  0  0  0  0  0  0  0  0
    7.4362  -14.1313   19.8229 C   0  0  2  0  0  0  0  0  0  0  0  0
    7.3644  -12.8813   19.1354 N   0  0  0  0  0  0  0  0  0  0  0  0
    8.1495  -13.8890   21.1167 C   0  0  0  0  0  0  0  0  0  0  0  0
    9.3062  -13.3847   21.1755 O   0  0  0  0  0  0  0  0  0  0  0  0
    6.9248  -11.0564   27.6138 C   0  0  0  0  0  0  0  0  0  0  0  0
    6.2763  -12.6327   26.9928 S   0  0  0  0  0  0  0  0  0  0  0  0
    7.5701  -13.4567   25.9894 C   0  0  0  0  0  0  0  0  0  0  0  0
    7.0756  -13.5373   24.5715 C   0  0  0  0  0  0  0  0  0  0  0  0
    8.1090  -14.1435   23.6443 C   0  0  2  0  0  0  0  0  0  0  0  0
    7.5110  -14.2365   22.3346 N   0  0  0  0  0  0  0  0  0  0  0  0
    8.5637  -15.4705   24.1402 C   0  0  0  0  0  0  0  0  0  0  0  0
    7.7712  -16.4341   24.0698 O   0  0  0  0  0  0  0  0  0  0  0  0
   16.0534  -17.0557   21.7573 N   0  0  0  0  0  0  0  0  0  0  0  0
   15.1762  -15.9766   22.0590 C   0  0  0  0  0  0  0  0  0  0  0  0
   15.4970  -14.7262   21.8583 N   0  0  0  0  0  0  0  0  0  0  0  0
   13.8703  -16.1929   22.6066 N   0  0  0  0  0  0  0  0  0  0  0  0
   13.2685  -17.5131   22.6319 C   0  0  0  0  0  0  0  0  0  0  0  0
   11.8111  -17.2765   23.1135 C   0  0  0  0  0  0  0  0  0  0  0  0
   11.7737  -17.1448   24.5944 C   0  0  0  0  0  0  0  0  0  0  0  0
   10.4064  -16.9310   25.1247 C   0  0  2  0  0  0  0  0  0  0  0  0
    9.8537  -15.6489   24.6780 N   0  0  0  0  0  0  0  0  0  0  0  0
   10.2056  -17.1499   26.5692 C   0  0  0  0  0  0  0  0  0  0  0  0
   10.0850  -16.1637   27.3305 O   0  0  0  0  0  0  0  0  0  0  0  0
   10.1443  -18.3903   27.1439 O   0  0  0  0  0  0  0  0  0  0  0  0
  1  2  1  0
  2  3  2  0
  4  5  1  0
  4  2  1  0
  6  7  1  6
  6  5  1  0
  8  6  1  0
  9  8  2  0
 11 10  1  0
 11 12  1  0
 12 13  1  0
 14 13  1  1
 14 15  1  0
 15  8  1  0
 16 17  2  0
 16 14  1  0
 18 19  1  0
 19 21  1  0
 20 19  2  0
 21 22  1  0
 22 23  1  0
 23 24  1  0
 25 24  1  1
 25 26  1  0
 26 16  1  0
 27 25  1  0
 28 27  2  0
 29 27  1  0
M  END
$$$$
