QMR.pdb
     RDKit          3D

 29 28  0  0  1  0  0  0  0  0999 V2000
    8.8899  -13.3531   17.2385 N   0  0  0  0  0  0  0  0  0  0  0  0
    7.5205  -13.5488   16.9543 C   0  0  0  0  0  0  0  0  0  0  0  0
    7.1867  -13.9938   15.8373 O   0  0  0  0  0  0  0  0  0  0  0  0
    6.4787  -13.2387   17.9490 C   0  0  0  0  0  0  0  0  0  0  0  0
    7.0596  -12.8776   19.3078 C   0  0  0  0  0  0  0  0  0  0  0  0
    7.3271  -14.1931   20.0020 C   0  0  2  0  0  0  0  0  0  0  0  0
    6.1298  -14.9038   20.3207 N   0  0  0  0  0  0  0  0  0  0  0  0
    8.0765  -13.9845   21.2812 C   0  0  0  0  0  0  0  0  0  0  0  0
    9.1892  -13.3887   21.3321 O   0  0  0  0  0  0  0  0  0  0  0  0
    7.7487  -10.6857   26.5828 C   0  0  0  0  0  0  0  0  0  0  0  0
    6.7594  -12.1833   26.8468 S   0  0  0  0  0  0  0  0  0  0  0  0
    7.6456  -13.6183   26.1295 C   0  0  0  0  0  0  0  0  0  0  0  0
    7.0835  -13.8718   24.7579 C   0  0  0  0  0  0  0  0  0  0  0  0
    8.1433  -14.3624   23.7928 C   0  0  2  0  0  0  0  0  0  0  0  0
    7.5252  -14.4720   22.4937 N   0  0  0  0  0  0  0  0  0  0  0  0
    8.7209  -15.6579   24.2415 C   0  0  0  0  0  0  0  0  0  0  0  0
    7.9383  -16.5807   24.5535 O   0  0  0  0  0  0  0  0  0  0  0  0
   16.5889  -15.1126   21.7251 N   0  0  0  0  0  0  0  0  0  0  0  0
   15.3686  -14.6591   21.1503 C   0  0  0  0  0  0  0  0  0  0  0  0
   15.3260  -13.8892   20.0957 N   0  0  0  0  0  0  0  0  0  0  0  0
   14.0944  -15.0218   21.6950 N   0  0  0  0  0  0  0  0  0  0  0  0
   13.9813  -15.9488   22.8057 C   0  0  0  0  0  0  0  0  0  0  0  0
   12.4548  -16.1755   22.9805 C   0  0  0  0  0  0  0  0  0  0  0  0
   12.1987  -17.0960   24.1201 C   0  0  0  0  0  0  0  0  0  0  0  0
   10.7717  -17.1465   24.5172 C   0  0  2  0  0  0  0  0  0  0  0  0
   10.1145  -15.8516   24.3169 N   0  0  0  0  0  0  0  0  0  0  0  0
   10.4631  -17.7285   25.8367 C   0  0  0  0  0  0  0  0  0  0  0  0
   10.1589  -16.9728   26.7870 O   0  0  0  0  0  0  0  0  0  0  0  0
   10.4917  -19.0720   26.0950 O   0  0  0  0  0  0  0  0  0  0  0  0
  1  2  1  0
  2  3  2  0
  4  5  1  0
  4  2  1  0
  6  7  1  1
  6  5  1  0
  8  6  1  0
  9  8  2  0
 11 10  1  0
 11 12  1  0
 12 13  1  0
 14 13  1  1
 14 15  1  0
 15  8  1  0
 16 17  2  0
 16 14  1  0
 18 19  1  0
 19 21  1  0
 20 19  2  0
 21 22  1  0
 22 23  1  0
 23 24  1  0
 25 24  1  1
 25 26  1  0
 26 16  1  0
 27 25  1  0
 28 27  2  0
 29 27  1  0
M  END
$$$$
