QMR.pdb
     RDKit          3D

 29 28  0  0  1  0  0  0  0  0999 V2000
    8.4438  -15.0922   16.8312 N   0  0  0  0  0  0  0  0  0  0  0  0
    7.7969  -14.0361   17.5098 C   0  0  0  0  0  0  0  0  0  0  0  0
    6.9296  -13.3673   16.9118 O   0  0  0  0  0  0  0  0  0  0  0  0
    8.1249  -13.7081   18.9082 C   0  0  0  0  0  0  0  0  0  0  0  0
    9.2245  -14.5952   19.4723 C   0  0  0  0  0  0  0  0  0  0  0  0
    8.5663  -15.4315   20.5454 C   0  0  2  0  0  0  0  0  0  0  0  0
    7.1429  -15.3128   20.5438 N   0  0  0  0  0  0  0  0  0  0  0  0
    9.0460  -15.0351   21.9072 C   0  0  0  0  0  0  0  0  0  0  0  0
   10.2703  -14.9039   22.1892 O   0  0  0  0  0  0  0  0  0  0  0  0
    7.3765  -10.4280   26.0626 C   0  0  0  0  0  0  0  0  0  0  0  0
    6.6208  -11.8962   26.8138 S   0  0  0  0  0  0  0  0  0  0  0  0
    7.6031  -13.3741   26.3551 C   0  0  0  0  0  0  0  0  0  0  0  0
    7.3765  -13.6458   24.8935 C   0  0  0  0  0  0  0  0  0  0  0  0
    8.4082  -14.6001   24.3278 C   0  0  2  0  0  0  0  0  0  0  0  0
    8.0962  -14.7942   22.9326 N   0  0  0  0  0  0  0  0  0  0  0  0
    8.4189  -15.8859   25.0762 C   0  0  0  0  0  0  0  0  0  0  0  0
    7.3326  -16.4760   25.2583 O   0  0  0  0  0  0  0  0  0  0  0  0
   10.2141  -19.3078   21.1281 N   0  0  0  0  0  0  0  0  0  0  0  0
   11.5757  -18.8953   21.1571 C   0  0  0  0  0  0  0  0  0  0  0  0
   12.2504  -18.6040   20.0770 N   0  0  0  0  0  0  0  0  0  0  0  0
   12.3026  -18.7696   22.3851 N   0  0  0  0  0  0  0  0  0  0  0  0
   11.8842  -19.4653   23.5878 C   0  0  0  0  0  0  0  0  0  0  0  0
   10.7193  -18.6101   24.1569 C   0  0  0  0  0  0  0  0  0  0  0  0
   10.7893  -18.5689   25.6418 C   0  0  0  0  0  0  0  0  0  0  0  0
    9.7303  -17.7294   26.2505 C   0  0  2  0  0  0  0  0  0  0  0  0
    9.6179  -16.4348   25.5723 N   0  0  0  0  0  0  0  0  0  0  0  0
    9.7475  -17.5885   27.7185 C   0  0  0  0  0  0  0  0  0  0  0  0
    9.7691  -18.6143   28.4353 O   0  0  0  0  0  0  0  0  0  0  0  0
    9.7383  -16.3805   28.3614 O   0  0  0  0  0  0  0  0  0  0  0  0
  1  2  1  0
  2  3  2  0
  4  5  1  0
  4  2  1  0
  6  7  1  1
  6  5  1  0
  8  6  1  0
  9  8  2  0
 11 10  1  0
 11 12  1  0
 12 13  1  0
 14 13  1  1
 14 15  1  0
 15  8  1  0
 16 17  2  0
 16 14  1  0
 18 19  1  0
 19 21  1  0
 20 19  2  0
 21 22  1  0
 22 23  1  0
 23 24  1  0
 25 24  1  6
 25 26  1  0
 26 16  1  0
 27 25  1  0
 28 27  2  0
 29 27  1  0
M  END
$$$$
