LHT.pdb
     RDKit          3D

 26 26  0  0  1  0  0  0  0  0999 V2000
    7.1450  -11.9034   19.5071 C   0  0  0  0  0  0  0  0  0  0  0  0
    7.7702  -13.2729   19.3788 C   0  0  1  0  0  0  0  0  0  0  0  0
    9.1498  -13.1838   18.7943 C   0  0  0  0  0  0  0  0  0  0  0  0
    7.7563  -14.0036   20.7065 C   0  0  0  0  0  0  0  0  0  0  0  0
    8.3832  -15.3795   20.5955 C   0  0  2  0  0  0  0  0  0  0  0  0
    7.5012  -16.1901   19.7978 N   0  0  0  0  0  0  0  0  0  0  0  0
    8.5204  -15.9578   21.9318 C   0  0  0  0  0  0  0  0  0  0  0  0
    7.5094  -16.3486   22.5590 O   0  0  0  0  0  0  0  0  0  0  0  0
    9.8019  -16.0765   22.5194 N   0  0  0  0  0  0  0  0  0  0  0  0
   10.0225  -16.6119   23.8468 C   0  0  1  0  0  0  0  0  0  0  0  0
   11.1521  -17.5886   23.9143 C   0  0  0  0  0  0  0  0  0  0  0  0
   10.9216  -18.8811   23.2850 C   0  0  0  0  0  0  0  0  0  0  0  0
    9.7986  -19.6208   23.0929 C   0  0  0  0  0  0  0  0  0  0  0  0
   10.1119  -20.7588   22.4512 N   0  0  0  0  0  0  0  0  0  0  0  0
   11.4302  -20.7588   22.2276 C   0  0  0  0  0  0  0  0  0  0  0  0
   11.9259  -19.6266   22.7291 N   0  0  0  0  0  0  0  0  0  0  0  0
   10.0911  -15.5352   24.8520 C   0  0  0  0  0  0  0  0  0  0  0  0
   11.1163  -14.8101   24.8998 O   0  0  0  0  0  0  0  0  0  0  0  0
    7.7570  -12.7179   25.4357 C   0  0  0  0  0  0  0  0  0  0  0  0
    7.8289  -13.4813   26.7401 C   0  0  1  0  0  0  0  0  0  0  0  0
    6.7205  -14.3582   26.7373 O   0  0  0  0  0  0  0  0  0  0  0  0
    9.1129  -14.2867   26.8137 C   0  0  2  0  0  0  0  0  0  0  0  0
    9.0389  -15.2851   25.7715 N   0  0  0  0  0  0  0  0  0  0  0  0
    9.3535  -14.8445   28.1406 C   0  0  0  0  0  0  0  0  0  0  0  0
    9.4269  -16.2083   28.3682 O   0  0  0  0  0  0  0  0  0  0  0  0
    9.5026  -14.0842   29.1275 O   0  0  0  0  0  0  0  0  0  0  0  0
  2  1  1  1
  2  4  1  0
  2  3  1  0
  4  5  1  0
  5  6  1  6
  7  9  1  0
  7  5  1  0
  8  7  2  0
 10  9  1  0
 11 12  1  0
 10 11  1  6
 12 16  1  0
 12 13  2  0
 13 14  1  0
 15 14  1  0
 16 15  2  0
 17 23  1  0
 17 10  1  0
 18 17  2  0
 20 19  1  6
 20 22  1  0
 21 20  1  0
 22 23  1  6
 22 24  1  0
 24 25  1  0
 26 24  2  0
M  END
$$$$
