LHT.pdb
     RDKit          3D

 26 26  0  0  1  0  0  0  0  0999 V2000
    7.9218  -11.9487   18.8810 C   0  0  0  0  0  0  0  0  0  0  0  0
    8.4234  -13.3712   18.9697 C   0  0  1  0  0  0  0  0  0  0  0  0
    9.7827  -13.4255   19.6041 C   0  0  0  0  0  0  0  0  0  0  0  0
    7.4222  -14.2574   19.6830 C   0  0  0  0  0  0  0  0  0  0  0  0
    8.0336  -15.5866   20.0805 C   0  0  2  0  0  0  0  0  0  0  0  0
    7.6180  -16.5593   19.1045 N   0  0  0  0  0  0  0  0  0  0  0  0
    7.5437  -15.9677   21.4047 C   0  0  0  0  0  0  0  0  0  0  0  0
    6.3243  -16.1849   21.5899 O   0  0  0  0  0  0  0  0  0  0  0  0
    8.4517  -16.0917   22.4825 N   0  0  0  0  0  0  0  0  0  0  0  0
    8.0439  -16.4154   23.8339 C   0  0  1  0  0  0  0  0  0  0  0  0
    8.3667  -17.8194   24.2327 C   0  0  0  0  0  0  0  0  0  0  0  0
    8.0214  -18.1949   25.5963 C   0  0  0  0  0  0  0  0  0  0  0  0
    7.4139  -17.5215   26.6075 C   0  0  0  0  0  0  0  0  0  0  0  0
    7.3234  -18.3149   27.6879 N   0  0  0  0  0  0  0  0  0  0  0  0
    7.8686  -19.4966   27.3809 C   0  0  0  0  0  0  0  0  0  0  0  0
    8.2925  -19.4310   26.1180 N   0  0  0  0  0  0  0  0  0  0  0  0
    8.5054  -15.3922   24.7902 C   0  0  0  0  0  0  0  0  0  0  0  0
    9.7317  -15.1258   24.8536 O   0  0  0  0  0  0  0  0  0  0  0  0
    6.6438  -11.9449   25.6095 C   0  0  0  0  0  0  0  0  0  0  0  0
    6.8871  -12.7759   26.8503 C   0  0  1  0  0  0  0  0  0  0  0  0
    5.7007  -13.5148   27.0603 O   0  0  0  0  0  0  0  0  0  0  0  0
    8.0469  -13.7298   26.6313 C   0  0  2  0  0  0  0  0  0  0  0  0
    7.6135  -14.6933   25.6454 N   0  0  0  0  0  0  0  0  0  0  0  0
    8.5204  -14.3359   27.8716 C   0  0  0  0  0  0  0  0  0  0  0  0
    9.0234  -13.5826   28.9188 O   0  0  0  0  0  0  0  0  0  0  0  0
    8.4817  -15.5811   28.0206 O   0  0  0  0  0  0  0  0  0  0  0  0
  2  1  1  1
  2  4  1  0
  2  3  1  0
  4  5  1  0
  5  6  1  6
  7  9  1  0
  7  5  1  0
  8  7  2  0
 10  9  1  0
 11 12  1  0
 10 11  1  1
 12 16  1  0
 12 13  2  0
 13 14  1  0
 15 14  1  0
 16 15  2  0
 17 23  1  0
 17 10  1  0
 18 17  2  0
 20 19  1  6
 20 22  1  0
 21 20  1  0
 22 23  1  6
 22 24  1  0
 24 25  1  0
 26 24  2  0
M  END
$$$$
