LHT.pdb
     RDKit          3D

 26 26  0  0  1  0  0  0  0  0999 V2000
    7.4457  -11.9766   18.8921 C   0  0  0  0  0  0  0  0  0  0  0  0
    8.2010  -13.2848   18.9287 C   0  0  1  0  0  0  0  0  0  0  0  0
    9.6831  -13.0539   18.8741 C   0  0  0  0  0  0  0  0  0  0  0  0
    7.7939  -14.1144   20.1298 C   0  0  0  0  0  0  0  0  0  0  0  0
    8.5984  -15.3959   20.2244 C   0  0  2  0  0  0  0  0  0  0  0  0
    8.1310  -16.2739   19.1841 N   0  0  0  0  0  0  0  0  0  0  0  0
    8.3771  -16.0105   21.5329 C   0  0  0  0  0  0  0  0  0  0  0  0
    7.2764  -16.5429   21.8040 O   0  0  0  0  0  0  0  0  0  0  0  0
    9.4117  -16.0038   22.4979 N   0  0  0  0  0  0  0  0  0  0  0  0
    9.2594  -16.5463   23.8320 C   0  0  1  0  0  0  0  0  0  0  0  0
    9.8471  -17.9117   23.9898 C   0  0  0  0  0  0  0  0  0  0  0  0
   11.0886  -18.1629   23.2721 C   0  0  0  0  0  0  0  0  0  0  0  0
   11.8604  -17.3819   22.4725 C   0  0  0  0  0  0  0  0  0  0  0  0
   12.9218  -18.0850   22.0432 N   0  0  0  0  0  0  0  0  0  0  0  0
   12.8404  -19.3153   22.5606 C   0  0  0  0  0  0  0  0  0  0  0  0
   11.7346  -19.3693   23.3046 N   0  0  0  0  0  0  0  0  0  0  0  0
    9.6940  -15.5772   24.8551 C   0  0  0  0  0  0  0  0  0  0  0  0
   10.6175  -14.7713   24.5782 O   0  0  0  0  0  0  0  0  0  0  0  0
    7.9717  -12.8871   26.3496 C   0  0  0  0  0  0  0  0  0  0  0  0
    8.3706  -13.7361   27.5368 C   0  0  1  0  0  0  0  0  0  0  0  0
    7.2485  -14.5438   27.8298 O   0  0  0  0  0  0  0  0  0  0  0  0
    9.5533  -14.6192   27.1844 C   0  0  2  0  0  0  0  0  0  0  0  0
    9.1065  -15.5194   26.1460 N   0  0  0  0  0  0  0  0  0  0  0  0
   10.1142  -15.3008   28.3466 C   0  0  0  0  0  0  0  0  0  0  0  0
   10.6250  -14.6119   29.4337 O   0  0  0  0  0  0  0  0  0  0  0  0
   10.1473  -16.5544   28.3882 O   0  0  0  0  0  0  0  0  0  0  0  0
  2  1  1  1
  2  4  1  0
  2  3  1  0
  4  5  1  0
  5  6  1  6
  7  9  1  0
  7  5  1  0
  8  7  2  0
 10  9  1  0
 11 12  1  0
 10 11  1  6
 12 16  1  0
 12 13  2  0
 13 14  1  0
 15 14  1  0
 16 15  2  0
 17 23  1  0
 17 10  1  0
 18 17  2  0
 20 19  1  6
 20 22  1  0
 21 20  1  0
 22 23  1  6
 22 24  1  0
 24 25  1  0
 26 24  2  0
M  END
$$$$
