LHT.pdb
     RDKit          3D

 26 26  0  0  1  0  0  0  0  0999 V2000
    7.1977  -11.8272   19.1224 C   0  0  0  0  0  0  0  0  0  0  0  0
    8.0585  -13.0675   19.0633 C   0  0  1  0  0  0  0  0  0  0  0  0
    9.5147  -12.7109   18.9910 C   0  0  0  0  0  0  0  0  0  0  0  0
    7.7528  -13.9973   20.2204 C   0  0  0  0  0  0  0  0  0  0  0  0
    8.6167  -15.2425   20.1821 C   0  0  2  0  0  0  0  0  0  0  0  0
    8.0947  -16.0955   19.1470 N   0  0  0  0  0  0  0  0  0  0  0  0
    8.5421  -15.9230   21.4744 C   0  0  0  0  0  0  0  0  0  0  0  0
    7.4685  -16.4439   21.8542 O   0  0  0  0  0  0  0  0  0  0  0  0
    9.6887  -15.9934   22.3003 N   0  0  0  0  0  0  0  0  0  0  0  0
    9.6725  -16.5442   23.6396 C   0  0  1  0  0  0  0  0  0  0  0  0
   10.7043  -17.6032   23.8599 C   0  0  0  0  0  0  0  0  0  0  0  0
   10.4947  -18.8600   23.1554 C   0  0  0  0  0  0  0  0  0  0  0  0
    9.5074  -19.2960   22.3308 C   0  0  0  0  0  0  0  0  0  0  0  0
    9.7748  -20.5502   21.9301 N   0  0  0  0  0  0  0  0  0  0  0  0
   10.9288  -20.9270   22.4907 C   0  0  0  0  0  0  0  0  0  0  0  0
   11.3694  -19.9100   23.2328 N   0  0  0  0  0  0  0  0  0  0  0  0
    9.6734  -15.4760   24.6561 C   0  0  0  0  0  0  0  0  0  0  0  0
   10.6514  -14.6891   24.7127 O   0  0  0  0  0  0  0  0  0  0  0  0
    7.1871  -12.7822   25.4442 C   0  0  0  0  0  0  0  0  0  0  0  0
    7.3261  -13.6337   26.6872 C   0  0  1  0  0  0  0  0  0  0  0  0
    6.2669  -14.5681   26.6369 O   0  0  0  0  0  0  0  0  0  0  0  0
    8.6530  -14.3700   26.6807 C   0  0  2  0  0  0  0  0  0  0  0  0
    8.6072  -15.3016   25.5769 N   0  0  0  0  0  0  0  0  0  0  0  0
    8.9557  -14.9980   27.9627 C   0  0  0  0  0  0  0  0  0  0  0  0
    9.1120  -14.2655   29.1273 O   0  0  0  0  0  0  0  0  0  0  0  0
    9.0843  -16.2436   28.0408 O   0  0  0  0  0  0  0  0  0  0  0  0
  2  1  1  1
  2  4  1  0
  2  3  1  0
  4  5  1  0
  5  6  1  6
  7  9  1  0
  7  5  1  0
  8  7  2  0
 10  9  1  0
 11 12  1  0
 10 11  1  1
 12 16  1  0
 12 13  2  0
 13 14  1  0
 15 14  1  0
 16 15  2  0
 17 23  1  0
 17 10  1  0
 18 17  2  0
 20 19  1  6
 20 22  1  0
 21 20  1  0
 22 23  1  6
 22 24  1  0
 24 25  1  0
 26 24  2  0
M  END
$$$$
