LHT.pdb
     RDKit          3D

 26 26  0  0  1  0  0  0  0  0999 V2000
    7.3999  -11.9730   19.0255 C   0  0  0  0  0  0  0  0  0  0  0  0
    7.9732  -13.3696   19.0849 C   0  0  1  0  0  0  0  0  0  0  0  0
    9.4714  -13.3422   18.9964 C   0  0  0  0  0  0  0  0  0  0  0  0
    7.4852  -14.1060   20.3163 C   0  0  0  0  0  0  0  0  0  0  0  0
    8.0160  -15.5251   20.3679 C   0  0  2  0  0  0  0  0  0  0  0  0
    7.1626  -16.3331   19.5370 N   0  0  0  0  0  0  0  0  0  0  0  0
    7.9719  -16.0083   21.7475 C   0  0  0  0  0  0  0  0  0  0  0  0
    6.8733  -16.2458   22.2999 O   0  0  0  0  0  0  0  0  0  0  0  0
    9.1763  -16.2085   22.4622 N   0  0  0  0  0  0  0  0  0  0  0  0
    9.2194  -16.6183   23.8506 C   0  0  1  0  0  0  0  0  0  0  0  0
   10.1977  -17.7168   24.1167 C   0  0  0  0  0  0  0  0  0  0  0  0
   10.2720  -18.1912   25.4911 C   0  0  0  0  0  0  0  0  0  0  0  0
    9.3390  -18.3154   26.4705 C   0  0  0  0  0  0  0  0  0  0  0  0
    9.9126  -18.8099   27.5803 N   0  0  0  0  0  0  0  0  0  0  0  0
   11.2102  -19.0059   27.3238 C   0  0  0  0  0  0  0  0  0  0  0  0
   11.4343  -18.6339   26.0626 N   0  0  0  0  0  0  0  0  0  0  0  0
    9.3556  -15.4549   24.7465 C   0  0  0  0  0  0  0  0  0  0  0  0
   10.3435  -14.6909   24.6077 O   0  0  0  0  0  0  0  0  0  0  0  0
    7.0723  -12.6295   25.3149 C   0  0  0  0  0  0  0  0  0  0  0  0
    7.2576  -13.2881   26.6645 C   0  0  1  0  0  0  0  0  0  0  0  0
    6.1670  -14.1740   26.8161 O   0  0  0  0  0  0  0  0  0  0  0  0
    8.5566  -14.0718   26.6989 C   0  0  2  0  0  0  0  0  0  0  0  0
    8.4093  -15.1636   25.7638 N   0  0  0  0  0  0  0  0  0  0  0  0
    8.9207  -14.5011   28.0453 C   0  0  0  0  0  0  0  0  0  0  0  0
    9.2232  -13.6009   29.0529 O   0  0  0  0  0  0  0  0  0  0  0  0
    8.9692  -15.7228   28.3269 O   0  0  0  0  0  0  0  0  0  0  0  0
  2  1  1  1
  2  4  1  0
  2  3  1  0
  4  5  1  0
  5  6  1  6
  7  9  1  0
  7  5  1  0
  8  7  2  0
 10  9  1  0
 11 12  1  0
 10 11  1  6
 12 16  1  0
 12 13  2  0
 13 14  1  0
 15 14  1  0
 16 15  2  0
 17 23  1  0
 17 10  1  0
 18 17  2  0
 20 19  1  6
 20 22  1  0
 21 20  1  0
 22 23  1  6
 22 24  1  0
 24 25  1  0
 26 24  2  0
M  END
$$$$
