LHT.pdb
     RDKit          3D

 26 26  0  0  1  0  0  0  0  0999 V2000
    7.0481  -12.1606   19.3873 C   0  0  0  0  0  0  0  0  0  0  0  0
    7.7719  -13.3120   18.7291 C   0  0  1  0  0  0  0  0  0  0  0  0
    8.9613  -12.8281   17.9518 C   0  0  0  0  0  0  0  0  0  0  0  0
    8.1444  -14.3725   19.7457 C   0  0  0  0  0  0  0  0  0  0  0  0
    8.8427  -15.5509   19.0960 C   0  0  2  0  0  0  0  0  0  0  0  0
    7.8717  -16.2270   18.2766 N   0  0  0  0  0  0  0  0  0  0  0  0
    9.3348  -16.4546   20.1352 C   0  0  0  0  0  0  0  0  0  0  0  0
    8.5314  -17.1280   20.8204 O   0  0  0  0  0  0  0  0  0  0  0  0
   10.7256  -16.5690   20.3681 N   0  0  0  0  0  0  0  0  0  0  0  0
   11.2923  -17.3949   21.4140 C   0  0  1  0  0  0  0  0  0  0  0  0
   12.7037  -17.8085   21.1465 C   0  0  0  0  0  0  0  0  0  0  0  0
   13.2952  -18.7302   22.1058 C   0  0  0  0  0  0  0  0  0  0  0  0
   12.7905  -19.7867   22.7944 C   0  0  0  0  0  0  0  0  0  0  0  0
   13.7507  -20.3227   23.5663 N   0  0  0  0  0  0  0  0  0  0  0  0
   14.8725  -19.6191   23.3805 C   0  0  0  0  0  0  0  0  0  0  0  0
   14.6042  -18.6548   22.4988 N   0  0  0  0  0  0  0  0  0  0  0  0
   11.0783  -16.7940   22.7435 C   0  0  0  0  0  0  0  0  0  0  0  0
   11.6472  -15.7084   23.0207 O   0  0  0  0  0  0  0  0  0  0  0  0
    8.2412  -15.4137   24.2134 C   0  0  0  0  0  0  0  0  0  0  0  0
    8.6131  -16.4997   25.1992 C   0  0  1  0  0  0  0  0  0  0  0  0
    7.8139  -17.6164   24.8648 O   0  0  0  0  0  0  0  0  0  0  0  0
   10.0793  -16.8647   25.0588 C   0  0  2  0  0  0  0  0  0  0  0  0
   10.2504  -17.3972   23.7263 N   0  0  0  0  0  0  0  0  0  0  0  0
   10.5395  -17.7652   26.1110 C   0  0  0  0  0  0  0  0  0  0  0  0
   10.5660  -17.3931   27.4445 O   0  0  0  0  0  0  0  0  0  0  0  0
   10.9306  -18.9225   25.8252 O   0  0  0  0  0  0  0  0  0  0  0  0
  2  1  1  1
  2  4  1  0
  2  3  1  0
  4  5  1  0
  5  6  1  6
  7  9  1  0
  7  5  1  0
  8  7  2  0
 10  9  1  0
 11 12  1  0
 10 11  1  6
 12 16  1  0
 12 13  2  0
 13 14  1  0
 15 14  1  0
 16 15  2  0
 17 23  1  0
 17 10  1  0
 18 17  2  0
 20 19  1  6
 20 22  1  0
 21 20  1  0
 22 23  1  6
 22 24  1  0
 24 25  1  0
 26 24  2  0
M  END
$$$$
