LHT.pdb
     RDKit          3D

 26 26  0  0  1  0  0  0  0  0999 V2000
    7.0744  -12.1359   19.4517 C   0  0  0  0  0  0  0  0  0  0  0  0
    7.9037  -13.2994   18.9604 C   0  0  1  0  0  0  0  0  0  0  0  0
    9.1780  -12.8238   18.3256 C   0  0  0  0  0  0  0  0  0  0  0  0
    8.1551  -14.2965   20.0736 C   0  0  0  0  0  0  0  0  0  0  0  0
    8.9813  -15.4742   19.5951 C   0  0  2  0  0  0  0  0  0  0  0  0
    8.1884  -16.1916   18.6317 N   0  0  0  0  0  0  0  0  0  0  0  0
    9.2910  -16.3413   20.7314 C   0  0  0  0  0  0  0  0  0  0  0  0
    8.3851  -17.0035   21.2874 O   0  0  0  0  0  0  0  0  0  0  0  0
   10.6209  -16.4328   21.2053 N   0  0  0  0  0  0  0  0  0  0  0  0
   11.0099  -17.2563   22.3312 C   0  0  1  0  0  0  0  0  0  0  0  0
   12.3899  -17.8177   22.2091 C   0  0  0  0  0  0  0  0  0  0  0  0
   12.5787  -18.8416   21.1914 C   0  0  0  0  0  0  0  0  0  0  0  0
   11.7046  -19.5929   20.4726 C   0  0  0  0  0  0  0  0  0  0  0  0
   12.3824  -20.4083   19.6475 N   0  0  0  0  0  0  0  0  0  0  0  0
   13.6889  -20.1884   19.8289 C   0  0  0  0  0  0  0  0  0  0  0  0
   13.8146  -19.2424   20.7608 N   0  0  0  0  0  0  0  0  0  0  0  0
   10.7449  -16.5716   23.6101 C   0  0  0  0  0  0  0  0  0  0  0  0
   11.4994  -15.6322   23.9666 O   0  0  0  0  0  0  0  0  0  0  0  0
    7.7654  -14.8137   24.6913 C   0  0  0  0  0  0  0  0  0  0  0  0
    7.9874  -15.8631   25.7585 C   0  0  1  0  0  0  0  0  0  0  0  0
    7.1378  -16.9418   25.4236 O   0  0  0  0  0  0  0  0  0  0  0  0
    9.4305  -16.3322   25.7498 C   0  0  2  0  0  0  0  0  0  0  0  0
    9.6652  -16.9344   24.4573 N   0  0  0  0  0  0  0  0  0  0  0  0
    9.7438  -17.2134   26.8702 C   0  0  0  0  0  0  0  0  0  0  0  0
    9.6760  -16.7897   28.1866 O   0  0  0  0  0  0  0  0  0  0  0  0
   10.0895  -18.4013   26.6615 O   0  0  0  0  0  0  0  0  0  0  0  0
  2  1  1  1
  2  4  1  0
  2  3  1  0
  4  5  1  0
  5  6  1  6
  7  9  1  0
  7  5  1  0
  8  7  2  0
 10  9  1  0
 11 12  1  0
 10 11  1  6
 12 16  1  0
 12 13  2  0
 13 14  1  0
 15 14  1  0
 16 15  2  0
 17 23  1  0
 17 10  1  0
 18 17  2  0
 20 19  1  6
 20 22  1  0
 21 20  1  0
 22 23  1  6
 22 24  1  0
 24 25  1  0
 26 24  2  0
M  END
$$$$
