LHT.pdb
     RDKit          3D

 26 26  0  0  1  0  0  0  0  0999 V2000
    7.1461  -12.0721   19.3454 C   0  0  0  0  0  0  0  0  0  0  0  0
    7.7718  -13.3187   18.7646 C   0  0  1  0  0  0  0  0  0  0  0  0
    9.0211  -12.9897   18.0003 C   0  0  0  0  0  0  0  0  0  0  0  0
    8.0152  -14.3572   19.8411 C   0  0  0  0  0  0  0  0  0  0  0  0
    8.6182  -15.6256   19.2701 C   0  0  2  0  0  0  0  0  0  0  0  0
    7.6202  -16.2357   18.4315 N   0  0  0  0  0  0  0  0  0  0  0  0
    8.9704  -16.5292   20.3648 C   0  0  0  0  0  0  0  0  0  0  0  0
    8.0802  -17.1762   20.9625 O   0  0  0  0  0  0  0  0  0  0  0  0
   10.3238  -16.6733   20.7509 N   0  0  0  0  0  0  0  0  0  0  0  0
   10.7587  -17.5552   21.8142 C   0  0  1  0  0  0  0  0  0  0  0  0
   12.1238  -18.1234   21.5951 C   0  0  0  0  0  0  0  0  0  0  0  0
   12.6035  -19.0508   22.6097 C   0  0  0  0  0  0  0  0  0  0  0  0
   12.9321  -18.8900   23.9179 C   0  0  0  0  0  0  0  0  0  0  0  0
   13.3263  -20.0669   24.4323 N   0  0  0  0  0  0  0  0  0  0  0  0
   13.2544  -20.9869   23.4646 C   0  0  0  0  0  0  0  0  0  0  0  0
   12.8181  -20.3794   22.3601 N   0  0  0  0  0  0  0  0  0  0  0  0
   10.5665  -16.9318   23.1367 C   0  0  0  0  0  0  0  0  0  0  0  0
   11.2447  -15.9174   23.4370 O   0  0  0  0  0  0  0  0  0  0  0  0
    7.8681  -15.2520   24.6874 C   0  0  0  0  0  0  0  0  0  0  0  0
    8.1212  -16.4232   25.6113 C   0  0  1  0  0  0  0  0  0  0  0  0
    7.2043  -17.4268   25.2246 O   0  0  0  0  0  0  0  0  0  0  0  0
    9.5385  -16.9377   25.4403 C   0  0  2  0  0  0  0  0  0  0  0  0
    9.6407  -17.4356   24.0876 N   0  0  0  0  0  0  0  0  0  0  0  0
    9.9078  -17.9206   26.4539 C   0  0  0  0  0  0  0  0  0  0  0  0
    9.8885  -17.6309   27.8077 O   0  0  0  0  0  0  0  0  0  0  0  0
   10.2590  -19.0762   26.1142 O   0  0  0  0  0  0  0  0  0  0  0  0
  2  1  1  1
  2  4  1  0
  2  3  1  0
  4  5  1  0
  5  6  1  6
  7  9  1  0
  7  5  1  0
  8  7  2  0
 10  9  1  0
 11 12  1  0
 10 11  1  6
 12 16  1  0
 12 13  2  0
 13 14  1  0
 15 14  1  0
 16 15  2  0
 17 23  1  0
 17 10  1  0
 18 17  2  0
 20 19  1  6
 20 22  1  0
 21 20  1  0
 22 23  1  6
 22 24  1  0
 24 25  1  0
 26 24  2  0
M  END
$$$$
