LHT.pdb
     RDKit          3D

 26 26  0  0  1  0  0  0  0  0999 V2000
    6.8877  -12.2187   19.8435 C   0  0  0  0  0  0  0  0  0  0  0  0
    7.7583  -13.2966   19.2410 C   0  0  1  0  0  0  0  0  0  0  0  0
    9.0135  -12.7142   18.6594 C   0  0  0  0  0  0  0  0  0  0  0  0
    8.0475  -14.3895   20.2503 C   0  0  0  0  0  0  0  0  0  0  0  0
    8.9471  -15.4636   19.6711 C   0  0  2  0  0  0  0  0  0  0  0  0
    8.2160  -16.1118   18.6142 N   0  0  0  0  0  0  0  0  0  0  0  0
    9.2784  -16.4321   20.7155 C   0  0  0  0  0  0  0  0  0  0  0  0
    8.4126  -17.2362   21.1305 O   0  0  0  0  0  0  0  0  0  0  0  0
   10.5838  -16.4612   21.2603 N   0  0  0  0  0  0  0  0  0  0  0  0
   10.9688  -17.3224   22.3591 C   0  0  1  0  0  0  0  0  0  0  0  0
   12.3518  -17.8741   22.2263 C   0  0  0  0  0  0  0  0  0  0  0  0
   12.5064  -19.0098   21.3287 C   0  0  0  0  0  0  0  0  0  0  0  0
   12.0139  -19.2746   20.0908 C   0  0  0  0  0  0  0  0  0  0  0  0
   12.4527  -20.4753   19.6776 N   0  0  0  0  0  0  0  0  0  0  0  0
   13.2258  -20.9878   20.6408 C   0  0  0  0  0  0  0  0  0  0  0  0
   13.2625  -20.1070   21.6419 N   0  0  0  0  0  0  0  0  0  0  0  0
   10.6929  -16.6842   23.6595 C   0  0  0  0  0  0  0  0  0  0  0  0
   11.3745  -15.6871   24.0061 O   0  0  0  0  0  0  0  0  0  0  0  0
    7.7503  -15.0628   24.8393 C   0  0  0  0  0  0  0  0  0  0  0  0
    7.9878  -16.1467   25.8679 C   0  0  1  0  0  0  0  0  0  0  0  0
    7.1576  -17.2267   25.4912 O   0  0  0  0  0  0  0  0  0  0  0  0
    9.4387  -16.5905   25.8462 C   0  0  2  0  0  0  0  0  0  0  0  0
    9.6824  -17.1548   24.5384 N   0  0  0  0  0  0  0  0  0  0  0  0
    9.7683  -17.4949   26.9431 C   0  0  0  0  0  0  0  0  0  0  0  0
    9.7121  -17.1013   28.2694 O   0  0  0  0  0  0  0  0  0  0  0  0
   10.1179  -18.6760   26.7042 O   0  0  0  0  0  0  0  0  0  0  0  0
  2  1  1  1
  2  4  1  0
  2  3  1  0
  4  5  1  0
  5  6  1  6
  7  9  1  0
  7  5  1  0
  8  7  2  0
 10  9  1  0
 11 12  1  0
 10 11  1  6
 12 16  1  0
 12 13  2  0
 13 14  1  0
 15 14  1  0
 16 15  2  0
 17 23  1  0
 17 10  1  0
 18 17  2  0
 20 19  1  6
 20 22  1  0
 21 20  1  0
 22 23  1  6
 22 24  1  0
 24 25  1  0
 26 24  2  0
M  END
$$$$
