GQD.pdb
     RDKit          3D

 22 21  0  0  1  0  0  0  0  0999 V2000
   10.5278   -9.8985   -9.1324 N   0  0  0  0  0  0  0  0  0  0  0  0
   11.4240   -9.5229  -10.1784 C   0  0  0  0  0  0  0  0  0  0  0  0
   12.7328   -9.1515   -9.5895 C   0  0  0  0  0  0  0  0  0  0  0  0
   12.8462   -8.9259   -8.3531 O   0  0  0  0  0  0  0  0  0  0  0  0
   18.5509  -10.3835  -11.6508 N   0  0  0  0  0  0  0  0  0  0  0  0
   17.3876  -11.1740  -11.5178 C   0  0  0  0  0  0  0  0  0  0  0  0
   17.4472  -12.3461  -11.9578 O   0  0  0  0  0  0  0  0  0  0  0  0
   16.1384  -10.6746  -10.8934 C   0  0  0  0  0  0  0  0  0  0  0  0
   16.3111   -9.2324  -10.5568 C   0  0  0  0  0  0  0  0  0  0  0  0
   15.1183   -8.6108   -9.8657 C   0  0  2  0  0  0  0  0  0  0  0  0
   13.8689   -9.0504  -10.4351 N   0  0  0  0  0  0  0  0  0  0  0  0
   15.1905   -7.1122   -9.9227 C   0  0  0  0  0  0  0  0  0  0  0  0
   14.9520   -6.5006  -10.9980 O   0  0  0  0  0  0  0  0  0  0  0  0
   15.5229   -6.3379   -8.7931 N   0  0  0  0  0  0  0  0  0  0  0  0
   15.6025   -4.8567   -8.8352 C   0  0  1  0  0  0  0  0  0  0  0  0
   14.9067   -4.3955   -7.5829 C   0  0  0  0  0  0  0  0  0  0  0  0
   13.4582   -4.5284   -7.6025 C   0  0  0  0  0  0  0  0  0  0  0  0
   12.7546   -4.5815   -8.6282 O   0  0  0  0  0  0  0  0  0  0  0  0
   17.0100   -4.4473   -8.9151 C   0  0  0  0  0  0  0  0  0  0  0  0
   17.2943   -3.2238   -9.0316 O   0  0  0  0  0  0  0  0  0  0  0  0
   12.7520   -4.6068   -6.3899 O   0  0  0  0  0  0  0  0  0  0  0  0
   18.0532   -5.3327   -8.8686 O   0  0  0  0  0  0  0  0  0  0  0  0
  2  1  1  0
  2  3  1  0
  3 11  1  0
  4  3  2  0
  6  7  2  0
  6  5  1  0
  8  6  1  0
  9  8  1  0
 10 12  1  0
 10  9  1  6
 11 10  1  0
 12 14  1  0
 13 12  2  0
 14 15  1  0
 15 19  1  0
 15 16  1  1
 16 17  1  0
 17 18  2  0
 17 21  1  0
 19 20  2  0
 19 22  1  0
M  END
$$$$
