GQD.pdb
     RDKit          3D

 22 21  0  0  1  0  0  0  0  0999 V2000
   15.3499  -12.1182  -13.8393 N   0  0  0  0  0  0  0  0  0  0  0  0
   15.3557  -11.0818  -14.8211 C   0  0  0  0  0  0  0  0  0  0  0  0
   16.7574  -10.7215  -15.1419 C   0  0  0  0  0  0  0  0  0  0  0  0
   17.7176  -11.2000  -14.4774 O   0  0  0  0  0  0  0  0  0  0  0  0
   19.9036  -10.6927  -19.9663 N   0  0  0  0  0  0  0  0  0  0  0  0
   20.6709   -9.7287  -19.2750 C   0  0  0  0  0  0  0  0  0  0  0  0
   21.8646   -9.5941  -19.6325 O   0  0  0  0  0  0  0  0  0  0  0  0
   20.1237   -8.8983  -18.1746 C   0  0  0  0  0  0  0  0  0  0  0  0
   18.7218   -9.3252  -17.8999 C   0  0  0  0  0  0  0  0  0  0  0  0
   18.3671   -9.3773  -16.4308 C   0  0  2  0  0  0  0  0  0  0  0  0
   17.0143   -9.8251  -16.2128 N   0  0  0  0  0  0  0  0  0  0  0  0
   18.5553   -8.0331  -15.7891 C   0  0  0  0  0  0  0  0  0  0  0  0
   17.6021   -7.2112  -15.7343 O   0  0  0  0  0  0  0  0  0  0  0  0
   19.7873   -7.6397  -15.2292 N   0  0  0  0  0  0  0  0  0  0  0  0
   20.0148   -6.2832  -14.6722 C   0  0  1  0  0  0  0  0  0  0  0  0
   21.2370   -6.4203  -13.8048 C   0  0  0  0  0  0  0  0  0  0  0  0
   21.6586   -5.1958  -13.1423 C   0  0  0  0  0  0  0  0  0  0  0  0
   21.1141   -4.0838  -13.2720 O   0  0  0  0  0  0  0  0  0  0  0  0
   20.1750   -5.3258  -15.7734 C   0  0  0  0  0  0  0  0  0  0  0  0
   20.8322   -5.6616  -16.7964 O   0  0  0  0  0  0  0  0  0  0  0  0
   22.7654   -5.2208  -12.2764 O   0  0  0  0  0  0  0  0  0  0  0  0
   19.6415   -4.0651  -15.7557 O   0  0  0  0  0  0  0  0  0  0  0  0
  2  1  1  0
  2  3  1  0
  3 11  1  0
  4  3  2  0
  6  7  2  0
  6  5  1  0
  8  6  1  0
  9  8  1  0
 10 12  1  0
 10  9  1  6
 11 10  1  0
 12 14  1  0
 13 12  2  0
 14 15  1  0
 15 19  1  0
 15 16  1  6
 16 17  1  0
 17 18  2  0
 17 21  1  0
 19 20  2  0
 19 22  1  0
M  END
$$$$
