GQD.pdb
     RDKit          3D

 22 21  0  0  1  0  0  0  0  0999 V2000
   23.4781  -11.2625  -18.4538 N   0  0  0  0  0  0  0  0  0  0  0  0
   23.9573  -10.1977  -17.6323 C   0  0  0  0  0  0  0  0  0  0  0  0
   22.8444   -9.2594  -17.3516 C   0  0  0  0  0  0  0  0  0  0  0  0
   22.4568   -8.4346  -18.2245 O   0  0  0  0  0  0  0  0  0  0  0  0
   18.4569  -10.0068  -12.9537 N   0  0  0  0  0  0  0  0  0  0  0  0
   18.3643  -10.4580  -14.2893 C   0  0  0  0  0  0  0  0  0  0  0  0
   17.4875  -11.3191  -14.5355 O   0  0  0  0  0  0  0  0  0  0  0  0
   19.2450   -9.9593  -15.3734 C   0  0  0  0  0  0  0  0  0  0  0  0
   20.1461   -8.9093  -14.8178 C   0  0  0  0  0  0  0  0  0  0  0  0
   21.1464   -8.3628  -15.8116 C   0  0  2  0  0  0  0  0  0  0  0  0
   22.2119   -9.2957  -16.0809 N   0  0  0  0  0  0  0  0  0  0  0  0
   21.7303   -7.0687  -15.3230 C   0  0  0  0  0  0  0  0  0  0  0  0
   22.5979   -7.0628  -14.4095 O   0  0  0  0  0  0  0  0  0  0  0  0
   21.3390   -5.8248  -15.8574 N   0  0  0  0  0  0  0  0  0  0  0  0
   21.8586   -4.5344  -15.3409 C   0  0  1  0  0  0  0  0  0  0  0  0
   21.9563   -3.6439  -16.5502 C   0  0  0  0  0  0  0  0  0  0  0  0
   22.4246   -2.2934  -16.2803 C   0  0  0  0  0  0  0  0  0  0  0  0
   23.0039   -1.9272  -15.2409 O   0  0  0  0  0  0  0  0  0  0  0  0
   20.9532   -4.0259  -14.3031 C   0  0  0  0  0  0  0  0  0  0  0  0
   21.2297   -2.9452  -13.7142 O   0  0  0  0  0  0  0  0  0  0  0  0
   22.2298   -1.2863  -17.2411 O   0  0  0  0  0  0  0  0  0  0  0  0
   19.8029   -4.6678  -13.9302 O   0  0  0  0  0  0  0  0  0  0  0  0
  2  1  1  0
  2  3  1  0
  3 11  1  0
  4  3  2  0
  6  7  2  0
  6  5  1  0
  8  6  1  0
  9  8  1  0
 10 12  1  0
 10  9  1  1
 11 10  1  0
 12 14  1  0
 13 12  2  0
 14 15  1  0
 15 19  1  0
 15 16  1  6
 16 17  1  0
 17 18  2  0
 17 21  1  0
 19 20  2  0
 19 22  1  0
M  END
$$$$
