GQD.pdb
     RDKit          3D

 22 21  0  0  1  0  0  0  0  0999 V2000
   19.2264  -12.3591  -16.6128 N   0  0  0  0  0  0  0  0  0  0  0  0
   20.0506  -11.3898  -17.2603 C   0  0  0  0  0  0  0  0  0  0  0  0
   20.8593  -10.6784  -16.2416 C   0  0  0  0  0  0  0  0  0  0  0  0
   20.4576  -10.5791  -15.0494 O   0  0  0  0  0  0  0  0  0  0  0  0
   26.9937  -10.0958  -16.0005 N   0  0  0  0  0  0  0  0  0  0  0  0
   26.1515  -11.1519  -15.5867 C   0  0  0  0  0  0  0  0  0  0  0  0
   26.7052  -12.2430  -15.3149 O   0  0  0  0  0  0  0  0  0  0  0  0
   24.6797  -11.0125  -15.4681 C   0  0  0  0  0  0  0  0  0  0  0  0
   24.3110   -9.5855  -15.6938 C   0  0  0  0  0  0  0  0  0  0  0  0
   22.8235   -9.3166  -15.6532 C   0  0  2  0  0  0  0  0  0  0  0  0
   22.1011  -10.1039  -16.6209 N   0  0  0  0  0  0  0  0  0  0  0  0
   22.5386   -7.8607  -15.8844 C   0  0  0  0  0  0  0  0  0  0  0  0
   22.8464   -7.3142  -16.9771 O   0  0  0  0  0  0  0  0  0  0  0  0
   21.9242   -7.0559  -14.9042 N   0  0  0  0  0  0  0  0  0  0  0  0
   21.6312   -5.6174  -15.1205 C   0  0  1  0  0  0  0  0  0  0  0  0
   20.1365   -5.5021  -14.9882 C   0  0  0  0  0  0  0  0  0  0  0  0
   19.3829   -5.9381  -16.1536 C   0  0  0  0  0  0  0  0  0  0  0  0
   19.7473   -5.8056  -17.3367 O   0  0  0  0  0  0  0  0  0  0  0  0
   22.3755   -4.8167  -14.1406 C   0  0  0  0  0  0  0  0  0  0  0  0
   22.9563   -5.3940  -13.1810 O   0  0  0  0  0  0  0  0  0  0  0  0
   18.1369   -6.5647  -15.9798 O   0  0  0  0  0  0  0  0  0  0  0  0
   22.4794   -3.4534  -14.2088 O   0  0  0  0  0  0  0  0  0  0  0  0
  2  1  1  0
  2  3  1  0
  3 11  1  0
  4  3  2  0
  6  7  2  0
  6  5  1  0
  8  6  1  0
  9  8  1  0
 10 12  1  0
 10  9  1  6
 11 10  1  0
 12 14  1  0
 13 12  2  0
 14 15  1  0
 15 19  1  0
 15 16  1  1
 16 17  1  0
 17 18  2  0
 17 21  1  0
 19 20  2  0
 19 22  1  0
M  END
$$$$
