GQD.pdb
     RDKit          3D

 22 21  0  0  1  0  0  0  0  0999 V2000
   15.1753   -6.8395   -7.1210 N   0  0  0  0  0  0  0  0  0  0  0  0
   15.0985   -6.5287   -8.5123 C   0  0  0  0  0  0  0  0  0  0  0  0
   16.1218   -7.3128   -9.2444 C   0  0  0  0  0  0  0  0  0  0  0  0
   17.3200   -7.3424   -8.8496 O   0  0  0  0  0  0  0  0  0  0  0  0
   16.0954  -12.6451  -11.2265 N   0  0  0  0  0  0  0  0  0  0  0  0
   17.0570  -12.1945  -12.1583 C   0  0  0  0  0  0  0  0  0  0  0  0
   17.8541  -13.0513  -12.6070 O   0  0  0  0  0  0  0  0  0  0  0  0
   17.1483  -10.7837  -12.6067 C   0  0  0  0  0  0  0  0  0  0  0  0
   16.1499   -9.9727  -11.8527 C   0  0  0  0  0  0  0  0  0  0  0  0
   16.7429   -8.7994  -11.1053 C   0  0  2  0  0  0  0  0  0  0  0  0
   15.7400   -8.0371  -10.4044 N   0  0  0  0  0  0  0  0  0  0  0  0
   17.4912   -7.8946  -12.0411 C   0  0  0  0  0  0  0  0  0  0  0  0
   16.8823   -7.0081  -12.6974 O   0  0  0  0  0  0  0  0  0  0  0  0
   18.8850   -7.9968  -12.2223 N   0  0  0  0  0  0  0  0  0  0  0  0
   19.6338   -7.1294  -13.1651 C   0  0  1  0  0  0  0  0  0  0  0  0
   20.8239   -6.6432  -12.3827 C   0  0  0  0  0  0  0  0  0  0  0  0
   21.7478   -5.8046  -13.1306 C   0  0  0  0  0  0  0  0  0  0  0  0
   21.5482   -5.3583  -14.2756 O   0  0  0  0  0  0  0  0  0  0  0  0
   19.9879   -7.9032  -14.3613 C   0  0  0  0  0  0  0  0  0  0  0  0
   20.3437   -9.1071  -14.2382 O   0  0  0  0  0  0  0  0  0  0  0  0
   22.9779   -5.4428  -12.5553 O   0  0  0  0  0  0  0  0  0  0  0  0
   19.9530   -7.3851  -15.6281 O   0  0  0  0  0  0  0  0  0  0  0  0
  2  1  1  0
  2  3  1  0
  3 11  1  0
  4  3  2  0
  6  7  2  0
  6  5  1  0
  8  6  1  0
  9  8  1  0
 10 12  1  0
 10  9  1  6
 11 10  1  0
 12 14  1  0
 13 12  2  0
 14 15  1  0
 15 19  1  0
 15 16  1  1
 16 17  1  0
 17 18  2  0
 17 21  1  0
 19 20  2  0
 19 22  1  0
M  END
$$$$
