GQD.pdb
     RDKit          3D

 22 21  0  0  1  0  0  0  0  0999 V2000
   27.5021  -18.5146  -15.7218 N   0  0  0  0  0  0  0  0  0  0  0  0
   26.8030  -18.0507  -14.5667 C   0  0  0  0  0  0  0  0  0  0  0  0
   25.9829  -19.1562  -14.0162 C   0  0  0  0  0  0  0  0  0  0  0  0
   25.7852  -20.2098  -14.6820 O   0  0  0  0  0  0  0  0  0  0  0  0
   26.1339  -22.6231  -11.3595 N   0  0  0  0  0  0  0  0  0  0  0  0
   26.9020  -21.5853  -10.7860 C   0  0  0  0  0  0  0  0  0  0  0  0
   28.1410  -21.7654  -10.7271 O   0  0  0  0  0  0  0  0  0  0  0  0
   26.3054  -20.3301  -10.2682 C   0  0  0  0  0  0  0  0  0  0  0  0
   24.8745  -20.2696  -10.6830 C   0  0  0  0  0  0  0  0  0  0  0  0
   24.6678  -20.1233  -12.1739 C   0  0  2  0  0  0  0  0  0  0  0  0
   25.4158  -19.0194  -12.7217 N   0  0  0  0  0  0  0  0  0  0  0  0
   23.2120  -19.9455  -12.4951 C   0  0  0  0  0  0  0  0  0  0  0  0
   22.4687  -19.2640  -11.7398 O   0  0  0  0  0  0  0  0  0  0  0  0
   22.6240  -20.5242  -13.6376 N   0  0  0  0  0  0  0  0  0  0  0  0
   21.2081  -20.2884  -14.0138 C   0  0  1  0  0  0  0  0  0  0  0  0
   21.2732  -19.5213  -15.3069 C   0  0  0  0  0  0  0  0  0  0  0  0
   19.9825  -19.2222  -15.9075 C   0  0  0  0  0  0  0  0  0  0  0  0
   18.9504  -18.9189  -15.2806 O   0  0  0  0  0  0  0  0  0  0  0  0
   20.5132  -21.5768  -14.1244 C   0  0  0  0  0  0  0  0  0  0  0  0
   21.1188  -22.5678  -14.6168 O   0  0  0  0  0  0  0  0  0  0  0  0
   19.8402  -19.2665  -17.3050 O   0  0  0  0  0  0  0  0  0  0  0  0
   19.2211  -21.7704  -13.7154 O   0  0  0  0  0  0  0  0  0  0  0  0
  2  1  1  0
  2  3  1  0
  3 11  1  0
  4  3  2  0
  6  7  2  0
  6  5  1  0
  8  6  1  0
  9  8  1  0
 10 12  1  0
 10  9  1  1
 11 10  1  0
 12 14  1  0
 13 12  2  0
 14 15  1  0
 15 19  1  0
 15 16  1  6
 16 17  1  0
 17 18  2  0
 17 21  1  0
 19 20  2  0
 19 22  1  0
M  END
$$$$
