NML.pdb
     RDKit          3D

 25 24  0  0  1  0  0  0  0  0999 V2000
   27.0967  -17.7473  -18.7234 N   0  0  0  0  0  0  0  0  0  0  0  0
   27.8485  -17.8594  -17.5223 C   0  0  0  0  0  0  0  0  0  0  0  0
   28.8162  -17.0665  -17.3944 O   0  0  0  0  0  0  0  0  0  0  0  0
   27.5753  -18.8139  -16.4516 C   0  0  0  0  0  0  0  0  0  0  0  0
   28.5698  -19.9088  -16.3120 C   0  0  2  0  0  0  0  0  0  0  0  0
   28.6377  -20.8341  -17.3833 N   0  0  0  0  0  0  0  0  0  0  0  0
   28.2835  -20.6650  -15.0558 C   0  0  0  0  0  0  0  0  0  0  0  0
   27.3837  -21.5493  -15.1523 O   0  0  0  0  0  0  0  0  0  0  0  0
   32.1622  -22.3356   -9.9599 C   0  0  0  0  0  0  0  0  0  0  0  0
   30.6615  -21.6807   -9.1586 S   0  0  0  0  0  0  0  0  0  0  0  0
   29.2995  -21.7605  -10.3532 C   0  0  0  0  0  0  0  0  0  0  0  0
   29.6938  -20.9458  -11.5693 C   0  0  0  0  0  0  0  0  0  0  0  0
   28.6142  -21.0592  -12.6281 C   0  0  2  0  0  0  0  0  0  0  0  0
   28.9706  -20.4091  -13.8446 N   0  0  0  0  0  0  0  0  0  0  0  0
   27.3845  -20.4760  -12.0447 C   0  0  0  0  0  0  0  0  0  0  0  0
   27.3376  -19.2328  -11.8875 O   0  0  0  0  0  0  0  0  0  0  0  0
   23.5008  -19.2767  -13.4116 C   0  0  0  0  0  0  0  0  0  0  0  0
   23.7258  -20.7679  -13.2534 C   0  0  2  0  0  0  0  0  0  0  0  0
   22.8094  -21.5273  -14.1191 C   0  0  0  0  0  0  0  0  0  0  0  0
   23.9243  -21.1828  -11.8553 C   0  0  0  0  0  0  0  0  0  0  0  0
   25.0441  -20.6325  -11.0645 C   0  0  2  0  0  0  0  0  0  0  0  0
   26.2662  -21.2441  -11.6575 N   0  0  0  0  0  0  0  0  0  0  0  0
   24.9749  -21.0406   -9.6522 C   0  0  0  0  0  0  0  0  0  0  0  0
   25.7052  -21.9255   -9.1867 O   0  0  0  0  0  0  0  0  0  0  0  0
   24.0658  -20.4375   -8.7548 O   0  0  0  0  0  0  0  0  0  0  0  0
  1  2  1  0
  2  3  2  0
  4  2  1  0
  5  7  1  0
  5  4  1  0
  5  6  1  6
  7  8  2  0
  9 10  1  0
 10 11  1  0
 12 11  1  0
 13 12  1  1
 13 14  1  0
 14  7  1  0
 15 13  1  0
 16 15  2  0
 18 17  1  1
 18 20  1  0
 18 19  1  0
 21 20  1  6
 21 22  1  0
 21 23  1  0
 22 15  1  0
 23 25  1  0
 24 23  2  0
M  END
$$$$
