NML.pdb
     RDKit          3D

 25 24  0  0  1  0  0  0  0  0999 V2000
   29.3963  -20.2054  -18.7092 N   0  0  0  0  0  0  0  0  0  0  0  0
   29.5176  -21.4895  -18.1119 C   0  0  0  0  0  0  0  0  0  0  0  0
   30.2382  -22.3214  -18.7205 O   0  0  0  0  0  0  0  0  0  0  0  0
   28.8742  -21.8954  -16.8656 C   0  0  0  0  0  0  0  0  0  0  0  0
   28.0034  -20.8672  -16.2397 C   0  0  2  0  0  0  0  0  0  0  0  0
   28.5687  -19.5768  -16.0855 N   0  0  0  0  0  0  0  0  0  0  0  0
   27.5699  -21.3538  -14.8954 C   0  0  0  0  0  0  0  0  0  0  0  0
   26.8421  -22.3887  -14.9058 O   0  0  0  0  0  0  0  0  0  0  0  0
   30.5486  -21.3410   -9.2246 C   0  0  0  0  0  0  0  0  0  0  0  0
   28.8925  -20.8521   -8.6401 S   0  0  0  0  0  0  0  0  0  0  0  0
   27.7045  -21.1663   -9.9736 C   0  0  0  0  0  0  0  0  0  0  0  0
   28.3676  -20.8037  -11.2878 C   0  0  0  0  0  0  0  0  0  0  0  0
   27.4153  -21.0893  -12.4327 C   0  0  2  0  0  0  0  0  0  0  0  0
   27.9473  -20.7023  -13.6964 N   0  0  0  0  0  0  0  0  0  0  0  0
   26.1595  -20.3649  -12.1311 C   0  0  0  0  0  0  0  0  0  0  0  0
   26.0914  -19.1500  -12.4340 O   0  0  0  0  0  0  0  0  0  0  0  0
   22.7718  -18.9878  -14.3748 C   0  0  0  0  0  0  0  0  0  0  0  0
   23.4751  -20.3246  -14.2417 C   0  0  2  0  0  0  0  0  0  0  0  0
   23.4146  -21.0728  -15.5077 C   0  0  0  0  0  0  0  0  0  0  0  0
   23.1883  -21.0107  -12.9717 C   0  0  0  0  0  0  0  0  0  0  0  0
   23.6567  -20.4402  -11.6921 C   0  0  2  0  0  0  0  0  0  0  0  0
   25.0391  -20.9688  -11.5224 N   0  0  0  0  0  0  0  0  0  0  0  0
   22.8516  -20.9078  -10.5522 C   0  0  0  0  0  0  0  0  0  0  0  0
   21.7025  -20.4956  -10.3455 O   0  0  0  0  0  0  0  0  0  0  0  0
   23.3554  -21.8558   -9.6341 O   0  0  0  0  0  0  0  0  0  0  0  0
  1  2  1  0
  2  3  2  0
  4  2  1  0
  5  7  1  0
  5  4  1  0
  5  6  1  1
  7  8  2  0
  9 10  1  0
 10 11  1  0
 12 11  1  0
 13 12  1  1
 13 14  1  0
 14  7  1  0
 15 13  1  0
 16 15  2  0
 18 17  1  6
 18 20  1  0
 18 19  1  0
 21 20  1  6
 21 22  1  0
 21 23  1  0
 22 15  1  0
 23 25  1  0
 24 23  2  0
M  END
$$$$
