NML.pdb
     RDKit          3D

 25 24  0  0  1  0  0  0  0  0999 V2000
   28.0277  -16.4870  -16.1863 N   0  0  0  0  0  0  0  0  0  0  0  0
   28.6000  -17.7069  -16.6387 C   0  0  0  0  0  0  0  0  0  0  0  0
   29.2697  -17.6479  -17.7016 O   0  0  0  0  0  0  0  0  0  0  0  0
   28.4638  -18.9946  -15.9640 C   0  0  0  0  0  0  0  0  0  0  0  0
   27.5844  -18.9909  -14.7666 C   0  0  2  0  0  0  0  0  0  0  0  0
   27.8582  -18.0001  -13.7910 N   0  0  0  0  0  0  0  0  0  0  0  0
   27.6571  -20.3303  -14.1090 C   0  0  0  0  0  0  0  0  0  0  0  0
   27.1524  -21.2836  -14.7705 O   0  0  0  0  0  0  0  0  0  0  0  0
   31.7505  -20.9012   -9.4544 C   0  0  0  0  0  0  0  0  0  0  0  0
   32.0474  -22.0831  -10.8102 S   0  0  0  0  0  0  0  0  0  0  0  0
   30.6830  -21.9404  -11.9962 C   0  0  0  0  0  0  0  0  0  0  0  0
   29.3816  -21.9634  -11.2192 C   0  0  0  0  0  0  0  0  0  0  0  0
   28.2174  -21.7784  -12.1731 C   0  0  2  0  0  0  0  0  0  0  0  0
   28.2486  -20.5180  -12.8364 N   0  0  0  0  0  0  0  0  0  0  0  0
   26.9825  -21.9359  -11.3714 C   0  0  0  0  0  0  0  0  0  0  0  0
   27.0023  -22.7383  -10.4080 O   0  0  0  0  0  0  0  0  0  0  0  0
   25.2196  -21.3220   -7.6224 C   0  0  0  0  0  0  0  0  0  0  0  0
   26.0222  -20.3418   -8.4558 C   0  0  2  0  0  0  0  0  0  0  0  0
   26.6292  -19.3079   -7.6021 C   0  0  0  0  0  0  0  0  0  0  0  0
   25.3528  -19.9562   -9.7084 C   0  0  0  0  0  0  0  0  0  0  0  0
   24.7593  -20.9859  -10.5858 C   0  0  2  0  0  0  0  0  0  0  0  0
   25.7882  -21.2324  -11.6344 N   0  0  0  0  0  0  0  0  0  0  0  0
   23.5397  -20.5045  -11.2544 C   0  0  0  0  0  0  0  0  0  0  0  0
   23.5624  -20.0164  -12.3921 O   0  0  0  0  0  0  0  0  0  0  0  0
   22.2770  -20.5774  -10.6253 O   0  0  0  0  0  0  0  0  0  0  0  0
  1  2  1  0
  2  3  2  0
  4  2  1  0
  5  7  1  0
  5  4  1  0
  5  6  1  1
  7  8  2  0
  9 10  1  0
 10 11  1  0
 12 11  1  0
 13 12  1  1
 13 14  1  0
 14  7  1  0
 15 13  1  0
 16 15  2  0
 18 17  1  1
 18 20  1  0
 18 19  1  0
 21 20  1  1
 21 22  1  0
 21 23  1  0
 22 15  1  0
 23 25  1  0
 24 23  2  0
M  END
$$$$
