NML.pdb
     RDKit          3D

 25 24  0  0  1  0  0  0  0  0999 V2000
   27.4884  -20.9595  -15.9663 N   0  0  0  0  0  0  0  0  0  0  0  0
   27.1054  -19.6035  -16.1531 C   0  0  0  0  0  0  0  0  0  0  0  0
   27.9925  -18.8298  -16.5962 O   0  0  0  0  0  0  0  0  0  0  0  0
   25.7786  -19.0634  -15.8706 C   0  0  0  0  0  0  0  0  0  0  0  0
   24.7710  -20.0615  -15.4282 C   0  0  2  0  0  0  0  0  0  0  0  0
   24.4421  -21.0760  -16.3615 N   0  0  0  0  0  0  0  0  0  0  0  0
   23.5151  -19.3461  -15.0502 C   0  0  0  0  0  0  0  0  0  0  0  0
   23.6491  -18.4546  -14.1623 O   0  0  0  0  0  0  0  0  0  0  0  0
   19.6454  -20.0719  -20.2317 C   0  0  0  0  0  0  0  0  0  0  0  0
   19.2547  -19.1367  -18.7165 S   0  0  0  0  0  0  0  0  0  0  0  0
   20.7746  -18.9773  -17.7403 C   0  0  0  0  0  0  0  0  0  0  0  0
   20.4345  -18.2412  -16.4595 C   0  0  0  0  0  0  0  0  0  0  0  0
   21.0765  -18.9484  -15.2817 C   0  0  2  0  0  0  0  0  0  0  0  0
   22.2651  -19.6454  -15.6438 N   0  0  0  0  0  0  0  0  0  0  0  0
   20.0563  -19.8705  -14.7327 C   0  0  0  0  0  0  0  0  0  0  0  0
   20.1703  -21.0940  -14.9830 O   0  0  0  0  0  0  0  0  0  0  0  0
   18.0539  -22.0804  -10.0157 C   0  0  0  0  0  0  0  0  0  0  0  0
   17.5114  -21.7993  -11.4036 C   0  0  2  0  0  0  0  0  0  0  0  0
   17.0164  -23.0360  -12.0292 C   0  0  0  0  0  0  0  0  0  0  0  0
   18.3484  -20.8705  -12.1799 C   0  0  0  0  0  0  0  0  0  0  0  0
   17.8938  -20.3774  -13.4962 C   0  0  2  0  0  0  0  0  0  0  0  0
   18.9657  -19.4454  -13.9450 N   0  0  0  0  0  0  0  0  0  0  0  0
   16.6418  -19.6102  -13.3953 C   0  0  0  0  0  0  0  0  0  0  0  0
   15.5331  -20.1610  -13.3711 O   0  0  0  0  0  0  0  0  0  0  0  0
   16.6461  -18.1997  -13.3206 O   0  0  0  0  0  0  0  0  0  0  0  0
  1  2  1  0
  2  3  2  0
  4  2  1  0
  5  7  1  0
  5  4  1  0
  5  6  1  6
  7  8  2  0
  9 10  1  0
 10 11  1  0
 12 11  1  0
 13 12  1  6
 13 14  1  0
 14  7  1  0
 15 13  1  0
 16 15  2  0
 18 17  1  1
 18 20  1  0
 18 19  1  0
 21 20  1  1
 21 22  1  0
 21 23  1  0
 22 15  1  0
 23 25  1  0
 24 23  2  0
M  END
$$$$
