NML.pdb
     RDKit          3D

 25 24  0  0  1  0  0  0  0  0999 V2000
   29.0991  -20.5759  -17.3713 N   0  0  0  0  0  0  0  0  0  0  0  0
   27.8234  -19.9968  -17.1315 C   0  0  0  0  0  0  0  0  0  0  0  0
   27.4876  -19.0535  -17.8925 O   0  0  0  0  0  0  0  0  0  0  0  0
   26.8987  -20.4172  -16.0827 C   0  0  0  0  0  0  0  0  0  0  0  0
   27.3885  -21.5167  -15.2117 C   0  0  2  0  0  0  0  0  0  0  0  0
   27.5244  -22.7878  -15.8237 N   0  0  0  0  0  0  0  0  0  0  0  0
   26.4684  -21.6542  -14.0428 C   0  0  0  0  0  0  0  0  0  0  0  0
   25.4318  -22.3491  -14.2518 O   0  0  0  0  0  0  0  0  0  0  0  0
   27.2873  -20.5270   -7.1802 C   0  0  0  0  0  0  0  0  0  0  0  0
   25.8994  -19.6087   -7.9242 S   0  0  0  0  0  0  0  0  0  0  0  0
   25.3030  -20.5453   -9.3579 C   0  0  0  0  0  0  0  0  0  0  0  0
   26.2807  -20.3329  -10.4968 C   0  0  0  0  0  0  0  0  0  0  0  0
   25.7836  -21.0552  -11.7340 C   0  0  2  0  0  0  0  0  0  0  0  0
   26.7383  -21.0496  -12.7914 N   0  0  0  0  0  0  0  0  0  0  0  0
   24.5258  -20.3869  -12.1390 C   0  0  0  0  0  0  0  0  0  0  0  0
   24.6069  -19.3544  -12.8460 O   0  0  0  0  0  0  0  0  0  0  0  0
   21.5491  -19.0873  -15.1247 C   0  0  0  0  0  0  0  0  0  0  0  0
   22.2513  -20.4241  -14.9860 C   0  0  2  0  0  0  0  0  0  0  0  0
   22.2025  -21.1716  -16.2529 C   0  0  0  0  0  0  0  0  0  0  0  0
   21.9532  -21.1109  -13.7190 C   0  0  0  0  0  0  0  0  0  0  0  0
   22.0016  -20.3733  -12.4400 C   0  0  2  0  0  0  0  0  0  0  0  0
   23.2447  -20.8500  -11.7718 N   0  0  0  0  0  0  0  0  0  0  0  0
   20.8640  -20.7066  -11.5677 C   0  0  0  0  0  0  0  0  0  0  0  0
   20.8852  -21.6794  -10.8021 O   0  0  0  0  0  0  0  0  0  0  0  0
   19.6862  -19.9267  -11.5627 O   0  0  0  0  0  0  0  0  0  0  0  0
  1  2  1  0
  2  3  2  0
  4  2  1  0
  5  7  1  0
  5  4  1  0
  5  6  1  6
  7  8  2  0
  9 10  1  0
 10 11  1  0
 12 11  1  0
 13 12  1  1
 13 14  1  0
 14  7  1  0
 15 13  1  0
 16 15  2  0
 18 17  1  6
 18 20  1  0
 18 19  1  0
 21 20  1  6
 21 22  1  0
 21 23  1  0
 22 15  1  0
 23 25  1  0
 24 23  2  0
M  END
$$$$
