NML.pdb
     RDKit          3D

 25 24  0  0  1  0  0  0  0  0999 V2000
   17.4996  -14.3306  -17.2542 N   0  0  0  0  0  0  0  0  0  0  0  0
   18.0239  -13.0151  -17.3755 C   0  0  0  0  0  0  0  0  0  0  0  0
   17.5843  -12.3258  -18.3312 O   0  0  0  0  0  0  0  0  0  0  0  0
   19.0172  -12.4257  -16.4822 C   0  0  0  0  0  0  0  0  0  0  0  0
   19.4967  -11.0750  -16.8733 C   0  0  2  0  0  0  0  0  0  0  0  0
   20.2499  -10.9999  -18.0714 N   0  0  0  0  0  0  0  0  0  0  0  0
   20.3241  -10.5151  -15.7625 C   0  0  0  0  0  0  0  0  0  0  0  0
   19.7671  -10.5077  -14.6265 O   0  0  0  0  0  0  0  0  0  0  0  0
   26.2513  -13.2294  -15.6017 C   0  0  0  0  0  0  0  0  0  0  0  0
   25.9121  -11.4388  -15.5635 S   0  0  0  0  0  0  0  0  0  0  0  0
   24.1752  -11.2001  -15.1000 C   0  0  0  0  0  0  0  0  0  0  0  0
   23.8955   -9.7103  -15.0798 C   0  0  0  0  0  0  0  0  0  0  0  0
   22.4077   -9.4755  -14.9044 C   0  0  2  0  0  0  0  0  0  0  0  0
   21.6375  -10.0280  -15.9679 N   0  0  0  0  0  0  0  0  0  0  0  0
   22.2180   -8.0103  -14.8054 C   0  0  0  0  0  0  0  0  0  0  0  0
   22.7798   -7.4046  -13.8620 O   0  0  0  0  0  0  0  0  0  0  0  0
   20.6210   -3.5233  -18.6142 C   0  0  0  0  0  0  0  0  0  0  0  0
   21.0260   -3.8305  -17.1856 C   0  0  2  0  0  0  0  0  0  0  0  0
   22.0024   -2.8432  -16.6978 C   0  0  0  0  0  0  0  0  0  0  0  0
   21.2486   -5.2640  -16.9378 C   0  0  0  0  0  0  0  0  0  0  0  0
   21.2208   -5.7972  -15.5604 C   0  0  2  0  0  0  0  0  0  0  0  0
   21.4402   -7.2625  -15.7144 N   0  0  0  0  0  0  0  0  0  0  0  0
   19.9102   -5.6019  -14.9198 C   0  0  0  0  0  0  0  0  0  0  0  0
   18.9206   -6.2800  -15.2265 O   0  0  0  0  0  0  0  0  0  0  0  0
   19.7183   -4.6250  -13.9177 O   0  0  0  0  0  0  0  0  0  0  0  0
  1  2  1  0
  2  3  2  0
  4  2  1  0
  5  7  1  0
  5  4  1  0
  5  6  1  6
  7  8  2  0
  9 10  1  0
 10 11  1  0
 12 11  1  0
 13 12  1  6
 13 14  1  0
 14  7  1  0
 15 13  1  0
 16 15  2  0
 18 17  1  6
 18 20  1  0
 18 19  1  0
 21 20  1  6
 21 22  1  0
 21 23  1  0
 22 15  1  0
 23 25  1  0
 24 23  2  0
M  END
$$$$
