PFL.pdb
     RDKit          3D

 27 28  0  0  1  0  0  0  0  0999 V2000
   27.9316  -20.9612  -16.5894 N   0  0  0  0  0  0  0  0  0  0  0  0
   28.8297  -21.2860  -17.6907 C   0  0  0  0  0  0  0  0  0  0  0  0
   29.2006  -22.7259  -17.5517 C   0  0  0  0  0  0  0  0  0  0  0  0
   28.4004  -23.1945  -16.3304 C   0  0  0  0  0  0  0  0  0  0  0  0
   27.2380  -22.1947  -16.3819 C   0  0  1  0  0  0  0  0  0  0  0  0
   26.4765  -22.2079  -15.0950 C   0  0  0  0  0  0  0  0  0  0  0  0
   25.7000  -23.1622  -14.8428 O   0  0  0  0  0  0  0  0  0  0  0  0
   26.6140  -21.1711  -14.1619 N   0  0  0  0  0  0  0  0  0  0  0  0
   25.9530  -21.1129  -12.8933 C   0  0  1  0  0  0  0  0  0  0  0  0
   26.9143  -20.5966  -11.8439 C   0  0  0  0  0  0  0  0  0  0  0  0
   26.2943  -20.4560  -10.5192 C   0  0  0  0  0  0  0  0  0  0  0  0
   26.0197  -21.5351   -9.7106 C   0  0  0  0  0  0  0  0  0  0  0  0
   25.4327  -21.3809   -8.4603 C   0  0  0  0  0  0  0  0  0  0  0  0
   25.1032  -20.1319   -7.9846 C   0  0  0  0  0  0  0  0  0  0  0  0
   25.3737  -19.0458   -8.7857 C   0  0  0  0  0  0  0  0  0  0  0  0
   25.9608  -19.2127  -10.0337 C   0  0  0  0  0  0  0  0  0  0  0  0
   24.6817  -20.3850  -12.9260 C   0  0  0  0  0  0  0  0  0  0  0  0
   24.7018  -19.1682  -13.2431 O   0  0  0  0  0  0  0  0  0  0  0  0
   22.1378  -18.1833  -15.3200 C   0  0  0  0  0  0  0  0  0  0  0  0
   21.2166  -19.2996  -15.0180 C   0  0  1  0  0  0  0  0  0  0  0  0
   20.6093  -19.8076  -16.3357 C   0  0  0  0  0  0  0  0  0  0  0  0
   21.6645  -20.4013  -14.1599 C   0  0  0  0  0  0  0  0  0  0  0  0
   22.1627  -20.1698  -12.7960 C   0  0  2  0  0  0  0  0  0  0  0  0
   23.4173  -20.9525  -12.6247 N   0  0  0  0  0  0  0  0  0  0  0  0
   21.3269  -20.5193  -11.6547 C   0  0  0  0  0  0  0  0  0  0  0  0
   21.3366  -21.7290  -11.2331 O   0  0  0  0  0  0  0  0  0  0  0  0
   20.4929  -19.6896  -10.9308 O   0  0  0  0  0  0  0  0  0  0  0  0
  1  2  1  0
  2  3  1  0
  4  3  1  0
  5  1  1  0
  5  4  1  0
  5  6  1  1
  7  6  2  0
  8  6  1  0
  9  8  1  0
  9 10  1  1
 10 11  1  0
 11 12  2  0
 12 13  1  0
 14 13  2  0
 15 14  1  0
 16 15  2  0
 16 11  1  0
 17 24  1  0
 17  9  1  0
 18 17  2  0
 20 19  1  6
 20 21  1  0
 22 20  1  0
 23 22  1  6
 23 24  1  0
 25 23  1  0
 26 25  2  0
 27 25  1  0
M  END
$$$$
