PFL.pdb
     RDKit          3D

 27 28  0  0  1  0  0  0  0  0999 V2000
   28.3613  -20.5432  -16.6821 N   0  0  0  0  0  0  0  0  0  0  0  0
   29.1537  -20.7812  -17.8822 C   0  0  0  0  0  0  0  0  0  0  0  0
   29.6753  -22.1781  -17.8004 C   0  0  0  0  0  0  0  0  0  0  0  0
   29.0701  -22.7201  -16.4999 C   0  0  0  0  0  0  0  0  0  0  0  0
   27.8184  -21.8377  -16.4081 C   0  0  1  0  0  0  0  0  0  0  0  0
   27.2151  -21.9226  -15.0425 C   0  0  0  0  0  0  0  0  0  0  0  0
   26.5121  -22.9168  -14.7350 O   0  0  0  0  0  0  0  0  0  0  0  0
   27.4205  -20.9093  -14.0961 N   0  0  0  0  0  0  0  0  0  0  0  0
   26.9138  -20.9190  -12.7572 C   0  0  1  0  0  0  0  0  0  0  0  0
   27.8916  -20.2160  -11.8399 C   0  0  0  0  0  0  0  0  0  0  0  0
   27.4637  -20.2220  -10.4342 C   0  0  0  0  0  0  0  0  0  0  0  0
   26.6154  -19.2720   -9.9132 C   0  0  0  0  0  0  0  0  0  0  0  0
   26.2224  -19.2953   -8.5803 C   0  0  0  0  0  0  0  0  0  0  0  0
   26.6729  -20.2786   -7.7288 C   0  0  0  0  0  0  0  0  0  0  0  0
   27.5219  -21.2337   -8.2401 C   0  0  0  0  0  0  0  0  0  0  0  0
   27.9076  -21.1999   -9.5742 C   0  0  0  0  0  0  0  0  0  0  0  0
   25.5433  -20.4133  -12.6439 C   0  0  0  0  0  0  0  0  0  0  0  0
   25.2954  -19.2639  -13.0902 O   0  0  0  0  0  0  0  0  0  0  0  0
   22.1782  -21.9659  -15.6369 C   0  0  0  0  0  0  0  0  0  0  0  0
   22.5878  -20.9934  -14.6014 C   0  0  1  0  0  0  0  0  0  0  0  0
   22.0510  -19.6059  -14.9887 C   0  0  0  0  0  0  0  0  0  0  0  0
   22.3547  -21.2960  -13.1856 C   0  0  0  0  0  0  0  0  0  0  0  0
   23.0746  -20.5935  -12.1129 C   0  0  2  0  0  0  0  0  0  0  0  0
   24.4635  -21.1270  -12.0641 N   0  0  0  0  0  0  0  0  0  0  0  0
   22.5802  -20.6688  -10.7443 C   0  0  0  0  0  0  0  0  0  0  0  0
   23.1628  -21.4608   -9.9229 O   0  0  0  0  0  0  0  0  0  0  0  0
   21.5276  -19.9708  -10.1850 O   0  0  0  0  0  0  0  0  0  0  0  0
  1  2  1  0
  2  3  1  0
  4  3  1  0
  5  1  1  0
  5  4  1  0
  5  6  1  1
  7  6  2  0
  8  6  1  0
  9  8  1  0
  9 10  1  1
 10 11  1  0
 11 12  2  0
 12 13  1  0
 14 13  2  0
 15 14  1  0
 16 15  2  0
 16 11  1  0
 17 24  1  0
 17  9  1  0
 18 17  2  0
 20 19  1  6
 20 21  1  0
 22 20  1  0
 23 22  1  6
 23 24  1  0
 25 23  1  0
 26 25  2  0
 27 25  1  0
M  END
$$$$
