PFL.pdb
     RDKit          3D

 27 28  0  0  1  0  0  0  0  0999 V2000
   27.5114  -19.0382  -13.4337 N   0  0  0  0  0  0  0  0  0  0  0  0
   28.7009  -18.6850  -14.1986 C   0  0  0  0  0  0  0  0  0  0  0  0
   29.6667  -19.8164  -14.0658 C   0  0  0  0  0  0  0  0  0  0  0  0
   28.9088  -20.8485  -13.2224 C   0  0  0  0  0  0  0  0  0  0  0  0
   27.4661  -20.4611  -13.5718 C   0  0  1  0  0  0  0  0  0  0  0  0
   26.5061  -21.0937  -12.6156 C   0  0  0  0  0  0  0  0  0  0  0  0
   26.3026  -22.3319  -12.6680 O   0  0  0  0  0  0  0  0  0  0  0  0
   25.8268  -20.3274  -11.6585 N   0  0  0  0  0  0  0  0  0  0  0  0
   24.7844  -20.8121  -10.8053 C   0  0  1  0  0  0  0  0  0  0  0  0
   24.8998  -20.1610   -9.4435 C   0  0  0  0  0  0  0  0  0  0  0  0
   26.2408  -20.2930   -8.8575 C   0  0  0  0  0  0  0  0  0  0  0  0
   27.0392  -21.3929   -9.0729 C   0  0  0  0  0  0  0  0  0  0  0  0
   28.3052  -21.4987   -8.5093 C   0  0  0  0  0  0  0  0  0  0  0  0
   28.8074  -20.4973   -7.7093 C   0  0  0  0  0  0  0  0  0  0  0  0
   28.0167  -19.3928   -7.4876 C   0  0  0  0  0  0  0  0  0  0  0  0
   26.7528  -19.2985   -8.0565 C   0  0  0  0  0  0  0  0  0  0  0  0
   23.4461  -20.7011  -11.3916 C   0  0  0  0  0  0  0  0  0  0  0  0
   22.4577  -20.6711  -10.6146 O   0  0  0  0  0  0  0  0  0  0  0  0
   20.1781  -17.7841  -14.9119 C   0  0  0  0  0  0  0  0  0  0  0  0
   20.7860  -19.0776  -15.2903 C   0  0  1  0  0  0  0  0  0  0  0  0
   21.0203  -19.0862  -16.8097 C   0  0  0  0  0  0  0  0  0  0  0  0
   21.9506  -19.5782  -14.5530 C   0  0  0  0  0  0  0  0  0  0  0  0
   21.8112  -20.3079  -13.2840 C   0  0  2  0  0  0  0  0  0  0  0  0
   23.1765  -20.6240  -12.7819 N   0  0  0  0  0  0  0  0  0  0  0  0
   21.0837  -21.5700  -13.2551 C   0  0  0  0  0  0  0  0  0  0  0  0
   21.6790  -22.6320  -13.6540 O   0  0  0  0  0  0  0  0  0  0  0  0
   19.7864  -21.7898  -12.8346 O   0  0  0  0  0  0  0  0  0  0  0  0
  1  2  1  0
  2  3  1  0
  4  3  1  0
  5  1  1  0
  5  4  1  0
  5  6  1  1
  7  6  2  0
  8  6  1  0
  9  8  1  0
  9 10  1  1
 10 11  1  0
 11 12  2  0
 12 13  1  0
 14 13  2  0
 15 14  1  0
 16 15  2  0
 16 11  1  0
 17 24  1  0
 17  9  1  0
 18 17  2  0
 20 19  1  1
 20 21  1  0
 22 20  1  0
 23 22  1  6
 23 24  1  0
 25 23  1  0
 26 25  2  0
 27 25  1  0
M  END
$$$$
