PFL.pdb
     RDKit          3D

 27 28  0  0  1  0  0  0  0  0999 V2000
   27.7935  -20.6310  -15.6910 N   0  0  0  0  0  0  0  0  0  0  0  0
   28.3846  -20.3451  -16.9924 C   0  0  0  0  0  0  0  0  0  0  0  0
   28.3589  -18.8633  -17.1762 C   0  0  0  0  0  0  0  0  0  0  0  0
   27.7660  -18.3409  -15.8621 C   0  0  0  0  0  0  0  0  0  0  0  0
   28.1687  -19.4847  -14.9223 C   0  0  1  0  0  0  0  0  0  0  0  0
   27.4162  -19.3949  -13.6332 C   0  0  0  0  0  0  0  0  0  0  0  0
   27.5635  -18.3880  -12.8972 O   0  0  0  0  0  0  0  0  0  0  0  0
   26.5465  -20.4174  -13.2300 N   0  0  0  0  0  0  0  0  0  0  0  0
   25.6100  -20.3233  -12.1512 C   0  0  1  0  0  0  0  0  0  0  0  0
   24.3191  -21.0126  -12.5387 C   0  0  0  0  0  0  0  0  0  0  0  0
   23.1761  -20.5918  -11.7168 C   0  0  0  0  0  0  0  0  0  0  0  0
   22.8254  -21.2327  -10.5507 C   0  0  0  0  0  0  0  0  0  0  0  0
   21.7403  -20.8190   -9.7872 C   0  0  0  0  0  0  0  0  0  0  0  0
   20.9729  -19.7442  -10.1756 C   0  0  0  0  0  0  0  0  0  0  0  0
   21.3154  -19.0961  -11.3406 C   0  0  0  0  0  0  0  0  0  0  0  0
   22.4023  -19.5190  -12.0953 C   0  0  0  0  0  0  0  0  0  0  0  0
   26.1477  -20.7754  -10.8653 C   0  0  0  0  0  0  0  0  0  0  0  0
   26.6640  -21.9207  -10.8069 O   0  0  0  0  0  0  0  0  0  0  0  0
   29.3641  -20.7566   -6.5422 C   0  0  0  0  0  0  0  0  0  0  0  0
   28.2765  -19.7553   -6.5510 C   0  0  1  0  0  0  0  0  0  0  0  0
   28.8043  -18.4490   -5.9357 C   0  0  0  0  0  0  0  0  0  0  0  0
   27.5187  -19.5140   -7.7832 C   0  0  0  0  0  0  0  0  0  0  0  0
   26.6899  -20.5591   -8.4020 C   0  0  2  0  0  0  0  0  0  0  0  0
   26.1307  -20.0135   -9.6692 N   0  0  0  0  0  0  0  0  0  0  0  0
   25.5492  -21.0992   -7.6738 C   0  0  0  0  0  0  0  0  0  0  0  0
   24.4236  -20.4931   -7.7573 O   0  0  0  0  0  0  0  0  0  0  0  0
   25.5112  -22.2255   -6.8750 O   0  0  0  0  0  0  0  0  0  0  0  0
  1  2  1  0
  2  3  1  0
  4  3  1  0
  5  1  1  0
  5  4  1  0
  5  6  1  1
  7  6  2  0
  8  6  1  0
  9  8  1  0
  9 10  1  6
 10 11  1  0
 11 12  2  0
 12 13  1  0
 14 13  2  0
 15 14  1  0
 16 15  2  0
 16 11  1  0
 17 24  1  0
 17  9  1  0
 18 17  2  0
 20 19  1  6
 20 21  1  0
 22 20  1  0
 23 22  1  1
 23 24  1  0
 25 23  1  0
 26 25  2  0
 27 25  1  0
M  END
$$$$
