PFL.pdb
     RDKit          3D

 27 28  0  0  1  0  0  0  0  0999 V2000
   29.3925  -21.5797  -16.1728 N   0  0  0  0  0  0  0  0  0  0  0  0
   30.0979  -22.6670  -16.8398 C   0  0  0  0  0  0  0  0  0  0  0  0
   30.9177  -23.3655  -15.8053 C   0  0  0  0  0  0  0  0  0  0  0  0
   30.5743  -22.6278  -14.5056 C   0  0  0  0  0  0  0  0  0  0  0  0
   29.1749  -22.1101  -14.8624 C   0  0  1  0  0  0  0  0  0  0  0  0
   28.7397  -21.0603  -13.8905 C   0  0  0  0  0  0  0  0  0  0  0  0
   29.3253  -19.9495  -13.8728 O   0  0  0  0  0  0  0  0  0  0  0  0
   27.6865  -21.2942  -12.9958 N   0  0  0  0  0  0  0  0  0  0  0  0
   27.1031  -20.3092  -12.1360 C   0  0  1  0  0  0  0  0  0  0  0  0
   25.9511  -19.6328  -12.8481 C   0  0  0  0  0  0  0  0  0  0  0  0
   26.3930  -18.6913  -13.8861 C   0  0  0  0  0  0  0  0  0  0  0  0
   27.0119  -17.4984  -13.5903 C   0  0  0  0  0  0  0  0  0  0  0  0
   27.4226  -16.6212  -14.5871 C   0  0  0  0  0  0  0  0  0  0  0  0
   27.2220  -16.9193  -15.9159 C   0  0  0  0  0  0  0  0  0  0  0  0
   26.6038  -18.1101  -16.2225 C   0  0  0  0  0  0  0  0  0  0  0  0
   26.1978  -18.9788  -15.2173 C   0  0  0  0  0  0  0  0  0  0  0  0
   26.7467  -20.8230  -10.8109 C   0  0  0  0  0  0  0  0  0  0  0  0
   26.3827  -22.0232  -10.7172 O   0  0  0  0  0  0  0  0  0  0  0  0
   28.5298  -18.3726   -5.9325 C   0  0  0  0  0  0  0  0  0  0  0  0
   28.2149  -19.3687   -6.9786 C   0  0  1  0  0  0  0  0  0  0  0  0
   29.0986  -20.6077   -6.7613 C   0  0  0  0  0  0  0  0  0  0  0  0
   26.8185  -19.7306   -7.2426 C   0  0  0  0  0  0  0  0  0  0  0  0
   26.4500  -20.6829   -8.3007 C   0  0  2  0  0  0  0  0  0  0  0  0
   26.7808  -20.0638   -9.6134 N   0  0  0  0  0  0  0  0  0  0  0  0
   25.0682  -21.1300   -8.4182 C   0  0  0  0  0  0  0  0  0  0  0  0
   24.3205  -20.5890   -9.3068 O   0  0  0  0  0  0  0  0  0  0  0  0
   24.4268  -22.1016   -7.6747 O   0  0  0  0  0  0  0  0  0  0  0  0
  1  2  1  0
  2  3  1  0
  4  3  1  0
  5  1  1  0
  5  4  1  0
  5  6  1  1
  7  6  2  0
  8  6  1  0
  9  8  1  0
  9 10  1  6
 10 11  1  0
 11 12  2  0
 12 13  1  0
 14 13  2  0
 15 14  1  0
 16 15  2  0
 16 11  1  0
 17 24  1  0
 17  9  1  0
 18 17  2  0
 20 19  1  1
 20 21  1  0
 22 20  1  0
 23 22  1  1
 23 24  1  0
 25 23  1  0
 26 25  2  0
 27 25  1  0
M  END
$$$$
