PFL.pdb
     RDKit          3D

 27 28  0  0  1  0  0  0  0  0999 V2000
   33.7987  -28.3843  -18.6865 N   0  0  0  0  0  0  0  0  0  0  0  0
   35.0179  -29.1625  -18.8679 C   0  0  0  0  0  0  0  0  0  0  0  0
   34.6113  -30.5858  -19.0656 C   0  0  0  0  0  0  0  0  0  0  0  0
   33.0789  -30.5364  -19.0400 C   0  0  0  0  0  0  0  0  0  0  0  0
   32.8576  -29.0897  -19.5003 C   0  0  1  0  0  0  0  0  0  0  0  0
   31.4485  -28.6644  -19.2366 C   0  0  0  0  0  0  0  0  0  0  0  0
   31.0900  -28.3968  -18.0630 O   0  0  0  0  0  0  0  0  0  0  0  0
   30.5172  -28.5586  -20.2786 N   0  0  0  0  0  0  0  0  0  0  0  0
   29.1376  -28.2117  -20.1171 C   0  0  1  0  0  0  0  0  0  0  0  0
   28.6603  -27.4496  -21.3350 C   0  0  0  0  0  0  0  0  0  0  0  0
   27.2470  -27.0573  -21.2474 C   0  0  0  0  0  0  0  0  0  0  0  0
   26.8331  -25.9161  -20.5993 C   0  0  0  0  0  0  0  0  0  0  0  0
   25.4910  -25.5623  -20.5275 C   0  0  0  0  0  0  0  0  0  0  0  0
   24.5218  -26.3490  -21.1078 C   0  0  0  0  0  0  0  0  0  0  0  0
   24.9254  -27.4928  -21.7585 C   0  0  0  0  0  0  0  0  0  0  0  0
   26.2700  -27.8359  -21.8235 C   0  0  0  0  0  0  0  0  0  0  0  0
   28.2823  -29.3501  -19.7712 C   0  0  0  0  0  0  0  0  0  0  0  0
   28.3581  -30.3869  -20.4790 O   0  0  0  0  0  0  0  0  0  0  0  0
   28.3105  -32.0749  -15.2389 C   0  0  0  0  0  0  0  0  0  0  0  0
   27.9887  -31.8224  -16.6596 C   0  0  1  0  0  0  0  0  0  0  0  0
   27.9793  -33.1647  -17.4089 C   0  0  0  0  0  0  0  0  0  0  0  0
   26.8311  -30.9921  -17.0075 C   0  0  0  0  0  0  0  0  0  0  0  0
   26.5552  -30.5864  -18.3937 C   0  0  2  0  0  0  0  0  0  0  0  0
   27.3661  -29.3733  -18.6888 N   0  0  0  0  0  0  0  0  0  0  0  0
   25.1935  -30.2499  -18.7883 C   0  0  0  0  0  0  0  0  0  0  0  0
   24.3596  -31.2010  -18.9917 O   0  0  0  0  0  0  0  0  0  0  0  0
   24.6531  -28.9928  -18.9772 O   0  0  0  0  0  0  0  0  0  0  0  0
  1  2  1  0
  2  3  1  0
  4  3  1  0
  5  1  1  0
  5  4  1  0
  5  6  1  1
  7  6  2  0
  8  6  1  0
  9  8  1  0
  9 10  1  6
 10 11  1  0
 11 12  2  0
 12 13  1  0
 14 13  2  0
 15 14  1  0
 16 15  2  0
 16 11  1  0
 17 24  1  0
 17  9  1  0
 18 17  2  0
 20 19  1  1
 20 21  1  0
 22 20  1  0
 23 22  1  1
 23 24  1  0
 25 23  1  0
 26 25  2  0
 27 25  1  0
M  END
$$$$
