PFL.pdb
     RDKit          3D

 27 28  0  0  1  0  0  0  0  0999 V2000
   25.5038  -16.0456  -18.0901 N   0  0  0  0  0  0  0  0  0  0  0  0
   26.4215  -15.3262  -18.9650 C   0  0  0  0  0  0  0  0  0  0  0  0
   27.3144  -16.3397  -19.6020 C   0  0  0  0  0  0  0  0  0  0  0  0
   26.7917  -17.6778  -19.0658 C   0  0  0  0  0  0  0  0  0  0  0  0
   25.3362  -17.2904  -18.7743 C   0  0  1  0  0  0  0  0  0  0  0  0
   24.6789  -18.3247  -17.9173 C   0  0  0  0  0  0  0  0  0  0  0  0
   24.5193  -19.4887  -18.3612 O   0  0  0  0  0  0  0  0  0  0  0  0
   24.2363  -18.0179  -16.6233 N   0  0  0  0  0  0  0  0  0  0  0  0
   23.6978  -18.9628  -15.6923 C   0  0  1  0  0  0  0  0  0  0  0  0
   24.5258  -18.9542  -14.4250 C   0  0  0  0  0  0  0  0  0  0  0  0
   25.9444  -19.2517  -14.6657 C   0  0  0  0  0  0  0  0  0  0  0  0
   26.4213  -20.5360  -14.7948 C   0  0  0  0  0  0  0  0  0  0  0  0
   27.7674  -20.7965  -15.0223 C   0  0  0  0  0  0  0  0  0  0  0  0
   28.6771  -19.7687  -15.1273 C   0  0  0  0  0  0  0  0  0  0  0  0
   28.2103  -18.4802  -14.9997 C   0  0  0  0  0  0  0  0  0  0  0  0
   26.8624  -18.2324  -14.7723 C   0  0  0  0  0  0  0  0  0  0  0  0
   22.2622  -18.7965  -15.4504 C   0  0  0  0  0  0  0  0  0  0  0  0
   21.8756  -17.7536  -14.8634 O   0  0  0  0  0  0  0  0  0  0  0  0
   17.4991  -17.5573  -17.4091 C   0  0  0  0  0  0  0  0  0  0  0  0
   17.8185  -18.9894  -17.2280 C   0  0  1  0  0  0  0  0  0  0  0  0
   17.1469  -19.7905  -18.3552 C   0  0  0  0  0  0  0  0  0  0  0  0
   19.2088  -19.4039  -17.0139 C   0  0  0  0  0  0  0  0  0  0  0  0
   19.8180  -19.4160  -15.6757 C   0  0  2  0  0  0  0  0  0  0  0  0
   21.2648  -19.7302  -15.8309 N   0  0  0  0  0  0  0  0  0  0  0  0
   19.3238  -20.3447  -14.6675 C   0  0  0  0  0  0  0  0  0  0  0  0
   19.8652  -21.5025  -14.5802 O   0  0  0  0  0  0  0  0  0  0  0  0
   18.3115  -20.1386  -13.7505 O   0  0  0  0  0  0  0  0  0  0  0  0
  1  2  1  0
  2  3  1  0
  4  3  1  0
  5  1  1  0
  5  4  1  0
  5  6  1  1
  7  6  2  0
  8  6  1  0
  9  8  1  0
  9 10  1  1
 10 11  1  0
 11 12  2  0
 12 13  1  0
 14 13  2  0
 15 14  1  0
 16 15  2  0
 16 11  1  0
 17 24  1  0
 17  9  1  0
 18 17  2  0
 20 19  1  6
 20 21  1  0
 22 20  1  0
 23 22  1  6
 23 24  1  0
 25 23  1  0
 26 25  2  0
 27 25  1  0
M  END
$$$$
