DEH.pdb
     RDKit          3D

 28 28  0  0  1  0  0  0  0  0999 V2000
   18.2528  -14.2310  -18.3155 N   0  0  0  0  0  0  0  0  0  0  0  0
   17.9002  -13.5816  -17.0744 C   0  0  1  0  0  0  0  0  0  0  0  0
   18.5686  -14.2386  -15.9028 C   0  0  0  0  0  0  0  0  0  0  0  0
   17.9539  -15.5680  -15.6638 C   0  0  0  0  0  0  0  0  0  0  0  0
   16.7566  -15.8165  -15.9376 O   0  0  0  0  0  0  0  0  0  0  0  0
   18.1344  -12.1448  -17.1798 C   0  0  0  0  0  0  0  0  0  0  0  0
   19.1584  -11.7805  -17.8514 O   0  0  0  0  0  0  0  0  0  0  0  0
   18.7164  -16.5886  -15.1167 O   0  0  0  0  0  0  0  0  0  0  0  0
   17.3011  -11.1562  -16.5879 N   0  0  0  0  0  0  0  0  0  0  0  0
   17.6780   -9.7597  -16.7975 C   0  0  1  0  0  0  0  0  0  0  0  0
   16.4460   -8.9659  -16.4364 C   0  0  0  0  0  0  0  0  0  0  0  0
   15.3014   -9.1557  -17.3676 C   0  0  0  0  0  0  0  0  0  0  0  0
   14.0855   -8.5320  -16.7134 C   0  0  0  0  0  0  0  0  0  0  0  0
   13.3511   -7.7481  -17.3651 O   0  0  0  0  0  0  0  0  0  0  0  0
   18.7745   -9.3650  -15.9031 C   0  0  0  0  0  0  0  0  0  0  0  0
   19.4099  -10.2561  -15.3018 O   0  0  0  0  0  0  0  0  0  0  0  0
   13.8267   -8.8577  -15.3964 O   0  0  0  0  0  0  0  0  0  0  0  0
   19.1657   -8.0233  -15.6723 N   0  0  0  0  0  0  0  0  0  0  0  0
   20.5248   -7.6770  -15.2965 C   0  0  1  0  0  0  0  0  0  0  0  0
   21.5277   -8.3379  -16.2197 C   0  0  0  0  0  0  0  0  0  0  0  0
   22.2900   -9.4028  -15.5351 C   0  0  0  0  0  0  0  0  0  0  0  0
   22.1888   -9.7633  -14.2113 C   0  0  0  0  0  0  0  0  0  0  0  0
   23.0488  -10.7547  -13.9953 N   0  0  0  0  0  0  0  0  0  0  0  0
   23.6896  -11.0243  -15.1603 C   0  0  0  0  0  0  0  0  0  0  0  0
   23.2312  -10.1991  -16.1143 N   0  0  0  0  0  0  0  0  0  0  0  0
   20.7023   -6.2305  -15.1571 C   0  0  0  0  0  0  0  0  0  0  0  0
   21.5726   -5.5907  -14.3096 O   0  0  0  0  0  0  0  0  0  0  0  0
   19.9858   -5.4764  -15.8863 O   0  0  0  0  0  0  0  0  0  0  0  0
  2  6  1  0
  2  1  1  6
  3  2  1  0
  3  4  1  0
  4  5  2  0
  6  7  2  0
  8  4  1  0
  9 10  1  0
  9  6  1  0
 10 11  1  1
 11 12  1  0
 12 13  1  0
 13 14  2  0
 13 17  1  0
 15 10  1  0
 16 15  2  0
 18 15  1  0
 19 20  1  6
 19 18  1  0
 20 21  1  0
 21 25  1  0
 21 22  2  0
 22 23  1  0
 24 23  1  0
 25 24  2  0
 26 19  1  0
 27 26  1  0
 28 26  2  0
M  END
$$$$
