DEH.pdb
     RDKit          3D

 28 28  0  0  1  0  0  0  0  0999 V2000
   20.7871  -13.6089  -15.9335 N   0  0  0  0  0  0  0  0  0  0  0  0
   20.6665  -13.1899  -17.3106 C   0  0  1  0  0  0  0  0  0  0  0  0
   20.1510  -14.3000  -18.1782 C   0  0  0  0  0  0  0  0  0  0  0  0
   21.0259  -15.4898  -18.0316 C   0  0  0  0  0  0  0  0  0  0  0  0
   22.1990  -15.5226  -18.4709 O   0  0  0  0  0  0  0  0  0  0  0  0
   19.8984  -11.9513  -17.3891 C   0  0  0  0  0  0  0  0  0  0  0  0
   19.8105  -11.4056  -18.5411 O   0  0  0  0  0  0  0  0  0  0  0  0
   20.5459  -16.6196  -17.3869 O   0  0  0  0  0  0  0  0  0  0  0  0
   19.2595  -11.3380  -16.2766 N   0  0  0  0  0  0  0  0  0  0  0  0
   18.5057  -10.1133  -16.5375 C   0  0  1  0  0  0  0  0  0  0  0  0
   17.3014  -10.1974  -15.6316 C   0  0  0  0  0  0  0  0  0  0  0  0
   16.3799  -11.3234  -15.9423 C   0  0  0  0  0  0  0  0  0  0  0  0
   15.6862  -11.7022  -14.6497 C   0  0  0  0  0  0  0  0  0  0  0  0
   16.2461  -12.4808  -13.8382 O   0  0  0  0  0  0  0  0  0  0  0  0
   19.2863   -8.9219  -16.1778 C   0  0  0  0  0  0  0  0  0  0  0  0
   20.0598   -8.9830  -15.1994 O   0  0  0  0  0  0  0  0  0  0  0  0
   14.4372  -11.1639  -14.4094 O   0  0  0  0  0  0  0  0  0  0  0  0
   19.2204   -7.6905  -16.8748 N   0  0  0  0  0  0  0  0  0  0  0  0
   20.0816   -6.5722  -16.5344 C   0  0  1  0  0  0  0  0  0  0  0  0
   20.2494   -5.6380  -17.7151 C   0  0  0  0  0  0  0  0  0  0  0  0
   21.1438   -4.5047  -17.3995 C   0  0  0  0  0  0  0  0  0  0  0  0
   22.5078   -4.5585  -17.2278 C   0  0  0  0  0  0  0  0  0  0  0  0
   22.9291   -3.3281  -16.9496 N   0  0  0  0  0  0  0  0  0  0  0  0
   21.8540   -2.5007  -16.9432 C   0  0  0  0  0  0  0  0  0  0  0  0
   20.7505   -3.2132  -17.2185 N   0  0  0  0  0  0  0  0  0  0  0  0
   19.6544   -5.9080  -15.3016 C   0  0  0  0  0  0  0  0  0  0  0  0
   20.4698   -5.4054  -14.3180 O   0  0  0  0  0  0  0  0  0  0  0  0
   18.4061   -5.7756  -15.1063 O   0  0  0  0  0  0  0  0  0  0  0  0
  2  6  1  0
  2  1  1  1
  3  2  1  0
  3  4  1  0
  4  5  2  0
  6  7  2  0
  8  4  1  0
  9 10  1  0
  9  6  1  0
 10 11  1  1
 11 12  1  0
 12 13  1  0
 13 14  2  0
 13 17  1  0
 15 10  1  0
 16 15  2  0
 18 15  1  0
 19 20  1  6
 19 18  1  0
 20 21  1  0
 21 25  1  0
 21 22  2  0
 22 23  1  0
 24 23  1  0
 25 24  2  0
 26 19  1  0
 27 26  1  0
 28 26  2  0
M  END
$$$$
