DEH.pdb
     RDKit          3D

 28 28  0  0  1  0  0  0  0  0999 V2000
   16.4254  -12.6068  -16.6498 N   0  0  0  0  0  0  0  0  0  0  0  0
   16.4421  -12.3460  -15.2292 C   0  0  1  0  0  0  0  0  0  0  0  0
   16.5882  -13.6140  -14.4408 C   0  0  0  0  0  0  0  0  0  0  0  0
   15.4010  -14.4759  -14.6651 C   0  0  0  0  0  0  0  0  0  0  0  0
   14.4442  -14.1290  -15.3962 O   0  0  0  0  0  0  0  0  0  0  0  0
   17.4360  -11.3222  -14.9222 C   0  0  0  0  0  0  0  0  0  0  0  0
   17.5588  -10.9955  -13.6931 O   0  0  0  0  0  0  0  0  0  0  0  0
   15.3277  -15.7168  -14.0510 O   0  0  0  0  0  0  0  0  0  0  0  0
   18.2533  -10.6872  -15.8973 N   0  0  0  0  0  0  0  0  0  0  0  0
   19.1684   -9.6512  -15.4223 C   0  0  1  0  0  0  0  0  0  0  0  0
   20.4973   -9.9865  -16.0544 C   0  0  0  0  0  0  0  0  0  0  0  0
   21.5987   -9.0533  -15.6943 C   0  0  0  0  0  0  0  0  0  0  0  0
   22.8268   -9.4938  -16.4644 C   0  0  0  0  0  0  0  0  0  0  0  0
   22.7707  -10.4939  -17.2226 O   0  0  0  0  0  0  0  0  0  0  0  0
   18.7484   -8.3202  -15.8808 C   0  0  0  0  0  0  0  0  0  0  0  0
   17.9153   -8.2389  -16.8074 O   0  0  0  0  0  0  0  0  0  0  0  0
   23.9859   -8.7612  -16.2985 O   0  0  0  0  0  0  0  0  0  0  0  0
   19.2313   -7.1050  -15.3361 N   0  0  0  0  0  0  0  0  0  0  0  0
   18.7250   -5.8165  -15.7736 C   0  0  1  0  0  0  0  0  0  0  0  0
   17.2142   -5.7652  -15.6739 C   0  0  0  0  0  0  0  0  0  0  0  0
   16.6869   -4.4167  -15.9697 C   0  0  0  0  0  0  0  0  0  0  0  0
   17.3419   -3.2208  -15.7863 C   0  0  0  0  0  0  0  0  0  0  0  0
   16.5194   -2.2471  -16.1663 N   0  0  0  0  0  0  0  0  0  0  0  0
   15.3581   -2.8094  -16.5855 C   0  0  0  0  0  0  0  0  0  0  0  0
   15.4495   -4.1433  -16.4691 N   0  0  0  0  0  0  0  0  0  0  0  0
   19.4068   -4.7056  -15.1069 C   0  0  0  0  0  0  0  0  0  0  0  0
   19.6690   -4.5942  -13.7638 O   0  0  0  0  0  0  0  0  0  0  0  0
   19.8017   -3.7383  -15.8295 O   0  0  0  0  0  0  0  0  0  0  0  0
  2  6  1  0
  2  1  1  6
  3  2  1  0
  3  4  1  0
  4  5  2  0
  6  7  2  0
  8  4  1  0
  9 10  1  0
  9  6  1  0
 10 11  1  6
 11 12  1  0
 12 13  1  0
 13 14  2  0
 13 17  1  0
 15 10  1  0
 16 15  2  0
 18 15  1  0
 19 20  1  1
 19 18  1  0
 20 21  1  0
 21 25  1  0
 21 22  2  0
 22 23  1  0
 24 23  1  0
 25 24  2  0
 26 19  1  0
 27 26  1  0
 28 26  2  0
M  END
$$$$
