DEH.pdb
     RDKit          3D

 28 28  0  0  1  0  0  0  0  0999 V2000
   26.6908  -19.7046  -15.3040 N   0  0  0  0  0  0  0  0  0  0  0  0
   25.5981  -20.1057  -16.1593 C   0  0  1  0  0  0  0  0  0  0  0  0
   25.4476  -21.5980  -16.1930 C   0  0  0  0  0  0  0  0  0  0  0  0
   26.6686  -22.2056  -16.7783 C   0  0  0  0  0  0  0  0  0  0  0  0
   27.4633  -21.5600  -17.5006 O   0  0  0  0  0  0  0  0  0  0  0  0
   24.3856  -19.3813  -15.7914 C   0  0  0  0  0  0  0  0  0  0  0  0
   24.1371  -19.2806  -14.5422 O   0  0  0  0  0  0  0  0  0  0  0  0
   26.9596  -23.5381  -16.5287 O   0  0  0  0  0  0  0  0  0  0  0  0
   23.4908  -18.7971  -16.7295 N   0  0  0  0  0  0  0  0  0  0  0  0
   22.3155  -18.1167  -16.1894 C   0  0  1  0  0  0  0  0  0  0  0  0
   22.1265  -16.9069  -17.0719 C   0  0  0  0  0  0  0  0  0  0  0  0
   23.0497  -15.7798  -16.7706 C   0  0  0  0  0  0  0  0  0  0  0  0
   22.6765  -14.6380  -17.6938 C   0  0  0  0  0  0  0  0  0  0  0  0
   22.9338  -14.7096  -18.9214 O   0  0  0  0  0  0  0  0  0  0  0  0
   21.1195  -18.9644  -16.2856 C   0  0  0  0  0  0  0  0  0  0  0  0
   21.1303  -19.9314  -17.0757 O   0  0  0  0  0  0  0  0  0  0  0  0
   22.0536  -13.5385  -17.1362 O   0  0  0  0  0  0  0  0  0  0  0  0
   19.9376  -18.7566  -15.5330 N   0  0  0  0  0  0  0  0  0  0  0  0
   18.8073  -19.6639  -15.6186 C   0  0  1  0  0  0  0  0  0  0  0  0
   19.2356  -21.0910  -15.3448 C   0  0  0  0  0  0  0  0  0  0  0  0
   19.4761  -21.3287  -13.9061 C   0  0  0  0  0  0  0  0  0  0  0  0
   20.6493  -21.1075  -13.2225 C   0  0  0  0  0  0  0  0  0  0  0  0
   20.4501  -21.4558  -11.9544 N   0  0  0  0  0  0  0  0  0  0  0  0
   19.1718  -21.8924  -11.8281 C   0  0  0  0  0  0  0  0  0  0  0  0
   18.5632  -21.8189  -13.0220 N   0  0  0  0  0  0  0  0  0  0  0  0
   17.6789  -19.2108  -14.8032 C   0  0  0  0  0  0  0  0  0  0  0  0
   16.4425  -19.8015  -14.7166 O   0  0  0  0  0  0  0  0  0  0  0  0
   17.8433  -18.1664  -14.0989 O   0  0  0  0  0  0  0  0  0  0  0  0
  2  6  1  0
  2  1  1  1
  3  2  1  0
  3  4  1  0
  4  5  2  0
  6  7  2  0
  8  4  1  0
  9 10  1  0
  9  6  1  0
 10 11  1  6
 11 12  1  0
 12 13  1  0
 13 14  2  0
 13 17  1  0
 15 10  1  0
 16 15  2  0
 18 15  1  0
 19 20  1  1
 19 18  1  0
 20 21  1  0
 21 25  1  0
 21 22  2  0
 22 23  1  0
 24 23  1  0
 25 24  2  0
 26 19  1  0
 27 26  1  0
 28 26  2  0
M  END
$$$$
