DEH.pdb
     RDKit          3D

 28 28  0  0  1  0  0  0  0  0999 V2000
   19.0865  -12.6636  -15.5413 N   0  0  0  0  0  0  0  0  0  0  0  0
   18.9914  -11.4455  -16.3117 C   0  0  1  0  0  0  0  0  0  0  0  0
   17.5874  -10.9170  -16.3306 C   0  0  0  0  0  0  0  0  0  0  0  0
   16.7033  -11.8853  -17.0257 C   0  0  0  0  0  0  0  0  0  0  0  0
   15.9928  -12.7130  -16.4088 O   0  0  0  0  0  0  0  0  0  0  0  0
   19.9945  -10.4881  -15.8561 C   0  0  0  0  0  0  0  0  0  0  0  0
   19.8997  -10.0947  -14.6441 O   0  0  0  0  0  0  0  0  0  0  0  0
   16.6466  -11.8914  -18.4110 O   0  0  0  0  0  0  0  0  0  0  0  0
   21.0444   -9.9849  -16.6723 N   0  0  0  0  0  0  0  0  0  0  0  0
   21.9724   -9.0416  -16.0517 C   0  0  1  0  0  0  0  0  0  0  0  0
   23.2661   -9.2125  -16.8102 C   0  0  0  0  0  0  0  0  0  0  0  0
   24.3408   -8.2656  -16.4078 C   0  0  0  0  0  0  0  0  0  0  0  0
   25.5532   -8.5774  -17.2611 C   0  0  0  0  0  0  0  0  0  0  0  0
   25.7907   -7.8988  -18.2913 O   0  0  0  0  0  0  0  0  0  0  0  0
   21.5091   -7.6568  -16.2121 C   0  0  0  0  0  0  0  0  0  0  0  0
   20.7960   -7.3718  -17.1968 O   0  0  0  0  0  0  0  0  0  0  0  0
   26.3679   -9.6194  -16.8632 O   0  0  0  0  0  0  0  0  0  0  0  0
   21.8207   -6.6072  -15.3133 N   0  0  0  0  0  0  0  0  0  0  0  0
   21.2603   -5.2767  -15.4677 C   0  0  1  0  0  0  0  0  0  0  0  0
   19.7464   -5.3192  -15.4379 C   0  0  0  0  0  0  0  0  0  0  0  0
   19.1546   -3.9671  -15.5129 C   0  0  0  0  0  0  0  0  0  0  0  0
   19.8332   -2.7822  -15.6817 C   0  0  0  0  0  0  0  0  0  0  0  0
   18.9364   -1.8000  -15.6876 N   0  0  0  0  0  0  0  0  0  0  0  0
   17.7052   -2.3461  -15.5254 C   0  0  0  0  0  0  0  0  0  0  0  0
   17.8269   -3.6783  -15.4168 N   0  0  0  0  0  0  0  0  0  0  0  0
   21.8509   -4.3217  -14.5281 C   0  0  0  0  0  0  0  0  0  0  0  0
   22.0973   -2.9911  -14.7602 O   0  0  0  0  0  0  0  0  0  0  0  0
   22.1745   -4.7515  -13.3773 O   0  0  0  0  0  0  0  0  0  0  0  0
  2  6  1  0
  2  1  1  1
  3  2  1  0
  3  4  1  0
  4  5  2  0
  6  7  2  0
  8  4  1  0
  9 10  1  0
  9  6  1  0
 10 11  1  6
 11 12  1  0
 12 13  1  0
 13 14  2  0
 13 17  1  0
 15 10  1  0
 16 15  2  0
 18 15  1  0
 19 20  1  1
 19 18  1  0
 20 21  1  0
 21 25  1  0
 21 22  2  0
 22 23  1  0
 24 23  1  0
 25 24  2  0
 26 19  1  0
 27 26  1  0
 28 26  2  0
M  END
$$$$
