DEH.pdb
     RDKit          3D

 28 28  0  0  1  0  0  0  0  0999 V2000
   28.9759   -8.2906  -19.4002 N   0  0  0  0  0  0  0  0  0  0  0  0
   28.6228   -7.0445  -20.0397 C   0  0  1  0  0  0  0  0  0  0  0  0
   29.6046   -6.6829  -21.1150 C   0  0  0  0  0  0  0  0  0  0  0  0
   30.9366   -6.4392  -20.5076 C   0  0  0  0  0  0  0  0  0  0  0  0
   31.0812   -6.1251  -19.3032 O   0  0  0  0  0  0  0  0  0  0  0  0
   27.2310   -7.0858  -20.4772 C   0  0  0  0  0  0  0  0  0  0  0  0
   26.7200   -5.9797  -20.8619 O   0  0  0  0  0  0  0  0  0  0  0  0
   32.0780   -6.5581  -21.2856 O   0  0  0  0  0  0  0  0  0  0  0  0
   26.4364   -8.2649  -20.4964 N   0  0  0  0  0  0  0  0  0  0  0  0
   25.0734   -8.1374  -21.0084 C   0  0  1  0  0  0  0  0  0  0  0  0
   24.6761   -9.5371  -21.4096 C   0  0  0  0  0  0  0  0  0  0  0  0
   23.3058   -9.6444  -21.9791 C   0  0  0  0  0  0  0  0  0  0  0  0
   23.0959  -11.0937  -22.3673 C   0  0  0  0  0  0  0  0  0  0  0  0
   24.0713  -11.7969  -22.7310 O   0  0  0  0  0  0  0  0  0  0  0  0
   24.1550   -7.6657  -19.9634 C   0  0  0  0  0  0  0  0  0  0  0  0
   24.2455   -8.1552  -18.8181 O   0  0  0  0  0  0  0  0  0  0  0  0
   21.8107  -11.5959  -22.3041 O   0  0  0  0  0  0  0  0  0  0  0  0
   23.1590   -6.6797  -20.1689 N   0  0  0  0  0  0  0  0  0  0  0  0
   22.3156   -6.2074  -19.0856 C   0  0  1  0  0  0  0  0  0  0  0  0
   22.9731   -5.0595  -18.3474 C   0  0  0  0  0  0  0  0  0  0  0  0
   23.0893   -5.3290  -16.8990 C   0  0  0  0  0  0  0  0  0  0  0  0
   22.7108   -6.4786  -16.2450 C   0  0  0  0  0  0  0  0  0  0  0  0
   22.9754   -6.3139  -14.9520 N   0  0  0  0  0  0  0  0  0  0  0  0
   23.5138   -5.0805  -14.7809 C   0  0  0  0  0  0  0  0  0  0  0  0
   23.5887   -4.4655  -15.9714 N   0  0  0  0  0  0  0  0  0  0  0  0
   20.9516   -5.9258  -19.5369 C   0  0  0  0  0  0  0  0  0  0  0  0
   19.7886   -6.3146  -18.9193 O   0  0  0  0  0  0  0  0  0  0  0  0
   20.8121   -5.2554  -20.6069 O   0  0  0  0  0  0  0  0  0  0  0  0
  2  6  1  0
  2  1  1  6
  3  2  1  0
  3  4  1  0
  4  5  2  0
  6  7  2  0
  8  4  1  0
  9 10  1  0
  9  6  1  0
 10 11  1  1
 11 12  1  0
 12 13  1  0
 13 14  2  0
 13 17  1  0
 15 10  1  0
 16 15  2  0
 18 15  1  0
 19 20  1  6
 19 18  1  0
 20 21  1  0
 21 25  1  0
 21 22  2  0
 22 23  1  0
 24 23  1  0
 25 24  2  0
 26 19  1  0
 27 26  1  0
 28 26  2  0
M  END
$$$$
