DEH.pdb
     RDKit          3D

 28 28  0  0  1  0  0  0  0  0999 V2000
   29.0826  -33.9593   -4.1932 N   0  0  0  0  0  0  0  0  0  0  0  0
   28.0348  -34.9301   -3.9782 C   0  0  1  0  0  0  0  0  0  0  0  0
   28.5983  -36.2801   -3.6450 C   0  0  0  0  0  0  0  0  0  0  0  0
   30.0367  -36.1460   -3.3052 C   0  0  0  0  0  0  0  0  0  0  0  0
   30.8000  -37.1343   -3.2008 O   0  0  0  0  0  0  0  0  0  0  0  0
   27.0722  -34.4176   -3.0080 C   0  0  0  0  0  0  0  0  0  0  0  0
   25.9425  -34.0390   -3.4695 O   0  0  0  0  0  0  0  0  0  0  0  0
   30.5770  -34.8872   -3.0906 O   0  0  0  0  0  0  0  0  0  0  0  0
   27.3225  -34.3217   -1.6116 N   0  0  0  0  0  0  0  0  0  0  0  0
   26.2229  -33.8504   -0.7720 C   0  0  1  0  0  0  0  0  0  0  0  0
   25.1752  -34.9334   -0.8589 C   0  0  0  0  0  0  0  0  0  0  0  0
   23.9088  -34.6181   -0.1446 C   0  0  0  0  0  0  0  0  0  0  0  0
   22.9921  -35.8125   -0.3127 C   0  0  0  0  0  0  0  0  0  0  0  0
   21.8433  -35.8023    0.1958 O   0  0  0  0  0  0  0  0  0  0  0  0
   26.6451  -33.7115    0.6282 C   0  0  0  0  0  0  0  0  0  0  0  0
   27.6137  -34.3873    1.0338 O   0  0  0  0  0  0  0  0  0  0  0  0
   23.4667  -36.8898   -1.0351 O   0  0  0  0  0  0  0  0  0  0  0  0
   26.0193  -32.8512    1.5636 N   0  0  0  0  0  0  0  0  0  0  0  0
   26.5260  -32.6931    2.9150 C   0  0  1  0  0  0  0  0  0  0  0  0
   28.0149  -32.4140    2.9067 C   0  0  0  0  0  0  0  0  0  0  0  0
   28.8066  -33.6337    3.1705 C   0  0  0  0  0  0  0  0  0  0  0  0
   28.3443  -34.9295    3.1654 C   0  0  0  0  0  0  0  0  0  0  0  0
   29.3691  -35.7255    3.4574 N   0  0  0  0  0  0  0  0  0  0  0  0
   30.4683  -34.9531    3.6463 C   0  0  0  0  0  0  0  0  0  0  0  0
   30.1345  -33.6649    3.4725 N   0  0  0  0  0  0  0  0  0  0  0  0
   25.7402  -31.7266    3.6844 C   0  0  0  0  0  0  0  0  0  0  0  0
   24.6597  -31.0082    3.2356 O   0  0  0  0  0  0  0  0  0  0  0  0
   26.0796  -31.5192    4.8909 O   0  0  0  0  0  0  0  0  0  0  0  0
  2  6  1  0
  2  1  1  1
  3  2  1  0
  3  4  1  0
  4  5  2  0
  6  7  2  0
  8  4  1  0
  9 10  1  0
  9  6  1  0
 10 11  1  1
 11 12  1  0
 12 13  1  0
 13 14  2  0
 13 17  1  0
 15 10  1  0
 16 15  2  0
 18 15  1  0
 19 20  1  6
 19 18  1  0
 20 21  1  0
 21 25  1  0
 21 22  2  0
 22 23  1  0
 24 23  1  0
 25 24  2  0
 26 19  1  0
 27 26  1  0
 28 26  2  0
M  END
$$$$
