DEH.pdb
     RDKit          3D

 28 28  0  0  1  0  0  0  0  0999 V2000
   24.8178  -11.6048  -16.8227 N   0  0  0  0  0  0  0  0  0  0  0  0
   23.7179  -10.9149  -17.4557 C   0  0  1  0  0  0  0  0  0  0  0  0
   22.8665  -11.8575  -18.2543 C   0  0  0  0  0  0  0  0  0  0  0  0
   23.6800  -12.4617  -19.3385 C   0  0  0  0  0  0  0  0  0  0  0  0
   24.5534  -11.8177  -19.9651 O   0  0  0  0  0  0  0  0  0  0  0  0
   22.9884  -10.1273  -16.4669 C   0  0  0  0  0  0  0  0  0  0  0  0
   22.5202  -10.7632  -15.4625 O   0  0  0  0  0  0  0  0  0  0  0  0
   23.4816  -13.7889  -19.6874 O   0  0  0  0  0  0  0  0  0  0  0  0
   22.7786   -8.7242  -16.5632 N   0  0  0  0  0  0  0  0  0  0  0  0
   22.0335   -8.0894  -15.4779 C   0  0  1  0  0  0  0  0  0  0  0  0
   22.3337   -6.6161  -15.6096 C   0  0  0  0  0  0  0  0  0  0  0  0
   21.6142   -5.7555  -14.6322 C   0  0  0  0  0  0  0  0  0  0  0  0
   22.0157   -4.3229  -14.9184 C   0  0  0  0  0  0  0  0  0  0  0  0
   23.2048   -3.9551  -14.7479 O   0  0  0  0  0  0  0  0  0  0  0  0
   20.5873   -8.2937  -15.6355 C   0  0  0  0  0  0  0  0  0  0  0  0
   20.0805   -8.1541  -16.7682 O   0  0  0  0  0  0  0  0  0  0  0  0
   21.0359   -3.4585  -15.3660 O   0  0  0  0  0  0  0  0  0  0  0  0
   19.7155   -8.6431  -14.5751 N   0  0  0  0  0  0  0  0  0  0  0  0
   18.2944   -8.8489  -14.7898 C   0  0  1  0  0  0  0  0  0  0  0  0
   17.9217  -10.3042  -14.5945 C   0  0  0  0  0  0  0  0  0  0  0  0
   16.4792  -10.5388  -14.8134 C   0  0  0  0  0  0  0  0  0  0  0  0
   15.5836   -9.6667  -15.3880 C   0  0  0  0  0  0  0  0  0  0  0  0
   14.3908  -10.2550  -15.3898 N   0  0  0  0  0  0  0  0  0  0  0  0
   14.5201  -11.4823  -14.8263 C   0  0  0  0  0  0  0  0  0  0  0  0
   15.8001  -11.6679  -14.4679 N   0  0  0  0  0  0  0  0  0  0  0  0
   17.4819   -7.9132  -14.0102 C   0  0  0  0  0  0  0  0  0  0  0  0
   16.1664   -7.5894  -14.2330 O   0  0  0  0  0  0  0  0  0  0  0  0
   18.0349   -7.3331  -13.0245 O   0  0  0  0  0  0  0  0  0  0  0  0
  2  6  1  0
  2  1  1  1
  3  2  1  0
  3  4  1  0
  4  5  2  0
  6  7  2  0
  8  4  1  0
  9 10  1  0
  9  6  1  0
 10 11  1  6
 11 12  1  0
 12 13  1  0
 13 14  2  0
 13 17  1  0
 15 10  1  0
 16 15  2  0
 18 15  1  0
 19 20  1  1
 19 18  1  0
 20 21  1  0
 21 25  1  0
 21 22  2  0
 22 23  1  0
 24 23  1  0
 25 24  2  0
 26 19  1  0
 27 26  1  0
 28 26  2  0
M  END
$$$$
