DEH.pdb
     RDKit          3D

 28 28  0  0  1  0  0  0  0  0999 V2000
   44.7190   -9.9016   -5.4868 N   0  0  0  0  0  0  0  0  0  0  0  0
   43.2876   -9.8309   -5.6673 C   0  0  1  0  0  0  0  0  0  0  0  0
   42.6432   -8.9821   -4.6113 C   0  0  0  0  0  0  0  0  0  0  0  0
   42.7280   -9.6732   -3.3007 C   0  0  0  0  0  0  0  0  0  0  0  0
   43.4664   -9.2698   -2.3722 O   0  0  0  0  0  0  0  0  0  0  0  0
   42.9770   -9.4354   -7.0375 C   0  0  0  0  0  0  0  0  0  0  0  0
   43.8136   -8.6587   -7.6114 O   0  0  0  0  0  0  0  0  0  0  0  0
   41.9691  -10.8113   -3.0744 O   0  0  0  0  0  0  0  0  0  0  0  0
   41.8202   -9.8605   -7.7468 N   0  0  0  0  0  0  0  0  0  0  0  0
   41.5949   -9.2674   -9.0635 C   0  0  1  0  0  0  0  0  0  0  0  0
   41.2534  -10.4316   -9.9613 C   0  0  0  0  0  0  0  0  0  0  0  0
   40.9171  -10.0482  -11.3589 C   0  0  0  0  0  0  0  0  0  0  0  0
   40.5509  -11.3206  -12.0952 C   0  0  0  0  0  0  0  0  0  0  0  0
   39.6896  -11.2947  -13.0094 O   0  0  0  0  0  0  0  0  0  0  0  0
   40.4574   -8.3380   -9.0402 C   0  0  0  0  0  0  0  0  0  0  0  0
   39.4442   -8.6448   -8.3780 O   0  0  0  0  0  0  0  0  0  0  0  0
   41.1936  -12.4853  -11.7235 O   0  0  0  0  0  0  0  0  0  0  0  0
   40.4308   -7.0999   -9.7279 N   0  0  0  0  0  0  0  0  0  0  0  0
   39.3127   -6.1817   -9.6063 C   0  0  1  0  0  0  0  0  0  0  0  0
   39.7844   -4.8061   -9.1818 C   0  0  0  0  0  0  0  0  0  0  0  0
   40.0733   -4.7440   -7.7338 C   0  0  0  0  0  0  0  0  0  0  0  0
   39.9746   -5.7784   -6.8320 C   0  0  0  0  0  0  0  0  0  0  0  0
   40.3139   -5.3057   -5.6360 N   0  0  0  0  0  0  0  0  0  0  0  0
   40.6244   -3.9918   -5.7695 C   0  0  0  0  0  0  0  0  0  0  0  0
   40.4799   -3.6352   -7.0552 N   0  0  0  0  0  0  0  0  0  0  0  0
   38.4711   -6.1826  -10.8043 C   0  0  0  0  0  0  0  0  0  0  0  0
   37.1874   -5.7056  -10.9030 O   0  0  0  0  0  0  0  0  0  0  0  0
   38.9628   -6.6710  -11.8689 O   0  0  0  0  0  0  0  0  0  0  0  0
  2  6  1  0
  2  1  1  6
  3  2  1  0
  3  4  1  0
  4  5  2  0
  6  7  2  0
  8  4  1  0
  9 10  1  0
  9  6  1  0
 10 11  1  6
 11 12  1  0
 12 13  1  0
 13 14  2  0
 13 17  1  0
 15 10  1  0
 16 15  2  0
 18 15  1  0
 19 20  1  6
 19 18  1  0
 20 21  1  0
 21 25  1  0
 21 22  2  0
 22 23  1  0
 24 23  1  0
 25 24  2  0
 26 19  1  0
 27 26  1  0
 28 26  2  0
M  END
$$$$
