DEH.pdb
     RDKit          3D

 28 28  0  0  1  0  0  0  0  0999 V2000
   22.1552  -14.9421  -18.8368 N   0  0  0  0  0  0  0  0  0  0  0  0
   21.2657  -14.8154  -17.7058 C   0  0  1  0  0  0  0  0  0  0  0  0
   21.8290  -15.4859  -16.4876 C   0  0  0  0  0  0  0  0  0  0  0  0
   21.4479  -16.9202  -16.4911 C   0  0  0  0  0  0  0  0  0  0  0  0
   22.2844  -17.8406  -16.3381 O   0  0  0  0  0  0  0  0  0  0  0  0
   20.8999  -13.4155  -17.5139 C   0  0  0  0  0  0  0  0  0  0  0  0
   21.4854  -12.5639  -18.2653 O   0  0  0  0  0  0  0  0  0  0  0  0
   20.1201  -17.2773  -16.6693 O   0  0  0  0  0  0  0  0  0  0  0  0
   19.9490  -12.9642  -16.5578 N   0  0  0  0  0  0  0  0  0  0  0  0
   19.7019  -11.5250  -16.4972 C   0  0  1  0  0  0  0  0  0  0  0  0
   18.4015  -11.3850  -15.7438 C   0  0  0  0  0  0  0  0  0  0  0  0
   17.2202  -11.9459  -16.4533 C   0  0  0  0  0  0  0  0  0  0  0  0
   16.3102  -12.5452  -15.4006 C   0  0  0  0  0  0  0  0  0  0  0  0
   15.4527  -11.8288  -14.8263 O   0  0  0  0  0  0  0  0  0  0  0  0
   20.7601  -10.8351  -15.7473 C   0  0  0  0  0  0  0  0  0  0  0  0
   21.7877  -11.4718  -15.4343 O   0  0  0  0  0  0  0  0  0  0  0  0
   16.4631  -13.8863  -15.1075 O   0  0  0  0  0  0  0  0  0  0  0  0
   20.6934   -9.4774  -15.3487 N   0  0  0  0  0  0  0  0  0  0  0  0
   21.8893   -8.6747  -15.1659 C   0  0  1  0  0  0  0  0  0  0  0  0
   22.7548   -8.7003  -16.4089 C   0  0  0  0  0  0  0  0  0  0  0  0
   23.9391   -9.5679  -16.2392 C   0  0  0  0  0  0  0  0  0  0  0  0
   23.9372  -10.9276  -16.0296 C   0  0  0  0  0  0  0  0  0  0  0  0
   25.2029  -11.3218  -15.9219 N   0  0  0  0  0  0  0  0  0  0  0  0
   26.0014  -10.2338  -16.0601 C   0  0  0  0  0  0  0  0  0  0  0  0
   25.2352   -9.1494  -16.2556 N   0  0  0  0  0  0  0  0  0  0  0  0
   21.5762   -7.3287  -14.6822 C   0  0  0  0  0  0  0  0  0  0  0  0
   22.2697   -6.6180  -13.7340 O   0  0  0  0  0  0  0  0  0  0  0  0
   20.5632   -6.7453  -15.1794 O   0  0  0  0  0  0  0  0  0  0  0  0
  2  6  1  0
  2  1  1  6
  3  2  1  0
  3  4  1  0
  4  5  2  0
  6  7  2  0
  8  4  1  0
  9 10  1  0
  9  6  1  0
 10 11  1  1
 11 12  1  0
 12 13  1  0
 13 14  2  0
 13 17  1  0
 15 10  1  0
 16 15  2  0
 18 15  1  0
 19 20  1  6
 19 18  1  0
 20 21  1  0
 21 25  1  0
 21 22  2  0
 22 23  1  0
 24 23  1  0
 25 24  2  0
 26 19  1  0
 27 26  1  0
 28 26  2  0
M  END
$$$$
