DEH.pdb
     RDKit          3D

 28 28  0  0  1  0  0  0  0  0999 V2000
   20.3829  -22.1188  -14.4707 N   0  0  0  0  0  0  0  0  0  0  0  0
   20.1810  -20.7733  -13.9857 C   0  0  1  0  0  0  0  0  0  0  0  0
   19.2672  -20.7508  -12.7960 C   0  0  0  0  0  0  0  0  0  0  0  0
   18.4326  -21.9779  -12.7896 C   0  0  0  0  0  0  0  0  0  0  0  0
   18.9221  -23.1270  -12.8902 O   0  0  0  0  0  0  0  0  0  0  0  0
   21.4696  -20.1214  -13.7740 C   0  0  0  0  0  0  0  0  0  0  0  0
   21.4709  -18.8437  -13.7777 O   0  0  0  0  0  0  0  0  0  0  0  0
   17.0555  -21.8709  -12.6690 O   0  0  0  0  0  0  0  0  0  0  0  0
   22.6915  -20.8192  -13.5688 N   0  0  0  0  0  0  0  0  0  0  0  0
   23.8840  -20.0101  -13.3251 C   0  0  1  0  0  0  0  0  0  0  0  0
   24.6993  -20.8070  -12.3359 C   0  0  0  0  0  0  0  0  0  0  0  0
   24.2693  -20.6483  -10.9205 C   0  0  0  0  0  0  0  0  0  0  0  0
   25.2302  -21.4529  -10.0692 C   0  0  0  0  0  0  0  0  0  0  0  0
   26.2073  -22.0364  -10.6011 O   0  0  0  0  0  0  0  0  0  0  0  0
   24.6690  -19.8366  -14.5547 C   0  0  0  0  0  0  0  0  0  0  0  0
   24.6448  -20.7406  -15.4158 O   0  0  0  0  0  0  0  0  0  0  0  0
   24.9880  -21.5141   -8.7107 O   0  0  0  0  0  0  0  0  0  0  0  0
   25.4634  -18.6976  -14.8342 N   0  0  0  0  0  0  0  0  0  0  0  0
   26.2040  -18.5682  -16.0763 C   0  0  1  0  0  0  0  0  0  0  0  0
   26.7379  -17.1606  -16.2451 C   0  0  0  0  0  0  0  0  0  0  0  0
   27.5666  -17.0266  -17.4614 C   0  0  0  0  0  0  0  0  0  0  0  0
   27.7743  -17.9882  -18.4232 C   0  0  0  0  0  0  0  0  0  0  0  0
   28.5851  -17.4720  -19.3425 N   0  0  0  0  0  0  0  0  0  0  0  0
   28.8914  -16.2022  -18.9759 C   0  0  0  0  0  0  0  0  0  0  0  0
   28.2707  -15.9173  -17.8206 N   0  0  0  0  0  0  0  0  0  0  0  0
   27.2183  -19.6142  -16.2202 C   0  0  0  0  0  0  0  0  0  0  0  0
   27.5838  -20.2451  -17.3836 O   0  0  0  0  0  0  0  0  0  0  0  0
   27.8312  -19.9881  -15.1722 O   0  0  0  0  0  0  0  0  0  0  0  0
  2  6  1  0
  2  1  1  1
  3  2  1  0
  3  4  1  0
  4  5  2  0
  6  7  2  0
  8  4  1  0
  9 10  1  0
  9  6  1  0
 10 11  1  1
 11 12  1  0
 12 13  1  0
 13 14  2  0
 13 17  1  0
 15 10  1  0
 16 15  2  0
 18 15  1  0
 19 20  1  1
 19 18  1  0
 20 21  1  0
 21 25  1  0
 21 22  2  0
 22 23  1  0
 24 23  1  0
 25 24  2  0
 26 19  1  0
 27 26  1  0
 28 26  2  0
M  END
$$$$
