WRW.pdb
     RDKit          3D

 40 43  0  0  1  0  0  0  0  0999 V2000
   17.6891  -25.5776  -18.8643 N   0  0  0  0  0  0  0  0  0  0  0  0
   17.1649  -26.7922  -18.2985 C   0  0  1  0  0  0  0  0  0  0  0  0
   18.2303  -27.8949  -18.2189 C   0  0  0  0  0  0  0  0  0  0  0  0
   18.5172  -28.4481  -19.5541 C   0  0  0  0  0  0  0  0  0  0  0  0
   19.3828  -27.8938  -20.5100 C   0  0  0  0  0  0  0  0  0  0  0  0
   19.4057  -28.6795  -21.5914 N   0  0  0  0  0  0  0  0  0  0  0  0
   18.6023  -29.7401  -21.4254 C   0  0  0  0  0  0  0  0  0  0  0  0
   18.2944  -30.8130  -22.2550 C   0  0  0  0  0  0  0  0  0  0  0  0
   17.4107  -31.7485  -21.7807 C   0  0  0  0  0  0  0  0  0  0  0  0
   16.8418  -31.6331  -20.5217 C   0  0  0  0  0  0  0  0  0  0  0  0
   17.1470  -30.5775  -19.7136 C   0  0  0  0  0  0  0  0  0  0  0  0
   18.0402  -29.6017  -20.1489 C   0  0  0  0  0  0  0  0  0  0  0  0
   16.7743  -26.5658  -16.8581 C   0  0  0  0  0  0  0  0  0  0  0  0
   17.3670  -25.6861  -16.2232 O   0  0  0  0  0  0  0  0  0  0  0  0
   12.0142  -31.2921  -13.6462 N   0  0  0  0  0  0  0  0  0  0  0  0
   11.4505  -30.0994  -13.1493 C   0  0  0  0  0  0  0  0  0  0  0  0
   10.7666  -30.0334  -12.0592 N   0  0  0  0  0  0  0  0  0  0  0  0
   11.6413  -28.8994  -13.8954 N   0  0  0  0  0  0  0  0  0  0  0  0
   12.0380  -28.9999  -15.2854 C   0  0  0  0  0  0  0  0  0  0  0  0
   13.5176  -28.7211  -15.3826 C   0  0  0  0  0  0  0  0  0  0  0  0
   13.8140  -27.3579  -14.8976 C   0  0  0  0  0  0  0  0  0  0  0  0
   15.2825  -27.0264  -14.9371 C   0  0  2  0  0  0  0  0  0  0  0  0
   15.7691  -27.3527  -16.3083 N   0  0  0  0  0  0  0  0  0  0  0  0
   16.1438  -27.7644  -14.0393 C   0  0  0  0  0  0  0  0  0  0  0  0
   16.9575  -28.6198  -14.5821 O   0  0  0  0  0  0  0  0  0  0  0  0
   10.3617  -29.1564  -11.6961 N   0  0  0  0  0  0  0  0  0  0  0  0
   16.1553  -27.6120  -12.6515 C   0  0  2  0  0  0  0  0  0  0  0  0
   17.1661  -28.3408  -11.8439 C   0  0  0  0  0  0  0  0  0  0  0  0
   18.4668  -27.7246  -12.2226 C   0  0  0  0  0  0  0  0  0  0  0  0
   18.7223  -26.3775  -11.7102 C   0  0  0  0  0  0  0  0  0  0  0  0
   18.6918  -25.9962  -10.3794 N   0  0  0  0  0  0  0  0  0  0  0  0
   18.9374  -24.6905  -10.2868 C   0  0  0  0  0  0  0  0  0  0  0  0
   19.1385  -24.1554  -11.5269 C   0  0  0  0  0  0  0  0  0  0  0  0
   19.4302  -22.8757  -11.9608 C   0  0  0  0  0  0  0  0  0  0  0  0
   19.5941  -22.6407  -13.3075 C   0  0  0  0  0  0  0  0  0  0  0  0
   19.4680  -23.6730  -14.2121 C   0  0  0  0  0  0  0  0  0  0  0  0
   19.1768  -24.9348  -13.7527 C   0  0  0  0  0  0  0  0  0  0  0  0
   19.0018  -25.2167  -12.3936 C   0  0  0  0  0  0  0  0  0  0  0  0
   16.7691  -28.2529  -10.4418 O   0  0  0  0  0  0  0  0  0  0  0  0
   17.3693  -28.9155   -9.5719 O   0  0  0  0  0  0  0  0  0  0  0  0
  2  1  1  1
  2  3  1  0
  3  4  1  0
  4  5  2  0
  6  5  1  0
  7  6  1  0
  8  7  2  0
  9  8  1  0
 10 11  1  0
 10  9  2  0
 11 12  2  0
 12  7  1  0
 12  4  1  0
 13  2  1  0
 13 14  2  0
 15 16  1  0
 16 18  1  0
 17 16  2  0
 18 19  1  0
 19 20  1  0
 20 21  1  0
 22 21  1  6
 22 23  1  0
 22 24  1  0
 23 13  1  0
 24 25  2  0
 26 24  1  0
 26 27  1  0
 27 38  1  0
 27 28  1  6
 29 28  1  0
 30 29  2  0
 31 30  1  0
 32 31  1  0
 32 37  2  0
 33 32  1  0
 34 33  2  0
 34 35  1  0
 35 36  2  0
 36 37  1  0
 37 29  1  0
 38 40  1  0
 39 38  2  0
M  END
$$$$
