WRW.pdb
     RDKit          3D

 40 43  0  0  1  0  0  0  0  0999 V2000
   24.2371  -20.7097   -8.4822 N   0  0  0  0  0  0  0  0  0  0  0  0
   25.2587  -20.0639   -9.2628 C   0  0  1  0  0  0  0  0  0  0  0  0
   26.5820  -20.8420   -9.2328 C   0  0  0  0  0  0  0  0  0  0  0  0
   27.1341  -20.8907   -7.8676 C   0  0  0  0  0  0  0  0  0  0  0  0
   27.1899  -22.0216   -7.0381 C   0  0  0  0  0  0  0  0  0  0  0  0
   27.7732  -21.6912   -5.8815 N   0  0  0  0  0  0  0  0  0  0  0  0
   28.1185  -20.3956   -5.8764 C   0  0  0  0  0  0  0  0  0  0  0  0
   28.7346  -19.6006   -4.9160 C   0  0  0  0  0  0  0  0  0  0  0  0
   28.9458  -18.2811   -5.2250 C   0  0  0  0  0  0  0  0  0  0  0  0
   28.5604  -17.7540   -6.4480 C   0  0  0  0  0  0  0  0  0  0  0  0
   27.9551  -18.5389   -7.3850 C   0  0  0  0  0  0  0  0  0  0  0  0
   27.7199  -19.8858   -7.1197 C   0  0  0  0  0  0  0  0  0  0  0  0
   24.8740  -20.0662  -10.7224 C   0  0  0  0  0  0  0  0  0  0  0  0
   23.7234  -20.4039  -11.0229 O   0  0  0  0  0  0  0  0  0  0  0  0
   27.8735  -18.4238  -18.2070 N   0  0  0  0  0  0  0  0  0  0  0  0
   28.7121  -18.0830  -17.1263 C   0  0  0  0  0  0  0  0  0  0  0  0
   29.9940  -18.2116  -17.1498 N   0  0  0  0  0  0  0  0  0  0  0  0
   28.1105  -17.5731  -15.9384 N   0  0  0  0  0  0  0  0  0  0  0  0
   26.6904  -17.7765  -15.7350 C   0  0  0  0  0  0  0  0  0  0  0  0
   26.3051  -17.1717  -14.4075 C   0  0  0  0  0  0  0  0  0  0  0  0
   26.6076  -18.1125  -13.3099 C   0  0  0  0  0  0  0  0  0  0  0  0
   25.3908  -18.8489  -12.8150 C   0  0  2  0  0  0  0  0  0  0  0  0
   25.8255  -19.6904  -11.6634 N   0  0  0  0  0  0  0  0  0  0  0  0
   24.7585  -19.7633  -13.7404 C   0  0  0  0  0  0  0  0  0  0  0  0
   25.4107  -20.8506  -14.0246 O   0  0  0  0  0  0  0  0  0  0  0  0
   30.5950  -18.0519  -16.3262 N   0  0  0  0  0  0  0  0  0  0  0  0
   23.5113  -19.5529  -14.3318 C   0  0  2  0  0  0  0  0  0  0  0  0
   23.0495  -20.4643  -15.4094 C   0  0  0  0  0  0  0  0  0  0  0  0
   21.5668  -20.3356  -15.4023 C   0  0  0  0  0  0  0  0  0  0  0  0
   20.8414  -21.1118  -16.4091 C   0  0  0  0  0  0  0  0  0  0  0  0
   21.2239  -22.3427  -16.9153 N   0  0  0  0  0  0  0  0  0  0  0  0
   20.3463  -22.7347  -17.8372 C   0  0  0  0  0  0  0  0  0  0  0  0
   19.3604  -21.8012  -17.9826 C   0  0  0  0  0  0  0  0  0  0  0  0
   18.2364  -21.7404  -18.7851 C   0  0  0  0  0  0  0  0  0  0  0  0
   17.4017  -20.6491  -18.6958 C   0  0  0  0  0  0  0  0  0  0  0  0
   17.6862  -19.6285  -17.8141 C   0  0  0  0  0  0  0  0  0  0  0  0
   18.8107  -19.7150  -17.0292 C   0  0  0  0  0  0  0  0  0  0  0  0
   19.6853  -20.8052  -17.0888 C   0  0  0  0  0  0  0  0  0  0  0  0
   23.7454  -20.0954  -16.6385 O   0  0  0  0  0  0  0  0  0  0  0  0
   24.4774  -20.9196  -17.2224 O   0  0  0  0  0  0  0  0  0  0  0  0
  2  1  1  1
  2  3  1  0
  3  4  1  0
  4  5  2  0
  6  5  1  0
  7  6  1  0
  8  7  2  0
  9  8  1  0
 10 11  1  0
 10  9  2  0
 11 12  2  0
 12  7  1  0
 12  4  1  0
 13  2  1  0
 13 14  2  0
 15 16  1  0
 16 18  1  0
 17 16  2  0
 18 19  1  0
 19 20  1  0
 20 21  1  0
 22 21  1  6
 22 23  1  0
 22 24  1  0
 23 13  1  0
 24 25  2  0
 26 24  1  0
 26 27  1  0
 27 38  1  0
 27 28  1  6
 29 28  1  0
 30 29  2  0
 31 30  1  0
 32 31  1  0
 32 37  2  0
 33 32  1  0
 34 33  2  0
 34 35  1  0
 35 36  2  0
 36 37  1  0
 37 29  1  0
 38 40  1  0
 39 38  2  0
M  END
$$$$
