WRW.pdb
     RDKit          3D

 40 43  0  0  1  0  0  0  0  0999 V2000
   22.1359  -16.5515    8.5739 N   0  0  0  0  0  0  0  0  0  0  0  0
   20.7494  -16.8649    8.3516 C   0  0  1  0  0  0  0  0  0  0  0  0
   20.3815  -16.8161    6.8618 C   0  0  0  0  0  0  0  0  0  0  0  0
   20.4270  -15.4343    6.3524 C   0  0  0  0  0  0  0  0  0  0  0  0
   21.1797  -14.3790    6.8910 C   0  0  0  0  0  0  0  0  0  0  0  0
   20.9854  -13.2795    6.1559 N   0  0  0  0  0  0  0  0  0  0  0  0
   20.1404  -13.5270    5.1446 C   0  0  0  0  0  0  0  0  0  0  0  0
   19.6361  -12.7159    4.1337 C   0  0  0  0  0  0  0  0  0  0  0  0
   18.7666  -13.2847    3.2384 C   0  0  0  0  0  0  0  0  0  0  0  0
   18.4000  -14.6182    3.3336 C   0  0  0  0  0  0  0  0  0  0  0  0
   18.8971  -15.4079    4.3285 C   0  0  0  0  0  0  0  0  0  0  0  0
   19.7848  -14.8777    5.2616 C   0  0  0  0  0  0  0  0  0  0  0  0
   20.4730  -18.2963    8.7429 C   0  0  0  0  0  0  0  0  0  0  0  0
   21.4055  -19.1063    8.6928 O   0  0  0  0  0  0  0  0  0  0  0  0
   15.2392  -21.1676   14.9381 N   0  0  0  0  0  0  0  0  0  0  0  0
   15.8091  -22.3639   14.4570 C   0  0  0  0  0  0  0  0  0  0  0  0
   15.6731  -23.5043   15.0412 N   0  0  0  0  0  0  0  0  0  0  0  0
   16.5841  -22.3105   13.2613 N   0  0  0  0  0  0  0  0  0  0  0  0
   16.7621  -21.0316   12.6040 C   0  0  0  0  0  0  0  0  0  0  0  0
   17.7321  -21.2107   11.4623 C   0  0  0  0  0  0  0  0  0  0  0  0
   17.9862  -19.9157   10.7991 C   0  0  0  0  0  0  0  0  0  0  0  0
   18.9483  -20.0249    9.6458 C   0  0  2  0  0  0  0  0  0  0  0  0
   19.1871  -18.6422    9.1413 N   0  0  0  0  0  0  0  0  0  0  0  0
   18.5064  -20.7816    8.4949 C   0  0  0  0  0  0  0  0  0  0  0  0
   18.1978  -20.1010    7.4319 O   0  0  0  0  0  0  0  0  0  0  0  0
   16.1788  -24.3551   14.7486 N   0  0  0  0  0  0  0  0  0  0  0  0
   18.3977  -22.1731    8.4580 C   0  0  2  0  0  0  0  0  0  0  0  0
   17.8724  -22.8337    7.2362 C   0  0  0  0  0  0  0  0  0  0  0  0
   18.7267  -22.3181    6.1320 C   0  0  0  0  0  0  0  0  0  0  0  0
   18.5020  -22.9017    4.8086 C   0  0  0  0  0  0  0  0  0  0  0  0
   17.5104  -22.5307    3.9160 N   0  0  0  0  0  0  0  0  0  0  0  0
   17.5832  -23.2972    2.8293 C   0  0  0  0  0  0  0  0  0  0  0  0
   18.6059  -24.1942    2.9476 C   0  0  0  0  0  0  0  0  0  0  0  0
   19.0916  -25.1799    2.1088 C   0  0  0  0  0  0  0  0  0  0  0  0
   20.1727  -25.9333    2.5081 C   0  0  0  0  0  0  0  0  0  0  0  0
   20.7630  -25.7050    3.7325 C   0  0  0  0  0  0  0  0  0  0  0  0
   20.2588  -24.7193    4.5462 C   0  0  0  0  0  0  0  0  0  0  0  0
   19.1623  -23.9317    4.1797 C   0  0  0  0  0  0  0  0  0  0  0  0
   17.8783  -24.2752    7.4671 O   0  0  0  0  0  0  0  0  0  0  0  0
   16.8544  -24.9543    7.2518 O   0  0  0  0  0  0  0  0  0  0  0  0
  2  1  1  6
  2  3  1  0
  3  4  1  0
  4  5  2  0
  6  5  1  0
  7  6  1  0
  8  7  2  0
  9  8  1  0
 10 11  1  0
 10  9  2  0
 11 12  2  0
 12  7  1  0
 12  4  1  0
 13  2  1  0
 13 14  2  0
 15 16  1  0
 16 18  1  0
 17 16  2  0
 18 19  1  0
 19 20  1  0
 20 21  1  0
 22 21  1  1
 22 23  1  0
 22 24  1  0
 23 13  1  0
 24 25  2  0
 26 24  1  0
 26 27  1  0
 27 38  1  0
 27 28  1  1
 29 28  1  0
 30 29  2  0
 31 30  1  0
 32 31  1  0
 32 37  2  0
 33 32  1  0
 34 33  2  0
 34 35  1  0
 35 36  2  0
 36 37  1  0
 37 29  1  0
 38 40  1  0
 39 38  2  0
M  END
$$$$
