WRW.pdb
     RDKit          3D

 40 43  0  0  1  0  0  0  0  0999 V2000
   21.4352  -22.8877  -14.9420 N   0  0  0  0  0  0  0  0  0  0  0  0
   22.1910  -21.6924  -14.6773 C   0  0  1  0  0  0  0  0  0  0  0  0
   21.4925  -20.7865  -13.6532 C   0  0  0  0  0  0  0  0  0  0  0  0
   20.4085  -20.0143  -14.2852 C   0  0  0  0  0  0  0  0  0  0  0  0
   19.0323  -20.2483  -14.1381 C   0  0  0  0  0  0  0  0  0  0  0  0
   18.3530  -19.3381  -14.8432 N   0  0  0  0  0  0  0  0  0  0  0  0
   19.1911  -18.4954  -15.4640 C   0  0  0  0  0  0  0  0  0  0  0  0
   18.9661  -17.4076  -16.3007 C   0  0  0  0  0  0  0  0  0  0  0  0
   20.0634  -16.7435  -16.7868 C   0  0  0  0  0  0  0  0  0  0  0  0
   21.3514  -17.1386  -16.4599 C   0  0  0  0  0  0  0  0  0  0  0  0
   21.5650  -18.2074  -15.6398 C   0  0  0  0  0  0  0  0  0  0  0  0
   20.4836  -18.9138  -15.1191 C   0  0  0  0  0  0  0  0  0  0  0  0
   23.4995  -22.0439  -14.0121 C   0  0  0  0  0  0  0  0  0  0  0  0
   23.5004  -22.9416  -13.1621 O   0  0  0  0  0  0  0  0  0  0  0  0
   30.3265  -24.5508  -16.1700 N   0  0  0  0  0  0  0  0  0  0  0  0
   29.7966  -23.4288  -16.8389 C   0  0  0  0  0  0  0  0  0  0  0  0
   29.8049  -23.2924  -18.1202 N   0  0  0  0  0  0  0  0  0  0  0  0
   29.2245  -22.3831  -16.0565 N   0  0  0  0  0  0  0  0  0  0  0  0
   29.1455  -22.5526  -14.6196 C   0  0  0  0  0  0  0  0  0  0  0  0
   28.3780  -21.3893  -14.0416 C   0  0  0  0  0  0  0  0  0  0  0  0
   27.0384  -21.3038  -14.6576 C   0  0  0  0  0  0  0  0  0  0  0  0
   25.9314  -21.6911  -13.7129 C   0  0  2  0  0  0  0  0  0  0  0  0
   24.6438  -21.3465  -14.3813 N   0  0  0  0  0  0  0  0  0  0  0  0
   25.8939  -21.0122  -12.4362 C   0  0  0  0  0  0  0  0  0  0  0  0
   25.2357  -19.8928  -12.3890 O   0  0  0  0  0  0  0  0  0  0  0  0
   29.3601  -22.4998  -18.6089 N   0  0  0  0  0  0  0  0  0  0  0  0
   26.5076  -21.4813  -11.2731 C   0  0  2  0  0  0  0  0  0  0  0  0
   26.4124  -20.6849  -10.0234 C   0  0  0  0  0  0  0  0  0  0  0  0
   27.0560  -21.5348   -8.9849 C   0  0  0  0  0  0  0  0  0  0  0  0
   27.2980  -20.9043   -7.6863 C   0  0  0  0  0  0  0  0  0  0  0  0
   26.3474  -20.2752   -6.9001 N   0  0  0  0  0  0  0  0  0  0  0  0
   26.9297  -19.7877   -5.8059 C   0  0  0  0  0  0  0  0  0  0  0  0
   28.2666  -20.0652   -5.8148 C   0  0  0  0  0  0  0  0  0  0  0  0
   29.2880  -19.7914   -4.9245 C   0  0  0  0  0  0  0  0  0  0  0  0
   30.5643  -20.2231   -5.2081 C   0  0  0  0  0  0  0  0  0  0  0  0
   30.8184  -20.9213   -6.3690 C   0  0  0  0  0  0  0  0  0  0  0  0
   29.7842  -21.1787   -7.2363 C   0  0  0  0  0  0  0  0  0  0  0  0
   28.4736  -20.7578   -6.9870 C   0  0  0  0  0  0  0  0  0  0  0  0
   27.0080  -19.3766  -10.2781 O   0  0  0  0  0  0  0  0  0  0  0  0
   27.9419  -19.2554  -11.0961 O   0  0  0  0  0  0  0  0  0  0  0  0
  2  1  1  1
  2  3  1  0
  3  4  1  0
  4  5  2  0
  6  5  1  0
  7  6  1  0
  8  7  2  0
  9  8  1  0
 10 11  1  0
 10  9  2  0
 11 12  2  0
 12  7  1  0
 12  4  1  0
 13  2  1  0
 13 14  2  0
 15 16  1  0
 16 18  1  0
 17 16  2  0
 18 19  1  0
 19 20  1  0
 20 21  1  0
 22 21  1  6
 22 23  1  0
 22 24  1  0
 23 13  1  0
 24 25  2  0
 26 24  1  0
 26 27  1  0
 27 38  1  0
 27 28  1  1
 29 28  1  0
 30 29  2  0
 31 30  1  0
 32 31  1  0
 32 37  2  0
 33 32  1  0
 34 33  2  0
 34 35  1  0
 35 36  2  0
 36 37  1  0
 37 29  1  0
 38 40  1  0
 39 38  2  0
M  END
$$$$
