WRW.pdb
     RDKit          3D

 40 43  0  0  1  0  0  0  0  0999 V2000
   26.7805  -18.2999  -19.3183 N   0  0  0  0  0  0  0  0  0  0  0  0
   27.2627  -18.8236  -18.0680 C   0  0  1  0  0  0  0  0  0  0  0  0
   27.0635  -17.8302  -16.9144 C   0  0  0  0  0  0  0  0  0  0  0  0
   27.7922  -16.5749  -17.1678 C   0  0  0  0  0  0  0  0  0  0  0  0
   27.2687  -15.2776  -17.0534 C   0  0  0  0  0  0  0  0  0  0  0  0
   28.2253  -14.3896  -17.3429 N   0  0  0  0  0  0  0  0  0  0  0  0
   29.3735  -15.0108  -17.6490 C   0  0  0  0  0  0  0  0  0  0  0  0
   30.6242  -14.5262  -18.0166 C   0  0  0  0  0  0  0  0  0  0  0  0
   31.6094  -15.4447  -18.2752 C   0  0  0  0  0  0  0  0  0  0  0  0
   31.3723  -16.8070  -18.1762 C   0  0  0  0  0  0  0  0  0  0  0  0
   30.1428  -17.2756  -17.8166 C   0  0  0  0  0  0  0  0  0  0  0  0
   29.1095  -16.3832  -17.5421 C   0  0  0  0  0  0  0  0  0  0  0  0
   26.4406  -20.0209  -17.6567 C   0  0  0  0  0  0  0  0  0  0  0  0
   25.3328  -20.1775  -18.1824 O   0  0  0  0  0  0  0  0  0  0  0  0
   27.1326  -28.2484  -16.3236 N   0  0  0  0  0  0  0  0  0  0  0  0
   28.0605  -27.6148  -17.1749 C   0  0  0  0  0  0  0  0  0  0  0  0
   28.7254  -28.2311  -18.0904 N   0  0  0  0  0  0  0  0  0  0  0  0
   28.2816  -26.2156  -17.0119 N   0  0  0  0  0  0  0  0  0  0  0  0
   27.6079  -25.5261  -15.9301 C   0  0  0  0  0  0  0  0  0  0  0  0
   26.5544  -24.6220  -16.5211 C   0  0  0  0  0  0  0  0  0  0  0  0
   27.1296  -23.2956  -16.8229 C   0  0  0  0  0  0  0  0  0  0  0  0
   26.2244  -22.1588  -16.4276 C   0  0  2  0  0  0  0  0  0  0  0  0
   26.9614  -20.8933  -16.7082 N   0  0  0  0  0  0  0  0  0  0  0  0
   25.8442  -22.0798  -15.0342 C   0  0  0  0  0  0  0  0  0  0  0  0
   26.8106  -22.0243  -14.1674 O   0  0  0  0  0  0  0  0  0  0  0  0
   29.4463  -27.7755  -18.6717 N   0  0  0  0  0  0  0  0  0  0  0  0
   24.5259  -22.0559  -14.5747 C   0  0  1  0  0  0  0  0  0  0  0  0
   24.2593  -21.8612  -13.1269 C   0  0  0  0  0  0  0  0  0  0  0  0
   25.1158  -20.7080  -12.7376 C   0  0  0  0  0  0  0  0  0  0  0  0
   25.8051  -20.8145  -11.4508 C   0  0  0  0  0  0  0  0  0  0  0  0
   25.2291  -20.6348  -10.2044 N   0  0  0  0  0  0  0  0  0  0  0  0
   26.1600  -20.7728   -9.2620 C   0  0  0  0  0  0  0  0  0  0  0  0
   27.3725  -21.0453   -9.8277 C   0  0  0  0  0  0  0  0  0  0  0  0
   28.6260  -21.2790   -9.2936 C   0  0  0  0  0  0  0  0  0  0  0  0
   29.6801  -21.5467  -10.1381 C   0  0  0  0  0  0  0  0  0  0  0  0
   29.4847  -21.5809  -11.5021 C   0  0  0  0  0  0  0  0  0  0  0  0
   28.2282  -21.3441  -12.0052 C   0  0  0  0  0  0  0  0  0  0  0  0
   27.1306  -21.0677  -11.1831 C   0  0  0  0  0  0  0  0  0  0  0  0
   22.8178  -21.7109  -12.9519 O   0  0  0  0  0  0  0  0  0  0  0  0
   22.3217  -21.6579  -11.8086 O   0  0  0  0  0  0  0  0  0  0  0  0
  2  1  1  6
  2  3  1  0
  3  4  1  0
  4  5  2  0
  6  5  1  0
  7  6  1  0
  8  7  2  0
  9  8  1  0
 10 11  1  0
 10  9  2  0
 11 12  2  0
 12  7  1  0
 12  4  1  0
 13  2  1  0
 13 14  2  0
 15 16  1  0
 16 18  1  0
 17 16  2  0
 18 19  1  0
 19 20  1  0
 20 21  1  0
 22 21  1  1
 22 23  1  0
 22 24  1  0
 23 13  1  0
 24 25  2  0
 26 24  1  0
 26 27  1  0
 27 38  1  0
 27 28  1  1
 29 28  1  0
 30 29  2  0
 31 30  1  0
 32 31  1  0
 32 37  2  0
 33 32  1  0
 34 33  2  0
 34 35  1  0
 35 36  2  0
 36 37  1  0
 37 29  1  0
 38 40  1  0
 39 38  2  0
M  END
$$$$
