WRW.pdb
     RDKit          3D

 40 43  0  0  1  0  0  0  0  0999 V2000
   25.4755  -22.8256  -12.4679 N   0  0  0  0  0  0  0  0  0  0  0  0
   25.4865  -21.5473  -13.1281 C   0  0  1  0  0  0  0  0  0  0  0  0
   25.7447  -20.3960  -12.1456 C   0  0  0  0  0  0  0  0  0  0  0  0
   24.7197  -20.3661  -11.0875 C   0  0  0  0  0  0  0  0  0  0  0  0
   24.9493  -20.5052   -9.7098 C   0  0  0  0  0  0  0  0  0  0  0  0
   23.7866  -20.4071   -9.0574 N   0  0  0  0  0  0  0  0  0  0  0  0
   22.7754  -20.2086   -9.9154 C   0  0  0  0  0  0  0  0  0  0  0  0
   21.4072  -20.0532   -9.7211 C   0  0  0  0  0  0  0  0  0  0  0  0
   20.6254  -19.8694  -10.8329 C   0  0  0  0  0  0  0  0  0  0  0  0
   21.1737  -19.8398  -12.1058 C   0  0  0  0  0  0  0  0  0  0  0  0
   22.5164  -19.9945  -12.2895 C   0  0  0  0  0  0  0  0  0  0  0  0
   23.3531  -20.1824  -11.1922 C   0  0  0  0  0  0  0  0  0  0  0  0
   26.6505  -21.4694  -14.0860 C   0  0  0  0  0  0  0  0  0  0  0  0
   27.7944  -21.4755  -13.6174 O   0  0  0  0  0  0  0  0  0  0  0  0
   31.3485  -25.9046  -16.2420 N   0  0  0  0  0  0  0  0  0  0  0  0
   29.9970  -26.2102  -16.5016 C   0  0  0  0  0  0  0  0  0  0  0  0
   29.4723  -27.3666  -16.2830 N   0  0  0  0  0  0  0  0  0  0  0  0
   29.1641  -25.1865  -17.0414 N   0  0  0  0  0  0  0  0  0  0  0  0
   29.6757  -23.8322  -17.1004 C   0  0  0  0  0  0  0  0  0  0  0  0
   28.7176  -22.9932  -17.9096 C   0  0  0  0  0  0  0  0  0  0  0  0
   27.4918  -22.7228  -17.1313 C   0  0  0  0  0  0  0  0  0  0  0  0
   27.5408  -21.4100  -16.3951 C   0  0  2  0  0  0  0  0  0  0  0  0
   26.3884  -21.3944  -15.4490 N   0  0  0  0  0  0  0  0  0  0  0  0
   27.4007  -20.2092  -17.1894 C   0  0  0  0  0  0  0  0  0  0  0  0
   26.2073  -19.9310  -17.6218 O   0  0  0  0  0  0  0  0  0  0  0  0
   28.5005  -27.6051  -16.5353 N   0  0  0  0  0  0  0  0  0  0  0  0
   28.4504  -19.3460  -17.5093 C   0  0  1  0  0  0  0  0  0  0  0  0
   28.1809  -18.1402  -18.3330 C   0  0  0  0  0  0  0  0  0  0  0  0
   28.6816  -17.0037  -17.5127 C   0  0  0  0  0  0  0  0  0  0  0  0
   27.8143  -16.5572  -16.4214 C   0  0  0  0  0  0  0  0  0  0  0  0
   27.7731  -17.0948  -15.1460 N   0  0  0  0  0  0  0  0  0  0  0  0
   26.8436  -16.4650  -14.4295 C   0  0  0  0  0  0  0  0  0  0  0  0
   26.2373  -15.4995  -15.1810 C   0  0  0  0  0  0  0  0  0  0  0  0
   25.2390  -14.5840  -14.9047 C   0  0  0  0  0  0  0  0  0  0  0  0
   24.8378  -13.7061  -15.8865 C   0  0  0  0  0  0  0  0  0  0  0  0
   25.4275  -13.7416  -17.1318 C   0  0  0  0  0  0  0  0  0  0  0  0
   26.4168  -14.6626  -17.3788 C   0  0  0  0  0  0  0  0  0  0  0  0
   26.8536  -15.5726  -16.4103 C   0  0  0  0  0  0  0  0  0  0  0  0
   28.7981  -18.3423  -19.6404 O   0  0  0  0  0  0  0  0  0  0  0  0
   29.5998  -19.2803  -19.8231 O   0  0  0  0  0  0  0  0  0  0  0  0
  2  1  1  1
  2  3  1  0
  3  4  1  0
  4  5  2  0
  6  5  1  0
  7  6  1  0
  8  7  2  0
  9  8  1  0
 10 11  1  0
 10  9  2  0
 11 12  2  0
 12  7  1  0
 12  4  1  0
 13  2  1  0
 13 14  2  0
 15 16  1  0
 16 18  1  0
 17 16  2  0
 18 19  1  0
 19 20  1  0
 20 21  1  0
 22 21  1  6
 22 23  1  0
 22 24  1  0
 23 13  1  0
 24 25  2  0
 26 24  1  0
 26 27  1  0
 27 38  1  0
 27 28  1  6
 29 28  1  0
 30 29  2  0
 31 30  1  0
 32 31  1  0
 32 37  2  0
 33 32  1  0
 34 33  2  0
 34 35  1  0
 35 36  2  0
 36 37  1  0
 37 29  1  0
 38 40  1  0
 39 38  2  0
M  END
$$$$
