AQE.pdb
     RDKit          3D

 24 23  0  0  1  0  0  0  0  0999 V2000
    6.9931  -16.6103   19.7822 C   0  0  0  0  0  0  0  0  0  0  0  0
    7.3084  -15.1255   19.8495 C   0  0  2  0  0  0  0  0  0  0  0  0
    8.0687  -14.7738   18.6857 N   0  0  0  0  0  0  0  0  0  0  0  0
    8.1035  -14.8657   21.1130 C   0  0  0  0  0  0  0  0  0  0  0  0
    9.3521  -14.9912   21.1082 O   0  0  0  0  0  0  0  0  0  0  0  0
    5.3898  -12.4048   26.4818 N   0  0  0  0  0  0  0  0  0  0  0  0
    6.7208  -12.7119   26.8941 C   0  0  0  0  0  0  0  0  0  0  0  0
    7.0403  -12.3791   28.0507 O   0  0  0  0  0  0  0  0  0  0  0  0
    7.6363  -13.4037   25.9282 C   0  0  0  0  0  0  0  0  0  0  0  0
    7.0454  -13.6022   24.5774 C   0  0  0  0  0  0  0  0  0  0  0  0
    8.0561  -14.1804   23.5707 C   0  0  2  0  0  0  0  0  0  0  0  0
    7.4546  -14.4834   22.3002 N   0  0  0  0  0  0  0  0  0  0  0  0
    8.6233  -15.3958   24.2006 C   0  0  0  0  0  0  0  0  0  0  0  0
    7.8987  -16.4444   24.3426 O   0  0  0  0  0  0  0  0  0  0  0  0
    9.9474  -15.5244   24.6856 N   0  0  0  0  0  0  0  0  0  0  0  0
   10.4812  -16.8137   25.1535 C   0  0  1  0  0  0  0  0  0  0  0  0
   11.8241  -17.0670   24.5773 C   0  0  0  0  0  0  0  0  0  0  0  0
   12.7540  -15.9103   24.8001 C   0  0  0  0  0  0  0  0  0  0  0  0
   14.0650  -16.1161   24.1215 C   0  0  0  0  0  0  0  0  0  0  0  0
   14.9794  -16.7095   24.7231 O   0  0  0  0  0  0  0  0  0  0  0  0
   10.5079  -16.7639   26.6266 C   0  0  0  0  0  0  0  0  0  0  0  0
   10.1940  -15.7588   27.3110 O   0  0  0  0  0  0  0  0  0  0  0  0
   14.2745  -15.6559   22.8357 O   0  0  0  0  0  0  0  0  0  0  0  0
   10.9067  -17.9020   27.3305 O   0  0  0  0  0  0  0  0  0  0  0  0
  2  1  1  6
  3  2  1  0
  4  5  2  0
  4  2  1  0
  6  7  1  0
  7  9  1  0
  7  8  2  0
  9 10  1  0
 11 10  1  1
 11 13  1  0
 11 12  1  0
 12  4  1  0
 13 15  1  0
 14 13  2  0
 15 16  1  0
 16 21  1  0
 17 18  1  0
 16 17  1  6
 19 23  1  0
 19 18  1  0
 20 19  2  0
 21 22  2  0
 21 24  1  0
M  END
$$$$
