AQE.pdb
     RDKit          3D

 24 23  0  0  1  0  0  0  0  0999 V2000
    7.3871  -13.1236   18.8769 C   0  0  0  0  0  0  0  0  0  0  0  0
    7.7146  -14.3959   19.6402 C   0  0  2  0  0  0  0  0  0  0  0  0
    6.4937  -15.1145   19.8619 N   0  0  0  0  0  0  0  0  0  0  0  0
    8.3595  -14.0078   20.9554 C   0  0  0  0  0  0  0  0  0  0  0  0
    9.5197  -13.5300   20.9710 O   0  0  0  0  0  0  0  0  0  0  0  0
    6.6692  -13.0228   28.2126 N   0  0  0  0  0  0  0  0  0  0  0  0
    6.4003  -12.9214   26.8150 C   0  0  0  0  0  0  0  0  0  0  0  0
    5.2562  -12.5533   26.4895 O   0  0  0  0  0  0  0  0  0  0  0  0
    7.4911  -13.2574   25.8419 C   0  0  0  0  0  0  0  0  0  0  0  0
    7.0003  -13.5618   24.4709 C   0  0  0  0  0  0  0  0  0  0  0  0
    8.1436  -13.8953   23.4957 C   0  0  2  0  0  0  0  0  0  0  0  0
    7.6688  -14.1782   22.1682 N   0  0  0  0  0  0  0  0  0  0  0  0
    8.8563  -15.0598   24.0714 C   0  0  0  0  0  0  0  0  0  0  0  0
    8.2813  -16.2051   24.1220 O   0  0  0  0  0  0  0  0  0  0  0  0
   10.1709  -15.0368   24.5970 N   0  0  0  0  0  0  0  0  0  0  0  0
   10.9412  -16.2716   24.8166 C   0  0  1  0  0  0  0  0  0  0  0  0
   12.3396  -16.1088   24.3502 C   0  0  0  0  0  0  0  0  0  0  0  0
   13.1477  -17.3553   24.5640 C   0  0  0  0  0  0  0  0  0  0  0  0
   14.5579  -17.1842   24.1132 C   0  0  0  0  0  0  0  0  0  0  0  0
   14.9365  -16.0746   23.6943 O   0  0  0  0  0  0  0  0  0  0  0  0
   10.8669  -16.5797   26.2563 C   0  0  0  0  0  0  0  0  0  0  0  0
   11.2474  -17.6587   26.7743 O   0  0  0  0  0  0  0  0  0  0  0  0
   15.4460  -18.2417   24.1555 O   0  0  0  0  0  0  0  0  0  0  0  0
   10.3405  -15.6196   27.1228 O   0  0  0  0  0  0  0  0  0  0  0  0
  2  1  1  6
  3  2  1  0
  4  5  2  0
  4  2  1  0
  6  7  1  0
  7  9  1  0
  7  8  2  0
  9 10  1  0
 11 10  1  1
 11 13  1  0
 11 12  1  0
 12  4  1  0
 13 15  1  0
 14 13  2  0
 15 16  1  0
 16 21  1  0
 17 18  1  0
 16 17  1  1
 19 23  1  0
 19 18  1  0
 20 19  2  0
 21 22  2  0
 21 24  1  0
M  END
$$$$
