AQE.pdb
     RDKit          3D

 24 23  0  0  1  0  0  0  0  0999 V2000
    6.7787  -14.6667   19.2760 C   0  0  0  0  0  0  0  0  0  0  0  0
    7.2509  -13.3244   19.8089 C   0  0  2  0  0  0  0  0  0  0  0  0
    8.0787  -12.7105   18.8119 N   0  0  0  0  0  0  0  0  0  0  0  0
    8.0319  -13.5680   21.0843 C   0  0  0  0  0  0  0  0  0  0  0  0
    9.2419  -13.8958   21.0288 O   0  0  0  0  0  0  0  0  0  0  0  0
    5.5362  -12.2196   26.9293 N   0  0  0  0  0  0  0  0  0  0  0  0
    6.9072  -12.5058   27.2020 C   0  0  0  0  0  0  0  0  0  0  0  0
    7.2958  -12.3255   28.3712 O   0  0  0  0  0  0  0  0  0  0  0  0
    7.7799  -12.9973   26.0855 C   0  0  0  0  0  0  0  0  0  0  0  0
    7.1004  -13.0319   24.7625 C   0  0  0  0  0  0  0  0  0  0  0  0
    8.0277  -13.5218   23.6358 C   0  0  2  0  0  0  0  0  0  0  0  0
    7.4127  -13.4310   22.3392 N   0  0  0  0  0  0  0  0  0  0  0  0
    8.3815  -14.9222   23.9662 C   0  0  0  0  0  0  0  0  0  0  0  0
    7.5219  -15.8592   23.7995 O   0  0  0  0  0  0  0  0  0  0  0  0
    9.6320  -15.3529   24.4720 N   0  0  0  0  0  0  0  0  0  0  0  0
    9.9583  -16.7801   24.6238 C   0  0  1  0  0  0  0  0  0  0  0  0
   11.2145  -17.1112   23.9083 C   0  0  0  0  0  0  0  0  0  0  0  0
   11.6331  -18.5328   24.1448 C   0  0  0  0  0  0  0  0  0  0  0  0
   12.9277  -18.8465   23.4764 C   0  0  0  0  0  0  0  0  0  0  0  0
   13.9964  -18.6088   24.0693 O   0  0  0  0  0  0  0  0  0  0  0  0
   10.0528  -17.0526   26.0695 C   0  0  0  0  0  0  0  0  0  0  0  0
   10.2064  -16.1721   26.9518 O   0  0  0  0  0  0  0  0  0  0  0  0
   12.9531  -19.3966   22.2092 O   0  0  0  0  0  0  0  0  0  0  0  0
    9.9679  -18.3745   26.5113 O   0  0  0  0  0  0  0  0  0  0  0  0
  2  1  1  6
  3  2  1  0
  4  5  2  0
  4  2  1  0
  6  7  1  0
  7  9  1  0
  7  8  2  0
  9 10  1  0
 11 10  1  1
 11 13  1  0
 11 12  1  0
 12  4  1  0
 13 15  1  0
 14 13  2  0
 15 16  1  0
 16 21  1  0
 17 18  1  0
 16 17  1  6
 19 23  1  0
 19 18  1  0
 20 19  2  0
 21 22  2  0
 21 24  1  0
M  END
$$$$
