AQE.pdb
     RDKit          3D

 24 23  0  0  1  0  0  0  0  0999 V2000
    7.1342  -14.8638   19.3612 C   0  0  0  0  0  0  0  0  0  0  0  0
    7.4397  -13.4727   19.8906 C   0  0  2  0  0  0  0  0  0  0  0  0
    8.2803  -12.8043   18.9404 N   0  0  0  0  0  0  0  0  0  0  0  0
    8.1418  -13.6165   21.2257 C   0  0  0  0  0  0  0  0  0  0  0  0
    9.3670  -13.8844   21.2672 O   0  0  0  0  0  0  0  0  0  0  0  0
    5.2560  -12.1576   26.8664 N   0  0  0  0  0  0  0  0  0  0  0  0
    6.6062  -12.4408   27.2307 C   0  0  0  0  0  0  0  0  0  0  0  0
    6.9239  -12.2261   28.4154 O   0  0  0  0  0  0  0  0  0  0  0  0
    7.5423  -12.9698   26.1850 C   0  0  0  0  0  0  0  0  0  0  0  0
    6.9644  -12.9862   24.8143 C   0  0  0  0  0  0  0  0  0  0  0  0
    7.9415  -13.5536   23.7691 C   0  0  2  0  0  0  0  0  0  0  0  0
    7.4318  -13.4528   22.4282 N   0  0  0  0  0  0  0  0  0  0  0  0
    8.1834  -14.9656   24.1476 C   0  0  0  0  0  0  0  0  0  0  0  0
    7.2545  -15.8382   24.0038 O   0  0  0  0  0  0  0  0  0  0  0  0
    9.3935  -15.4751   24.6778 N   0  0  0  0  0  0  0  0  0  0  0  0
    9.5658  -16.9041   24.9853 C   0  0  1  0  0  0  0  0  0  0  0  0
   10.5815  -17.5150   24.0939 C   0  0  0  0  0  0  0  0  0  0  0  0
   11.8917  -16.7860   24.1590 C   0  0  0  0  0  0  0  0  0  0  0  0
   12.9001  -17.3773   23.2344 C   0  0  0  0  0  0  0  0  0  0  0  0
   13.3538  -16.6886   22.3018 O   0  0  0  0  0  0  0  0  0  0  0  0
    9.9432  -17.0000   26.4071 C   0  0  0  0  0  0  0  0  0  0  0  0
   10.1430  -18.0780   27.0198 O   0  0  0  0  0  0  0  0  0  0  0  0
   13.3344  -18.6782   23.4018 O   0  0  0  0  0  0  0  0  0  0  0  0
   10.0946  -15.8231   27.1433 O   0  0  0  0  0  0  0  0  0  0  0  0
  2  1  1  6
  3  2  1  0
  4  5  2  0
  4  2  1  0
  6  7  1  0
  7  9  1  0
  7  8  2  0
  9 10  1  0
 11 10  1  1
 11 13  1  0
 11 12  1  0
 12  4  1  0
 13 15  1  0
 14 13  2  0
 15 16  1  0
 16 21  1  0
 17 18  1  0
 16 17  1  6
 19 23  1  0
 19 18  1  0
 20 19  2  0
 21 22  2  0
 21 24  1  0
M  END
$$$$
