AQE.pdb
     RDKit          3D

 24 23  0  0  1  0  0  0  0  0999 V2000
    7.2749  -13.2271   20.1350 C   0  0  0  0  0  0  0  0  0  0  0  0
    7.7681  -14.6606   20.2371 C   0  0  2  0  0  0  0  0  0  0  0  0
    6.6266  -15.5240   20.3248 N   0  0  0  0  0  0  0  0  0  0  0  0
    8.6312  -14.7785   21.4769 C   0  0  0  0  0  0  0  0  0  0  0  0
    9.7234  -14.1644   21.5446 O   0  0  0  0  0  0  0  0  0  0  0  0
    6.8724  -18.4486   26.5333 N   0  0  0  0  0  0  0  0  0  0  0  0
    8.1090  -17.8796   26.9610 C   0  0  0  0  0  0  0  0  0  0  0  0
    8.5002  -18.1828   28.1037 O   0  0  0  0  0  0  0  0  0  0  0  0
    8.8483  -16.9688   26.0264 C   0  0  0  0  0  0  0  0  0  0  0  0
    8.0765  -16.6030   24.8082 C   0  0  0  0  0  0  0  0  0  0  0  0
    8.9108  -15.7873   23.8043 C   0  0  2  0  0  0  0  0  0  0  0  0
    8.2206  -15.5742   22.5610 N   0  0  0  0  0  0  0  0  0  0  0  0
   10.1695  -16.5415   23.5981 C   0  0  0  0  0  0  0  0  0  0  0  0
   10.1402  -17.7088   23.0677 O   0  0  0  0  0  0  0  0  0  0  0  0
   11.4640  -16.0835   23.9437 N   0  0  0  0  0  0  0  0  0  0  0  0
   12.6712  -16.8716   23.6474 C   0  0  1  0  0  0  0  0  0  0  0  0
   13.7469  -16.0037   23.1097 C   0  0  0  0  0  0  0  0  0  0  0  0
   15.0068  -16.7753   22.8457 C   0  0  0  0  0  0  0  0  0  0  0  0
   16.0683  -15.9143   22.2514 C   0  0  0  0  0  0  0  0  0  0  0  0
   15.7437  -14.9432   21.5431 O   0  0  0  0  0  0  0  0  0  0  0  0
   13.0701  -17.5420   24.8983 C   0  0  0  0  0  0  0  0  0  0  0  0
   13.7604  -18.5896   24.9561 O   0  0  0  0  0  0  0  0  0  0  0  0
   17.4045  -16.1828   22.4781 O   0  0  0  0  0  0  0  0  0  0  0  0
   12.6633  -16.9914   26.1153 O   0  0  0  0  0  0  0  0  0  0  0  0
  2  1  1  1
  3  2  1  0
  4  5  2  0
  4  2  1  0
  6  7  1  0
  7  9  1  0
  7  8  2  0
  9 10  1  0
 11 10  1  1
 11 13  1  0
 11 12  1  0
 12  4  1  0
 13 15  1  0
 14 13  2  0
 15 16  1  0
 16 21  1  0
 17 18  1  0
 16 17  1  1
 19 23  1  0
 19 18  1  0
 20 19  2  0
 21 22  2  0
 21 24  1  0
M  END
$$$$
