AQE.pdb
     RDKit          3D

 24 23  0  0  1  0  0  0  0  0999 V2000
    9.2385  -16.5738   18.4394 C   0  0  0  0  0  0  0  0  0  0  0  0
   10.2975  -17.4568   19.0778 C   0  0  2  0  0  0  0  0  0  0  0  0
    9.6363  -18.5301   19.7613 N   0  0  0  0  0  0  0  0  0  0  0  0
   11.0991  -16.6117   20.0470 C   0  0  0  0  0  0  0  0  0  0  0  0
   11.7950  -15.6572   19.6236 O   0  0  0  0  0  0  0  0  0  0  0  0
   10.3496  -17.0193   26.4713 N   0  0  0  0  0  0  0  0  0  0  0  0
   11.4294  -16.0979   26.3266 C   0  0  0  0  0  0  0  0  0  0  0  0
   11.8692  -15.5813   27.3707 O   0  0  0  0  0  0  0  0  0  0  0  0
   11.9589  -15.8135   24.9524 C   0  0  0  0  0  0  0  0  0  0  0  0
   11.2637  -16.5652   23.8731 C   0  0  0  0  0  0  0  0  0  0  0  0
   11.7820  -16.1985   22.4709 C   0  0  2  0  0  0  0  0  0  0  0  0
   11.0732  -16.8862   21.4257 N   0  0  0  0  0  0  0  0  0  0  0  0
   13.2239  -16.5392   22.4570 C   0  0  0  0  0  0  0  0  0  0  0  0
   13.6019  -17.7456   22.6726 O   0  0  0  0  0  0  0  0  0  0  0  0
   14.2787  -15.6249   22.2188 N   0  0  0  0  0  0  0  0  0  0  0  0
   15.6830  -16.0601   22.1513 C   0  0  1  0  0  0  0  0  0  0  0  0
   16.4488  -15.2194   21.1992 C   0  0  0  0  0  0  0  0  0  0  0  0
   15.9445  -15.3677   19.7935 C   0  0  0  0  0  0  0  0  0  0  0  0
   16.7754  -14.5992   18.8239 C   0  0  0  0  0  0  0  0  0  0  0  0
   16.7935  -13.3558   18.8837 O   0  0  0  0  0  0  0  0  0  0  0  0
   16.2266  -15.9874   23.5197 C   0  0  0  0  0  0  0  0  0  0  0  0
   15.6127  -15.5091   24.5054 O   0  0  0  0  0  0  0  0  0  0  0  0
   17.5232  -15.2514   17.8624 O   0  0  0  0  0  0  0  0  0  0  0  0
   17.5115  -16.4787   23.7595 O   0  0  0  0  0  0  0  0  0  0  0  0
  2  1  1  1
  3  2  1  0
  4  5  2  0
  4  2  1  0
  6  7  1  0
  7  9  1  0
  7  8  2  0
  9 10  1  0
 11 10  1  1
 11 13  1  0
 11 12  1  0
 12  4  1  0
 13 15  1  0
 14 13  2  0
 15 16  1  0
 16 21  1  0
 17 18  1  0
 16 17  1  6
 19 23  1  0
 19 18  1  0
 20 19  2  0
 21 22  2  0
 21 24  1  0
M  END
$$$$
