AQE.pdb
     RDKit          3D

 24 23  0  0  1  0  0  0  0  0999 V2000
    8.4175  -17.0778   15.0433 C   0  0  0  0  0  0  0  0  0  0  0  0
    8.2828  -15.5831   14.8059 C   0  0  2  0  0  0  0  0  0  0  0  0
    8.9471  -15.2612   13.5765 N   0  0  0  0  0  0  0  0  0  0  0  0
    8.9231  -14.8575   15.9720 C   0  0  0  0  0  0  0  0  0  0  0  0
   10.1616  -14.6560   15.9847 O   0  0  0  0  0  0  0  0  0  0  0  0
    7.1524  -14.8184   21.5509 N   0  0  0  0  0  0  0  0  0  0  0  0
    7.6562  -13.4887   21.6696 C   0  0  0  0  0  0  0  0  0  0  0  0
    7.8689  -13.0708   22.8231 O   0  0  0  0  0  0  0  0  0  0  0  0
    7.8946  -12.6910   20.4220 C   0  0  0  0  0  0  0  0  0  0  0  0
    7.4292  -13.3648   19.1800 C   0  0  0  0  0  0  0  0  0  0  0  0
    8.5900  -13.7346   18.2393 C   0  0  2  0  0  0  0  0  0  0  0  0
    8.1407  -14.4041   17.0486 N   0  0  0  0  0  0  0  0  0  0  0  0
    9.5066  -14.5932   19.0255 C   0  0  0  0  0  0  0  0  0  0  0  0
    9.3132  -15.8599   19.0798 O   0  0  0  0  0  0  0  0  0  0  0  0
   10.6285  -14.1364   19.7589 N   0  0  0  0  0  0  0  0  0  0  0  0
   11.6763  -15.0571   20.2287 C   0  0  1  0  0  0  0  0  0  0  0  0
   13.0214  -14.4589   20.0482 C   0  0  0  0  0  0  0  0  0  0  0  0
   14.1086  -15.3760   20.5269 C   0  0  0  0  0  0  0  0  0  0  0  0
   15.4598  -14.7739   20.3451 C   0  0  0  0  0  0  0  0  0  0  0  0
   15.5772  -13.7175   19.6968 O   0  0  0  0  0  0  0  0  0  0  0  0
   11.3868  -15.3596   21.6422 C   0  0  0  0  0  0  0  0  0  0  0  0
   11.7056  -16.4271   22.2219 O   0  0  0  0  0  0  0  0  0  0  0  0
   16.5795  -15.3751   20.8872 O   0  0  0  0  0  0  0  0  0  0  0  0
   10.7121  -14.4073   22.4089 O   0  0  0  0  0  0  0  0  0  0  0  0
  2  1  1  1
  3  2  1  0
  4  5  2  0
  4  2  1  0
  6  7  1  0
  7  9  1  0
  7  8  2  0
  9 10  1  0
 11 10  1  1
 11 13  1  0
 11 12  1  0
 12  4  1  0
 13 15  1  0
 14 13  2  0
 15 16  1  0
 16 21  1  0
 17 18  1  0
 16 17  1  1
 19 23  1  0
 19 18  1  0
 20 19  2  0
 21 22  2  0
 21 24  1  0
M  END
$$$$
