AQE.pdb
     RDKit          3D

 24 23  0  0  1  0  0  0  0  0999 V2000
    4.0667  -19.9210   22.1565 C   0  0  0  0  0  0  0  0  0  0  0  0
    4.2667  -19.1792   20.8455 C   0  0  2  0  0  0  0  0  0  0  0  0
    4.0479  -20.1010   19.7691 N   0  0  0  0  0  0  0  0  0  0  0  0
    5.6827  -18.6406   20.8160 C   0  0  0  0  0  0  0  0  0  0  0  0
    6.6575  -19.4283   20.8796 O   0  0  0  0  0  0  0  0  0  0  0  0
    6.9221  -12.4518   19.3995 N   0  0  0  0  0  0  0  0  0  0  0  0
    8.2190  -13.0408   19.4832 C   0  0  0  0  0  0  0  0  0  0  0  0
    9.1773  -12.3429   19.1024 O   0  0  0  0  0  0  0  0  0  0  0  0
    8.3466  -14.4375   20.0148 C   0  0  0  0  0  0  0  0  0  0  0  0
    7.0424  -15.0896   20.3099 C   0  0  0  0  0  0  0  0  0  0  0  0
    7.1896  -16.5907   20.6169 C   0  0  2  0  0  0  0  0  0  0  0  0
    5.9200  -17.2582   20.7181 N   0  0  0  0  0  0  0  0  0  0  0  0
    7.9491  -16.6843   21.8857 C   0  0  0  0  0  0  0  0  0  0  0  0
    7.3947  -16.3510   22.9931 O   0  0  0  0  0  0  0  0  0  0  0  0
    9.2892  -17.1252   22.0069 N   0  0  0  0  0  0  0  0  0  0  0  0
    9.9680  -17.1975   23.3108 C   0  0  1  0  0  0  0  0  0  0  0  0
   10.5876  -18.5304   23.5078 C   0  0  0  0  0  0  0  0  0  0  0  0
   11.3406  -18.6097   24.8036 C   0  0  0  0  0  0  0  0  0  0  0  0
   11.9604  -19.9505   25.0019 C   0  0  0  0  0  0  0  0  0  0  0  0
   11.8690  -20.5093   26.1107 O   0  0  0  0  0  0  0  0  0  0  0  0
   10.9635  -16.1107   23.3430 C   0  0  0  0  0  0  0  0  0  0  0  0
   11.4109  -15.5242   22.3266 O   0  0  0  0  0  0  0  0  0  0  0  0
   12.6332  -20.5770   23.9706 O   0  0  0  0  0  0  0  0  0  0  0  0
   11.4571  -15.6877   24.5789 O   0  0  0  0  0  0  0  0  0  0  0  0
  2  1  1  1
  3  2  1  0
  4  5  2  0
  4  2  1  0
  6  7  1  0
  7  9  1  0
  7  8  2  0
  9 10  1  0
 11 10  1  1
 11 13  1  0
 11 12  1  0
 12  4  1  0
 13 15  1  0
 14 13  2  0
 15 16  1  0
 16 21  1  0
 17 18  1  0
 16 17  1  6
 19 23  1  0
 19 18  1  0
 20 19  2  0
 21 22  2  0
 21 24  1  0
M  END
$$$$
