PTC.pdb
     RDKit          3D

 21 21  0  0  1  0  0  0  0  0999 V2000
    8.8615  -15.1412   18.6783 N   0  0  0  0  0  0  0  0  0  0  0  0
    8.9950  -14.8103   17.2652 C   0  0  0  0  0  0  0  0  0  0  0  0
    8.0802  -13.6130   17.1451 C   0  0  0  0  0  0  0  0  0  0  0  0
    8.1422  -12.9658   18.5166 C   0  0  0  0  0  0  0  0  0  0  0  0
    9.0725  -13.8627   19.2876 C   0  0  1  0  0  0  0  0  0  0  0  0
    8.7522  -13.8512   20.7366 C   0  0  0  0  0  0  0  0  0  0  0  0
    8.8146  -12.7738   21.3675 O   0  0  0  0  0  0  0  0  0  0  0  0
    5.7761  -15.9711   21.9525 C   0  0  0  0  0  0  0  0  0  0  0  0
    6.9342  -16.2285   22.9268 C   0  0  1  0  0  0  0  0  0  0  0  0
    7.4086  -17.4924   22.6702 O   0  0  0  0  0  0  0  0  0  0  0  0
    7.9499  -15.1254   22.7874 C   0  0  2  0  0  0  0  0  0  0  0  0
    8.3774  -15.0248   21.4284 N   0  0  0  0  0  0  0  0  0  0  0  0
    9.0428  -15.1993   23.7839 C   0  0  0  0  0  0  0  0  0  0  0  0
   10.1155  -15.7839   23.4667 O   0  0  0  0  0  0  0  0  0  0  0  0
    8.9574  -14.6566   25.0708 N   0  0  0  0  0  0  0  0  0  0  0  0
   10.0083  -14.7207   26.0624 C   0  0  1  0  0  0  0  0  0  0  0  0
   10.0133  -13.5591   27.0029 C   0  0  0  0  0  0  0  0  0  0  0  0
    8.2972  -13.2624   27.5256 S   0  0  0  0  0  0  0  0  0  0  0  0
    9.9563  -16.0243   26.7941 C   0  0  0  0  0  0  0  0  0  0  0  0
   10.9790  -16.4362   27.6312 O   0  0  0  0  0  0  0  0  0  0  0  0
    8.9640  -16.7537   26.6418 O   0  0  0  0  0  0  0  0  0  0  0  0
  1  5  1  0
  2  3  1  0
  2  1  1  0
  3  4  1  0
  4  5  1  0
  5  6  1  1
  6  7  2  0
  9  8  1  6
  9 11  1  0
 10  9  1  0
 11 12  1  6
 11 13  1  0
 12  6  1  0
 13 14  2  0
 13 15  1  0
 15 16  1  0
 16 19  1  0
 16 17  1  1
 18 17  1  0
 19 21  2  0
 19 20  1  0
M  END
$$$$
