PTC.pdb
     RDKit          3D

 21 21  0  0  1  0  0  0  0  0999 V2000
    8.7072  -15.1053   19.1314 N   0  0  0  0  0  0  0  0  0  0  0  0
    8.9120  -14.6591   17.7591 C   0  0  0  0  0  0  0  0  0  0  0  0
    7.8370  -13.6059   17.6178 C   0  0  0  0  0  0  0  0  0  0  0  0
    7.6766  -13.0554   19.0231 C   0  0  0  0  0  0  0  0  0  0  0  0
    8.6629  -13.8560   19.8297 C   0  0  1  0  0  0  0  0  0  0  0  0
    8.2181  -13.9949   21.2386 C   0  0  0  0  0  0  0  0  0  0  0  0
    8.0658  -12.9681   21.9353 O   0  0  0  0  0  0  0  0  0  0  0  0
    6.2614  -17.4510   22.1290 C   0  0  0  0  0  0  0  0  0  0  0  0
    7.1579  -16.9852   23.2846 C   0  0  1  0  0  0  0  0  0  0  0  0
    8.2677  -17.7956   23.2910 O   0  0  0  0  0  0  0  0  0  0  0  0
    7.4426  -15.5149   23.1257 C   0  0  2  0  0  0  0  0  0  0  0  0
    7.9603  -15.2567   21.8199 N   0  0  0  0  0  0  0  0  0  0  0  0
    8.2355  -14.9432   24.2382 C   0  0  0  0  0  0  0  0  0  0  0  0
    9.4889  -14.8633   24.1124 O   0  0  0  0  0  0  0  0  0  0  0  0
    7.6742  -14.4829   25.4344 N   0  0  0  0  0  0  0  0  0  0  0  0
    8.4125  -13.8270   26.4912 C   0  0  1  0  0  0  0  0  0  0  0  0
    7.8064  -12.5329   26.9286 C   0  0  0  0  0  0  0  0  0  0  0  0
    6.0031  -12.7583   26.9889 S   0  0  0  0  0  0  0  0  0  0  0  0
    8.6149  -14.7601   27.6428 C   0  0  0  0  0  0  0  0  0  0  0  0
    9.4163  -14.4294   28.7219 O   0  0  0  0  0  0  0  0  0  0  0  0
    8.0443  -15.8619   27.6239 O   0  0  0  0  0  0  0  0  0  0  0  0
  1  5  1  0
  2  3  1  0
  2  1  1  0
  3  4  1  0
  4  5  1  0
  5  6  1  1
  6  7  2  0
  9  8  1  6
  9 11  1  0
 10  9  1  0
 11 12  1  6
 11 13  1  0
 12  6  1  0
 13 14  2  0
 13 15  1  0
 15 16  1  0
 16 19  1  0
 16 17  1  1
 18 17  1  0
 19 21  2  0
 19 20  1  0
M  END
$$$$
