PTC.pdb
     RDKit          3D

 21 21  0  0  1  0  0  0  0  0999 V2000
    9.0735  -14.3161   17.8677 N   0  0  0  0  0  0  0  0  0  0  0  0
    8.7550  -13.3297   16.8432 C   0  0  0  0  0  0  0  0  0  0  0  0
    7.2857  -13.0859   17.1016 C   0  0  0  0  0  0  0  0  0  0  0  0
    7.1312  -13.3269   18.5921 C   0  0  0  0  0  0  0  0  0  0  0  0
    8.5207  -13.6978   19.0350 C   0  0  1  0  0  0  0  0  0  0  0  0
    8.4867  -14.6037   20.2098 C   0  0  0  0  0  0  0  0  0  0  0  0
    7.8422  -14.2631   21.2255 O   0  0  0  0  0  0  0  0  0  0  0  0
    8.2075  -18.4654   19.8218 C   0  0  0  0  0  0  0  0  0  0  0  0
    9.3833  -18.1742   20.7647 C   0  0  1  0  0  0  0  0  0  0  0  0
   10.5386  -18.4236   20.0637 O   0  0  0  0  0  0  0  0  0  0  0  0
    9.2512  -16.7723   21.2987 C   0  0  2  0  0  0  0  0  0  0  0  0
    9.1627  -15.8444   20.2166 N   0  0  0  0  0  0  0  0  0  0  0  0
   10.2582  -16.4362   22.3312 C   0  0  0  0  0  0  0  0  0  0  0  0
   11.2938  -15.8024   21.9861 O   0  0  0  0  0  0  0  0  0  0  0  0
   10.1316  -16.7837   23.6806 N   0  0  0  0  0  0  0  0  0  0  0  0
   11.1315  -16.5277   24.6938 C   0  0  1  0  0  0  0  0  0  0  0  0
   10.7158  -15.5008   25.6970 C   0  0  0  0  0  0  0  0  0  0  0  0
    9.0689  -15.9637   26.3133 S   0  0  0  0  0  0  0  0  0  0  0  0
   11.5476  -17.8056   25.3507 C   0  0  0  0  0  0  0  0  0  0  0  0
   12.6341  -17.8701   26.2060 O   0  0  0  0  0  0  0  0  0  0  0  0
   10.8951  -18.8351   25.1176 O   0  0  0  0  0  0  0  0  0  0  0  0
  1  5  1  0
  2  3  1  0
  2  1  1  0
  3  4  1  0
  4  5  1  0
  5  6  1  1
  6  7  2  0
  9  8  1  6
  9 11  1  0
 10  9  1  0
 11 12  1  6
 11 13  1  0
 12  6  1  0
 13 14  2  0
 13 15  1  0
 15 16  1  0
 16 19  1  0
 16 17  1  1
 18 17  1  0
 19 21  2  0
 19 20  1  0
M  END
$$$$
