PTC.pdb
     RDKit          3D

 21 21  0  0  1  0  0  0  0  0999 V2000
    8.2100  -14.9979   19.3080 N   0  0  0  0  0  0  0  0  0  0  0  0
    8.4842  -14.1216   18.1761 C   0  0  0  0  0  0  0  0  0  0  0  0
    7.7220  -12.8753   18.5644 C   0  0  0  0  0  0  0  0  0  0  0  0
    7.7550  -12.8837   20.0818 C   0  0  0  0  0  0  0  0  0  0  0  0
    8.5184  -14.1381   20.4106 C   0  0  1  0  0  0  0  0  0  0  0  0
    8.0951  -14.6978   21.7182 C   0  0  0  0  0  0  0  0  0  0  0  0
    6.9101  -14.5540   22.0895 O   0  0  0  0  0  0  0  0  0  0  0  0
    8.0014  -18.0160   22.8288 C   0  0  0  0  0  0  0  0  0  0  0  0
    8.9081  -17.3873   23.8961 C   0  0  1  0  0  0  0  0  0  0  0  0
   10.1872  -17.8277   23.6543 O   0  0  0  0  0  0  0  0  0  0  0  0
    8.7332  -15.8917   23.8723 C   0  0  2  0  0  0  0  0  0  0  0  0
    8.9933  -15.3909   22.5603 N   0  0  0  0  0  0  0  0  0  0  0  0
    9.4538  -15.1954   24.9627 C   0  0  0  0  0  0  0  0  0  0  0  0
   10.5784  -14.6787   24.7146 O   0  0  0  0  0  0  0  0  0  0  0  0
    8.9598  -15.0755   26.2663 N   0  0  0  0  0  0  0  0  0  0  0  0
    9.6217  -14.3598   27.3348 C   0  0  1  0  0  0  0  0  0  0  0  0
    8.7363  -13.3807   28.0356 C   0  0  0  0  0  0  0  0  0  0  0  0
    7.9020  -12.3812   26.7663 S   0  0  0  0  0  0  0  0  0  0  0  0
   10.2523  -15.3197   28.2932 C   0  0  0  0  0  0  0  0  0  0  0  0
   11.0467  -14.8918   29.3430 O   0  0  0  0  0  0  0  0  0  0  0  0
   10.0533  -16.5346   28.1370 O   0  0  0  0  0  0  0  0  0  0  0  0
  1  5  1  0
  2  3  1  0
  2  1  1  0
  3  4  1  0
  4  5  1  0
  5  6  1  1
  6  7  2  0
  9  8  1  6
  9 11  1  0
 10  9  1  0
 11 12  1  6
 11 13  1  0
 12  6  1  0
 13 14  2  0
 13 15  1  0
 15 16  1  0
 16 19  1  0
 16 17  1  1
 18 17  1  0
 19 21  2  0
 19 20  1  0
M  END
$$$$
