PTC.pdb
     RDKit          3D

 21 21  0  0  1  0  0  0  0  0999 V2000
    8.4615  -15.1210   19.2493 N   0  0  0  0  0  0  0  0  0  0  0  0
    8.6120  -14.6080   17.8935 C   0  0  0  0  0  0  0  0  0  0  0  0
    7.5955  -13.4894   17.8768 C   0  0  0  0  0  0  0  0  0  0  0  0
    7.5510  -13.0135   19.3174 C   0  0  0  0  0  0  0  0  0  0  0  0
    8.5331  -13.9141   20.0164 C   0  0  1  0  0  0  0  0  0  0  0  0
    8.1641  -14.1095   21.4404 C   0  0  0  0  0  0  0  0  0  0  0  0
    8.1850  -13.1300   22.2169 O   0  0  0  0  0  0  0  0  0  0  0  0
    8.5274  -17.8525   23.2317 C   0  0  0  0  0  0  0  0  0  0  0  0
    7.1715  -17.1611   23.4316 C   0  0  1  0  0  0  0  0  0  0  0  0
    6.6858  -17.5630   24.6527 O   0  0  0  0  0  0  0  0  0  0  0  0
    7.3485  -15.6740   23.2735 C   0  0  2  0  0  0  0  0  0  0  0  0
    7.7881  -15.3733   21.9483 N   0  0  0  0  0  0  0  0  0  0  0  0
    8.1502  -15.0564   24.3546 C   0  0  0  0  0  0  0  0  0  0  0  0
    9.4093  -15.0872   24.2706 O   0  0  0  0  0  0  0  0  0  0  0  0
    7.5914  -14.4356   25.4771 N   0  0  0  0  0  0  0  0  0  0  0  0
    8.3398  -13.6821   26.4590 C   0  0  1  0  0  0  0  0  0  0  0  0
    7.8335  -12.2898   26.6559 C   0  0  0  0  0  0  0  0  0  0  0  0
    6.0164  -12.3572   26.6642 S   0  0  0  0  0  0  0  0  0  0  0  0
    8.4091  -14.4331   27.7508 C   0  0  0  0  0  0  0  0  0  0  0  0
    7.7572  -15.6407   27.9325 O   0  0  0  0  0  0  0  0  0  0  0  0
    9.0726  -13.9538   28.6836 O   0  0  0  0  0  0  0  0  0  0  0  0
  1  5  1  0
  2  3  1  0
  2  1  1  0
  3  4  1  0
  4  5  1  0
  5  6  1  1
  6  7  2  0
  9  8  1  1
  9 11  1  0
 10  9  1  0
 11 12  1  6
 11 13  1  0
 12  6  1  0
 13 14  2  0
 13 15  1  0
 15 16  1  0
 16 19  1  0
 16 17  1  1
 18 17  1  0
 19 21  2  0
 19 20  1  0
M  END
$$$$
