PTC.pdb
     RDKit          3D

 21 21  0  0  1  0  0  0  0  0999 V2000
    7.9847  -14.8801   19.3714 N   0  0  0  0  0  0  0  0  0  0  0  0
    7.9843  -13.7951   18.3982 C   0  0  0  0  0  0  0  0  0  0  0  0
    7.5006  -12.6342   19.2368 C   0  0  0  0  0  0  0  0  0  0  0  0
    7.9935  -12.9617   20.6345 C   0  0  0  0  0  0  0  0  0  0  0  0
    8.6960  -14.2810   20.4602 C   0  0  1  0  0  0  0  0  0  0  0  0
    8.6393  -15.0886   21.7039 C   0  0  0  0  0  0  0  0  0  0  0  0
    7.5768  -15.1239   22.3616 O   0  0  0  0  0  0  0  0  0  0  0  0
   10.3863  -18.7585   24.3724 C   0  0  0  0  0  0  0  0  0  0  0  0
   10.6268  -17.8196   23.1820 C   0  0  1  0  0  0  0  0  0  0  0  0
   10.2941  -18.5129   22.0431 O   0  0  0  0  0  0  0  0  0  0  0  0
    9.8588  -16.5425   23.3987 C   0  0  2  0  0  0  0  0  0  0  0  0
    9.7534  -15.8222   22.1699 N   0  0  0  0  0  0  0  0  0  0  0  0
   10.3454  -15.7487   24.5502 C   0  0  0  0  0  0  0  0  0  0  0  0
   10.8125  -14.5952   24.3389 O   0  0  0  0  0  0  0  0  0  0  0  0
   10.3208  -16.2048   25.8728 N   0  0  0  0  0  0  0  0  0  0  0  0
   10.3175  -15.3488   27.0387 C   0  0  1  0  0  0  0  0  0  0  0  0
    9.2455  -14.3078   27.0121 C   0  0  0  0  0  0  0  0  0  0  0  0
    9.3863  -13.3287   28.5378 S   0  0  0  0  0  0  0  0  0  0  0  0
   10.2604  -16.1695   28.2880 C   0  0  0  0  0  0  0  0  0  0  0  0
   10.9849  -15.8342   29.4189 O   0  0  0  0  0  0  0  0  0  0  0  0
    9.5400  -17.1798   28.3046 O   0  0  0  0  0  0  0  0  0  0  0  0
  1  5  1  0
  2  3  1  0
  2  1  1  0
  3  4  1  0
  4  5  1  0
  5  6  1  1
  6  7  2  0
  9  8  1  1
  9 11  1  0
 10  9  1  0
 11 12  1  6
 11 13  1  0
 12  6  1  0
 13 14  2  0
 13 15  1  0
 15 16  1  0
 16 19  1  0
 16 17  1  6
 18 17  1  0
 19 21  2  0
 19 20  1  0
M  END
$$$$
