PTC.pdb
     RDKit          3D

 21 21  0  0  1  0  0  0  0  0999 V2000
    8.7653  -14.7464   19.5221 N   0  0  0  0  0  0  0  0  0  0  0  0
    8.7686  -14.1062   18.2128 C   0  0  0  0  0  0  0  0  0  0  0  0
    7.6233  -13.1292   18.3489 C   0  0  0  0  0  0  0  0  0  0  0  0
    7.6087  -12.7856   19.8272 C   0  0  0  0  0  0  0  0  0  0  0  0
    8.7348  -13.6090   20.3913 C   0  0  1  0  0  0  0  0  0  0  0  0
    8.4802  -13.9689   21.8083 C   0  0  0  0  0  0  0  0  0  0  0  0
    8.3132  -13.0590   22.6492 O   0  0  0  0  0  0  0  0  0  0  0  0
    6.2624  -17.0123   22.5214 C   0  0  0  0  0  0  0  0  0  0  0  0
    7.4446  -17.1151   23.4951 C   0  0  1  0  0  0  0  0  0  0  0  0
    8.2250  -18.1665   23.0781 O   0  0  0  0  0  0  0  0  0  0  0  0
    8.1476  -15.7848   23.5590 C   0  0  2  0  0  0  0  0  0  0  0  0
    8.4203  -15.3134   22.2387 N   0  0  0  0  0  0  0  0  0  0  0  0
    9.3071  -15.7731   24.4801 C   0  0  0  0  0  0  0  0  0  0  0  0
   10.4118  -15.3296   24.0604 O   0  0  0  0  0  0  0  0  0  0  0  0
    9.2530  -16.2305   25.8013 N   0  0  0  0  0  0  0  0  0  0  0  0
    9.9157  -15.5964   26.9196 C   0  0  1  0  0  0  0  0  0  0  0  0
    9.3085  -14.2876   27.3096 C   0  0  0  0  0  0  0  0  0  0  0  0
   10.3111  -13.5917   28.6575 S   0  0  0  0  0  0  0  0  0  0  0  0
    9.9953  -16.5368   28.0803 C   0  0  0  0  0  0  0  0  0  0  0  0
   11.0693  -16.5340   28.9536 O   0  0  0  0  0  0  0  0  0  0  0  0
    9.0673  -17.3409   28.2600 O   0  0  0  0  0  0  0  0  0  0  0  0
  1  5  1  0
  2  3  1  0
  2  1  1  0
  3  4  1  0
  4  5  1  0
  5  6  1  1
  6  7  2  0
  9  8  1  6
  9 11  1  0
 10  9  1  0
 11 12  1  6
 11 13  1  0
 12  6  1  0
 13 14  2  0
 13 15  1  0
 15 16  1  0
 16 19  1  0
 16 17  1  1
 18 17  1  0
 19 21  2  0
 19 20  1  0
M  END
$$$$
