PTC.pdb
     RDKit          3D

 21 21  0  0  1  0  0  0  0  0999 V2000
    9.2441  -14.3678   19.8379 N   0  0  0  0  0  0  0  0  0  0  0  0
    9.0596  -13.6468   18.5848 C   0  0  0  0  0  0  0  0  0  0  0  0
    7.5572  -13.4853   18.5448 C   0  0  0  0  0  0  0  0  0  0  0  0
    7.1563  -13.4254   20.0075 C   0  0  0  0  0  0  0  0  0  0  0  0
    8.4639  -13.5726   20.7375 C   0  0  1  0  0  0  0  0  0  0  0  0
    8.2713  -14.2152   22.0612 C   0  0  0  0  0  0  0  0  0  0  0  0
    7.3622  -13.8030   22.8139 O   0  0  0  0  0  0  0  0  0  0  0  0
    8.6248  -18.0244   22.3435 C   0  0  0  0  0  0  0  0  0  0  0  0
    9.4027  -17.4324   23.5270 C   0  0  1  0  0  0  0  0  0  0  0  0
   10.7399  -17.6124   23.2660 O   0  0  0  0  0  0  0  0  0  0  0  0
    8.9792  -16.0014   23.7289 C   0  0  2  0  0  0  0  0  0  0  0  0
    9.0865  -15.2829   22.4993 N   0  0  0  0  0  0  0  0  0  0  0  0
    9.6261  -15.3524   24.8921 C   0  0  0  0  0  0  0  0  0  0  0  0
   10.3790  -14.3591   24.6925 O   0  0  0  0  0  0  0  0  0  0  0  0
    9.4538  -15.7788   26.2136 N   0  0  0  0  0  0  0  0  0  0  0  0
    9.9780  -15.0937   27.3746 C   0  0  1  0  0  0  0  0  0  0  0  0
    9.0834  -14.0096   27.8826 C   0  0  0  0  0  0  0  0  0  0  0  0
    9.0593  -12.6832   26.6390 S   0  0  0  0  0  0  0  0  0  0  0  0
   10.3214  -16.0761   28.4491 C   0  0  0  0  0  0  0  0  0  0  0  0
   10.9519  -15.6913   29.6198 O   0  0  0  0  0  0  0  0  0  0  0  0
   10.0295  -17.2703   28.2797 O   0  0  0  0  0  0  0  0  0  0  0  0
  1  5  1  0
  2  3  1  0
  2  1  1  0
  3  4  1  0
  4  5  1  0
  5  6  1  1
  6  7  2  0
  9  8  1  6
  9 11  1  0
 10  9  1  0
 11 12  1  6
 11 13  1  0
 12  6  1  0
 13 14  2  0
 13 15  1  0
 15 16  1  0
 16 19  1  0
 16 17  1  1
 18 17  1  0
 19 21  2  0
 19 20  1  0
M  END
$$$$
