PTC.pdb
     RDKit          3D

 21 21  0  0  1  0  0  0  0  0999 V2000
    8.7652  -14.8668   19.6955 N   0  0  0  0  0  0  0  0  0  0  0  0
    8.8323  -14.2461   18.3785 C   0  0  0  0  0  0  0  0  0  0  0  0
    7.6017  -13.3685   18.3926 C   0  0  0  0  0  0  0  0  0  0  0  0
    7.4258  -13.0079   19.8564 C   0  0  0  0  0  0  0  0  0  0  0  0
    8.5617  -13.7247   20.5348 C   0  0  1  0  0  0  0  0  0  0  0  0
    8.2120  -14.0862   21.9309 C   0  0  0  0  0  0  0  0  0  0  0  0
    7.9049  -13.1818   22.7375 O   0  0  0  0  0  0  0  0  0  0  0  0
    6.3338  -17.4864   22.6204 C   0  0  0  0  0  0  0  0  0  0  0  0
    7.4796  -17.3410   23.6317 C   0  0  1  0  0  0  0  0  0  0  0  0
    8.4653  -18.2231   23.2594 O   0  0  0  0  0  0  0  0  0  0  0  0
    7.9044  -15.8975   23.6909 C   0  0  2  0  0  0  0  0  0  0  0  0
    8.2152  -15.4262   22.3790 N   0  0  0  0  0  0  0  0  0  0  0  0
    8.9397  -15.6280   24.7148 C   0  0  0  0  0  0  0  0  0  0  0  0
   10.1403  -15.5013   24.3461 O   0  0  0  0  0  0  0  0  0  0  0  0
    8.6660  -15.5059   26.0816 N   0  0  0  0  0  0  0  0  0  0  0  0
    9.6353  -15.1219   27.0841 C   0  0  1  0  0  0  0  0  0  0  0  0
    9.2118  -13.9470   27.9049 C   0  0  0  0  0  0  0  0  0  0  0  0
   10.5593  -13.5672   29.0651 S   0  0  0  0  0  0  0  0  0  0  0  0
    9.9924  -16.2950   27.9408 C   0  0  0  0  0  0  0  0  0  0  0  0
   11.2177  -16.3916   28.5776 O   0  0  0  0  0  0  0  0  0  0  0  0
    9.1608  -17.2054   28.0807 O   0  0  0  0  0  0  0  0  0  0  0  0
  1  5  1  0
  2  3  1  0
  2  1  1  0
  3  4  1  0
  4  5  1  0
  5  6  1  1
  6  7  2  0
  9  8  1  6
  9 11  1  0
 10  9  1  0
 11 12  1  6
 11 13  1  0
 12  6  1  0
 13 14  2  0
 13 15  1  0
 15 16  1  0
 16 19  1  0
 16 17  1  1
 18 17  1  0
 19 21  2  0
 19 20  1  0
M  END
$$$$
