PTC.pdb
     RDKit          3D

 21 21  0  0  1  0  0  0  0  0999 V2000
    9.1528  -14.7366   19.6826 N   0  0  0  0  0  0  0  0  0  0  0  0
    9.1520  -14.0947   18.3741 C   0  0  0  0  0  0  0  0  0  0  0  0
    7.7475  -13.5398   18.3081 C   0  0  0  0  0  0  0  0  0  0  0  0
    7.3965  -13.2582   19.7577 C   0  0  0  0  0  0  0  0  0  0  0  0
    8.6263  -13.6922   20.5086 C   0  0  1  0  0  0  0  0  0  0  0  0
    8.2858  -14.1520   21.8778 C   0  0  0  0  0  0  0  0  0  0  0  0
    7.6248  -13.4012   22.6277 O   0  0  0  0  0  0  0  0  0  0  0  0
    7.4687  -17.9534   22.6639 C   0  0  0  0  0  0  0  0  0  0  0  0
    8.5319  -17.4430   23.6466 C   0  0  1  0  0  0  0  0  0  0  0  0
    9.7348  -17.9854   23.2626 O   0  0  0  0  0  0  0  0  0  0  0  0
    8.4919  -15.9379   23.6781 C   0  0  2  0  0  0  0  0  0  0  0  0
    8.6869  -15.4171   22.3626 N   0  0  0  0  0  0  0  0  0  0  0  0
    9.3601  -15.3457   24.7213 C   0  0  0  0  0  0  0  0  0  0  0  0
   10.5356  -15.0053   24.4120 O   0  0  0  0  0  0  0  0  0  0  0  0
    8.9535  -15.1398   26.0442 N   0  0  0  0  0  0  0  0  0  0  0  0
    9.8065  -14.6376   27.0988 C   0  0  1  0  0  0  0  0  0  0  0  0
    9.2069  -13.5006   27.8612 C   0  0  0  0  0  0  0  0  0  0  0  0
    8.6019  -12.2825   26.6544 S   0  0  0  0  0  0  0  0  0  0  0  0
   10.2257  -15.7512   28.0054 C   0  0  0  0  0  0  0  0  0  0  0  0
   11.1013  -15.5490   29.0582 O   0  0  0  0  0  0  0  0  0  0  0  0
    9.7711  -16.8879   27.8020 O   0  0  0  0  0  0  0  0  0  0  0  0
  1  5  1  0
  2  3  1  0
  2  1  1  0
  3  4  1  0
  4  5  1  0
  5  6  1  1
  6  7  2  0
  9  8  1  6
  9 11  1  0
 10  9  1  0
 11 12  1  6
 11 13  1  0
 12  6  1  0
 13 14  2  0
 13 15  1  0
 15 16  1  0
 16 19  1  0
 16 17  1  1
 18 17  1  0
 19 21  2  0
 19 20  1  0
M  END
$$$$
