PTC.pdb
     RDKit          3D

 21 21  0  0  1  0  0  0  0  0999 V2000
    8.6638  -14.8979   19.7491 N   0  0  0  0  0  0  0  0  0  0  0  0
    8.6118  -14.2997   18.4211 C   0  0  0  0  0  0  0  0  0  0  0  0
    7.4053  -13.3970   18.5409 C   0  0  0  0  0  0  0  0  0  0  0  0
    7.3820  -13.0096   20.0082 C   0  0  0  0  0  0  0  0  0  0  0  0
    8.5659  -13.7387   20.5839 C   0  0  1  0  0  0  0  0  0  0  0  0
    8.3494  -14.0707   22.0139 C   0  0  0  0  0  0  0  0  0  0  0  0
    8.1051  -13.1508   22.8245 O   0  0  0  0  0  0  0  0  0  0  0  0
    6.5515  -17.4293   22.9345 C   0  0  0  0  0  0  0  0  0  0  0  0
    7.7772  -17.2799   23.8464 C   0  0  1  0  0  0  0  0  0  0  0  0
    8.7161  -18.1873   23.4183 O   0  0  0  0  0  0  0  0  0  0  0  0
    8.2274  -15.8428   23.8354 C   0  0  2  0  0  0  0  0  0  0  0  0
    8.4110  -15.3995   22.4901 N   0  0  0  0  0  0  0  0  0  0  0  0
    9.3648  -15.5731   24.7445 C   0  0  0  0  0  0  0  0  0  0  0  0
   10.4951  -15.3178   24.2440 O   0  0  0  0  0  0  0  0  0  0  0  0
    9.2627  -15.5862   26.1399 N   0  0  0  0  0  0  0  0  0  0  0  0
   10.3513  -15.2981   27.0476 C   0  0  1  0  0  0  0  0  0  0  0  0
   10.3509  -13.8916   27.5530 C   0  0  0  0  0  0  0  0  0  0  0  0
    8.6292  -13.4347   27.9177 S   0  0  0  0  0  0  0  0  0  0  0  0
   10.3718  -16.2884   28.1685 C   0  0  0  0  0  0  0  0  0  0  0  0
   11.3454  -16.2618   29.1522 O   0  0  0  0  0  0  0  0  0  0  0  0
    9.4868  -17.1572   28.2120 O   0  0  0  0  0  0  0  0  0  0  0  0
  1  5  1  0
  2  3  1  0
  2  1  1  0
  3  4  1  0
  4  5  1  0
  5  6  1  1
  6  7  2  0
  9  8  1  6
  9 11  1  0
 10  9  1  0
 11 12  1  6
 11 13  1  0
 12  6  1  0
 13 14  2  0
 13 15  1  0
 15 16  1  0
 16 19  1  0
 16 17  1  1
 18 17  1  0
 19 21  2  0
 19 20  1  0
M  END
$$$$
