PTC.pdb
     RDKit          3D

 21 21  0  0  1  0  0  0  0  0999 V2000
    8.8235  -14.9243   19.2289 N   0  0  0  0  0  0  0  0  0  0  0  0
    8.9506  -14.4157   17.8690 C   0  0  0  0  0  0  0  0  0  0  0  0
    7.7183  -13.5481   17.7521 C   0  0  0  0  0  0  0  0  0  0  0  0
    7.4730  -13.0673   19.1706 C   0  0  0  0  0  0  0  0  0  0  0  0
    8.5779  -13.7172   19.9589 C   0  0  1  0  0  0  0  0  0  0  0  0
    8.1641  -13.9628   21.3627 C   0  0  0  0  0  0  0  0  0  0  0  0
    7.7681  -13.0034   22.0596 O   0  0  0  0  0  0  0  0  0  0  0  0
    7.1330  -17.7975   22.2442 C   0  0  0  0  0  0  0  0  0  0  0  0
    7.8618  -17.1196   23.4129 C   0  0  1  0  0  0  0  0  0  0  0  0
    9.1384  -17.6272   23.4458 O   0  0  0  0  0  0  0  0  0  0  0  0
    7.7734  -15.6253   23.2485 C   0  0  2  0  0  0  0  0  0  0  0  0
    8.2039  -15.2523   21.9388 N   0  0  0  0  0  0  0  0  0  0  0  0
    8.4067  -14.8710   24.3544 C   0  0  0  0  0  0  0  0  0  0  0  0
    9.5988  -14.4792   24.2180 O   0  0  0  0  0  0  0  0  0  0  0  0
    7.7580  -14.5643   25.5556 N   0  0  0  0  0  0  0  0  0  0  0  0
    8.3258  -13.7610   26.6159 C   0  0  1  0  0  0  0  0  0  0  0  0
    7.5833  -12.4877   26.8633 C   0  0  0  0  0  0  0  0  0  0  0  0
    5.8065  -12.8738   26.8638 S   0  0  0  0  0  0  0  0  0  0  0  0
    8.4663  -14.5708   27.8658 C   0  0  0  0  0  0  0  0  0  0  0  0
    8.0430  -15.8868   27.9379 O   0  0  0  0  0  0  0  0  0  0  0  0
    8.9784  -14.0411   28.8643 O   0  0  0  0  0  0  0  0  0  0  0  0
  1  5  1  0
  2  3  1  0
  2  1  1  0
  3  4  1  0
  4  5  1  0
  5  6  1  1
  6  7  2  0
  9  8  1  6
  9 11  1  0
 10  9  1  0
 11 12  1  6
 11 13  1  0
 12  6  1  0
 13 14  2  0
 13 15  1  0
 15 16  1  0
 16 19  1  0
 16 17  1  1
 18 17  1  0
 19 21  2  0
 19 20  1  0
M  END
$$$$
