GTW.pdb
     RDKit          3D

 26 27  0  0  1  0  0  0  0  0999 V2000
   29.7986  -22.3732  -18.8415 N   0  0  0  0  0  0  0  0  0  0  0  0
   28.5221  -22.0787  -18.2254 C   0  0  0  0  0  0  0  0  0  0  0  0
   28.7501  -21.5112  -16.8641 C   0  0  0  0  0  0  0  0  0  0  0  0
   29.9045  -21.5008  -16.3522 O   0  0  0  0  0  0  0  0  0  0  0  0
   28.5695  -18.2088  -15.8827 C   0  0  0  0  0  0  0  0  0  0  0  0
   27.4620  -18.8744  -15.1086 C   0  0  1  0  0  0  0  0  0  0  0  0
   26.2092  -18.6820  -15.6575 O   0  0  0  0  0  0  0  0  0  0  0  0
   27.8005  -20.3462  -14.9020 C   0  0  2  0  0  0  0  0  0  0  0  0
   27.6260  -20.9901  -16.1793 N   0  0  0  0  0  0  0  0  0  0  0  0
   26.8191  -20.8862  -13.9207 C   0  0  0  0  0  0  0  0  0  0  0  0
   25.7514  -21.4236  -14.3434 O   0  0  0  0  0  0  0  0  0  0  0  0
   27.0295  -20.8239  -12.5395 N   0  0  0  0  0  0  0  0  0  0  0  0
   26.0953  -21.4892  -11.6042 C   0  0  1  0  0  0  0  0  0  0  0  0
   26.9016  -21.7639  -10.3839 C   0  0  0  0  0  0  0  0  0  0  0  0
   26.7615  -20.8368   -9.2621 C   0  0  0  0  0  0  0  0  0  0  0  0
   25.7107  -19.9506   -9.0855 C   0  0  0  0  0  0  0  0  0  0  0  0
   25.9327  -19.2419   -7.9685 N   0  0  0  0  0  0  0  0  0  0  0  0
   27.0865  -19.6327   -7.4109 C   0  0  0  0  0  0  0  0  0  0  0  0
   27.7366  -19.2139   -6.2487 C   0  0  0  0  0  0  0  0  0  0  0  0
   28.9181  -19.8350   -5.9357 C   0  0  0  0  0  0  0  0  0  0  0  0
   29.4563  -20.8282   -6.7180 C   0  0  0  0  0  0  0  0  0  0  0  0
   28.8179  -21.2382   -7.8590 C   0  0  0  0  0  0  0  0  0  0  0  0
   27.6189  -20.6249   -8.1997 C   0  0  0  0  0  0  0  0  0  0  0  0
   24.8973  -20.6787  -11.4629 C   0  0  0  0  0  0  0  0  0  0  0  0
   23.6792  -21.2202  -11.0912 O   0  0  0  0  0  0  0  0  0  0  0  0
   24.9317  -19.4414  -11.6816 O   0  0  0  0  0  0  0  0  0  0  0  0
  2  1  1  0
  3  9  1  0
  3  2  1  0
  4  3  2  0
  6  5  1  6
  6  8  1  0
  7  6  1  0
  8 10  1  0
  8  9  1  6
 10 12  1  0
 11 10  2  0
 12 13  1  0
 13 14  1  1
 14 15  1  0
 15 23  1  0
 15 16  2  0
 16 17  1  0
 17 18  1  0
 18 19  2  0
 20 19  1  0
 21 20  2  0
 22 23  2  0
 22 21  1  0
 23 18  1  0
 24 25  1  0
 24 13  1  0
 26 24  2  0
M  END
$$$$
