GTW.pdb
     RDKit          3D

 26 27  0  0  1  0  0  0  0  0999 V2000
   16.9570  -14.7285  -15.5008 N   0  0  0  0  0  0  0  0  0  0  0  0
   17.0641  -13.2991  -15.2984 C   0  0  0  0  0  0  0  0  0  0  0  0
   18.4093  -12.8360  -15.7493 C   0  0  0  0  0  0  0  0  0  0  0  0
   19.4284  -13.5670  -15.6021 O   0  0  0  0  0  0  0  0  0  0  0  0
   19.6161  -11.7949  -19.0518 C   0  0  0  0  0  0  0  0  0  0  0  0
   19.6647  -10.5779  -18.1657 C   0  0  1  0  0  0  0  0  0  0  0  0
   18.6280   -9.6917  -18.3842 O   0  0  0  0  0  0  0  0  0  0  0  0
   19.7762  -11.0143  -16.7094 C   0  0  2  0  0  0  0  0  0  0  0  0
   18.4909  -11.5537  -16.3436 N   0  0  0  0  0  0  0  0  0  0  0  0
   20.0627   -9.7922  -15.9083 C   0  0  0  0  0  0  0  0  0  0  0  0
   19.1042   -9.1778  -15.3502 O   0  0  0  0  0  0  0  0  0  0  0  0
   21.3578   -9.2902  -15.7452 N   0  0  0  0  0  0  0  0  0  0  0  0
   21.5963   -8.0641  -14.9514 C   0  0  1  0  0  0  0  0  0  0  0  0
   22.8938   -8.2977  -14.2612 C   0  0  0  0  0  0  0  0  0  0  0  0
   24.0858   -8.4327  -15.0969 C   0  0  0  0  0  0  0  0  0  0  0  0
   24.5851   -7.4521  -15.9395 C   0  0  0  0  0  0  0  0  0  0  0  0
   25.6661   -7.9381  -16.5673 N   0  0  0  0  0  0  0  0  0  0  0  0
   25.8905   -9.1964  -16.1658 C   0  0  0  0  0  0  0  0  0  0  0  0
   26.8870  -10.1104  -16.5125 C   0  0  0  0  0  0  0  0  0  0  0  0
   26.8498  -11.3368  -15.9007 C   0  0  0  0  0  0  0  0  0  0  0  0
   25.8828  -11.6719  -14.9838 C   0  0  0  0  0  0  0  0  0  0  0  0
   24.9046  -10.7745  -14.6446 C   0  0  0  0  0  0  0  0  0  0  0  0
   24.9186   -9.5244  -15.2503 C   0  0  0  0  0  0  0  0  0  0  0  0
   21.4825   -6.9014  -15.8159 C   0  0  0  0  0  0  0  0  0  0  0  0
   21.3739   -5.6162  -15.3143 O   0  0  0  0  0  0  0  0  0  0  0  0
   21.4752   -7.0313  -17.0661 O   0  0  0  0  0  0  0  0  0  0  0  0
  2  1  1  0
  3  9  1  0
  3  2  1  0
  4  3  2  0
  6  5  1  6
  6  8  1  0
  7  6  1  0
  8 10  1  0
  8  9  1  1
 10 12  1  0
 11 10  2  0
 12 13  1  0
 13 14  1  6
 14 15  1  0
 15 23  1  0
 15 16  2  0
 16 17  1  0
 17 18  1  0
 18 19  2  0
 20 19  1  0
 21 20  2  0
 22 23  2  0
 22 21  1  0
 23 18  1  0
 24 25  1  0
 24 13  1  0
 26 24  2  0
M  END
$$$$
