GTW.pdb
     RDKit          3D

 26 27  0  0  1  0  0  0  0  0999 V2000
   26.4626  -23.7397  -17.3927 N   0  0  0  0  0  0  0  0  0  0  0  0
   25.6603  -22.9636  -16.4709 C   0  0  0  0  0  0  0  0  0  0  0  0
   26.5470  -22.3548  -15.4364 C   0  0  0  0  0  0  0  0  0  0  0  0
   27.7324  -22.7611  -15.2795 O   0  0  0  0  0  0  0  0  0  0  0  0
   27.6095  -18.8488  -15.0497 C   0  0  0  0  0  0  0  0  0  0  0  0
   26.7537  -19.1973  -13.8602 C   0  0  1  0  0  0  0  0  0  0  0  0
   25.4630  -18.7128  -13.9452 O   0  0  0  0  0  0  0  0  0  0  0  0
   26.8091  -20.7012  -13.6181 C   0  0  2  0  0  0  0  0  0  0  0  0
   26.0056  -21.3118  -14.6469 N   0  0  0  0  0  0  0  0  0  0  0  0
   26.2014  -20.9508  -12.2817 C   0  0  0  0  0  0  0  0  0  0  0  0
   25.0111  -21.3820  -12.2125 O   0  0  0  0  0  0  0  0  0  0  0  0
   26.8969  -20.7269  -11.0892 N   0  0  0  0  0  0  0  0  0  0  0  0
   26.2489  -20.9722   -9.7815 C   0  0  1  0  0  0  0  0  0  0  0  0
   27.3439  -20.8555   -8.7805 C   0  0  0  0  0  0  0  0  0  0  0  0
   26.9614  -20.7626   -7.3725 C   0  0  0  0  0  0  0  0  0  0  0  0
   25.8041  -21.2915   -6.8232 C   0  0  0  0  0  0  0  0  0  0  0  0
   25.7729  -20.9868   -5.5174 N   0  0  0  0  0  0  0  0  0  0  0  0
   26.8650  -20.2808   -5.1950 C   0  0  0  0  0  0  0  0  0  0  0  0
   27.2929  -19.7502   -3.9768 C   0  0  0  0  0  0  0  0  0  0  0  0
   28.4889  -19.0800   -3.9732 C   0  0  0  0  0  0  0  0  0  0  0  0
   29.2487  -18.9259   -5.1077 C   0  0  0  0  0  0  0  0  0  0  0  0
   28.8277  -19.4464   -6.3032 C   0  0  0  0  0  0  0  0  0  0  0  0
   27.6187  -20.1299   -6.3350 C   0  0  0  0  0  0  0  0  0  0  0  0
   25.0996  -20.0937   -9.6417 C   0  0  0  0  0  0  0  0  0  0  0  0
   23.9192  -20.5107   -9.0517 O   0  0  0  0  0  0  0  0  0  0  0  0
   25.1430  -18.9104  -10.0631 O   0  0  0  0  0  0  0  0  0  0  0  0
  2  1  1  0
  3  9  1  0
  3  2  1  0
  4  3  2  0
  6  5  1  6
  6  8  1  0
  7  6  1  0
  8 10  1  0
  8  9  1  6
 10 12  1  0
 11 10  2  0
 12 13  1  0
 13 14  1  1
 14 15  1  0
 15 23  1  0
 15 16  2  0
 16 17  1  0
 17 18  1  0
 18 19  2  0
 20 19  1  0
 21 20  2  0
 22 23  2  0
 22 21  1  0
 23 18  1  0
 24 25  1  0
 24 13  1  0
 26 24  2  0
M  END
$$$$
