GTW.pdb
     RDKit          3D

 26 27  0  0  1  0  0  0  0  0999 V2000
   29.7436  -23.1071  -18.0407 N   0  0  0  0  0  0  0  0  0  0  0  0
   28.5830  -22.2719  -17.8145 C   0  0  0  0  0  0  0  0  0  0  0  0
   28.5999  -21.7736  -16.4079 C   0  0  0  0  0  0  0  0  0  0  0  0
   29.5203  -22.1123  -15.6122 O   0  0  0  0  0  0  0  0  0  0  0  0
   28.3889  -18.1151  -15.5383 C   0  0  0  0  0  0  0  0  0  0  0  0
   27.2240  -18.8319  -14.9074 C   0  0  1  0  0  0  0  0  0  0  0  0
   26.0327  -18.6552  -15.5837 O   0  0  0  0  0  0  0  0  0  0  0  0
   27.5804  -20.3001  -14.7054 C   0  0  2  0  0  0  0  0  0  0  0  0
   27.5491  -20.9127  -16.0095 N   0  0  0  0  0  0  0  0  0  0  0  0
   26.5228  -20.8908  -13.8394 C   0  0  0  0  0  0  0  0  0  0  0  0
   25.4736  -21.3600  -14.3747 O   0  0  0  0  0  0  0  0  0  0  0  0
   26.6411  -20.9495  -12.4471 N   0  0  0  0  0  0  0  0  0  0  0  0
   25.5952  -21.6026  -11.6288 C   0  0  1  0  0  0  0  0  0  0  0  0
   26.2773  -21.9812  -10.3615 C   0  0  0  0  0  0  0  0  0  0  0  0
   26.4922  -20.9266   -9.3720 C   0  0  0  0  0  0  0  0  0  0  0  0
   25.5846  -19.9261   -9.0619 C   0  0  0  0  0  0  0  0  0  0  0  0
   26.1324  -19.1241   -8.1368 N   0  0  0  0  0  0  0  0  0  0  0  0
   27.3607  -19.5638   -7.8322 C   0  0  0  0  0  0  0  0  0  0  0  0
   28.3131  -19.0861   -6.9303 C   0  0  0  0  0  0  0  0  0  0  0  0
   29.4899  -19.7833   -6.8371 C   0  0  0  0  0  0  0  0  0  0  0  0
   29.7412  -20.9054   -7.5892 C   0  0  0  0  0  0  0  0  0  0  0  0
   28.8061  -21.3733   -8.4748 C   0  0  0  0  0  0  0  0  0  0  0  0
   27.6048  -20.6851   -8.5894 C   0  0  0  0  0  0  0  0  0  0  0  0
   24.4351  -20.7312  -11.5458 C   0  0  0  0  0  0  0  0  0  0  0  0
   23.1723  -21.2098  -11.2433 O   0  0  0  0  0  0  0  0  0  0  0  0
   24.5455  -19.4964  -11.7537 O   0  0  0  0  0  0  0  0  0  0  0  0
  2  1  1  0
  3  9  1  0
  3  2  1  0
  4  3  2  0
  6  5  1  6
  6  8  1  0
  7  6  1  0
  8 10  1  0
  8  9  1  6
 10 12  1  0
 11 10  2  0
 12 13  1  0
 13 14  1  1
 14 15  1  0
 15 23  1  0
 15 16  2  0
 16 17  1  0
 17 18  1  0
 18 19  2  0
 20 19  1  0
 21 20  2  0
 22 23  2  0
 22 21  1  0
 23 18  1  0
 24 25  1  0
 24 13  1  0
 26 24  2  0
M  END
$$$$
