GTW.pdb
     RDKit          3D

 26 27  0  0  1  0  0  0  0  0999 V2000
   29.8829  -22.8814  -18.0810 N   0  0  0  0  0  0  0  0  0  0  0  0
   28.5603  -22.4364  -17.6957 C   0  0  0  0  0  0  0  0  0  0  0  0
   28.6367  -21.7469  -16.3744 C   0  0  0  0  0  0  0  0  0  0  0  0
   29.6813  -21.8152  -15.6681 O   0  0  0  0  0  0  0  0  0  0  0  0
   28.0079  -18.1555  -15.7794 C   0  0  0  0  0  0  0  0  0  0  0  0
   26.9965  -18.9173  -14.9638 C   0  0  1  0  0  0  0  0  0  0  0  0
   25.7273  -18.9109  -15.5086 O   0  0  0  0  0  0  0  0  0  0  0  0
   27.5190  -20.3231  -14.6914 C   0  0  2  0  0  0  0  0  0  0  0  0
   27.4975  -21.0199  -15.9526 N   0  0  0  0  0  0  0  0  0  0  0  0
   26.5708  -20.9642  -13.7387 C   0  0  0  0  0  0  0  0  0  0  0  0
   25.5890  -21.6260  -14.1921 O   0  0  0  0  0  0  0  0  0  0  0  0
   26.7209  -20.8648  -12.3519 N   0  0  0  0  0  0  0  0  0  0  0  0
   25.7454  -21.5038  -11.4406 C   0  0  1  0  0  0  0  0  0  0  0  0
   26.5207  -21.8299  -10.2129 C   0  0  0  0  0  0  0  0  0  0  0  0
   26.7123  -20.7607   -9.2343 C   0  0  0  0  0  0  0  0  0  0  0  0
   25.9202  -19.6288   -9.1235 C   0  0  0  0  0  0  0  0  0  0  0  0
   26.4104  -18.8589   -8.1407 N   0  0  0  0  0  0  0  0  0  0  0  0
   27.4902  -19.4456   -7.6071 C   0  0  0  0  0  0  0  0  0  0  0  0
   28.3313  -19.0534   -6.5643 C   0  0  0  0  0  0  0  0  0  0  0  0
   29.3600  -19.8996   -6.2398 C   0  0  0  0  0  0  0  0  0  0  0  0
   29.5716  -21.0864   -6.8993 C   0  0  0  0  0  0  0  0  0  0  0  0
   28.7460  -21.4703   -7.9231 C   0  0  0  0  0  0  0  0  0  0  0  0
   27.6958  -20.6309   -8.2728 C   0  0  0  0  0  0  0  0  0  0  0  0
   24.5803  -20.6459  -11.3047 C   0  0  0  0  0  0  0  0  0  0  0  0
   23.3561  -21.1261  -10.8738 O   0  0  0  0  0  0  0  0  0  0  0  0
   24.6502  -19.4221  -11.5830 O   0  0  0  0  0  0  0  0  0  0  0  0
  2  1  1  0
  3  9  1  0
  3  2  1  0
  4  3  2  0
  6  5  1  6
  6  8  1  0
  7  6  1  0
  8 10  1  0
  8  9  1  6
 10 12  1  0
 11 10  2  0
 12 13  1  0
 13 14  1  1
 14 15  1  0
 15 23  1  0
 15 16  2  0
 16 17  1  0
 17 18  1  0
 18 19  2  0
 20 19  1  0
 21 20  2  0
 22 23  2  0
 22 21  1  0
 23 18  1  0
 24 25  1  0
 24 13  1  0
 26 24  2  0
M  END
$$$$
