IKV.pdb
     RDKit          3D

 25 24  0  0  1  0  0  0  0  0999 V2000
    6.0083  -10.3200   26.6902 C   0  0  0  0  0  0  0  0  0  0  0  0
    5.5563  -11.6253   26.1281 C   0  0  0  0  0  0  0  0  0  0  0  0
    6.6572  -12.6510   25.9707 C   0  0  2  0  0  0  0  0  0  0  0  0
    7.6938  -12.0482   25.0519 C   0  0  0  0  0  0  0  0  0  0  0  0
    6.0999  -13.9424   25.4750 C   0  0  2  0  0  0  0  0  0  0  0  0
    5.0456  -14.3723   26.3672 N   0  0  0  0  0  0  0  0  0  0  0  0
    7.0716  -15.0177   25.3169 C   0  0  0  0  0  0  0  0  0  0  0  0
    7.3752  -15.8503   26.2125 O   0  0  0  0  0  0  0  0  0  0  0  0
    7.7499  -15.1776   24.0826 N   0  0  0  0  0  0  0  0  0  0  0  0
    8.8102  -16.2040   23.8855 C   0  0  1  0  0  0  0  0  0  0  0  0
    9.2293  -16.2392   22.4645 C   0  0  0  0  0  0  0  0  0  0  0  0
    8.2829  -17.0696   21.6432 C   0  0  0  0  0  0  0  0  0  0  0  0
    8.7233  -17.1043   20.1780 C   0  0  0  0  0  0  0  0  0  0  0  0
    7.6068  -17.8181   19.4107 C   0  0  0  0  0  0  0  0  0  0  0  0
    7.9374  -17.9319   18.0141 N   0  0  0  0  0  0  0  0  0  0  0  0
    9.9188  -15.9043   24.8242 C   0  0  0  0  0  0  0  0  0  0  0  0
   10.7742  -15.0027   24.6874 O   0  0  0  0  0  0  0  0  0  0  0  0
    9.9178  -14.1157   27.5618 C   0  0  0  0  0  0  0  0  0  0  0  0
   10.4164  -15.4202   28.1154 C   0  0  2  0  0  0  0  0  0  0  0  0
   11.3048  -15.2312   29.3027 C   0  0  0  0  0  0  0  0  0  0  0  0
   11.0483  -16.3008   27.0581 C   0  0  2  0  0  0  0  0  0  0  0  0
   10.0998  -16.6769   26.0319 N   0  0  0  0  0  0  0  0  0  0  0  0
   11.5097  -17.5265   27.7330 C   0  0  0  0  0  0  0  0  0  0  0  0
   10.8867  -18.5937   27.5656 O   0  0  0  0  0  0  0  0  0  0  0  0
   12.6194  -17.5044   28.5447 O   0  0  0  0  0  0  0  0  0  0  0  0
  2  1  1  0
  3  2  1  0
  3  4  1  6
  5  3  1  0
  5  6  1  1
  7  5  1  0
  7  8  2  0
  9  7  1  0
 10  9  1  0
 10 11  1  6
 12 11  1  0
 13 12  1  0
 13 14  1  0
 15 14  1  0
 16 22  1  0
 16 10  1  0
 17 16  2  0
 19 18  1  6
 19 21  1  0
 20 19  1  0
 21 23  1  0
 21 22  1  6
 23 25  1  0
 24 23  2  0
M  END
$$$$
