IKV.pdb
     RDKit          3D

 25 24  0  0  1  0  0  0  0  0999 V2000
    6.8322  -11.1602   26.8267 C   0  0  0  0  0  0  0  0  0  0  0  0
    6.2583  -12.4669   26.3940 C   0  0  0  0  0  0  0  0  0  0  0  0
    6.6982  -12.9159   25.0179 C   0  0  2  0  0  0  0  0  0  0  0  0
    6.1861  -11.8899   24.0344 C   0  0  0  0  0  0  0  0  0  0  0  0
    6.2155  -14.2996   24.7416 C   0  0  2  0  0  0  0  0  0  0  0  0
    5.0960  -14.5889   25.6109 N   0  0  0  0  0  0  0  0  0  0  0  0
    7.2207  -15.3465   24.8786 C   0  0  0  0  0  0  0  0  0  0  0  0
    7.3302  -16.1130   25.8727 O   0  0  0  0  0  0  0  0  0  0  0  0
    8.1658  -15.5548   23.8430 N   0  0  0  0  0  0  0  0  0  0  0  0
    9.2586  -16.5597   23.9545 C   0  0  1  0  0  0  0  0  0  0  0  0
    9.9123  -16.7517   22.6384 C   0  0  0  0  0  0  0  0  0  0  0  0
   11.0506  -17.7285   22.7387 C   0  0  0  0  0  0  0  0  0  0  0  0
   10.5800  -19.1459   22.4051 C   0  0  0  0  0  0  0  0  0  0  0  0
   11.8466  -19.9830   22.2052 C   0  0  0  0  0  0  0  0  0  0  0  0
   11.5137  -21.3500   21.8997 N   0  0  0  0  0  0  0  0  0  0  0  0
   10.1883  -16.1101   25.0191 C   0  0  0  0  0  0  0  0  0  0  0  0
   11.0496  -15.2103   24.9111 O   0  0  0  0  0  0  0  0  0  0  0  0
    9.2789  -14.2988   27.8094 C   0  0  0  0  0  0  0  0  0  0  0  0
   10.0108  -15.4539   28.4312 C   0  0  2  0  0  0  0  0  0  0  0  0
   10.7333  -15.0631   29.6801 C   0  0  0  0  0  0  0  0  0  0  0  0
   10.9093  -16.1743   27.4480 C   0  0  2  0  0  0  0  0  0  0  0  0
   10.1637  -16.7145   26.3316 N   0  0  0  0  0  0  0  0  0  0  0  0
   11.5347  -17.2948   28.1719 C   0  0  0  0  0  0  0  0  0  0  0  0
   10.9677  -18.4052   28.1970 O   0  0  0  0  0  0  0  0  0  0  0  0
   12.7362  -17.1276   28.8194 O   0  0  0  0  0  0  0  0  0  0  0  0
  2  1  1  0
  3  2  1  0
  3  4  1  6
  5  3  1  0
  5  6  1  1
  7  5  1  0
  7  8  2  0
  9  7  1  0
 10  9  1  0
 10 11  1  6
 12 11  1  0
 13 12  1  0
 13 14  1  0
 15 14  1  0
 16 22  1  0
 16 10  1  0
 17 16  2  0
 19 18  1  6
 19 21  1  0
 20 19  1  0
 21 23  1  0
 21 22  1  6
 23 25  1  0
 24 23  2  0
M  END
$$$$
