IKV.pdb
     RDKit          3D

 25 24  0  0  1  0  0  0  0  0999 V2000
    5.8427  -10.2877   26.2316 C   0  0  0  0  0  0  0  0  0  0  0  0
    5.4117  -11.6226   25.7253 C   0  0  0  0  0  0  0  0  0  0  0  0
    6.5078  -12.6652   25.7050 C   0  0  2  0  0  0  0  0  0  0  0  0
    7.6014  -12.1383   24.8059 C   0  0  0  0  0  0  0  0  0  0  0  0
    5.9644  -13.9849   25.2724 C   0  0  2  0  0  0  0  0  0  0  0  0
    4.8243  -14.3171   26.0985 N   0  0  0  0  0  0  0  0  0  0  0  0
    6.9188  -15.0867   25.2952 C   0  0  0  0  0  0  0  0  0  0  0  0
    7.2835  -15.7012   26.3331 O   0  0  0  0  0  0  0  0  0  0  0  0
    7.5060  -15.5346   24.0853 N   0  0  0  0  0  0  0  0  0  0  0  0
    8.5701  -16.5753   24.0559 C   0  0  1  0  0  0  0  0  0  0  0  0
    8.9766  -16.8509   22.6576 C   0  0  0  0  0  0  0  0  0  0  0  0
   10.0764  -17.8746   22.6071 C   0  0  0  0  0  0  0  0  0  0  0  0
    9.6831  -19.0492   21.7085 C   0  0  0  0  0  0  0  0  0  0  0  0
   10.8241  -20.0658   21.8068 C   0  0  0  0  0  0  0  0  0  0  0  0
   10.4943  -21.2754   21.0991 N   0  0  0  0  0  0  0  0  0  0  0  0
    9.6856  -16.1154   24.9186 C   0  0  0  0  0  0  0  0  0  0  0  0
   10.5667  -15.2871   24.6014 O   0  0  0  0  0  0  0  0  0  0  0  0
    9.5254  -14.2223   27.9829 C   0  0  0  0  0  0  0  0  0  0  0  0
   10.3308  -15.4345   28.3550 C   0  0  2  0  0  0  0  0  0  0  0  0
   11.3830  -15.1278   29.3715 C   0  0  0  0  0  0  0  0  0  0  0  0
   10.8899  -16.1582   27.1482 C   0  0  2  0  0  0  0  0  0  0  0  0
    9.8424  -16.6208   26.2633 N   0  0  0  0  0  0  0  0  0  0  0  0
   11.6250  -17.3330   27.6484 C   0  0  0  0  0  0  0  0  0  0  0  0
   11.0205  -18.4098   27.8224 O   0  0  0  0  0  0  0  0  0  0  0  0
   12.9696  -17.2529   27.9249 O   0  0  0  0  0  0  0  0  0  0  0  0
  2  1  1  0
  3  2  1  0
  3  4  1  6
  5  3  1  0
  5  6  1  1
  7  5  1  0
  7  8  2  0
  9  7  1  0
 10  9  1  0
 10 11  1  6
 12 11  1  0
 13 12  1  0
 13 14  1  0
 15 14  1  0
 16 22  1  0
 16 10  1  0
 17 16  2  0
 19 18  1  6
 19 21  1  0
 20 19  1  0
 21 23  1  0
 21 22  1  6
 23 25  1  0
 24 23  2  0
M  END
$$$$
