IKV.pdb
     RDKit          3D

 25 24  0  0  1  0  0  0  0  0999 V2000
    8.0076  -12.6376   18.0606 C   0  0  0  0  0  0  0  0  0  0  0  0
    8.0444  -14.0507   18.5359 C   0  0  0  0  0  0  0  0  0  0  0  0
    7.4900  -14.2545   19.9288 C   0  0  2  0  0  0  0  0  0  0  0  0
    8.2986  -13.3798   20.8579 C   0  0  0  0  0  0  0  0  0  0  0  0
    7.5185  -15.6998   20.2952 C   0  0  2  0  0  0  0  0  0  0  0  0
    6.7191  -16.4412   19.3445 N   0  0  0  0  0  0  0  0  0  0  0  0
    7.0721  -16.0058   21.6489 C   0  0  0  0  0  0  0  0  0  0  0  0
    5.8701  -16.0076   22.0268 O   0  0  0  0  0  0  0  0  0  0  0  0
    8.0241  -16.3308   22.6474 N   0  0  0  0  0  0  0  0  0  0  0  0
    7.6406  -16.5547   24.0684 C   0  0  1  0  0  0  0  0  0  0  0  0
    7.9490  -17.9483   24.4673 C   0  0  0  0  0  0  0  0  0  0  0  0
    7.6604  -18.1685   25.9261 C   0  0  0  0  0  0  0  0  0  0  0  0
    7.9283  -19.6232   26.3185 C   0  0  0  0  0  0  0  0  0  0  0  0
    7.4541  -19.7716   27.7669 C   0  0  0  0  0  0  0  0  0  0  0  0
    7.6847  -21.1094   28.2465 N   0  0  0  0  0  0  0  0  0  0  0  0
    8.3293  -15.5343   24.8957 C   0  0  0  0  0  0  0  0  0  0  0  0
    9.5541  -15.2838   24.8847 O   0  0  0  0  0  0  0  0  0  0  0  0
    6.0622  -12.8691   27.5872 C   0  0  0  0  0  0  0  0  0  0  0  0
    7.3578  -12.5219   26.9108 C   0  0  2  0  0  0  0  0  0  0  0  0
    7.1522  -11.7182   25.6673 C   0  0  0  0  0  0  0  0  0  0  0  0
    8.2370  -13.7320   26.6751 C   0  0  2  0  0  0  0  0  0  0  0  0
    7.5920  -14.7105   25.8262 N   0  0  0  0  0  0  0  0  0  0  0  0
    8.4848  -14.3511   27.9889 C   0  0  0  0  0  0  0  0  0  0  0  0
    7.9126  -15.4189   28.2845 O   0  0  0  0  0  0  0  0  0  0  0  0
    9.3400  -13.7629   28.8908 O   0  0  0  0  0  0  0  0  0  0  0  0
  2  1  1  0
  3  2  1  0
  3  4  1  1
  5  3  1  0
  5  6  1  6
  7  5  1  0
  7  8  2  0
  9  7  1  0
 10  9  1  0
 10 11  1  1
 12 11  1  0
 13 12  1  0
 13 14  1  0
 15 14  1  0
 16 22  1  0
 16 10  1  0
 17 16  2  0
 19 18  1  6
 19 21  1  0
 20 19  1  0
 21 23  1  0
 21 22  1  6
 23 25  1  0
 24 23  2  0
M  END
$$$$
