IKV.pdb
     RDKit          3D

 25 24  0  0  1  0  0  0  0  0999 V2000
    7.5652  -11.7762   19.9154 C   0  0  0  0  0  0  0  0  0  0  0  0
    7.7971  -13.2461   19.8171 C   0  0  0  0  0  0  0  0  0  0  0  0
    7.8713  -13.9561   21.1510 C   0  0  2  0  0  0  0  0  0  0  0  0
    8.9568  -13.2769   21.9525 C   0  0  0  0  0  0  0  0  0  0  0  0
    8.1015  -15.4161   20.9526 C   0  0  2  0  0  0  0  0  0  0  0  0
    7.0582  -15.9447   20.1014 N   0  0  0  0  0  0  0  0  0  0  0  0
    8.1763  -16.2045   22.1766 C   0  0  0  0  0  0  0  0  0  0  0  0
    7.2052  -16.4312   22.9468 O   0  0  0  0  0  0  0  0  0  0  0  0
    9.4114  -16.7781   22.5700 N   0  0  0  0  0  0  0  0  0  0  0  0
    9.5826  -17.4812   23.8712 C   0  0  1  0  0  0  0  0  0  0  0  0
   10.3470  -18.7359   23.6771 C   0  0  0  0  0  0  0  0  0  0  0  0
   10.5179  -19.4702   24.9777 C   0  0  0  0  0  0  0  0  0  0  0  0
   11.4324  -20.6841   24.7990 C   0  0  0  0  0  0  0  0  0  0  0  0
   11.4146  -21.4354   26.1333 C   0  0  0  0  0  0  0  0  0  0  0  0
   12.0376  -20.6535   27.1693 N   0  0  0  0  0  0  0  0  0  0  0  0
   10.2209  -16.5382   24.8215 C   0  0  0  0  0  0  0  0  0  0  0  0
   11.2316  -15.8379   24.5950 O   0  0  0  0  0  0  0  0  0  0  0  0
    8.3450  -13.8261   26.7032 C   0  0  0  0  0  0  0  0  0  0  0  0
    9.1985  -14.5286   27.7203 C   0  0  2  0  0  0  0  0  0  0  0  0
    9.7683  -13.5871   28.7320 C   0  0  0  0  0  0  0  0  0  0  0  0
   10.2592  -15.4052   27.0883 C   0  0  2  0  0  0  0  0  0  0  0  0
    9.6902  -16.3511   26.1526 N   0  0  0  0  0  0  0  0  0  0  0  0
   10.9025  -16.1615   28.1768 C   0  0  0  0  0  0  0  0  0  0  0  0
   10.4308  -17.2622   28.5248 O   0  0  0  0  0  0  0  0  0  0  0  0
   12.0168  -15.6654   28.8117 O   0  0  0  0  0  0  0  0  0  0  0  0
  2  1  1  0
  3  2  1  0
  3  4  1  1
  5  3  1  0
  5  6  1  6
  7  5  1  0
  7  8  2  0
  9  7  1  0
 10  9  1  0
 10 11  1  6
 12 11  1  0
 13 12  1  0
 13 14  1  0
 15 14  1  0
 16 22  1  0
 16 10  1  0
 17 16  2  0
 19 18  1  6
 19 21  1  0
 20 19  1  0
 21 23  1  0
 21 22  1  6
 23 25  1  0
 24 23  2  0
M  END
$$$$
