IKV.pdb
     RDKit          3D

 25 24  0  0  1  0  0  0  0  0999 V2000
    5.8096  -11.2092   26.9304 C   0  0  0  0  0  0  0  0  0  0  0  0
    5.5458  -12.3680   26.0293 C   0  0  0  0  0  0  0  0  0  0  0  0
    6.7212  -13.3052   25.8589 C   0  0  2  0  0  0  0  0  0  0  0  0
    7.8073  -12.5272   25.1538 C   0  0  0  0  0  0  0  0  0  0  0  0
    6.3036  -14.5386   25.1321 C   0  0  2  0  0  0  0  0  0  0  0  0
    5.1104  -15.0693   25.7543 N   0  0  0  0  0  0  0  0  0  0  0  0
    7.3161  -15.5844   25.0517 C   0  0  0  0  0  0  0  0  0  0  0  0
    7.4885  -16.4867   25.9142 O   0  0  0  0  0  0  0  0  0  0  0  0
    8.1942  -15.6301   23.9399 N   0  0  0  0  0  0  0  0  0  0  0  0
    9.3508  -16.5656   23.8785 C   0  0  1  0  0  0  0  0  0  0  0  0
    9.9055  -16.6025   22.5047 C   0  0  0  0  0  0  0  0  0  0  0  0
    9.0754  -17.4813   21.6111 C   0  0  0  0  0  0  0  0  0  0  0  0
    9.5943  -17.4358   20.1721 C   0  0  0  0  0  0  0  0  0  0  0  0
    8.6881  -18.3650   19.3594 C   0  0  0  0  0  0  0  0  0  0  0  0
    9.1565  -18.4787   18.0027 N   0  0  0  0  0  0  0  0  0  0  0  0
   10.3355  -16.1456   24.9051 C   0  0  0  0  0  0  0  0  0  0  0  0
   11.2900  -15.3575   24.7292 O   0  0  0  0  0  0  0  0  0  0  0  0
    9.7866  -14.0210   27.5930 C   0  0  0  0  0  0  0  0  0  0  0  0
   10.3388  -15.2430   28.2701 C   0  0  2  0  0  0  0  0  0  0  0  0
   11.1296  -14.9066   29.4932 C   0  0  0  0  0  0  0  0  0  0  0  0
   11.1017  -16.1430   27.3210 C   0  0  2  0  0  0  0  0  0  0  0  0
   10.2575  -16.6459   26.2586 N   0  0  0  0  0  0  0  0  0  0  0  0
   11.5883  -17.2900   28.1072 C   0  0  0  0  0  0  0  0  0  0  0  0
   10.9401  -18.3554   28.1088 O   0  0  0  0  0  0  0  0  0  0  0  0
   12.7492  -17.1967   28.8384 O   0  0  0  0  0  0  0  0  0  0  0  0
  2  1  1  0
  3  2  1  0
  3  4  1  6
  5  3  1  0
  5  6  1  1
  7  5  1  0
  7  8  2  0
  9  7  1  0
 10  9  1  0
 10 11  1  6
 12 11  1  0
 13 12  1  0
 13 14  1  0
 15 14  1  0
 16 22  1  0
 16 10  1  0
 17 16  2  0
 19 18  1  6
 19 21  1  0
 20 19  1  0
 21 23  1  0
 21 22  1  6
 23 25  1  0
 24 23  2  0
M  END
$$$$
