SGQ.pdb
     RDKit          3D

 20 19  0  0  1  0  0  0  0  0999 V2000
    5.9517  -19.5546   22.9985 O   0  0  0  0  0  0  0  0  0  0  0  0
    5.9439  -19.9328   21.6425 C   0  0  0  0  0  0  0  0  0  0  0  0
    7.3752  -19.9453   21.1546 C   0  0  2  0  0  0  0  0  0  0  0  0
    8.2189  -20.2144   22.2978 N   0  0  0  0  0  0  0  0  0  0  0  0
    7.7699  -18.6244   20.6002 C   0  0  0  0  0  0  0  0  0  0  0  0
    7.3274  -18.2017   19.5007 O   0  0  0  0  0  0  0  0  0  0  0  0
    8.6884  -17.7631   21.3103 N   0  0  0  0  0  0  0  0  0  0  0  0
    9.0201  -16.4635   20.7876 C   0  0  0  0  0  0  0  0  0  0  0  0
    9.7582  -15.5918   21.7011 C   0  0  0  0  0  0  0  0  0  0  0  0
   10.9011  -15.2108   21.3343 O   0  0  0  0  0  0  0  0  0  0  0  0
    6.7588  -18.3074   25.7459 N   0  0  0  0  0  0  0  0  0  0  0  0
    7.9883  -18.2220   26.4425 C   0  0  0  0  0  0  0  0  0  0  0  0
    8.1384  -18.9153   27.4879 O   0  0  0  0  0  0  0  0  0  0  0  0
    9.1024  -17.3671   26.0005 C   0  0  0  0  0  0  0  0  0  0  0  0
    8.7625  -16.4814   24.8619 C   0  0  0  0  0  0  0  0  0  0  0  0
    9.8410  -15.6741   24.2390 C   0  0  2  0  0  0  0  0  0  0  0  0
    9.2696  -15.1576   22.9555 N   0  0  0  0  0  0  0  0  0  0  0  0
   11.0695  -16.3585   23.8471 C   0  0  0  0  0  0  0  0  0  0  0  0
   12.2766  -15.6803   23.6627 O   0  0  0  0  0  0  0  0  0  0  0  0
   11.0823  -17.5965   23.6531 O   0  0  0  0  0  0  0  0  0  0  0  0
  2  1  1  0
  3  5  1  0
  3  2  1  0
  3  4  1  1
  5  7  1  0
  5  6  2  0
  7  8  1  0
  9 10  2  0
  9  8  1  0
 11 12  1  0
 12 14  1  0
 13 12  2  0
 14 15  1  0
 16 15  1  6
 16 18  1  0
 16 17  1  0
 17  9  1  0
 18 19  1  0
 20 18  2  0
M  END
$$$$
