SGQ.pdb
     RDKit          3D

 20 19  0  0  1  0  0  0  0  0999 V2000
    7.3933  -14.4120   16.8756 O   0  0  0  0  0  0  0  0  0  0  0  0
    7.8886  -13.1708   17.3184 C   0  0  0  0  0  0  0  0  0  0  0  0
    8.8997  -13.4363   18.4110 C   0  0  2  0  0  0  0  0  0  0  0  0
    9.8136  -14.4430   17.9185 N   0  0  0  0  0  0  0  0  0  0  0  0
    8.2479  -13.9741   19.6331 C   0  0  0  0  0  0  0  0  0  0  0  0
    7.4387  -13.2923   20.3142 O   0  0  0  0  0  0  0  0  0  0  0  0
    8.5207  -15.3171   20.0930 N   0  0  0  0  0  0  0  0  0  0  0  0
    7.9507  -15.7948   21.3256 C   0  0  0  0  0  0  0  0  0  0  0  0
    8.5630  -15.2661   22.5441 C   0  0  0  0  0  0  0  0  0  0  0  0
    9.7595  -14.8811   22.4657 O   0  0  0  0  0  0  0  0  0  0  0  0
    5.2750  -11.3138   26.3281 N   0  0  0  0  0  0  0  0  0  0  0  0
    6.3846  -12.0388   26.8255 C   0  0  0  0  0  0  0  0  0  0  0  0
    6.4388  -12.2837   28.0637 O   0  0  0  0  0  0  0  0  0  0  0  0
    7.4747  -12.5263   25.9645 C   0  0  0  0  0  0  0  0  0  0  0  0
    7.5134  -14.0012   25.8245 C   0  0  0  0  0  0  0  0  0  0  0  0
    8.5852  -14.6117   24.9989 C   0  0  2  0  0  0  0  0  0  0  0  0
    7.8985  -15.1633   23.7886 N   0  0  0  0  0  0  0  0  0  0  0  0
    9.3175  -15.7450   25.5563 C   0  0  0  0  0  0  0  0  0  0  0  0
   10.4885  -15.5849   26.3007 O   0  0  0  0  0  0  0  0  0  0  0  0
    8.9182  -16.9194   25.3779 O   0  0  0  0  0  0  0  0  0  0  0  0
  2  1  1  0
  3  5  1  0
  3  2  1  0
  3  4  1  6
  5  7  1  0
  5  6  2  0
  7  8  1  0
  9 10  2  0
  9  8  1  0
 11 12  1  0
 12 14  1  0
 13 12  2  0
 14 15  1  0
 16 15  1  1
 16 18  1  0
 16 17  1  0
 17  9  1  0
 18 19  1  0
 20 18  2  0
M  END
$$$$
