SGQ.pdb
     RDKit          3D

 20 19  0  0  1  0  0  0  0  0999 V2000
    6.3143  -18.4587   24.2592 O   0  0  0  0  0  0  0  0  0  0  0  0
    5.1312  -18.5291   23.4994 C   0  0  0  0  0  0  0  0  0  0  0  0
    5.5168  -18.5332   22.0372 C   0  0  2  0  0  0  0  0  0  0  0  0
    6.3374  -19.7022   21.8102 N   0  0  0  0  0  0  0  0  0  0  0  0
    6.3249  -17.3366   21.6869 C   0  0  0  0  0  0  0  0  0  0  0  0
    5.8115  -16.1934   21.5725 O   0  0  0  0  0  0  0  0  0  0  0  0
    7.7490  -17.4396   21.4610 N   0  0  0  0  0  0  0  0  0  0  0  0
    8.5348  -16.2588   21.2152 C   0  0  0  0  0  0  0  0  0  0  0  0
    8.9748  -15.5403   22.4107 C   0  0  0  0  0  0  0  0  0  0  0  0
    9.8219  -14.6223   22.2504 O   0  0  0  0  0  0  0  0  0  0  0  0
    5.2779  -13.3559   26.5174 N   0  0  0  0  0  0  0  0  0  0  0  0
    6.4811  -12.6241   26.6625 C   0  0  0  0  0  0  0  0  0  0  0  0
    6.4440  -11.5172   27.2703 O   0  0  0  0  0  0  0  0  0  0  0  0
    7.7748  -13.0974   26.1433 C   0  0  0  0  0  0  0  0  0  0  0  0
    7.7006  -14.4073   25.4543 C   0  0  0  0  0  0  0  0  0  0  0  0
    8.9445  -14.9886   24.8905 C   0  0  2  0  0  0  0  0  0  0  0  0
    8.5107  -15.8130   23.7188 N   0  0  0  0  0  0  0  0  0  0  0  0
    9.7103  -15.9089   25.7259 C   0  0  0  0  0  0  0  0  0  0  0  0
   10.5108  -15.4690   26.7826 O   0  0  0  0  0  0  0  0  0  0  0  0
    9.6806  -17.1441   25.5165 O   0  0  0  0  0  0  0  0  0  0  0  0
  2  1  1  0
  3  5  1  0
  3  2  1  0
  3  4  1  1
  5  7  1  0
  5  6  2  0
  7  8  1  0
  9 10  2  0
  9  8  1  0
 11 12  1  0
 12 14  1  0
 13 12  2  0
 14 15  1  0
 16 15  1  1
 16 18  1  0
 16 17  1  0
 17  9  1  0
 18 19  1  0
 20 18  2  0
M  END
$$$$
