SGQ.pdb
     RDKit          3D

 20 19  0  0  1  0  0  0  0  0999 V2000
   13.9433  -19.3194   18.3224 O   0  0  0  0  0  0  0  0  0  0  0  0
   12.7853  -19.5541   19.0879 C   0  0  0  0  0  0  0  0  0  0  0  0
   11.8310  -18.4049   18.8523 C   0  0  2  0  0  0  0  0  0  0  0  0
   12.6255  -17.2038   18.7204 N   0  0  0  0  0  0  0  0  0  0  0  0
   10.9135  -18.2177   20.0060 C   0  0  0  0  0  0  0  0  0  0  0  0
    9.9400  -18.9864   20.2174 O   0  0  0  0  0  0  0  0  0  0  0  0
   11.1054  -17.1326   20.9416 N   0  0  0  0  0  0  0  0  0  0  0  0
   10.2149  -16.9700   22.0610 C   0  0  0  0  0  0  0  0  0  0  0  0
   10.8626  -16.9021   23.3706 C   0  0  0  0  0  0  0  0  0  0  0  0
   12.0778  -17.2273   23.4284 O   0  0  0  0  0  0  0  0  0  0  0  0
    9.9636  -13.5763   29.9912 N   0  0  0  0  0  0  0  0  0  0  0  0
    9.7585  -13.9359   28.6373 C   0  0  0  0  0  0  0  0  0  0  0  0
    8.7106  -13.5324   28.0584 O   0  0  0  0  0  0  0  0  0  0  0  0
   10.7140  -14.7529   27.8713 C   0  0  0  0  0  0  0  0  0  0  0  0
   10.1640  -15.2858   26.6026 C   0  0  0  0  0  0  0  0  0  0  0  0
   10.9746  -16.2562   25.8252 C   0  0  2  0  0  0  0  0  0  0  0  0
   10.2122  -16.4979   24.5599 N   0  0  0  0  0  0  0  0  0  0  0  0
   11.1804  -17.5858   26.3918 C   0  0  0  0  0  0  0  0  0  0  0  0
   12.2895  -17.8983   27.1812 O   0  0  0  0  0  0  0  0  0  0  0  0
   10.3596  -18.5090   26.1808 O   0  0  0  0  0  0  0  0  0  0  0  0
  2  1  1  0
  3  5  1  0
  3  2  1  0
  3  4  1  1
  5  7  1  0
  5  6  2  0
  7  8  1  0
  9 10  2  0
  9  8  1  0
 11 12  1  0
 12 14  1  0
 13 12  2  0
 14 15  1  0
 16 15  1  1
 16 18  1  0
 16 17  1  0
 17  9  1  0
 18 19  1  0
 20 18  2  0
M  END
$$$$
