SGQ.pdb
     RDKit          3D

 20 19  0  0  1  0  0  0  0  0999 V2000
    9.2402  -18.0625   15.9437 O   0  0  0  0  0  0  0  0  0  0  0  0
    8.5856  -17.7002   17.1363 C   0  0  0  0  0  0  0  0  0  0  0  0
    9.6314  -17.5744   18.2213 C   0  0  2  0  0  0  0  0  0  0  0  0
    9.9493  -18.9111   18.6721 N   0  0  0  0  0  0  0  0  0  0  0  0
    9.1130  -16.8134   19.3875 C   0  0  0  0  0  0  0  0  0  0  0  0
    8.8332  -15.5887   19.3157 O   0  0  0  0  0  0  0  0  0  0  0  0
    8.9072  -17.4576   20.6651 N   0  0  0  0  0  0  0  0  0  0  0  0
    8.4825  -16.6911   21.8073 C   0  0  0  0  0  0  0  0  0  0  0  0
    9.5472  -16.3070   22.7336 C   0  0  0  0  0  0  0  0  0  0  0  0
   10.7100  -16.2026   22.2614 O   0  0  0  0  0  0  0  0  0  0  0  0
    8.5483  -13.8184   28.4606 N   0  0  0  0  0  0  0  0  0  0  0  0
    9.9394  -14.0800   28.4862 C   0  0  0  0  0  0  0  0  0  0  0  0
   10.5654  -13.9080   29.5700 O   0  0  0  0  0  0  0  0  0  0  0  0
   10.6885  -14.5499   27.3092 C   0  0  0  0  0  0  0  0  0  0  0  0
    9.8271  -15.0444   26.2093 C   0  0  0  0  0  0  0  0  0  0  0  0
   10.4714  -15.5932   24.9899 C   0  0  2  0  0  0  0  0  0  0  0  0
    9.3494  -16.0495   24.1104 N   0  0  0  0  0  0  0  0  0  0  0  0
   11.3265  -16.7673   25.1365 C   0  0  0  0  0  0  0  0  0  0  0  0
   12.7145  -16.6703   25.2586 O   0  0  0  0  0  0  0  0  0  0  0  0
   10.8378  -17.9211   25.1513 O   0  0  0  0  0  0  0  0  0  0  0  0
  2  1  1  0
  3  5  1  0
  3  2  1  0
  3  4  1  1
  5  7  1  0
  5  6  2  0
  7  8  1  0
  9 10  2  0
  9  8  1  0
 11 12  1  0
 12 14  1  0
 13 12  2  0
 14 15  1  0
 16 15  1  1
 16 18  1  0
 16 17  1  0
 17  9  1  0
 18 19  1  0
 20 18  2  0
M  END
$$$$
