GAD.pdb
     RDKit          3D

 18 17  0  0  1  0  0  0  0  0999 V2000
    5.3034  -18.2851   21.1267 N   0  0  0  0  0  0  0  0  0  0  0  0
    5.1635  -17.4973   22.3354 C   0  0  0  0  0  0  0  0  0  0  0  0
    6.3768  -16.6621   22.5170 C   0  0  0  0  0  0  0  0  0  0  0  0
    7.3859  -16.8242   21.7583 O   0  0  0  0  0  0  0  0  0  0  0  0
    7.4135  -13.7059   24.5897 C   0  0  0  0  0  0  0  0  0  0  0  0
    7.7185  -14.8839   23.6752 C   0  0  2  0  0  0  0  0  0  0  0  0
    6.5031  -15.6549   23.5131 N   0  0  0  0  0  0  0  0  0  0  0  0
    8.8292  -15.6337   24.2585 C   0  0  0  0  0  0  0  0  0  0  0  0
    9.9550  -15.0655   24.2879 O   0  0  0  0  0  0  0  0  0  0  0  0
    8.7652  -16.9409   24.7961 N   0  0  0  0  0  0  0  0  0  0  0  0
    9.9504  -17.6079   25.3289 C   0  0  1  0  0  0  0  0  0  0  0  0
    9.7547  -17.9612   26.7971 C   0  0  0  0  0  0  0  0  0  0  0  0
   10.4551  -17.0010   27.6821 C   0  0  0  0  0  0  0  0  0  0  0  0
   11.0912  -16.0390   27.1891 O   0  0  0  0  0  0  0  0  0  0  0  0
   10.2017  -18.8831   24.6088 C   0  0  0  0  0  0  0  0  0  0  0  0
   11.3338  -19.6381   24.8685 O   0  0  0  0  0  0  0  0  0  0  0  0
   10.4327  -17.1296   29.0543 O   0  0  0  0  0  0  0  0  0  0  0  0
    9.3987  -19.3175   23.7432 O   0  0  0  0  0  0  0  0  0  0  0  0
  2  1  1  0
  3  2  1  0
  3  4  2  0
  6  5  1  1
  6  7  1  0
  7  3  1  0
  8  6  1  0
  9  8  2  0
 10  8  1  0
 11 12  1  1
 11 10  1  0
 12 13  1  0
 13 14  2  0
 15 16  1  0
 15 11  1  0
 17 13  1  0
 18 15  2  0
M  END
$$$$
