GAD.pdb
     RDKit          3D

 18 17  0  0  1  0  0  0  0  0999 V2000
   13.3149  -15.0989   14.9569 N   0  0  0  0  0  0  0  0  0  0  0  0
   12.2649  -15.5479   15.8497 C   0  0  0  0  0  0  0  0  0  0  0  0
   12.5146  -15.0060   17.2086 C   0  0  0  0  0  0  0  0  0  0  0  0
   13.5983  -14.3889   17.4634 O   0  0  0  0  0  0  0  0  0  0  0  0
   10.6199  -14.7194   20.4490 C   0  0  0  0  0  0  0  0  0  0  0  0
   11.8626  -14.5414   19.5882 C   0  0  2  0  0  0  0  0  0  0  0  0
   11.5997  -15.1286   18.2905 N   0  0  0  0  0  0  0  0  0  0  0  0
   12.9930  -15.1379   20.2968 C   0  0  0  0  0  0  0  0  0  0  0  0
   13.2569  -16.3458   20.0466 O   0  0  0  0  0  0  0  0  0  0  0  0
   13.8246  -14.4903   21.2406 N   0  0  0  0  0  0  0  0  0  0  0  0
   15.0403  -15.1206   21.7490 C   0  0  1  0  0  0  0  0  0  0  0  0
   16.1210  -14.0784   22.0033 C   0  0  0  0  0  0  0  0  0  0  0  0
   17.3809  -14.7075   22.4642 C   0  0  0  0  0  0  0  0  0  0  0  0
   17.5043  -15.9556   22.4478 O   0  0  0  0  0  0  0  0  0  0  0  0
   14.7774  -15.7940   23.0471 C   0  0  0  0  0  0  0  0  0  0  0  0
   15.4866  -16.9235   23.4216 O   0  0  0  0  0  0  0  0  0  0  0  0
   18.4429  -13.9560   22.9197 O   0  0  0  0  0  0  0  0  0  0  0  0
   13.9058  -15.3631   23.8456 O   0  0  0  0  0  0  0  0  0  0  0  0
  2  1  1  0
  3  2  1  0
  3  4  2  0
  6  5  1  1
  6  7  1  0
  7  3  1  0
  8  6  1  0
  9  8  2  0
 10  8  1  0
 11 12  1  1
 11 10  1  0
 12 13  1  0
 13 14  2  0
 15 16  1  0
 15 11  1  0
 17 13  1  0
 18 15  2  0
M  END
$$$$
