GAD.pdb
     RDKit          3D

 18 17  0  0  1  0  0  0  0  0999 V2000
    5.9666  -18.7137   21.4483 N   0  0  0  0  0  0  0  0  0  0  0  0
    5.5443  -17.9312   22.5931 C   0  0  0  0  0  0  0  0  0  0  0  0
    6.5590  -16.8840   22.8697 C   0  0  0  0  0  0  0  0  0  0  0  0
    7.6839  -16.9084   22.2747 O   0  0  0  0  0  0  0  0  0  0  0  0
    6.8405  -13.7998   25.0114 C   0  0  0  0  0  0  0  0  0  0  0  0
    7.4265  -14.8921   24.1281 C   0  0  2  0  0  0  0  0  0  0  0  0
    6.3626  -15.8132   23.7849 N   0  0  0  0  0  0  0  0  0  0  0  0
    8.5407  -15.5063   24.8473 C   0  0  0  0  0  0  0  0  0  0  0  0
    9.5525  -14.7854   25.0656 O   0  0  0  0  0  0  0  0  0  0  0  0
    8.5960  -16.8370   25.3251 N   0  0  0  0  0  0  0  0  0  0  0  0
    9.8020  -17.3769   25.9476 C   0  0  1  0  0  0  0  0  0  0  0  0
    9.5681  -17.6491   27.4275 C   0  0  0  0  0  0  0  0  0  0  0  0
   10.7940  -18.1621   28.0831 C   0  0  0  0  0  0  0  0  0  0  0  0
   11.8890  -18.1454   27.4717 O   0  0  0  0  0  0  0  0  0  0  0  0
   10.1771  -18.6730   25.3253 C   0  0  0  0  0  0  0  0  0  0  0  0
   11.3934  -19.2738   25.6059 O   0  0  0  0  0  0  0  0  0  0  0  0
   10.7739  -18.6672   29.3654 O   0  0  0  0  0  0  0  0  0  0  0  0
    9.4065  -19.2650   24.5263 O   0  0  0  0  0  0  0  0  0  0  0  0
  2  1  1  0
  3  2  1  0
  3  4  2  0
  6  5  1  1
  6  7  1  0
  7  3  1  0
  8  6  1  0
  9  8  2  0
 10  8  1  0
 11 12  1  1
 11 10  1  0
 12 13  1  0
 13 14  2  0
 15 16  1  0
 15 11  1  0
 17 13  1  0
 18 15  2  0
M  END
$$$$
