GAD.pdb
     RDKit          3D

 18 17  0  0  1  0  0  0  0  0999 V2000
    2.1771  -19.5101   20.8163 N   0  0  0  0  0  0  0  0  0  0  0  0
    2.6322  -18.6021   21.8505 C   0  0  0  0  0  0  0  0  0  0  0  0
    4.0745  -18.3159   21.6489 C   0  0  0  0  0  0  0  0  0  0  0  0
    4.7346  -18.9446   20.7605 O   0  0  0  0  0  0  0  0  0  0  0  0
    6.5995  -15.7917   22.7464 C   0  0  0  0  0  0  0  0  0  0  0  0
    6.2334  -17.1816   22.2454 C   0  0  2  0  0  0  0  0  0  0  0  0
    4.8040  -17.3552   22.4021 N   0  0  0  0  0  0  0  0  0  0  0  0
    7.0384  -18.1544   22.9814 C   0  0  0  0  0  0  0  0  0  0  0  0
    8.2632  -18.2274   22.6888 O   0  0  0  0  0  0  0  0  0  0  0  0
    6.5763  -19.0265   23.9952 N   0  0  0  0  0  0  0  0  0  0  0  0
    7.4364  -20.0599   24.5661 C   0  0  1  0  0  0  0  0  0  0  0  0
    7.6029  -19.8534   26.0656 C   0  0  0  0  0  0  0  0  0  0  0  0
    8.7581  -18.9750   26.3653 C   0  0  0  0  0  0  0  0  0  0  0  0
    9.8321  -19.1090   25.7314 O   0  0  0  0  0  0  0  0  0  0  0  0
    6.8326  -21.4048   24.3810 C   0  0  0  0  0  0  0  0  0  0  0  0
    7.5196  -22.5516   24.7442 O   0  0  0  0  0  0  0  0  0  0  0  0
    8.6938  -17.9972   27.3346 O   0  0  0  0  0  0  0  0  0  0  0  0
    5.6829  -21.5464   23.8901 O   0  0  0  0  0  0  0  0  0  0  0  0
  2  1  1  0
  3  2  1  0
  3  4  2  0
  6  5  1  1
  6  7  1  0
  7  3  1  0
  8  6  1  0
  9  8  2  0
 10  8  1  0
 11 12  1  1
 11 10  1  0
 12 13  1  0
 13 14  2  0
 15 16  1  0
 15 11  1  0
 17 13  1  0
 18 15  2  0
M  END
$$$$
