GAD.pdb
     RDKit          3D

 18 17  0  0  1  0  0  0  0  0999 V2000
   -2.1232  -28.6666   32.1248 N   0  0  0  0  0  0  0  0  0  0  0  0
   -2.9934  -27.5858   32.5440 C   0  0  0  0  0  0  0  0  0  0  0  0
   -4.1095  -27.4537   31.5746 C   0  0  0  0  0  0  0  0  0  0  0  0
   -3.8721  -27.1516   30.3611 O   0  0  0  0  0  0  0  0  0  0  0  0
   -7.6939  -28.4093   31.3699 C   0  0  0  0  0  0  0  0  0  0  0  0
   -6.5341  -27.5285   30.9274 C   0  0  2  0  0  0  0  0  0  0  0  0
   -5.4777  -27.6464   31.9113 N   0  0  0  0  0  0  0  0  0  0  0  0
   -7.0400  -26.1685   30.7529 C   0  0  0  0  0  0  0  0  0  0  0  0
   -7.8425  -25.9704   29.8000 O   0  0  0  0  0  0  0  0  0  0  0  0
   -6.7162  -25.0466   31.5520 N   0  0  0  0  0  0  0  0  0  0  0  0
   -7.2025  -23.7086   31.2252 C   0  0  1  0  0  0  0  0  0  0  0  0
   -6.6657  -23.2559   29.8740 C   0  0  0  0  0  0  0  0  0  0  0  0
   -7.0396  -21.8511   29.5869 C   0  0  0  0  0  0  0  0  0  0  0  0
   -7.4546  -21.1090   30.5090 O   0  0  0  0  0  0  0  0  0  0  0  0
   -8.6849  -23.7003   31.1245 C   0  0  0  0  0  0  0  0  0  0  0  0
   -9.3724  -22.5392   30.8114 O   0  0  0  0  0  0  0  0  0  0  0  0
   -6.9465  -21.3203   28.3183 O   0  0  0  0  0  0  0  0  0  0  0  0
   -9.3620  -24.7426   31.3196 O   0  0  0  0  0  0  0  0  0  0  0  0
  2  1  1  0
  3  2  1  0
  3  4  2  0
  6  5  1  1
  6  7  1  0
  7  3  1  0
  8  6  1  0
  9  8  2  0
 10  8  1  0
 11 12  1  6
 11 10  1  0
 12 13  1  0
 13 14  2  0
 15 16  1  0
 15 11  1  0
 17 13  1  0
 18 15  2  0
M  END
$$$$
