GAD.pdb
     RDKit          3D

 18 17  0  0  1  0  0  0  0  0999 V2000
    6.7229  -18.0848   17.4908 N   0  0  0  0  0  0  0  0  0  0  0  0
    6.1284  -17.0699   18.3379 C   0  0  0  0  0  0  0  0  0  0  0  0
    7.2046  -16.2401   18.9345 C   0  0  0  0  0  0  0  0  0  0  0  0
    8.4054  -16.6621   18.9497 O   0  0  0  0  0  0  0  0  0  0  0  0
    7.5465  -12.7922   20.3958 C   0  0  0  0  0  0  0  0  0  0  0  0
    8.0644  -14.1945   20.1090 C   0  0  2  0  0  0  0  0  0  0  0  0
    6.9882  -14.9591   19.5131 N   0  0  0  0  0  0  0  0  0  0  0  0
    8.5740  -14.7531   21.3597 C   0  0  0  0  0  0  0  0  0  0  0  0
    7.7231  -15.1138   22.2182 O   0  0  0  0  0  0  0  0  0  0  0  0
    9.9350  -14.9299   21.7037 N   0  0  0  0  0  0  0  0  0  0  0  0
   10.3431  -15.8476   22.7643 C   0  0  1  0  0  0  0  0  0  0  0  0
    9.9025  -17.2697   22.4445 C   0  0  0  0  0  0  0  0  0  0  0  0
   10.2874  -18.2103   23.5229 C   0  0  0  0  0  0  0  0  0  0  0  0
   10.7540  -17.7738   24.6022 O   0  0  0  0  0  0  0  0  0  0  0  0
   11.8231  -15.8739   22.8931 C   0  0  0  0  0  0  0  0  0  0  0  0
   12.4289  -16.0736   24.1228 O   0  0  0  0  0  0  0  0  0  0  0  0
   10.1488  -19.5742   23.3798 O   0  0  0  0  0  0  0  0  0  0  0  0
   12.5719  -15.7162   21.8945 O   0  0  0  0  0  0  0  0  0  0  0  0
  2  1  1  0
  3  2  1  0
  3  4  2  0
  6  5  1  1
  6  7  1  0
  7  3  1  0
  8  6  1  0
  9  8  2  0
 10  8  1  0
 11 12  1  6
 11 10  1  0
 12 13  1  0
 13 14  2  0
 15 16  1  0
 15 11  1  0
 17 13  1  0
 18 15  2  0
M  END
$$$$
