GAD.pdb
     RDKit          3D

 18 17  0  0  1  0  0  0  0  0999 V2000
    5.8391  -13.0181   26.7428 N   0  0  0  0  0  0  0  0  0  0  0  0
    6.6510  -12.4763   25.6711 C   0  0  0  0  0  0  0  0  0  0  0  0
    6.7350  -13.4702   24.5721 C   0  0  0  0  0  0  0  0  0  0  0  0
    6.2703  -14.6443   24.7327 O   0  0  0  0  0  0  0  0  0  0  0  0
    7.7150  -13.5444   20.9558 C   0  0  0  0  0  0  0  0  0  0  0  0
    7.4674  -14.2277   22.2932 C   0  0  2  0  0  0  0  0  0  0  0  0
    7.3182  -13.2004   23.3033 N   0  0  0  0  0  0  0  0  0  0  0  0
    8.5715  -15.1531   22.5396 C   0  0  0  0  0  0  0  0  0  0  0  0
    8.7011  -16.1207   21.7408 O   0  0  0  0  0  0  0  0  0  0  0  0
    9.5140  -15.0695   23.5916 N   0  0  0  0  0  0  0  0  0  0  0  0
   10.5921  -16.0450   23.7322 C   0  0  1  0  0  0  0  0  0  0  0  0
   11.9496  -15.3728   23.5773 C   0  0  0  0  0  0  0  0  0  0  0  0
   12.9766  -16.3311   23.1054 C   0  0  0  0  0  0  0  0  0  0  0  0
   12.6732  -17.5316   22.9060 O   0  0  0  0  0  0  0  0  0  0  0  0
   10.5681  -16.6607   25.0843 C   0  0  0  0  0  0  0  0  0  0  0  0
   11.3028  -17.8018   25.3619 O   0  0  0  0  0  0  0  0  0  0  0  0
   14.2789  -15.9433   22.8737 O   0  0  0  0  0  0  0  0  0  0  0  0
    9.8827  -16.1687   26.0176 O   0  0  0  0  0  0  0  0  0  0  0  0
  2  1  1  0
  3  2  1  0
  3  4  2  0
  6  5  1  6
  6  7  1  0
  7  3  1  0
  8  6  1  0
  9  8  2  0
 10  8  1  0
 11 12  1  1
 11 10  1  0
 12 13  1  0
 13 14  2  0
 15 16  1  0
 15 11  1  0
 17 13  1  0
 18 15  2  0
M  END
$$$$
