GAD.pdb
     RDKit          3D

 18 17  0  0  1  0  0  0  0  0999 V2000
    8.9322  -14.9921   15.1814 N   0  0  0  0  0  0  0  0  0  0  0  0
    7.9072  -14.9521   16.2055 C   0  0  0  0  0  0  0  0  0  0  0  0
    8.4870  -14.4002   17.4553 C   0  0  0  0  0  0  0  0  0  0  0  0
    9.7482  -14.2790   17.5779 O   0  0  0  0  0  0  0  0  0  0  0  0
    7.2411  -13.0060   20.7192 C   0  0  0  0  0  0  0  0  0  0  0  0
    8.3165  -13.6241   19.8370 C   0  0  2  0  0  0  0  0  0  0  0  0
    7.7106  -13.9799   18.5703 N   0  0  0  0  0  0  0  0  0  0  0  0
    8.9002  -14.7529   20.5589 C   0  0  0  0  0  0  0  0  0  0  0  0
    8.3838  -15.8878   20.3677 O   0  0  0  0  0  0  0  0  0  0  0  0
    9.9932  -14.6972   21.4557 N   0  0  0  0  0  0  0  0  0  0  0  0
   10.5038  -15.8965   22.1149 C   0  0  1  0  0  0  0  0  0  0  0  0
   12.0222  -15.8484   22.2187 C   0  0  0  0  0  0  0  0  0  0  0  0
   12.5523  -17.0283   22.9416 C   0  0  0  0  0  0  0  0  0  0  0  0
   12.0442  -18.1602   22.7572 O   0  0  0  0  0  0  0  0  0  0  0  0
    9.9801  -15.9947   23.5020 C   0  0  0  0  0  0  0  0  0  0  0  0
   10.0853  -17.1730   24.2227 O   0  0  0  0  0  0  0  0  0  0  0  0
   13.6037  -16.9249   23.8269 O   0  0  0  0  0  0  0  0  0  0  0  0
    9.4260  -15.0157   24.0654 O   0  0  0  0  0  0  0  0  0  0  0  0
  2  1  1  0
  3  2  1  0
  3  4  2  0
  6  5  1  1
  6  7  1  0
  7  3  1  0
  8  6  1  0
  9  8  2  0
 10  8  1  0
 11 12  1  1
 11 10  1  0
 12 13  1  0
 13 14  2  0
 15 16  1  0
 15 11  1  0
 17 13  1  0
 18 15  2  0
M  END
$$$$
