IGL.pdb
     RDKit          3D

 21 20  0  0  1  0  0  0  0  0999 V2000
    6.2810  -11.2951   26.7389 C   0  0  0  0  0  0  0  0  0  0  0  0
    5.9110  -12.5553   26.0294 C   0  0  0  0  0  0  0  0  0  0  0  0
    7.0691  -13.2911   25.4299 C   0  0  2  0  0  0  0  0  0  0  0  0
    7.8973  -12.4049   24.5189 C   0  0  0  0  0  0  0  0  0  0  0  0
    6.6782  -14.5840   24.7800 C   0  0  2  0  0  0  0  0  0  0  0  0
    5.8264  -15.4113   25.5767 N   0  0  0  0  0  0  0  0  0  0  0  0
    7.8980  -15.2980   24.3387 C   0  0  0  0  0  0  0  0  0  0  0  0
    8.7480  -14.6778   23.6538 O   0  0  0  0  0  0  0  0  0  0  0  0
    8.1463  -16.6679   24.6624 N   0  0  0  0  0  0  0  0  0  0  0  0
    9.4096  -17.2169   24.3013 C   0  0  0  0  0  0  0  0  0  0  0  0
   10.3874  -17.3549   25.3838 C   0  0  0  0  0  0  0  0  0  0  0  0
   11.6150  -17.5469   25.0713 O   0  0  0  0  0  0  0  0  0  0  0  0
    9.3242  -14.5742   29.7966 C   0  0  0  0  0  0  0  0  0  0  0  0
    9.8748  -15.3006   28.6177 C   0  0  1  0  0  0  0  0  0  0  0  0
   10.2192  -14.2373   27.5714 C   0  0  0  0  0  0  0  0  0  0  0  0
   10.9307  -16.2877   28.8062 C   0  0  0  0  0  0  0  0  0  0  0  0
   11.1915  -17.3332   27.8006 C   0  0  2  0  0  0  0  0  0  0  0  0
   10.1160  -17.2977   26.7707 N   0  0  0  0  0  0  0  0  0  0  0  0
   11.4310  -18.7066   28.2164 C   0  0  0  0  0  0  0  0  0  0  0  0
   10.7674  -19.7113   27.9366 O   0  0  0  0  0  0  0  0  0  0  0  0
   12.5496  -18.9588   29.0408 O   0  0  0  0  0  0  0  0  0  0  0  0
  1  2  1  0
  2  3  1  0
  3  5  1  0
  3  4  1  6
  5  6  1  1
  7  5  1  0
  7  9  1  0
  8  7  2  0
 10  9  1  0
 10 11  1  0
 11 18  1  0
 12 11  2  0
 14 13  1  1
 14 15  1  0
 16 14  1  0
 17 16  1  1
 18 17  1  0
 19 21  1  0
 19 17  1  0
 20 19  2  0
M  END
$$$$
