IGL.pdb
     RDKit          3D

 21 20  0  0  1  0  0  0  0  0999 V2000
    7.2198  -11.8175   21.0710 C   0  0  0  0  0  0  0  0  0  0  0  0
    7.4803  -13.2834   21.1781 C   0  0  0  0  0  0  0  0  0  0  0  0
    7.9728  -13.9187   19.9148 C   0  0  2  0  0  0  0  0  0  0  0  0
    7.1123  -13.5531   18.7201 C   0  0  0  0  0  0  0  0  0  0  0  0
    8.1911  -15.3964   20.0398 C   0  0  2  0  0  0  0  0  0  0  0  0
    7.0064  -16.1464   20.3200 N   0  0  0  0  0  0  0  0  0  0  0  0
    9.2616  -15.6506   21.0308 C   0  0  0  0  0  0  0  0  0  0  0  0
   10.3655  -15.0690   20.8917 O   0  0  0  0  0  0  0  0  0  0  0  0
    9.0871  -16.5334   22.1412 N   0  0  0  0  0  0  0  0  0  0  0  0
   10.2087  -16.7652   22.9876 C   0  0  0  0  0  0  0  0  0  0  0  0
   10.1270  -16.2011   24.3375 C   0  0  0  0  0  0  0  0  0  0  0  0
   11.2192  -15.9852   24.9716 O   0  0  0  0  0  0  0  0  0  0  0  0
    6.2488  -12.7657   26.1946 C   0  0  0  0  0  0  0  0  0  0  0  0
    7.5595  -13.4652   26.0783 C   0  0  1  0  0  0  0  0  0  0  0  0
    8.6409  -12.4115   26.3315 C   0  0  0  0  0  0  0  0  0  0  0  0
    7.7823  -14.7074   26.8078 C   0  0  0  0  0  0  0  0  0  0  0  0
    8.9252  -15.5848   26.4970 C   0  0  2  0  0  0  0  0  0  0  0  0
    8.9437  -15.8607   25.0333 N   0  0  0  0  0  0  0  0  0  0  0  0
    9.1201  -16.8233   27.2348 C   0  0  0  0  0  0  0  0  0  0  0  0
    8.8909  -17.9773   26.8554 O   0  0  0  0  0  0  0  0  0  0  0  0
    9.6325  -16.7333   28.5478 O   0  0  0  0  0  0  0  0  0  0  0  0
  1  2  1  0
  2  3  1  0
  3  5  1  0
  3  4  1  6
  5  6  1  1
  7  5  1  0
  7  9  1  0
  8  7  2  0
 10  9  1  0
 10 11  1  0
 11 18  1  0
 12 11  2  0
 14 13  1  1
 14 15  1  0
 16 14  1  0
 17 16  1  1
 18 17  1  0
 19 21  1  0
 19 17  1  0
 20 19  2  0
M  END
$$$$
