IGL.pdb
     RDKit          3D

 21 20  0  0  1  0  0  0  0  0999 V2000
    8.2029  -11.8091   19.7806 C   0  0  0  0  0  0  0  0  0  0  0  0
    7.4756  -13.0383   20.2147 C   0  0  0  0  0  0  0  0  0  0  0  0
    8.3626  -14.1980   20.5464 C   0  0  2  0  0  0  0  0  0  0  0  0
    9.2085  -14.6254   19.3618 C   0  0  0  0  0  0  0  0  0  0  0  0
    7.6305  -15.3434   21.1777 C   0  0  2  0  0  0  0  0  0  0  0  0
    6.5672  -14.9547   22.0513 N   0  0  0  0  0  0  0  0  0  0  0  0
    8.6038  -16.2380   21.8448 C   0  0  0  0  0  0  0  0  0  0  0  0
    9.4708  -16.8176   21.1458 O   0  0  0  0  0  0  0  0  0  0  0  0
    8.5949  -16.4680   23.2555 N   0  0  0  0  0  0  0  0  0  0  0  0
    9.7708  -17.0114   23.8468 C   0  0  0  0  0  0  0  0  0  0  0  0
    9.7800  -17.0929   25.3098 C   0  0  0  0  0  0  0  0  0  0  0  0
   10.8874  -17.3620   25.8953 O   0  0  0  0  0  0  0  0  0  0  0  0
   11.0664  -13.4612   27.7385 C   0  0  0  0  0  0  0  0  0  0  0  0
   10.0907  -14.5779   27.5911 C   0  0  1  0  0  0  0  0  0  0  0  0
    9.4460  -14.7788   28.9651 C   0  0  0  0  0  0  0  0  0  0  0  0
    9.1256  -14.5543   26.4989 C   0  0  0  0  0  0  0  0  0  0  0  0
    8.0571  -15.5644   26.3976 C   0  0  2  0  0  0  0  0  0  0  0  0
    8.6712  -16.9017   26.1668 N   0  0  0  0  0  0  0  0  0  0  0  0
    6.9463  -15.3667   25.4794 C   0  0  0  0  0  0  0  0  0  0  0  0
    6.6854  -16.0065   24.4543 O   0  0  0  0  0  0  0  0  0  0  0  0
    6.0352  -14.3256   25.7634 O   0  0  0  0  0  0  0  0  0  0  0  0
  1  2  1  0
  2  3  1  0
  3  5  1  0
  3  4  1  6
  5  6  1  1
  7  5  1  0
  7  9  1  0
  8  7  2  0
 10  9  1  0
 10 11  1  0
 11 18  1  0
 12 11  2  0
 14 13  1  1
 14 15  1  0
 16 14  1  0
 17 16  1  6
 18 17  1  0
 19 21  1  0
 19 17  1  0
 20 19  2  0
M  END
$$$$
