IGL.pdb
     RDKit          3D

 21 20  0  0  1  0  0  0  0  0999 V2000
    7.5459  -12.0346   19.3439 C   0  0  0  0  0  0  0  0  0  0  0  0
    7.3186  -13.5065   19.4452 C   0  0  0  0  0  0  0  0  0  0  0  0
    8.5631  -14.3333   19.3476 C   0  0  2  0  0  0  0  0  0  0  0  0
    9.3931  -13.9720   18.1303 C   0  0  0  0  0  0  0  0  0  0  0  0
    8.3070  -15.8061   19.4567 C   0  0  2  0  0  0  0  0  0  0  0  0
    7.5840  -16.3626   18.3557 N   0  0  0  0  0  0  0  0  0  0  0  0
    7.6574  -16.0948   20.7557 C   0  0  0  0  0  0  0  0  0  0  0  0
    6.4170  -15.9317   20.8615 O   0  0  0  0  0  0  0  0  0  0  0  0
    8.3882  -16.5525   21.8956 N   0  0  0  0  0  0  0  0  0  0  0  0
    7.7222  -16.5541   23.1543 C   0  0  0  0  0  0  0  0  0  0  0  0
    8.3118  -15.7120   24.1984 C   0  0  0  0  0  0  0  0  0  0  0  0
    9.5260  -15.3292   24.0550 O   0  0  0  0  0  0  0  0  0  0  0  0
    5.6753  -11.7422   26.8937 C   0  0  0  0  0  0  0  0  0  0  0  0
    6.7104  -12.6016   26.2530 C   0  0  1  0  0  0  0  0  0  0  0  0
    7.6005  -11.6702   25.4260 C   0  0  0  0  0  0  0  0  0  0  0  0
    7.4639  -13.5504   27.0634 C   0  0  0  0  0  0  0  0  0  0  0  0
    8.3877  -14.5203   26.4484 C   0  0  2  0  0  0  0  0  0  0  0  0
    7.6695  -15.2649   25.3766 N   0  0  0  0  0  0  0  0  0  0  0  0
    9.1336  -15.4515   27.2807 C   0  0  0  0  0  0  0  0  0  0  0  0
   10.0249  -15.1935   28.0976 O   0  0  0  0  0  0  0  0  0  0  0  0
    8.8278  -16.8256   27.1674 O   0  0  0  0  0  0  0  0  0  0  0  0
  1  2  1  0
  2  3  1  0
  3  5  1  0
  3  4  1  6
  5  6  1  6
  7  5  1  0
  7  9  1  0
  8  7  2  0
 10  9  1  0
 10 11  1  0
 11 18  1  0
 12 11  2  0
 14 13  1  1
 14 15  1  0
 16 14  1  0
 17 16  1  1
 18 17  1  0
 19 21  1  0
 19 17  1  0
 20 19  2  0
M  END
$$$$
