AGY.pdb
     RDKit          3D

 22 22  0  0  1  0  0  0  0  0999 V2000
   24.1675    9.7828  -10.6143 C   0  0  0  0  0  0  0  0  0  0  0  0
   24.3666    8.7678   -9.5209 C   0  0  2  0  0  0  0  0  0  0  0  0
   25.5131    7.9501   -9.8687 N   0  0  0  0  0  0  0  0  0  0  0  0
   23.1373    7.9022   -9.4630 C   0  0  0  0  0  0  0  0  0  0  0  0
   22.0200    8.4013   -9.1751 O   0  0  0  0  0  0  0  0  0  0  0  0
   23.2063    6.5135   -9.7292 N   0  0  0  0  0  0  0  0  0  0  0  0
   22.0216    5.6665   -9.6464 C   0  0  0  0  0  0  0  0  0  0  0  0
   22.2134    4.5003  -10.5510 C   0  0  0  0  0  0  0  0  0  0  0  0
   23.1374    4.4894  -11.4110 O   0  0  0  0  0  0  0  0  0  0  0  0
   26.4324    1.5414   -7.2150 O   0  0  0  0  0  0  0  0  0  0  0  0
   25.2743    1.4195   -8.0065 C   0  0  0  0  0  0  0  0  0  0  0  0
   24.0189    1.5067   -7.4297 C   0  0  0  0  0  0  0  0  0  0  0  0
   22.8526    1.3886   -8.1957 C   0  0  0  0  0  0  0  0  0  0  0  0
   22.9727    1.1815   -9.5506 C   0  0  0  0  0  0  0  0  0  0  0  0
   21.7529    1.0535  -10.3716 C   0  0  0  0  0  0  0  0  0  0  0  0
   21.5239    2.2234  -11.3026 C   0  0  2  0  0  0  0  0  0  0  0  0
   21.3484    3.3857  -10.4478 N   0  0  0  0  0  0  0  0  0  0  0  0
   20.3348    2.0911  -12.1432 C   0  0  0  0  0  0  0  0  0  0  0  0
   19.3520    2.8432  -11.9499 O   0  0  0  0  0  0  0  0  0  0  0  0
   24.2297    1.0980  -10.1036 C   0  0  0  0  0  0  0  0  0  0  0  0
   25.3854    1.2138   -9.3526 C   0  0  0  0  0  0  0  0  0  0  0  0
   20.2480    1.1566  -13.1581 O   0  0  0  0  0  0  0  0  0  0  0  0
  2  1  1  6
  2  4  1  0
  2  3  1  0
  4  6  1  0
  5  4  2  0
  6  7  1  0
  7  8  1  0
  8 17  1  0
  9  8  2  0
 10 11  1  0
 11 12  2  0
 11 21  1  0
 12 13  1  0
 13 14  2  0
 14 15  1  0
 16 15  1  1
 16 18  1  0
 17 16  1  0
 18 19  2  0
 18 22  1  0
 20 14  1  0
 21 20  2  0
M  END
$$$$
