AGY.pdb
     RDKit          3D

 22 22  0  0  1  0  0  0  0  0999 V2000
   22.6577  -19.0692  -21.2216 C   0  0  0  0  0  0  0  0  0  0  0  0
   23.7638  -18.7181  -20.2632 C   0  0  2  0  0  0  0  0  0  0  0  0
   24.7365  -19.7941  -20.2841 N   0  0  0  0  0  0  0  0  0  0  0  0
   23.1674  -18.6134  -18.8857 C   0  0  0  0  0  0  0  0  0  0  0  0
   22.0616  -18.0412  -18.7125 O   0  0  0  0  0  0  0  0  0  0  0  0
   23.8312  -19.1524  -17.7574 N   0  0  0  0  0  0  0  0  0  0  0  0
   23.2760  -19.0165  -16.4154 C   0  0  0  0  0  0  0  0  0  0  0  0
   22.5328  -20.2632  -16.0858 C   0  0  0  0  0  0  0  0  0  0  0  0
   22.2123  -21.0869  -16.9872 O   0  0  0  0  0  0  0  0  0  0  0  0
   19.5748  -18.7366   -9.0825 O   0  0  0  0  0  0  0  0  0  0  0  0
   20.1725  -19.5731  -10.0445 C   0  0  0  0  0  0  0  0  0  0  0  0
   21.3518  -19.1972  -10.6644 C   0  0  0  0  0  0  0  0  0  0  0  0
   21.9653  -20.0119  -11.6240 C   0  0  0  0  0  0  0  0  0  0  0  0
   21.3711  -21.2099  -11.9479 C   0  0  0  0  0  0  0  0  0  0  0  0
   22.0045  -22.0792  -12.9584 C   0  0  0  0  0  0  0  0  0  0  0  0
   21.5541  -21.7911  -14.3734 C   0  0  2  0  0  0  0  0  0  0  0  0
   22.1790  -20.5319  -14.7427 N   0  0  0  0  0  0  0  0  0  0  0  0
   20.1068  -21.6425  -14.5187 C   0  0  0  0  0  0  0  0  0  0  0  0
   19.5991  -20.4976  -14.5309 O   0  0  0  0  0  0  0  0  0  0  0  0
   20.1994  -21.5644  -11.3199 C   0  0  0  0  0  0  0  0  0  0  0  0
   19.5885  -20.7643  -10.3713 C   0  0  0  0  0  0  0  0  0  0  0  0
   19.2618  -22.7293  -14.6451 O   0  0  0  0  0  0  0  0  0  0  0  0
  2  1  1  6
  2  4  1  0
  2  3  1  0
  4  6  1  0
  5  4  2  0
  6  7  1  0
  7  8  1  0
  8 17  1  0
  9  8  2  0
 10 11  1  0
 11 12  2  0
 11 21  1  0
 12 13  1  0
 13 14  2  0
 14 15  1  0
 16 15  1  1
 16 18  1  0
 17 16  1  0
 18 19  2  0
 18 22  1  0
 20 14  1  0
 21 20  2  0
M  END
$$$$
