AGY.pdb
     RDKit          3D

 22 22  0  0  1  0  0  0  0  0999 V2000
   21.4597  -19.9998  -13.4607 C   0  0  0  0  0  0  0  0  0  0  0  0
   22.2929  -20.8706  -14.3623 C   0  0  2  0  0  0  0  0  0  0  0  0
   21.8728  -22.2462  -14.1739 N   0  0  0  0  0  0  0  0  0  0  0  0
   23.7312  -20.7280  -13.9442 C   0  0  0  0  0  0  0  0  0  0  0  0
   24.2466  -19.5888  -13.8143 O   0  0  0  0  0  0  0  0  0  0  0  0
   24.5355  -21.8645  -13.6881 N   0  0  0  0  0  0  0  0  0  0  0  0
   25.9411  -21.7308  -13.3219 C   0  0  0  0  0  0  0  0  0  0  0  0
   26.0572  -21.8697  -11.8446 C   0  0  0  0  0  0  0  0  0  0  0  0
   25.6490  -22.9085  -11.2549 O   0  0  0  0  0  0  0  0  0  0  0  0
   28.9503  -19.8757   -3.6955 O   0  0  0  0  0  0  0  0  0  0  0  0
   28.6863  -19.9043   -5.0783 C   0  0  0  0  0  0  0  0  0  0  0  0
   29.2986  -20.8441   -5.8894 C   0  0  0  0  0  0  0  0  0  0  0  0
   29.0522  -20.8926   -7.2670 C   0  0  0  0  0  0  0  0  0  0  0  0
   28.1797  -19.9793   -7.8125 C   0  0  0  0  0  0  0  0  0  0  0  0
   27.9104  -20.0164   -9.2631 C   0  0  0  0  0  0  0  0  0  0  0  0
   26.7699  -20.9338   -9.6443 C   0  0  2  0  0  0  0  0  0  0  0  0
   26.6333  -20.8230  -11.0871 N   0  0  0  0  0  0  0  0  0  0  0  0
   25.4894  -20.5761   -9.0357 C   0  0  0  0  0  0  0  0  0  0  0  0
   25.1485  -21.1047   -7.9525 O   0  0  0  0  0  0  0  0  0  0  0  0
   27.5819  -19.0538   -6.9886 C   0  0  0  0  0  0  0  0  0  0  0  0
   27.8210  -19.0006   -5.6273 C   0  0  0  0  0  0  0  0  0  0  0  0
   24.6256  -19.6650   -9.6142 O   0  0  0  0  0  0  0  0  0  0  0  0
  2  1  1  1
  2  4  1  0
  2  3  1  0
  4  6  1  0
  5  4  2  0
  6  7  1  0
  7  8  1  0
  8 17  1  0
  9  8  2  0
 10 11  1  0
 11 12  2  0
 11 21  1  0
 12 13  1  0
 13 14  2  0
 14 15  1  0
 16 15  1  1
 16 18  1  0
 17 16  1  0
 18 19  2  0
 18 22  1  0
 20 14  1  0
 21 20  2  0
M  END
$$$$
