AGY.pdb
     RDKit          3D

 22 22  0  0  1  0  0  0  0  0999 V2000
   26.1179  -39.0371  -10.5219 C   0  0  0  0  0  0  0  0  0  0  0  0
   25.4476  -37.8126   -9.9594 C   0  0  2  0  0  0  0  0  0  0  0  0
   26.2838  -36.6649  -10.2560 N   0  0  0  0  0  0  0  0  0  0  0  0
   25.3476  -37.9831   -8.4678 C   0  0  0  0  0  0  0  0  0  0  0  0
   24.6818  -38.9304   -7.9784 O   0  0  0  0  0  0  0  0  0  0  0  0
   25.9960  -37.0878   -7.5833 N   0  0  0  0  0  0  0  0  0  0  0  0
   25.7659  -37.1453   -6.1440 C   0  0  0  0  0  0  0  0  0  0  0  0
   26.7144  -36.2110   -5.4788 C   0  0  0  0  0  0  0  0  0  0  0  0
   27.9510  -36.2524   -5.7287 O   0  0  0  0  0  0  0  0  0  0  0  0
   26.2090  -32.2802  -10.0255 O   0  0  0  0  0  0  0  0  0  0  0  0
   26.2822  -32.4368   -8.6282 C   0  0  0  0  0  0  0  0  0  0  0  0
   27.4905  -32.7263   -8.0177 C   0  0  0  0  0  0  0  0  0  0  0  0
   27.5887  -32.8866   -6.6301 C   0  0  0  0  0  0  0  0  0  0  0  0
   26.4504  -32.7505   -5.8693 C   0  0  0  0  0  0  0  0  0  0  0  0
   26.5370  -32.9178   -4.4055 C   0  0  0  0  0  0  0  0  0  0  0  0
   27.1046  -34.2541   -3.9810 C   0  0  2  0  0  0  0  0  0  0  0  0
   26.2253  -35.2609   -4.5517 N   0  0  0  0  0  0  0  0  0  0  0  0
   27.1446  -34.4507   -2.5327 C   0  0  0  0  0  0  0  0  0  0  0  0
   27.8595  -33.7044   -1.8251 O   0  0  0  0  0  0  0  0  0  0  0  0
   25.2599  -32.4626   -6.4959 C   0  0  0  0  0  0  0  0  0  0  0  0
   25.1563  -32.3031   -7.8659 C   0  0  0  0  0  0  0  0  0  0  0  0
   26.4152  -35.4410   -1.9014 O   0  0  0  0  0  0  0  0  0  0  0  0
  2  1  1  6
  2  4  1  0
  2  3  1  0
  4  6  1  0
  5  4  2  0
  6  7  1  0
  7  8  1  0
  8 17  1  0
  9  8  2  0
 10 11  1  0
 11 12  2  0
 11 21  1  0
 12 13  1  0
 13 14  2  0
 14 15  1  0
 16 15  1  1
 16 18  1  0
 17 16  1  0
 18 19  2  0
 18 22  1  0
 20 14  1  0
 21 20  2  0
M  END
$$$$
