AGY.pdb
     RDKit          3D

 22 22  0  0  1  0  0  0  0  0999 V2000
   21.1097  -12.0622  -18.4288 C   0  0  0  0  0  0  0  0  0  0  0  0
   21.2971  -10.9195  -17.4673 C   0  0  2  0  0  0  0  0  0  0  0  0
   19.9926  -10.3542  -17.1796 N   0  0  0  0  0  0  0  0  0  0  0  0
   22.1513   -9.8811  -18.1427 C   0  0  0  0  0  0  0  0  0  0  0  0
   23.3647  -10.1099  -18.3785 O   0  0  0  0  0  0  0  0  0  0  0  0
   21.6147   -8.6288  -18.5275 N   0  0  0  0  0  0  0  0  0  0  0  0
   22.4553   -7.5942  -19.1196 C   0  0  0  0  0  0  0  0  0  0  0  0
   22.1038   -6.2892  -18.4964 C   0  0  0  0  0  0  0  0  0  0  0  0
   21.6909   -5.3240  -19.1973 O   0  0  0  0  0  0  0  0  0  0  0  0
   19.2844   -8.9115  -12.0252 O   0  0  0  0  0  0  0  0  0  0  0  0
   19.5287   -7.9807  -13.0530 C   0  0  0  0  0  0  0  0  0  0  0  0
   19.2960   -8.3191  -14.3750 C   0  0  0  0  0  0  0  0  0  0  0  0
   19.5312   -7.4109  -15.4145 C   0  0  0  0  0  0  0  0  0  0  0  0
   20.0042   -6.1578  -15.0998 C   0  0  0  0  0  0  0  0  0  0  0  0
   20.2585   -5.1895  -16.1842 C   0  0  0  0  0  0  0  0  0  0  0  0
   21.7279   -4.9337  -16.4357 C   0  0  2  0  0  0  0  0  0  0  0  0
   22.2333   -6.1252  -17.0972 N   0  0  0  0  0  0  0  0  0  0  0  0
   22.5114   -4.7195  -15.2199 C   0  0  0  0  0  0  0  0  0  0  0  0
   23.3759   -5.5609  -14.8830 O   0  0  0  0  0  0  0  0  0  0  0  0
   20.2287   -5.8419  -13.7797 C   0  0  0  0  0  0  0  0  0  0  0  0
   19.9983   -6.7343  -12.7484 C   0  0  0  0  0  0  0  0  0  0  0  0
   22.3356   -3.6102  -14.4138 O   0  0  0  0  0  0  0  0  0  0  0  0
  2  1  1  6
  2  4  1  0
  2  3  1  0
  4  6  1  0
  5  4  2  0
  6  7  1  0
  7  8  1  0
  8 17  1  0
  9  8  2  0
 10 11  1  0
 11 12  2  0
 11 21  1  0
 12 13  1  0
 13 14  2  0
 14 15  1  0
 16 15  1  1
 16 18  1  0
 17 16  1  0
 18 19  2  0
 18 22  1  0
 20 14  1  0
 21 20  2  0
M  END
$$$$
