AGY.pdb
     RDKit          3D

 22 22  0  0  1  0  0  0  0  0999 V2000
   27.1556  -18.0289  -15.6617 C   0  0  0  0  0  0  0  0  0  0  0  0
   26.2981  -18.9946  -14.8889 C   0  0  2  0  0  0  0  0  0  0  0  0
   25.5907  -18.2492  -13.8650 N   0  0  0  0  0  0  0  0  0  0  0  0
   27.2067  -19.9996  -14.2344 C   0  0  0  0  0  0  0  0  0  0  0  0
   27.9248  -20.7588  -14.9331 O   0  0  0  0  0  0  0  0  0  0  0  0
   27.2760  -20.1155  -12.8251 N   0  0  0  0  0  0  0  0  0  0  0  0
   28.0617  -21.1672  -12.1893 C   0  0  0  0  0  0  0  0  0  0  0  0
   27.5503  -21.3646  -10.8056 C   0  0  0  0  0  0  0  0  0  0  0  0
   27.9427  -22.3345  -10.0994 O   0  0  0  0  0  0  0  0  0  0  0  0
   29.5432  -19.8477   -3.7051 O   0  0  0  0  0  0  0  0  0  0  0  0
   28.6979  -19.7316   -4.8252 C   0  0  0  0  0  0  0  0  0  0  0  0
   27.6415  -20.6090   -5.0000 C   0  0  0  0  0  0  0  0  0  0  0  0
   26.7873  -20.5138   -6.1054 C   0  0  0  0  0  0  0  0  0  0  0  0
   27.0152  -19.5210   -7.0303 C   0  0  0  0  0  0  0  0  0  0  0  0
   26.1246  -19.4082   -8.2017 C   0  0  0  0  0  0  0  0  0  0  0  0
   25.9840  -20.6963   -8.9821 C   0  0  2  0  0  0  0  0  0  0  0  0
   26.6101  -20.4527  -10.2710 N   0  0  0  0  0  0  0  0  0  0  0  0
   24.5990  -21.1019   -9.2167 C   0  0  0  0  0  0  0  0  0  0  0  0
   24.0805  -20.9161  -10.3417 O   0  0  0  0  0  0  0  0  0  0  0  0
   28.0705  -18.6596   -6.8375 C   0  0  0  0  0  0  0  0  0  0  0  0
   28.9178  -18.7483   -5.7479 C   0  0  0  0  0  0  0  0  0  0  0  0
   23.8254  -21.6911   -8.2341 O   0  0  0  0  0  0  0  0  0  0  0  0
  2  1  1  1
  2  4  1  0
  2  3  1  0
  4  6  1  0
  5  4  2  0
  6  7  1  0
  7  8  1  0
  8 17  1  0
  9  8  2  0
 10 11  1  0
 11 12  2  0
 11 21  1  0
 12 13  1  0
 13 14  2  0
 14 15  1  0
 16 15  1  1
 16 18  1  0
 17 16  1  0
 18 19  2  0
 18 22  1  0
 20 14  1  0
 21 20  2  0
M  END
$$$$
