AGY.pdb
     RDKit          3D

 22 22  0  0  1  0  0  0  0  0999 V2000
   28.6480  -17.1062  -19.3146 C   0  0  0  0  0  0  0  0  0  0  0  0
   27.6828  -18.0719  -18.6812 C   0  0  2  0  0  0  0  0  0  0  0  0
   27.5241  -17.7013  -17.2878 N   0  0  0  0  0  0  0  0  0  0  0  0
   28.2834  -19.4489  -18.7645 C   0  0  0  0  0  0  0  0  0  0  0  0
   28.2051  -20.1145  -19.8281 O   0  0  0  0  0  0  0  0  0  0  0  0
   28.9475  -20.0265  -17.6556 N   0  0  0  0  0  0  0  0  0  0  0  0
   29.0306  -21.4736  -17.4921 C   0  0  0  0  0  0  0  0  0  0  0  0
   28.2624  -21.8541  -16.2755 C   0  0  0  0  0  0  0  0  0  0  0  0
   28.2537  -23.0454  -15.8580 O   0  0  0  0  0  0  0  0  0  0  0  0
   24.1557  -20.8139   -8.5420 O   0  0  0  0  0  0  0  0  0  0  0  0
   24.9076  -20.6877   -9.7257 C   0  0  0  0  0  0  0  0  0  0  0  0
   26.1074  -21.3629   -9.8692 C   0  0  0  0  0  0  0  0  0  0  0  0
   26.8730  -21.2534  -11.0366 C   0  0  0  0  0  0  0  0  0  0  0  0
   26.4096  -20.4531  -12.0554 C   0  0  0  0  0  0  0  0  0  0  0  0
   27.2055  -20.3261  -13.2917 C   0  0  0  0  0  0  0  0  0  0  0  0
   26.7263  -21.2184  -14.4151 C   0  0  2  0  0  0  0  0  0  0  0  0
   27.5300  -20.8677  -15.5743 N   0  0  0  0  0  0  0  0  0  0  0  0
   25.3182  -21.0334  -14.7628 C   0  0  0  0  0  0  0  0  0  0  0  0
   24.9966  -20.1637  -15.6048 O   0  0  0  0  0  0  0  0  0  0  0  0
   25.2147  -19.7909  -11.8923 C   0  0  0  0  0  0  0  0  0  0  0  0
   24.4540  -19.8949  -10.7418 C   0  0  0  0  0  0  0  0  0  0  0  0
   24.3111  -21.7896  -14.1927 O   0  0  0  0  0  0  0  0  0  0  0  0
  2  1  1  6
  2  4  1  0
  2  3  1  0
  4  6  1  0
  5  4  2  0
  6  7  1  0
  7  8  1  0
  8 17  1  0
  9  8  2  0
 10 11  1  0
 11 12  2  0
 11 21  1  0
 12 13  1  0
 13 14  2  0
 14 15  1  0
 16 15  1  1
 16 18  1  0
 17 16  1  0
 18 19  2  0
 18 22  1  0
 20 14  1  0
 21 20  2  0
M  END
$$$$
