AGY.pdb
     RDKit          3D

 22 22  0  0  1  0  0  0  0  0999 V2000
   24.8957  -20.9946  -17.7362 C   0  0  0  0  0  0  0  0  0  0  0  0
   26.2711  -21.3049  -17.2098 C   0  0  2  0  0  0  0  0  0  0  0  0
   26.3769  -22.7423  -17.0456 N   0  0  0  0  0  0  0  0  0  0  0  0
   26.4149  -20.6390  -15.8683 C   0  0  0  0  0  0  0  0  0  0  0  0
   26.1763  -19.4116  -15.7378 O   0  0  0  0  0  0  0  0  0  0  0  0
   26.8195  -21.3718  -14.7265 N   0  0  0  0  0  0  0  0  0  0  0  0
   27.0277  -20.7162  -13.4403 C   0  0  0  0  0  0  0  0  0  0  0  0
   26.0338  -21.2544  -12.4720 C   0  0  0  0  0  0  0  0  0  0  0  0
   25.7741  -22.4889  -12.4252 O   0  0  0  0  0  0  0  0  0  0  0  0
   28.8548  -20.1219   -6.1196 O   0  0  0  0  0  0  0  0  0  0  0  0
   27.7297  -20.0660   -6.9643 C   0  0  0  0  0  0  0  0  0  0  0  0
   27.3456  -18.8680   -7.5417 C   0  0  0  0  0  0  0  0  0  0  0  0
   26.2306  -18.7871   -8.3850 C   0  0  0  0  0  0  0  0  0  0  0  0
   25.5104  -19.9322   -8.6361 C   0  0  0  0  0  0  0  0  0  0  0  0
   24.3318  -19.8633   -9.5217 C   0  0  0  0  0  0  0  0  0  0  0  0
   24.3677  -20.8624  -10.6568 C   0  0  2  0  0  0  0  0  0  0  0  0
   25.3684  -20.3714  -11.5895 N   0  0  0  0  0  0  0  0  0  0  0  0
   23.1004  -20.9938  -11.3742 C   0  0  0  0  0  0  0  0  0  0  0  0
   22.1061  -21.4847  -10.7917 O   0  0  0  0  0  0  0  0  0  0  0  0
   25.9093  -21.1123   -8.0522 C   0  0  0  0  0  0  0  0  0  0  0  0
   27.0095  -21.1989   -7.2185 C   0  0  0  0  0  0  0  0  0  0  0  0
   22.9508  -20.5931  -12.6888 O   0  0  0  0  0  0  0  0  0  0  0  0
  2  1  1  1
  2  4  1  0
  2  3  1  0
  4  6  1  0
  5  4  2  0
  6  7  1  0
  7  8  1  0
  8 17  1  0
  9  8  2  0
 10 11  1  0
 11 12  2  0
 11 21  1  0
 12 13  1  0
 13 14  2  0
 14 15  1  0
 16 15  1  1
 16 18  1  0
 17 16  1  0
 18 19  2  0
 18 22  1  0
 20 14  1  0
 21 20  2  0
M  END
$$$$
