AGY.pdb
     RDKit          3D

 22 22  0  0  1  0  0  0  0  0999 V2000
   19.3669  -21.0173  -14.6284 C   0  0  0  0  0  0  0  0  0  0  0  0
   20.4371  -20.1081  -14.0868 C   0  0  2  0  0  0  0  0  0  0  0  0
   21.0106  -19.3747  -15.1992 N   0  0  0  0  0  0  0  0  0  0  0  0
   21.4996  -20.9672  -13.4568 C   0  0  0  0  0  0  0  0  0  0  0  0
   21.9129  -22.0003  -14.0417 O   0  0  0  0  0  0  0  0  0  0  0  0
   22.0574  -20.6369  -12.1981 N   0  0  0  0  0  0  0  0  0  0  0  0
   23.1172  -21.4440  -11.6040 C   0  0  0  0  0  0  0  0  0  0  0  0
   24.4186  -20.7644  -11.8482 C   0  0  0  0  0  0  0  0  0  0  0  0
   24.4696  -19.5287  -12.1009 O   0  0  0  0  0  0  0  0  0  0  0  0
   27.4856  -19.0530   -5.8131 O   0  0  0  0  0  0  0  0  0  0  0  0
   27.5759  -19.6570   -7.0817 C   0  0  0  0  0  0  0  0  0  0  0  0
   26.4687  -20.2636   -7.6495 C   0  0  0  0  0  0  0  0  0  0  0  0
   26.5335  -20.8709   -8.9097 C   0  0  0  0  0  0  0  0  0  0  0  0
   27.7312  -20.8565   -9.5868 C   0  0  0  0  0  0  0  0  0  0  0  0
   27.8162  -21.4934  -10.9154 C   0  0  0  0  0  0  0  0  0  0  0  0
   26.9096  -20.8626  -11.9488 C   0  0  2  0  0  0  0  0  0  0  0  0
   25.6183  -21.5123  -11.7971 N   0  0  0  0  0  0  0  0  0  0  0  0
   27.3567  -21.0521  -13.3280 C   0  0  0  0  0  0  0  0  0  0  0  0
   26.8167  -21.9298  -14.0399 O   0  0  0  0  0  0  0  0  0  0  0  0
   28.8192  -20.2483   -9.0045 C   0  0  0  0  0  0  0  0  0  0  0  0
   28.7617  -19.6468   -7.7603 C   0  0  0  0  0  0  0  0  0  0  0  0
   28.3662  -20.2917  -13.8882 O   0  0  0  0  0  0  0  0  0  0  0  0
  2  1  1  6
  2  4  1  0
  2  3  1  0
  4  6  1  0
  5  4  2  0
  6  7  1  0
  7  8  1  0
  8 17  1  0
  9  8  2  0
 10 11  1  0
 11 12  2  0
 11 21  1  0
 12 13  1  0
 13 14  2  0
 14 15  1  0
 16 15  1  1
 16 18  1  0
 17 16  1  0
 18 19  2  0
 18 22  1  0
 20 14  1  0
 21 20  2  0
M  END
$$$$
