AGY.pdb
     RDKit          3D

 22 22  0  0  1  0  0  0  0  0999 V2000
   19.3632  -14.1821  -20.2624 C   0  0  0  0  0  0  0  0  0  0  0  0
   20.5037  -13.9473  -19.3087 C   0  0  2  0  0  0  0  0  0  0  0  0
   20.0251  -14.2009  -17.9631 N   0  0  0  0  0  0  0  0  0  0  0  0
   20.9166  -12.5052  -19.4264 C   0  0  0  0  0  0  0  0  0  0  0  0
   21.4807  -12.0874  -20.4693 O   0  0  0  0  0  0  0  0  0  0  0  0
   20.6824  -11.5882  -18.3736 N   0  0  0  0  0  0  0  0  0  0  0  0
   21.1570  -10.2110  -18.4490 C   0  0  0  0  0  0  0  0  0  0  0  0
   21.4112   -9.7250  -17.0654 C   0  0  0  0  0  0  0  0  0  0  0  0
   21.1320  -10.4402  -16.0633 O   0  0  0  0  0  0  0  0  0  0  0  0
   27.3042  -11.9126  -16.5920 O   0  0  0  0  0  0  0  0  0  0  0  0
   26.4295  -10.8381  -16.3411 C   0  0  0  0  0  0  0  0  0  0  0  0
   26.1068   -9.9469  -17.3500 C   0  0  0  0  0  0  0  0  0  0  0  0
   25.2394   -8.8708  -17.1251 C   0  0  0  0  0  0  0  0  0  0  0  0
   24.7037   -8.7083  -15.8683 C   0  0  0  0  0  0  0  0  0  0  0  0
   23.7889   -7.5782  -15.6148 C   0  0  0  0  0  0  0  0  0  0  0  0
   22.3335   -7.9828  -15.5361 C   0  0  2  0  0  0  0  0  0  0  0  0
   21.9742   -8.4424  -16.8673 N   0  0  0  0  0  0  0  0  0  0  0  0
   21.4314   -6.8916  -15.1708 C   0  0  0  0  0  0  0  0  0  0  0  0
   20.8052   -6.2788  -16.0658 O   0  0  0  0  0  0  0  0  0  0  0  0
   25.0375   -9.6053  -14.8800 C   0  0  0  0  0  0  0  0  0  0  0  0
   25.8935  -10.6702  -15.0957 C   0  0  0  0  0  0  0  0  0  0  0  0
   21.2373   -6.5016  -13.8588 O   0  0  0  0  0  0  0  0  0  0  0  0
  2  1  1  6
  2  4  1  0
  2  3  1  0
  4  6  1  0
  5  4  2  0
  6  7  1  0
  7  8  1  0
  8 17  1  0
  9  8  2  0
 10 11  1  0
 11 12  2  0
 11 21  1  0
 12 13  1  0
 13 14  2  0
 14 15  1  0
 16 15  1  6
 16 18  1  0
 17 16  1  0
 18 19  2  0
 18 22  1  0
 20 14  1  0
 21 20  2  0
M  END
$$$$
