AGY.pdb
     RDKit          3D

 22 22  0  0  1  0  0  0  0  0999 V2000
   28.0890  -17.4545  -18.2976 C   0  0  0  0  0  0  0  0  0  0  0  0
   26.9711  -18.1759  -17.5939 C   0  0  2  0  0  0  0  0  0  0  0  0
   26.0473  -17.1828  -17.0798 N   0  0  0  0  0  0  0  0  0  0  0  0
   27.5662  -18.9438  -16.4448 C   0  0  0  0  0  0  0  0  0  0  0  0
   28.1944  -20.0130  -16.6508 O   0  0  0  0  0  0  0  0  0  0  0  0
   27.4353  -18.4854  -15.1118 N   0  0  0  0  0  0  0  0  0  0  0  0
   28.0366  -19.2114  -13.9987 C   0  0  0  0  0  0  0  0  0  0  0  0
   27.0335  -20.1750  -13.4692 C   0  0  0  0  0  0  0  0  0  0  0  0
   26.3573  -20.9032  -14.2477 O   0  0  0  0  0  0  0  0  0  0  0  0
   28.2686  -18.4766   -6.2320 O   0  0  0  0  0  0  0  0  0  0  0  0
   27.8816  -19.3447   -7.2708 C   0  0  0  0  0  0  0  0  0  0  0  0
   28.8356  -19.9466   -8.0732 C   0  0  0  0  0  0  0  0  0  0  0  0
   28.4756  -20.8135   -9.1124 C   0  0  0  0  0  0  0  0  0  0  0  0
   27.1400  -21.0631   -9.3289 C   0  0  0  0  0  0  0  0  0  0  0  0
   26.7442  -21.9734  -10.4211 C   0  0  0  0  0  0  0  0  0  0  0  0
   25.9544  -21.2954  -11.5186 C   0  0  2  0  0  0  0  0  0  0  0  0
   26.8327  -20.2785  -12.0727 N   0  0  0  0  0  0  0  0  0  0  0  0
   24.7325  -20.6398  -11.0546 C   0  0  0  0  0  0  0  0  0  0  0  0
   24.7052  -19.3935  -10.9333 O   0  0  0  0  0  0  0  0  0  0  0  0
   26.2082  -20.4547   -8.5199 C   0  0  0  0  0  0  0  0  0  0  0  0
   26.5572  -19.5976   -7.4920 C   0  0  0  0  0  0  0  0  0  0  0  0
   23.5882  -21.3485  -10.7393 O   0  0  0  0  0  0  0  0  0  0  0  0
  2  1  1  1
  2  4  1  0
  2  3  1  0
  4  6  1  0
  5  4  2  0
  6  7  1  0
  7  8  1  0
  8 17  1  0
  9  8  2  0
 10 11  1  0
 11 12  2  0
 11 21  1  0
 12 13  1  0
 13 14  2  0
 14 15  1  0
 16 15  1  1
 16 18  1  0
 17 16  1  0
 18 19  2  0
 18 22  1  0
 20 14  1  0
 21 20  2  0
M  END
$$$$
