SRE.pdb
     RDKit          3D

 27 26  0  0  1  0  0  0  0  0999 V2000
   26.5324  -19.9246  -17.0403 O   0  0  0  0  0  0  0  0  0  0  0  0
   25.2171  -20.1986  -16.6682 C   0  0  0  0  0  0  0  0  0  0  0  0
   25.1131  -20.7905  -15.2781 C   0  0  2  0  0  0  0  0  0  0  0  0
   25.5539  -22.1634  -15.3414 N   0  0  0  0  0  0  0  0  0  0  0  0
   23.7206  -20.6533  -14.8262 C   0  0  0  0  0  0  0  0  0  0  0  0
   22.8795  -21.6033  -15.0106 O   0  0  0  0  0  0  0  0  0  0  0  0
   21.4571  -21.3943   -9.0504 N   0  0  0  0  0  0  0  0  0  0  0  0
   20.5841  -20.2975   -8.7670 C   0  0  0  0  0  0  0  0  0  0  0  0
   19.9900  -20.2437   -7.6321 N   0  0  0  0  0  0  0  0  0  0  0  0
   20.3813  -19.2813   -9.7296 N   0  0  0  0  0  0  0  0  0  0  0  0
   20.2115  -19.5781  -11.1337 C   0  0  0  0  0  0  0  0  0  0  0  0
   20.4144  -18.3174  -11.9506 C   0  0  0  0  0  0  0  0  0  0  0  0
   21.7601  -18.3998  -12.6064 C   0  0  0  0  0  0  0  0  0  0  0  0
   21.8257  -19.4658  -13.6699 C   0  0  2  0  0  0  0  0  0  0  0  0
   23.2077  -19.5039  -14.1711 N   0  0  0  0  0  0  0  0  0  0  0  0
   20.9276  -19.0214  -14.7764 C   0  0  0  0  0  0  0  0  0  0  0  0
   21.3189  -18.0564  -15.4771 O   0  0  0  0  0  0  0  0  0  0  0  0
   19.3169  -19.4962   -7.3782 N   0  0  0  0  0  0  0  0  0  0  0  0
   19.6853  -19.6343  -15.0576 C   0  0  2  0  0  0  0  0  0  0  0  0
   18.9364  -19.0887  -16.2115 C   0  0  0  0  0  0  0  0  0  0  0  0
   17.9813  -20.1814  -16.6484 C   0  0  0  0  0  0  0  0  0  0  0  0
   17.1607  -19.7379  -17.8201 C   0  0  0  0  0  0  0  0  0  0  0  0
   16.1755  -20.8063  -18.1856 O   0  0  0  0  0  0  0  0  0  0  0  0
   14.9599  -20.6938  -17.9877 C   0  0  0  0  0  0  0  0  0  0  0  0
   18.2877  -17.8316  -15.8199 O   0  0  0  0  0  0  0  0  0  0  0  0
   17.8785  -16.8541  -16.6946 O   0  0  0  0  0  0  0  0  0  0  0  0
   16.6762  -21.9760  -18.7728 O   0  0  0  0  0  0  0  0  0  0  0  0
  2  1  1  0
  3  4  1  6
  3  2  1  0
  5  3  1  0
  6  5  2  0
  7  8  1  0
  8 10  1  0
  9  8  2  0
 10 11  1  0
 12 11  1  0
 13 12  1  0
 14 13  1  1
 14 15  1  0
 15  5  1  0
 16 14  1  0
 16 17  2  0
 18 16  1  0
 19 18  1  0
 19 20  1  1
 20 21  1  0
 21 22  1  0
 22 26  1  0
 22 23  2  0
 24 19  1  0
 25 24  1  0
 27 24  2  0
M  END
$$$$
