SRE.pdb
     RDKit          3D

 27 26  0  0  1  0  0  0  0  0999 V2000
   25.3549  -18.2186  -17.5172 O   0  0  0  0  0  0  0  0  0  0  0  0
   26.6502  -18.0494  -17.0300 C   0  0  0  0  0  0  0  0  0  0  0  0
   27.3917  -19.3603  -16.8708 C   0  0  2  0  0  0  0  0  0  0  0  0
   27.4382  -20.0083  -18.1596 N   0  0  0  0  0  0  0  0  0  0  0  0
   26.6957  -20.1578  -15.8503 C   0  0  0  0  0  0  0  0  0  0  0  0
   25.9873  -21.1719  -16.1876 O   0  0  0  0  0  0  0  0  0  0  0  0
   29.2936  -21.3836   -7.9373 N   0  0  0  0  0  0  0  0  0  0  0  0
   29.5295  -21.7642   -9.2956 C   0  0  0  0  0  0  0  0  0  0  0  0
   30.7000  -22.1534   -9.6454 N   0  0  0  0  0  0  0  0  0  0  0  0
   28.4797  -21.7135  -10.2421 N   0  0  0  0  0  0  0  0  0  0  0  0
   27.1305  -21.3514   -9.8721 C   0  0  0  0  0  0  0  0  0  0  0  0
   26.2230  -21.4574  -11.0817 C   0  0  0  0  0  0  0  0  0  0  0  0
   26.7808  -20.5777  -12.1600 C   0  0  0  0  0  0  0  0  0  0  0  0
   26.0887  -20.7701  -13.4850 C   0  0  2  0  0  0  0  0  0  0  0  0
   26.7471  -19.8862  -14.4585 N   0  0  0  0  0  0  0  0  0  0  0  0
   24.6793  -20.3140  -13.3013 C   0  0  0  0  0  0  0  0  0  0  0  0
   24.4853  -19.0766  -13.2209 O   0  0  0  0  0  0  0  0  0  0  0  0
   30.9486  -22.3989  -10.6223 N   0  0  0  0  0  0  0  0  0  0  0  0
   23.5833  -21.2027  -13.2190 C   0  0  2  0  0  0  0  0  0  0  0  0
   22.2438  -20.5790  -13.1373 C   0  0  0  0  0  0  0  0  0  0  0  0
   21.2913  -21.5346  -13.8278 C   0  0  0  0  0  0  0  0  0  0  0  0
   19.8844  -21.0249  -13.7672 C   0  0  0  0  0  0  0  0  0  0  0  0
   18.9571  -22.0116  -14.4091 O   0  0  0  0  0  0  0  0  0  0  0  0
   19.3486  -23.0727  -14.9096 C   0  0  0  0  0  0  0  0  0  0  0  0
   21.9204  -20.3036  -11.7323 O   0  0  0  0  0  0  0  0  0  0  0  0
   22.4730  -20.9571  -10.6573 O   0  0  0  0  0  0  0  0  0  0  0  0
   17.5920  -21.6961  -14.4348 O   0  0  0  0  0  0  0  0  0  0  0  0
  2  1  1  0
  3  4  1  6
  3  2  1  0
  5  3  1  0
  6  5  2  0
  7  8  1  0
  8 10  1  0
  9  8  2  0
 10 11  1  0
 12 11  1  0
 13 12  1  0
 14 13  1  1
 14 15  1  0
 15  5  1  0
 16 14  1  0
 16 17  2  0
 18 16  1  0
 19 18  1  0
 19 20  1  6
 20 21  1  0
 21 22  1  0
 22 26  1  0
 22 23  2  0
 24 19  1  0
 25 24  1  0
 27 24  2  0
M  END
$$$$
