SRE.pdb
     RDKit          3D

 27 26  0  0  1  0  0  0  0  0999 V2000
   24.8235  -17.9355  -17.7537 O   0  0  0  0  0  0  0  0  0  0  0  0
   25.9091  -17.4353  -17.0361 C   0  0  0  0  0  0  0  0  0  0  0  0
   26.9185  -18.5063  -16.6791 C   0  0  2  0  0  0  0  0  0  0  0  0
   27.3809  -19.1128  -17.9045 N   0  0  0  0  0  0  0  0  0  0  0  0
   26.2672  -19.4639  -15.7730 C   0  0  0  0  0  0  0  0  0  0  0  0
   25.8037  -20.5723  -16.2207 O   0  0  0  0  0  0  0  0  0  0  0  0
   28.0726  -22.7566  -10.2690 N   0  0  0  0  0  0  0  0  0  0  0  0
   28.4777  -21.4068  -10.0255 C   0  0  0  0  0  0  0  0  0  0  0  0
   29.7272  -21.1281   -9.9561 N   0  0  0  0  0  0  0  0  0  0  0  0
   27.5078  -20.3898   -9.8658 N   0  0  0  0  0  0  0  0  0  0  0  0
   26.0970  -20.6852   -9.7614 C   0  0  0  0  0  0  0  0  0  0  0  0
   25.5501  -21.0556  -11.1257 C   0  0  0  0  0  0  0  0  0  0  0  0
   25.9885  -20.0065  -12.1029 C   0  0  0  0  0  0  0  0  0  0  0  0
   25.5407  -20.2992  -13.5120 C   0  0  2  0  0  0  0  0  0  0  0  0
   26.1034  -19.2534  -14.3794 N   0  0  0  0  0  0  0  0  0  0  0  0
   24.0528  -20.1790  -13.5212 C   0  0  0  0  0  0  0  0  0  0  0  0
   23.5734  -19.0191  -13.5223 O   0  0  0  0  0  0  0  0  0  0  0  0
   30.0885  -20.1615   -9.8492 N   0  0  0  0  0  0  0  0  0  0  0  0
   23.1868  -21.2960  -13.5308 C   0  0  2  0  0  0  0  0  0  0  0  0
   21.7376  -20.9965  -13.5365 C   0  0  0  0  0  0  0  0  0  0  0  0
   21.0483  -22.2594  -14.0129 C   0  0  0  0  0  0  0  0  0  0  0  0
   19.5691  -22.0526  -14.1233 C   0  0  0  0  0  0  0  0  0  0  0  0
   18.9116  -23.3159  -14.5893 O   0  0  0  0  0  0  0  0  0  0  0  0
   19.5369  -24.3650  -14.7848 C   0  0  0  0  0  0  0  0  0  0  0  0
   21.3291  -20.5446  -12.2010 O   0  0  0  0  0  0  0  0  0  0  0  0
   20.2384  -19.7505  -11.9409 O   0  0  0  0  0  0  0  0  0  0  0  0
   17.5281  -23.2831  -14.8097 O   0  0  0  0  0  0  0  0  0  0  0  0
  2  1  1  0
  3  4  1  6
  3  2  1  0
  5  3  1  0
  6  5  2  0
  7  8  1  0
  8 10  1  0
  9  8  2  0
 10 11  1  0
 12 11  1  0
 13 12  1  0
 14 13  1  1
 14 15  1  0
 15  5  1  0
 16 14  1  0
 16 17  2  0
 18 16  1  0
 19 18  1  0
 19 20  1  6
 20 21  1  0
 21 22  1  0
 22 26  1  0
 22 23  2  0
 24 19  1  0
 25 24  1  0
 27 24  2  0
M  END
$$$$
