SRE.pdb
     RDKit          3D

 27 26  0  0  1  0  0  0  0  0999 V2000
   26.0543  -19.7138  -17.7474 O   0  0  0  0  0  0  0  0  0  0  0  0
   27.4254  -19.7177  -17.4946 C   0  0  0  0  0  0  0  0  0  0  0  0
   27.9096  -21.0294  -16.9128 C   0  0  2  0  0  0  0  0  0  0  0  0
   28.0199  -21.9838  -17.9898 N   0  0  0  0  0  0  0  0  0  0  0  0
   26.9597  -21.4451  -15.8703 C   0  0  0  0  0  0  0  0  0  0  0  0
   26.0227  -22.2784  -16.1378 O   0  0  0  0  0  0  0  0  0  0  0  0
   23.2205  -20.0354   -9.6475 N   0  0  0  0  0  0  0  0  0  0  0  0
   23.8290  -20.8033   -8.6057 C   0  0  0  0  0  0  0  0  0  0  0  0
   23.1321  -21.1396   -7.5834 N   0  0  0  0  0  0  0  0  0  0  0  0
   25.1860  -21.1895   -8.7050 N   0  0  0  0  0  0  0  0  0  0  0  0
   26.0276  -20.7593   -9.7982 C   0  0  0  0  0  0  0  0  0  0  0  0
   25.4621  -21.2681  -11.1093 C   0  0  0  0  0  0  0  0  0  0  0  0
   26.4044  -20.8733  -12.2066 C   0  0  0  0  0  0  0  0  0  0  0  0
   25.9624  -21.3676  -13.5601 C   0  0  2  0  0  0  0  0  0  0  0  0
   26.9972  -20.9799  -14.5303 N   0  0  0  0  0  0  0  0  0  0  0  0
   24.7011  -20.6403  -13.8897 C   0  0  0  0  0  0  0  0  0  0  0  0
   24.8155  -19.4788  -14.3513 O   0  0  0  0  0  0  0  0  0  0  0  0
   23.5285  -21.6395   -6.7652 N   0  0  0  0  0  0  0  0  0  0  0  0
   23.4158  -21.1993  -13.7074 C   0  0  1  0  0  0  0  0  0  0  0  0
   22.2880  -20.4457  -14.2990 C   0  0  0  0  0  0  0  0  0  0  0  0
   22.4899  -20.4948  -15.8003 C   0  0  0  0  0  0  0  0  0  0  0  0
   21.3512  -19.8355  -16.5154 C   0  0  0  0  0  0  0  0  0  0  0  0
   21.5507  -19.9405  -17.9968 O   0  0  0  0  0  0  0  0  0  0  0  0
   21.4595  -18.9689  -18.7565 C   0  0  0  0  0  0  0  0  0  0  0  0
   21.0206  -21.0224  -13.8343 O   0  0  0  0  0  0  0  0  0  0  0  0
   19.7996  -20.3966  -13.9093 O   0  0  0  0  0  0  0  0  0  0  0  0
   21.8495  -21.2047  -18.5223 O   0  0  0  0  0  0  0  0  0  0  0  0
  2  1  1  0
  3  4  1  6
  3  2  1  0
  5  3  1  0
  6  5  2  0
  7  8  1  0
  8 10  1  0
  9  8  2  0
 10 11  1  0
 12 11  1  0
 13 12  1  0
 14 13  1  1
 14 15  1  0
 15  5  1  0
 16 14  1  0
 16 17  2  0
 18 16  1  0
 19 18  1  0
 19 20  1  6
 20 21  1  0
 21 22  1  0
 22 26  1  0
 22 23  2  0
 24 19  1  0
 25 24  1  0
 27 24  2  0
M  END
$$$$
