SRE.pdb
     RDKit          3D

 27 26  0  0  1  0  0  0  0  0999 V2000
   28.0893  -11.9680  -15.2743 O   0  0  0  0  0  0  0  0  0  0  0  0
   26.9350  -11.2602  -15.6064 C   0  0  0  0  0  0  0  0  0  0  0  0
   26.1852  -11.8755  -16.7695 C   0  0  2  0  0  0  0  0  0  0  0  0
   26.9871  -11.7093  -17.9580 N   0  0  0  0  0  0  0  0  0  0  0  0
   24.8724  -11.2202  -16.8646 C   0  0  0  0  0  0  0  0  0  0  0  0
   24.7479  -10.0958  -17.4680 O   0  0  0  0  0  0  0  0  0  0  0  0
   16.9518  -14.0357  -14.2302 N   0  0  0  0  0  0  0  0  0  0  0  0
   16.7121  -12.8138  -14.9337 C   0  0  0  0  0  0  0  0  0  0  0  0
   15.5055  -12.4275  -15.1299 N   0  0  0  0  0  0  0  0  0  0  0  0
   17.7972  -12.0389  -15.4055 N   0  0  0  0  0  0  0  0  0  0  0  0
   18.9280  -12.6337  -16.0807 C   0  0  0  0  0  0  0  0  0  0  0  0
   19.9250  -11.5550  -16.4549 C   0  0  0  0  0  0  0  0  0  0  0  0
   21.3020  -12.0761  -16.1717 C   0  0  0  0  0  0  0  0  0  0  0  0
   22.3828  -11.0839  -16.5166 C   0  0  2  0  0  0  0  0  0  0  0  0
   23.6763  -11.7551  -16.3199 N   0  0  0  0  0  0  0  0  0  0  0  0
   22.2684   -9.9678  -15.5319 C   0  0  0  0  0  0  0  0  0  0  0  0
   22.7701  -10.1539  -14.3967 O   0  0  0  0  0  0  0  0  0  0  0  0
   15.2642  -11.5396  -15.6093 N   0  0  0  0  0  0  0  0  0  0  0  0
   21.6336   -8.7395  -15.8255 C   0  0  2  0  0  0  0  0  0  0  0  0
   21.6988   -7.7042  -14.7702 C   0  0  0  0  0  0  0  0  0  0  0  0
   22.1138   -6.4218  -15.4633 C   0  0  0  0  0  0  0  0  0  0  0  0
   22.2088   -5.2915  -14.4854 C   0  0  0  0  0  0  0  0  0  0  0  0
   22.5088   -4.0147  -15.2102 O   0  0  0  0  0  0  0  0  0  0  0  0
   22.7375   -3.9707  -16.4248 C   0  0  0  0  0  0  0  0  0  0  0  0
   20.4064   -7.6332  -14.0779 O   0  0  0  0  0  0  0  0  0  0  0  0
   19.2189   -8.1054  -14.5827 O   0  0  0  0  0  0  0  0  0  0  0  0
   22.5291   -2.8322  -14.4585 O   0  0  0  0  0  0  0  0  0  0  0  0
  2  1  1  0
  3  4  1  6
  3  2  1  0
  5  3  1  0
  6  5  2  0
  7  8  1  0
  8 10  1  0
  9  8  2  0
 10 11  1  0
 12 11  1  0
 13 12  1  0
 14 13  1  1
 14 15  1  0
 15  5  1  0
 16 14  1  0
 16 17  2  0
 18 16  1  0
 19 18  1  0
 19 20  1  6
 20 21  1  0
 21 22  1  0
 22 26  1  0
 22 23  2  0
 24 19  1  0
 25 24  1  0
 27 24  2  0
M  END
$$$$
