SRE.pdb
     RDKit          3D

 27 26  0  0  1  0  0  0  0  0999 V2000
   25.9803  -18.7537  -16.5815 O   0  0  0  0  0  0  0  0  0  0  0  0
   27.3486  -18.9862  -16.7128 C   0  0  0  0  0  0  0  0  0  0  0  0
   27.7256  -20.4286  -16.4461 C   0  0  2  0  0  0  0  0  0  0  0  0
   27.5067  -21.1806  -17.6584 N   0  0  0  0  0  0  0  0  0  0  0  0
   26.9176  -20.9104  -15.3160 C   0  0  0  0  0  0  0  0  0  0  0  0
   25.9042  -21.6696  -15.5170 O   0  0  0  0  0  0  0  0  0  0  0  0
   30.4417  -22.3445   -7.9751 N   0  0  0  0  0  0  0  0  0  0  0  0
   31.0424  -22.2584   -9.2701 C   0  0  0  0  0  0  0  0  0  0  0  0
   32.0558  -22.9947   -9.5435 N   0  0  0  0  0  0  0  0  0  0  0  0
   30.5206  -21.3706  -10.2397 N   0  0  0  0  0  0  0  0  0  0  0  0
   29.1338  -20.9643  -10.2399 C   0  0  0  0  0  0  0  0  0  0  0  0
   28.4392  -21.5177  -11.4683 C   0  0  0  0  0  0  0  0  0  0  0  0
   27.0937  -20.8651  -11.5754 C   0  0  0  0  0  0  0  0  0  0  0  0
   26.3915  -21.1867  -12.8697 C   0  0  2  0  0  0  0  0  0  0  0  0
   27.1801  -20.5911  -13.9587 N   0  0  0  0  0  0  0  0  0  0  0  0
   25.0628  -20.5086  -12.8149 C   0  0  0  0  0  0  0  0  0  0  0  0
   25.0539  -19.2591  -12.9327 O   0  0  0  0  0  0  0  0  0  0  0  0
   32.5734  -22.9382  -10.4408 N   0  0  0  0  0  0  0  0  0  0  0  0
   23.8454  -21.2056  -12.6421 C   0  0  1  0  0  0  0  0  0  0  0  0
   22.6093  -20.4150  -12.8341 C   0  0  0  0  0  0  0  0  0  0  0  0
   22.2541  -20.5383  -14.3023 C   0  0  0  0  0  0  0  0  0  0  0  0
   20.9690  -19.8308  -14.6034 C   0  0  0  0  0  0  0  0  0  0  0  0
   20.5935  -20.0451  -16.0382 O   0  0  0  0  0  0  0  0  0  0  0  0
   19.4784  -19.7583  -16.4898 C   0  0  0  0  0  0  0  0  0  0  0  0
   21.5742  -20.8991  -11.9129 O   0  0  0  0  0  0  0  0  0  0  0  0
   20.4183  -20.2224  -11.6059 O   0  0  0  0  0  0  0  0  0  0  0  0
   21.5624  -20.5986  -16.8858 O   0  0  0  0  0  0  0  0  0  0  0  0
  2  1  1  0
  3  4  1  6
  3  2  1  0
  5  3  1  0
  6  5  2  0
  7  8  1  0
  8 10  1  0
  9  8  2  0
 10 11  1  0
 12 11  1  0
 13 12  1  0
 14 13  1  1
 14 15  1  0
 15  5  1  0
 16 14  1  0
 16 17  2  0
 18 16  1  0
 19 18  1  0
 19 20  1  1
 20 21  1  0
 21 22  1  0
 22 26  1  0
 22 23  2  0
 24 19  1  0
 25 24  1  0
 27 24  2  0
M  END
$$$$
