SRE.pdb
     RDKit          3D

 27 26  0  0  1  0  0  0  0  0999 V2000
   19.5175   -8.0033  -14.4337 O   0  0  0  0  0  0  0  0  0  0  0  0
   19.7133   -9.0161  -13.4959 C   0  0  0  0  0  0  0  0  0  0  0  0
   18.5538   -9.9883  -13.4335 C   0  0  2  0  0  0  0  0  0  0  0  0
   18.3291  -10.5039  -14.7627 N   0  0  0  0  0  0  0  0  0  0  0  0
   17.3890   -9.2757  -12.8880 C   0  0  0  0  0  0  0  0  0  0  0  0
   16.4801   -8.8199  -13.6690 O   0  0  0  0  0  0  0  0  0  0  0  0
   12.1581  -11.8474  -10.1978 N   0  0  0  0  0  0  0  0  0  0  0  0
   11.4557  -10.9775   -9.3061 C   0  0  0  0  0  0  0  0  0  0  0  0
   10.1750  -11.0206   -9.2643 N   0  0  0  0  0  0  0  0  0  0  0  0
   12.1688  -10.0805   -8.4770 N   0  0  0  0  0  0  0  0  0  0  0  0
   13.6067   -9.9523   -8.5442 C   0  0  0  0  0  0  0  0  0  0  0  0
   13.9915   -9.1531   -9.7734 C   0  0  0  0  0  0  0  0  0  0  0  0
   15.4858   -9.0340   -9.8015 C   0  0  0  0  0  0  0  0  0  0  0  0
   15.9901   -8.3169  -11.0275 C   0  0  2  0  0  0  0  0  0  0  0  0
   17.1775   -9.0415  -11.5047 N   0  0  0  0  0  0  0  0  0  0  0  0
   16.4075   -6.9540  -10.5840 C   0  0  0  0  0  0  0  0  0  0  0  0
   17.4145   -6.8793   -9.8387 O   0  0  0  0  0  0  0  0  0  0  0  0
    9.6057  -10.4075   -8.6509 N   0  0  0  0  0  0  0  0  0  0  0  0
   15.7280   -5.7747  -10.9656 C   0  0  2  0  0  0  0  0  0  0  0  0
   16.3690   -4.4990  -10.5764 C   0  0  0  0  0  0  0  0  0  0  0  0
   16.2193   -3.5722  -11.7662 C   0  0  0  0  0  0  0  0  0  0  0  0
   16.7316   -2.2020  -11.4451 C   0  0  0  0  0  0  0  0  0  0  0  0
   16.5202   -1.2917  -12.6165 O   0  0  0  0  0  0  0  0  0  0  0  0
   16.0094   -1.6709  -13.6771 C   0  0  0  0  0  0  0  0  0  0  0  0
   15.7567   -4.0052   -9.3371 O   0  0  0  0  0  0  0  0  0  0  0  0
   16.3344   -3.0952   -8.4849 O   0  0  0  0  0  0  0  0  0  0  0  0
   16.9294    0.0419  -12.4829 O   0  0  0  0  0  0  0  0  0  0  0  0
  2  1  1  0
  3  4  1  6
  3  2  1  0
  5  3  1  0
  6  5  2  0
  7  8  1  0
  8 10  1  0
  9  8  2  0
 10 11  1  0
 12 11  1  0
 13 12  1  0
 14 13  1  1
 14 15  1  0
 15  5  1  0
 16 14  1  0
 16 17  2  0
 18 16  1  0
 19 18  1  0
 19 20  1  6
 20 21  1  0
 21 22  1  0
 22 26  1  0
 22 23  2  0
 24 19  1  0
 25 24  1  0
 27 24  2  0
M  END
$$$$
