ACK.pdb
     RDKit          3D

 21 20  0  0  1  0  0  0  0  0999 V2000
    6.5809  -18.9361   19.4331 C   0  0  0  0  0  0  0  0  0  0  0  0
    6.8533  -17.5981   18.7593 C   0  0  2  0  0  0  0  0  0  0  0  0
    7.2399  -17.8349   17.3805 N   0  0  0  0  0  0  0  0  0  0  0  0
    7.9348  -16.8547   19.4301 C   0  0  0  0  0  0  0  0  0  0  0  0
    9.1504  -16.9754   19.0545 O   0  0  0  0  0  0  0  0  0  0  0  0
    7.7216  -15.9670   20.5196 N   0  0  0  0  0  0  0  0  0  0  0  0
    8.8027  -15.3374   21.2534 C   0  0  1  0  0  0  0  0  0  0  0  0
    8.1610  -14.2029   22.0588 C   0  0  0  0  0  0  0  0  0  0  0  0
    6.9815  -14.8300   23.2566 S   0  0  0  0  0  0  0  0  0  0  0  0
    9.4875  -16.2982   22.1526 C   0  0  0  0  0  0  0  0  0  0  0  0
    8.7987  -17.1584   22.7242 O   0  0  0  0  0  0  0  0  0  0  0  0
   10.8653  -16.3006   22.4017 N   0  0  0  0  0  0  0  0  0  0  0  0
   11.6069  -17.2216   23.1610 C   0  0  1  0  0  0  0  0  0  0  0  0
   12.6788  -17.9919   22.4677 C   0  0  0  0  0  0  0  0  0  0  0  0
   12.1807  -18.7101   21.2371 C   0  0  0  0  0  0  0  0  0  0  0  0
   13.3232  -19.4351   20.5845 C   0  0  0  0  0  0  0  0  0  0  0  0
   12.9976  -20.1458   19.3193 C   0  0  0  0  0  0  0  0  0  0  0  0
   14.2385  -20.7130   18.8105 N   0  0  0  0  0  0  0  0  0  0  0  0
   12.2116  -16.5371   24.3248 C   0  0  0  0  0  0  0  0  0  0  0  0
   12.2349  -15.2911   24.4913 O   0  0  0  0  0  0  0  0  0  0  0  0
   12.7985  -17.3089   25.3109 O   0  0  0  0  0  0  0  0  0  0  0  0
  2  1  1  1
  2  3  1  0
  4  2  1  0
  5  4  2  0
  6  4  1  0
  7  6  1  0
  7 10  1  0
  7  8  1  1
  9  8  1  0
 10 11  2  0
 12 10  1  0
 12 13  1  0
 13 14  1  6
 14 15  1  0
 15 16  1  0
 16 17  1  0
 18 17  1  0
 19 13  1  0
 19 21  1  0
 20 19  2  0
M  END
$$$$
