ACK.pdb
     RDKit          3D

 21 20  0  0  1  0  0  0  0  0999 V2000
    6.7868  -18.6602   17.4265 C   0  0  0  0  0  0  0  0  0  0  0  0
    7.5326  -17.4431   16.8967 C   0  0  2  0  0  0  0  0  0  0  0  0
    8.4675  -17.8722   15.8727 N   0  0  0  0  0  0  0  0  0  0  0  0
    8.2840  -16.7527   17.9601 C   0  0  0  0  0  0  0  0  0  0  0  0
    9.4571  -17.1343   18.2940 O   0  0  0  0  0  0  0  0  0  0  0  0
    7.7805  -15.6366   18.6823 N   0  0  0  0  0  0  0  0  0  0  0  0
    8.5427  -14.9420   19.7022 C   0  0  1  0  0  0  0  0  0  0  0  0
    7.7055  -13.7208   20.0959 C   0  0  0  0  0  0  0  0  0  0  0  0
    7.5987  -12.5342   18.7542 S   0  0  0  0  0  0  0  0  0  0  0  0
    8.7973  -15.8067   20.8804 C   0  0  0  0  0  0  0  0  0  0  0  0
    7.8594  -16.4930   21.3168 O   0  0  0  0  0  0  0  0  0  0  0  0
   10.0302  -15.9016   21.5373 N   0  0  0  0  0  0  0  0  0  0  0  0
   10.3821  -16.7494   22.6012 C   0  0  1  0  0  0  0  0  0  0  0  0
   11.0558  -18.0378   22.2709 C   0  0  0  0  0  0  0  0  0  0  0  0
   11.3858  -18.8563   23.4953 C   0  0  0  0  0  0  0  0  0  0  0  0
   11.9522  -20.1820   23.0728 C   0  0  0  0  0  0  0  0  0  0  0  0
   12.1650  -21.1698   24.1641 C   0  0  0  0  0  0  0  0  0  0  0  0
   12.6773  -22.3873   23.5513 N   0  0  0  0  0  0  0  0  0  0  0  0
   11.2358  -16.0170   23.5621 C   0  0  0  0  0  0  0  0  0  0  0  0
   11.8911  -14.9783   23.2921 O   0  0  0  0  0  0  0  0  0  0  0  0
   11.3317  -16.4958   24.8559 O   0  0  0  0  0  0  0  0  0  0  0  0
  2  1  1  1
  2  3  1  0
  4  2  1  0
  5  4  2  0
  6  4  1  0
  7  6  1  0
  7 10  1  0
  7  8  1  1
  9  8  1  0
 10 11  2  0
 12 10  1  0
 12 13  1  0
 13 14  1  6
 14 15  1  0
 15 16  1  0
 16 17  1  0
 18 17  1  0
 19 13  1  0
 19 21  1  0
 20 19  2  0
M  END
$$$$
