ACK.pdb
     RDKit          3D

 21 20  0  0  1  0  0  0  0  0999 V2000
    7.5075  -12.7939   19.8374 C   0  0  0  0  0  0  0  0  0  0  0  0
    7.4820  -14.1211   20.5832 C   0  0  2  0  0  0  0  0  0  0  0  0
    6.1059  -14.5655   20.7076 N   0  0  0  0  0  0  0  0  0  0  0  0
    8.0625  -14.0045   21.9329 C   0  0  0  0  0  0  0  0  0  0  0  0
    9.3261  -13.9144   22.1026 O   0  0  0  0  0  0  0  0  0  0  0  0
    7.2872  -13.9831   23.1242 N   0  0  0  0  0  0  0  0  0  0  0  0
    7.8556  -13.7417   24.4366 C   0  0  1  0  0  0  0  0  0  0  0  0
    6.7666  -13.0261   25.2425 C   0  0  0  0  0  0  0  0  0  0  0  0
    7.2190  -12.8737   26.9721 S   0  0  0  0  0  0  0  0  0  0  0  0
    8.2564  -15.0058   25.1015 C   0  0  0  0  0  0  0  0  0  0  0  0
    7.3707  -15.8340   25.3675 O   0  0  0  0  0  0  0  0  0  0  0  0
    9.5729  -15.3298   25.4513 N   0  0  0  0  0  0  0  0  0  0  0  0
   10.0374  -16.4872   26.0988 C   0  0  1  0  0  0  0  0  0  0  0  0
   11.3956  -16.9874   25.7406 C   0  0  0  0  0  0  0  0  0  0  0  0
   11.7242  -18.3075   26.3946 C   0  0  0  0  0  0  0  0  0  0  0  0
   11.5627  -19.4155   25.3930 C   0  0  0  0  0  0  0  0  0  0  0  0
   11.9265  -20.7758   25.8717 C   0  0  0  0  0  0  0  0  0  0  0  0
   11.8094  -21.6794   24.7359 N   0  0  0  0  0  0  0  0  0  0  0  0
    9.9909  -16.2921   27.5646 C   0  0  0  0  0  0  0  0  0  0  0  0
    9.9172  -15.1751   28.1372 O   0  0  0  0  0  0  0  0  0  0  0  0
   10.0305  -17.4089   28.3792 O   0  0  0  0  0  0  0  0  0  0  0  0
  2  1  1  1
  2  3  1  0
  4  2  1  0
  5  4  2  0
  6  4  1  0
  7  6  1  0
  7 10  1  0
  7  8  1  1
  9  8  1  0
 10 11  2  0
 12 10  1  0
 12 13  1  0
 13 14  1  6
 14 15  1  0
 15 16  1  0
 16 17  1  0
 18 17  1  0
 19 13  1  0
 19 21  1  0
 20 19  2  0
M  END
$$$$
