ACK.pdb
     RDKit          3D

 21 20  0  0  1  0  0  0  0  0999 V2000
    9.4839  -22.1244   15.9371 C   0  0  0  0  0  0  0  0  0  0  0  0
    9.4644  -21.9355   17.4478 C   0  0  2  0  0  0  0  0  0  0  0  0
    9.2046  -20.5388   17.7449 N   0  0  0  0  0  0  0  0  0  0  0  0
   10.7466  -22.3174   18.0663 C   0  0  0  0  0  0  0  0  0  0  0  0
   11.2009  -23.5076   17.9629 O   0  0  0  0  0  0  0  0  0  0  0  0
   11.5613  -21.4193   18.8080 N   0  0  0  0  0  0  0  0  0  0  0  0
   12.7899  -21.8211   19.4658 C   0  0  1  0  0  0  0  0  0  0  0  0
   13.9147  -21.0538   18.7633 C   0  0  0  0  0  0  0  0  0  0  0  0
   15.4464  -21.1300   19.6946 S   0  0  0  0  0  0  0  0  0  0  0  0
   12.7643  -21.5060   20.9152 C   0  0  0  0  0  0  0  0  0  0  0  0
   12.6600  -20.3162   21.2541 O   0  0  0  0  0  0  0  0  0  0  0  0
   12.8502  -22.4645   21.9322 N   0  0  0  0  0  0  0  0  0  0  0  0
   12.7776  -22.2630   23.3210 C   0  0  1  0  0  0  0  0  0  0  0  0
   12.3578  -23.4144   24.1702 C   0  0  0  0  0  0  0  0  0  0  0  0
   10.9421  -23.8593   23.8945 C   0  0  0  0  0  0  0  0  0  0  0  0
   10.6076  -25.0335   24.7699 C   0  0  0  0  0  0  0  0  0  0  0  0
   10.0639  -24.7019   26.1139 C   0  0  0  0  0  0  0  0  0  0  0  0
    9.6883  -25.9568   26.7499 N   0  0  0  0  0  0  0  0  0  0  0  0
   14.0795  -21.7716   23.8231 C   0  0  0  0  0  0  0  0  0  0  0  0
   15.1986  -22.2396   23.4919 O   0  0  0  0  0  0  0  0  0  0  0  0
   14.0845  -20.7216   24.7231 O   0  0  0  0  0  0  0  0  0  0  0  0
  2  1  1  6
  2  3  1  0
  4  2  1  0
  5  4  2  0
  6  4  1  0
  7  6  1  0
  7 10  1  0
  7  8  1  6
  9  8  1  0
 10 11  2  0
 12 10  1  0
 12 13  1  0
 13 14  1  1
 14 15  1  0
 15 16  1  0
 16 17  1  0
 18 17  1  0
 19 13  1  0
 19 21  1  0
 20 19  2  0
M  END
$$$$
