ACK.pdb
     RDKit          3D

 21 20  0  0  1  0  0  0  0  0999 V2000
    7.6280  -12.7086   19.6758 C   0  0  0  0  0  0  0  0  0  0  0  0
    7.3390  -13.9105   20.5647 C   0  0  2  0  0  0  0  0  0  0  0  0
    5.9112  -13.9782   20.8164 N   0  0  0  0  0  0  0  0  0  0  0  0
    8.0409  -13.8197   21.8575 C   0  0  0  0  0  0  0  0  0  0  0  0
    9.3173  -13.8442   21.9189 O   0  0  0  0  0  0  0  0  0  0  0  0
    7.3754  -13.7008   23.1079 N   0  0  0  0  0  0  0  0  0  0  0  0
    8.0705  -13.7117   24.3809 C   0  0  1  0  0  0  0  0  0  0  0  0
    7.2615  -12.8016   25.3108 C   0  0  0  0  0  0  0  0  0  0  0  0
    5.6549  -13.5055   25.6885 S   0  0  0  0  0  0  0  0  0  0  0  0
    8.1677  -15.0820   24.9408 C   0  0  0  0  0  0  0  0  0  0  0  0
    7.1813  -15.8287   24.8364 O   0  0  0  0  0  0  0  0  0  0  0  0
    9.3024  -15.5931   25.5824 N   0  0  0  0  0  0  0  0  0  0  0  0
    9.7521  -16.9240   25.6178 C   0  0  1  0  0  0  0  0  0  0  0  0
   10.6351  -17.3899   24.5104 C   0  0  0  0  0  0  0  0  0  0  0  0
   11.0137  -18.8455   24.6370 C   0  0  0  0  0  0  0  0  0  0  0  0
   11.9270  -19.2247   23.5061 C   0  0  0  0  0  0  0  0  0  0  0  0
   12.3239  -20.6570   23.4500 C   0  0  0  0  0  0  0  0  0  0  0  0
   13.2172  -20.8137   22.3108 N   0  0  0  0  0  0  0  0  0  0  0  0
   10.4452  -17.1830   26.8988 C   0  0  0  0  0  0  0  0  0  0  0  0
   11.0217  -16.3066   27.5921 O   0  0  0  0  0  0  0  0  0  0  0  0
   10.4706  -18.4778   27.3838 O   0  0  0  0  0  0  0  0  0  0  0  0
  2  1  1  6
  2  3  1  0
  4  2  1  0
  5  4  2  0
  6  4  1  0
  7  6  1  0
  7 10  1  0
  7  8  1  1
  9  8  1  0
 10 11  2  0
 12 10  1  0
 12 13  1  0
 13 14  1  6
 14 15  1  0
 15 16  1  0
 16 17  1  0
 18 17  1  0
 19 13  1  0
 19 21  1  0
 20 19  2  0
M  END
$$$$
