ACK.pdb
     RDKit          3D

 21 20  0  0  1  0  0  0  0  0999 V2000
    8.3583  -12.6399   17.9294 C   0  0  0  0  0  0  0  0  0  0  0  0
    8.7994  -14.0700   17.6495 C   0  0  2  0  0  0  0  0  0  0  0  0
    8.1179  -14.5494   16.4610 N   0  0  0  0  0  0  0  0  0  0  0  0
    8.4816  -14.9728   18.7704 C   0  0  0  0  0  0  0  0  0  0  0  0
    7.5161  -15.8066   18.6932 O   0  0  0  0  0  0  0  0  0  0  0  0
    9.2022  -14.9906   19.9955 N   0  0  0  0  0  0  0  0  0  0  0  0
    8.9330  -15.9373   21.0608 C   0  0  1  0  0  0  0  0  0  0  0  0
    9.7224  -17.2027   20.7098 C   0  0  0  0  0  0  0  0  0  0  0  0
   11.4797  -16.8671   20.5741 S   0  0  0  0  0  0  0  0  0  0  0  0
    9.3491  -15.4082   22.3828 C   0  0  0  0  0  0  0  0  0  0  0  0
   10.3781  -14.7160   22.4391 O   0  0  0  0  0  0  0  0  0  0  0  0
    8.6562  -15.6378   23.5776 N   0  0  0  0  0  0  0  0  0  0  0  0
    8.6799  -14.8698   24.7542 C   0  0  1  0  0  0  0  0  0  0  0  0
    7.4683  -14.0662   25.0852 C   0  0  0  0  0  0  0  0  0  0  0  0
    7.6271  -13.2637   26.3537 C   0  0  0  0  0  0  0  0  0  0  0  0
    6.3713  -12.4801   26.6100 C   0  0  0  0  0  0  0  0  0  0  0  0
    6.3526  -11.6845   27.8665 C   0  0  0  0  0  0  0  0  0  0  0  0
    5.0688  -10.9999   27.9255 N   0  0  0  0  0  0  0  0  0  0  0  0
    8.9859  -15.7387   25.9117 C   0  0  0  0  0  0  0  0  0  0  0  0
    8.7661  -16.9759   25.9575 O   0  0  0  0  0  0  0  0  0  0  0  0
    9.5556  -15.1649   27.0336 O   0  0  0  0  0  0  0  0  0  0  0  0
  2  1  1  1
  2  3  1  0
  4  2  1  0
  5  4  2  0
  6  4  1  0
  7  6  1  0
  7 10  1  0
  7  8  1  6
  9  8  1  0
 10 11  2  0
 12 10  1  0
 12 13  1  0
 13 14  1  1
 14 15  1  0
 15 16  1  0
 16 17  1  0
 18 17  1  0
 19 13  1  0
 19 21  1  0
 20 19  2  0
M  END
$$$$
