ACK.pdb
     RDKit          3D

 21 20  0  0  1  0  0  0  0  0999 V2000
    8.8092  -24.3694   20.9039 C   0  0  0  0  0  0  0  0  0  0  0  0
    8.4927  -23.4392   22.0670 C   0  0  2  0  0  0  0  0  0  0  0  0
    7.8923  -22.2237   21.5485 N   0  0  0  0  0  0  0  0  0  0  0  0
    9.7025  -23.0788   22.8278 C   0  0  0  0  0  0  0  0  0  0  0  0
   10.3945  -23.9698   23.4284 O   0  0  0  0  0  0  0  0  0  0  0  0
   10.1863  -21.7481   22.9532 N   0  0  0  0  0  0  0  0  0  0  0  0
   11.3637  -21.4015   23.7260 C   0  0  1  0  0  0  0  0  0  0  0  0
   11.9019  -20.1035   23.1152 C   0  0  0  0  0  0  0  0  0  0  0  0
   10.6958  -18.7787   23.2138 S   0  0  0  0  0  0  0  0  0  0  0  0
   11.0412  -21.2125   25.1616 C   0  0  0  0  0  0  0  0  0  0  0  0
    9.9453  -20.7079   25.4542 O   0  0  0  0  0  0  0  0  0  0  0  0
   11.8936  -21.5664   26.2146 N   0  0  0  0  0  0  0  0  0  0  0  0
   11.6511  -21.4704   27.5953 C   0  0  1  0  0  0  0  0  0  0  0  0
   11.3133  -22.7223   28.3313 C   0  0  0  0  0  0  0  0  0  0  0  0
   11.0736  -22.4892   29.8032 C   0  0  0  0  0  0  0  0  0  0  0  0
   10.8140  -23.8040   30.4819 C   0  0  0  0  0  0  0  0  0  0  0  0
   10.4397  -23.7253   31.9191 C   0  0  0  0  0  0  0  0  0  0  0  0
   10.2694  -25.0902   32.3969 N   0  0  0  0  0  0  0  0  0  0  0  0
   12.8120  -20.8428   28.2638 C   0  0  0  0  0  0  0  0  0  0  0  0
   13.9470  -20.6970   27.7427 O   0  0  0  0  0  0  0  0  0  0  0  0
   12.6551  -20.3770   29.5564 O   0  0  0  0  0  0  0  0  0  0  0  0
  2  1  1  6
  2  3  1  0
  4  2  1  0
  5  4  2  0
  6  4  1  0
  7  6  1  0
  7 10  1  0
  7  8  1  6
  9  8  1  0
 10 11  2  0
 12 10  1  0
 12 13  1  0
 13 14  1  1
 14 15  1  0
 15 16  1  0
 16 17  1  0
 18 17  1  0
 19 13  1  0
 19 21  1  0
 20 19  2  0
M  END
$$$$
