ACK.pdb
     RDKit          3D

 21 20  0  0  1  0  0  0  0  0999 V2000
    5.8226  -19.0459   19.5800 C   0  0  0  0  0  0  0  0  0  0  0  0
    6.3762  -17.9845   18.6391 C   0  0  2  0  0  0  0  0  0  0  0  0
    6.8706  -18.6314   17.4375 N   0  0  0  0  0  0  0  0  0  0  0  0
    7.4809  -17.2269   19.2540 C   0  0  0  0  0  0  0  0  0  0  0  0
    8.6162  -17.7729   19.4694 O   0  0  0  0  0  0  0  0  0  0  0  0
    7.3781  -15.8648   19.6474 N   0  0  0  0  0  0  0  0  0  0  0  0
    8.4821  -15.1191   20.2206 C   0  0  1  0  0  0  0  0  0  0  0  0
    8.0174  -13.6605   20.2849 C   0  0  0  0  0  0  0  0  0  0  0  0
    7.8558  -12.9472   18.6465 S   0  0  0  0  0  0  0  0  0  0  0  0
    8.8374  -15.6175   21.5720 C   0  0  0  0  0  0  0  0  0  0  0  0
    7.9553  -15.6211   22.4455 O   0  0  0  0  0  0  0  0  0  0  0  0
   10.1069  -16.0865   21.9310 N   0  0  0  0  0  0  0  0  0  0  0  0
   10.5041  -16.6666   23.1476 C   0  0  1  0  0  0  0  0  0  0  0  0
   11.0880  -18.0380   23.1069 C   0  0  0  0  0  0  0  0  0  0  0  0
   11.4763  -18.5493   24.4729 C   0  0  0  0  0  0  0  0  0  0  0  0
   11.4859  -20.0515   24.4603 C   0  0  0  0  0  0  0  0  0  0  0  0
   11.9221  -20.7044   25.7233 C   0  0  0  0  0  0  0  0  0  0  0  0
   11.8292  -22.1434   25.5206 N   0  0  0  0  0  0  0  0  0  0  0  0
   11.4664  -15.7772   23.8343 C   0  0  0  0  0  0  0  0  0  0  0  0
   12.2620  -14.9963   23.2528 O   0  0  0  0  0  0  0  0  0  0  0  0
   11.5072  -15.7931   25.2166 O   0  0  0  0  0  0  0  0  0  0  0  0
  2  1  1  1
  2  3  1  0
  4  2  1  0
  5  4  2  0
  6  4  1  0
  7  6  1  0
  7 10  1  0
  7  8  1  1
  9  8  1  0
 10 11  2  0
 12 10  1  0
 12 13  1  0
 13 14  1  6
 14 15  1  0
 15 16  1  0
 16 17  1  0
 18 17  1  0
 19 13  1  0
 19 21  1  0
 20 19  2  0
M  END
$$$$
