KNS.pdb
     RDKit          3D

 24 23  0  0  1  0  0  0  0  0999 V2000
    7.3797  -18.0289   18.4548 N   0  0  0  0  0  0  0  0  0  0  0  0
    8.6392  -18.2866   19.0753 C   0  0  1  0  0  0  0  0  0  0  0  0
    9.5465  -18.9912   18.0938 C   0  0  0  0  0  0  0  0  0  0  0  0
    9.3665  -18.4482   16.6961 C   0  0  0  0  0  0  0  0  0  0  0  0
   10.1571  -19.1761   15.6600 C   0  0  0  0  0  0  0  0  0  0  0  0
    9.8427  -18.5469   14.3167 C   0  0  0  0  0  0  0  0  0  0  0  0
   10.5428  -19.2082   13.2476 N   0  0  0  0  0  0  0  0  0  0  0  0
    9.2138  -17.0559   19.6084 C   0  0  0  0  0  0  0  0  0  0  0  0
   10.4332  -16.7481   19.5544 O   0  0  0  0  0  0  0  0  0  0  0  0
    6.2822  -13.0979   18.9251 N   0  0  0  0  0  0  0  0  0  0  0  0
    7.6351  -13.3713   19.2953 C   0  0  0  0  0  0  0  0  0  0  0  0
    8.5608  -13.3190   18.4470 O   0  0  0  0  0  0  0  0  0  0  0  0
    7.9595  -13.7220   20.6952 C   0  0  0  0  0  0  0  0  0  0  0  0
    8.9052  -14.8861   20.8203 C   0  0  2  0  0  0  0  0  0  0  0  0
    8.3560  -16.1047   20.2473 N   0  0  0  0  0  0  0  0  0  0  0  0
    9.2347  -15.1815   22.2412 C   0  0  0  0  0  0  0  0  0  0  0  0
    8.3628  -15.1384   23.1618 O   0  0  0  0  0  0  0  0  0  0  0  0
   10.4349  -18.1206   23.3823 O   0  0  0  0  0  0  0  0  0  0  0  0
   10.0895  -17.1711   24.3376 C   0  0  0  0  0  0  0  0  0  0  0  0
   10.8617  -15.9047   24.0368 C   0  0  2  0  0  0  0  0  0  0  0  0
   10.5525  -15.5319   22.6569 N   0  0  0  0  0  0  0  0  0  0  0  0
   12.3204  -16.0982   24.2213 C   0  0  0  0  0  0  0  0  0  0  0  0
   13.1521  -16.0898   23.2951 O   0  0  0  0  0  0  0  0  0  0  0  0
   12.7727  -16.3005   25.5149 O   0  0  0  0  0  0  0  0  0  0  0  0
  2  8  1  0
  2  1  1  6
  3  2  1  0
  4  3  1  0
  5  4  1  0
  6  7  1  0
  6  5  1  0
  8  9  2  0
 11 10  1  0
 11 12  2  0
 13 11  1  0
 14 13  1  1
 15 14  1  0
 15  8  1  0
 16 14  1  0
 17 16  2  0
 18 19  1  0
 20 19  1  6
 20 21  1  0
 21 16  1  0
 22 24  1  0
 22 20  1  0
 23 22  2  0
M  END
$$$$
