KNS.pdb
     RDKit          3D

 24 23  0  0  1  0  0  0  0  0999 V2000
   11.2262  -15.8533   17.2037 N   0  0  0  0  0  0  0  0  0  0  0  0
   11.8063  -14.9284   18.1234 C   0  0  1  0  0  0  0  0  0  0  0  0
   10.7680  -14.5150   19.1403 C   0  0  0  0  0  0  0  0  0  0  0  0
    9.4881  -14.0782   18.4682 C   0  0  0  0  0  0  0  0  0  0  0  0
    8.3882  -13.7487   19.4221 C   0  0  0  0  0  0  0  0  0  0  0  0
    7.1786  -13.3396   18.6043 C   0  0  0  0  0  0  0  0  0  0  0  0
    6.0430  -13.0639   19.4439 N   0  0  0  0  0  0  0  0  0  0  0  0
   13.0118  -15.4868   18.7265 C   0  0  0  0  0  0  0  0  0  0  0  0
   13.2431  -16.7161   18.8681 O   0  0  0  0  0  0  0  0  0  0  0  0
   16.7168  -12.9475   17.4753 N   0  0  0  0  0  0  0  0  0  0  0  0
   16.7177  -14.2290   18.1078 C   0  0  0  0  0  0  0  0  0  0  0  0
   16.9474  -15.2746   17.4499 O   0  0  0  0  0  0  0  0  0  0  0  0
   16.4452  -14.3352   19.5578 C   0  0  0  0  0  0  0  0  0  0  0  0
   15.2045  -15.1234   19.8807 C   0  0  2  0  0  0  0  0  0  0  0  0
   14.0286  -14.5997   19.2040 N   0  0  0  0  0  0  0  0  0  0  0  0
   14.9083  -15.1168   21.3391 C   0  0  0  0  0  0  0  0  0  0  0  0
   15.6438  -14.5115   22.1770 O   0  0  0  0  0  0  0  0  0  0  0  0
   11.3269  -16.4031   22.6383 O   0  0  0  0  0  0  0  0  0  0  0  0
   12.0107  -15.5316   23.4788 C   0  0  0  0  0  0  0  0  0  0  0  0
   13.4922  -15.7975   23.3206 C   0  0  2  0  0  0  0  0  0  0  0  0
   13.7778  -15.7913   21.8863 N   0  0  0  0  0  0  0  0  0  0  0  0
   13.8835  -17.0892   23.9352 C   0  0  0  0  0  0  0  0  0  0  0  0
   14.3647  -18.0489   23.3051 O   0  0  0  0  0  0  0  0  0  0  0  0
   13.6955  -17.2219   25.3012 O   0  0  0  0  0  0  0  0  0  0  0  0
  2  8  1  0
  2  1  1  6
  3  2  1  0
  4  3  1  0
  5  4  1  0
  6  7  1  0
  6  5  1  0
  8  9  2  0
 11 10  1  0
 11 12  2  0
 13 11  1  0
 14 13  1  1
 15 14  1  0
 15  8  1  0
 16 14  1  0
 17 16  2  0
 18 19  1  0
 20 19  1  6
 20 21  1  0
 21 16  1  0
 22 24  1  0
 22 20  1  0
 23 22  2  0
M  END
$$$$
