KNS.pdb
     RDKit          3D

 24 23  0  0  1  0  0  0  0  0999 V2000
   10.0708  -17.3213   14.0647 N   0  0  0  0  0  0  0  0  0  0  0  0
   10.5467  -18.5310   14.6544 C   0  0  1  0  0  0  0  0  0  0  0  0
   11.6600  -19.0985   13.8048 C   0  0  0  0  0  0  0  0  0  0  0  0
   12.7471  -18.0759   13.5742 C   0  0  0  0  0  0  0  0  0  0  0  0
   13.8477  -18.5556   12.6870 C   0  0  0  0  0  0  0  0  0  0  0  0
   14.8928  -17.4592   12.6184 C   0  0  0  0  0  0  0  0  0  0  0  0
   16.0274  -17.8606   11.8297 N   0  0  0  0  0  0  0  0  0  0  0  0
   10.9381  -18.3099   16.0426 C   0  0  0  0  0  0  0  0  0  0  0  0
   11.4872  -17.2643   16.4781 O   0  0  0  0  0  0  0  0  0  0  0  0
   10.3788  -20.7344   21.6639 N   0  0  0  0  0  0  0  0  0  0  0  0
   10.5004  -19.6222   20.7748 C   0  0  0  0  0  0  0  0  0  0  0  0
   10.9365  -18.5154   21.1798 O   0  0  0  0  0  0  0  0  0  0  0  0
   10.1096  -19.7672   19.3556 C   0  0  0  0  0  0  0  0  0  0  0  0
   11.0932  -19.1548   18.3951 C   0  0  2  0  0  0  0  0  0  0  0  0
   10.6945  -19.3378   17.0085 N   0  0  0  0  0  0  0  0  0  0  0  0
   12.4510  -19.7465   18.5408 C   0  0  0  0  0  0  0  0  0  0  0  0
   12.7047  -20.9472   18.2193 O   0  0  0  0  0  0  0  0  0  0  0  0
   17.1115  -19.1428   18.4807 O   0  0  0  0  0  0  0  0  0  0  0  0
   15.8407  -18.5785   18.4911 C   0  0  0  0  0  0  0  0  0  0  0  0
   14.8986  -19.5634   19.1493 C   0  0  2  0  0  0  0  0  0  0  0  0
   13.5527  -18.9997   19.0515 N   0  0  0  0  0  0  0  0  0  0  0  0
   15.2696  -19.8118   20.5635 C   0  0  0  0  0  0  0  0  0  0  0  0
   16.3326  -20.3487   20.9263 O   0  0  0  0  0  0  0  0  0  0  0  0
   14.3640  -19.4149   21.5337 O   0  0  0  0  0  0  0  0  0  0  0  0
  2  8  1  0
  2  1  1  6
  3  2  1  0
  4  3  1  0
  5  4  1  0
  6  7  1  0
  6  5  1  0
  8  9  2  0
 11 10  1  0
 11 12  2  0
 13 11  1  0
 14 13  1  1
 15 14  1  0
 15  8  1  0
 16 14  1  0
 17 16  2  0
 18 19  1  0
 20 19  1  1
 20 21  1  0
 21 16  1  0
 22 24  1  0
 22 20  1  0
 23 22  2  0
M  END
$$$$
