KNS.pdb
     RDKit          3D

 24 23  0  0  1  0  0  0  0  0999 V2000
    8.1949  -12.4554   19.6505 N   0  0  0  0  0  0  0  0  0  0  0  0
    7.4879  -13.4754   20.3559 C   0  0  1  0  0  0  0  0  0  0  0  0
    7.3706  -14.7011   19.4800 C   0  0  0  0  0  0  0  0  0  0  0  0
    8.5541  -14.8235   18.5498 C   0  0  0  0  0  0  0  0  0  0  0  0
    8.4153  -15.9117   17.5375 C   0  0  0  0  0  0  0  0  0  0  0  0
    9.6030  -15.8202   16.5994 C   0  0  0  0  0  0  0  0  0  0  0  0
    9.5510  -16.8360   15.5817 N   0  0  0  0  0  0  0  0  0  0  0  0
    8.1198  -13.7464   21.6428 C   0  0  0  0  0  0  0  0  0  0  0  0
    9.3313  -13.5326   21.9094 O   0  0  0  0  0  0  0  0  0  0  0  0
    7.1309  -12.1239   25.0650 N   0  0  0  0  0  0  0  0  0  0  0  0
    6.4866  -13.2957   25.5690 C   0  0  0  0  0  0  0  0  0  0  0  0
    5.5543  -13.2111   26.4072 O   0  0  0  0  0  0  0  0  0  0  0  0
    6.9171  -14.6317   25.1023 C   0  0  0  0  0  0  0  0  0  0  0  0
    7.9366  -14.5830   23.9962 C   0  0  2  0  0  0  0  0  0  0  0  0
    7.3330  -14.2968   22.7044 N   0  0  0  0  0  0  0  0  0  0  0  0
    8.6682  -15.8718   23.8605 C   0  0  0  0  0  0  0  0  0  0  0  0
    8.1244  -16.9120   23.3789 O   0  0  0  0  0  0  0  0  0  0  0  0
   12.7498  -18.1578   23.2465 O   0  0  0  0  0  0  0  0  0  0  0  0
   12.0361  -16.9718   23.3787 C   0  0  0  0  0  0  0  0  0  0  0  0
   10.7526  -17.2800   24.1192 C   0  0  2  0  0  0  0  0  0  0  0  0
   10.0277  -16.0181   24.2637 N   0  0  0  0  0  0  0  0  0  0  0  0
   11.0199  -17.8943   25.4423 C   0  0  0  0  0  0  0  0  0  0  0  0
   10.7135  -17.3754   26.5317 O   0  0  0  0  0  0  0  0  0  0  0  0
   11.6528  -19.1264   25.4510 O   0  0  0  0  0  0  0  0  0  0  0  0
  2  8  1  0
  2  1  1  6
  3  2  1  0
  4  3  1  0
  5  4  1  0
  6  7  1  0
  6  5  1  0
  8  9  2  0
 11 10  1  0
 11 12  2  0
 13 11  1  0
 14 13  1  1
 15 14  1  0
 15  8  1  0
 16 14  1  0
 17 16  2  0
 18 19  1  0
 20 19  1  1
 20 21  1  0
 21 16  1  0
 22 24  1  0
 22 20  1  0
 23 22  2  0
M  END
$$$$
