KNS.pdb
     RDKit          3D

 24 23  0  0  1  0  0  0  0  0999 V2000
    7.0879  -15.9659   21.0877 N   0  0  0  0  0  0  0  0  0  0  0  0
    8.3468  -15.2954   21.1461 C   0  0  1  0  0  0  0  0  0  0  0  0
    8.2257  -13.9433   20.4826 C   0  0  0  0  0  0  0  0  0  0  0  0
    7.6392  -14.0653   19.0962 C   0  0  0  0  0  0  0  0  0  0  0  0
    8.4239  -13.3532   18.0448 C   0  0  0  0  0  0  0  0  0  0  0  0
    7.6838  -13.5148   16.7313 C   0  0  0  0  0  0  0  0  0  0  0  0
    8.4623  -13.0272   15.6238 N   0  0  0  0  0  0  0  0  0  0  0  0
    8.8288  -15.2202   22.5213 C   0  0  0  0  0  0  0  0  0  0  0  0
    9.8992  -14.6632   22.8797 O   0  0  0  0  0  0  0  0  0  0  0  0
    7.4896  -13.0283   25.7946 N   0  0  0  0  0  0  0  0  0  0  0  0
    6.7958  -14.2721   25.6771 C   0  0  0  0  0  0  0  0  0  0  0  0
    5.5840  -14.3078   25.3466 O   0  0  0  0  0  0  0  0  0  0  0  0
    7.5069  -15.5409   25.9466 C   0  0  0  0  0  0  0  0  0  0  0  0
    8.5645  -15.8663   24.9264 C   0  0  2  0  0  0  0  0  0  0  0  0
    8.0516  -15.8136   23.5666 N   0  0  0  0  0  0  0  0  0  0  0  0
    9.1277  -17.2290   25.1282 C   0  0  0  0  0  0  0  0  0  0  0  0
    8.8603  -18.1945   24.3499 O   0  0  0  0  0  0  0  0  0  0  0  0
   13.0449  -18.9389   24.8676 O   0  0  0  0  0  0  0  0  0  0  0  0
   11.9873  -18.0420   24.9710 C   0  0  0  0  0  0  0  0  0  0  0  0
   11.0819  -18.5155   26.0877 C   0  0  2  0  0  0  0  0  0  0  0  0
   10.0041  -17.5347   26.2103 N   0  0  0  0  0  0  0  0  0  0  0  0
   11.8203  -18.6568   27.3661 C   0  0  0  0  0  0  0  0  0  0  0  0
   12.4627  -19.6705   27.6971 O   0  0  0  0  0  0  0  0  0  0  0  0
   11.7837  -17.5821   28.2393 O   0  0  0  0  0  0  0  0  0  0  0  0
  2  8  1  0
  2  1  1  1
  3  2  1  0
  4  3  1  0
  5  4  1  0
  6  7  1  0
  6  5  1  0
  8  9  2  0
 11 10  1  0
 11 12  2  0
 13 11  1  0
 14 13  1  1
 15 14  1  0
 15  8  1  0
 16 14  1  0
 17 16  2  0
 18 19  1  0
 20 19  1  6
 20 21  1  0
 21 16  1  0
 22 24  1  0
 22 20  1  0
 23 22  2  0
M  END
$$$$
