KNS.pdb
     RDKit          3D

 24 23  0  0  1  0  0  0  0  0999 V2000
    8.2845  -16.0114   21.5368 N   0  0  0  0  0  0  0  0  0  0  0  0
    8.6350  -14.6276   21.5316 C   0  0  1  0  0  0  0  0  0  0  0  0
    7.6192  -13.8563   20.7215 C   0  0  0  0  0  0  0  0  0  0  0  0
    7.4737  -14.4346   19.3339 C   0  0  0  0  0  0  0  0  0  0  0  0
    7.6668  -13.4360   18.2412 C   0  0  0  0  0  0  0  0  0  0  0  0
    7.4052  -14.1405   16.9242 C   0  0  0  0  0  0  0  0  0  0  0  0
    7.4798  -13.2281   15.8141 N   0  0  0  0  0  0  0  0  0  0  0  0
    8.7838  -14.1273   22.8942 C   0  0  0  0  0  0  0  0  0  0  0  0
    9.0690  -12.9394   23.1980 O   0  0  0  0  0  0  0  0  0  0  0  0
    5.7537  -12.5290   26.0954 N   0  0  0  0  0  0  0  0  0  0  0  0
    6.9036  -13.2226   26.5840 C   0  0  0  0  0  0  0  0  0  0  0  0
    7.6080  -12.7382   27.5050 O   0  0  0  0  0  0  0  0  0  0  0  0
    7.2775  -14.5305   26.0028 C   0  0  0  0  0  0  0  0  0  0  0  0
    8.6386  -14.5366   25.3606 C   0  0  2  0  0  0  0  0  0  0  0  0
    8.5987  -15.0268   23.9921 N   0  0  0  0  0  0  0  0  0  0  0  0
    9.5981  -15.3969   26.1049 C   0  0  0  0  0  0  0  0  0  0  0  0
   10.2363  -16.3402   25.5461 O   0  0  0  0  0  0  0  0  0  0  0  0
   10.9597  -14.1144   29.5326 O   0  0  0  0  0  0  0  0  0  0  0  0
   10.8999  -15.5001   29.6305 C   0  0  0  0  0  0  0  0  0  0  0  0
   10.7978  -16.0626   28.2291 C   0  0  2  0  0  0  0  0  0  0  0  0
    9.8602  -15.2143   27.4942 N   0  0  0  0  0  0  0  0  0  0  0  0
   10.3424  -17.4740   28.2393 C   0  0  0  0  0  0  0  0  0  0  0  0
    9.2920  -17.8763   27.7059 O   0  0  0  0  0  0  0  0  0  0  0  0
   11.1492  -18.3938   28.8889 O   0  0  0  0  0  0  0  0  0  0  0  0
  2  8  1  0
  2  1  1  1
  3  2  1  0
  4  3  1  0
  5  4  1  0
  6  7  1  0
  6  5  1  0
  8  9  2  0
 11 10  1  0
 11 12  2  0
 13 11  1  0
 14 13  1  1
 15 14  1  0
 15  8  1  0
 16 14  1  0
 17 16  2  0
 18 19  1  0
 20 19  1  1
 20 21  1  0
 21 16  1  0
 22 24  1  0
 22 20  1  0
 23 22  2  0
M  END
$$$$
