KNS.pdb
     RDKit          3D

 24 23  0  0  1  0  0  0  0  0999 V2000
    8.5862  -18.3516   18.9290 N   0  0  0  0  0  0  0  0  0  0  0  0
    9.5838  -17.5536   18.2920 C   0  0  1  0  0  0  0  0  0  0  0  0
    9.2280  -17.3760   16.8342 C   0  0  0  0  0  0  0  0  0  0  0  0
    8.2885  -18.4612   16.3648 C   0  0  0  0  0  0  0  0  0  0  0  0
    7.9964  -18.4145   14.9016 C   0  0  0  0  0  0  0  0  0  0  0  0
    6.9787  -19.4978   14.6019 C   0  0  0  0  0  0  0  0  0  0  0  0
    6.7055  -19.5894   13.1921 N   0  0  0  0  0  0  0  0  0  0  0  0
    9.7630  -16.2895   18.9984 C   0  0  0  0  0  0  0  0  0  0  0  0
   10.5835  -15.3923   18.6723 O   0  0  0  0  0  0  0  0  0  0  0  0
    7.3276  -12.1522   19.3990 N   0  0  0  0  0  0  0  0  0  0  0  0
    7.3260  -13.5434   19.7260 C   0  0  0  0  0  0  0  0  0  0  0  0
    6.8675  -14.3955   18.9243 O   0  0  0  0  0  0  0  0  0  0  0  0
    7.8701  -13.9956   21.0251 C   0  0  0  0  0  0  0  0  0  0  0  0
    9.1469  -14.7825   20.9015 C   0  0  2  0  0  0  0  0  0  0  0  0
    8.9626  -16.0158   20.1531 N   0  0  0  0  0  0  0  0  0  0  0  0
    9.6973  -15.1575   22.2324 C   0  0  0  0  0  0  0  0  0  0  0  0
    9.7466  -14.3386   23.2001 O   0  0  0  0  0  0  0  0  0  0  0  0
    9.5691  -18.6913   23.8241 O   0  0  0  0  0  0  0  0  0  0  0  0
   10.0049  -17.6158   24.5902 C   0  0  0  0  0  0  0  0  0  0  0  0
   10.9290  -16.7773   23.7336 C   0  0  2  0  0  0  0  0  0  0  0  0
   10.2040  -16.4621   22.5032 N   0  0  0  0  0  0  0  0  0  0  0  0
   12.1951  -17.4904   23.4372 C   0  0  0  0  0  0  0  0  0  0  0  0
   12.5135  -17.9165   22.3116 O   0  0  0  0  0  0  0  0  0  0  0  0
   13.0712  -17.6880   24.4918 O   0  0  0  0  0  0  0  0  0  0  0  0
  2  8  1  0
  2  1  1  1
  3  2  1  0
  4  3  1  0
  5  4  1  0
  6  7  1  0
  6  5  1  0
  8  9  2  0
 11 10  1  0
 11 12  2  0
 13 11  1  0
 14 13  1  1
 15 14  1  0
 15  8  1  0
 16 14  1  0
 17 16  2  0
 18 19  1  0
 20 19  1  1
 20 21  1  0
 21 16  1  0
 22 24  1  0
 22 20  1  0
 23 22  2  0
M  END
$$$$
