KNS.pdb
     RDKit          3D

 24 23  0  0  1  0  0  0  0  0999 V2000
    4.2798  -20.3260   19.5440 N   0  0  0  0  0  0  0  0  0  0  0  0
    5.1244  -21.3823   19.0871 C   0  0  1  0  0  0  0  0  0  0  0  0
    4.5202  -22.0083   17.8517 C   0  0  0  0  0  0  0  0  0  0  0  0
    3.0365  -22.2326   18.0223 C   0  0  0  0  0  0  0  0  0  0  0  0
    2.2027  -21.5749   16.9733 C   0  0  0  0  0  0  0  0  0  0  0  0
    0.7578  -21.9567   17.2293 C   0  0  0  0  0  0  0  0  0  0  0  0
   -0.1105  -21.4590   16.1954 N   0  0  0  0  0  0  0  0  0  0  0  0
    6.4867  -20.9021   18.8812 C   0  0  0  0  0  0  0  0  0  0  0  0
    7.4437  -21.6070   18.4667 O   0  0  0  0  0  0  0  0  0  0  0  0
    9.2259  -18.4128   15.9743 N   0  0  0  0  0  0  0  0  0  0  0  0
    8.0768  -17.9942   16.7136 C   0  0  0  0  0  0  0  0  0  0  0  0
    6.9709  -17.8169   16.1439 O   0  0  0  0  0  0  0  0  0  0  0  0
    8.1819  -17.7639   18.1710 C   0  0  0  0  0  0  0  0  0  0  0  0
    8.1469  -19.0298   18.9842 C   0  0  2  0  0  0  0  0  0  0  0  0
    6.7937  -19.5324   19.1613 N   0  0  0  0  0  0  0  0  0  0  0  0
    8.7203  -18.8311   20.3430 C   0  0  0  0  0  0  0  0  0  0  0  0
    8.2997  -17.9297   21.1305 O   0  0  0  0  0  0  0  0  0  0  0  0
    8.8633  -20.9571   23.3306 O   0  0  0  0  0  0  0  0  0  0  0  0
    9.1320  -19.6050   23.1485 C   0  0  0  0  0  0  0  0  0  0  0  0
   10.3060  -19.4864   22.2006 C   0  0  2  0  0  0  0  0  0  0  0  0
    9.7795  -19.6423   20.8451 N   0  0  0  0  0  0  0  0  0  0  0  0
   11.3446  -20.5051   22.4882 C   0  0  0  0  0  0  0  0  0  0  0  0
   11.6287  -21.4510   21.7303 O   0  0  0  0  0  0  0  0  0  0  0  0
   12.0360  -20.3833   23.6824 O   0  0  0  0  0  0  0  0  0  0  0  0
  2  8  1  0
  2  1  1  6
  3  2  1  0
  4  3  1  0
  5  4  1  0
  6  7  1  0
  6  5  1  0
  8  9  2  0
 11 10  1  0
 11 12  2  0
 13 11  1  0
 14 13  1  1
 15 14  1  0
 15  8  1  0
 16 14  1  0
 17 16  2  0
 18 19  1  0
 20 19  1  1
 20 21  1  0
 21 16  1  0
 22 24  1  0
 22 20  1  0
 23 22  2  0
M  END
$$$$
