RYV.pdb
     RDKit          3D

 31 31  0  0  1  0  0  0  0  0999 V2000
   14.1227  -20.2154   22.8130 N   0  0  0  0  0  0  0  0  0  0  0  0
   13.6909  -21.5295   22.5470 C   0  0  0  0  0  0  0  0  0  0  0  0
   14.5627  -22.5032   22.4492 N   0  0  0  0  0  0  0  0  0  0  0  0
   12.3120  -21.8367   22.3784 N   0  0  0  0  0  0  0  0  0  0  0  0
   11.3561  -20.8013   22.1571 C   0  0  0  0  0  0  0  0  0  0  0  0
   11.6306  -20.1151   20.8252 C   0  0  0  0  0  0  0  0  0  0  0  0
   11.9409  -18.6667   21.0689 C   0  0  0  0  0  0  0  0  0  0  0  0
   10.7384  -17.7769   20.8512 C   0  0  2  0  0  0  0  0  0  0  0  0
   10.7883  -17.2205   19.4854 N   0  0  0  0  0  0  0  0  0  0  0  0
   10.6431  -16.6475   21.7976 C   0  0  0  0  0  0  0  0  0  0  0  0
   11.4424  -15.6510   21.7938 O   0  0  0  0  0  0  0  0  0  0  0  0
   14.2507  -23.4789   22.2712 O   0  0  0  0  0  0  0  0  0  0  0  0
    6.9050  -12.6364   18.5714 C   0  0  0  0  0  0  0  0  0  0  0  0
    7.1632  -13.2590   19.8061 C   0  0  0  0  0  0  0  0  0  0  0  0
    6.4281  -14.3284   20.2117 C   0  0  0  0  0  0  0  0  0  0  0  0
    6.6802  -14.9386   21.4203 C   0  0  0  0  0  0  0  0  0  0  0  0
    7.6778  -14.4952   22.2604 C   0  0  0  0  0  0  0  0  0  0  0  0
    7.9865  -15.1088   23.5603 C   0  0  2  0  0  0  0  0  0  0  0  0
    9.4112  -15.5476   23.7136 N   0  0  0  0  0  0  0  0  0  0  0  0
    9.6156  -16.6460   22.7744 C   0  0  0  0  0  0  0  0  0  0  0  0
    9.7191  -16.0879   25.0625 O   0  0  0  0  0  0  0  0  0  0  0  0
    9.8465  -17.3250   25.2509 C   0  0  0  0  0  0  0  0  0  0  0  0
    8.4187  -13.4112   21.8430 C   0  0  0  0  0  0  0  0  0  0  0  0
    8.1702  -12.7911   20.6257 C   0  0  0  0  0  0  0  0  0  0  0  0
   10.9939  -13.4770   27.9819 C   0  0  2  0  0  0  0  0  0  0  0  0
   10.2735  -14.6777   28.5697 C   0  0  0  0  0  0  0  0  0  0  0  0
    8.8443  -14.2285   28.8223 C   0  0  2  0  0  0  0  0  0  0  0  0
   10.2536  -15.7364   27.5093 N   0  0  0  0  0  0  0  0  0  0  0  0
    9.8878  -15.2712   26.2074 C   0  0  0  0  0  0  0  0  0  0  0  0
    9.3848  -16.8429   27.9400 O   0  0  0  0  0  0  0  0  0  0  0  0
    8.3283  -17.0664   27.2990 O   0  0  0  0  0  0  0  0  0  0  0  0
  2  1  1  0
  2  3  2  0
  4  5  1  0
  4  2  1  0
  6  5  1  0
  7  6  1  0
  8  9  1  6
  8  7  1  0
 10  8  1  0
 10 11  2  0
 12 13  1  0
 13 23  2  0
 14 15  2  0
 14 13  1  0
 15 16  1  0
 16 17  1  0
 16 22  2  0
 18 17  1  6
 18 19  1  0
 19 10  1  0
 20 18  1  0
 21 20  2  0
 23 22  1  0
 25 24  1  1
 25 27  1  0
 26 25  1  0
 27 29  1  0
 27 28  1  1
 28 20  1  0
 29 31  1  0
 30 29  2  0
M  END
$$$$
