RYV.pdb
     RDKit          3D

 31 31  0  0  1  0  0  0  0  0999 V2000
    9.7696  -13.5955   16.6145 N   0  0  0  0  0  0  0  0  0  0  0  0
    8.3773  -13.5425   16.4075 C   0  0  0  0  0  0  0  0  0  0  0  0
    7.8964  -13.1466   15.2543 N   0  0  0  0  0  0  0  0  0  0  0  0
    7.4612  -13.9127   17.4312 N   0  0  0  0  0  0  0  0  0  0  0  0
    7.8284  -13.8205   18.8064 C   0  0  0  0  0  0  0  0  0  0  0  0
    6.6436  -14.1941   19.6879 C   0  0  0  0  0  0  0  0  0  0  0  0
    6.6905  -15.6651   19.9833 C   0  0  0  0  0  0  0  0  0  0  0  0
    7.8515  -16.0350   20.8780 C   0  0  2  0  0  0  0  0  0  0  0  0
    8.3600  -17.3640   20.4874 N   0  0  0  0  0  0  0  0  0  0  0  0
    7.5158  -16.0824   22.3151 C   0  0  0  0  0  0  0  0  0  0  0  0
    6.8433  -15.1774   22.9155 O   0  0  0  0  0  0  0  0  0  0  0  0
    6.8701  -13.1123   15.0909 O   0  0  0  0  0  0  0  0  0  0  0  0
    8.8668  -19.2161   30.5807 C   0  0  0  0  0  0  0  0  0  0  0  0
    8.7124  -19.0633   29.1908 C   0  0  0  0  0  0  0  0  0  0  0  0
    7.4863  -19.1690   28.6127 C   0  0  0  0  0  0  0  0  0  0  0  0
    7.3341  -19.0196   27.2521 C   0  0  0  0  0  0  0  0  0  0  0  0
    8.4071  -18.7596   26.4284 C   0  0  0  0  0  0  0  0  0  0  0  0
    8.2996  -18.5935   24.9715 C   0  0  1  0  0  0  0  0  0  0  0  0
    7.7685  -17.2605   24.5392 N   0  0  0  0  0  0  0  0  0  0  0  0
    7.9530  -17.1838   23.0934 C   0  0  0  0  0  0  0  0  0  0  0  0
    8.5145  -16.1136   25.1175 O   0  0  0  0  0  0  0  0  0  0  0  0
    9.7237  -15.9175   24.8319 C   0  0  0  0  0  0  0  0  0  0  0  0
    9.6464  -18.6538   27.0210 C   0  0  0  0  0  0  0  0  0  0  0  0
    9.8074  -18.8032   28.3921 C   0  0  0  0  0  0  0  0  0  0  0  0
    7.4940  -12.5252   25.0141 C   0  0  2  0  0  0  0  0  0  0  0  0
    7.8106  -12.7620   26.4803 C   0  0  0  0  0  0  0  0  0  0  0  0
    6.4744  -12.9837   27.1686 C   0  0  2  0  0  0  0  0  0  0  0  0
    8.5965  -14.0355   26.5566 N   0  0  0  0  0  0  0  0  0  0  0  0
    7.9346  -15.1796   26.0107 C   0  0  0  0  0  0  0  0  0  0  0  0
    9.0053  -14.2747   27.9497 O   0  0  0  0  0  0  0  0  0  0  0  0
    8.5645  -15.2898   28.5431 O   0  0  0  0  0  0  0  0  0  0  0  0
  2  1  1  0
  2  3  2  0
  4  5  1  0
  4  2  1  0
  6  5  1  0
  7  6  1  0
  8  9  1  6
  8  7  1  0
 10  8  1  0
 10 11  2  0
 12 13  1  0
 13 23  2  0
 14 15  2  0
 14 13  1  0
 15 16  1  0
 16 17  1  0
 16 22  2  0
 18 17  1  6
 18 19  1  0
 19 10  1  0
 20 18  1  0
 21 20  2  0
 23 22  1  0
 25 24  1  1
 25 27  1  0
 26 25  1  0
 27 29  1  0
 27 28  1  1
 28 20  1  0
 29 31  1  0
 30 29  2  0
M  END
$$$$
