RYV.pdb
     RDKit          3D

 31 31  0  0  1  0  0  0  0  0999 V2000
   12.4564  -18.8397   14.2956 N   0  0  0  0  0  0  0  0  0  0  0  0
   12.5948  -18.6288   15.6813 C   0  0  0  0  0  0  0  0  0  0  0  0
   13.0384  -19.5901   16.4539 N   0  0  0  0  0  0  0  0  0  0  0  0
   12.2614  -17.3809   16.2780 N   0  0  0  0  0  0  0  0  0  0  0  0
   12.4578  -17.1648   17.6742 C   0  0  0  0  0  0  0  0  0  0  0  0
   11.3468  -17.8408   18.4671 C   0  0  0  0  0  0  0  0  0  0  0  0
   10.7448  -16.8495   19.4202 C   0  0  0  0  0  0  0  0  0  0  0  0
   10.8115  -17.3189   20.8557 C   0  0  2  0  0  0  0  0  0  0  0  0
    9.8509  -18.4220   21.0499 N   0  0  0  0  0  0  0  0  0  0  0  0
   10.5047  -16.2704   21.8491 C   0  0  0  0  0  0  0  0  0  0  0  0
   11.1666  -15.1834   21.9588 O   0  0  0  0  0  0  0  0  0  0  0  0
   13.1562  -19.4381   17.4757 O   0  0  0  0  0  0  0  0  0  0  0  0
    5.4938  -11.3512   27.1970 C   0  0  0  0  0  0  0  0  0  0  0  0
    6.0192  -12.3147   26.3169 C   0  0  0  0  0  0  0  0  0  0  0  0
    6.8102  -11.9452   25.2746 C   0  0  0  0  0  0  0  0  0  0  0  0
    7.3250  -12.8877   24.4125 C   0  0  0  0  0  0  0  0  0  0  0  0
    7.0625  -14.2309   24.5687 C   0  0  0  0  0  0  0  0  0  0  0  0
    7.5849  -15.2765   23.6768 C   0  0  2  0  0  0  0  0  0  0  0  0
    9.0646  -15.4917   23.7773 N   0  0  0  0  0  0  0  0  0  0  0  0
    9.4197  -16.4575   22.7423 C   0  0  0  0  0  0  0  0  0  0  0  0
    9.4863  -16.0897   25.0699 O   0  0  0  0  0  0  0  0  0  0  0  0
    9.5822  -17.3365   25.2058 C   0  0  0  0  0  0  0  0  0  0  0  0
    6.2604  -14.5982   25.6270 C   0  0  0  0  0  0  0  0  0  0  0  0
    5.7379  -13.6534   26.5002 C   0  0  0  0  0  0  0  0  0  0  0  0
   11.2568  -13.6738   27.9555 C   0  0  2  0  0  0  0  0  0  0  0  0
   10.4583  -14.8250   28.5414 C   0  0  0  0  0  0  0  0  0  0  0  0
    9.0878  -14.2598   28.8740 C   0  0  2  0  0  0  0  0  0  0  0  0
   10.2965  -15.8421   27.4529 N   0  0  0  0  0  0  0  0  0  0  0  0
    9.8036  -15.3202   26.2160 C   0  0  0  0  0  0  0  0  0  0  0  0
    9.4517  -16.9453   27.9366 O   0  0  0  0  0  0  0  0  0  0  0  0
    8.2774  -17.0423   27.5023 O   0  0  0  0  0  0  0  0  0  0  0  0
  2  1  1  0
  2  3  2  0
  4  5  1  0
  4  2  1  0
  6  5  1  0
  7  6  1  0
  8  9  1  6
  8  7  1  0
 10  8  1  0
 10 11  2  0
 12 13  1  0
 13 23  2  0
 14 15  2  0
 14 13  1  0
 15 16  1  0
 16 17  1  0
 16 22  2  0
 18 17  1  6
 18 19  1  0
 19 10  1  0
 20 18  1  0
 21 20  2  0
 23 22  1  0
 25 24  1  1
 25 27  1  0
 26 25  1  0
 27 29  1  0
 27 28  1  1
 28 20  1  0
 29 31  1  0
 30 29  2  0
M  END
$$$$
