RYV.pdb
     RDKit          3D

 31 31  0  0  1  0  0  0  0  0999 V2000
    9.2214  -13.9523   17.9771 N   0  0  0  0  0  0  0  0  0  0  0  0
    7.8221  -14.0398   17.8414 C   0  0  0  0  0  0  0  0  0  0  0  0
    7.0730  -12.9823   18.0365 N   0  0  0  0  0  0  0  0  0  0  0  0
    7.1865  -15.2639   17.4923 N   0  0  0  0  0  0  0  0  0  0  0  0
    7.8663  -16.5084   17.6471 C   0  0  0  0  0  0  0  0  0  0  0  0
    7.3867  -17.2100   18.9112 C   0  0  0  0  0  0  0  0  0  0  0  0
    8.5756  -17.6647   19.7068 C   0  0  0  0  0  0  0  0  0  0  0  0
    9.5657  -16.5484   19.9496 C   0  0  2  0  0  0  0  0  0  0  0  0
   10.8975  -16.9701   19.4744 N   0  0  0  0  0  0  0  0  0  0  0  0
    9.6943  -16.1523   21.3662 C   0  0  0  0  0  0  0  0  0  0  0  0
   10.6316  -16.5589   22.1329 O   0  0  0  0  0  0  0  0  0  0  0  0
    6.0433  -13.0288   17.8999 O   0  0  0  0  0  0  0  0  0  0  0  0
    6.8788  -12.1829   28.8596 C   0  0  0  0  0  0  0  0  0  0  0  0
    7.0660  -12.5985   27.5288 C   0  0  0  0  0  0  0  0  0  0  0  0
    6.1920  -13.4578   26.9402 C   0  0  0  0  0  0  0  0  0  0  0  0
    6.3744  -13.8653   25.6374 C   0  0  0  0  0  0  0  0  0  0  0  0
    7.4396  -13.4237   24.8837 C   0  0  0  0  0  0  0  0  0  0  0  0
    7.6812  -13.8288   23.4912 C   0  0  1  0  0  0  0  0  0  0  0  0
    8.7777  -14.8361   23.3222 N   0  0  0  0  0  0  0  0  0  0  0  0
    8.7364  -15.2723   21.9300 C   0  0  0  0  0  0  0  0  0  0  0  0
    8.5893  -16.0560   24.1485 O   0  0  0  0  0  0  0  0  0  0  0  0
    7.5839  -16.7954   23.9916 C   0  0  0  0  0  0  0  0  0  0  0  0
    8.3212  -12.5533   25.4865 C   0  0  0  0  0  0  0  0  0  0  0  0
    8.1435  -12.1381   26.7996 C   0  0  0  0  0  0  0  0  0  0  0  0
    9.9313  -19.1770   24.2878 C   0  0  2  0  0  0  0  0  0  0  0  0
   10.2215  -18.7564   25.7178 C   0  0  0  0  0  0  0  0  0  0  0  0
   11.6620  -18.2738   25.7302 C   0  0  2  0  0  0  0  0  0  0  0  0
    9.3314  -17.5889   26.0182 N   0  0  0  0  0  0  0  0  0  0  0  0
    9.5042  -16.4667   25.1488 C   0  0  0  0  0  0  0  0  0  0  0  0
    9.4968  -17.1981   27.4270 O   0  0  0  0  0  0  0  0  0  0  0  0
    9.9303  -16.0488   27.6884 O   0  0  0  0  0  0  0  0  0  0  0  0
  2  1  1  0
  2  3  2  0
  4  5  1  0
  4  2  1  0
  6  5  1  0
  7  6  1  0
  8  9  1  1
  8  7  1  0
 10  8  1  0
 10 11  2  0
 12 13  1  0
 13 23  2  0
 14 15  2  0
 14 13  1  0
 15 16  1  0
 16 17  1  0
 16 22  2  0
 18 17  1  6
 18 19  1  0
 19 10  1  0
 20 18  1  0
 21 20  2  0
 23 22  1  0
 25 24  1  1
 25 27  1  0
 26 25  1  0
 27 29  1  0
 27 28  1  1
 28 20  1  0
 29 31  1  0
 30 29  2  0
M  END
$$$$
