RYV.pdb
     RDKit          3D

 31 31  0  0  1  0  0  0  0  0999 V2000
   13.1758  -20.4887   19.4001 N   0  0  0  0  0  0  0  0  0  0  0  0
   14.1916  -19.5893   19.0217 C   0  0  0  0  0  0  0  0  0  0  0  0
   15.4465  -19.8644   19.2811 N   0  0  0  0  0  0  0  0  0  0  0  0
   13.8905  -18.3694   18.3542 N   0  0  0  0  0  0  0  0  0  0  0  0
   12.5404  -17.9345   18.2040 C   0  0  0  0  0  0  0  0  0  0  0  0
   12.0413  -17.3257   19.5081 C   0  0  0  0  0  0  0  0  0  0  0  0
   10.6752  -16.7423   19.2916 C   0  0  0  0  0  0  0  0  0  0  0  0
    9.6932  -17.1666   20.3597 C   0  0  2  0  0  0  0  0  0  0  0  0
    8.4176  -17.5457   19.7221 N   0  0  0  0  0  0  0  0  0  0  0  0
    9.4054  -16.1238   21.3646 C   0  0  0  0  0  0  0  0  0  0  0  0
    8.9875  -14.9530   21.0705 O   0  0  0  0  0  0  0  0  0  0  0  0
   16.1946  -19.1714   19.0780 O   0  0  0  0  0  0  0  0  0  0  0  0
    5.4938  -11.5442   27.2930 C   0  0  0  0  0  0  0  0  0  0  0  0
    6.0501  -12.4805   26.4026 C   0  0  0  0  0  0  0  0  0  0  0  0
    6.7470  -12.0702   25.3096 C   0  0  0  0  0  0  0  0  0  0  0  0
    7.2919  -12.9860   24.4373 C   0  0  0  0  0  0  0  0  0  0  0  0
    7.1551  -14.3425   24.6338 C   0  0  0  0  0  0  0  0  0  0  0  0
    7.7148  -15.3610   23.7333 C   0  0  2  0  0  0  0  0  0  0  0  0
    9.2051  -15.4995   23.8076 N   0  0  0  0  0  0  0  0  0  0  0  0
    9.5957  -16.4139   22.7392 C   0  0  0  0  0  0  0  0  0  0  0  0
    9.6771  -16.1121   25.0758 O   0  0  0  0  0  0  0  0  0  0  0  0
    9.7601  -17.3611   25.2000 C   0  0  0  0  0  0  0  0  0  0  0  0
    6.4478  -14.7511   25.7434 C   0  0  0  0  0  0  0  0  0  0  0  0
    5.8956  -13.8334   26.6271 C   0  0  0  0  0  0  0  0  0  0  0  0
   11.5246  -13.6751   27.9063 C   0  0  2  0  0  0  0  0  0  0  0  0
   10.8415  -14.8932   28.5029 C   0  0  0  0  0  0  0  0  0  0  0  0
    9.4652  -14.4280   28.9475 C   0  0  2  0  0  0  0  0  0  0  0  0
   10.6673  -15.8834   27.3917 N   0  0  0  0  0  0  0  0  0  0  0  0
   10.0588  -15.3549   26.2104 C   0  0  0  0  0  0  0  0  0  0  0  0
    9.9273  -17.0530   27.8911 O   0  0  0  0  0  0  0  0  0  0  0  0
    8.7655  -17.2611   27.4623 O   0  0  0  0  0  0  0  0  0  0  0  0
  2  1  1  0
  2  3  2  0
  4  5  1  0
  4  2  1  0
  6  5  1  0
  7  6  1  0
  8  9  1  6
  8  7  1  0
 10  8  1  0
 10 11  2  0
 12 13  1  0
 13 23  2  0
 14 15  2  0
 14 13  1  0
 15 16  1  0
 16 17  1  0
 16 22  2  0
 18 17  1  6
 18 19  1  0
 19 10  1  0
 20 18  1  0
 21 20  2  0
 23 22  1  0
 25 24  1  1
 25 27  1  0
 26 25  1  0
 27 29  1  0
 27 28  1  1
 28 20  1  0
 29 31  1  0
 30 29  2  0
M  END
$$$$
