RYV.pdb
     RDKit          3D

 31 31  0  0  1  0  0  0  0  0999 V2000
   11.7251  -22.2146   16.9409 N   0  0  0  0  0  0  0  0  0  0  0  0
   12.6804  -21.3582   16.3594 C   0  0  0  0  0  0  0  0  0  0  0  0
   13.3014  -21.7117   15.2608 N   0  0  0  0  0  0  0  0  0  0  0  0
   12.9967  -20.0982   16.9396 N   0  0  0  0  0  0  0  0  0  0  0  0
   12.4326  -19.7093   18.1907 C   0  0  0  0  0  0  0  0  0  0  0  0
   11.0025  -19.2251   17.9890 C   0  0  0  0  0  0  0  0  0  0  0  0
   10.3807  -18.9462   19.3265 C   0  0  0  0  0  0  0  0  0  0  0  0
    9.6058  -17.6483   19.3406 C   0  0  2  0  0  0  0  0  0  0  0  0
    9.6290  -17.0554   17.9896 N   0  0  0  0  0  0  0  0  0  0  0  0
   10.1292  -16.6422   20.2863 C   0  0  0  0  0  0  0  0  0  0  0  0
   11.1312  -15.8902   20.0373 O   0  0  0  0  0  0  0  0  0  0  0  0
   14.0039  -21.0829   14.8224 O   0  0  0  0  0  0  0  0  0  0  0  0
    6.8517  -12.3996   17.7358 C   0  0  0  0  0  0  0  0  0  0  0  0
    7.3020  -12.9371   18.9553 C   0  0  0  0  0  0  0  0  0  0  0  0
    6.5489  -13.8420   19.6354 C   0  0  0  0  0  0  0  0  0  0  0  0
    6.9888  -14.3688   20.8294 C   0  0  0  0  0  0  0  0  0  0  0  0
    8.1981  -14.0044   21.3790 C   0  0  0  0  0  0  0  0  0  0  0  0
    8.7130  -14.5346   22.6500 C   0  0  2  0  0  0  0  0  0  0  0  0
    9.8886  -15.4525   22.5055 N   0  0  0  0  0  0  0  0  0  0  0  0
    9.5014  -16.4832   21.5475 C   0  0  0  0  0  0  0  0  0  0  0  0
   10.2406  -16.1610   23.7627 O   0  0  0  0  0  0  0  0  0  0  0  0
   10.4643  -15.5240   24.8240 C   0  0  0  0  0  0  0  0  0  0  0  0
    8.9560  -13.0870   20.6844 C   0  0  0  0  0  0  0  0  0  0  0  0
    8.5188  -12.5518   19.4801 C   0  0  0  0  0  0  0  0  0  0  0  0
    9.3441  -20.0795   24.3742 C   0  0  2  0  0  0  0  0  0  0  0  0
   10.7432  -19.7782   24.8819 C   0  0  0  0  0  0  0  0  0  0  0  0
   11.6957  -20.2573   23.7996 C   0  0  2  0  0  0  0  0  0  0  0  0
   10.8584  -18.2876   24.9842 N   0  0  0  0  0  0  0  0  0  0  0  0
   10.3478  -17.5702   23.8574 C   0  0  0  0  0  0  0  0  0  0  0  0
   12.2580  -17.9231   25.2545 O   0  0  0  0  0  0  0  0  0  0  0  0
   12.7667  -18.2529   26.3543 O   0  0  0  0  0  0  0  0  0  0  0  0
  2  1  1  0
  2  3  2  0
  4  5  1  0
  4  2  1  0
  6  5  1  0
  7  6  1  0
  8  9  1  6
  8  7  1  0
 10  8  1  0
 10 11  2  0
 12 13  1  0
 13 23  2  0
 14 15  2  0
 14 13  1  0
 15 16  1  0
 16 17  1  0
 16 22  2  0
 18 17  1  6
 18 19  1  0
 19 10  1  0
 20 18  1  0
 21 20  2  0
 23 22  1  0
 25 24  1  1
 25 27  1  0
 26 25  1  0
 27 29  1  0
 27 28  1  1
 28 20  1  0
 29 31  1  0
 30 29  2  0
M  END
$$$$
