RYV.pdb
     RDKit          3D

 31 31  0  0  1  0  0  0  0  0999 V2000
   13.4569  -21.7239   23.9942 N   0  0  0  0  0  0  0  0  0  0  0  0
   13.0254  -21.9290   22.6692 C   0  0  0  0  0  0  0  0  0  0  0  0
   13.8630  -22.3723   21.7638 N   0  0  0  0  0  0  0  0  0  0  0  0
   11.6834  -21.6646   22.2774 N   0  0  0  0  0  0  0  0  0  0  0  0
   11.1369  -20.3517   22.3876 C   0  0  0  0  0  0  0  0  0  0  0  0
   11.1068  -19.6836   21.0190 C   0  0  0  0  0  0  0  0  0  0  0  0
   11.6304  -18.2820   21.1404 C   0  0  0  0  0  0  0  0  0  0  0  0
   10.5724  -17.2452   20.8390 C   0  0  2  0  0  0  0  0  0  0  0  0
   10.9193  -16.5492   19.5849 N   0  0  0  0  0  0  0  0  0  0  0  0
   10.4087  -16.2246   21.8935 C   0  0  0  0  0  0  0  0  0  0  0  0
   11.2518  -15.2900   22.1114 O   0  0  0  0  0  0  0  0  0  0  0  0
   13.5399  -22.5774   20.7970 O   0  0  0  0  0  0  0  0  0  0  0  0
    5.7370  -11.3458   27.6917 C   0  0  0  0  0  0  0  0  0  0  0  0
    6.1959  -12.2154   26.6856 C   0  0  0  0  0  0  0  0  0  0  0  0
    6.9149  -11.7418   25.6334 C   0  0  0  0  0  0  0  0  0  0  0  0
    7.3646  -12.5924   24.6480 C   0  0  0  0  0  0  0  0  0  0  0  0
    7.1070  -13.9450   24.6869 C   0  0  0  0  0  0  0  0  0  0  0  0
    7.5617  -14.8951   23.6611 C   0  0  1  0  0  0  0  0  0  0  0  0
    9.0044  -15.2840   23.7754 N   0  0  0  0  0  0  0  0  0  0  0  0
    9.2600  -16.2630   22.7235 C   0  0  0  0  0  0  0  0  0  0  0  0
    9.3338  -15.9541   25.0594 O   0  0  0  0  0  0  0  0  0  0  0  0
    9.0989  -17.1780   25.2300 C   0  0  0  0  0  0  0  0  0  0  0  0
    6.3779  -14.4179   25.7561 C   0  0  0  0  0  0  0  0  0  0  0  0
    5.9214  -13.5662   26.7532 C   0  0  0  0  0  0  0  0  0  0  0  0
   11.7549  -13.9268   27.7592 C   0  0  2  0  0  0  0  0  0  0  0  0
   10.8617  -14.9642   28.4165 C   0  0  0  0  0  0  0  0  0  0  0  0
    9.6383  -14.2122   28.9125 C   0  0  2  0  0  0  0  0  0  0  0  0
   10.4275  -15.9112   27.3394 N   0  0  0  0  0  0  0  0  0  0  0  0
    9.9218  -15.2820   26.1590 C   0  0  0  0  0  0  0  0  0  0  0  0
    9.4520  -16.8645   27.8911 O   0  0  0  0  0  0  0  0  0  0  0  0
    8.2720  -16.8379   27.4620 O   0  0  0  0  0  0  0  0  0  0  0  0
  2  1  1  0
  2  3  2  0
  4  5  1  0
  4  2  1  0
  6  5  1  0
  7  6  1  0
  8  9  1  6
  8  7  1  0
 10  8  1  0
 10 11  2  0
 12 13  1  0
 13 23  2  0
 14 15  2  0
 14 13  1  0
 15 16  1  0
 16 17  1  0
 16 22  2  0
 18 17  1  6
 18 19  1  0
 19 10  1  0
 20 18  1  0
 21 20  2  0
 23 22  1  0
 25 24  1  1
 25 27  1  0
 26 25  1  0
 27 29  1  0
 27 28  1  1
 28 20  1  0
 29 31  1  0
 30 29  2  0
M  END
$$$$
