NSN.pdb
     RDKit          3D

 23 22  0  0  1  0  0  0  0  0999 V2000
   14.4024  -12.8333  -13.7140 N   0  0  0  0  0  0  0  0  0  0  0  0
   15.4835  -12.8185  -14.6517 C   0  0  0  0  0  0  0  0  0  0  0  0
   15.9711  -13.9196  -14.9943 O   0  0  0  0  0  0  0  0  0  0  0  0
   16.0121  -11.5453  -15.2028 C   0  0  0  0  0  0  0  0  0  0  0  0
   15.2923  -10.3609  -14.5859 C   0  0  2  0  0  0  0  0  0  0  0  0
   13.9354  -10.3955  -15.0975 N   0  0  0  0  0  0  0  0  0  0  0  0
   15.9997   -9.1201  -14.9960 C   0  0  0  0  0  0  0  0  0  0  0  0
   15.5631   -8.4010  -15.9503 O   0  0  0  0  0  0  0  0  0  0  0  0
   17.1948   -5.0505  -14.7478 O   0  0  0  0  0  0  0  0  0  0  0  0
   16.6541   -6.3206  -14.5483 C   0  0  0  0  0  0  0  0  0  0  0  0
   17.7424   -7.3821  -14.7127 C   0  0  2  0  0  0  0  0  0  0  0  0
   17.1978   -8.6658  -14.3560 N   0  0  0  0  0  0  0  0  0  0  0  0
   18.9318   -7.0272  -13.9117 C   0  0  0  0  0  0  0  0  0  0  0  0
   19.0372   -7.1755  -12.6751 O   0  0  0  0  0  0  0  0  0  0  0  0
   21.8415   -9.0247  -13.6754 N   0  0  0  0  0  0  0  0  0  0  0  0
   22.6494   -8.2322  -14.5196 C   0  0  0  0  0  0  0  0  0  0  0  0
   23.5573   -8.8636  -15.1620 O   0  0  0  0  0  0  0  0  0  0  0  0
   22.4908   -6.7770  -14.6833 C   0  0  0  0  0  0  0  0  0  0  0  0
   21.3181   -6.2048  -13.9629 C   0  0  2  0  0  0  0  0  0  0  0  0
   20.0497   -6.4728  -14.5862 N   0  0  0  0  0  0  0  0  0  0  0  0
   21.4735   -4.7616  -13.8143 C   0  0  0  0  0  0  0  0  0  0  0  0
   22.4762   -4.2888  -12.9405 O   0  0  0  0  0  0  0  0  0  0  0  0
   20.8119   -3.8828  -14.3808 O   0  0  0  0  0  0  0  0  0  0  0  0
  1  2  1  0
  2  4  1  0
  3  2  2  0
  4  5  1  0
  5  6  1  6
  7  5  1  0
  8  7  2  0
  9 10  1  0
 11 10  1  1
 11 12  1  0
 11 13  1  0
 12  7  1  0
 13 20  1  0
 14 13  2  0
 15 16  1  0
 16 18  1  0
 17 16  2  0
 19 18  1  6
 19 21  1  0
 20 19  1  0
 21 22  1  0
 23 21  2  0
M  END
$$$$
