NSN.pdb
     RDKit          3D

 23 22  0  0  1  0  0  0  0  0999 V2000
   24.2785  -32.1410  -10.6448 N   0  0  0  0  0  0  0  0  0  0  0  0
   25.2586  -33.1840  -10.6380 C   0  0  0  0  0  0  0  0  0  0  0  0
   25.6486  -33.6225  -11.7440 O   0  0  0  0  0  0  0  0  0  0  0  0
   25.7980  -33.7303   -9.3673 C   0  0  0  0  0  0  0  0  0  0  0  0
   25.0461  -33.1559   -8.1815 C   0  0  2  0  0  0  0  0  0  0  0  0
   25.4562  -31.7690   -8.0702 N   0  0  0  0  0  0  0  0  0  0  0  0
   25.4182  -33.9347   -6.9718 C   0  0  0  0  0  0  0  0  0  0  0  0
   24.6148  -34.7797   -6.4628 O   0  0  0  0  0  0  0  0  0  0  0  0
   28.7043  -33.0252   -4.5318 O   0  0  0  0  0  0  0  0  0  0  0  0
   28.4201  -34.3739   -4.7449 C   0  0  0  0  0  0  0  0  0  0  0  0
   26.9474  -34.5432   -5.1200 C   0  0  2  0  0  0  0  0  0  0  0  0
   26.6809  -33.7832   -6.3130 N   0  0  0  0  0  0  0  0  0  0  0  0
   26.0807  -34.1498   -3.9903 C   0  0  0  0  0  0  0  0  0  0  0  0
   25.2082  -33.2555   -4.0300 O   0  0  0  0  0  0  0  0  0  0  0  0
   21.8635  -34.7844   -0.3715 N   0  0  0  0  0  0  0  0  0  0  0  0
   23.1362  -34.2676   -0.6982 C   0  0  0  0  0  0  0  0  0  0  0  0
   23.5430  -33.3041    0.0379 O   0  0  0  0  0  0  0  0  0  0  0  0
   23.9737  -34.7746   -1.7986 C   0  0  0  0  0  0  0  0  0  0  0  0
   25.4375  -34.5883   -1.5888 C   0  0  2  0  0  0  0  0  0  0  0  0
   26.2407  -34.8320   -2.7571 N   0  0  0  0  0  0  0  0  0  0  0  0
   25.9052  -35.4505   -0.5085 C   0  0  0  0  0  0  0  0  0  0  0  0
   26.3023  -34.8416    0.7016 O   0  0  0  0  0  0  0  0  0  0  0  0
   25.9950  -36.6843   -0.5311 O   0  0  0  0  0  0  0  0  0  0  0  0
  1  2  1  0
  2  4  1  0
  3  2  2  0
  4  5  1  0
  5  6  1  1
  7  5  1  0
  8  7  2  0
  9 10  1  0
 11 10  1  1
 11 12  1  0
 11 13  1  0
 12  7  1  0
 13 20  1  0
 14 13  2  0
 15 16  1  0
 16 18  1  0
 17 16  2  0
 19 18  1  6
 19 21  1  0
 20 19  1  0
 21 22  1  0
 23 21  2  0
M  END
$$$$
