NSN.pdb
     RDKit          3D

 23 22  0  0  1  0  0  0  0  0999 V2000
   13.2554  -12.6167   -9.8014 N   0  0  0  0  0  0  0  0  0  0  0  0
   13.3959  -11.3181   -9.2163 C   0  0  0  0  0  0  0  0  0  0  0  0
   12.7622  -11.0836   -8.1622 O   0  0  0  0  0  0  0  0  0  0  0  0
   14.2617  -10.2815   -9.8326 C   0  0  0  0  0  0  0  0  0  0  0  0
   13.5296   -8.9549   -9.9076 C   0  0  2  0  0  0  0  0  0  0  0  0
   12.4002   -9.1607  -10.7942 N   0  0  0  0  0  0  0  0  0  0  0  0
   14.4672   -7.9346  -10.4444 C   0  0  0  0  0  0  0  0  0  0  0  0
   14.7682   -7.9060  -11.6802 O   0  0  0  0  0  0  0  0  0  0  0  0
   14.4750   -4.1020   -9.6455 O   0  0  0  0  0  0  0  0  0  0  0  0
   15.7526   -4.6253   -9.4479 C   0  0  0  0  0  0  0  0  0  0  0  0
   15.9079   -5.9305  -10.2290 C   0  0  2  0  0  0  0  0  0  0  0  0
   15.0822   -6.9392   -9.6184 N   0  0  0  0  0  0  0  0  0  0  0  0
   17.3302   -6.3241  -10.2950 C   0  0  0  0  0  0  0  0  0  0  0  0
   18.0271   -6.6710   -9.3171 O   0  0  0  0  0  0  0  0  0  0  0  0
   22.0274   -7.4075  -12.5204 N   0  0  0  0  0  0  0  0  0  0  0  0
   20.9603   -8.3161  -12.6909 C   0  0  0  0  0  0  0  0  0  0  0  0
   21.2790   -9.4503  -13.1887 O   0  0  0  0  0  0  0  0  0  0  0  0
   19.5626   -8.0225  -12.3308 C   0  0  0  0  0  0  0  0  0  0  0  0
   19.3485   -6.6563  -11.7748 C   0  0  2  0  0  0  0  0  0  0  0  0
   17.9682   -6.3114  -11.5618 N   0  0  0  0  0  0  0  0  0  0  0  0
   19.9535   -5.6564  -12.6485 C   0  0  0  0  0  0  0  0  0  0  0  0
   21.3365   -5.4076  -12.5139 O   0  0  0  0  0  0  0  0  0  0  0  0
   19.3800   -4.9858  -13.5158 O   0  0  0  0  0  0  0  0  0  0  0  0
  1  2  1  0
  2  4  1  0
  3  2  2  0
  4  5  1  0
  5  6  1  6
  7  5  1  0
  8  7  2  0
  9 10  1  0
 11 10  1  1
 11 12  1  0
 11 13  1  0
 12  7  1  0
 13 20  1  0
 14 13  2  0
 15 16  1  0
 16 18  1  0
 17 16  2  0
 19 18  1  6
 19 21  1  0
 20 19  1  0
 21 22  1  0
 23 21  2  0
M  END
$$$$
