NSN.pdb
     RDKit          3D

 23 22  0  0  1  0  0  0  0  0999 V2000
   28.0786  -17.5272  -17.5530 N   0  0  0  0  0  0  0  0  0  0  0  0
   28.0237  -17.8845  -16.1682 C   0  0  0  0  0  0  0  0  0  0  0  0
   28.8810  -17.3853  -15.4044 O   0  0  0  0  0  0  0  0  0  0  0  0
   26.9882  -18.8134  -15.6496 C   0  0  0  0  0  0  0  0  0  0  0  0
   27.6326  -19.9446  -14.8707 C   0  0  2  0  0  0  0  0  0  0  0  0
   28.3286  -20.7659  -15.8429 N   0  0  0  0  0  0  0  0  0  0  0  0
   26.5594  -20.7059  -14.1802 C   0  0  0  0  0  0  0  0  0  0  0  0
   25.8522  -21.5578  -14.8069 O   0  0  0  0  0  0  0  0  0  0  0  0
   25.1784  -19.9436  -10.2016 O   0  0  0  0  0  0  0  0  0  0  0  0
   25.2871  -21.2425  -10.6979 C   0  0  0  0  0  0  0  0  0  0  0  0
   25.1392  -21.2331  -12.2197 C   0  0  2  0  0  0  0  0  0  0  0  0
   26.2571  -20.5292  -12.7914 N   0  0  0  0  0  0  0  0  0  0  0  0
   23.8402  -20.6456  -12.6064 C   0  0  0  0  0  0  0  0  0  0  0  0
   23.5763  -19.4239  -12.6134 O   0  0  0  0  0  0  0  0  0  0  0  0
   18.7364  -22.0510  -15.8637 N   0  0  0  0  0  0  0  0  0  0  0  0
   19.5653  -21.3874  -14.9333 C   0  0  0  0  0  0  0  0  0  0  0  0
   19.1602  -20.2322  -14.5629 O   0  0  0  0  0  0  0  0  0  0  0  0
   20.8162  -21.9499  -14.3962 C   0  0  0  0  0  0  0  0  0  0  0  0
   21.4753  -21.1001  -13.3642 C   0  0  2  0  0  0  0  0  0  0  0  0
   22.8010  -21.5259  -13.0027 N   0  0  0  0  0  0  0  0  0  0  0  0
   20.6546  -21.0437  -12.1592 C   0  0  0  0  0  0  0  0  0  0  0  0
   19.5960  -20.1107  -12.1206 O   0  0  0  0  0  0  0  0  0  0  0  0
   20.7821  -21.7373  -11.1425 O   0  0  0  0  0  0  0  0  0  0  0  0
  1  2  1  0
  2  4  1  0
  3  2  2  0
  4  5  1  0
  5  6  1  6
  7  5  1  0
  8  7  2  0
  9 10  1  0
 11 10  1  1
 11 12  1  0
 11 13  1  0
 12  7  1  0
 13 20  1  0
 14 13  2  0
 15 16  1  0
 16 18  1  0
 17 16  2  0
 19 18  1  6
 19 21  1  0
 20 19  1  0
 21 22  1  0
 23 21  2  0
M  END
$$$$
