NSN.pdb
     RDKit          3D

 23 22  0  0  1  0  0  0  0  0999 V2000
   19.9770  -12.2767  -17.9145 N   0  0  0  0  0  0  0  0  0  0  0  0
   20.9629  -11.3748  -18.4271 C   0  0  0  0  0  0  0  0  0  0  0  0
   21.8105  -11.8331  -19.2267 O   0  0  0  0  0  0  0  0  0  0  0  0
   20.9846   -9.9447  -18.0291 C   0  0  0  0  0  0  0  0  0  0  0  0
   19.9341   -9.6733  -16.9687 C   0  0  2  0  0  0  0  0  0  0  0  0
   18.6485   -9.7627  -17.6345 N   0  0  0  0  0  0  0  0  0  0  0  0
   20.1701   -8.3143  -16.4157 C   0  0  0  0  0  0  0  0  0  0  0  0
   19.5767   -7.2976  -16.8982 O   0  0  0  0  0  0  0  0  0  0  0  0
   22.1226   -5.4711  -13.0052 O   0  0  0  0  0  0  0  0  0  0  0  0
   21.9549   -6.7655  -13.4967 C   0  0  0  0  0  0  0  0  0  0  0  0
   21.2367   -6.7218  -14.8459 C   0  0  2  0  0  0  0  0  0  0  0  0
   21.0666   -8.0680  -15.3262 N   0  0  0  0  0  0  0  0  0  0  0  0
   21.9796   -5.8692  -15.7964 C   0  0  0  0  0  0  0  0  0  0  0  0
   23.0183   -6.2056  -16.4050 O   0  0  0  0  0  0  0  0  0  0  0  0
   23.1822   -1.7553  -18.8548 N   0  0  0  0  0  0  0  0  0  0  0  0
   22.0497   -2.5323  -19.1823 C   0  0  0  0  0  0  0  0  0  0  0  0
   21.5857   -2.3569  -20.3611 O   0  0  0  0  0  0  0  0  0  0  0  0
   21.4161   -3.4934  -18.2635 C   0  0  0  0  0  0  0  0  0  0  0  0
   22.1037   -3.6258  -16.9477 C   0  0  2  0  0  0  0  0  0  0  0  0
   21.4870   -4.5629  -16.0471 N   0  0  0  0  0  0  0  0  0  0  0  0
   22.1866   -2.3262  -16.2896 C   0  0  0  0  0  0  0  0  0  0  0  0
   21.5590   -2.1772  -15.0339 O   0  0  0  0  0  0  0  0  0  0  0  0
   22.7585   -1.3151  -16.7154 O   0  0  0  0  0  0  0  0  0  0  0  0
  1  2  1  0
  2  4  1  0
  3  2  2  0
  4  5  1  0
  5  6  1  6
  7  5  1  0
  8  7  2  0
  9 10  1  0
 11 10  1  1
 11 12  1  0
 11 13  1  0
 12  7  1  0
 13 20  1  0
 14 13  2  0
 15 16  1  0
 16 18  1  0
 17 16  2  0
 19 18  1  6
 19 21  1  0
 20 19  1  0
 21 22  1  0
 23 21  2  0
M  END
$$$$
