NSN.pdb
     RDKit          3D

 23 22  0  0  1  0  0  0  0  0999 V2000
   18.6190  -14.2646  -19.4741 N   0  0  0  0  0  0  0  0  0  0  0  0
   18.4975  -14.3215  -18.0492 C   0  0  0  0  0  0  0  0  0  0  0  0
   17.9381  -15.3257  -17.5529 O   0  0  0  0  0  0  0  0  0  0  0  0
   19.0154  -13.2314  -17.1846 C   0  0  0  0  0  0  0  0  0  0  0  0
   19.5717  -12.1020  -18.0310 C   0  0  2  0  0  0  0  0  0  0  0  0
   20.7837  -12.6100  -18.6450 N   0  0  0  0  0  0  0  0  0  0  0  0
   19.8531  -10.9465  -17.1399 C   0  0  0  0  0  0  0  0  0  0  0  0
   18.9213  -10.3833  -16.4819 O   0  0  0  0  0  0  0  0  0  0  0  0
   22.9877   -7.8348  -15.1472 O   0  0  0  0  0  0  0  0  0  0  0  0
   22.8149   -8.9687  -15.9406 C   0  0  0  0  0  0  0  0  0  0  0  0
   21.3303   -9.1693  -16.2469 C   0  0  2  0  0  0  0  0  0  0  0  0
   21.1672  -10.4022  -16.9716 N   0  0  0  0  0  0  0  0  0  0  0  0
   20.7947   -8.0041  -16.9802 C   0  0  0  0  0  0  0  0  0  0  0  0
   20.8998   -7.8184  -18.2118 O   0  0  0  0  0  0  0  0  0  0  0  0
   18.2352   -3.4591  -17.8324 N   0  0  0  0  0  0  0  0  0  0  0  0
   17.4716   -4.5764  -17.4299 C   0  0  0  0  0  0  0  0  0  0  0  0
   16.2071   -4.4615  -17.5837 O   0  0  0  0  0  0  0  0  0  0  0  0
   18.0488   -5.8106  -16.8705 C   0  0  0  0  0  0  0  0  0  0  0  0
   19.5384   -5.8203  -16.8189 C   0  0  2  0  0  0  0  0  0  0  0  0
   20.1048   -7.0095  -16.2408 N   0  0  0  0  0  0  0  0  0  0  0  0
   20.0243   -4.6604  -16.0790 C   0  0  0  0  0  0  0  0  0  0  0  0
   19.7454   -3.3777  -16.5984 O   0  0  0  0  0  0  0  0  0  0  0  0
   20.6675   -4.6718  -15.0221 O   0  0  0  0  0  0  0  0  0  0  0  0
  1  2  1  0
  2  4  1  0
  3  2  2  0
  4  5  1  0
  5  6  1  1
  7  5  1  0
  8  7  2  0
  9 10  1  0
 11 10  1  6
 11 12  1  0
 11 13  1  0
 12  7  1  0
 13 20  1  0
 14 13  2  0
 15 16  1  0
 16 18  1  0
 17 16  2  0
 19 18  1  1
 19 21  1  0
 20 19  1  0
 21 22  1  0
 23 21  2  0
M  END
$$$$
