NSN.pdb
     RDKit          3D

 23 22  0  0  1  0  0  0  0  0999 V2000
   34.2287   -7.4939  -15.0331 N   0  0  0  0  0  0  0  0  0  0  0  0
   32.8465   -7.3558  -15.3775 C   0  0  0  0  0  0  0  0  0  0  0  0
   32.1365   -6.6241  -14.6506 O   0  0  0  0  0  0  0  0  0  0  0  0
   32.2691   -8.0524  -16.5545 C   0  0  0  0  0  0  0  0  0  0  0  0
   33.2583   -9.0576  -17.1137 C   0  0  2  0  0  0  0  0  0  0  0  0
   34.3476   -8.2864  -17.6820 N   0  0  0  0  0  0  0  0  0  0  0  0
   32.5648   -9.8684  -18.1481 C   0  0  0  0  0  0  0  0  0  0  0  0
   32.2391   -9.3622  -19.2689 O   0  0  0  0  0  0  0  0  0  0  0  0
   31.2084  -13.6509  -17.3102 O   0  0  0  0  0  0  0  0  0  0  0  0
   31.4835  -13.4319  -18.6599 C   0  0  0  0  0  0  0  0  0  0  0  0
   31.4613  -11.9327  -18.9597 C   0  0  2  0  0  0  0  0  0  0  0  0
   32.2229  -11.2451  -17.9503 N   0  0  0  0  0  0  0  0  0  0  0  0
   30.0692  -11.4471  -19.0503 C   0  0  0  0  0  0  0  0  0  0  0  0
   29.3547  -11.1242  -18.0767 O   0  0  0  0  0  0  0  0  0  0  0  0
   28.6300   -8.4363  -19.1563 N   0  0  0  0  0  0  0  0  0  0  0  0
   28.2766   -8.4098  -20.5230 C   0  0  0  0  0  0  0  0  0  0  0  0
   28.1803   -7.2453  -21.0429 O   0  0  0  0  0  0  0  0  0  0  0  0
   28.0307   -9.6146  -21.3340 C   0  0  0  0  0  0  0  0  0  0  0  0
   28.1355  -10.8937  -20.5761 C   0  0  2  0  0  0  0  0  0  0  0  0
   29.4841  -11.3338  -20.3374 N   0  0  0  0  0  0  0  0  0  0  0  0
   27.4117  -11.9522  -21.2722 C   0  0  0  0  0  0  0  0  0  0  0  0
   28.1284  -13.1083  -21.6499 O   0  0  0  0  0  0  0  0  0  0  0  0
   26.2123  -11.9539  -21.5761 O   0  0  0  0  0  0  0  0  0  0  0  0
  1  2  1  0
  2  4  1  0
  3  2  2  0
  4  5  1  0
  5  6  1  6
  7  5  1  0
  8  7  2  0
  9 10  1  0
 11 10  1  1
 11 12  1  0
 11 13  1  0
 12  7  1  0
 13 20  1  0
 14 13  2  0
 15 16  1  0
 16 18  1  0
 17 16  2  0
 19 18  1  6
 19 21  1  0
 20 19  1  0
 21 22  1  0
 23 21  2  0
M  END
$$$$
