NSN.pdb
     RDKit          3D

 23 22  0  0  1  0  0  0  0  0999 V2000
   22.3899  -32.1175  -12.5184 N   0  0  0  0  0  0  0  0  0  0  0  0
   22.1620  -31.0325  -11.6133 C   0  0  0  0  0  0  0  0  0  0  0  0
   22.7688  -31.0516  -10.5182 O   0  0  0  0  0  0  0  0  0  0  0  0
   21.2403  -29.9202  -11.9556 C   0  0  0  0  0  0  0  0  0  0  0  0
   20.5898  -29.3656  -10.7023 C   0  0  2  0  0  0  0  0  0  0  0  0
   19.7329  -30.4165  -10.1871 N   0  0  0  0  0  0  0  0  0  0  0  0
   19.8089  -28.1582  -11.0774 C   0  0  0  0  0  0  0  0  0  0  0  0
   19.3604  -28.0078  -12.2584 O   0  0  0  0  0  0  0  0  0  0  0  0
   19.6693  -24.7364   -8.7378 O   0  0  0  0  0  0  0  0  0  0  0  0
   18.4838  -25.0576   -9.3986 C   0  0  0  0  0  0  0  0  0  0  0  0
   18.7835  -25.9538  -10.6007 C   0  0  2  0  0  0  0  0  0  0  0  0
   19.5201  -27.1054  -10.1502 N   0  0  0  0  0  0  0  0  0  0  0  0
   19.5014  -25.1924  -11.6433 C   0  0  0  0  0  0  0  0  0  0  0  0
   20.7330  -25.2417  -11.8510 O   0  0  0  0  0  0  0  0  0  0  0  0
   20.3304  -21.9941  -15.7460 N   0  0  0  0  0  0  0  0  0  0  0  0
   20.1446  -23.3889  -15.8613 C   0  0  0  0  0  0  0  0  0  0  0  0
   20.4952  -23.8990  -16.9805 O   0  0  0  0  0  0  0  0  0  0  0  0
   19.5928  -24.2378  -14.7915 C   0  0  0  0  0  0  0  0  0  0  0  0
   19.3128  -23.5136  -13.5193 C   0  0  2  0  0  0  0  0  0  0  0  0
   18.7460  -24.3332  -12.4818 N   0  0  0  0  0  0  0  0  0  0  0  0
   18.4208  -22.3859  -13.7676 C   0  0  0  0  0  0  0  0  0  0  0  0
   18.8774  -21.3528  -14.6143 O   0  0  0  0  0  0  0  0  0  0  0  0
   17.2818  -22.2274  -13.3111 O   0  0  0  0  0  0  0  0  0  0  0  0
  1  2  1  0
  2  4  1  0
  3  2  2  0
  4  5  1  0
  5  6  1  6
  7  5  1  0
  8  7  2  0
  9 10  1  0
 11 10  1  1
 11 12  1  0
 11 13  1  0
 12  7  1  0
 13 20  1  0
 14 13  2  0
 15 16  1  0
 16 18  1  0
 17 16  2  0
 19 18  1  6
 19 21  1  0
 20 19  1  0
 21 22  1  0
 23 21  2  0
M  END
$$$$
