NAE.pdb
     RDKit          3D

 23 22  0  0  1  0  0  0  0  0999 V2000
    6.5486  -16.4828   15.7115 N   0  0  0  0  0  0  0  0  0  0  0  0
    7.5161  -17.2201   16.4180 C   0  0  0  0  0  0  0  0  0  0  0  0
    7.6410  -18.4491   16.1530 O   0  0  0  0  0  0  0  0  0  0  0  0
    8.3866  -16.6056   17.4552 C   0  0  0  0  0  0  0  0  0  0  0  0
    7.9749  -15.1620   17.6981 C   0  0  2  0  0  0  0  0  0  0  0  0
    8.5277  -14.3902   16.6038 N   0  0  0  0  0  0  0  0  0  0  0  0
    8.5223  -14.7218   19.0060 C   0  0  0  0  0  0  0  0  0  0  0  0
    9.7841  -14.6115   19.0762 O   0  0  0  0  0  0  0  0  0  0  0  0
    7.2043  -13.4702   22.2983 C   0  0  0  0  0  0  0  0  0  0  0  0
    8.2374  -14.0878   21.3551 C   0  0  2  0  0  0  0  0  0  0  0  0
    7.6661  -14.4465   20.0995 N   0  0  0  0  0  0  0  0  0  0  0  0
    8.7613  -15.2874   22.0951 C   0  0  0  0  0  0  0  0  0  0  0  0
    8.1588  -16.3850   21.9956 O   0  0  0  0  0  0  0  0  0  0  0  0
    9.9076  -15.2366   22.9024 N   0  0  0  0  0  0  0  0  0  0  0  0
   10.3923  -16.3709   23.7010 C   0  0  1  0  0  0  0  0  0  0  0  0
   11.8658  -16.1673   23.8456 C   0  0  0  0  0  0  0  0  0  0  0  0
   12.6877  -16.4737   22.6462 C   0  0  0  0  0  0  0  0  0  0  0  0
   14.1242  -16.2403   22.7706 C   0  0  0  0  0  0  0  0  0  0  0  0
   14.7552  -16.7363   23.7284 O   0  0  0  0  0  0  0  0  0  0  0  0
    9.6878  -16.4451   24.9962 C   0  0  0  0  0  0  0  0  0  0  0  0
    9.0233  -15.4675   25.4169 O   0  0  0  0  0  0  0  0  0  0  0  0
   14.7974  -15.4767   21.8423 O   0  0  0  0  0  0  0  0  0  0  0  0
    9.7430  -17.5889   25.7735 O   0  0  0  0  0  0  0  0  0  0  0  0
  1  2  1  0
  2  4  1  0
  2  3  2  0
  4  5  1  0
  5  7  1  0
  5  6  1  6
  7  8  2  0
 10  9  1  1
 11 10  1  0
 11  7  1  0
 12 13  2  0
 12 10  1  0
 14 12  1  0
 15 20  1  0
 15 14  1  0
 15 16  1  1
 17 18  1  0
 17 16  1  0
 18 19  2  0
 20 23  1  0
 21 20  2  0
 22 18  1  0
M  END
$$$$
