NAE.pdb
     RDKit          3D

 23 22  0  0  1  0  0  0  0  0999 V2000
   12.7412  -16.8553   13.5878 N   0  0  0  0  0  0  0  0  0  0  0  0
   13.9662  -17.0138   14.2608 C   0  0  0  0  0  0  0  0  0  0  0  0
   14.8274  -17.7898   13.7583 O   0  0  0  0  0  0  0  0  0  0  0  0
   14.2761  -16.3050   15.5308 C   0  0  0  0  0  0  0  0  0  0  0  0
   13.2850  -15.1737   15.7558 C   0  0  2  0  0  0  0  0  0  0  0  0
   13.6991  -14.0896   14.8888 N   0  0  0  0  0  0  0  0  0  0  0  0
   13.3301  -14.7754   17.1853 C   0  0  0  0  0  0  0  0  0  0  0  0
   14.4566  -14.3914   17.6242 O   0  0  0  0  0  0  0  0  0  0  0  0
   10.8694  -14.3755   20.0205 C   0  0  0  0  0  0  0  0  0  0  0  0
   12.2381  -14.3606   19.3386 C   0  0  2  0  0  0  0  0  0  0  0  0
   12.1693  -14.8291   17.9943 N   0  0  0  0  0  0  0  0  0  0  0  0
   13.1016  -15.2438   20.1961 C   0  0  0  0  0  0  0  0  0  0  0  0
   13.1059  -16.4838   19.9960 O   0  0  0  0  0  0  0  0  0  0  0  0
   13.9139  -14.7400   21.2230 N   0  0  0  0  0  0  0  0  0  0  0  0
   14.8681  -15.5594   21.9829 C   0  0  1  0  0  0  0  0  0  0  0  0
   16.0575  -14.6858   22.2194 C   0  0  0  0  0  0  0  0  0  0  0  0
   17.1775  -15.2999   22.9784 C   0  0  0  0  0  0  0  0  0  0  0  0
   18.3310  -14.4413   23.2356 C   0  0  0  0  0  0  0  0  0  0  0  0
   18.9236  -13.8922   22.2822 O   0  0  0  0  0  0  0  0  0  0  0  0
   14.2590  -16.0592   23.2313 C   0  0  0  0  0  0  0  0  0  0  0  0
   13.2911  -15.4557   23.7541 O   0  0  0  0  0  0  0  0  0  0  0  0
   18.7776  -14.2269   24.5211 O   0  0  0  0  0  0  0  0  0  0  0  0
   14.7384  -17.1997   23.8518 O   0  0  0  0  0  0  0  0  0  0  0  0
  1  2  1  0
  2  4  1  0
  2  3  2  0
  4  5  1  0
  5  7  1  0
  5  6  1  6
  7  8  2  0
 10  9  1  1
 11 10  1  0
 11  7  1  0
 12 13  2  0
 12 10  1  0
 14 12  1  0
 15 20  1  0
 15 14  1  0
 15 16  1  1
 17 18  1  0
 17 16  1  0
 18 19  2  0
 20 23  1  0
 21 20  2  0
 22 18  1  0
M  END
$$$$
