NAE.pdb
     RDKit          3D

 23 22  0  0  1  0  0  0  0  0999 V2000
    9.4778  -16.8814   13.1024 N   0  0  0  0  0  0  0  0  0  0  0  0
    8.6457  -15.8699   13.6153 C   0  0  0  0  0  0  0  0  0  0  0  0
    7.5839  -15.5951   12.9881 O   0  0  0  0  0  0  0  0  0  0  0  0
    8.9727  -15.1220   14.8583 C   0  0  0  0  0  0  0  0  0  0  0  0
    8.6172  -15.9543   16.0805 C   0  0  2  0  0  0  0  0  0  0  0  0
    7.1773  -16.1114   16.0627 N   0  0  0  0  0  0  0  0  0  0  0  0
    9.0716  -15.2355   17.2975 C   0  0  0  0  0  0  0  0  0  0  0  0
   10.3254  -15.0959   17.4299 O   0  0  0  0  0  0  0  0  0  0  0  0
    7.4875  -13.5901   20.3043 C   0  0  0  0  0  0  0  0  0  0  0  0
    8.6216  -14.1643   19.4543 C   0  0  2  0  0  0  0  0  0  0  0  0
    8.1406  -14.7424   18.2435 N   0  0  0  0  0  0  0  0  0  0  0  0
    9.2825  -15.1854   20.3385 C   0  0  0  0  0  0  0  0  0  0  0  0
    8.8421  -16.3615   20.3583 O   0  0  0  0  0  0  0  0  0  0  0  0
   10.3832  -14.8808   21.1533 N   0  0  0  0  0  0  0  0  0  0  0  0
   11.0584  -15.8645   22.0112 C   0  0  1  0  0  0  0  0  0  0  0  0
   12.4998  -15.4698   22.0273 C   0  0  0  0  0  0  0  0  0  0  0  0
   13.3904  -16.2868   22.8918 C   0  0  0  0  0  0  0  0  0  0  0  0
   14.8120  -15.9535   22.8524 C   0  0  0  0  0  0  0  0  0  0  0  0
   15.2228  -15.0679   22.0724 O   0  0  0  0  0  0  0  0  0  0  0  0
   10.4516  -15.8975   23.3566 C   0  0  0  0  0  0  0  0  0  0  0  0
    9.7507  -14.9395   23.7631 O   0  0  0  0  0  0  0  0  0  0  0  0
   15.7117  -16.6052   23.6672 O   0  0  0  0  0  0  0  0  0  0  0  0
   10.6403  -16.9805   24.1976 O   0  0  0  0  0  0  0  0  0  0  0  0
  1  2  1  0
  2  4  1  0
  2  3  2  0
  4  5  1  0
  5  7  1  0
  5  6  1  1
  7  8  2  0
 10  9  1  1
 11 10  1  0
 11  7  1  0
 12 13  2  0
 12 10  1  0
 14 12  1  0
 15 20  1  0
 15 14  1  0
 15 16  1  1
 17 18  1  0
 17 16  1  0
 18 19  2  0
 20 23  1  0
 21 20  2  0
 22 18  1  0
M  END
$$$$
