NAE.pdb
     RDKit          3D

 23 22  0  0  1  0  0  0  0  0999 V2000
    5.5979  -19.9934   19.1915 N   0  0  0  0  0  0  0  0  0  0  0  0
    5.5675  -18.6625   19.6460 C   0  0  0  0  0  0  0  0  0  0  0  0
    4.5828  -17.9421   19.3181 O   0  0  0  0  0  0  0  0  0  0  0  0
    6.6457  -18.0833   20.4906 C   0  0  0  0  0  0  0  0  0  0  0  0
    6.9776  -16.6742   20.0248 C   0  0  2  0  0  0  0  0  0  0  0  0
    7.6709  -16.8147   18.7606 N   0  0  0  0  0  0  0  0  0  0  0  0
    7.8348  -16.0219   21.0464 C   0  0  0  0  0  0  0  0  0  0  0  0
    9.0660  -16.3261   21.0212 O   0  0  0  0  0  0  0  0  0  0  0  0
    7.3864  -13.5975   23.9067 C   0  0  0  0  0  0  0  0  0  0  0  0
    8.1098  -14.6347   23.0468 C   0  0  2  0  0  0  0  0  0  0  0  0
    7.2877  -15.1150   21.9862 N   0  0  0  0  0  0  0  0  0  0  0  0
    8.4848  -15.7310   24.0053 C   0  0  0  0  0  0  0  0  0  0  0  0
    7.6054  -16.5407   24.3907 O   0  0  0  0  0  0  0  0  0  0  0  0
    9.7892  -15.8934   24.4954 N   0  0  0  0  0  0  0  0  0  0  0  0
   10.1979  -16.9992   25.3726 C   0  0  1  0  0  0  0  0  0  0  0  0
   11.6693  -17.1608   25.1661 C   0  0  0  0  0  0  0  0  0  0  0  0
   12.1159  -17.3303   23.7591 C   0  0  0  0  0  0  0  0  0  0  0  0
   13.5446  -17.5585   23.5580 C   0  0  0  0  0  0  0  0  0  0  0  0
   14.3393  -16.5944   23.5850 O   0  0  0  0  0  0  0  0  0  0  0  0
    9.8370  -16.7213   26.7768 C   0  0  0  0  0  0  0  0  0  0  0  0
    9.3950  -15.5953   27.1102 O   0  0  0  0  0  0  0  0  0  0  0  0
   14.0316  -18.8283   23.3375 O   0  0  0  0  0  0  0  0  0  0  0  0
    9.9768  -17.6911   27.7544 O   0  0  0  0  0  0  0  0  0  0  0  0
  1  2  1  0
  2  4  1  0
  2  3  2  0
  4  5  1  0
  5  7  1  0
  5  6  1  6
  7  8  2  0
 10  9  1  1
 11 10  1  0
 11  7  1  0
 12 13  2  0
 12 10  1  0
 14 12  1  0
 15 20  1  0
 15 14  1  0
 15 16  1  1
 17 18  1  0
 17 16  1  0
 18 19  2  0
 20 23  1  0
 21 20  2  0
 22 18  1  0
M  END
$$$$
