NAE.pdb
     RDKit          3D

 23 22  0  0  1  0  0  0  0  0999 V2000
   10.0433  -18.7453   15.1963 N   0  0  0  0  0  0  0  0  0  0  0  0
    9.9991  -17.3420   15.1095 C   0  0  0  0  0  0  0  0  0  0  0  0
    9.8906  -16.8178   13.9651 O   0  0  0  0  0  0  0  0  0  0  0  0
   10.0753  -16.4660   16.3087 C   0  0  0  0  0  0  0  0  0  0  0  0
    8.9211  -16.7662   17.2523 C   0  0  2  0  0  0  0  0  0  0  0  0
    7.7072  -16.4662   16.5209 N   0  0  0  0  0  0  0  0  0  0  0  0
    9.0550  -15.9118   18.4591 C   0  0  0  0  0  0  0  0  0  0  0  0
   10.1214  -16.0551   19.1309 O   0  0  0  0  0  0  0  0  0  0  0  0
    6.9499  -13.3666   20.2916 C   0  0  0  0  0  0  0  0  0  0  0  0
    8.1349  -14.3062   20.0643 C   0  0  2  0  0  0  0  0  0  0  0  0
    8.0375  -14.9960   18.8209 N   0  0  0  0  0  0  0  0  0  0  0  0
    8.1026  -15.2515   21.2332 C   0  0  0  0  0  0  0  0  0  0  0  0
    7.6784  -16.4221   21.0682 O   0  0  0  0  0  0  0  0  0  0  0  0
    8.5303  -14.8812   22.5170 N   0  0  0  0  0  0  0  0  0  0  0  0
    9.2324  -15.7888   23.4350 C   0  0  1  0  0  0  0  0  0  0  0  0
   10.5122  -16.1489   22.7523 C   0  0  0  0  0  0  0  0  0  0  0  0
   11.4238  -17.0476   23.5068 C   0  0  0  0  0  0  0  0  0  0  0  0
   12.6488  -17.4496   22.8202 C   0  0  0  0  0  0  0  0  0  0  0  0
   13.2835  -16.6157   22.1394 O   0  0  0  0  0  0  0  0  0  0  0  0
    9.4369  -15.1546   24.7522 C   0  0  0  0  0  0  0  0  0  0  0  0
    9.9264  -15.8081   25.7049 O   0  0  0  0  0  0  0  0  0  0  0  0
   13.1172  -18.7419   22.9126 O   0  0  0  0  0  0  0  0  0  0  0  0
    9.0955  -13.8306   24.9669 O   0  0  0  0  0  0  0  0  0  0  0  0
  1  2  1  0
  2  4  1  0
  2  3  2  0
  4  5  1  0
  5  7  1  0
  5  6  1  6
  7  8  2  0
 10  9  1  1
 11 10  1  0
 11  7  1  0
 12 13  2  0
 12 10  1  0
 14 12  1  0
 15 20  1  0
 15 14  1  0
 15 16  1  6
 17 18  1  0
 17 16  1  0
 18 19  2  0
 20 23  1  0
 21 20  2  0
 22 18  1  0
M  END
$$$$
