NAE.pdb
     RDKit          3D

 23 22  0  0  1  0  0  0  0  0999 V2000
    8.6056  -18.8497   14.9056 N   0  0  0  0  0  0  0  0  0  0  0  0
    8.4668  -17.7692   15.7955 C   0  0  0  0  0  0  0  0  0  0  0  0
    7.4354  -17.0459   15.7001 O   0  0  0  0  0  0  0  0  0  0  0  0
    9.4845  -17.4549   16.8333 C   0  0  0  0  0  0  0  0  0  0  0  0
    9.0122  -17.9392   18.1953 C   0  0  2  0  0  0  0  0  0  0  0  0
    7.5840  -18.1526   18.0800 N   0  0  0  0  0  0  0  0  0  0  0  0
    9.3277  -16.9007   19.2082 C   0  0  0  0  0  0  0  0  0  0  0  0
   10.5587  -16.6649   19.4036 O   0  0  0  0  0  0  0  0  0  0  0  0
    7.4055  -14.7263   21.6258 C   0  0  0  0  0  0  0  0  0  0  0  0
    8.6378  -15.3870   21.0066 C   0  0  2  0  0  0  0  0  0  0  0  0
    8.2970  -16.2246   19.9049 N   0  0  0  0  0  0  0  0  0  0  0  0
    9.2590  -16.1671   22.1320 C   0  0  0  0  0  0  0  0  0  0  0  0
    8.8629  -17.3361   22.3644 O   0  0  0  0  0  0  0  0  0  0  0  0
   10.2745  -15.6423   22.9455 N   0  0  0  0  0  0  0  0  0  0  0  0
   10.8958  -16.3828   24.0523 C   0  0  1  0  0  0  0  0  0  0  0  0
   12.3173  -15.9238   24.1024 C   0  0  0  0  0  0  0  0  0  0  0  0
   13.3324  -16.8887   23.6061 C   0  0  0  0  0  0  0  0  0  0  0  0
   14.7223  -16.4409   23.6444 C   0  0  0  0  0  0  0  0  0  0  0  0
   15.0480  -15.3722   23.0845 O   0  0  0  0  0  0  0  0  0  0  0  0
   10.1681  -16.1538   25.3161 C   0  0  0  0  0  0  0  0  0  0  0  0
    9.3547  -15.2041   25.4199 O   0  0  0  0  0  0  0  0  0  0  0  0
   15.6848  -17.1839   24.2922 O   0  0  0  0  0  0  0  0  0  0  0  0
   10.3645  -16.9769   26.4113 O   0  0  0  0  0  0  0  0  0  0  0  0
  1  2  1  0
  2  4  1  0
  2  3  2  0
  4  5  1  0
  5  7  1  0
  5  6  1  6
  7  8  2  0
 10  9  1  1
 11 10  1  0
 11  7  1  0
 12 13  2  0
 12 10  1  0
 14 12  1  0
 15 20  1  0
 15 14  1  0
 15 16  1  1
 17 18  1  0
 17 16  1  0
 18 19  2  0
 20 23  1  0
 21 20  2  0
 22 18  1  0
M  END
$$$$
