NAE.pdb
     RDKit          3D

 23 22  0  0  1  0  0  0  0  0999 V2000
    7.0226  -13.1394   17.4288 N   0  0  0  0  0  0  0  0  0  0  0  0
    8.1199  -13.4794   18.2407 C   0  0  0  0  0  0  0  0  0  0  0  0
    9.1105  -14.0462   17.6988 O   0  0  0  0  0  0  0  0  0  0  0  0
    8.1503  -13.1960   19.7002 C   0  0  0  0  0  0  0  0  0  0  0  0
    8.6629  -14.4096   20.4600 C   0  0  2  0  0  0  0  0  0  0  0  0
    7.7281  -15.4834   20.1925 N   0  0  0  0  0  0  0  0  0  0  0  0
    8.7155  -14.0811   21.9068 C   0  0  0  0  0  0  0  0  0  0  0  0
    9.4261  -13.0807   22.2283 O   0  0  0  0  0  0  0  0  0  0  0  0
    6.8482  -13.8756   24.7813 C   0  0  0  0  0  0  0  0  0  0  0  0
    8.1193  -14.5311   24.2400 C   0  0  2  0  0  0  0  0  0  0  0  0
    8.0050  -14.8544   22.8566 N   0  0  0  0  0  0  0  0  0  0  0  0
    8.3073  -15.7584   25.0882 C   0  0  0  0  0  0  0  0  0  0  0  0
    8.2284  -15.6623   26.3381 O   0  0  0  0  0  0  0  0  0  0  0  0
    8.5702  -17.0230   24.5406 N   0  0  0  0  0  0  0  0  0  0  0  0
    9.7198  -17.8539   24.9248 C   0  0  1  0  0  0  0  0  0  0  0  0
   10.7614  -17.6168   23.8796 C   0  0  0  0  0  0  0  0  0  0  0  0
   12.1683  -17.5831   24.3563 C   0  0  0  0  0  0  0  0  0  0  0  0
   13.1836  -17.2770   23.3517 C   0  0  0  0  0  0  0  0  0  0  0  0
   13.2684  -16.1213   22.8838 O   0  0  0  0  0  0  0  0  0  0  0  0
   10.1803  -17.5218   26.2875 C   0  0  0  0  0  0  0  0  0  0  0  0
   10.1147  -16.3431   26.7127 O   0  0  0  0  0  0  0  0  0  0  0  0
   14.0538  -18.2493   22.9099 O   0  0  0  0  0  0  0  0  0  0  0  0
   10.6927  -18.4976   27.1247 O   0  0  0  0  0  0  0  0  0  0  0  0
  1  2  1  0
  2  4  1  0
  2  3  2  0
  4  5  1  0
  5  7  1  0
  5  6  1  1
  7  8  2  0
 10  9  1  1
 11 10  1  0
 11  7  1  0
 12 13  2  0
 12 10  1  0
 14 12  1  0
 15 20  1  0
 15 14  1  0
 15 16  1  6
 17 18  1  0
 17 16  1  0
 18 19  2  0
 20 23  1  0
 21 20  2  0
 22 18  1  0
M  END
$$$$
