FFF.pdb
     RDKit          3D

 34 36  0  0  1  0  0  0  0  0999 V2000
   28.8617  -32.5414  -15.0029 N   0  0  0  0  0  0  0  0  0  0  0  0
   27.6713  -33.1638  -15.5061 C   0  0  1  0  0  0  0  0  0  0  0  0
   27.2147  -34.2194  -14.5217 C   0  0  0  0  0  0  0  0  0  0  0  0
   28.0396  -35.4313  -14.7684 C   0  0  0  0  0  0  0  0  0  0  0  0
   27.7335  -36.3212  -15.7758 C   0  0  0  0  0  0  0  0  0  0  0  0
   28.5257  -37.4547  -15.9880 C   0  0  0  0  0  0  0  0  0  0  0  0
   29.6189  -37.7131  -15.2097 C   0  0  0  0  0  0  0  0  0  0  0  0
   29.9315  -36.8286  -14.2009 C   0  0  0  0  0  0  0  0  0  0  0  0
   29.1420  -35.6980  -13.9886 C   0  0  0  0  0  0  0  0  0  0  0  0
   26.6388  -32.1721  -15.8028 C   0  0  0  0  0  0  0  0  0  0  0  0
   26.5734  -31.1243  -15.1153 O   0  0  0  0  0  0  0  0  0  0  0  0
   25.7163  -32.3825  -16.8540 N   0  0  0  0  0  0  0  0  0  0  0  0
   24.7570  -31.2590  -17.1503 C   0  0  1  0  0  0  0  0  0  0  0  0
   24.9796  -30.8560  -18.5702 C   0  0  0  0  0  0  0  0  0  0  0  0
   24.0408  -29.8376  -19.0374 C   0  0  0  0  0  0  0  0  0  0  0  0
   22.9162  -30.2261  -19.7842 C   0  0  0  0  0  0  0  0  0  0  0  0
   21.9650  -29.3296  -20.2069 C   0  0  0  0  0  0  0  0  0  0  0  0
   22.0761  -27.9889  -19.9111 C   0  0  0  0  0  0  0  0  0  0  0  0
   23.1705  -27.5866  -19.1807 C   0  0  0  0  0  0  0  0  0  0  0  0
   24.1318  -28.4923  -18.7538 C   0  0  0  0  0  0  0  0  0  0  0  0
   23.4498  -31.8574  -16.9481 C   0  0  0  0  0  0  0  0  0  0  0  0
   23.1999  -33.0065  -17.3828 O   0  0  0  0  0  0  0  0  0  0  0  0
   22.4109  -31.1950  -16.2556 N   0  0  0  0  0  0  0  0  0  0  0  0
   21.1298  -31.8806  -16.0947 C   0  0  1  0  0  0  0  0  0  0  0  0
   20.6238  -31.3843  -14.7234 C   0  0  0  0  0  0  0  0  0  0  0  0
   19.3384  -31.9859  -14.3495 C   0  0  0  0  0  0  0  0  0  0  0  0
   18.1348  -31.3013  -14.5300 C   0  0  0  0  0  0  0  0  0  0  0  0
   16.9200  -31.8209  -14.2063 C   0  0  0  0  0  0  0  0  0  0  0  0
   16.8296  -33.0813  -13.6717 C   0  0  0  0  0  0  0  0  0  0  0  0
   17.9932  -33.7804  -13.4817 C   0  0  0  0  0  0  0  0  0  0  0  0
   19.2139  -33.2559  -13.8080 C   0  0  0  0  0  0  0  0  0  0  0  0
   20.1490  -31.5447  -17.1080 C   0  0  0  0  0  0  0  0  0  0  0  0
   19.3008  -32.4721  -17.6762 O   0  0  0  0  0  0  0  0  0  0  0  0
   20.0060  -30.3513  -17.5467 O   0  0  0  0  0  0  0  0  0  0  0  0
  2  1  1  1
  3  2  1  0
  4  3  1  0
  4  5  2  0
  6  5  1  0
  7  6  2  0
  8  9  2  0
  8  7  1  0
  9  4  1  0
 10 11  2  0
 10  2  1  0
 12 10  1  0
 13 14  1  6
 13 12  1  0
 15 16  2  0
 15 14  1  0
 17 16  1  0
 18 17  2  0
 19 18  1  0
 19 20  2  0
 20 15  1  0
 21 13  1  0
 22 21  2  0
 23 21  1  0
 24 23  1  0
 24 25  1  1
 25 26  1  0
 26 31  1  0
 27 26  2  0
 27 28  1  0
 28 29  2  0
 29 30  1  0
 31 30  2  0
 32 33  1  0
 32 24  1  0
 34 32  2  0
M  END
$$$$
