FFF.pdb
     RDKit          3D

 34 36  0  0  1  0  0  0  0  0999 V2000
   25.9352  -22.4474  -19.2126 N   0  0  0  0  0  0  0  0  0  0  0  0
   25.3306  -21.3595  -18.4995 C   0  0  1  0  0  0  0  0  0  0  0  0
   24.1416  -20.8545  -19.2890 C   0  0  0  0  0  0  0  0  0  0  0  0
   24.6793  -20.1092  -20.4575 C   0  0  0  0  0  0  0  0  0  0  0  0
   24.6948  -20.6599  -21.7212 C   0  0  0  0  0  0  0  0  0  0  0  0
   25.2062  -19.9381  -22.8051 C   0  0  0  0  0  0  0  0  0  0  0  0
   25.7024  -18.6747  -22.6464 C   0  0  0  0  0  0  0  0  0  0  0  0
   25.6905  -18.1172  -21.3867 C   0  0  0  0  0  0  0  0  0  0  0  0
   25.1807  -18.8364  -20.3052 C   0  0  0  0  0  0  0  0  0  0  0  0
   24.9875  -21.7469  -17.1321 C   0  0  0  0  0  0  0  0  0  0  0  0
   24.6704  -22.9363  -16.8885 O   0  0  0  0  0  0  0  0  0  0  0  0
   25.0099  -20.7963  -16.0851 N   0  0  0  0  0  0  0  0  0  0  0  0
   24.7368  -21.3105  -14.6954 C   0  0  1  0  0  0  0  0  0  0  0  0
   25.4519  -20.4076  -13.7459 C   0  0  0  0  0  0  0  0  0  0  0  0
   25.1740  -20.7058  -12.3421 C   0  0  0  0  0  0  0  0  0  0  0  0
   24.1254  -20.0372  -11.6889 C   0  0  0  0  0  0  0  0  0  0  0  0
   23.7734  -20.3080  -10.3890 C   0  0  0  0  0  0  0  0  0  0  0  0
   24.4456  -21.2631   -9.6589 C   0  0  0  0  0  0  0  0  0  0  0  0
   25.4768  -21.9301  -10.2795 C   0  0  0  0  0  0  0  0  0  0  0  0
   25.8327  -21.6562  -11.5929 C   0  0  0  0  0  0  0  0  0  0  0  0
   23.2942  -21.2108  -14.5665 C   0  0  0  0  0  0  0  0  0  0  0  0
   22.7110  -20.1169  -14.7537 O   0  0  0  0  0  0  0  0  0  0  0  0
   22.4831  -22.3210  -14.2391 N   0  0  0  0  0  0  0  0  0  0  0  0
   21.0524  -22.1045  -14.0311 C   0  0  1  0  0  0  0  0  0  0  0  0
   20.4150  -23.4334  -14.4897 C   0  0  0  0  0  0  0  0  0  0  0  0
   18.9537  -23.4299  -14.3547 C   0  0  0  0  0  0  0  0  0  0  0  0
   18.3226  -24.0271  -13.2615 C   0  0  0  0  0  0  0  0  0  0  0  0
   16.9733  -24.0416  -13.0897 C   0  0  0  0  0  0  0  0  0  0  0  0
   16.1538  -23.4489  -14.0170 C   0  0  0  0  0  0  0  0  0  0  0  0
   16.7420  -22.8534  -15.1025 C   0  0  0  0  0  0  0  0  0  0  0  0
   18.0994  -22.8400  -15.2733 C   0  0  0  0  0  0  0  0  0  0  0  0
   20.6870  -21.8593  -12.6498 C   0  0  0  0  0  0  0  0  0  0  0  0
   19.7699  -20.9022  -12.2687 O   0  0  0  0  0  0  0  0  0  0  0  0
   21.1991  -22.5226  -11.6831 O   0  0  0  0  0  0  0  0  0  0  0  0
  2  1  1  6
  3  2  1  0
  4  3  1  0
  4  5  2  0
  6  5  1  0
  7  6  2  0
  8  9  2  0
  8  7  1  0
  9  4  1  0
 10 11  2  0
 10  2  1  0
 12 10  1  0
 13 14  1  1
 13 12  1  0
 15 16  2  0
 15 14  1  0
 17 16  1  0
 18 17  2  0
 19 18  1  0
 19 20  2  0
 20 15  1  0
 21 13  1  0
 22 21  2  0
 23 21  1  0
 24 23  1  0
 24 25  1  1
 25 26  1  0
 26 31  1  0
 27 26  2  0
 27 28  1  0
 28 29  2  0
 29 30  1  0
 31 30  2  0
 32 33  1  0
 32 24  1  0
 34 32  2  0
M  END
$$$$
