FFF.pdb
     RDKit          3D

 34 36  0  0  1  0  0  0  0  0999 V2000
   28.2185  -20.7554   -8.5299 N   0  0  0  0  0  0  0  0  0  0  0  0
   26.7846  -20.7292   -8.4998 C   0  0  1  0  0  0  0  0  0  0  0  0
   26.3331  -19.8035   -7.3903 C   0  0  0  0  0  0  0  0  0  0  0  0
   27.2232  -20.0522   -6.2259 C   0  0  0  0  0  0  0  0  0  0  0  0
   28.3066  -19.2429   -5.9584 C   0  0  0  0  0  0  0  0  0  0  0  0
   29.1295  -19.4978   -4.8560 C   0  0  0  0  0  0  0  0  0  0  0  0
   28.8870  -20.5486   -4.0166 C   0  0  0  0  0  0  0  0  0  0  0  0
   27.8062  -21.3622   -4.2771 C   0  0  0  0  0  0  0  0  0  0  0  0
   26.9851  -21.1087   -5.3762 C   0  0  0  0  0  0  0  0  0  0  0  0
   26.2330  -20.3705   -9.8054 C   0  0  0  0  0  0  0  0  0  0  0  0
   26.0119  -19.1644  -10.0720 O   0  0  0  0  0  0  0  0  0  0  0  0
   25.9473  -21.3673  -10.7672 N   0  0  0  0  0  0  0  0  0  0  0  0
   25.3487  -20.9025  -12.0694 C   0  0  1  0  0  0  0  0  0  0  0  0
   26.4766  -20.7224  -13.0304 C   0  0  0  0  0  0  0  0  0  0  0  0
   27.7908  -20.7364  -12.3906 C   0  0  0  0  0  0  0  0  0  0  0  0
   28.5967  -19.5870  -12.4437 C   0  0  0  0  0  0  0  0  0  0  0  0
   29.8171  -19.5114  -11.8177 C   0  0  0  0  0  0  0  0  0  0  0  0
   30.3103  -20.5780  -11.0992 C   0  0  0  0  0  0  0  0  0  0  0  0
   29.5371  -21.7142  -11.0345 C   0  0  0  0  0  0  0  0  0  0  0  0
   28.3041  -21.7908  -11.6673 C   0  0  0  0  0  0  0  0  0  0  0  0
   24.4684  -21.9910  -12.4541 C   0  0  0  0  0  0  0  0  0  0  0  0
   24.5630  -23.1132  -11.9031 O   0  0  0  0  0  0  0  0  0  0  0  0
   23.4699  -21.8458  -13.4437 N   0  0  0  0  0  0  0  0  0  0  0  0
   22.1052  -22.2634  -13.1266 C   0  0  1  0  0  0  0  0  0  0  0  0
   21.7277  -21.3791  -11.9190 C   0  0  0  0  0  0  0  0  0  0  0  0
   20.3859  -21.6766  -11.4045 C   0  0  0  0  0  0  0  0  0  0  0  0
   19.2789  -20.9094  -11.7727 C   0  0  0  0  0  0  0  0  0  0  0  0
   18.0163  -21.1520  -11.3283 C   0  0  0  0  0  0  0  0  0  0  0  0
   17.7757  -22.1965  -10.4716 C   0  0  0  0  0  0  0  0  0  0  0  0
   18.8415  -22.9696  -10.0906 C   0  0  0  0  0  0  0  0  0  0  0  0
   20.1106  -22.7238  -10.5388 C   0  0  0  0  0  0  0  0  0  0  0  0
   21.1535  -22.0319  -14.1953 C   0  0  0  0  0  0  0  0  0  0  0  0
   20.1356  -22.9097  -14.5047 O   0  0  0  0  0  0  0  0  0  0  0  0
   21.1977  -20.9855  -14.9302 O   0  0  0  0  0  0  0  0  0  0  0  0
  2  1  1  6
  3  2  1  0
  4  3  1  0
  4  5  2  0
  6  5  1  0
  7  6  2  0
  8  9  2  0
  8  7  1  0
  9  4  1  0
 10 11  2  0
 10  2  1  0
 12 10  1  0
 13 14  1  6
 13 12  1  0
 15 16  2  0
 15 14  1  0
 17 16  1  0
 18 17  2  0
 19 18  1  0
 19 20  2  0
 20 15  1  0
 21 13  1  0
 22 21  2  0
 23 21  1  0
 24 23  1  0
 24 25  1  1
 25 26  1  0
 26 31  1  0
 27 26  2  0
 27 28  1  0
 28 29  2  0
 29 30  1  0
 31 30  2  0
 32 33  1  0
 32 24  1  0
 34 32  2  0
M  END
$$$$
