FFF.pdb
     RDKit          3D

 34 36  0  0  1  0  0  0  0  0999 V2000
   28.4640  -21.7071  -11.7791 N   0  0  0  0  0  0  0  0  0  0  0  0
   27.1243  -21.3030  -11.4637 C   0  0  1  0  0  0  0  0  0  0  0  0
   27.1752  -20.0441  -10.6244 C   0  0  0  0  0  0  0  0  0  0  0  0
   27.6340  -20.4431   -9.2678 C   0  0  0  0  0  0  0  0  0  0  0  0
   26.7409  -20.7633   -8.2677 C   0  0  0  0  0  0  0  0  0  0  0  0
   27.1977  -21.1360   -6.9990 C   0  0  0  0  0  0  0  0  0  0  0  0
   28.5329  -21.1939   -6.7136 C   0  0  0  0  0  0  0  0  0  0  0  0
   29.4320  -20.8755   -7.7076 C   0  0  0  0  0  0  0  0  0  0  0  0
   28.9773  -20.5037   -8.9731 C   0  0  0  0  0  0  0  0  0  0  0  0
   26.3168  -21.1529  -12.6733 C   0  0  0  0  0  0  0  0  0  0  0  0
   26.5000  -20.1602  -13.4187 O   0  0  0  0  0  0  0  0  0  0  0  0
   25.3343  -22.1132  -13.0093 N   0  0  0  0  0  0  0  0  0  0  0  0
   24.5179  -21.8446  -14.2469 C   0  0  1  0  0  0  0  0  0  0  0  0
   24.9478  -22.8340  -15.2786 C   0  0  0  0  0  0  0  0  0  0  0  0
   26.1745  -22.4495  -15.9744 C   0  0  0  0  0  0  0  0  0  0  0  0
   27.4104  -22.9304  -15.5113 C   0  0  0  0  0  0  0  0  0  0  0  0
   28.5956  -22.6550  -16.1490 C   0  0  0  0  0  0  0  0  0  0  0  0
   28.6222  -21.8823  -17.2890 C   0  0  0  0  0  0  0  0  0  0  0  0
   27.4224  -21.4006  -17.7598 C   0  0  0  0  0  0  0  0  0  0  0  0
   26.2249  -21.6786  -17.1153 C   0  0  0  0  0  0  0  0  0  0  0  0
   23.1496  -22.0632  -13.8133 C   0  0  0  0  0  0  0  0  0  0  0  0
   22.8094  -23.1558  -13.3013 O   0  0  0  0  0  0  0  0  0  0  0  0
   22.1484  -21.0729  -13.9331 N   0  0  0  0  0  0  0  0  0  0  0  0
   20.8265  -21.3436  -13.3705 C   0  0  1  0  0  0  0  0  0  0  0  0
   20.6587  -20.2472  -12.2970 C   0  0  0  0  0  0  0  0  0  0  0  0
   21.4789  -20.4988  -11.1063 C   0  0  0  0  0  0  0  0  0  0  0  0
   20.9991  -21.2629  -10.0406 C   0  0  0  0  0  0  0  0  0  0  0  0
   21.7251  -21.5294   -8.9214 C   0  0  0  0  0  0  0  0  0  0  0  0
   23.0005  -21.0398   -8.7942 C   0  0  0  0  0  0  0  0  0  0  0  0
   23.5016  -20.2856   -9.8233 C   0  0  0  0  0  0  0  0  0  0  0  0
   22.7698  -20.0189  -10.9480 C   0  0  0  0  0  0  0  0  0  0  0  0
   19.7436  -21.2342  -14.3281 C   0  0  0  0  0  0  0  0  0  0  0  0
   19.9134  -20.7543  -15.6100 O   0  0  0  0  0  0  0  0  0  0  0  0
   18.5453  -21.5793  -14.0418 O   0  0  0  0  0  0  0  0  0  0  0  0
  2  1  1  6
  3  2  1  0
  4  3  1  0
  4  5  2  0
  6  5  1  0
  7  6  2  0
  8  9  2  0
  8  7  1  0
  9  4  1  0
 10 11  2  0
 10  2  1  0
 12 10  1  0
 13 14  1  6
 13 12  1  0
 15 16  2  0
 15 14  1  0
 17 16  1  0
 18 17  2  0
 19 18  1  0
 19 20  2  0
 20 15  1  0
 21 13  1  0
 22 21  2  0
 23 21  1  0
 24 23  1  0
 24 25  1  1
 25 26  1  0
 26 31  1  0
 27 26  2  0
 27 28  1  0
 28 29  2  0
 29 30  1  0
 31 30  2  0
 32 33  1  0
 32 24  1  0
 34 32  2  0
M  END
$$$$
