FFF.pdb
     RDKit          3D

 34 36  0  0  1  0  0  0  0  0999 V2000
   26.2199  -19.6941  -22.6678 N   0  0  0  0  0  0  0  0  0  0  0  0
   24.9052  -19.1576  -22.4645 C   0  0  1  0  0  0  0  0  0  0  0  0
   23.8939  -20.0717  -23.1229 C   0  0  0  0  0  0  0  0  0  0  0  0
   24.0689  -19.9286  -24.5922 C   0  0  0  0  0  0  0  0  0  0  0  0
   23.6236  -18.8126  -25.2679 C   0  0  0  0  0  0  0  0  0  0  0  0
   23.8002  -18.7015  -26.6513 C   0  0  0  0  0  0  0  0  0  0  0  0
   24.4148  -19.6878  -27.3703 C   0  0  0  0  0  0  0  0  0  0  0  0
   24.8628  -20.8063  -26.7025 C   0  0  0  0  0  0  0  0  0  0  0  0
   24.6870  -20.9180  -25.3229 C   0  0  0  0  0  0  0  0  0  0  0  0
   24.6370  -18.9346  -21.0446 C   0  0  0  0  0  0  0  0  0  0  0  0
   25.1967  -19.6619  -20.1889 O   0  0  0  0  0  0  0  0  0  0  0  0
   23.7553  -17.9100  -20.6286 N   0  0  0  0  0  0  0  0  0  0  0  0
   23.5680  -17.7369  -19.1436 C   0  0  1  0  0  0  0  0  0  0  0  0
   23.9172  -16.3222  -18.8200 C   0  0  0  0  0  0  0  0  0  0  0  0
   25.3370  -16.0214  -18.9945 C   0  0  0  0  0  0  0  0  0  0  0  0
   25.7744  -15.4239  -20.1882 C   0  0  0  0  0  0  0  0  0  0  0  0
   27.0834  -15.0633  -20.3970 C   0  0  0  0  0  0  0  0  0  0  0  0
   28.0385  -15.2763  -19.4277 C   0  0  0  0  0  0  0  0  0  0  0  0
   27.6317  -15.8609  -18.2504 C   0  0  0  0  0  0  0  0  0  0  0  0
   26.3091  -16.2255  -18.0396 C   0  0  0  0  0  0  0  0  0  0  0  0
   22.1581  -18.0152  -18.9375 C   0  0  0  0  0  0  0  0  0  0  0  0
   21.2952  -17.5509  -19.7194 O   0  0  0  0  0  0  0  0  0  0  0  0
   21.6909  -18.8168  -17.8714 N   0  0  0  0  0  0  0  0  0  0  0  0
   20.2505  -19.0240  -17.7316 C   0  0  1  0  0  0  0  0  0  0  0  0
   20.0857  -20.5488  -17.9059 C   0  0  0  0  0  0  0  0  0  0  0  0
   20.2916  -20.9795  -19.2937 C   0  0  0  0  0  0  0  0  0  0  0  0
   19.2397  -21.0031  -20.2117 C   0  0  0  0  0  0  0  0  0  0  0  0
   19.3841  -21.3864  -21.5090 C   0  0  0  0  0  0  0  0  0  0  0  0
   20.6121  -21.7778  -21.9795 C   0  0  0  0  0  0  0  0  0  0  0  0
   21.6662  -21.7660  -21.1034 C   0  0  0  0  0  0  0  0  0  0  0  0
   21.5187  -21.3801  -19.7991 C   0  0  0  0  0  0  0  0  0  0  0  0
   19.7213  -18.6383  -16.4382 C   0  0  0  0  0  0  0  0  0  0  0  0
   20.5124  -18.1927  -15.3999 O   0  0  0  0  0  0  0  0  0  0  0  0
   18.4706  -18.6879  -16.1731 O   0  0  0  0  0  0  0  0  0  0  0  0
  2  1  1  1
  3  2  1  0
  4  3  1  0
  4  5  2  0
  6  5  1  0
  7  6  2  0
  8  9  2  0
  8  7  1  0
  9  4  1  0
 10 11  2  0
 10  2  1  0
 12 10  1  0
 13 14  1  6
 13 12  1  0
 15 16  2  0
 15 14  1  0
 17 16  1  0
 18 17  2  0
 19 18  1  0
 19 20  2  0
 20 15  1  0
 21 13  1  0
 22 21  2  0
 23 21  1  0
 24 23  1  0
 24 25  1  1
 25 26  1  0
 26 31  1  0
 27 26  2  0
 27 28  1  0
 28 29  2  0
 29 30  1  0
 31 30  2  0
 32 33  1  0
 32 24  1  0
 34 32  2  0
M  END
$$$$
