FFF.pdb
     RDKit          3D

 34 36  0  0  1  0  0  0  0  0999 V2000
   26.9562  -18.4324   -7.5477 N   0  0  0  0  0  0  0  0  0  0  0  0
   27.1699  -19.7193   -8.1442 C   0  0  1  0  0  0  0  0  0  0  0  0
   26.9740  -20.7883   -7.0903 C   0  0  0  0  0  0  0  0  0  0  0  0
   28.0004  -20.5581   -6.0400 C   0  0  0  0  0  0  0  0  0  0  0  0
   29.3484  -20.6459   -6.3149 C   0  0  0  0  0  0  0  0  0  0  0  0
   30.2952  -20.4247   -5.3090 C   0  0  0  0  0  0  0  0  0  0  0  0
   29.9164  -20.1171   -4.0325 C   0  0  0  0  0  0  0  0  0  0  0  0
   28.5712  -20.0274   -3.7494 C   0  0  0  0  0  0  0  0  0  0  0  0
   27.6264  -20.2479   -4.7521 C   0  0  0  0  0  0  0  0  0  0  0  0
   26.3182  -19.9083   -9.3174 C   0  0  0  0  0  0  0  0  0  0  0  0
   25.1346  -19.4922   -9.2946 O   0  0  0  0  0  0  0  0  0  0  0  0
   26.8148  -20.5538  -10.4737 N   0  0  0  0  0  0  0  0  0  0  0  0
   26.4766  -19.9248  -11.8004 C   0  0  1  0  0  0  0  0  0  0  0  0
   27.6656  -20.1021  -12.6852 C   0  0  0  0  0  0  0  0  0  0  0  0
   27.4477  -19.6282  -14.0507 C   0  0  0  0  0  0  0  0  0  0  0  0
   27.2237  -20.5604  -15.0774 C   0  0  0  0  0  0  0  0  0  0  0  0
   26.9567  -20.1839  -16.3712 C   0  0  0  0  0  0  0  0  0  0  0  0
   26.8965  -18.8533  -16.7221 C   0  0  0  0  0  0  0  0  0  0  0  0
   27.1132  -17.9231  -15.7317 C   0  0  0  0  0  0  0  0  0  0  0  0
   27.3833  -18.3036  -14.4244 C   0  0  0  0  0  0  0  0  0  0  0  0
   25.3301  -20.6863  -12.2626 C   0  0  0  0  0  0  0  0  0  0  0  0
   25.2648  -21.9229  -12.0673 O   0  0  0  0  0  0  0  0  0  0  0  0
   24.2419  -20.0861  -12.9357 N   0  0  0  0  0  0  0  0  0  0  0  0
   23.1688  -20.9446  -13.4343 C   0  0  1  0  0  0  0  0  0  0  0  0
   21.9187  -20.4310  -12.6886 C   0  0  0  0  0  0  0  0  0  0  0  0
   21.6129  -21.2264  -11.4937 C   0  0  0  0  0  0  0  0  0  0  0  0
   22.0776  -20.8513  -10.2315 C   0  0  0  0  0  0  0  0  0  0  0  0
   21.8132  -21.5516   -9.0957 C   0  0  0  0  0  0  0  0  0  0  0  0
   21.0532  -22.6928   -9.1506 C   0  0  0  0  0  0  0  0  0  0  0  0
   20.5814  -23.0886  -10.3752 C   0  0  0  0  0  0  0  0  0  0  0  0
   20.8485  -22.3826  -11.5162 C   0  0  0  0  0  0  0  0  0  0  0  0
   22.9422  -20.8375  -14.8622 C   0  0  0  0  0  0  0  0  0  0  0  0
   22.3150  -21.8168  -15.6038 O   0  0  0  0  0  0  0  0  0  0  0  0
   23.3150  -19.8151  -15.5349 O   0  0  0  0  0  0  0  0  0  0  0  0
  2  1  1  1
  3  2  1  0
  4  3  1  0
  4  5  2  0
  6  5  1  0
  7  6  2  0
  8  9  2  0
  8  7  1  0
  9  4  1  0
 10 11  2  0
 10  2  1  0
 12 10  1  0
 13 14  1  6
 13 12  1  0
 15 16  2  0
 15 14  1  0
 17 16  1  0
 18 17  2  0
 19 18  1  0
 19 20  2  0
 20 15  1  0
 21 13  1  0
 22 21  2  0
 23 21  1  0
 24 23  1  0
 24 25  1  1
 25 26  1  0
 26 31  1  0
 27 26  2  0
 27 28  1  0
 28 29  2  0
 29 30  1  0
 31 30  2  0
 32 33  1  0
 32 24  1  0
 34 32  2  0
M  END
$$$$
