FFF.pdb
     RDKit          3D

 34 36  0  0  1  0  0  0  0  0999 V2000
   28.2343  -20.6792  -14.4026 N   0  0  0  0  0  0  0  0  0  0  0  0
   28.0075  -19.9739  -13.1743 C   0  0  1  0  0  0  0  0  0  0  0  0
   26.6382  -19.3300  -13.2228 C   0  0  0  0  0  0  0  0  0  0  0  0
   26.7236  -18.1962  -14.1805 C   0  0  0  0  0  0  0  0  0  0  0  0
   27.3575  -17.0174  -13.8506 C   0  0  0  0  0  0  0  0  0  0  0  0
   27.4246  -15.9648  -14.7697 C   0  0  0  0  0  0  0  0  0  0  0  0
   26.8683  -16.0714  -16.0134 C   0  0  0  0  0  0  0  0  0  0  0  0
   26.2330  -17.2461  -16.3510 C   0  0  0  0  0  0  0  0  0  0  0  0
   26.1656  -18.2964  -15.4349 C   0  0  0  0  0  0  0  0  0  0  0  0
   28.1877  -20.8505  -12.0181 C   0  0  0  0  0  0  0  0  0  0  0  0
   27.8812  -22.0639  -12.1094 O   0  0  0  0  0  0  0  0  0  0  0  0
   28.7027  -20.3447  -10.8018 N   0  0  0  0  0  0  0  0  0  0  0  0
   29.0086  -21.3513   -9.7233 C   0  0  1  0  0  0  0  0  0  0  0  0
   30.4558  -21.2071   -9.3872 C   0  0  0  0  0  0  0  0  0  0  0  0
   31.3448  -21.7814  -10.3955 C   0  0  0  0  0  0  0  0  0  0  0  0
   31.9260  -23.0397  -10.1671 C   0  0  0  0  0  0  0  0  0  0  0  0
   32.7254  -23.6630  -11.0942 C   0  0  0  0  0  0  0  0  0  0  0  0
   32.9953  -23.0700  -12.3077 C   0  0  0  0  0  0  0  0  0  0  0  0
   32.4362  -21.8367  -12.5521 C   0  0  0  0  0  0  0  0  0  0  0  0
   31.6287  -21.2068  -11.6152 C   0  0  0  0  0  0  0  0  0  0  0  0
   28.1476  -20.9537   -8.6240 C   0  0  0  0  0  0  0  0  0  0  0  0
   28.5191  -21.1039   -7.4361 O   0  0  0  0  0  0  0  0  0  0  0  0
   26.8732  -20.3779   -8.8284 N   0  0  0  0  0  0  0  0  0  0  0  0
   25.8402  -20.5889   -7.8157 C   0  0  1  0  0  0  0  0  0  0  0  0
   26.0271  -19.3958   -6.8543 C   0  0  0  0  0  0  0  0  0  0  0  0
   27.0872  -19.6324   -5.8674 C   0  0  0  0  0  0  0  0  0  0  0  0
   27.0543  -20.7380   -5.0152 C   0  0  0  0  0  0  0  0  0  0  0  0
   28.0172  -21.0026   -4.0915 C   0  0  0  0  0  0  0  0  0  0  0  0
   29.0943  -20.1631   -3.9586 C   0  0  0  0  0  0  0  0  0  0  0  0
   29.1568  -19.0680   -4.7805 C   0  0  0  0  0  0  0  0  0  0  0  0
   28.1872  -18.8038   -5.7089 C   0  0  0  0  0  0  0  0  0  0  0  0
   24.4880  -20.5651   -8.3378 C   0  0  0  0  0  0  0  0  0  0  0  0
   23.3737  -20.8091   -7.5624 O   0  0  0  0  0  0  0  0  0  0  0  0
   24.2381  -20.3142   -9.5673 O   0  0  0  0  0  0  0  0  0  0  0  0
  2  1  1  6
  3  2  1  0
  4  3  1  0
  4  5  2  0
  6  5  1  0
  7  6  2  0
  8  9  2  0
  8  7  1  0
  9  4  1  0
 10 11  2  0
 10  2  1  0
 12 10  1  0
 13 14  1  1
 13 12  1  0
 15 16  2  0
 15 14  1  0
 17 16  1  0
 18 17  2  0
 19 18  1  0
 19 20  2  0
 20 15  1  0
 21 13  1  0
 22 21  2  0
 23 21  1  0
 24 23  1  0
 24 25  1  1
 25 26  1  0
 26 31  1  0
 27 26  2  0
 27 28  1  0
 28 29  2  0
 29 30  1  0
 31 30  2  0
 32 33  1  0
 32 24  1  0
 34 32  2  0
M  END
$$$$
