IKI.pdb
     RDKit          3D

 26 25  0  0  1  0  0  0  0  0999 V2000
    8.0981  -12.4746   18.0879 C   0  0  0  0  0  0  0  0  0  0  0  0
    8.0717  -13.9468   18.3607 C   0  0  0  0  0  0  0  0  0  0  0  0
    7.5663  -14.2386   19.7797 C   0  0  2  0  0  0  0  0  0  0  0  0
    8.3931  -13.4433   20.7292 C   0  0  0  0  0  0  0  0  0  0  0  0
    7.6108  -15.7330   19.9899 C   0  0  2  0  0  0  0  0  0  0  0  0
    6.6724  -16.2849   18.9975 N   0  0  0  0  0  0  0  0  0  0  0  0
    7.1590  -16.1494   21.3455 C   0  0  0  0  0  0  0  0  0  0  0  0
    5.9826  -15.8772   21.6996 O   0  0  0  0  0  0  0  0  0  0  0  0
    7.9866  -16.8354   22.2510 N   0  0  0  0  0  0  0  0  0  0  0  0
    7.8155  -17.0401   23.6554 C   0  0  1  0  0  0  0  0  0  0  0  0
    8.1545  -18.4643   24.1235 C   0  0  0  0  0  0  0  0  0  0  0  0
    7.9772  -18.6223   25.5969 C   0  0  0  0  0  0  0  0  0  0  0  0
    8.2798  -20.0581   25.9738 C   0  0  0  0  0  0  0  0  0  0  0  0
    8.0780  -20.3041   27.4609 C   0  0  0  0  0  0  0  0  0  0  0  0
    6.6945  -20.5716   27.7650 N   0  0  0  0  0  0  0  0  0  0  0  0
    8.4461  -16.0715   24.5369 C   0  0  0  0  0  0  0  0  0  0  0  0
    9.6789  -15.8441   24.4281 O   0  0  0  0  0  0  0  0  0  0  0  0
    5.8557  -11.9146   27.8433 C   0  0  0  0  0  0  0  0  0  0  0  0
    6.3938  -13.1812   27.2782 C   0  0  0  0  0  0  0  0  0  0  0  0
    7.6150  -13.0793   26.4437 C   0  0  2  0  0  0  0  0  0  0  0  0
    7.4448  -12.2971   25.1839 C   0  0  0  0  0  0  0  0  0  0  0  0
    8.4259  -14.3164   26.3749 C   0  0  2  0  0  0  0  0  0  0  0  0
    7.7607  -15.3333   25.5466 N   0  0  0  0  0  0  0  0  0  0  0  0
    8.8150  -14.9705   27.6183 C   0  0  0  0  0  0  0  0  0  0  0  0
    9.6447  -14.4543   28.6043 O   0  0  0  0  0  0  0  0  0  0  0  0
    8.3978  -16.1497   27.9154 O   0  0  0  0  0  0  0  0  0  0  0  0
  2  1  1  0
  2  3  1  0
  3  4  1  1
  5  3  1  0
  5  6  1  6
  7  8  2  0
  7  5  1  0
  9  7  1  0
 10  9  1  0
 10 11  1  1
 12 13  1  0
 12 11  1  0
 13 14  1  0
 14 15  1  0
 16 23  1  0
 16 10  1  0
 17 16  2  0
 19 18  1  0
 19 20  1  0
 20 21  1  6
 20 22  1  0
 22 23  1  6
 22 24  1  0
 24 25  1  0
 26 24  2  0
M  END
$$$$
