IKI.pdb
     RDKit          3D

 26 25  0  0  1  0  0  0  0  0999 V2000
    7.6937  -12.0645   18.2383 C   0  0  0  0  0  0  0  0  0  0  0  0
    7.9146  -13.5371   18.3965 C   0  0  0  0  0  0  0  0  0  0  0  0
    7.7665  -13.9655   19.8624 C   0  0  2  0  0  0  0  0  0  0  0  0
    8.7203  -13.1567   20.6709 C   0  0  0  0  0  0  0  0  0  0  0  0
    7.9752  -15.4591   19.9326 C   0  0  2  0  0  0  0  0  0  0  0  0
    6.8715  -16.0350   19.1450 N   0  0  0  0  0  0  0  0  0  0  0  0
    7.8954  -15.9992   21.3172 C   0  0  0  0  0  0  0  0  0  0  0  0
    6.7763  -16.0223   21.8924 O   0  0  0  0  0  0  0  0  0  0  0  0
    9.0141  -16.4870   22.0143 N   0  0  0  0  0  0  0  0  0  0  0  0
    9.1110  -16.9337   23.3687 C   0  0  1  0  0  0  0  0  0  0  0  0
   10.0178  -18.1604   23.5571 C   0  0  0  0  0  0  0  0  0  0  0  0
   10.0303  -18.6305   24.9734 C   0  0  0  0  0  0  0  0  0  0  0  0
   10.8896  -19.8746   25.0673 C   0  0  0  0  0  0  0  0  0  0  0  0
   10.8536  -20.4796   26.4621 C   0  0  0  0  0  0  0  0  0  0  0  0
   11.4957  -21.7699   26.4906 N   0  0  0  0  0  0  0  0  0  0  0  0
    9.4356  -15.9268   24.3656 C   0  0  0  0  0  0  0  0  0  0  0  0
   10.5132  -15.2841   24.2701 O   0  0  0  0  0  0  0  0  0  0  0  0
    5.8233  -12.6323   27.4162 C   0  0  0  0  0  0  0  0  0  0  0  0
    6.6995  -13.7821   27.0649 C   0  0  0  0  0  0  0  0  0  0  0  0
    8.0280  -13.4631   26.4890 C   0  0  2  0  0  0  0  0  0  0  0  0
    7.9893  -12.5825   25.2844 C   0  0  0  0  0  0  0  0  0  0  0  0
    8.9885  -14.5900   26.4803 C   0  0  2  0  0  0  0  0  0  0  0  0
    8.6066  -15.5961   25.4780 N   0  0  0  0  0  0  0  0  0  0  0  0
    9.2417  -15.3059   27.7248 C   0  0  0  0  0  0  0  0  0  0  0  0
    9.8247  -14.7922   28.8750 O   0  0  0  0  0  0  0  0  0  0  0  0
    8.9291  -16.5455   27.8613 O   0  0  0  0  0  0  0  0  0  0  0  0
  2  1  1  0
  2  3  1  0
  3  4  1  1
  5  3  1  0
  5  6  1  6
  7  8  2  0
  7  5  1  0
  9  7  1  0
 10  9  1  0
 10 11  1  6
 12 13  1  0
 12 11  1  0
 13 14  1  0
 14 15  1  0
 16 23  1  0
 16 10  1  0
 17 16  2  0
 19 18  1  0
 19 20  1  0
 20 21  1  6
 20 22  1  0
 22 23  1  6
 22 24  1  0
 24 25  1  0
 26 24  2  0
M  END
$$$$
