IKI.pdb
     RDKit          3D

 26 25  0  0  1  0  0  0  0  0999 V2000
    6.8102  -20.6969   28.1763 C   0  0  0  0  0  0  0  0  0  0  0  0
    6.5011  -20.5441   26.7191 C   0  0  0  0  0  0  0  0  0  0  0  0
    7.2721  -19.3658   26.1095 C   0  0  2  0  0  0  0  0  0  0  0  0
    7.1001  -18.1942   27.0125 C   0  0  0  0  0  0  0  0  0  0  0  0
    6.7728  -19.1647   24.6990 C   0  0  2  0  0  0  0  0  0  0  0  0
    6.9130  -20.4818   24.0543 N   0  0  0  0  0  0  0  0  0  0  0  0
    7.5747  -18.1766   23.9271 C   0  0  0  0  0  0  0  0  0  0  0  0
    8.7942  -18.4136   23.7270 O   0  0  0  0  0  0  0  0  0  0  0  0
    7.0321  -16.9882   23.4087 N   0  0  0  0  0  0  0  0  0  0  0  0
    7.7045  -15.8233   22.9245 C   0  0  1  0  0  0  0  0  0  0  0  0
    6.8610  -14.9714   21.9626 C   0  0  0  0  0  0  0  0  0  0  0  0
    7.6809  -13.9287   21.2786 C   0  0  0  0  0  0  0  0  0  0  0  0
    7.1073  -13.6849   19.8978 C   0  0  0  0  0  0  0  0  0  0  0  0
    8.2003  -13.4315   18.8711 C   0  0  0  0  0  0  0  0  0  0  0  0
    7.6445  -13.0468   17.5979 N   0  0  0  0  0  0  0  0  0  0  0  0
    8.3247  -14.9669   23.9220 C   0  0  0  0  0  0  0  0  0  0  0  0
    8.5673  -13.7643   23.6426 O   0  0  0  0  0  0  0  0  0  0  0  0
    6.8484  -11.5579   26.0120 C   0  0  0  0  0  0  0  0  0  0  0  0
    7.8487  -12.5807   25.6040 C   0  0  0  0  0  0  0  0  0  0  0  0
    8.3891  -13.4556   26.6722 C   0  0  2  0  0  0  0  0  0  0  0  0
    8.7134  -12.7524   27.9483 C   0  0  0  0  0  0  0  0  0  0  0  0
    9.3355  -14.4943   26.2054 C   0  0  2  0  0  0  0  0  0  0  0  0
    8.6919  -15.3907   25.2334 N   0  0  0  0  0  0  0  0  0  0  0  0
    9.9913  -15.3415   27.1941 C   0  0  0  0  0  0  0  0  0  0  0  0
    9.9513  -16.7275   27.2580 O   0  0  0  0  0  0  0  0  0  0  0  0
   10.6978  -14.8405   28.1443 O   0  0  0  0  0  0  0  0  0  0  0  0
  2  1  1  0
  2  3  1  0
  3  4  1  1
  5  3  1  0
  5  6  1  6
  7  8  2  0
  7  5  1  0
  9  7  1  0
 10  9  1  0
 10 11  1  1
 12 13  1  0
 12 11  1  0
 13 14  1  0
 14 15  1  0
 16 23  1  0
 16 10  1  0
 17 16  2  0
 19 18  1  0
 19 20  1  0
 20 21  1  1
 20 22  1  0
 22 23  1  6
 22 24  1  0
 24 25  1  0
 26 24  2  0
M  END
$$$$
