IKI.pdb
     RDKit          3D

 26 25  0  0  1  0  0  0  0  0999 V2000
    7.6715  -12.2087   20.3356 C   0  0  0  0  0  0  0  0  0  0  0  0
    7.2361  -13.6321   20.4991 C   0  0  0  0  0  0  0  0  0  0  0  0
    8.2305  -14.5953   19.8374 C   0  0  2  0  0  0  0  0  0  0  0  0
    8.2667  -14.2821   18.3820 C   0  0  0  0  0  0  0  0  0  0  0  0
    7.8081  -16.0042   20.1779 C   0  0  2  0  0  0  0  0  0  0  0  0
    6.4780  -16.1615   19.5646 N   0  0  0  0  0  0  0  0  0  0  0  0
    7.6811  -16.2420   21.6416 C   0  0  0  0  0  0  0  0  0  0  0  0
    6.7232  -15.7082   22.2589 O   0  0  0  0  0  0  0  0  0  0  0  0
    8.5827  -17.0380   22.3689 N   0  0  0  0  0  0  0  0  0  0  0  0
    8.6654  -17.2511   23.7800 C   0  0  1  0  0  0  0  0  0  0  0  0
    9.4465  -18.5147   24.1748 C   0  0  0  0  0  0  0  0  0  0  0  0
    9.3975  -18.7618   25.6458 C   0  0  0  0  0  0  0  0  0  0  0  0
    8.8129  -20.1378   25.8903 C   0  0  0  0  0  0  0  0  0  0  0  0
    8.7908  -20.4849   27.3708 C   0  0  0  0  0  0  0  0  0  0  0  0
    8.0880  -21.7208   27.6091 N   0  0  0  0  0  0  0  0  0  0  0  0
    9.1146  -16.1263   24.5839 C   0  0  0  0  0  0  0  0  0  0  0  0
   10.1854  -15.5375   24.2836 O   0  0  0  0  0  0  0  0  0  0  0  0
    6.2952  -11.9447   25.4734 C   0  0  0  0  0  0  0  0  0  0  0  0
    7.3851  -12.9541   25.3937 C   0  0  0  0  0  0  0  0  0  0  0  0
    7.9522  -13.4334   26.6771 C   0  0  2  0  0  0  0  0  0  0  0  0
    8.2345  -12.3582   27.6732 C   0  0  0  0  0  0  0  0  0  0  0  0
    8.9462  -14.5234   26.5489 C   0  0  2  0  0  0  0  0  0  0  0  0
    8.4190  -15.6183   25.7206 N   0  0  0  0  0  0  0  0  0  0  0  0
    9.4833  -15.1294   27.7612 C   0  0  0  0  0  0  0  0  0  0  0  0
    9.3010  -16.4380   28.1869 O   0  0  0  0  0  0  0  0  0  0  0  0
   10.2090  -14.4574   28.5825 O   0  0  0  0  0  0  0  0  0  0  0  0
  2  1  1  0
  2  3  1  0
  3  4  1  6
  5  3  1  0
  5  6  1  6
  7  8  2  0
  7  5  1  0
  9  7  1  0
 10  9  1  0
 10 11  1  6
 12 13  1  0
 12 11  1  0
 13 14  1  0
 14 15  1  0
 16 23  1  0
 16 10  1  0
 17 16  2  0
 19 18  1  0
 19 20  1  0
 20 21  1  6
 20 22  1  0
 22 23  1  6
 22 24  1  0
 24 25  1  0
 26 24  2  0
M  END
$$$$
