IKI.pdb
     RDKit          3D

 26 25  0  0  1  0  0  0  0  0999 V2000
    7.5514  -12.3078   20.4115 C   0  0  0  0  0  0  0  0  0  0  0  0
    6.9856  -13.6918   20.4935 C   0  0  0  0  0  0  0  0  0  0  0  0
    7.9961  -14.7341   19.9966 C   0  0  2  0  0  0  0  0  0  0  0  0
    8.3137  -14.4181   18.5764 C   0  0  0  0  0  0  0  0  0  0  0  0
    7.4034  -16.1029   20.2300 C   0  0  2  0  0  0  0  0  0  0  0  0
    6.1756  -16.1297   19.4166 N   0  0  0  0  0  0  0  0  0  0  0  0
    7.0311  -16.3476   21.6501 C   0  0  0  0  0  0  0  0  0  0  0  0
    5.8923  -15.9871   22.0461 O   0  0  0  0  0  0  0  0  0  0  0  0
    7.8935  -16.9650   22.5722 N   0  0  0  0  0  0  0  0  0  0  0  0
    7.7309  -17.1464   23.9808 C   0  0  1  0  0  0  0  0  0  0  0  0
    7.8310  -18.6110   24.4363 C   0  0  0  0  0  0  0  0  0  0  0  0
    7.5125  -18.7654   25.8861 C   0  0  0  0  0  0  0  0  0  0  0  0
    7.5144  -20.2403   26.2319 C   0  0  0  0  0  0  0  0  0  0  0  0
    6.9598  -20.4924   27.6254 C   0  0  0  0  0  0  0  0  0  0  0  0
    6.9048  -21.9023   27.9206 N   0  0  0  0  0  0  0  0  0  0  0  0
    8.5459  -16.3079   24.8444 C   0  0  0  0  0  0  0  0  0  0  0  0
    9.7940  -16.2828   24.6864 O   0  0  0  0  0  0  0  0  0  0  0  0
    6.3345  -11.6973   26.1519 C   0  0  0  0  0  0  0  0  0  0  0  0
    7.3728  -12.7113   25.8250 C   0  0  0  0  0  0  0  0  0  0  0  0
    8.1132  -13.3062   26.9635 C   0  0  2  0  0  0  0  0  0  0  0  0
    8.7680  -12.3144   27.8667 C   0  0  0  0  0  0  0  0  0  0  0  0
    8.8696  -14.5368   26.6381 C   0  0  2  0  0  0  0  0  0  0  0  0
    8.0310  -15.4844   25.8888 N   0  0  0  0  0  0  0  0  0  0  0  0
    9.4907  -15.2864   27.7233 C   0  0  0  0  0  0  0  0  0  0  0  0
   10.7102  -15.0156   28.3286 O   0  0  0  0  0  0  0  0  0  0  0  0
    8.9249  -16.3221   28.2332 O   0  0  0  0  0  0  0  0  0  0  0  0
  2  1  1  0
  2  3  1  0
  3  4  1  6
  5  3  1  0
  5  6  1  6
  7  8  2  0
  7  5  1  0
  9  7  1  0
 10  9  1  0
 10 11  1  6
 12 13  1  0
 12 11  1  0
 13 14  1  0
 14 15  1  0
 16 23  1  0
 16 10  1  0
 17 16  2  0
 19 18  1  0
 19 20  1  0
 20 21  1  6
 20 22  1  0
 22 23  1  1
 22 24  1  0
 24 25  1  0
 26 24  2  0
M  END
$$$$
