IKI.pdb
     RDKit          3D

 26 25  0  0  1  0  0  0  0  0999 V2000
    7.7809  -12.2171   19.0925 C   0  0  0  0  0  0  0  0  0  0  0  0
    7.6329  -13.6983   19.2548 C   0  0  0  0  0  0  0  0  0  0  0  0
    7.5953  -14.0925   20.7373 C   0  0  2  0  0  0  0  0  0  0  0  0
    8.8461  -13.5926   21.3723 C   0  0  0  0  0  0  0  0  0  0  0  0
    7.3915  -15.5864   20.8150 C   0  0  2  0  0  0  0  0  0  0  0  0
    6.0856  -15.8261   20.1769 N   0  0  0  0  0  0  0  0  0  0  0  0
    7.3330  -16.0995   22.2109 C   0  0  0  0  0  0  0  0  0  0  0  0
    6.3873  -15.7259   22.9521 O   0  0  0  0  0  0  0  0  0  0  0  0
    8.2867  -16.9853   22.7414 N   0  0  0  0  0  0  0  0  0  0  0  0
    8.5332  -17.3377   24.1047 C   0  0  1  0  0  0  0  0  0  0  0  0
    9.2328  -18.6949   24.2809 C   0  0  0  0  0  0  0  0  0  0  0  0
    9.3797  -19.0621   25.7199 C   0  0  0  0  0  0  0  0  0  0  0  0
   10.0300  -20.4274   25.8113 C   0  0  0  0  0  0  0  0  0  0  0  0
   10.2176  -20.8658   27.2554 C   0  0  0  0  0  0  0  0  0  0  0  0
   10.7502  -22.2031   27.3323 N   0  0  0  0  0  0  0  0  0  0  0  0
    9.1914  -16.3367   24.9279 C   0  0  0  0  0  0  0  0  0  0  0  0
   10.2989  -15.8639   24.5630 O   0  0  0  0  0  0  0  0  0  0  0  0
    6.5345  -12.2118   26.2471 C   0  0  0  0  0  0  0  0  0  0  0  0
    7.6825  -13.1252   26.0004 C   0  0  0  0  0  0  0  0  0  0  0  0
    8.3924  -13.6493   27.1919 C   0  0  2  0  0  0  0  0  0  0  0  0
    8.8281  -12.6056   28.1661 C   0  0  0  0  0  0  0  0  0  0  0  0
    9.3308  -14.7612   26.9172 C   0  0  2  0  0  0  0  0  0  0  0  0
    8.6683  -15.8294   26.1539 N   0  0  0  0  0  0  0  0  0  0  0  0
   10.0098  -15.3995   28.0383 C   0  0  0  0  0  0  0  0  0  0  0  0
    9.7840  -16.6790   28.5269 O   0  0  0  0  0  0  0  0  0  0  0  0
   10.9238  -14.7889   28.7051 O   0  0  0  0  0  0  0  0  0  0  0  0
  2  1  1  0
  2  3  1  0
  3  4  1  6
  5  3  1  0
  5  6  1  1
  7  8  2  0
  7  5  1  0
  9  7  1  0
 10  9  1  0
 10 11  1  6
 12 13  1  0
 12 11  1  0
 13 14  1  0
 14 15  1  0
 16 23  1  0
 16 10  1  0
 17 16  2  0
 19 18  1  0
 19 20  1  0
 20 21  1  6
 20 22  1  0
 22 23  1  1
 22 24  1  0
 24 25  1  0
 26 24  2  0
M  END
$$$$
