IKI.pdb
     RDKit          3D

 26 25  0  0  1  0  0  0  0  0999 V2000
    5.4491  -10.6718   26.6691 C   0  0  0  0  0  0  0  0  0  0  0  0
    5.0672  -12.0012   26.0954 C   0  0  0  0  0  0  0  0  0  0  0  0
    6.3044  -12.8746   25.8488 C   0  0  2  0  0  0  0  0  0  0  0  0
    7.2874  -12.0631   25.0788 C   0  0  0  0  0  0  0  0  0  0  0  0
    5.8488  -14.1425   25.1675 C   0  0  2  0  0  0  0  0  0  0  0  0
    4.8856  -14.7513   26.1012 N   0  0  0  0  0  0  0  0  0  0  0  0
    6.9528  -15.1129   24.9331 C   0  0  0  0  0  0  0  0  0  0  0  0
    7.4689  -15.6908   25.9246 O   0  0  0  0  0  0  0  0  0  0  0  0
    7.4466  -15.4159   23.6526 N   0  0  0  0  0  0  0  0  0  0  0  0
    8.6426  -16.1073   23.2853 C   0  0  1  0  0  0  0  0  0  0  0  0
    8.9795  -16.0180   21.7883 C   0  0  0  0  0  0  0  0  0  0  0  0
   10.1893  -16.8202   21.4418 C   0  0  0  0  0  0  0  0  0  0  0  0
   10.3632  -16.8159   19.9369 C   0  0  0  0  0  0  0  0  0  0  0  0
   11.5015  -17.7246   19.4992 C   0  0  0  0  0  0  0  0  0  0  0  0
   11.6844  -17.6845   18.0699 N   0  0  0  0  0  0  0  0  0  0  0  0
    9.8301  -15.8192   24.0728 C   0  0  0  0  0  0  0  0  0  0  0  0
   10.4225  -14.7194   23.9222 O   0  0  0  0  0  0  0  0  0  0  0  0
   10.3348  -13.7261   28.2806 C   0  0  0  0  0  0  0  0  0  0  0  0
   10.6379  -14.4220   27.0012 C   0  0  0  0  0  0  0  0  0  0  0  0
   11.2636  -15.7628   27.0974 C   0  0  2  0  0  0  0  0  0  0  0  0
   12.2421  -15.9145   28.2144 C   0  0  0  0  0  0  0  0  0  0  0  0
   11.6098  -16.3819   25.7976 C   0  0  2  0  0  0  0  0  0  0  0  0
   10.3966  -16.7083   25.0333 N   0  0  0  0  0  0  0  0  0  0  0  0
   12.4497  -17.5734   25.7895 C   0  0  0  0  0  0  0  0  0  0  0  0
   13.8366  -17.6126   25.8321 O   0  0  0  0  0  0  0  0  0  0  0  0
   11.9407  -18.7528   25.7350 O   0  0  0  0  0  0  0  0  0  0  0  0
  2  1  1  0
  2  3  1  0
  3  4  1  6
  5  3  1  0
  5  6  1  1
  7  8  2  0
  7  5  1  0
  9  7  1  0
 10  9  1  0
 10 11  1  6
 12 13  1  0
 12 11  1  0
 13 14  1  0
 14 15  1  0
 16 23  1  0
 16 10  1  0
 17 16  2  0
 19 18  1  0
 19 20  1  0
 20 21  1  1
 20 22  1  0
 22 23  1  1
 22 24  1  0
 24 25  1  0
 26 24  2  0
M  END
$$$$
