IKI.pdb
     RDKit          3D

 26 25  0  0  1  0  0  0  0  0999 V2000
    7.8938  -12.1115   20.4768 C   0  0  0  0  0  0  0  0  0  0  0  0
    7.4270  -13.4975   20.7982 C   0  0  0  0  0  0  0  0  0  0  0  0
    8.1771  -14.5428   19.9620 C   0  0  2  0  0  0  0  0  0  0  0  0
    8.0076  -14.1835   18.5268 C   0  0  0  0  0  0  0  0  0  0  0  0
    7.6541  -15.9061   20.3459 C   0  0  2  0  0  0  0  0  0  0  0  0
    6.2263  -15.8817   19.9842 N   0  0  0  0  0  0  0  0  0  0  0  0
    7.7644  -16.1888   21.8030 C   0  0  0  0  0  0  0  0  0  0  0  0
    6.9456  -15.6431   22.5873 O   0  0  0  0  0  0  0  0  0  0  0  0
    8.7423  -17.0400   22.3458 N   0  0  0  0  0  0  0  0  0  0  0  0
    9.0559  -17.2985   23.7163 C   0  0  1  0  0  0  0  0  0  0  0  0
   10.0572  -18.4465   23.9208 C   0  0  0  0  0  0  0  0  0  0  0  0
   10.2919  -18.7287   25.3673 C   0  0  0  0  0  0  0  0  0  0  0  0
    9.5479  -19.9932   25.7450 C   0  0  0  0  0  0  0  0  0  0  0  0
    9.7030  -20.3174   27.2227 C   0  0  0  0  0  0  0  0  0  0  0  0
    9.0135  -21.5355   27.5673 N   0  0  0  0  0  0  0  0  0  0  0  0
    9.4510  -16.1545   24.5215 C   0  0  0  0  0  0  0  0  0  0  0  0
   10.4305  -15.4513   24.1619 O   0  0  0  0  0  0  0  0  0  0  0  0
    6.2802  -12.3604   25.9012 C   0  0  0  0  0  0  0  0  0  0  0  0
    7.4787  -13.2075   25.6574 C   0  0  0  0  0  0  0  0  0  0  0  0
    8.2254  -13.6743   26.8502 C   0  0  2  0  0  0  0  0  0  0  0  0
    8.5109  -12.6134   27.8607 C   0  0  0  0  0  0  0  0  0  0  0  0
    9.2987  -14.6544   26.5673 C   0  0  2  0  0  0  0  0  0  0  0  0
    8.7985  -15.7500   25.7235 N   0  0  0  0  0  0  0  0  0  0  0  0
   10.0012  -15.2685   27.6874 C   0  0  0  0  0  0  0  0  0  0  0  0
    9.7370  -16.5073   28.2553 O   0  0  0  0  0  0  0  0  0  0  0  0
   10.9775  -14.6731   28.2750 O   0  0  0  0  0  0  0  0  0  0  0  0
  2  1  1  0
  2  3  1  0
  3  4  1  6
  5  3  1  0
  5  6  1  1
  7  8  2  0
  7  5  1  0
  9  7  1  0
 10  9  1  0
 10 11  1  6
 12 13  1  0
 12 11  1  0
 13 14  1  0
 14 15  1  0
 16 23  1  0
 16 10  1  0
 17 16  2  0
 19 18  1  0
 19 20  1  0
 20 21  1  6
 20 22  1  0
 22 23  1  1
 22 24  1  0
 24 25  1  0
 26 24  2  0
M  END
$$$$
