IKI.pdb
     RDKit          3D

 26 25  0  0  1  0  0  0  0  0999 V2000
    7.3078  -12.6006   16.8616 C   0  0  0  0  0  0  0  0  0  0  0  0
    8.2706  -13.4788   17.5993 C   0  0  0  0  0  0  0  0  0  0  0  0
    7.7859  -13.7543   19.0289 C   0  0  2  0  0  0  0  0  0  0  0  0
    7.5824  -12.4410   19.7008 C   0  0  0  0  0  0  0  0  0  0  0  0
    8.7923  -14.6631   19.6928 C   0  0  2  0  0  0  0  0  0  0  0  0
    8.8092  -15.8814   18.8648 N   0  0  0  0  0  0  0  0  0  0  0  0
    8.4139  -15.0441   21.0809 C   0  0  0  0  0  0  0  0  0  0  0  0
    7.8478  -14.1878   21.8087 O   0  0  0  0  0  0  0  0  0  0  0  0
    8.6589  -16.3194   21.6184 N   0  0  0  0  0  0  0  0  0  0  0  0
    8.4339  -16.7993   22.9460 C   0  0  1  0  0  0  0  0  0  0  0  0
    8.8542  -18.2623   23.1595 C   0  0  0  0  0  0  0  0  0  0  0  0
    8.2092  -19.1760   22.1715 C   0  0  0  0  0  0  0  0  0  0  0  0
    8.6846  -20.5907   22.4321 C   0  0  0  0  0  0  0  0  0  0  0  0
    8.0456  -21.5845   21.4746 C   0  0  0  0  0  0  0  0  0  0  0  0
    8.4647  -22.9334   21.7624 N   0  0  0  0  0  0  0  0  0  0  0  0
    8.9462  -15.9790   24.0312 C   0  0  0  0  0  0  0  0  0  0  0  0
   10.1537  -15.6249   24.0245 O   0  0  0  0  0  0  0  0  0  0  0  0
    5.9358  -12.3769   27.5103 C   0  0  0  0  0  0  0  0  0  0  0  0
    6.5444  -13.5644   26.8525 C   0  0  0  0  0  0  0  0  0  0  0  0
    7.8861  -13.3838   26.2480 C   0  0  2  0  0  0  0  0  0  0  0  0
    7.9233  -12.4527   25.0819 C   0  0  0  0  0  0  0  0  0  0  0  0
    8.7007  -14.6173   26.1630 C   0  0  2  0  0  0  0  0  0  0  0  0
    8.1681  -15.5272   25.1378 N   0  0  0  0  0  0  0  0  0  0  0  0
    8.9022  -15.4098   27.3700 C   0  0  0  0  0  0  0  0  0  0  0  0
    8.5146  -16.7270   27.5734 O   0  0  0  0  0  0  0  0  0  0  0  0
    9.4870  -14.9196   28.4047 O   0  0  0  0  0  0  0  0  0  0  0  0
  2  1  1  0
  2  3  1  0
  3  4  1  1
  5  3  1  0
  5  6  1  6
  7  8  2  0
  7  5  1  0
  9  7  1  0
 10  9  1  0
 10 11  1  6
 12 13  1  0
 12 11  1  0
 13 14  1  0
 14 15  1  0
 16 23  1  0
 16 10  1  0
 17 16  2  0
 19 18  1  0
 19 20  1  0
 20 21  1  6
 20 22  1  0
 22 23  1  6
 22 24  1  0
 24 25  1  0
 26 24  2  0
M  END
$$$$
