YGK.pdb
     RDKit          3D

 26 26  0  0  1  0  0  0  0  0999 V2000
   28.7055  -17.7733  -18.9778 O   0  0  0  0  0  0  0  0  0  0  0  0
   27.3723  -17.5482  -18.6021 C   0  0  0  0  0  0  0  0  0  0  0  0
   27.0637  -16.2935  -18.1284 C   0  0  0  0  0  0  0  0  0  0  0  0
   25.7561  -16.0625  -17.7566 C   0  0  0  0  0  0  0  0  0  0  0  0
   24.7923  -17.0487  -17.8546 C   0  0  0  0  0  0  0  0  0  0  0  0
   23.4217  -16.7285  -17.4182 C   0  0  0  0  0  0  0  0  0  0  0  0
   22.4866  -16.7996  -18.5894 C   0  0  2  0  0  0  0  0  0  0  0  0
   22.7641  -15.6356  -19.4295 N   0  0  0  0  0  0  0  0  0  0  0  0
   21.0974  -16.8238  -18.1373 C   0  0  0  0  0  0  0  0  0  0  0  0
   20.6083  -17.7675  -17.4752 O   0  0  0  0  0  0  0  0  0  0  0  0
   25.1456  -18.2799  -18.3308 C   0  0  0  0  0  0  0  0  0  0  0  0
   26.4622  -18.5534  -18.7183 C   0  0  0  0  0  0  0  0  0  0  0  0
   20.2338  -15.7243  -18.4557 N   0  0  0  0  0  0  0  0  0  0  0  0
   18.8559  -15.7120  -18.1221 C   0  0  0  0  0  0  0  0  0  0  0  0
   18.3187  -16.9646  -17.5370 C   0  0  0  0  0  0  0  0  0  0  0  0
   17.9955  -17.9314  -18.3261 O   0  0  0  0  0  0  0  0  0  0  0  0
   18.1179  -17.2192  -16.1749 N   0  0  0  0  0  0  0  0  0  0  0  0
   17.4373  -18.4208  -15.6956 C   0  0  1  0  0  0  0  0  0  0  0  0
   18.2678  -19.1298  -14.6731 C   0  0  0  0  0  0  0  0  0  0  0  0
   17.6179  -20.4082  -14.2367 C   0  0  0  0  0  0  0  0  0  0  0  0
   18.3952  -21.0679  -13.1003 C   0  0  0  0  0  0  0  0  0  0  0  0
   17.8418  -22.4071  -12.7279 C   0  0  0  0  0  0  0  0  0  0  0  0
   18.5692  -23.0683  -11.6932 N   0  0  0  0  0  0  0  0  0  0  0  0
   16.0860  -18.1462  -15.2518 C   0  0  0  0  0  0  0  0  0  0  0  0
   15.0809  -19.0564  -15.1533 O   0  0  0  0  0  0  0  0  0  0  0  0
   15.8032  -16.9340  -14.9245 O   0  0  0  0  0  0  0  0  0  0  0  0
  1  2  1  0
  2 12  2  0
  2  3  1  0
  3  4  2  0
  4  5  1  0
  5  6  1  0
  6  7  1  0
  7  8  1  6
  7  9  1  0
  9 10  2  0
 11  5  2  0
 12 11  1  0
 13  9  1  0
 13 14  1  0
 15 14  1  0
 15 17  1  0
 16 15  2  0
 18 17  1  0
 18 24  1  0
 18 19  1  1
 20 19  1  0
 21 20  1  0
 21 22  1  0
 23 22  1  0
 24 26  2  0
 24 25  1  0
M  END
$$$$
