YGK.pdb
     RDKit          3D

 26 26  0  0  1  0  0  0  0  0999 V2000
   20.5804  -16.3572  -23.2708 O   0  0  0  0  0  0  0  0  0  0  0  0
   20.7091  -15.5630  -22.1210 C   0  0  0  0  0  0  0  0  0  0  0  0
   21.4602  -16.0796  -21.0900 C   0  0  0  0  0  0  0  0  0  0  0  0
   21.5926  -15.3066  -19.9559 C   0  0  0  0  0  0  0  0  0  0  0  0
   20.9966  -14.0633  -19.8555 C   0  0  0  0  0  0  0  0  0  0  0  0
   21.1693  -13.3075  -18.6023 C   0  0  0  0  0  0  0  0  0  0  0  0
   22.2826  -12.3139  -18.7581 C   0  0  2  0  0  0  0  0  0  0  0  0
   23.4292  -13.0383  -19.3043 N   0  0  0  0  0  0  0  0  0  0  0  0
   22.5967  -11.6884  -17.4756 C   0  0  0  0  0  0  0  0  0  0  0  0
   23.5251  -12.0791  -16.7315 O   0  0  0  0  0  0  0  0  0  0  0  0
   20.2598  -13.5915  -20.9052 C   0  0  0  0  0  0  0  0  0  0  0  0
   20.1020  -14.3460  -22.0732 C   0  0  0  0  0  0  0  0  0  0  0  0
   21.8174  -10.5716  -17.0270 N   0  0  0  0  0  0  0  0  0  0  0  0
   22.0736   -9.9015  -15.8041 C   0  0  0  0  0  0  0  0  0  0  0  0
   21.2996   -8.6579  -15.5712 C   0  0  0  0  0  0  0  0  0  0  0  0
   20.5534   -8.2027  -16.5187 O   0  0  0  0  0  0  0  0  0  0  0  0
   21.2913   -7.8993  -14.3943 N   0  0  0  0  0  0  0  0  0  0  0  0
   20.4155   -6.7429  -14.2150 C   0  0  1  0  0  0  0  0  0  0  0  0
   19.6624   -6.8412  -12.9261 C   0  0  0  0  0  0  0  0  0  0  0  0
   18.7249   -8.0108  -12.9323 C   0  0  0  0  0  0  0  0  0  0  0  0
   17.8151   -8.0012  -11.7063 C   0  0  0  0  0  0  0  0  0  0  0  0
   16.9921   -9.2453  -11.5924 C   0  0  0  0  0  0  0  0  0  0  0  0
   16.1351   -9.2718  -10.4515 N   0  0  0  0  0  0  0  0  0  0  0  0
   21.1224   -5.4888  -14.3759 C   0  0  0  0  0  0  0  0  0  0  0  0
   22.4659   -5.3470  -14.5289 O   0  0  0  0  0  0  0  0  0  0  0  0
   20.4234   -4.4081  -14.3698 O   0  0  0  0  0  0  0  0  0  0  0  0
  1  2  1  0
  2 12  2  0
  2  3  1  0
  3  4  2  0
  4  5  1  0
  5  6  1  0
  6  7  1  0
  7  8  1  1
  7  9  1  0
  9 10  2  0
 11  5  2  0
 12 11  1  0
 13  9  1  0
 13 14  1  0
 15 14  1  0
 15 17  1  0
 16 15  2  0
 18 17  1  0
 18 24  1  0
 18 19  1  1
 20 19  1  0
 21 20  1  0
 21 22  1  0
 23 22  1  0
 24 26  2  0
 24 25  1  0
M  END
$$$$
