YGK.pdb
     RDKit          3D

 26 26  0  0  1  0  0  0  0  0999 V2000
   21.6728   -9.2766  -11.1150 O   0  0  0  0  0  0  0  0  0  0  0  0
   21.5528   -9.1924  -12.5107 C   0  0  0  0  0  0  0  0  0  0  0  0
   21.9732  -10.2829  -13.2373 C   0  0  0  0  0  0  0  0  0  0  0  0
   21.8593  -10.2098  -14.6095 C   0  0  0  0  0  0  0  0  0  0  0  0
   21.3443   -9.0885  -15.2328 C   0  0  0  0  0  0  0  0  0  0  0  0
   21.2740   -9.0806  -16.7048 C   0  0  0  0  0  0  0  0  0  0  0  0
   22.6371   -9.3311  -17.2794 C   0  0  2  0  0  0  0  0  0  0  0  0
   23.5297   -8.3165  -16.7212 N   0  0  0  0  0  0  0  0  0  0  0  0
   22.5979   -9.2756  -18.7389 C   0  0  0  0  0  0  0  0  0  0  0  0
   21.9168  -10.0615  -19.4367 O   0  0  0  0  0  0  0  0  0  0  0  0
   20.9396   -8.0294  -14.4699 C   0  0  0  0  0  0  0  0  0  0  0  0
   21.0391   -8.0653  -13.0745 C   0  0  0  0  0  0  0  0  0  0  0  0
   23.3686   -8.2815  -19.4270 N   0  0  0  0  0  0  0  0  0  0  0  0
   23.3824   -8.1664  -20.8400 C   0  0  0  0  0  0  0  0  0  0  0  0
   22.5187   -7.1054  -21.4130 C   0  0  0  0  0  0  0  0  0  0  0  0
   21.7614   -6.4249  -20.6222 O   0  0  0  0  0  0  0  0  0  0  0  0
   22.4339   -6.7510  -22.7649 N   0  0  0  0  0  0  0  0  0  0  0  0
   21.6215   -5.6285  -23.2300 C   0  0  1  0  0  0  0  0  0  0  0  0
   21.9044   -5.3273  -24.6678 C   0  0  0  0  0  0  0  0  0  0  0  0
   21.2362   -4.0566  -25.0986 C   0  0  0  0  0  0  0  0  0  0  0  0
   21.5865   -3.7054  -26.5425 C   0  0  0  0  0  0  0  0  0  0  0  0
   20.9167   -2.4508  -27.0069 C   0  0  0  0  0  0  0  0  0  0  0  0
   21.1448   -2.1462  -28.3824 N   0  0  0  0  0  0  0  0  0  0  0  0
   20.2134   -5.8151  -22.9460 C   0  0  0  0  0  0  0  0  0  0  0  0
   19.5032   -6.9546  -23.1594 O   0  0  0  0  0  0  0  0  0  0  0  0
   19.5697   -4.8160  -22.4518 O   0  0  0  0  0  0  0  0  0  0  0  0
  1  2  1  0
  2 12  2  0
  2  3  1  0
  3  4  2  0
  4  5  1  0
  5  6  1  0
  6  7  1  0
  7  8  1  1
  7  9  1  0
  9 10  2  0
 11  5  2  0
 12 11  1  0
 13  9  1  0
 13 14  1  0
 15 14  1  0
 15 17  1  0
 16 15  2  0
 18 17  1  0
 18 24  1  0
 18 19  1  6
 20 19  1  0
 21 20  1  0
 21 22  1  0
 23 22  1  0
 24 26  2  0
 24 25  1  0
M  END
$$$$
