YGK.pdb
     RDKit          3D

 26 26  0  0  1  0  0  0  0  0999 V2000
   18.0195  -18.3137  -16.9395 O   0  0  0  0  0  0  0  0  0  0  0  0
   18.0160  -16.9228  -17.1262 C   0  0  0  0  0  0  0  0  0  0  0  0
   19.0950  -16.2269  -16.6307 C   0  0  0  0  0  0  0  0  0  0  0  0
   19.1008  -14.8596  -16.8092 C   0  0  0  0  0  0  0  0  0  0  0  0
   18.0669  -14.2115  -17.4590 C   0  0  0  0  0  0  0  0  0  0  0  0
   18.1383  -12.7456  -17.5919 C   0  0  0  0  0  0  0  0  0  0  0  0
   17.7635  -12.0992  -16.2909 C   0  0  2  0  0  0  0  0  0  0  0  0
   16.4431  -12.6092  -15.9246 N   0  0  0  0  0  0  0  0  0  0  0  0
   17.7663  -10.6438  -16.4204 C   0  0  0  0  0  0  0  0  0  0  0  0
   16.8136   -9.9976  -16.9136 O   0  0  0  0  0  0  0  0  0  0  0  0
   17.0160  -14.9444  -17.9342 C   0  0  0  0  0  0  0  0  0  0  0  0
   16.9734  -16.3339  -17.7727 C   0  0  0  0  0  0  0  0  0  0  0  0
   18.9045   -9.8986  -15.9676 N   0  0  0  0  0  0  0  0  0  0  0  0
   19.0322   -8.5006  -16.1661 C   0  0  0  0  0  0  0  0  0  0  0  0
   20.1869   -7.8531  -15.4972 C   0  0  0  0  0  0  0  0  0  0  0  0
   20.8658   -8.5293  -14.6349 O   0  0  0  0  0  0  0  0  0  0  0  0
   20.6344   -6.5432  -15.7081 N   0  0  0  0  0  0  0  0  0  0  0  0
   21.8287   -6.0099  -15.0556 C   0  0  1  0  0  0  0  0  0  0  0  0
   22.5186   -5.0183  -15.9381 C   0  0  0  0  0  0  0  0  0  0  0  0
   22.9444   -5.6454  -17.2312 C   0  0  0  0  0  0  0  0  0  0  0  0
   23.5469   -4.6115  -18.1793 C   0  0  0  0  0  0  0  0  0  0  0  0
   23.8771   -5.1861  -19.5206 C   0  0  0  0  0  0  0  0  0  0  0  0
   24.5361   -4.2726  -20.3970 N   0  0  0  0  0  0  0  0  0  0  0  0
   21.5490   -5.5037  -13.7275 C   0  0  0  0  0  0  0  0  0  0  0  0
   22.4356   -5.4360  -12.6991 O   0  0  0  0  0  0  0  0  0  0  0  0
   20.3556   -5.0833  -13.4914 O   0  0  0  0  0  0  0  0  0  0  0  0
  1  2  1  0
  2 12  2  0
  2  3  1  0
  3  4  2  0
  4  5  1  0
  5  6  1  0
  6  7  1  0
  7  8  1  6
  7  9  1  0
  9 10  2  0
 11  5  2  0
 12 11  1  0
 13  9  1  0
 13 14  1  0
 15 14  1  0
 15 17  1  0
 16 15  2  0
 18 17  1  0
 18 24  1  0
 18 19  1  6
 20 19  1  0
 21 20  1  0
 21 22  1  0
 23 22  1  0
 24 26  2  0
 24 25  1  0
M  END
$$$$
