YGK.pdb
     RDKit          3D

 26 26  0  0  1  0  0  0  0  0999 V2000
   27.6256  -19.1574   -5.5049 O   0  0  0  0  0  0  0  0  0  0  0  0
   27.0366  -19.5337   -6.7218 C   0  0  0  0  0  0  0  0  0  0  0  0
   27.1369  -18.6395   -7.7632 C   0  0  0  0  0  0  0  0  0  0  0  0
   26.5613  -19.0002   -8.9632 C   0  0  0  0  0  0  0  0  0  0  0  0
   25.9095  -20.2096   -9.1170 C   0  0  0  0  0  0  0  0  0  0  0  0
   25.3034  -20.5124  -10.4257 C   0  0  0  0  0  0  0  0  0  0  0  0
   26.0486  -21.6369  -11.0822 C   0  0  2  0  0  0  0  0  0  0  0  0
   27.4584  -21.2512  -11.1202 N   0  0  0  0  0  0  0  0  0  0  0  0
   25.5196  -21.8925  -12.4200 C   0  0  0  0  0  0  0  0  0  0  0  0
   24.4130  -22.4414  -12.6262 O   0  0  0  0  0  0  0  0  0  0  0  0
   25.8350  -21.0657   -8.0545 C   0  0  0  0  0  0  0  0  0  0  0  0
   26.4066  -20.7359   -6.8204 C   0  0  0  0  0  0  0  0  0  0  0  0
   26.2873  -21.5043  -13.5670 N   0  0  0  0  0  0  0  0  0  0  0  0
   25.8919  -21.8136  -14.8929 C   0  0  0  0  0  0  0  0  0  0  0  0
   24.5687  -21.2922  -15.3137 C   0  0  0  0  0  0  0  0  0  0  0  0
   23.9681  -21.8495  -16.3090 O   0  0  0  0  0  0  0  0  0  0  0  0
   23.8781  -20.2245  -14.7275 N   0  0  0  0  0  0  0  0  0  0  0  0
   22.5748  -19.7748  -15.2131 C   0  0  1  0  0  0  0  0  0  0  0  0
   21.5724  -19.7536  -14.1028 C   0  0  0  0  0  0  0  0  0  0  0  0
   21.3335  -21.1301  -13.5598 C   0  0  0  0  0  0  0  0  0  0  0  0
   20.2905  -21.1154  -12.4450 C   0  0  0  0  0  0  0  0  0  0  0  0
   20.0692  -22.4691  -11.8478 C   0  0  0  0  0  0  0  0  0  0  0  0
   19.2217  -22.4654  -10.6995 N   0  0  0  0  0  0  0  0  0  0  0  0
   22.6608  -18.5229  -15.9368 C   0  0  0  0  0  0  0  0  0  0  0  0
   23.7378  -17.6937  -15.9663 O   0  0  0  0  0  0  0  0  0  0  0  0
   21.6278  -18.1541  -16.6102 O   0  0  0  0  0  0  0  0  0  0  0  0
  1  2  1  0
  2 12  2  0
  2  3  1  0
  3  4  2  0
  4  5  1  0
  5  6  1  0
  6  7  1  0
  7  8  1  6
  7  9  1  0
  9 10  2  0
 11  5  2  0
 12 11  1  0
 13  9  1  0
 13 14  1  0
 15 14  1  0
 15 17  1  0
 16 15  2  0
 18 17  1  0
 18 24  1  0
 18 19  1  1
 20 19  1  0
 21 20  1  0
 21 22  1  0
 23 22  1  0
 24 26  2  0
 24 25  1  0
M  END
$$$$
