YGK.pdb
     RDKit          3D

 26 26  0  0  1  0  0  0  0  0999 V2000
   29.1080  -18.9164   -4.2588 O   0  0  0  0  0  0  0  0  0  0  0  0
   28.5393  -19.4760   -5.4132 C   0  0  0  0  0  0  0  0  0  0  0  0
   29.4090  -19.8899   -6.3962 C   0  0  0  0  0  0  0  0  0  0  0  0
   28.8597  -20.4413   -7.5345 C   0  0  0  0  0  0  0  0  0  0  0  0
   27.4920  -20.5743   -7.6851 C   0  0  0  0  0  0  0  0  0  0  0  0
   26.9829  -21.1555   -8.9399 C   0  0  0  0  0  0  0  0  0  0  0  0
   25.8906  -20.2891   -9.4941 C   0  0  2  0  0  0  0  0  0  0  0  0
   24.8002  -20.2999   -8.5201 N   0  0  0  0  0  0  0  0  0  0  0  0
   25.4568  -20.7810  -10.7998 C   0  0  0  0  0  0  0  0  0  0  0  0
   24.2744  -21.1089  -11.0505 O   0  0  0  0  0  0  0  0  0  0  0  0
   26.6672  -20.1489   -6.6819 C   0  0  0  0  0  0  0  0  0  0  0  0
   27.1862  -19.5841   -5.5115 C   0  0  0  0  0  0  0  0  0  0  0  0
   26.4140  -20.9024  -11.8603 N   0  0  0  0  0  0  0  0  0  0  0  0
   26.0368  -21.0924  -13.2137 C   0  0  0  0  0  0  0  0  0  0  0  0
   27.1446  -21.1090  -14.1998 C   0  0  0  0  0  0  0  0  0  0  0  0
   27.9903  -20.1360  -14.2021 O   0  0  0  0  0  0  0  0  0  0  0  0
   27.3793  -22.1001  -15.1606 N   0  0  0  0  0  0  0  0  0  0  0  0
   28.5597  -22.0903  -16.0226 C   0  0  1  0  0  0  0  0  0  0  0  0
   29.1091  -23.4720  -16.1874 C   0  0  0  0  0  0  0  0  0  0  0  0
   30.4369  -23.4496  -16.8826 C   0  0  0  0  0  0  0  0  0  0  0  0
   30.9680  -24.8622  -17.1136 C   0  0  0  0  0  0  0  0  0  0  0  0
   32.3062  -24.8701  -17.7825 C   0  0  0  0  0  0  0  0  0  0  0  0
   32.8969  -26.1654  -17.8833 N   0  0  0  0  0  0  0  0  0  0  0  0
   28.3159  -21.4127  -17.2795 C   0  0  0  0  0  0  0  0  0  0  0  0
   29.2181  -20.6631  -17.9670 O   0  0  0  0  0  0  0  0  0  0  0  0
   27.1416  -21.5218  -17.7950 O   0  0  0  0  0  0  0  0  0  0  0  0
  1  2  1  0
  2 12  2  0
  2  3  1  0
  3  4  2  0
  4  5  1  0
  5  6  1  0
  6  7  1  0
  7  8  1  1
  7  9  1  0
  9 10  2  0
 11  5  2  0
 12 11  1  0
 13  9  1  0
 13 14  1  0
 15 14  1  0
 15 17  1  0
 16 15  2  0
 18 17  1  0
 18 24  1  0
 18 19  1  6
 20 19  1  0
 21 20  1  0
 21 22  1  0
 23 22  1  0
 24 26  2  0
 24 25  1  0
M  END
$$$$
