YGK.pdb
     RDKit          3D

 26 26  0  0  1  0  0  0  0  0999 V2000
   20.7340  -21.9195   -4.9059 O   0  0  0  0  0  0  0  0  0  0  0  0
   21.7736  -21.8272   -5.8440 C   0  0  0  0  0  0  0  0  0  0  0  0
   21.5733  -22.4475   -7.0561 C   0  0  0  0  0  0  0  0  0  0  0  0
   22.5891  -22.3624   -7.9847 C   0  0  0  0  0  0  0  0  0  0  0  0
   23.7617  -21.6828   -7.7123 C   0  0  0  0  0  0  0  0  0  0  0  0
   24.8074  -21.6546   -8.7503 C   0  0  0  0  0  0  0  0  0  0  0  0
   24.7983  -20.3243   -9.4439 C   0  0  2  0  0  0  0  0  0  0  0  0
   23.5427  -20.2385  -10.1882 N   0  0  0  0  0  0  0  0  0  0  0  0
   25.9593  -20.1942  -10.3215 C   0  0  0  0  0  0  0  0  0  0  0  0
   27.1278  -20.4576   -9.9561 O   0  0  0  0  0  0  0  0  0  0  0  0
   23.9158  -21.0823   -6.4945 C   0  0  0  0  0  0  0  0  0  0  0  0
   22.9079  -21.1461   -5.5257 C   0  0  0  0  0  0  0  0  0  0  0  0
   25.7756  -19.7447  -11.6706 N   0  0  0  0  0  0  0  0  0  0  0  0
   26.8606  -19.4197  -12.5234 C   0  0  0  0  0  0  0  0  0  0  0  0
   26.4998  -18.9780  -13.8926 C   0  0  0  0  0  0  0  0  0  0  0  0
   25.2650  -18.7202  -14.1582 O   0  0  0  0  0  0  0  0  0  0  0  0
   27.3849  -18.8050  -14.9638 N   0  0  0  0  0  0  0  0  0  0  0  0
   26.9957  -18.1262  -16.1984 C   0  0  1  0  0  0  0  0  0  0  0  0
   28.0639  -17.1780  -16.6431 C   0  0  0  0  0  0  0  0  0  0  0  0
   27.6564  -16.4439  -17.8848 C   0  0  0  0  0  0  0  0  0  0  0  0
   28.7752  -15.5336  -18.3855 C   0  0  0  0  0  0  0  0  0  0  0  0
   28.3902  -14.7743  -19.6158 C   0  0  0  0  0  0  0  0  0  0  0  0
   29.4265  -13.9384  -20.1299 N   0  0  0  0  0  0  0  0  0  0  0  0
   26.5839  -19.0562  -17.2298 C   0  0  0  0  0  0  0  0  0  0  0  0
   25.7067  -18.7924  -18.2344 O   0  0  0  0  0  0  0  0  0  0  0  0
   27.0855  -20.2410  -17.1958 O   0  0  0  0  0  0  0  0  0  0  0  0
  1  2  1  0
  2 12  2  0
  2  3  1  0
  3  4  2  0
  4  5  1  0
  5  6  1  0
  6  7  1  0
  7  8  1  6
  7  9  1  0
  9 10  2  0
 11  5  2  0
 12 11  1  0
 13  9  1  0
 13 14  1  0
 15 14  1  0
 15 17  1  0
 16 15  2  0
 18 17  1  0
 18 24  1  0
 18 19  1  6
 20 19  1  0
 21 20  1  0
 21 22  1  0
 23 22  1  0
 24 26  2  0
 24 25  1  0
M  END
$$$$
