YGK.pdb
     RDKit          3D

 26 26  0  0  1  0  0  0  0  0999 V2000
   19.2016  -24.3967  -12.6797 O   0  0  0  0  0  0  0  0  0  0  0  0
   20.1075  -23.4218  -13.1249 C   0  0  0  0  0  0  0  0  0  0  0  0
   20.0602  -22.1975  -12.4981 C   0  0  0  0  0  0  0  0  0  0  0  0
   20.9466  -21.2329  -12.9285 C   0  0  0  0  0  0  0  0  0  0  0  0
   21.8469  -21.4822  -13.9474 C   0  0  0  0  0  0  0  0  0  0  0  0
   22.7476  -20.3924  -14.3629 C   0  0  0  0  0  0  0  0  0  0  0  0
   21.9666  -19.3377  -15.0900 C   0  0  2  0  0  0  0  0  0  0  0  0
   21.2870  -19.9996  -16.2026 N   0  0  0  0  0  0  0  0  0  0  0  0
   22.8507  -18.2701  -15.5519 C   0  0  0  0  0  0  0  0  0  0  0  0
   23.5600  -17.5853  -14.7798 O   0  0  0  0  0  0  0  0  0  0  0  0
   21.8571  -22.7133  -14.5405 C   0  0  0  0  0  0  0  0  0  0  0  0
   20.9734  -23.7185  -14.1319 C   0  0  0  0  0  0  0  0  0  0  0  0
   22.9258  -17.9744  -16.9529 N   0  0  0  0  0  0  0  0  0  0  0  0
   23.7347  -16.9327  -17.4729 C   0  0  0  0  0  0  0  0  0  0  0  0
   23.0199  -15.6995  -17.8833 C   0  0  0  0  0  0  0  0  0  0  0  0
   21.7385  -15.6498  -17.7510 O   0  0  0  0  0  0  0  0  0  0  0  0
   23.6057  -14.5450  -18.4166 N   0  0  0  0  0  0  0  0  0  0  0  0
   22.8310  -13.3431  -18.7198 C   0  0  1  0  0  0  0  0  0  0  0  0
   22.1802  -12.8048  -17.4850 C   0  0  0  0  0  0  0  0  0  0  0  0
   21.2183  -11.7031  -17.8139 C   0  0  0  0  0  0  0  0  0  0  0  0
   20.5714  -11.1345  -16.5534 C   0  0  0  0  0  0  0  0  0  0  0  0
   19.4903  -10.1464  -16.8587 C   0  0  0  0  0  0  0  0  0  0  0  0
   18.7261   -9.7519  -15.7197 N   0  0  0  0  0  0  0  0  0  0  0  0
   23.6091  -12.3555  -19.4392 C   0  0  0  0  0  0  0  0  0  0  0  0
   23.1062  -11.3316  -20.1789 O   0  0  0  0  0  0  0  0  0  0  0  0
   24.8912  -12.4523  -19.3812 O   0  0  0  0  0  0  0  0  0  0  0  0
  1  2  1  0
  2 12  2  0
  2  3  1  0
  3  4  2  0
  4  5  1  0
  5  6  1  0
  6  7  1  0
  7  8  1  6
  7  9  1  0
  9 10  2  0
 11  5  2  0
 12 11  1  0
 13  9  1  0
 13 14  1  0
 15 14  1  0
 15 17  1  0
 16 15  2  0
 18 17  1  0
 18 24  1  0
 18 19  1  1
 20 19  1  0
 21 20  1  0
 21 22  1  0
 23 22  1  0
 24 26  2  0
 24 25  1  0
M  END
$$$$
