YGK.pdb
     RDKit          3D

 26 26  0  0  1  0  0  0  0  0999 V2000
   26.7755  -20.9728   -7.5219 O   0  0  0  0  0  0  0  0  0  0  0  0
   26.9071  -20.7565   -8.9022 C   0  0  0  0  0  0  0  0  0  0  0  0
   25.8120  -20.2414   -9.5575 C   0  0  0  0  0  0  0  0  0  0  0  0
   25.9316  -20.0252  -10.9141 C   0  0  0  0  0  0  0  0  0  0  0  0
   27.1021  -20.3130  -11.5910 C   0  0  0  0  0  0  0  0  0  0  0  0
   27.1433  -20.0721  -13.0443 C   0  0  0  0  0  0  0  0  0  0  0  0
   26.0752  -20.8782  -13.7228 C   0  0  2  0  0  0  0  0  0  0  0  0
   26.4252  -22.2867  -13.5462 N   0  0  0  0  0  0  0  0  0  0  0  0
   25.9771  -20.5163  -15.1350 C   0  0  0  0  0  0  0  0  0  0  0  0
   25.7461  -19.3504  -15.5295 O   0  0  0  0  0  0  0  0  0  0  0  0
   28.1636  -20.8234  -10.8982 C   0  0  0  0  0  0  0  0  0  0  0  0
   28.0815  -21.0568   -9.5208 C   0  0  0  0  0  0  0  0  0  0  0  0
   26.1503  -21.5289  -16.1352 N   0  0  0  0  0  0  0  0  0  0  0  0
   25.6040  -21.4183  -17.4389 C   0  0  0  0  0  0  0  0  0  0  0  0
   24.1250  -21.4835  -17.5303 C   0  0  0  0  0  0  0  0  0  0  0  0
   23.5674  -22.6142  -17.7990 O   0  0  0  0  0  0  0  0  0  0  0  0
   23.2393  -20.4140  -17.3503 N   0  0  0  0  0  0  0  0  0  0  0  0
   21.7882  -20.5838  -17.3961 C   0  0  1  0  0  0  0  0  0  0  0  0
   21.1616  -20.1511  -16.1084 C   0  0  0  0  0  0  0  0  0  0  0  0
   21.4649  -21.1184  -15.0043 C   0  0  0  0  0  0  0  0  0  0  0  0
   20.8430  -20.6691  -13.6844 C   0  0  0  0  0  0  0  0  0  0  0  0
   21.0107  -21.6824  -12.5964 C   0  0  0  0  0  0  0  0  0  0  0  0
   20.5531  -21.2424  -11.3182 N   0  0  0  0  0  0  0  0  0  0  0  0
   21.1990  -19.9595  -18.5629 C   0  0  0  0  0  0  0  0  0  0  0  0
   21.7758  -18.9916  -19.3236 O   0  0  0  0  0  0  0  0  0  0  0  0
   20.0230  -20.3473  -18.9138 O   0  0  0  0  0  0  0  0  0  0  0  0
  1  2  1  0
  2 12  2  0
  2  3  1  0
  3  4  2  0
  4  5  1  0
  5  6  1  0
  6  7  1  0
  7  8  1  6
  7  9  1  0
  9 10  2  0
 11  5  2  0
 12 11  1  0
 13  9  1  0
 13 14  1  0
 15 14  1  0
 15 17  1  0
 16 15  2  0
 18 17  1  0
 18 24  1  0
 18 19  1  1
 20 19  1  0
 21 20  1  0
 21 22  1  0
 23 22  1  0
 24 26  2  0
 24 25  1  0
M  END
$$$$
