YGK.pdb
     RDKit          3D

 26 26  0  0  1  0  0  0  0  0999 V2000
   17.4250  -18.8385  -19.5066 O   0  0  0  0  0  0  0  0  0  0  0  0
   18.7368  -19.1421  -19.1113 C   0  0  0  0  0  0  0  0  0  0  0  0
   18.8900  -19.7690  -17.8957 C   0  0  0  0  0  0  0  0  0  0  0  0
   20.1753  -20.0716  -17.4985 C   0  0  0  0  0  0  0  0  0  0  0  0
   21.2673  -19.7593  -18.2865 C   0  0  0  0  0  0  0  0  0  0  0  0
   22.6098  -20.0981  -17.7819 C   0  0  0  0  0  0  0  0  0  0  0  0
   23.0499  -19.0708  -16.7809 C   0  0  2  0  0  0  0  0  0  0  0  0
   23.3633  -17.8532  -17.5271 N   0  0  0  0  0  0  0  0  0  0  0  0
   24.2011  -19.5534  -16.0214 C   0  0  0  0  0  0  0  0  0  0  0  0
   24.1856  -20.6113  -15.3514 O   0  0  0  0  0  0  0  0  0  0  0  0
   21.0663  -19.1365  -19.4862 C   0  0  0  0  0  0  0  0  0  0  0  0
   19.7772  -18.8130  -19.9244 C   0  0  0  0  0  0  0  0  0  0  0  0
   25.4179  -18.7951  -16.0290 N   0  0  0  0  0  0  0  0  0  0  0  0
   26.5305  -19.1253  -15.2146 C   0  0  0  0  0  0  0  0  0  0  0  0
   26.3004  -19.0747  -13.7502 C   0  0  0  0  0  0  0  0  0  0  0  0
   25.5424  -18.1487  -13.2710 O   0  0  0  0  0  0  0  0  0  0  0  0
   26.8353  -19.9533  -12.8002 N   0  0  0  0  0  0  0  0  0  0  0  0
   26.0159  -20.5777  -11.7632 C   0  0  1  0  0  0  0  0  0  0  0  0
   24.7919  -21.2008  -12.3563 C   0  0  0  0  0  0  0  0  0  0  0  0
   23.9682  -21.8856  -11.3078 C   0  0  0  0  0  0  0  0  0  0  0  0
   23.3409  -20.8784  -10.3472 C   0  0  0  0  0  0  0  0  0  0  0  0
   22.4520  -21.5279   -9.3341 C   0  0  0  0  0  0  0  0  0  0  0  0
   21.8755  -20.6170   -8.3988 N   0  0  0  0  0  0  0  0  0  0  0  0
   26.7800  -21.4850  -10.9319 C   0  0  0  0  0  0  0  0  0  0  0  0
   27.0197  -21.3345   -9.6021 O   0  0  0  0  0  0  0  0  0  0  0  0
   27.2840  -22.5261  -11.4966 O   0  0  0  0  0  0  0  0  0  0  0  0
  1  2  1  0
  2 12  2  0
  2  3  1  0
  3  4  2  0
  4  5  1  0
  5  6  1  0
  6  7  1  0
  7  8  1  6
  7  9  1  0
  9 10  2  0
 11  5  2  0
 12 11  1  0
 13  9  1  0
 13 14  1  0
 15 14  1  0
 15 17  1  0
 16 15  2  0
 18 17  1  0
 18 24  1  0
 18 19  1  6
 20 19  1  0
 21 20  1  0
 21 22  1  0
 23 22  1  0
 24 26  2  0
 24 25  1  0
M  END
$$$$
