AYS.pdb
     RDKit          3D

 24 24  0  0  1  0  0  0  0  0999 V2000
   19.5392  -14.2959  -18.2685 C   0  0  0  0  0  0  0  0  0  0  0  0
   19.1818  -13.5046  -17.0099 C   0  0  2  0  0  0  0  0  0  0  0  0
   17.8349  -13.7660  -16.5902 N   0  0  0  0  0  0  0  0  0  0  0  0
   19.3627  -12.0557  -17.2754 C   0  0  0  0  0  0  0  0  0  0  0  0
   20.4963  -11.6204  -17.6110 O   0  0  0  0  0  0  0  0  0  0  0  0
   18.9911  -10.9812  -23.7106 O   0  0  0  0  0  0  0  0  0  0  0  0
   18.6160  -10.5817  -22.4312 C   0  0  0  0  0  0  0  0  0  0  0  0
   19.1556   -9.4159  -21.9182 C   0  0  0  0  0  0  0  0  0  0  0  0
   18.8096   -8.9753  -20.6407 C   0  0  0  0  0  0  0  0  0  0  0  0
   17.9233   -9.6998  -19.8739 C   0  0  0  0  0  0  0  0  0  0  0  0
   17.5538   -9.2268  -18.5063 C   0  0  0  0  0  0  0  0  0  0  0  0
   18.5158   -9.7601  -17.4689 C   0  0  2  0  0  0  0  0  0  0  0  0
   18.2807  -11.1414  -17.1595 N   0  0  0  0  0  0  0  0  0  0  0  0
   18.4137   -8.9071  -16.2644 C   0  0  0  0  0  0  0  0  0  0  0  0
   17.2958   -8.7615  -15.6824 O   0  0  0  0  0  0  0  0  0  0  0  0
   17.3971  -10.8560  -20.4005 C   0  0  0  0  0  0  0  0  0  0  0  0
   17.7333  -11.3072  -21.6730 C   0  0  0  0  0  0  0  0  0  0  0  0
   21.3975   -8.6414  -13.7250 O   0  0  0  0  0  0  0  0  0  0  0  0
   20.0965   -8.2524  -13.4113 C   0  0  0  0  0  0  0  0  0  0  0  0
   19.5279   -7.4266  -14.5640 C   0  0  2  0  0  0  0  0  0  0  0  0
   19.5720   -8.2575  -15.7696 N   0  0  0  0  0  0  0  0  0  0  0  0
   20.3720   -6.2364  -14.7883 C   0  0  0  0  0  0  0  0  0  0  0  0
   20.3854   -5.3172  -13.9535 O   0  0  0  0  0  0  0  0  0  0  0  0
   21.1325   -6.1847  -15.9408 O   0  0  0  0  0  0  0  0  0  0  0  0
  2  1  1  6
  2  4  1  0
  2  3  1  0
  4  5  2  0
  6  7  1  0
  7  8  2  0
  7 17  1  0
  8  9  1  0
  9 10  2  0
 10 11  1  0
 12 11  1  6
 12 14  1  0
 13 12  1  0
 13  4  1  0
 14 15  2  0
 16 10  1  0
 17 16  2  0
 18 19  1  0
 20 19  1  1
 20 22  1  0
 21 20  1  0
 21 14  1  0
 22 23  2  0
 22 24  1  0
M  END
$$$$
