AYS.pdb
     RDKit          3D

 24 24  0  0  1  0  0  0  0  0999 V2000
   23.9245  -19.0386  -17.7473 C   0  0  0  0  0  0  0  0  0  0  0  0
   24.4203  -19.5028  -16.3775 C   0  0  2  0  0  0  0  0  0  0  0  0
   25.6853  -20.1727  -16.4763 N   0  0  0  0  0  0  0  0  0  0  0  0
   23.4098  -20.4052  -15.7716 C   0  0  0  0  0  0  0  0  0  0  0  0
   23.3397  -21.6051  -16.1491 O   0  0  0  0  0  0  0  0  0  0  0  0
   26.7475  -22.0060  -10.4500 O   0  0  0  0  0  0  0  0  0  0  0  0
   25.4979  -21.6657  -10.9599 C   0  0  0  0  0  0  0  0  0  0  0  0
   24.9159  -22.5020  -11.8954 C   0  0  0  0  0  0  0  0  0  0  0  0
   23.6648  -22.2027  -12.4348 C   0  0  0  0  0  0  0  0  0  0  0  0
   22.9934  -21.0661  -12.0396 C   0  0  0  0  0  0  0  0  0  0  0  0
   21.6541  -20.7469  -12.6180 C   0  0  0  0  0  0  0  0  0  0  0  0
   21.6613  -20.9015  -14.1222 C   0  0  2  0  0  0  0  0  0  0  0  0
   22.5133  -19.9452  -14.7692 N   0  0  0  0  0  0  0  0  0  0  0  0
   20.2655  -20.8000  -14.6022 C   0  0  0  0  0  0  0  0  0  0  0  0
   19.7403  -19.6607  -14.7911 O   0  0  0  0  0  0  0  0  0  0  0  0
   23.5876  -20.2468  -11.1087 C   0  0  0  0  0  0  0  0  0  0  0  0
   24.8348  -20.5331  -10.5624 C   0  0  0  0  0  0  0  0  0  0  0  0
   18.1788  -24.2986  -15.0680 O   0  0  0  0  0  0  0  0  0  0  0  0
   17.8445  -23.2992  -15.9799 C   0  0  0  0  0  0  0  0  0  0  0  0
   18.1553  -21.9352  -15.3658 C   0  0  2  0  0  0  0  0  0  0  0  0
   19.5248  -21.9829  -14.8481 N   0  0  0  0  0  0  0  0  0  0  0  0
   17.2401  -21.6767  -14.2366 C   0  0  0  0  0  0  0  0  0  0  0  0
   17.6822  -21.6243  -13.0773 O   0  0  0  0  0  0  0  0  0  0  0  0
   15.8981  -21.4985  -14.5130 O   0  0  0  0  0  0  0  0  0  0  0  0
  2  1  1  6
  2  4  1  0
  2  3  1  0
  4  5  2  0
  6  7  1  0
  7  8  2  0
  7 17  1  0
  8  9  1  0
  9 10  2  0
 10 11  1  0
 12 11  1  1
 12 14  1  0
 13 12  1  0
 13  4  1  0
 14 15  2  0
 16 10  1  0
 17 16  2  0
 18 19  1  0
 20 19  1  1
 20 22  1  0
 21 20  1  0
 21 14  1  0
 22 23  2  0
 22 24  1  0
M  END
$$$$
