AYS.pdb
     RDKit          3D

 24 24  0  0  1  0  0  0  0  0999 V2000
   46.3030   -9.9310   -7.6962 C   0  0  0  0  0  0  0  0  0  0  0  0
   45.0746  -10.5881   -7.0660 C   0  0  2  0  0  0  0  0  0  0  0  0
   45.0614  -12.0045   -7.2950 N   0  0  0  0  0  0  0  0  0  0  0  0
   43.8476   -9.9682   -7.6250 C   0  0  0  0  0  0  0  0  0  0  0  0
   43.3492  -10.4223   -8.6893 O   0  0  0  0  0  0  0  0  0  0  0  0
   35.8506  -10.0594   -6.9829 O   0  0  0  0  0  0  0  0  0  0  0  0
   37.1163   -9.4899   -6.8787 C   0  0  0  0  0  0  0  0  0  0  0  0
   38.0349  -10.0727   -6.0246 C   0  0  0  0  0  0  0  0  0  0  0  0
   39.3158   -9.5377   -5.8869 C   0  0  0  0  0  0  0  0  0  0  0  0
   39.6803   -8.4186   -6.6035 C   0  0  0  0  0  0  0  0  0  0  0  0
   41.0520   -7.8469   -6.4550 C   0  0  0  0  0  0  0  0  0  0  0  0
   41.9804   -8.3783   -7.5237 C   0  0  2  0  0  0  0  0  0  0  0  0
   43.2169   -8.8673   -6.9844 N   0  0  0  0  0  0  0  0  0  0  0  0
   42.2056   -7.3029   -8.5144 C   0  0  0  0  0  0  0  0  0  0  0  0
   43.1988   -6.5233   -8.3904 O   0  0  0  0  0  0  0  0  0  0  0  0
   38.7538   -7.8529   -7.4476 C   0  0  0  0  0  0  0  0  0  0  0  0
   37.4729   -8.3760   -7.5946 C   0  0  0  0  0  0  0  0  0  0  0  0
   41.1172   -7.5868  -12.5000 O   0  0  0  0  0  0  0  0  0  0  0  0
   40.6010   -6.4901  -11.8122 C   0  0  0  0  0  0  0  0  0  0  0  0
   41.5245   -6.1506  -10.6435 C   0  0  2  0  0  0  0  0  0  0  0  0
   41.3051   -7.1533   -9.5984 N   0  0  0  0  0  0  0  0  0  0  0  0
   41.1711   -4.8252  -10.0977 C   0  0  0  0  0  0  0  0  0  0  0  0
   40.2045   -4.7077   -9.3268 O   0  0  0  0  0  0  0  0  0  0  0  0
   41.9418   -3.7405  -10.4698 O   0  0  0  0  0  0  0  0  0  0  0  0
  2  1  1  6
  2  4  1  0
  2  3  1  0
  4  5  2  0
  6  7  1  0
  7  8  2  0
  7 17  1  0
  8  9  1  0
  9 10  2  0
 10 11  1  0
 12 11  1  1
 12 14  1  0
 13 12  1  0
 13  4  1  0
 14 15  2  0
 16 10  1  0
 17 16  2  0
 18 19  1  0
 20 19  1  6
 20 22  1  0
 21 20  1  0
 21 14  1  0
 22 23  2  0
 22 24  1  0
M  END
$$$$
