AYS.pdb
     RDKit          3D

 24 24  0  0  1  0  0  0  0  0999 V2000
   31.7425  -39.6727   -6.1716 C   0  0  0  0  0  0  0  0  0  0  0  0
   32.2627  -38.4066   -5.4905 C   0  0  2  0  0  0  0  0  0  0  0  0
   33.2311  -38.7152   -4.4778 N   0  0  0  0  0  0  0  0  0  0  0  0
   31.1213  -37.6660   -4.8978 C   0  0  0  0  0  0  0  0  0  0  0  0
   30.7090  -37.9730   -3.7476 O   0  0  0  0  0  0  0  0  0  0  0  0
   24.5672  -32.2545   -3.0133 O   0  0  0  0  0  0  0  0  0  0  0  0
   25.6669  -32.8196   -3.6525 C   0  0  0  0  0  0  0  0  0  0  0  0
   26.7564  -33.1932   -2.8867 C   0  0  0  0  0  0  0  0  0  0  0  0
   27.8814  -33.7636   -3.4826 C   0  0  0  0  0  0  0  0  0  0  0  0
   27.9186  -33.9613   -4.8457 C   0  0  0  0  0  0  0  0  0  0  0  0
   29.1236  -34.5721   -5.4823 C   0  0  0  0  0  0  0  0  0  0  0  0
   29.3296  -35.9918   -5.0044 C   0  0  2  0  0  0  0  0  0  0  0  0
   30.4778  -36.6119   -5.6012 N   0  0  0  0  0  0  0  0  0  0  0  0
   28.0928  -36.7550   -5.2813 C   0  0  0  0  0  0  0  0  0  0  0  0
   27.8257  -37.1230   -6.4657 O   0  0  0  0  0  0  0  0  0  0  0  0
   26.8263  -33.5838   -5.5907 C   0  0  0  0  0  0  0  0  0  0  0  0
   25.6978  -33.0138   -5.0096 C   0  0  0  0  0  0  0  0  0  0  0  0
   26.6593  -40.0060   -4.0266 O   0  0  0  0  0  0  0  0  0  0  0  0
   25.9006  -38.9650   -3.4947 C   0  0  0  0  0  0  0  0  0  0  0  0
   25.9490  -37.7712   -4.4469 C   0  0  2  0  0  0  0  0  0  0  0  0
   27.2137  -37.0694   -4.2151 N   0  0  0  0  0  0  0  0  0  0  0  0
   24.8406  -36.8451   -4.1419 C   0  0  0  0  0  0  0  0  0  0  0  0
   24.6642  -36.4479   -2.9786 O   0  0  0  0  0  0  0  0  0  0  0  0
   24.0219  -36.4441   -5.1803 O   0  0  0  0  0  0  0  0  0  0  0  0
  2  1  1  1
  2  4  1  0
  2  3  1  0
  4  5  2  0
  6  7  1  0
  7  8  2  0
  7 17  1  0
  8  9  1  0
  9 10  2  0
 10 11  1  0
 12 11  1  6
 12 14  1  0
 13 12  1  0
 13  4  1  0
 14 15  2  0
 16 10  1  0
 17 16  2  0
 18 19  1  0
 20 19  1  1
 20 22  1  0
 21 20  1  0
 21 14  1  0
 22 23  2  0
 22 24  1  0
M  END
$$$$
