AYS.pdb
     RDKit          3D

 24 24  0  0  1  0  0  0  0  0999 V2000
   19.7561  -11.5114  -15.0793 C   0  0  0  0  0  0  0  0  0  0  0  0
   19.8010  -11.2289  -16.5813 C   0  0  2  0  0  0  0  0  0  0  0  0
   20.9045  -11.8978  -17.2086 N   0  0  0  0  0  0  0  0  0  0  0  0
   19.8990   -9.7644  -16.8007 C   0  0  0  0  0  0  0  0  0  0  0  0
   21.0286   -9.2346  -16.9752 O   0  0  0  0  0  0  0  0  0  0  0  0
   18.6183   -1.5257  -19.1745 O   0  0  0  0  0  0  0  0  0  0  0  0
   18.3946   -2.8468  -18.7977 C   0  0  0  0  0  0  0  0  0  0  0  0
   17.7461   -3.0918  -17.6007 C   0  0  0  0  0  0  0  0  0  0  0  0
   17.4996   -4.3991  -17.1811 C   0  0  0  0  0  0  0  0  0  0  0  0
   17.9013   -5.4639  -17.9580 C   0  0  0  0  0  0  0  0  0  0  0  0
   17.6366   -6.8629  -17.5075 C   0  0  0  0  0  0  0  0  0  0  0  0
   18.9082   -7.5311  -17.0352 C   0  0  2  0  0  0  0  0  0  0  0  0
   18.7415   -8.9398  -16.8187 N   0  0  0  0  0  0  0  0  0  0  0  0
   19.3624   -6.8414  -15.8077 C   0  0  0  0  0  0  0  0  0  0  0  0
   18.8801   -7.1679  -14.6806 O   0  0  0  0  0  0  0  0  0  0  0  0
   18.5445   -5.2009  -19.1446 C   0  0  0  0  0  0  0  0  0  0  0  0
   18.7969   -3.9022  -19.5753 C   0  0  0  0  0  0  0  0  0  0  0  0
   22.8130   -5.3262  -13.2820 O   0  0  0  0  0  0  0  0  0  0  0  0
   22.1697   -5.9717  -14.3364 C   0  0  0  0  0  0  0  0  0  0  0  0
   20.9102   -5.1915  -14.7091 C   0  0  2  0  0  0  0  0  0  0  0  0
   20.3373   -5.8172  -15.9032 N   0  0  0  0  0  0  0  0  0  0  0  0
   21.2669   -3.7977  -15.0401 C   0  0  0  0  0  0  0  0  0  0  0  0
   21.8473   -3.5411  -16.1076 O   0  0  0  0  0  0  0  0  0  0  0  0
   20.9369   -2.8078  -14.1344 O   0  0  0  0  0  0  0  0  0  0  0  0
  2  1  1  1
  2  4  1  0
  2  3  1  0
  4  5  2  0
  6  7  1  0
  7  8  2  0
  7 17  1  0
  8  9  1  0
  9 10  2  0
 10 11  1  0
 12 11  1  1
 12 14  1  0
 13 12  1  0
 13  4  1  0
 14 15  2  0
 16 10  1  0
 17 16  2  0
 18 19  1  0
 20 19  1  6
 20 22  1  0
 21 20  1  0
 21 14  1  0
 22 23  2  0
 22 24  1  0
M  END
$$$$
