AYS.pdb
     RDKit          3D

 24 24  0  0  1  0  0  0  0  0999 V2000
   28.2202  -20.3933  -19.1348 C   0  0  0  0  0  0  0  0  0  0  0  0
   28.9184  -21.1475  -18.0027 C   0  0  2  0  0  0  0  0  0  0  0  0
   29.3963  -22.4274  -18.4411 N   0  0  0  0  0  0  0  0  0  0  0  0
   27.9732  -21.3148  -16.8709 C   0  0  0  0  0  0  0  0  0  0  0  0
   27.1532  -22.2712  -16.8798 O   0  0  0  0  0  0  0  0  0  0  0  0
   23.6779  -21.0334   -9.3017 O   0  0  0  0  0  0  0  0  0  0  0  0
   24.6143  -20.7849  -10.3010 C   0  0  0  0  0  0  0  0  0  0  0  0
   24.3141  -19.8429  -11.2684 C   0  0  0  0  0  0  0  0  0  0  0  0
   25.2212  -19.5598  -12.2897 C   0  0  0  0  0  0  0  0  0  0  0  0
   26.4303  -20.2184  -12.3453 C   0  0  0  0  0  0  0  0  0  0  0  0
   27.4003  -19.9142  -13.4393 C   0  0  0  0  0  0  0  0  0  0  0  0
   27.0178  -20.6255  -14.7176 C   0  0  2  0  0  0  0  0  0  0  0  0
   27.9708  -20.4161  -15.7698 N   0  0  0  0  0  0  0  0  0  0  0  0
   25.6651  -20.1724  -15.1097 C   0  0  0  0  0  0  0  0  0  0  0  0
   25.5007  -19.0134  -15.5988 O   0  0  0  0  0  0  0  0  0  0  0  0
   26.7112  -21.1514  -11.3750 C   0  0  0  0  0  0  0  0  0  0  0  0
   25.8159  -21.4437  -10.3508 C   0  0  0  0  0  0  0  0  0  0  0  0
   21.4633  -21.1526  -16.8465 O   0  0  0  0  0  0  0  0  0  0  0  0
   22.7636  -21.4988  -16.4837 C   0  0  0  0  0  0  0  0  0  0  0  0
   23.2009  -20.6369  -15.3004 C   0  0  2  0  0  0  0  0  0  0  0  0
   24.5601  -21.0422  -14.9342 N   0  0  0  0  0  0  0  0  0  0  0  0
   22.3143  -20.8873  -14.1469 C   0  0  0  0  0  0  0  0  0  0  0  0
   22.5603  -21.8197  -13.3643 O   0  0  0  0  0  0  0  0  0  0  0  0
   21.2208  -20.0606  -13.9738 O   0  0  0  0  0  0  0  0  0  0  0  0
  2  1  1  6
  2  4  1  0
  2  3  1  0
  4  5  2  0
  6  7  1  0
  7  8  2  0
  7 17  1  0
  8  9  1  0
  9 10  2  0
 10 11  1  0
 12 11  1  1
 12 14  1  0
 13 12  1  0
 13  4  1  0
 14 15  2  0
 16 10  1  0
 17 16  2  0
 18 19  1  0
 20 19  1  6
 20 22  1  0
 21 20  1  0
 21 14  1  0
 22 23  2  0
 22 24  1  0
M  END
$$$$
