AYS.pdb
     RDKit          3D

 24 24  0  0  1  0  0  0  0  0999 V2000
   22.3479  -13.4733  -16.7972 C   0  0  0  0  0  0  0  0  0  0  0  0
   21.5615  -12.3209  -17.4230 C   0  0  2  0  0  0  0  0  0  0  0  0
   21.8688  -12.1713  -18.8165 N   0  0  0  0  0  0  0  0  0  0  0  0
   21.8697  -11.0657  -16.6937 C   0  0  0  0  0  0  0  0  0  0  0  0
   21.6710  -11.0019  -15.4513 O   0  0  0  0  0  0  0  0  0  0  0  0
   28.1178  -11.9841  -15.9152 O   0  0  0  0  0  0  0  0  0  0  0  0
   27.1175  -11.0575  -16.1947 C   0  0  0  0  0  0  0  0  0  0  0  0
   26.5832  -10.3263  -15.1492 C   0  0  0  0  0  0  0  0  0  0  0  0
   25.5789   -9.3862  -15.3803 C   0  0  0  0  0  0  0  0  0  0  0  0
   25.1070   -9.1757  -16.6577 C   0  0  0  0  0  0  0  0  0  0  0  0
   24.0317   -8.1689  -16.9036 C   0  0  0  0  0  0  0  0  0  0  0  0
   22.6675   -8.7464  -16.6007 C   0  0  2  0  0  0  0  0  0  0  0  0
   22.3871   -9.9263  -17.3676 N   0  0  0  0  0  0  0  0  0  0  0  0
   21.6579   -7.6909  -16.8363 C   0  0  0  0  0  0  0  0  0  0  0  0
   21.2361   -7.4669  -18.0117 O   0  0  0  0  0  0  0  0  0  0  0  0
   25.6500   -9.9119  -17.6843 C   0  0  0  0  0  0  0  0  0  0  0  0
   26.6521  -10.8527  -17.4682 C   0  0  0  0  0  0  0  0  0  0  0  0
   18.4641   -4.7743  -14.6203 O   0  0  0  0  0  0  0  0  0  0  0  0
   19.5786   -5.6030  -14.5041 C   0  0  0  0  0  0  0  0  0  0  0  0
   20.0743   -5.9760  -15.9003 C   0  0  2  0  0  0  0  0  0  0  0  0
   21.1690   -6.9363  -15.7409 N   0  0  0  0  0  0  0  0  0  0  0  0
   20.6034   -4.7762  -16.5784 C   0  0  0  0  0  0  0  0  0  0  0  0
   21.7625   -4.3931  -16.3501 O   0  0  0  0  0  0  0  0  0  0  0  0
   19.7759   -4.1078  -17.4602 O   0  0  0  0  0  0  0  0  0  0  0  0
  2  1  1  1
  2  4  1  0
  2  3  1  0
  4  5  2  0
  6  7  1  0
  7  8  2  0
  7 17  1  0
  8  9  1  0
  9 10  2  0
 10 11  1  0
 12 11  1  6
 12 14  1  0
 13 12  1  0
 13  4  1  0
 14 15  2  0
 16 10  1  0
 17 16  2  0
 18 19  1  0
 20 19  1  1
 20 22  1  0
 21 20  1  0
 21 14  1  0
 22 23  2  0
 22 24  1  0
M  END
$$$$
