AYS.pdb
     RDKit          3D

 24 24  0  0  1  0  0  0  0  0999 V2000
   20.1126   -4.7309  -20.5402 C   0  0  0  0  0  0  0  0  0  0  0  0
   21.0946   -3.9185  -19.6955 C   0  0  2  0  0  0  0  0  0  0  0  0
   22.2196   -3.4827  -20.4721 N   0  0  0  0  0  0  0  0  0  0  0  0
   21.5527   -4.7432  -18.5498 C   0  0  0  0  0  0  0  0  0  0  0  0
   22.3333   -5.7112  -18.7514 O   0  0  0  0  0  0  0  0  0  0  0  0
   26.9869   -1.8895  -17.2551 O   0  0  0  0  0  0  0  0  0  0  0  0
   25.8750   -2.5376  -16.7249 C   0  0  0  0  0  0  0  0  0  0  0  0
   24.6965   -1.8259  -16.5918 C   0  0  0  0  0  0  0  0  0  0  0  0
   23.5559   -2.4328  -16.0658 C   0  0  0  0  0  0  0  0  0  0  0  0
   23.5921   -3.7527  -15.6719 C   0  0  0  0  0  0  0  0  0  0  0  0
   22.3701   -4.4011  -15.1089 C   0  0  0  0  0  0  0  0  0  0  0  0
   21.6759   -5.2486  -16.1511 C   0  0  2  0  0  0  0  0  0  0  0  0
   21.1292   -4.4652  -17.2218 N   0  0  0  0  0  0  0  0  0  0  0  0
   20.6321   -6.0485  -15.4734 C   0  0  0  0  0  0  0  0  0  0  0  0
   19.5685   -5.4897  -15.0659 O   0  0  0  0  0  0  0  0  0  0  0  0
   24.7724   -4.4442  -15.8118 C   0  0  0  0  0  0  0  0  0  0  0  0
   25.9175   -3.8515  -16.3348 C   0  0  0  0  0  0  0  0  0  0  0  0
   19.2521  -10.5838  -14.3496 O   0  0  0  0  0  0  0  0  0  0  0  0
   20.2179   -9.7440  -14.9010 C   0  0  0  0  0  0  0  0  0  0  0  0
   19.7891   -8.2905  -14.7068 C   0  0  2  0  0  0  0  0  0  0  0  0
   20.8313   -7.4390  -15.2851 N   0  0  0  0  0  0  0  0  0  0  0  0
   19.6889   -7.9888  -13.2652 C   0  0  0  0  0  0  0  0  0  0  0  0
   20.7043   -7.6719  -12.6241 O   0  0  0  0  0  0  0  0  0  0  0  0
   18.4461   -8.0707  -12.6670 O   0  0  0  0  0  0  0  0  0  0  0  0
  2  1  1  6
  2  4  1  0
  2  3  1  0
  4  5  2  0
  6  7  1  0
  7  8  2  0
  7 17  1  0
  8  9  1  0
  9 10  2  0
 10 11  1  0
 12 11  1  1
 12 14  1  0
 13 12  1  0
 13  4  1  0
 14 15  2  0
 16 10  1  0
 17 16  2  0
 18 19  1  0
 20 19  1  1
 20 22  1  0
 21 20  1  0
 21 14  1  0
 22 23  2  0
 22 24  1  0
M  END
$$$$
