AYS.pdb
     RDKit          3D

 24 24  0  0  1  0  0  0  0  0999 V2000
   46.1315  -11.2578   -7.1891 C   0  0  0  0  0  0  0  0  0  0  0  0
   44.9301  -12.1786   -6.9736 C   0  0  2  0  0  0  0  0  0  0  0  0
   45.0359  -13.3728   -7.7620 N   0  0  0  0  0  0  0  0  0  0  0  0
   43.6855  -11.4472   -7.3176 C   0  0  0  0  0  0  0  0  0  0  0  0
   43.2284  -11.5118   -8.4898 O   0  0  0  0  0  0  0  0  0  0  0  0
   35.8951   -7.6032   -7.2530 O   0  0  0  0  0  0  0  0  0  0  0  0
   37.1153   -8.1298   -6.8394 C   0  0  0  0  0  0  0  0  0  0  0  0
   38.1621   -7.2592   -6.5956 C   0  0  0  0  0  0  0  0  0  0  0  0
   39.4036   -7.7401   -6.1793 C   0  0  0  0  0  0  0  0  0  0  0  0
   39.6003   -9.0929   -6.0061 C   0  0  0  0  0  0  0  0  0  0  0  0
   40.9300   -9.6063   -5.5604 C   0  0  0  0  0  0  0  0  0  0  0  0
   41.7810  -10.0092   -6.7435 C   0  0  2  0  0  0  0  0  0  0  0  0
   42.9921  -10.6706   -6.3500 N   0  0  0  0  0  0  0  0  0  0  0  0
   42.0580   -8.7973   -7.5456 C   0  0  0  0  0  0  0  0  0  0  0  0
   43.0088   -8.0234   -7.2189 O   0  0  0  0  0  0  0  0  0  0  0  0
   38.5482   -9.9430   -6.2532 C   0  0  0  0  0  0  0  0  0  0  0  0
   37.3047   -9.4772   -6.6688 C   0  0  0  0  0  0  0  0  0  0  0  0
   41.3710   -6.6916  -11.8293 O   0  0  0  0  0  0  0  0  0  0  0  0
   41.1103   -7.7553  -10.9674 C   0  0  0  0  0  0  0  0  0  0  0  0
   41.5424   -7.3726   -9.5528 C   0  0  2  0  0  0  0  0  0  0  0  0
   41.2544   -8.5111   -8.6773 N   0  0  0  0  0  0  0  0  0  0  0  0
   40.7529   -6.2157   -9.0863 C   0  0  0  0  0  0  0  0  0  0  0  0
   39.6369   -6.3917   -8.5708 O   0  0  0  0  0  0  0  0  0  0  0  0
   41.2923   -4.9532   -9.2418 O   0  0  0  0  0  0  0  0  0  0  0  0
  2  1  1  6
  2  4  1  0
  2  3  1  0
  4  5  2  0
  6  7  1  0
  7  8  2  0
  7 17  1  0
  8  9  1  0
  9 10  2  0
 10 11  1  0
 12 11  1  1
 12 14  1  0
 13 12  1  0
 13  4  1  0
 14 15  2  0
 16 10  1  0
 17 16  2  0
 18 19  1  0
 20 19  1  6
 20 22  1  0
 21 20  1  0
 21 14  1  0
 22 23  2  0
 22 24  1  0
M  END
$$$$
