AYS.pdb
     RDKit          3D

 24 24  0  0  1  0  0  0  0  0999 V2000
   26.4282  -27.8349  -20.3686 C   0  0  0  0  0  0  0  0  0  0  0  0
   25.8204  -27.6850  -18.9737 C   0  0  2  0  0  0  0  0  0  0  0  0
   26.1468  -26.4144  -18.3925 N   0  0  0  0  0  0  0  0  0  0  0  0
   26.3100  -28.7850  -18.1061 C   0  0  0  0  0  0  0  0  0  0  0  0
   27.3901  -28.6456  -17.4727 O   0  0  0  0  0  0  0  0  0  0  0  0
   26.7848  -35.4457  -12.5438 O   0  0  0  0  0  0  0  0  0  0  0  0
   26.3551  -34.6331  -13.5889 C   0  0  0  0  0  0  0  0  0  0  0  0
   25.9474  -33.3437  -13.2987 C   0  0  0  0  0  0  0  0  0  0  0  0
   25.5085  -32.4924  -14.3129 C   0  0  0  0  0  0  0  0  0  0  0  0
   25.4767  -32.9293  -15.6194 C   0  0  0  0  0  0  0  0  0  0  0  0
   25.0066  -32.0167  -16.7041 C   0  0  0  0  0  0  0  0  0  0  0  0
   26.0542  -30.9765  -17.0307 C   0  0  2  0  0  0  0  0  0  0  0  0
   25.5851  -30.0001  -17.9718 N   0  0  0  0  0  0  0  0  0  0  0  0
   27.2593  -31.6765  -17.5271 C   0  0  0  0  0  0  0  0  0  0  0  0
   27.3696  -31.9540  -18.7602 O   0  0  0  0  0  0  0  0  0  0  0  0
   25.8858  -34.2142  -15.8887 C   0  0  0  0  0  0  0  0  0  0  0  0
   26.3258  -35.0739  -14.8871 C   0  0  0  0  0  0  0  0  0  0  0  0
   31.7059  -33.2355  -16.2920 O   0  0  0  0  0  0  0  0  0  0  0  0
   30.4974  -32.6716  -15.8871 C   0  0  0  0  0  0  0  0  0  0  0  0
   29.5295  -32.6568  -17.0690 C   0  0  2  0  0  0  0  0  0  0  0  0
   28.2845  -32.0321  -16.6156 N   0  0  0  0  0  0  0  0  0  0  0  0
   29.2303  -34.0411  -17.4856 C   0  0  0  0  0  0  0  0  0  0  0  0
   28.3271  -34.6791  -16.9205 O   0  0  0  0  0  0  0  0  0  0  0  0
   29.9790  -34.5900  -18.5089 O   0  0  0  0  0  0  0  0  0  0  0  0
  2  1  1  6
  2  4  1  0
  2  3  1  0
  4  5  2  0
  6  7  1  0
  7  8  2  0
  7 17  1  0
  8  9  1  0
  9 10  2  0
 10 11  1  0
 12 11  1  6
 12 14  1  0
 13 12  1  0
 13  4  1  0
 14 15  2  0
 16 10  1  0
 17 16  2  0
 18 19  1  0
 20 19  1  1
 20 22  1  0
 21 20  1  0
 21 14  1  0
 22 23  2  0
 22 24  1  0
M  END
$$$$
