AYS.pdb
     RDKit          3D

 24 24  0  0  1  0  0  0  0  0999 V2000
   24.8849  -12.4635  -20.3402 C   0  0  0  0  0  0  0  0  0  0  0  0
   25.3538  -11.9928  -18.9631 C   0  0  2  0  0  0  0  0  0  0  0  0
   26.7640  -12.1946  -18.7914 N   0  0  0  0  0  0  0  0  0  0  0  0
   24.6010  -12.7240  -17.9139 C   0  0  0  0  0  0  0  0  0  0  0  0
   24.8525  -13.9397  -17.6992 O   0  0  0  0  0  0  0  0  0  0  0  0
   21.7646   -6.8421  -14.3334 O   0  0  0  0  0  0  0  0  0  0  0  0
   22.0724   -8.1970  -14.4159 C   0  0  0  0  0  0  0  0  0  0  0  0
   23.2585   -8.5694  -15.0221 C   0  0  0  0  0  0  0  0  0  0  0  0
   23.6099   -9.9152  -15.1282 C   0  0  0  0  0  0  0  0  0  0  0  0
   22.7754  -10.8911  -14.6282 C   0  0  0  0  0  0  0  0  0  0  0  0
   23.1530  -12.3315  -14.7425 C   0  0  0  0  0  0  0  0  0  0  0  0
   22.9069  -12.8480  -16.1422 C   0  0  2  0  0  0  0  0  0  0  0  0
   23.5965  -12.0817  -17.1403 N   0  0  0  0  0  0  0  0  0  0  0  0
   21.4464  -12.8610  -16.3781 C   0  0  0  0  0  0  0  0  0  0  0  0
   20.9026  -11.9282  -17.0442 O   0  0  0  0  0  0  0  0  0  0  0  0
   21.6006  -10.5019  -14.0290 C   0  0  0  0  0  0  0  0  0  0  0  0
   21.2376   -9.1634  -13.9163 C   0  0  0  0  0  0  0  0  0  0  0  0
   19.3762  -16.2155  -15.2527 O   0  0  0  0  0  0  0  0  0  0  0  0
   18.8438  -15.4488  -16.2875 C   0  0  0  0  0  0  0  0  0  0  0  0
   19.2171  -13.9834  -16.0698 C   0  0  2  0  0  0  0  0  0  0  0  0
   20.6648  -13.9212  -15.8552 N   0  0  0  0  0  0  0  0  0  0  0  0
   18.5451  -13.4725  -14.8588 C   0  0  0  0  0  0  0  0  0  0  0  0
   19.2105  -13.2018  -13.8457 O   0  0  0  0  0  0  0  0  0  0  0  0
   17.1734  -13.3099  -14.8941 O   0  0  0  0  0  0  0  0  0  0  0  0
  2  1  1  6
  2  4  1  0
  2  3  1  0
  4  5  2  0
  6  7  1  0
  7  8  2  0
  7 17  1  0
  8  9  1  0
  9 10  2  0
 10 11  1  0
 12 11  1  1
 12 14  1  0
 13 12  1  0
 13  4  1  0
 14 15  2  0
 16 10  1  0
 17 16  2  0
 18 19  1  0
 20 19  1  1
 20 22  1  0
 21 20  1  0
 21 14  1  0
 22 23  2  0
 22 24  1  0
M  END
$$$$
