AYS.pdb
     RDKit          3D

 24 24  0  0  1  0  0  0  0  0999 V2000
   21.1126  -11.6931  -19.0707 C   0  0  0  0  0  0  0  0  0  0  0  0
   22.1651  -11.7567  -17.9635 C   0  0  2  0  0  0  0  0  0  0  0  0
   22.0417  -12.9591  -17.1903 N   0  0  0  0  0  0  0  0  0  0  0  0
   22.0245  -10.5679  -17.0863 C   0  0  0  0  0  0  0  0  0  0  0  0
   20.9582  -10.3941  -16.4383 O   0  0  0  0  0  0  0  0  0  0  0  0
   28.7052  -10.8804  -16.8978 O   0  0  0  0  0  0  0  0  0  0  0  0
   27.5454  -10.2587  -16.4442 C   0  0  0  0  0  0  0  0  0  0  0  0
   27.1329   -9.0945  -17.0669 C   0  0  0  0  0  0  0  0  0  0  0  0
   25.9771   -8.4358  -16.6473 C   0  0  0  0  0  0  0  0  0  0  0  0
   25.2316   -8.9404  -15.6041 C   0  0  0  0  0  0  0  0  0  0  0  0
   23.9943   -8.2341  -15.1560 C   0  0  0  0  0  0  0  0  0  0  0  0
   22.8549   -8.4692  -16.1218 C   0  0  2  0  0  0  0  0  0  0  0  0
   23.0709   -9.6145  -16.9589 N   0  0  0  0  0  0  0  0  0  0  0  0
   22.6669   -7.2382  -16.9207 C   0  0  0  0  0  0  0  0  0  0  0  0
   23.4108   -7.0122  -17.9232 O   0  0  0  0  0  0  0  0  0  0  0  0
   25.6571  -10.0987  -14.9973 C   0  0  0  0  0  0  0  0  0  0  0  0
   26.8079  -10.7660  -15.4054 C   0  0  0  0  0  0  0  0  0  0  0  0
   20.0524   -4.6138  -19.3471 O   0  0  0  0  0  0  0  0  0  0  0  0
   20.4584   -5.6905  -18.5608 C   0  0  0  0  0  0  0  0  0  0  0  0
   21.3150   -5.1739  -17.4061 C   0  0  2  0  0  0  0  0  0  0  0  0
   21.6520   -6.3186  -16.5564 N   0  0  0  0  0  0  0  0  0  0  0  0
   20.5383   -4.2102  -16.6015 C   0  0  0  0  0  0  0  0  0  0  0  0
   19.9182   -4.5960  -15.5971 O   0  0  0  0  0  0  0  0  0  0  0  0
   20.5274   -2.8874  -17.0005 O   0  0  0  0  0  0  0  0  0  0  0  0
  2  1  1  6
  2  4  1  0
  2  3  1  0
  4  5  2  0
  6  7  1  0
  7  8  2  0
  7 17  1  0
  8  9  1  0
  9 10  2  0
 10 11  1  0
 12 11  1  1
 12 14  1  0
 13 12  1  0
 13  4  1  0
 14 15  2  0
 16 10  1  0
 17 16  2  0
 18 19  1  0
 20 19  1  6
 20 22  1  0
 21 20  1  0
 21 14  1  0
 22 23  2  0
 22 24  1  0
M  END
$$$$
