MAA.pdb
     RDKit          3D

 19 18  0  0  1  0  0  0  0  0999 V2000
   12.7305   -7.5189  -18.0031 C   0  0  0  0  0  0  0  0  0  0  0  0
   14.3633   -7.0391  -17.4966 S   0  0  0  0  0  0  0  0  0  0  0  0
   15.6711   -7.9516  -18.2670 C   0  0  0  0  0  0  0  0  0  0  0  0
   17.0063   -7.6611  -17.7055 C   0  0  0  0  0  0  0  0  0  0  0  0
   18.1331   -8.3188  -18.4192 C   0  0  2  0  0  0  0  0  0  0  0  0
   18.0773   -9.7730  -18.0718 N   0  0  0  0  0  0  0  0  0  0  0  0
   19.4223   -7.7830  -17.8474 C   0  0  0  0  0  0  0  0  0  0  0  0
   20.0327   -8.3083  -16.8905 O   0  0  0  0  0  0  0  0  0  0  0  0
   21.9162   -5.1060  -18.7634 C   0  0  0  0  0  0  0  0  0  0  0  0
   21.2796   -6.1140  -17.7993 C   0  0  2  0  0  0  0  0  0  0  0  0
   20.0218   -6.6163  -18.3897 N   0  0  0  0  0  0  0  0  0  0  0  0
   20.9346   -5.3574  -16.5757 C   0  0  0  0  0  0  0  0  0  0  0  0
   19.8691   -4.7012  -16.5022 O   0  0  0  0  0  0  0  0  0  0  0  0
   22.0384   -5.3201  -13.1060 C   0  0  0  0  0  0  0  0  0  0  0  0
   21.5006   -4.5559  -14.3075 C   0  0  2  0  0  0  0  0  0  0  0  0
   21.8105   -5.3653  -15.4643 N   0  0  0  0  0  0  0  0  0  0  0  0
   22.1380   -3.2224  -14.4028 C   0  0  0  0  0  0  0  0  0  0  0  0
   21.7631   -2.2012  -13.5627 O   0  0  0  0  0  0  0  0  0  0  0  0
   23.0282   -3.0548  -15.2716 O   0  0  0  0  0  0  0  0  0  0  0  0
  2  1  1  0
  3  2  1  0
  4  5  1  0
  4  3  1  0
  5  6  1  1
  7  5  1  0
  7 11  1  0
  8  7  2  0
 10 12  1  0
 10  9  1  6
 10 11  1  0
 12 16  1  0
 13 12  2  0
 15 14  1  1
 16 15  1  0
 17 18  1  0
 17 15  1  0
 19 17  2  0
M  END
$$$$
