MAA.pdb
     RDKit          3D

 19 18  0  0  1  0  0  0  0  0999 V2000
   25.4369  -21.6432   -7.6799 C   0  0  0  0  0  0  0  0  0  0  0  0
   24.2995  -20.8675   -8.8013 S   0  0  0  0  0  0  0  0  0  0  0  0
   25.0365  -19.6900   -9.8999 C   0  0  0  0  0  0  0  0  0  0  0  0
   25.9230  -20.2993  -10.9126 C   0  0  0  0  0  0  0  0  0  0  0  0
   25.2431  -21.2380  -11.8443 C   0  0  2  0  0  0  0  0  0  0  0  0
   25.9129  -22.5667  -11.6873 N   0  0  0  0  0  0  0  0  0  0  0  0
   25.5175  -20.7752  -13.2537 C   0  0  0  0  0  0  0  0  0  0  0  0
   26.6621  -20.6955  -13.7516 O   0  0  0  0  0  0  0  0  0  0  0  0
   23.4525  -19.9113  -16.2951 C   0  0  0  0  0  0  0  0  0  0  0  0
   24.7542  -19.9554  -15.4859 C   0  0  2  0  0  0  0  0  0  0  0  0
   24.4500  -20.3956  -14.1088 N   0  0  0  0  0  0  0  0  0  0  0  0
   25.2475  -18.5623  -15.4170 C   0  0  0  0  0  0  0  0  0  0  0  0
   25.4787  -18.0139  -14.3138 O   0  0  0  0  0  0  0  0  0  0  0  0
   27.6456  -17.0167  -16.1466 C   0  0  0  0  0  0  0  0  0  0  0  0
   26.2383  -16.6050  -16.5549 C   0  0  2  0  0  0  0  0  0  0  0  0
   25.4662  -17.8260  -16.6055 N   0  0  0  0  0  0  0  0  0  0  0  0
   26.2563  -15.9298  -17.8731 C   0  0  0  0  0  0  0  0  0  0  0  0
   26.0117  -16.6338  -19.0280 O   0  0  0  0  0  0  0  0  0  0  0  0
   26.5011  -14.6992  -17.9023 O   0  0  0  0  0  0  0  0  0  0  0  0
  2  1  1  0
  3  2  1  0
  4  5  1  0
  4  3  1  0
  5  6  1  6
  7  5  1  0
  7 11  1  0
  8  7  2  0
 10 12  1  0
 10  9  1  6
 10 11  1  0
 12 16  1  0
 13 12  2  0
 15 14  1  6
 16 15  1  0
 17 18  1  0
 17 15  1  0
 19 17  2  0
M  END
$$$$
