MAA.pdb
     RDKit          3D

 19 18  0  0  1  0  0  0  0  0999 V2000
   13.0095   -9.2866  -12.5582 C   0  0  0  0  0  0  0  0  0  0  0  0
   12.9827   -8.9116  -14.2935 S   0  0  0  0  0  0  0  0  0  0  0  0
   14.1202   -9.8560  -15.2685 C   0  0  0  0  0  0  0  0  0  0  0  0
   15.5379   -9.5610  -14.9756 C   0  0  0  0  0  0  0  0  0  0  0  0
   16.5112  -10.3927  -15.7323 C   0  0  2  0  0  0  0  0  0  0  0  0
   16.5607  -11.7264  -15.0560 N   0  0  0  0  0  0  0  0  0  0  0  0
   17.8768   -9.7719  -15.5728 C   0  0  0  0  0  0  0  0  0  0  0  0
   18.6594  -10.0390  -14.6344 O   0  0  0  0  0  0  0  0  0  0  0  0
   20.1702   -7.7198  -17.7346 C   0  0  0  0  0  0  0  0  0  0  0  0
   19.7349   -8.3177  -16.3914 C   0  0  2  0  0  0  0  0  0  0  0  0
   18.3519   -8.8223  -16.5148 N   0  0  0  0  0  0  0  0  0  0  0  0
   19.7238   -7.1991  -15.4232 C   0  0  0  0  0  0  0  0  0  0  0  0
   18.6855   -6.5239  -15.2299 O   0  0  0  0  0  0  0  0  0  0  0  0
   22.0987   -5.9554  -12.8756 C   0  0  0  0  0  0  0  0  0  0  0  0
   20.8678   -5.7807  -13.7538 C   0  0  2  0  0  0  0  0  0  0  0  0
   20.8947   -6.8752  -14.6976 N   0  0  0  0  0  0  0  0  0  0  0  0
   20.9076   -4.4742  -14.4503 C   0  0  0  0  0  0  0  0  0  0  0  0
   20.4940   -3.3262  -13.8176 O   0  0  0  0  0  0  0  0  0  0  0  0
   21.3294   -4.4483  -15.6321 O   0  0  0  0  0  0  0  0  0  0  0  0
  2  1  1  0
  3  2  1  0
  4  5  1  0
  4  3  1  0
  5  6  1  1
  7  5  1  0
  7 11  1  0
  8  7  2  0
 10 12  1  0
 10  9  1  6
 10 11  1  0
 12 16  1  0
 13 12  2  0
 15 14  1  1
 16 15  1  0
 17 18  1  0
 17 15  1  0
 19 17  2  0
M  END
$$$$
