MAA.pdb
     RDKit          3D

 19 18  0  0  1  0  0  0  0  0999 V2000
   27.7805  -12.4410  -14.9085 C   0  0  0  0  0  0  0  0  0  0  0  0
   26.7197  -13.5133  -15.8453 S   0  0  0  0  0  0  0  0  0  0  0  0
   26.3659  -12.9489  -17.4862 C   0  0  0  0  0  0  0  0  0  0  0  0
   25.2904  -11.9378  -17.5455 C   0  0  0  0  0  0  0  0  0  0  0  0
   23.9440  -12.4452  -17.1697 C   0  0  2  0  0  0  0  0  0  0  0  0
   23.5279  -13.4054  -18.2391 N   0  0  0  0  0  0  0  0  0  0  0  0
   22.9784  -11.2873  -17.2237 C   0  0  0  0  0  0  0  0  0  0  0  0
   22.7072  -10.6531  -18.2670 O   0  0  0  0  0  0  0  0  0  0  0  0
   20.1673   -9.9716  -15.2473 C   0  0  0  0  0  0  0  0  0  0  0  0
   21.3875   -9.6995  -16.1350 C   0  0  2  0  0  0  0  0  0  0  0  0
   22.3105  -10.8500  -16.0500 N   0  0  0  0  0  0  0  0  0  0  0  0
   22.0726   -8.5256  -15.5505 C   0  0  0  0  0  0  0  0  0  0  0  0
   22.9843   -8.6675  -14.7021 O   0  0  0  0  0  0  0  0  0  0  0  0
   22.0058   -4.8882  -16.2572 C   0  0  0  0  0  0  0  0  0  0  0  0
   22.4235   -6.0833  -15.4121 C   0  0  2  0  0  0  0  0  0  0  0  0
   21.7039   -7.2178  -15.9456 N   0  0  0  0  0  0  0  0  0  0  0  0
   22.0835   -5.8571  -13.9884 C   0  0  0  0  0  0  0  0  0  0  0  0
   22.9124   -5.1219  -13.1749 O   0  0  0  0  0  0  0  0  0  0  0  0
   21.0186   -6.3559  -13.5497 O   0  0  0  0  0  0  0  0  0  0  0  0
  2  1  1  0
  3  2  1  0
  4  5  1  0
  4  3  1  0
  5  6  1  6
  7  5  1  0
  7 11  1  0
  8  7  2  0
 10 12  1  0
 10  9  1  1
 10 11  1  0
 12 16  1  0
 13 12  2  0
 15 14  1  6
 16 15  1  0
 17 18  1  0
 17 15  1  0
 19 17  2  0
M  END
$$$$
