MAA.pdb
     RDKit          3D

 19 18  0  0  1  0  0  0  0  0999 V2000
   24.0517  -14.2784  -14.1581 C   0  0  0  0  0  0  0  0  0  0  0  0
   23.5922  -12.6612  -14.7293 S   0  0  0  0  0  0  0  0  0  0  0  0
   23.6387  -12.4611  -16.4884 C   0  0  0  0  0  0  0  0  0  0  0  0
   23.2693  -11.1038  -16.9398 C   0  0  0  0  0  0  0  0  0  0  0  0
   22.0791  -10.5287  -16.2584 C   0  0  2  0  0  0  0  0  0  0  0  0
   20.9105  -11.3867  -16.6279 N   0  0  0  0  0  0  0  0  0  0  0  0
   21.8208   -9.1635  -16.8462 C   0  0  0  0  0  0  0  0  0  0  0  0
   22.6349   -8.2154  -16.7927 O   0  0  0  0  0  0  0  0  0  0  0  0
   19.2075   -7.6069  -19.0742 C   0  0  0  0  0  0  0  0  0  0  0  0
   20.3906   -7.5455  -18.1007 C   0  0  2  0  0  0  0  0  0  0  0  0
   20.5979   -8.8837  -17.5102 N   0  0  0  0  0  0  0  0  0  0  0  0
   19.9858   -6.6284  -17.0126 C   0  0  0  0  0  0  0  0  0  0  0  0
   19.5415   -7.0718  -15.9276 O   0  0  0  0  0  0  0  0  0  0  0  0
   20.1223   -2.9475  -16.5425 C   0  0  0  0  0  0  0  0  0  0  0  0
   19.7018   -4.3452  -16.1107 C   0  0  2  0  0  0  0  0  0  0  0  0
   20.0963   -5.2282  -17.1850 N   0  0  0  0  0  0  0  0  0  0  0  0
   18.2392   -4.4009  -15.8837 C   0  0  0  0  0  0  0  0  0  0  0  0
   17.6934   -3.9653  -14.6999 O   0  0  0  0  0  0  0  0  0  0  0  0
   17.5165   -4.8567  -16.8031 O   0  0  0  0  0  0  0  0  0  0  0  0
  2  1  1  0
  3  2  1  0
  4  5  1  0
  4  3  1  0
  5  6  1  6
  7  5  1  0
  7 11  1  0
  8  7  2  0
 10 12  1  0
 10  9  1  6
 10 11  1  0
 12 16  1  0
 13 12  2  0
 15 14  1  6
 16 15  1  0
 17 18  1  0
 17 15  1  0
 19 17  2  0
M  END
$$$$
