MAA.pdb
     RDKit          3D

 19 18  0  0  1  0  0  0  0  0999 V2000
   26.2122  -18.8786   -7.6898 C   0  0  0  0  0  0  0  0  0  0  0  0
   25.6350  -20.5009   -8.1234 S   0  0  0  0  0  0  0  0  0  0  0  0
   26.7113  -21.4008   -9.2041 C   0  0  0  0  0  0  0  0  0  0  0  0
   26.6750  -20.9287  -10.6036 C   0  0  0  0  0  0  0  0  0  0  0  0
   25.4666  -21.3439  -11.3645 C   0  0  2  0  0  0  0  0  0  0  0  0
   25.5152  -22.8351  -11.4765 N   0  0  0  0  0  0  0  0  0  0  0  0
   25.5881  -20.7972  -12.7653 C   0  0  0  0  0  0  0  0  0  0  0  0
   26.6300  -20.8671  -13.4536 O   0  0  0  0  0  0  0  0  0  0  0  0
   23.1589  -19.9707  -15.4406 C   0  0  0  0  0  0  0  0  0  0  0  0
   24.5582  -19.8371  -14.8280 C   0  0  2  0  0  0  0  0  0  0  0  0
   24.4852  -20.1556  -13.3873 N   0  0  0  0  0  0  0  0  0  0  0  0
   24.9340  -18.4120  -14.9580 C   0  0  0  0  0  0  0  0  0  0  0  0
   24.3016  -17.5200  -14.3451 O   0  0  0  0  0  0  0  0  0  0  0  0
   27.9149  -16.6428  -16.0782 C   0  0  0  0  0  0  0  0  0  0  0  0
   26.4087  -16.6453  -15.8587 C   0  0  2  0  0  0  0  0  0  0  0  0
   26.0207  -18.0357  -15.7825 N   0  0  0  0  0  0  0  0  0  0  0  0
   25.7197  -15.9594  -16.9760 C   0  0  0  0  0  0  0  0  0  0  0  0
   25.5847  -14.5916  -16.9863 O   0  0  0  0  0  0  0  0  0  0  0  0
   25.2646  -16.6638  -17.9099 O   0  0  0  0  0  0  0  0  0  0  0  0
  2  1  1  0
  3  2  1  0
  4  5  1  0
  4  3  1  0
  5  6  1  6
  7  5  1  0
  7 11  1  0
  8  7  2  0
 10 12  1  0
 10  9  1  1
 10 11  1  0
 12 16  1  0
 13 12  2  0
 15 14  1  6
 16 15  1  0
 17 18  1  0
 17 15  1  0
 19 17  2  0
M  END
$$$$
