MAA.pdb
     RDKit          3D

 19 18  0  0  1  0  0  0  0  0999 V2000
   21.8515  -27.9915  -11.3071 C   0  0  0  0  0  0  0  0  0  0  0  0
   21.2797  -29.6654  -11.1531 S   0  0  0  0  0  0  0  0  0  0  0  0
   19.8721  -29.8684  -10.0978 C   0  0  0  0  0  0  0  0  0  0  0  0
   19.0177  -28.6662  -10.0127 C   0  0  0  0  0  0  0  0  0  0  0  0
   18.4285  -28.4209   -8.6695 C   0  0  2  0  0  0  0  0  0  0  0  0
   17.3510  -29.4406   -8.4751 N   0  0  0  0  0  0  0  0  0  0  0  0
   17.7527  -27.0724   -8.6969 C   0  0  0  0  0  0  0  0  0  0  0  0
   16.5983  -26.8793   -9.1378 O   0  0  0  0  0  0  0  0  0  0  0  0
   18.2348  -23.7660   -7.0514 C   0  0  0  0  0  0  0  0  0  0  0  0
   17.7154  -24.6227   -8.2121 C   0  0  2  0  0  0  0  0  0  0  0  0
   18.4212  -25.9206   -8.2057 N   0  0  0  0  0  0  0  0  0  0  0  0
   18.0894  -23.9103   -9.4537 C   0  0  0  0  0  0  0  0  0  0  0  0
   17.5625  -22.8125   -9.7509 O   0  0  0  0  0  0  0  0  0  0  0  0
   19.5822  -24.8204  -12.6105 C   0  0  0  0  0  0  0  0  0  0  0  0
   19.4108  -23.7556  -11.5363 C   0  0  2  0  0  0  0  0  0  0  0  0
   19.0545  -24.4643  -10.3279 N   0  0  0  0  0  0  0  0  0  0  0  0
   18.3530  -22.7936  -11.9225 C   0  0  0  0  0  0  0  0  0  0  0  0
   18.6764  -21.5578  -12.4299 O   0  0  0  0  0  0  0  0  0  0  0  0
   17.1562  -23.1409  -11.7725 O   0  0  0  0  0  0  0  0  0  0  0  0
  2  1  1  0
  3  2  1  0
  4  5  1  0
  4  3  1  0
  5  6  1  6
  7  5  1  0
  7 11  1  0
  8  7  2  0
 10 12  1  0
 10  9  1  1
 10 11  1  0
 12 16  1  0
 13 12  2  0
 15 14  1  6
 16 15  1  0
 17 18  1  0
 17 15  1  0
 19 17  2  0
M  END
$$$$
