MPL.pdb
     RDKit          3D

 24 24  0  0  1  0  0  0  0  0999 V2000
   20.9177  -18.0880  -15.3854 C   0  0  0  0  0  0  0  0  0  0  0  0
   22.2449  -16.8682  -15.4959 S   0  0  0  0  0  0  0  0  0  0  0  0
   23.8551  -17.7642  -15.5736 C   0  0  0  0  0  0  0  0  0  0  0  0
   23.8459  -18.9388  -14.6618 C   0  0  0  0  0  0  0  0  0  0  0  0
   24.7513  -20.0361  -15.1105 C   0  0  2  0  0  0  0  0  0  0  0  0
   24.0655  -20.9595  -16.0074 N   0  0  0  0  0  0  0  0  0  0  0  0
   25.4536  -20.7855  -14.0744 C   0  0  0  0  0  0  0  0  0  0  0  0
   24.9338  -21.9009  -13.7325 O   0  0  0  0  0  0  0  0  0  0  0  0
   26.6445  -20.4095  -13.4106 N   0  0  0  0  0  0  0  0  0  0  0  0
   27.4789  -19.2513  -13.4519 C   0  0  0  0  0  0  0  0  0  0  0  0
   28.8827  -19.8761  -13.4544 C   0  0  0  0  0  0  0  0  0  0  0  0
   28.7620  -21.2176  -12.8121 C   0  0  0  0  0  0  0  0  0  0  0  0
   27.3228  -21.2649  -12.4167 C   0  0  1  0  0  0  0  0  0  0  0  0
   27.0754  -20.7511  -11.0347 C   0  0  0  0  0  0  0  0  0  0  0  0
   26.9544  -19.5471  -10.7748 O   0  0  0  0  0  0  0  0  0  0  0  0
   27.7258  -18.5063   -6.4868 C   0  0  0  0  0  0  0  0  0  0  0  0
   27.3276  -19.9294   -6.7303 C   0  0  2  0  0  0  0  0  0  0  0  0
   27.7993  -20.8903   -5.6760 C   0  0  0  0  0  0  0  0  0  0  0  0
   27.4707  -20.4141   -8.1149 C   0  0  0  0  0  0  0  0  0  0  0  0
   26.5109  -21.3899   -8.6611 C   0  0  2  0  0  0  0  0  0  0  0  0
   26.9826  -21.7213  -10.0097 N   0  0  0  0  0  0  0  0  0  0  0  0
   25.1077  -21.0142   -8.7642 C   0  0  0  0  0  0  0  0  0  0  0  0
   24.2490  -21.5932   -8.0229 O   0  0  0  0  0  0  0  0  0  0  0  0
   24.5673  -20.0550   -9.6094 O   0  0  0  0  0  0  0  0  0  0  0  0
  1  2  1  0
  3  2  1  0
  4  3  1  0
  5  6  1  1
  5  4  1  0
  7  5  1  0
  8  7  2  0
  9 10  1  0
  9  7  1  0
 11 10  1  0
 12 13  1  0
 12 11  1  0
 13  9  1  0
 13 14  1  1
 14 15  2  0
 17 16  1  6
 18 17  1  0
 19 17  1  0
 20 19  1  6
 20 21  1  0
 21 14  1  0
 22 24  1  0
 22 20  1  0
 23 22  2  0
M  END
$$$$
