MPL.pdb
     RDKit          3D

 24 24  0  0  1  0  0  0  0  0999 V2000
   30.1361  -22.4766  -15.0618 C   0  0  0  0  0  0  0  0  0  0  0  0
   28.9547  -23.3515  -16.1108 S   0  0  0  0  0  0  0  0  0  0  0  0
   27.4117  -22.3465  -16.2147 C   0  0  0  0  0  0  0  0  0  0  0  0
   27.4071  -21.2839  -15.1745 C   0  0  0  0  0  0  0  0  0  0  0  0
   26.1767  -20.4412  -15.2030 C   0  0  2  0  0  0  0  0  0  0  0  0
   26.3065  -19.3408  -16.1515 N   0  0  0  0  0  0  0  0  0  0  0  0
   25.6862  -19.9355  -13.9255 C   0  0  0  0  0  0  0  0  0  0  0  0
   26.1338  -18.7971  -13.5584 O   0  0  0  0  0  0  0  0  0  0  0  0
   24.7709  -20.5696  -13.0535 N   0  0  0  0  0  0  0  0  0  0  0  0
   24.0233  -21.7848  -13.1144 C   0  0  0  0  0  0  0  0  0  0  0  0
   22.6536  -21.3374  -12.5808 C   0  0  0  0  0  0  0  0  0  0  0  0
   22.8928  -20.1446  -11.7166 C   0  0  0  0  0  0  0  0  0  0  0  0
   24.3799  -20.0113  -11.7439 C   0  0  1  0  0  0  0  0  0  0  0  0
   25.0575  -20.7564  -10.6389 C   0  0  0  0  0  0  0  0  0  0  0  0
   25.0989  -21.9922  -10.5856 O   0  0  0  0  0  0  0  0  0  0  0  0
   28.1690  -18.5737   -5.7811 C   0  0  0  0  0  0  0  0  0  0  0  0
   27.9540  -19.7633   -6.6652 C   0  0  2  0  0  0  0  0  0  0  0  0
   29.1629  -20.6415   -6.8215 C   0  0  0  0  0  0  0  0  0  0  0  0
   27.2050  -19.5176   -7.9106 C   0  0  0  0  0  0  0  0  0  0  0  0
   26.3460  -20.5717   -8.4787 C   0  0  2  0  0  0  0  0  0  0  0  0
   25.6650  -19.9719   -9.6309 N   0  0  0  0  0  0  0  0  0  0  0  0
   25.3291  -21.1819   -7.6335 C   0  0  0  0  0  0  0  0  0  0  0  0
   25.6200  -22.2198   -6.9551 O   0  0  0  0  0  0  0  0  0  0  0  0
   24.0212  -20.7481   -7.4672 O   0  0  0  0  0  0  0  0  0  0  0  0
  1  2  1  0
  3  2  1  0
  4  3  1  0
  5  6  1  6
  5  4  1  0
  7  5  1  0
  8  7  2  0
  9 10  1  0
  9  7  1  0
 11 10  1  0
 12 13  1  0
 12 11  1  0
 13  9  1  0
 13 14  1  1
 14 15  2  0
 17 16  1  6
 18 17  1  0
 19 17  1  0
 20 19  1  1
 20 21  1  0
 21 14  1  0
 22 24  1  0
 22 20  1  0
 23 22  2  0
M  END
$$$$
