MPL.pdb
     RDKit          3D

 24 24  0  0  1  0  0  0  0  0999 V2000
   26.7846  -15.9878  -14.6991 C   0  0  0  0  0  0  0  0  0  0  0  0
   28.0638  -16.6163  -15.8083 S   0  0  0  0  0  0  0  0  0  0  0  0
   28.3982  -18.3773  -15.3740 C   0  0  0  0  0  0  0  0  0  0  0  0
   27.1794  -19.0197  -14.8144 C   0  0  0  0  0  0  0  0  0  0  0  0
   27.4213  -20.4072  -14.3232 C   0  0  2  0  0  0  0  0  0  0  0  0
   27.9802  -21.2536  -15.3713 N   0  0  0  0  0  0  0  0  0  0  0  0
   26.3036  -21.0907  -13.6814 C   0  0  0  0  0  0  0  0  0  0  0  0
   25.8831  -22.1505  -14.2568 O   0  0  0  0  0  0  0  0  0  0  0  0
   25.6386  -20.7059  -12.4940 N   0  0  0  0  0  0  0  0  0  0  0  0
   25.8367  -19.6607  -11.5412 C   0  0  0  0  0  0  0  0  0  0  0  0
   25.6211  -20.4023  -10.2128 C   0  0  0  0  0  0  0  0  0  0  0  0
   24.7487  -21.5765  -10.5077 C   0  0  0  0  0  0  0  0  0  0  0  0
   24.4557  -21.4118  -11.9627 C   0  0  1  0  0  0  0  0  0  0  0  0
   23.2161  -20.6187  -12.2268 C   0  0  0  0  0  0  0  0  0  0  0  0
   23.1855  -19.3822  -12.1861 O   0  0  0  0  0  0  0  0  0  0  0  0
   20.9661  -19.3158  -15.9707 C   0  0  0  0  0  0  0  0  0  0  0  0
   21.4253  -20.7219  -15.7357 C   0  0  2  0  0  0  0  0  0  0  0  0
   21.4917  -21.5643  -16.9779 C   0  0  0  0  0  0  0  0  0  0  0  0
   20.8538  -21.4017  -14.5594 C   0  0  0  0  0  0  0  0  0  0  0  0
   20.9081  -20.7600  -13.2338 C   0  0  2  0  0  0  0  0  0  0  0  0
   22.0496  -21.3577  -12.5332 N   0  0  0  0  0  0  0  0  0  0  0  0
   19.7503  -20.8595  -12.3562 C   0  0  0  0  0  0  0  0  0  0  0  0
   19.6176  -21.8825  -11.6092 O   0  0  0  0  0  0  0  0  0  0  0  0
   18.7274  -19.9303  -12.2264 O   0  0  0  0  0  0  0  0  0  0  0  0
  1  2  1  0
  3  2  1  0
  4  3  1  0
  5  6  1  6
  5  4  1  0
  7  5  1  0
  8  7  2  0
  9 10  1  0
  9  7  1  0
 11 10  1  0
 12 13  1  0
 12 11  1  0
 13  9  1  0
 13 14  1  1
 14 15  2  0
 17 16  1  6
 18 17  1  0
 19 17  1  0
 20 19  1  6
 20 21  1  0
 21 14  1  0
 22 24  1  0
 22 20  1  0
 23 22  2  0
M  END
$$$$
