MPL.pdb
     RDKit          3D

 24 24  0  0  1  0  0  0  0  0999 V2000
   19.3508  -17.1975  -14.4936 C   0  0  0  0  0  0  0  0  0  0  0  0
   18.6749  -17.5262  -16.1358 S   0  0  0  0  0  0  0  0  0  0  0  0
   19.0606  -19.2726  -16.5860 C   0  0  0  0  0  0  0  0  0  0  0  0
   20.3036  -19.7266  -15.9078 C   0  0  0  0  0  0  0  0  0  0  0  0
   20.6724  -21.1331  -16.2402 C   0  0  2  0  0  0  0  0  0  0  0  0
   19.6314  -22.0683  -15.8291 N   0  0  0  0  0  0  0  0  0  0  0  0
   21.9720  -21.6079  -15.7777 C   0  0  0  0  0  0  0  0  0  0  0  0
   21.9644  -22.3648  -14.7490 O   0  0  0  0  0  0  0  0  0  0  0  0
   23.2351  -21.3201  -16.3453 N   0  0  0  0  0  0  0  0  0  0  0  0
   23.6671  -20.5266  -17.4513 C   0  0  0  0  0  0  0  0  0  0  0  0
   24.7201  -21.4388  -18.0994 C   0  0  0  0  0  0  0  0  0  0  0  0
   25.2321  -22.3411  -17.0267 C   0  0  0  0  0  0  0  0  0  0  0  0
   24.5033  -21.8595  -15.8157 C   0  0  1  0  0  0  0  0  0  0  0  0
   25.2448  -20.7999  -15.0656 C   0  0  0  0  0  0  0  0  0  0  0  0
   25.2111  -19.6032  -15.3793 O   0  0  0  0  0  0  0  0  0  0  0  0
   24.4349  -19.5994  -11.1924 C   0  0  0  0  0  0  0  0  0  0  0  0
   25.2631  -20.8428  -11.0880 C   0  0  2  0  0  0  0  0  0  0  0  0
   25.2359  -21.4893   -9.7321 C   0  0  0  0  0  0  0  0  0  0  0  0
   26.5940  -20.7892  -11.7191 C   0  0  0  0  0  0  0  0  0  0  0  0
   26.7402  -20.2929  -13.0990 C   0  0  2  0  0  0  0  0  0  0  0  0
   26.0061  -21.2313  -13.9543 N   0  0  0  0  0  0  0  0  0  0  0  0
   28.0780  -20.1432  -13.6546 C   0  0  0  0  0  0  0  0  0  0  0  0
   28.8444  -19.2317  -13.2030 O   0  0  0  0  0  0  0  0  0  0  0  0
   28.6471  -20.9106  -14.6614 O   0  0  0  0  0  0  0  0  0  0  0  0
  1  2  1  0
  3  2  1  0
  4  3  1  0
  5  6  1  1
  5  4  1  0
  7  5  1  0
  8  7  2  0
  9 10  1  0
  9  7  1  0
 11 10  1  0
 12 13  1  0
 12 11  1  0
 13  9  1  0
 13 14  1  6
 14 15  2  0
 17 16  1  1
 18 17  1  0
 19 17  1  0
 20 19  1  1
 20 21  1  0
 21 14  1  0
 22 24  1  0
 22 20  1  0
 23 22  2  0
M  END
$$$$
