MPL.pdb
     RDKit          3D

 24 24  0  0  1  0  0  0  0  0999 V2000
   13.3768  -22.2483   -4.8208 C   0  0  0  0  0  0  0  0  0  0  0  0
   14.5814  -23.5830   -4.6505 S   0  0  0  0  0  0  0  0  0  0  0  0
   14.0013  -24.7261   -3.3245 C   0  0  0  0  0  0  0  0  0  0  0  0
   14.1853  -24.1100   -1.9837 C   0  0  0  0  0  0  0  0  0  0  0  0
   13.5737  -24.9090   -0.8826 C   0  0  2  0  0  0  0  0  0  0  0  0
   12.1329  -25.0474   -1.0616 N   0  0  0  0  0  0  0  0  0  0  0  0
   13.8626  -24.4894    0.4845 C   0  0  0  0  0  0  0  0  0  0  0  0
   12.9609  -23.7965    1.0659 O   0  0  0  0  0  0  0  0  0  0  0  0
   15.0308  -24.7673    1.2317 N   0  0  0  0  0  0  0  0  0  0  0  0
   16.2041  -25.5430    0.9848 C   0  0  0  0  0  0  0  0  0  0  0  0
   16.4012  -26.2516    2.3340 C   0  0  0  0  0  0  0  0  0  0  0  0
   15.7506  -25.3987    3.3714 C   0  0  0  0  0  0  0  0  0  0  0  0
   15.2777  -24.2229    2.5817 C   0  0  1  0  0  0  0  0  0  0  0  0
   16.2796  -23.1150    2.5191 C   0  0  0  0  0  0  0  0  0  0  0  0
   16.9410  -22.8608    1.5044 O   0  0  0  0  0  0  0  0  0  0  0  0
   16.1144  -18.1307    2.8496 C   0  0  0  0  0  0  0  0  0  0  0  0
   14.9495  -19.0585    2.6900 C   0  0  2  0  0  0  0  0  0  0  0  0
   13.6613  -18.5336    3.2575 C   0  0  0  0  0  0  0  0  0  0  0  0
   15.2121  -20.4816    2.9698 C   0  0  0  0  0  0  0  0  0  0  0  0
   16.4384  -20.8826    3.6820 C   0  0  2  0  0  0  0  0  0  0  0  0
   16.4455  -22.3492    3.6967 N   0  0  0  0  0  0  0  0  0  0  0  0
   16.6381  -20.4266    5.0505 C   0  0  0  0  0  0  0  0  0  0  0  0
   16.1155  -21.0807    6.0104 O   0  0  0  0  0  0  0  0  0  0  0  0
   17.3650  -19.3157    5.4554 O   0  0  0  0  0  0  0  0  0  0  0  0
  1  2  1  0
  3  2  1  0
  4  3  1  0
  5  6  1  6
  5  4  1  0
  7  5  1  0
  8  7  2  0
  9 10  1  0
  9  7  1  0
 11 10  1  0
 12 13  1  0
 12 11  1  0
 13  9  1  0
 13 14  1  6
 14 15  2  0
 17 16  1  1
 18 17  1  0
 19 17  1  0
 20 19  1  1
 20 21  1  0
 21 14  1  0
 22 24  1  0
 22 20  1  0
 23 22  2  0
M  END
$$$$
