MPL.pdb
     RDKit          3D

 24 24  0  0  1  0  0  0  0  0999 V2000
   19.2057  -19.7533  -16.3676 C   0  0  0  0  0  0  0  0  0  0  0  0
   20.1811  -18.9615  -17.6651 S   0  0  0  0  0  0  0  0  0  0  0  0
   21.5608  -20.0936  -18.1302 C   0  0  0  0  0  0  0  0  0  0  0  0
   22.3357  -20.4976  -16.9271 C   0  0  0  0  0  0  0  0  0  0  0  0
   23.4604  -21.4264  -17.2391 C   0  0  2  0  0  0  0  0  0  0  0  0
   22.9705  -22.7188  -17.7047 N   0  0  0  0  0  0  0  0  0  0  0  0
   24.4669  -21.6254  -16.2019 C   0  0  0  0  0  0  0  0  0  0  0  0
   24.3306  -22.6657  -15.4737 O   0  0  0  0  0  0  0  0  0  0  0  0
   25.5736  -20.7917  -15.9181 N   0  0  0  0  0  0  0  0  0  0  0  0
   26.0950  -19.6011  -16.5097 C   0  0  0  0  0  0  0  0  0  0  0  0
   27.6052  -19.8850  -16.5069 C   0  0  0  0  0  0  0  0  0  0  0  0
   27.8608  -20.8639  -15.4100 C   0  0  0  0  0  0  0  0  0  0  0  0
   26.5081  -21.0377  -14.8019 C   0  0  1  0  0  0  0  0  0  0  0  0
   26.2402  -20.0850  -13.6813 C   0  0  0  0  0  0  0  0  0  0  0  0
   25.7618  -18.9570  -13.8553 O   0  0  0  0  0  0  0  0  0  0  0  0
   22.0428  -21.8076  -11.1541 C   0  0  0  0  0  0  0  0  0  0  0  0
   23.2222  -20.9871  -10.7310 C   0  0  2  0  0  0  0  0  0  0  0  0
   22.8650  -19.6491  -10.1487 C   0  0  0  0  0  0  0  0  0  0  0  0
   24.3659  -20.9697  -11.6607 C   0  0  0  0  0  0  0  0  0  0  0  0
   25.6481  -20.3729  -11.2466 C   0  0  2  0  0  0  0  0  0  0  0  0
   26.5640  -20.5365  -12.3805 N   0  0  0  0  0  0  0  0  0  0  0  0
   26.3158  -20.8928  -10.0614 C   0  0  0  0  0  0  0  0  0  0  0  0
   26.8774  -22.0349  -10.1102 O   0  0  0  0  0  0  0  0  0  0  0  0
   26.4222  -20.2645   -8.8284 O   0  0  0  0  0  0  0  0  0  0  0  0
  1  2  1  0
  3  2  1  0
  4  3  1  0
  5  6  1  1
  5  4  1  0
  7  5  1  0
  8  7  2  0
  9 10  1  0
  9  7  1  0
 11 10  1  0
 12 13  1  0
 12 11  1  0
 13  9  1  0
 13 14  1  1
 14 15  2  0
 17 16  1  6
 18 17  1  0
 19 17  1  0
 20 19  1  6
 20 21  1  0
 21 14  1  0
 22 24  1  0
 22 20  1  0
 23 22  2  0
M  END
$$$$
