MPL.pdb
     RDKit          3D

 24 24  0  0  1  0  0  0  0  0999 V2000
   25.0063  -13.6562  -14.8778 C   0  0  0  0  0  0  0  0  0  0  0  0
   26.7113  -14.2446  -14.9681 S   0  0  0  0  0  0  0  0  0  0  0  0
   26.7056  -15.9383  -15.6982 C   0  0  0  0  0  0  0  0  0  0  0  0
   25.8844  -16.8625  -14.8721 C   0  0  0  0  0  0  0  0  0  0  0  0
   25.7846  -18.2338  -15.4504 C   0  0  2  0  0  0  0  0  0  0  0  0
   24.7367  -18.3105  -16.4620 N   0  0  0  0  0  0  0  0  0  0  0  0
   25.6473  -19.3435  -14.5133 C   0  0  0  0  0  0  0  0  0  0  0  0
   24.4545  -19.6694  -14.1936 O   0  0  0  0  0  0  0  0  0  0  0  0
   26.6909  -20.0938  -13.9232 N   0  0  0  0  0  0  0  0  0  0  0  0
   28.1151  -19.9903  -13.9347 C   0  0  0  0  0  0  0  0  0  0  0  0
   28.5349  -21.4578  -14.1110 C   0  0  0  0  0  0  0  0  0  0  0  0
   27.4197  -22.2951  -13.5796 C   0  0  0  0  0  0  0  0  0  0  0  0
   26.4565  -21.2748  -13.0688 C   0  0  1  0  0  0  0  0  0  0  0  0
   26.6757  -20.9270  -11.6313 C   0  0  0  0  0  0  0  0  0  0  0  0
   27.7650  -20.5392  -11.1901 O   0  0  0  0  0  0  0  0  0  0  0  0
   27.7088  -20.8078   -7.2887 C   0  0  0  0  0  0  0  0  0  0  0  0
   27.4448  -19.5664   -8.0839 C   0  0  2  0  0  0  0  0  0  0  0  0
   27.4710  -18.2999   -7.2762 C   0  0  0  0  0  0  0  0  0  0  0  0
   26.3500  -19.6481   -9.0674 C   0  0  0  0  0  0  0  0  0  0  0  0
   25.6728  -20.9329   -9.3172 C   0  0  2  0  0  0  0  0  0  0  0  0
   25.5591  -21.0624  -10.7737 N   0  0  0  0  0  0  0  0  0  0  0  0
   24.3496  -21.1525   -8.7499 C   0  0  0  0  0  0  0  0  0  0  0  0
   23.3196  -20.7942   -9.4078 O   0  0  0  0  0  0  0  0  0  0  0  0
   24.0607  -21.7349   -7.5236 O   0  0  0  0  0  0  0  0  0  0  0  0
  1  2  1  0
  3  2  1  0
  4  3  1  0
  5  6  1  6
  5  4  1  0
  7  5  1  0
  8  7  2  0
  9 10  1  0
  9  7  1  0
 11 10  1  0
 12 13  1  0
 12 11  1  0
 13  9  1  0
 13 14  1  1
 14 15  2  0
 17 16  1  1
 18 17  1  0
 19 17  1  0
 20 19  1  6
 20 21  1  0
 21 14  1  0
 22 24  1  0
 22 20  1  0
 23 22  2  0
M  END
$$$$
