MPL.pdb
     RDKit          3D

 24 24  0  0  1  0  0  0  0  0999 V2000
   21.2762  -10.6865    5.3575 C   0  0  0  0  0  0  0  0  0  0  0  0
   20.9625  -12.2464    6.2118 S   0  0  0  0  0  0  0  0  0  0  0  0
   19.1773  -12.6676    6.0196 C   0  0  0  0  0  0  0  0  0  0  0  0
   18.8205  -12.7946    4.5816 C   0  0  0  0  0  0  0  0  0  0  0  0
   17.4171  -13.2509    4.3641 C   0  0  2  0  0  0  0  0  0  0  0  0
   16.4631  -12.3833    5.0454 N   0  0  0  0  0  0  0  0  0  0  0  0
   17.1164  -14.6464    4.6649 C   0  0  0  0  0  0  0  0  0  0  0  0
   16.3993  -14.8600    5.6999 O   0  0  0  0  0  0  0  0  0  0  0  0
   17.5331  -15.7838    3.9349 N   0  0  0  0  0  0  0  0  0  0  0  0
   18.3376  -15.9742    2.7705 C   0  0  0  0  0  0  0  0  0  0  0  0
   17.5360  -17.0391    2.0061 C   0  0  0  0  0  0  0  0  0  0  0  0
   16.7333  -17.7872    3.0175 C   0  0  0  0  0  0  0  0  0  0  0  0
   17.1628  -17.1643    4.3048 C   0  0  1  0  0  0  0  0  0  0  0  0
   18.3246  -17.8615    4.9367 C   0  0  0  0  0  0  0  0  0  0  0  0
   19.4961  -17.4923    4.7852 O   0  0  0  0  0  0  0  0  0  0  0  0
   19.3579  -18.4865    9.9136 C   0  0  0  0  0  0  0  0  0  0  0  0
   18.8479  -17.4218    8.9921 C   0  0  2  0  0  0  0  0  0  0  0  0
   18.2461  -16.2368    9.6926 C   0  0  0  0  0  0  0  0  0  0  0  0
   18.0945  -17.8905    7.8151 C   0  0  0  0  0  0  0  0  0  0  0  0
   18.5046  -19.1205    7.1147 C   0  0  2  0  0  0  0  0  0  0  0  0
   18.0233  -18.9893    5.7354 N   0  0  0  0  0  0  0  0  0  0  0  0
   18.0446  -20.4057    7.6222 C   0  0  0  0  0  0  0  0  0  0  0  0
   18.8570  -21.1556    8.2545 O   0  0  0  0  0  0  0  0  0  0  0  0
   16.7680  -20.9362    7.4977 O   0  0  0  0  0  0  0  0  0  0  0  0
  1  2  1  0
  3  2  1  0
  4  3  1  0
  5  6  1  1
  5  4  1  0
  7  5  1  0
  8  7  2  0
  9 10  1  0
  9  7  1  0
 11 10  1  0
 12 13  1  0
 12 11  1  0
 13  9  1  0
 13 14  1  6
 14 15  2  0
 17 16  1  1
 18 17  1  0
 19 17  1  0
 20 19  1  1
 20 21  1  0
 21 14  1  0
 22 24  1  0
 22 20  1  0
 23 22  2  0
M  END
$$$$
