MPL.pdb
     RDKit          3D

 24 24  0  0  1  0  0  0  0  0999 V2000
   23.9324  -16.2608  -14.5964 C   0  0  0  0  0  0  0  0  0  0  0  0
   22.2593  -16.9118  -14.4005 S   0  0  0  0  0  0  0  0  0  0  0  0
   22.3689  -18.7358  -14.1502 C   0  0  0  0  0  0  0  0  0  0  0  0
   23.3110  -19.0575  -13.0456 C   0  0  0  0  0  0  0  0  0  0  0  0
   23.4270  -20.5211  -12.7819 C   0  0  2  0  0  0  0  0  0  0  0  0
   22.1296  -21.1112  -12.4724 N   0  0  0  0  0  0  0  0  0  0  0  0
   24.4098  -20.9432  -11.7897 C   0  0  0  0  0  0  0  0  0  0  0  0
   23.9476  -21.4986  -10.7366 O   0  0  0  0  0  0  0  0  0  0  0  0
   25.8149  -20.8030  -11.8697 N   0  0  0  0  0  0  0  0  0  0  0  0
   26.6938  -20.1260  -12.7688 C   0  0  0  0  0  0  0  0  0  0  0  0
   27.8081  -21.1664  -12.9610 C   0  0  0  0  0  0  0  0  0  0  0  0
   27.8059  -22.0343  -11.7470 C   0  0  0  0  0  0  0  0  0  0  0  0
   26.7463  -21.4114  -10.8991 C   0  0  1  0  0  0  0  0  0  0  0  0
   27.2762  -20.3704   -9.9659 C   0  0  0  0  0  0  0  0  0  0  0  0
   26.9368  -19.1815  -10.0194 O   0  0  0  0  0  0  0  0  0  0  0  0
   27.1909  -18.0268   -5.6484 C   0  0  0  0  0  0  0  0  0  0  0  0
   26.8681  -19.4860   -5.7463 C   0  0  2  0  0  0  0  0  0  0  0  0
   27.3823  -20.3092   -4.5995 C   0  0  0  0  0  0  0  0  0  0  0  0
   27.0444  -20.1005   -7.0744 C   0  0  0  0  0  0  0  0  0  0  0  0
   28.3744  -20.1249   -7.7087 C   0  0  2  0  0  0  0  0  0  0  0  0
   28.2052  -20.8104   -8.9943 N   0  0  0  0  0  0  0  0  0  0  0  0
   29.4766  -20.7682   -7.0072 C   0  0  0  0  0  0  0  0  0  0  0  0
   30.3705  -20.0493   -6.4540 O   0  0  0  0  0  0  0  0  0  0  0  0
   29.6793  -22.1333   -6.8585 O   0  0  0  0  0  0  0  0  0  0  0  0
  1  2  1  0
  3  2  1  0
  4  3  1  0
  5  6  1  1
  5  4  1  0
  7  5  1  0
  8  7  2  0
  9 10  1  0
  9  7  1  0
 11 10  1  0
 12 13  1  0
 12 11  1  0
 13  9  1  0
 13 14  1  1
 14 15  2  0
 17 16  1  6
 18 17  1  0
 19 17  1  0
 20 19  1  1
 20 21  1  0
 21 14  1  0
 22 24  1  0
 22 20  1  0
 23 22  2  0
M  END
$$$$
