FTV.pdb
     RDKit          3D

 26 26  0  0  1  0  0  0  0  0999 V2000
   21.9648  -12.6711  -19.6467 N   0  0  0  0  0  0  0  0  0  0  0  0
   21.1048  -12.0897  -18.6520 C   0  0  1  0  0  0  0  0  0  0  0  0
   20.8589  -13.0778  -17.5253 C   0  0  0  0  0  0  0  0  0  0  0  0
   20.2004  -14.3080  -17.9727 C   0  0  0  0  0  0  0  0  0  0  0  0
   18.9067  -14.2641  -18.4340 C   0  0  0  0  0  0  0  0  0  0  0  0
   18.2931  -15.4220  -18.8529 C   0  0  0  0  0  0  0  0  0  0  0  0
   18.9807  -16.6361  -18.8097 C   0  0  0  0  0  0  0  0  0  0  0  0
   20.2700  -16.6768  -18.3493 C   0  0  0  0  0  0  0  0  0  0  0  0
   20.8937  -15.5224  -17.9275 C   0  0  0  0  0  0  0  0  0  0  0  0
   21.7789  -10.9063  -18.0208 C   0  0  0  0  0  0  0  0  0  0  0  0
   23.0280  -10.8872  -17.8739 O   0  0  0  0  0  0  0  0  0  0  0  0
   21.9692   -7.6376  -19.2580 C   0  0  0  0  0  0  0  0  0  0  0  0
   21.4466   -7.4454  -17.8595 C   0  0  1  0  0  0  0  0  0  0  0  0
   20.0858   -7.1294  -17.8532 O   0  0  0  0  0  0  0  0  0  0  0  0
   21.7575   -8.6404  -17.0091 C   0  0  2  0  0  0  0  0  0  0  0  0
   21.0542   -9.7775  -17.5696 N   0  0  0  0  0  0  0  0  0  0  0  0
   21.3423   -8.4080  -15.5881 C   0  0  0  0  0  0  0  0  0  0  0  0
   20.3503   -9.0238  -15.1530 O   0  0  0  0  0  0  0  0  0  0  0  0
   22.4463   -9.6027  -12.7279 C   0  0  0  0  0  0  0  0  0  0  0  0
   22.5975   -8.1366  -12.5155 C   0  0  2  0  0  0  0  0  0  0  0  0
   22.1436   -7.8588  -11.0744 C   0  0  0  0  0  0  0  0  0  0  0  0
   21.8059   -7.2477  -13.3937 C   0  0  2  0  0  0  0  0  0  0  0  0
   22.0673   -7.5137  -14.7836 N   0  0  0  0  0  0  0  0  0  0  0  0
   21.9172   -5.7996  -13.1002 C   0  0  0  0  0  0  0  0  0  0  0  0
   22.8759   -5.0497  -13.7430 O   0  0  0  0  0  0  0  0  0  0  0  0
   21.1528   -5.2229  -12.2753 O   0  0  0  0  0  0  0  0  0  0  0  0
  2 10  1  0
  2  1  1  6
  3  2  1  0
  4  3  1  0
  5  4  2  0
  6  5  1  0
  7  6  2  0
  7  8  1  0
  8  9  2  0
  9  4  1  0
 10 11  2  0
 13 12  1  6
 13 14  1  0
 15 13  1  0
 16 10  1  0
 15 16  1  6
 17 15  1  0
 17 18  2  0
 20 19  1  6
 20 22  1  0
 21 20  1  0
 22 23  1  6
 23 17  1  0
 24 25  1  0
 24 22  1  0
 26 24  2  0
M  END
$$$$
