FTV.pdb
     RDKit          3D

 26 26  0  0  1  0  0  0  0  0999 V2000
   26.0240  -17.3609  -18.0862 N   0  0  0  0  0  0  0  0  0  0  0  0
   26.5736  -17.3536  -16.7577 C   0  0  1  0  0  0  0  0  0  0  0  0
   26.2129  -16.0620  -16.0452 C   0  0  0  0  0  0  0  0  0  0  0  0
   26.9749  -14.9070  -16.5272 C   0  0  0  0  0  0  0  0  0  0  0  0
   28.3401  -14.9933  -16.6592 C   0  0  0  0  0  0  0  0  0  0  0  0
   29.0510  -13.9061  -17.1122 C   0  0  0  0  0  0  0  0  0  0  0  0
   28.3894  -12.7205  -17.4364 C   0  0  0  0  0  0  0  0  0  0  0  0
   27.0287  -12.6373  -17.3040 C   0  0  0  0  0  0  0  0  0  0  0  0
   26.3074  -13.7208  -16.8510 C   0  0  0  0  0  0  0  0  0  0  0  0
   25.9611  -18.4565  -15.9441 C   0  0  0  0  0  0  0  0  0  0  0  0
   25.2441  -19.3318  -16.4937 O   0  0  0  0  0  0  0  0  0  0  0  0
   26.6846  -20.8473  -15.9899 C   0  0  0  0  0  0  0  0  0  0  0  0
   26.8273  -20.8474  -14.4915 C   0  0  1  0  0  0  0  0  0  0  0  0
   28.1578  -20.6869  -14.0971 O   0  0  0  0  0  0  0  0  0  0  0  0
   25.9229  -19.8236  -13.8734 C   0  0  2  0  0  0  0  0  0  0  0  0
   26.1580  -18.5613  -14.5465 N   0  0  0  0  0  0  0  0  0  0  0  0
   26.1842  -19.6973  -12.4033 C   0  0  0  0  0  0  0  0  0  0  0  0
   27.0825  -18.9204  -12.0264 O   0  0  0  0  0  0  0  0  0  0  0  0
   23.8654  -22.1735   -9.4871 C   0  0  0  0  0  0  0  0  0  0  0  0
   24.1923  -20.7216   -9.4352 C   0  0  2  0  0  0  0  0  0  0  0  0
   23.0658  -19.9971  -10.1873 C   0  0  0  0  0  0  0  0  0  0  0  0
   25.4655  -20.2993  -10.0586 C   0  0  2  0  0  0  0  0  0  0  0  0
   25.4238  -20.4455  -11.4896 N   0  0  0  0  0  0  0  0  0  0  0  0
   26.6867  -20.9227   -9.4966 C   0  0  0  0  0  0  0  0  0  0  0  0
   27.2491  -20.4011   -8.3537 O   0  0  0  0  0  0  0  0  0  0  0  0
   27.2329  -21.9282  -10.0333 O   0  0  0  0  0  0  0  0  0  0  0  0
  2 10  1  0
  2  1  1  6
  3  2  1  0
  4  3  1  0
  5  4  2  0
  6  5  1  0
  7  6  2  0
  7  8  1  0
  8  9  2  0
  9  4  1  0
 10 11  2  0
 13 12  1  6
 13 14  1  0
 15 13  1  0
 16 10  1  0
 15 16  1  6
 17 15  1  0
 17 18  2  0
 20 19  1  6
 20 22  1  0
 21 20  1  0
 22 23  1  6
 23 17  1  0
 24 25  1  0
 24 22  1  0
 26 24  2  0
M  END
$$$$
