FTV.pdb
     RDKit          3D

 26 26  0  0  1  0  0  0  0  0999 V2000
   27.8447   -9.7448  -16.5600 N   0  0  0  0  0  0  0  0  0  0  0  0
   26.4603  -10.1129  -16.6829 C   0  0  1  0  0  0  0  0  0  0  0  0
   26.1638  -11.3389  -15.8372 C   0  0  0  0  0  0  0  0  0  0  0  0
   26.9781  -12.5008  -16.2032 C   0  0  0  0  0  0  0  0  0  0  0  0
   27.8550  -13.0377  -15.2914 C   0  0  0  0  0  0  0  0  0  0  0  0
   28.6173  -14.1286  -15.6399 C   0  0  0  0  0  0  0  0  0  0  0  0
   28.5013  -14.6879  -16.9136 C   0  0  0  0  0  0  0  0  0  0  0  0
   27.6266  -14.1507  -17.8203 C   0  0  0  0  0  0  0  0  0  0  0  0
   26.8583  -13.0579  -17.4810 C   0  0  0  0  0  0  0  0  0  0  0  0
   25.5891   -9.0181  -16.1391 C   0  0  0  0  0  0  0  0  0  0  0  0
   26.0687   -8.1418  -15.3746 O   0  0  0  0  0  0  0  0  0  0  0  0
   25.4369   -6.2968  -16.2954 C   0  0  0  0  0  0  0  0  0  0  0  0
   24.0318   -6.5666  -16.7631 C   0  0  1  0  0  0  0  0  0  0  0  0
   23.9635   -6.6965  -18.1524 O   0  0  0  0  0  0  0  0  0  0  0  0
   23.4556   -7.7538  -16.0513 C   0  0  2  0  0  0  0  0  0  0  0  0
   24.2129   -8.9223  -16.4549 N   0  0  0  0  0  0  0  0  0  0  0  0
   22.0038   -7.9226  -16.3821 C   0  0  0  0  0  0  0  0  0  0  0  0
   21.7001   -8.3532  -17.5112 O   0  0  0  0  0  0  0  0  0  0  0  0
   19.7001  -10.2347  -14.8122 C   0  0  0  0  0  0  0  0  0  0  0  0
   19.1322   -8.8684  -14.6450 C   0  0  2  0  0  0  0  0  0  0  0  0
   17.6174   -8.9994  -14.8644 C   0  0  0  0  0  0  0  0  0  0  0  0
   19.6123   -7.8251  -15.5771 C   0  0  2  0  0  0  0  0  0  0  0  0
   21.0254   -7.5973  -15.4283 N   0  0  0  0  0  0  0  0  0  0  0  0
   18.8623   -6.5475  -15.5435 C   0  0  0  0  0  0  0  0  0  0  0  0
   17.7131   -6.4166  -16.2897 O   0  0  0  0  0  0  0  0  0  0  0  0
   19.2426   -5.5660  -14.8439 O   0  0  0  0  0  0  0  0  0  0  0  0
  2 10  1  0
  2  1  1  1
  3  2  1  0
  4  3  1  0
  5  4  2  0
  6  5  1  0
  7  6  2  0
  7  8  1  0
  8  9  2  0
  9  4  1  0
 10 11  2  0
 13 12  1  6
 13 14  1  0
 15 13  1  0
 16 10  1  0
 15 16  1  6
 17 15  1  0
 17 18  2  0
 20 19  1  6
 20 22  1  0
 21 20  1  0
 22 23  1  1
 23 17  1  0
 24 25  1  0
 24 22  1  0
 26 24  2  0
M  END
$$$$
