FTV.pdb
     RDKit          3D

 26 26  0  0  1  0  0  0  0  0999 V2000
   21.9186  -13.0648  -18.4132 N   0  0  0  0  0  0  0  0  0  0  0  0
   21.1057  -11.9149  -18.1236 C   0  0  1  0  0  0  0  0  0  0  0  0
   20.0881  -12.2467  -17.0463 C   0  0  0  0  0  0  0  0  0  0  0  0
   19.1088  -13.2510  -17.4699 C   0  0  0  0  0  0  0  0  0  0  0  0
   19.1532  -14.5179  -16.9394 C   0  0  0  0  0  0  0  0  0  0  0  0
   18.2315  -15.4572  -17.3404 C   0  0  0  0  0  0  0  0  0  0  0  0
   17.2554  -15.1256  -18.2817 C   0  0  0  0  0  0  0  0  0  0  0  0
   17.2136  -13.8622  -18.8087 C   0  0  0  0  0  0  0  0  0  0  0  0
   18.1324  -12.9139  -18.4136 C   0  0  0  0  0  0  0  0  0  0  0  0
   21.9572  -10.8148  -17.5595 C   0  0  0  0  0  0  0  0  0  0  0  0
   23.2118  -10.8872  -17.6151 O   0  0  0  0  0  0  0  0  0  0  0  0
   23.8388   -9.1572  -18.3492 C   0  0  0  0  0  0  0  0  0  0  0  0
   22.9746   -8.0737  -17.7618 C   0  0  1  0  0  0  0  0  0  0  0  0
   22.1000   -7.5368  -18.7097 O   0  0  0  0  0  0  0  0  0  0  0  0
   22.2574   -8.5711  -16.5427 C   0  0  2  0  0  0  0  0  0  0  0  0
   21.3989   -9.6660  -16.9501 N   0  0  0  0  0  0  0  0  0  0  0  0
   21.4548   -7.4750  -15.9102 C   0  0  0  0  0  0  0  0  0  0  0  0
   20.3838   -7.1382  -16.4506 O   0  0  0  0  0  0  0  0  0  0  0  0
   21.6827   -7.1140  -11.7416 C   0  0  0  0  0  0  0  0  0  0  0  0
   20.6581   -6.6067  -12.6957 C   0  0  2  0  0  0  0  0  0  0  0  0
   19.8429   -7.8285  -13.1455 C   0  0  0  0  0  0  0  0  0  0  0  0
   21.1546   -5.9465  -13.9227 C   0  0  2  0  0  0  0  0  0  0  0  0
   21.9166   -6.8558  -14.7372 N   0  0  0  0  0  0  0  0  0  0  0  0
   21.8922   -4.6792  -13.7095 C   0  0  0  0  0  0  0  0  0  0  0  0
   23.2218   -4.6023  -14.0572 O   0  0  0  0  0  0  0  0  0  0  0  0
   21.3368   -3.6556  -13.2184 O   0  0  0  0  0  0  0  0  0  0  0  0
  2 10  1  0
  2  1  1  1
  3  2  1  0
  4  3  1  0
  5  4  2  0
  6  5  1  0
  7  6  2  0
  7  8  1  0
  8  9  2  0
  9  4  1  0
 10 11  2  0
 13 12  1  6
 13 14  1  0
 15 13  1  0
 16 10  1  0
 15 16  1  6
 17 15  1  0
 17 18  2  0
 20 19  1  1
 20 22  1  0
 21 20  1  0
 22 23  1  1
 23 17  1  0
 24 25  1  0
 24 22  1  0
 26 24  2  0
M  END
$$$$
