FTV.pdb
     RDKit          3D

 26 26  0  0  1  0  0  0  0  0999 V2000
   19.7608  -18.0835  -17.6100 N   0  0  0  0  0  0  0  0  0  0  0  0
   20.3097  -17.9387  -16.2890 C   0  0  1  0  0  0  0  0  0  0  0  0
   19.2049  -18.0044  -15.2492 C   0  0  0  0  0  0  0  0  0  0  0  0
   18.3967  -16.7836  -15.1908 C   0  0  0  0  0  0  0  0  0  0  0  0
   18.4863  -15.9539  -14.0990 C   0  0  0  0  0  0  0  0  0  0  0  0
   17.7253  -14.8088  -14.0491 C   0  0  0  0  0  0  0  0  0  0  0  0
   16.8659  -14.4907  -15.1021 C   0  0  0  0  0  0  0  0  0  0  0  0
   16.7786  -15.3196  -16.1890 C   0  0  0  0  0  0  0  0  0  0  0  0
   17.5368  -16.4690  -16.2487 C   0  0  0  0  0  0  0  0  0  0  0  0
   21.2271  -19.0878  -15.9869 C   0  0  0  0  0  0  0  0  0  0  0  0
   21.0938  -20.1852  -16.5873 O   0  0  0  0  0  0  0  0  0  0  0  0
   22.9845  -20.3961  -17.3948 C   0  0  0  0  0  0  0  0  0  0  0  0
   23.9715  -20.0536  -16.3112 C   0  0  1  0  0  0  0  0  0  0  0  0
   24.6632  -18.8732  -16.5938 O   0  0  0  0  0  0  0  0  0  0  0  0
   23.2956  -20.0111  -14.9735 C   0  0  2  0  0  0  0  0  0  0  0  0
   22.2656  -18.9924  -15.0302 N   0  0  0  0  0  0  0  0  0  0  0  0
   24.2812  -19.7086  -13.8859 C   0  0  0  0  0  0  0  0  0  0  0  0
   24.1270  -18.6665  -13.2204 O   0  0  0  0  0  0  0  0  0  0  0  0
   24.4020  -20.8442  -10.8743 C   0  0  0  0  0  0  0  0  0  0  0  0
   25.7692  -21.2001  -11.3451 C   0  0  2  0  0  0  0  0  0  0  0  0
   26.7260  -20.8611  -10.1921 C   0  0  0  0  0  0  0  0  0  0  0  0
   26.2709  -20.4905  -12.5420 C   0  0  2  0  0  0  0  0  0  0  0  0
   25.3454  -20.5914  -13.6393 N   0  0  0  0  0  0  0  0  0  0  0  0
   27.6424  -20.8542  -12.9692 C   0  0  0  0  0  0  0  0  0  0  0  0
   28.7132  -20.1270  -12.5010 O   0  0  0  0  0  0  0  0  0  0  0  0
   27.8655  -21.8203  -13.7529 O   0  0  0  0  0  0  0  0  0  0  0  0
  2 10  1  0
  2  1  1  6
  3  2  1  0
  4  3  1  0
  5  4  2  0
  6  5  1  0
  7  6  2  0
  7  8  1  0
  8  9  2  0
  9  4  1  0
 10 11  2  0
 13 12  1  6
 13 14  1  0
 15 13  1  0
 16 10  1  0
 15 16  1  6
 17 15  1  0
 17 18  2  0
 20 19  1  1
 20 22  1  0
 21 20  1  0
 22 23  1  6
 23 17  1  0
 24 25  1  0
 24 22  1  0
 26 24  2  0
M  END
$$$$
