FTV.pdb
     RDKit          3D

 26 26  0  0  1  0  0  0  0  0999 V2000
   29.6036  -26.1190  -16.8281 N   0  0  0  0  0  0  0  0  0  0  0  0
   28.2417  -26.3522  -17.2259 C   0  0  1  0  0  0  0  0  0  0  0  0
   27.9034  -27.8278  -17.1074 C   0  0  0  0  0  0  0  0  0  0  0  0
   28.5622  -28.6524  -18.1238 C   0  0  0  0  0  0  0  0  0  0  0  0
   28.1259  -28.6134  -19.4263 C   0  0  0  0  0  0  0  0  0  0  0  0
   28.7479  -29.3895  -20.3768 C   0  0  0  0  0  0  0  0  0  0  0  0
   29.8173  -30.2130  -20.0205 C   0  0  0  0  0  0  0  0  0  0  0  0
   30.2500  -30.2499  -18.7216 C   0  0  0  0  0  0  0  0  0  0  0  0
   29.6336  -29.4762  -17.7619 C   0  0  0  0  0  0  0  0  0  0  0  0
   27.3065  -25.6400  -16.2923 C   0  0  0  0  0  0  0  0  0  0  0  0
   27.6219  -25.4605  -15.0879 O   0  0  0  0  0  0  0  0  0  0  0  0
   26.5702  -22.3185  -16.1937 C   0  0  0  0  0  0  0  0  0  0  0  0
   25.2104  -22.9521  -16.3172 C   0  0  1  0  0  0  0  0  0  0  0  0
   24.7152  -22.8676  -17.6207 O   0  0  0  0  0  0  0  0  0  0  0  0
   25.2352  -24.3621  -15.8079 C   0  0  2  0  0  0  0  0  0  0  0  0
   26.0495  -25.1463  -16.7154 N   0  0  0  0  0  0  0  0  0  0  0  0
   23.8484  -24.9233  -15.7203 C   0  0  0  0  0  0  0  0  0  0  0  0
   23.7033  -26.1581  -15.8031 O   0  0  0  0  0  0  0  0  0  0  0  0
   22.1052  -26.6641  -14.1767 C   0  0  0  0  0  0  0  0  0  0  0  0
   21.3803  -25.3686  -14.0594 C   0  0  2  0  0  0  0  0  0  0  0  0
   19.9067  -25.7187  -13.8031 C   0  0  0  0  0  0  0  0  0  0  0  0
   21.4105  -24.4754  -15.2381 C   0  0  2  0  0  0  0  0  0  0  0  0
   22.7531  -24.0610  -15.5492 N   0  0  0  0  0  0  0  0  0  0  0  0
   20.4961  -23.3110  -15.1778 C   0  0  0  0  0  0  0  0  0  0  0  0
   20.8811  -22.1820  -14.4910 O   0  0  0  0  0  0  0  0  0  0  0  0
   19.3660  -23.3171  -15.7436 O   0  0  0  0  0  0  0  0  0  0  0  0
  2 10  1  0
  2  1  1  1
  3  2  1  0
  4  3  1  0
  5  4  2  0
  6  5  1  0
  7  6  2  0
  7  8  1  0
  8  9  2  0
  9  4  1  0
 10 11  2  0
 13 12  1  6
 13 14  1  0
 15 13  1  0
 16 10  1  0
 15 16  1  6
 17 15  1  0
 17 18  2  0
 20 19  1  6
 20 22  1  0
 21 20  1  0
 22 23  1  1
 23 17  1  0
 24 25  1  0
 24 22  1  0
 26 24  2  0
M  END
$$$$
