PFQ.pdb
     RDKit          3D

 28 29  0  0  1  0  0  0  0  0999 V2000
   22.5271  -10.9251  -19.8368 N   0  0  0  0  0  0  0  0  0  0  0  0
   22.8994  -11.8094  -20.9105 C   0  0  0  0  0  0  0  0  0  0  0  0
   21.7790  -12.7978  -20.9643 C   0  0  0  0  0  0  0  0  0  0  0  0
   20.6284  -12.1422  -20.2469 C   0  0  0  0  0  0  0  0  0  0  0  0
   21.1123  -10.7251  -20.0250 C   0  0  1  0  0  0  0  0  0  0  0  0
   20.5179  -10.2435  -18.7661 C   0  0  0  0  0  0  0  0  0  0  0  0
   19.2702  -10.0605  -18.7167 O   0  0  0  0  0  0  0  0  0  0  0  0
   21.3740  -10.0070  -17.6657 N   0  0  0  0  0  0  0  0  0  0  0  0
   20.8157   -9.5701  -16.4044 C   0  0  1  0  0  0  0  0  0  0  0  0
   21.0003  -10.6837  -15.3945 C   0  0  0  0  0  0  0  0  0  0  0  0
   20.0153  -11.7721  -15.5966 C   0  0  0  0  0  0  0  0  0  0  0  0
   18.7444  -11.6858  -15.0674 C   0  0  0  0  0  0  0  0  0  0  0  0
   17.8230  -12.7035  -15.2564 C   0  0  0  0  0  0  0  0  0  0  0  0
   18.1314  -13.8374  -15.9749 C   0  0  0  0  0  0  0  0  0  0  0  0
   19.4012  -13.9320  -16.5082 C   0  0  0  0  0  0  0  0  0  0  0  0
   20.3139  -12.9158  -16.3166 C   0  0  0  0  0  0  0  0  0  0  0  0
   21.5518   -8.3453  -15.9981 C   0  0  0  0  0  0  0  0  0  0  0  0
   22.7713   -8.1657  -16.2524 O   0  0  0  0  0  0  0  0  0  0  0  0
   20.0641   -2.3695  -16.3466 N   0  0  0  0  0  0  0  0  0  0  0  0
   21.2546   -2.4074  -15.5818 C   0  0  0  0  0  0  0  0  0  0  0  0
   21.8433   -1.3278  -15.3437 O   0  0  0  0  0  0  0  0  0  0  0  0
   21.8020   -3.6821  -15.0700 C   0  0  0  0  0  0  0  0  0  0  0  0
   20.9774   -4.8578  -15.5387 C   0  0  0  0  0  0  0  0  0  0  0  0
   21.6098   -6.1009  -14.9062 C   0  0  2  0  0  0  0  0  0  0  0  0
   20.8831   -7.2990  -15.2847 N   0  0  0  0  0  0  0  0  0  0  0  0
   21.7151   -5.9673  -13.4346 C   0  0  0  0  0  0  0  0  0  0  0  0
   22.5019   -5.1104  -12.9633 O   0  0  0  0  0  0  0  0  0  0  0  0
   20.9947   -6.7341  -12.5422 O   0  0  0  0  0  0  0  0  0  0  0  0
  1  5  1  0
  2  3  1  0
  2  1  1  0
  3  4  1  0
  4  5  1  0
  5  6  1  1
  6  7  2  0
  8  9  1  0
  8  6  1  0
  9 17  1  0
 10 11  1  0
  9 10  1  1
 11 12  2  0
 12 13  1  0
 14 13  2  0
 15 14  1  0
 16 15  2  0
 16 11  1  0
 17 18  2  0
 20 19  1  0
 20 21  2  0
 22 23  1  0
 22 20  1  0
 24 23  1  1
 24 26  1  0
 25 24  1  0
 25 17  1  0
 26 27  2  0
 26 28  1  0
M  END
$$$$
