PFQ.pdb
     RDKit          3D

 28 29  0  0  1  0  0  0  0  0999 V2000
   26.8238  -19.5445  -13.0432 N   0  0  0  0  0  0  0  0  0  0  0  0
   27.4201  -19.4175  -14.3477 C   0  0  0  0  0  0  0  0  0  0  0  0
   28.4116  -20.5352  -14.3979 C   0  0  0  0  0  0  0  0  0  0  0  0
   27.9852  -21.5008  -13.3236 C   0  0  0  0  0  0  0  0  0  0  0  0
   26.6405  -20.9647  -12.8808 C   0  0  1  0  0  0  0  0  0  0  0  0
   26.4872  -21.2743  -11.4488 C   0  0  0  0  0  0  0  0  0  0  0  0
   26.3494  -22.4797  -11.1013 O   0  0  0  0  0  0  0  0  0  0  0  0
   26.5012  -20.2042  -10.5244 N   0  0  0  0  0  0  0  0  0  0  0  0
   26.4196  -20.4811   -9.1066 C   0  0  1  0  0  0  0  0  0  0  0  0
   27.2933  -19.4807   -8.3784 C   0  0  0  0  0  0  0  0  0  0  0  0
   27.3432  -19.7573   -6.9236 C   0  0  0  0  0  0  0  0  0  0  0  0
   26.5375  -19.0668   -6.0423 C   0  0  0  0  0  0  0  0  0  0  0  0
   26.5838  -19.3254   -4.6817 C   0  0  0  0  0  0  0  0  0  0  0  0
   27.4290  -20.2753   -4.1519 C   0  0  0  0  0  0  0  0  0  0  0  0
   28.2390  -20.9712   -5.0269 C   0  0  0  0  0  0  0  0  0  0  0  0
   28.1883  -20.7092   -6.3801 C   0  0  0  0  0  0  0  0  0  0  0  0
   24.9942  -20.3407   -8.7122 C   0  0  0  0  0  0  0  0  0  0  0  0
   24.2750  -19.3766   -9.0826 O   0  0  0  0  0  0  0  0  0  0  0  0
   21.0266  -24.5467   -5.8160 N   0  0  0  0  0  0  0  0  0  0  0  0
   20.2546  -23.5458   -6.4531 C   0  0  0  0  0  0  0  0  0  0  0  0
   19.0143  -23.5501   -6.2785 O   0  0  0  0  0  0  0  0  0  0  0  0
   20.8824  -22.5143   -7.3064 C   0  0  0  0  0  0  0  0  0  0  0  0
   22.3863  -22.6557   -7.3172 C   0  0  0  0  0  0  0  0  0  0  0  0
   22.9429  -21.2635   -7.6289 C   0  0  2  0  0  0  0  0  0  0  0  0
   24.3721  -21.3224   -7.8755 N   0  0  0  0  0  0  0  0  0  0  0  0
   22.6123  -20.2945   -6.5582 C   0  0  0  0  0  0  0  0  0  0  0  0
   21.6484  -19.5099   -6.7338 O   0  0  0  0  0  0  0  0  0  0  0  0
   23.3053  -20.2007   -5.3690 O   0  0  0  0  0  0  0  0  0  0  0  0
  1  5  1  0
  2  3  1  0
  2  1  1  0
  3  4  1  0
  4  5  1  0
  5  6  1  1
  6  7  2  0
  8  9  1  0
  8  6  1  0
  9 17  1  0
 10 11  1  0
  9 10  1  1
 11 12  2  0
 12 13  1  0
 14 13  2  0
 15 14  1  0
 16 15  2  0
 16 11  1  0
 17 18  2  0
 20 19  1  0
 20 21  2  0
 22 23  1  0
 22 20  1  0
 24 23  1  1
 24 26  1  0
 25 24  1  0
 25 17  1  0
 26 27  2  0
 26 28  1  0
M  END
$$$$
