PFQ.pdb
     RDKit          3D

 28 29  0  0  1  0  0  0  0  0999 V2000
   26.8289  -19.1802  -15.7390 N   0  0  0  0  0  0  0  0  0  0  0  0
   28.0504  -18.6727  -16.3078 C   0  0  0  0  0  0  0  0  0  0  0  0
   29.1139  -19.1986  -15.3982 C   0  0  0  0  0  0  0  0  0  0  0  0
   28.4798  -20.3471  -14.6585 C   0  0  0  0  0  0  0  0  0  0  0  0
   27.1545  -20.5337  -15.3658 C   0  0  1  0  0  0  0  0  0  0  0  0
   26.1806  -21.0105  -14.3686 C   0  0  0  0  0  0  0  0  0  0  0  0
   26.3260  -22.1672  -13.8853 O   0  0  0  0  0  0  0  0  0  0  0  0
   25.1232  -20.1487  -13.9961 N   0  0  0  0  0  0  0  0  0  0  0  0
   24.2223  -20.5379  -12.9329 C   0  0  1  0  0  0  0  0  0  0  0  0
   24.2323  -19.4473  -11.8818 C   0  0  0  0  0  0  0  0  0  0  0  0
   24.7555  -19.9426  -10.5870 C   0  0  0  0  0  0  0  0  0  0  0  0
   26.1099  -19.9497  -10.3253 C   0  0  0  0  0  0  0  0  0  0  0  0
   26.5995  -20.4128   -9.1144 C   0  0  0  0  0  0  0  0  0  0  0  0
   25.7636  -20.8828   -8.1257 C   0  0  0  0  0  0  0  0  0  0  0  0
   24.4065  -20.8792   -8.3792 C   0  0  0  0  0  0  0  0  0  0  0  0
   23.9253  -20.4171   -9.5864 C   0  0  0  0  0  0  0  0  0  0  0  0
   22.8733  -20.6952  -13.5348 C   0  0  0  0  0  0  0  0  0  0  0  0
   22.3972  -19.8791  -14.3664 O   0  0  0  0  0  0  0  0  0  0  0  0
   17.0478  -24.9631  -13.2927 N   0  0  0  0  0  0  0  0  0  0  0  0
   18.1835  -24.7066  -14.0978 C   0  0  0  0  0  0  0  0  0  0  0  0
   18.6706  -25.6531  -14.7581 O   0  0  0  0  0  0  0  0  0  0  0  0
   18.7910  -23.3603  -14.1678 C   0  0  0  0  0  0  0  0  0  0  0  0
   20.1672  -23.3492  -13.5451 C   0  0  0  0  0  0  0  0  0  0  0  0
   20.7176  -21.9354  -13.7532 C   0  0  2  0  0  0  0  0  0  0  0  0
   22.0457  -21.8092  -13.1814 N   0  0  0  0  0  0  0  0  0  0  0  0
   19.7926  -20.9088  -13.2192 C   0  0  0  0  0  0  0  0  0  0  0  0
   18.8157  -20.5548  -13.9234 O   0  0  0  0  0  0  0  0  0  0  0  0
   19.9404  -20.3126  -11.9839 O   0  0  0  0  0  0  0  0  0  0  0  0
  1  5  1  0
  2  3  1  0
  2  1  1  0
  3  4  1  0
  4  5  1  0
  5  6  1  1
  6  7  2  0
  8  9  1  0
  8  6  1  0
  9 17  1  0
 10 11  1  0
  9 10  1  1
 11 12  2  0
 12 13  1  0
 14 13  2  0
 15 14  1  0
 16 15  2  0
 16 11  1  0
 17 18  2  0
 20 19  1  0
 20 21  2  0
 22 23  1  0
 22 20  1  0
 24 23  1  1
 24 26  1  0
 25 24  1  0
 25 17  1  0
 26 27  2  0
 26 28  1  0
M  END
$$$$
