PFQ.pdb
     RDKit          3D

 28 29  0  0  1  0  0  0  0  0999 V2000
   26.5083  -17.3886  -14.6932 N   0  0  0  0  0  0  0  0  0  0  0  0
   27.3698  -16.2963  -15.0646 C   0  0  0  0  0  0  0  0  0  0  0  0
   28.4571  -16.9512  -15.8545 C   0  0  0  0  0  0  0  0  0  0  0  0
   27.8994  -18.2841  -16.2798 C   0  0  0  0  0  0  0  0  0  0  0  0
   26.4411  -18.1992  -15.8829 C   0  0  1  0  0  0  0  0  0  0  0  0
   25.9983  -19.5570  -15.5214 C   0  0  0  0  0  0  0  0  0  0  0  0
   25.7928  -20.3927  -16.4444 O   0  0  0  0  0  0  0  0  0  0  0  0
   25.8225  -19.8645  -14.1523 N   0  0  0  0  0  0  0  0  0  0  0  0
   25.2643  -21.1439  -13.7713 C   0  0  1  0  0  0  0  0  0  0  0  0
   26.1498  -21.7460  -12.7000 C   0  0  0  0  0  0  0  0  0  0  0  0
   26.0875  -20.9682  -11.4404 C   0  0  0  0  0  0  0  0  0  0  0  0
   25.3633  -21.4260  -10.3593 C   0  0  0  0  0  0  0  0  0  0  0  0
   25.3050  -20.6989   -9.1810 C   0  0  0  0  0  0  0  0  0  0  0  0
   25.9615  -19.4967   -9.0369 C   0  0  0  0  0  0  0  0  0  0  0  0
   26.6888  -19.0311  -10.1140 C   0  0  0  0  0  0  0  0  0  0  0  0
   26.7430  -19.7593  -11.2841 C   0  0  0  0  0  0  0  0  0  0  0  0
   23.8931  -20.8906  -13.2590 C   0  0  0  0  0  0  0  0  0  0  0  0
   23.6250  -19.9575  -12.4579 O   0  0  0  0  0  0  0  0  0  0  0  0
   21.6403  -17.5724  -14.7755 N   0  0  0  0  0  0  0  0  0  0  0  0
   21.4498  -18.6653  -15.6546 C   0  0  0  0  0  0  0  0  0  0  0  0
   21.5881  -18.4708  -16.8843 O   0  0  0  0  0  0  0  0  0  0  0  0
   21.0960  -20.0091  -15.1490 C   0  0  0  0  0  0  0  0  0  0  0  0
   21.0242  -20.0234  -13.6402 C   0  0  0  0  0  0  0  0  0  0  0  0
   21.4555  -21.4273  -13.2065 C   0  0  2  0  0  0  0  0  0  0  0  0
   22.7999  -21.7201  -13.6686 N   0  0  0  0  0  0  0  0  0  0  0  0
   20.4874  -22.4552  -13.6545 C   0  0  0  0  0  0  0  0  0  0  0  0
   19.3120  -22.4057  -13.2168 O   0  0  0  0  0  0  0  0  0  0  0  0
   20.8013  -23.4729  -14.5315 O   0  0  0  0  0  0  0  0  0  0  0  0
  1  5  1  0
  2  3  1  0
  2  1  1  0
  3  4  1  0
  4  5  1  0
  5  6  1  1
  6  7  2  0
  8  9  1  0
  8  6  1  0
  9 17  1  0
 10 11  1  0
  9 10  1  1
 11 12  2  0
 12 13  1  0
 14 13  2  0
 15 14  1  0
 16 15  2  0
 16 11  1  0
 17 18  2  0
 20 19  1  0
 20 21  2  0
 22 23  1  0
 22 20  1  0
 24 23  1  6
 24 26  1  0
 25 24  1  0
 25 17  1  0
 26 27  2  0
 26 28  1  0
M  END
$$$$
