PFQ.pdb
     RDKit          3D

 28 29  0  0  1  0  0  0  0  0999 V2000
   27.7588  -20.3308  -16.7496 N   0  0  0  0  0  0  0  0  0  0  0  0
   28.7459  -20.2322  -17.7933 C   0  0  0  0  0  0  0  0  0  0  0  0
   29.7536  -21.2757  -17.4320 C   0  0  0  0  0  0  0  0  0  0  0  0
   29.0453  -22.2097  -16.4863 C   0  0  0  0  0  0  0  0  0  0  0  0
   27.6045  -21.7496  -16.5492 C   0  0  1  0  0  0  0  0  0  0  0  0
   27.0019  -21.9909  -15.2268 C   0  0  0  0  0  0  0  0  0  0  0  0
   26.8036  -23.1820  -14.8599 O   0  0  0  0  0  0  0  0  0  0  0  0
   26.6712  -20.8740  -14.4248 N   0  0  0  0  0  0  0  0  0  0  0  0
   26.1862  -21.0782  -13.0770 C   0  0  1  0  0  0  0  0  0  0  0  0
   27.0835  -20.3087  -12.1299 C   0  0  0  0  0  0  0  0  0  0  0  0
   26.5733  -20.3516  -10.7394 C   0  0  0  0  0  0  0  0  0  0  0  0
   27.3247  -20.9078   -9.7251 C   0  0  0  0  0  0  0  0  0  0  0  0
   26.8479  -20.9480   -8.4246 C   0  0  0  0  0  0  0  0  0  0  0  0
   25.6130  -20.4390   -8.0884 C   0  0  0  0  0  0  0  0  0  0  0  0
   24.8543  -19.8804   -9.0975 C   0  0  0  0  0  0  0  0  0  0  0  0
   25.3344  -19.8434  -10.3900 C   0  0  0  0  0  0  0  0  0  0  0  0
   24.7906  -20.5712  -13.0302 C   0  0  0  0  0  0  0  0  0  0  0  0
   24.4991  -19.3578  -13.1942 O   0  0  0  0  0  0  0  0  0  0  0  0
   19.4651  -23.9419  -14.2217 N   0  0  0  0  0  0  0  0  0  0  0  0
   19.0748  -22.5983  -14.0072 C   0  0  0  0  0  0  0  0  0  0  0  0
   17.8841  -22.2814  -14.2329 O   0  0  0  0  0  0  0  0  0  0  0  0
   20.0373  -21.5827  -13.5290 C   0  0  0  0  0  0  0  0  0  0  0  0
   21.4198  -22.1711  -13.3736 C   0  0  0  0  0  0  0  0  0  0  0  0
   22.3338  -21.0107  -12.9696 C   0  0  2  0  0  0  0  0  0  0  0  0
   23.6997  -21.4676  -12.7909 N   0  0  0  0  0  0  0  0  0  0  0  0
   21.8275  -20.3156  -11.7633 C   0  0  0  0  0  0  0  0  0  0  0  0
   22.1496  -20.7590  -10.6341 O   0  0  0  0  0  0  0  0  0  0  0  0
   21.0162  -19.2005  -11.8054 O   0  0  0  0  0  0  0  0  0  0  0  0
  1  5  1  0
  2  3  1  0
  2  1  1  0
  3  4  1  0
  4  5  1  0
  5  6  1  1
  6  7  2  0
  8  9  1  0
  8  6  1  0
  9 17  1  0
 10 11  1  0
  9 10  1  1
 11 12  2  0
 12 13  1  0
 14 13  2  0
 15 14  1  0
 16 15  2  0
 16 11  1  0
 17 18  2  0
 20 19  1  0
 20 21  2  0
 22 23  1  0
 22 20  1  0
 24 23  1  1
 24 26  1  0
 25 24  1  0
 25 17  1  0
 26 27  2  0
 26 28  1  0
M  END
$$$$
