PFQ.pdb
     RDKit          3D

 28 29  0  0  1  0  0  0  0  0999 V2000
   27.0136  -20.9251  -17.2315 N   0  0  0  0  0  0  0  0  0  0  0  0
   28.1798  -20.6884  -18.0421 C   0  0  0  0  0  0  0  0  0  0  0  0
   29.3144  -21.1263  -17.1727 C   0  0  0  0  0  0  0  0  0  0  0  0
   28.6989  -22.0152  -16.1241 C   0  0  0  0  0  0  0  0  0  0  0  0
   27.2758  -22.1973  -16.6071 C   0  0  1  0  0  0  0  0  0  0  0  0
   26.4172  -22.3416  -15.4188 C   0  0  0  0  0  0  0  0  0  0  0  0
   26.6155  -23.3173  -14.6433 O   0  0  0  0  0  0  0  0  0  0  0  0
   25.4059  -21.3778  -15.1991 N   0  0  0  0  0  0  0  0  0  0  0  0
   24.6948  -21.3599  -13.9391 C   0  0  1  0  0  0  0  0  0  0  0  0
   25.0888  -20.1029  -13.1915 C   0  0  0  0  0  0  0  0  0  0  0  0
   24.9745  -20.2820  -11.7251 C   0  0  0  0  0  0  0  0  0  0  0  0
   23.7808  -20.0513  -11.0734 C   0  0  0  0  0  0  0  0  0  0  0  0
   23.6736  -20.2188   -9.7019 C   0  0  0  0  0  0  0  0  0  0  0  0
   24.7443  -20.6197   -8.9339 C   0  0  0  0  0  0  0  0  0  0  0  0
   25.9429  -20.8527   -9.5781 C   0  0  0  0  0  0  0  0  0  0  0  0
   26.0434  -20.6843  -10.9434 C   0  0  0  0  0  0  0  0  0  0  0  0
   23.2428  -21.3685  -14.2533 C   0  0  0  0  0  0  0  0  0  0  0  0
   22.7182  -20.5767  -15.0791 O   0  0  0  0  0  0  0  0  0  0  0  0
   22.5753  -26.5521  -14.6410 N   0  0  0  0  0  0  0  0  0  0  0  0
   21.3299  -25.9625  -14.3172 C   0  0  0  0  0  0  0  0  0  0  0  0
   20.5487  -26.5949  -13.5697 O   0  0  0  0  0  0  0  0  0  0  0  0
   20.9465  -24.6337  -14.8406 C   0  0  0  0  0  0  0  0  0  0  0  0
   20.3906  -23.7549  -13.7449 C   0  0  0  0  0  0  0  0  0  0  0  0
   20.9654  -22.3563  -13.9876 C   0  0  2  0  0  0  0  0  0  0  0  0
   22.3663  -22.3017  -13.6117 N   0  0  0  0  0  0  0  0  0  0  0  0
   20.1721  -21.3154  -13.2936 C   0  0  0  0  0  0  0  0  0  0  0  0
   19.1385  -20.8745  -13.8528 O   0  0  0  0  0  0  0  0  0  0  0  0
   20.5027  -20.7962  -12.0589 O   0  0  0  0  0  0  0  0  0  0  0  0
  1  5  1  0
  2  3  1  0
  2  1  1  0
  3  4  1  0
  4  5  1  0
  5  6  1  1
  6  7  2  0
  8  9  1  0
  8  6  1  0
  9 17  1  0
 10 11  1  0
  9 10  1  6
 11 12  2  0
 12 13  1  0
 14 13  2  0
 15 14  1  0
 16 15  2  0
 16 11  1  0
 17 18  2  0
 20 19  1  0
 20 21  2  0
 22 23  1  0
 22 20  1  0
 24 23  1  1
 24 26  1  0
 25 24  1  0
 25 17  1  0
 26 27  2  0
 26 28  1  0
M  END
$$$$
