NPN.pdb
     RDKit          3D

 24 24  0  0  1  0  0  0  0  0999 V2000
   29.1132  -18.0410  -16.1237 N   0  0  0  0  0  0  0  0  0  0  0  0
   27.7694  -17.6093  -16.1956 C   0  0  0  0  0  0  0  0  0  0  0  0
   27.5386  -16.4091  -16.5176 O   0  0  0  0  0  0  0  0  0  0  0  0
   26.5932  -18.4663  -15.9192 C   0  0  0  0  0  0  0  0  0  0  0  0
   27.0903  -19.8896  -15.6381 C   0  0  2  0  0  0  0  0  0  0  0  0
   27.5479  -20.5225  -16.8360 N   0  0  0  0  0  0  0  0  0  0  0  0
   26.0387  -20.6710  -14.9449 C   0  0  0  0  0  0  0  0  0  0  0  0
   25.1652  -21.1867  -15.7337 O   0  0  0  0  0  0  0  0  0  0  0  0
   25.9503  -20.8674  -13.5525 N   0  0  0  0  0  0  0  0  0  0  0  0
   26.8693  -20.3361  -12.5781 C   0  0  0  0  0  0  0  0  0  0  0  0
   26.3541  -20.7328  -11.2137 C   0  0  0  0  0  0  0  0  0  0  0  0
   25.5601  -21.9907  -11.5185 C   0  0  0  0  0  0  0  0  0  0  0  0
   24.9513  -21.6141  -12.8645 C   0  0  1  0  0  0  0  0  0  0  0  0
   23.7416  -20.8116  -12.5329 C   0  0  0  0  0  0  0  0  0  0  0  0
   23.9098  -19.5697  -12.4280 O   0  0  0  0  0  0  0  0  0  0  0  0
   19.2509  -18.1751  -12.6675 N   0  0  0  0  0  0  0  0  0  0  0  0
   20.3061  -18.5094  -13.5678 C   0  0  0  0  0  0  0  0  0  0  0  0
   20.1579  -18.1194  -14.7493 O   0  0  0  0  0  0  0  0  0  0  0  0
   21.4901  -19.2647  -13.1258 C   0  0  0  0  0  0  0  0  0  0  0  0
   21.2097  -20.6613  -12.6678 C   0  0  2  0  0  0  0  0  0  0  0  0
   22.4671  -21.3500  -12.3392 N   0  0  0  0  0  0  0  0  0  0  0  0
   20.4950  -21.4872  -13.6857 C   0  0  0  0  0  0  0  0  0  0  0  0
   19.1462  -21.7260  -13.7169 O   0  0  0  0  0  0  0  0  0  0  0  0
   21.2327  -22.0059  -14.5974 O   0  0  0  0  0  0  0  0  0  0  0  0
  2  3  2  0
  2  1  1  0
  4  2  1  0
  5  6  1  6
  5  4  1  0
  7  5  1  0
  8  7  2  0
  9 13  1  0
  9  7  1  0
 10 11  1  0
 10  9  1  0
 11 12  1  0
 12 13  1  0
 14 15  2  0
 13 14  1  1
 16 17  1  0
 17 18  2  0
 17 19  1  0
 20 19  1  6
 20 21  1  0
 20 22  1  0
 21 14  1  0
 22 23  1  0
 24 22  2  0
M  END
$$$$
