NPN.pdb
     RDKit          3D

 24 24  0  0  1  0  0  0  0  0999 V2000
   18.0582  -18.7915    0.7858 N   0  0  0  0  0  0  0  0  0  0  0  0
   17.9524  -18.6484    2.1878 C   0  0  0  0  0  0  0  0  0  0  0  0
   17.7227  -19.6787    2.8828 O   0  0  0  0  0  0  0  0  0  0  0  0
   18.0921  -17.3665    2.9168 C   0  0  0  0  0  0  0  0  0  0  0  0
   16.7045  -16.9409    3.4121 C   0  0  2  0  0  0  0  0  0  0  0  0
   15.7782  -16.8387    2.3275 N   0  0  0  0  0  0  0  0  0  0  0  0
   16.8041  -15.6885    4.1984 C   0  0  0  0  0  0  0  0  0  0  0  0
   16.8719  -14.6248    3.4808 O   0  0  0  0  0  0  0  0  0  0  0  0
   16.8268  -15.6059    5.6048 N   0  0  0  0  0  0  0  0  0  0  0  0
   16.7274  -16.7267    6.5050 C   0  0  0  0  0  0  0  0  0  0  0  0
   16.8672  -16.1865    7.9097 C   0  0  0  0  0  0  0  0  0  0  0  0
   16.3871  -14.7540    7.7571 C   0  0  0  0  0  0  0  0  0  0  0  0
   16.9515  -14.4183    6.3813 C   0  0  1  0  0  0  0  0  0  0  0  0
   18.3658  -14.0227    6.6275 C   0  0  0  0  0  0  0  0  0  0  0  0
   19.2065  -14.9575    6.6629 O   0  0  0  0  0  0  0  0  0  0  0  0
   22.8736  -11.2910    6.8984 N   0  0  0  0  0  0  0  0  0  0  0  0
   21.7987  -10.4402    6.5026 C   0  0  0  0  0  0  0  0  0  0  0  0
   22.1127   -9.2594    6.2247 O   0  0  0  0  0  0  0  0  0  0  0  0
   20.4120  -10.9293    6.4283 C   0  0  0  0  0  0  0  0  0  0  0  0
   20.1987  -12.3013    6.9859 C   0  0  2  0  0  0  0  0  0  0  0  0
   18.7952  -12.7066    6.8145 N   0  0  0  0  0  0  0  0  0  0  0  0
   20.5256  -12.4086    8.4388 C   0  0  0  0  0  0  0  0  0  0  0  0
   19.6365  -12.7062    9.4379 O   0  0  0  0  0  0  0  0  0  0  0  0
   21.7519  -12.1986    8.7491 O   0  0  0  0  0  0  0  0  0  0  0  0
  2  3  2  0
  2  1  1  0
  4  2  1  0
  5  6  1  6
  5  4  1  0
  7  5  1  0
  8  7  2  0
  9 13  1  0
  9  7  1  0
 10 11  1  0
 10  9  1  0
 11 12  1  0
 12 13  1  0
 14 15  2  0
 13 14  1  1
 16 17  1  0
 17 18  2  0
 17 19  1  0
 20 19  1  1
 20 21  1  0
 20 22  1  0
 21 14  1  0
 22 23  1  0
 24 22  2  0
M  END
$$$$
