NPN.pdb
     RDKit          3D

 24 24  0  0  1  0  0  0  0  0999 V2000
   29.3764  -19.2497  -16.7390 N   0  0  0  0  0  0  0  0  0  0  0  0
   28.2773  -18.4722  -16.3094 C   0  0  0  0  0  0  0  0  0  0  0  0
   28.2845  -17.2322  -16.5539 O   0  0  0  0  0  0  0  0  0  0  0  0
   27.1003  -19.0049  -15.5847 C   0  0  0  0  0  0  0  0  0  0  0  0
   27.3306  -20.4987  -15.3252 C   0  0  2  0  0  0  0  0  0  0  0  0
   27.6170  -21.1956  -16.5406 N   0  0  0  0  0  0  0  0  0  0  0  0
   26.1767  -21.0747  -14.5947 C   0  0  0  0  0  0  0  0  0  0  0  0
   25.3086  -21.6426  -15.3530 O   0  0  0  0  0  0  0  0  0  0  0  0
   25.9912  -21.0358  -13.1985 N   0  0  0  0  0  0  0  0  0  0  0  0
   26.8787  -20.3978  -12.2596 C   0  0  0  0  0  0  0  0  0  0  0  0
   26.2578  -20.5402  -10.8889 C   0  0  0  0  0  0  0  0  0  0  0  0
   25.4104  -21.7906  -11.0435 C   0  0  0  0  0  0  0  0  0  0  0  0
   24.9091  -21.6102  -12.4718 C   0  0  1  0  0  0  0  0  0  0  0  0
   23.7313  -20.7060  -12.3589 C   0  0  0  0  0  0  0  0  0  0  0  0
   23.9773  -19.5049  -12.0786 O   0  0  0  0  0  0  0  0  0  0  0  0
   20.5169  -18.8558  -16.3704 N   0  0  0  0  0  0  0  0  0  0  0  0
   20.8488  -18.6942  -14.9921 C   0  0  0  0  0  0  0  0  0  0  0  0
   20.2428  -17.7776  -14.3899 O   0  0  0  0  0  0  0  0  0  0  0  0
   21.8417  -19.5559  -14.3294 C   0  0  0  0  0  0  0  0  0  0  0  0
   21.3450  -20.2620  -13.1072 C   0  0  2  0  0  0  0  0  0  0  0  0
   22.4068  -21.1098  -12.5439 N   0  0  0  0  0  0  0  0  0  0  0  0
   20.1606  -21.1335  -13.3657 C   0  0  0  0  0  0  0  0  0  0  0  0
   20.1449  -22.2427  -14.1698 O   0  0  0  0  0  0  0  0  0  0  0  0
   19.0779  -20.7897  -12.7708 O   0  0  0  0  0  0  0  0  0  0  0  0
  2  3  2  0
  2  1  1  0
  4  2  1  0
  5  6  1  6
  5  4  1  0
  7  5  1  0
  8  7  2  0
  9 13  1  0
  9  7  1  0
 10 11  1  0
 10  9  1  0
 11 12  1  0
 12 13  1  0
 14 15  2  0
 13 14  1  1
 16 17  1  0
 17 18  2  0
 17 19  1  0
 20 19  1  6
 20 21  1  0
 20 22  1  0
 21 14  1  0
 22 23  1  0
 24 22  2  0
M  END
$$$$
