NPN.pdb
     RDKit          3D

 24 24  0  0  1  0  0  0  0  0999 V2000
   25.4942  -16.9923  -20.6557 N   0  0  0  0  0  0  0  0  0  0  0  0
   26.8408  -16.5658  -20.6130 C   0  0  0  0  0  0  0  0  0  0  0  0
   27.6970  -17.2053  -21.2878 O   0  0  0  0  0  0  0  0  0  0  0  0
   27.3343  -15.4106  -19.8279 C   0  0  0  0  0  0  0  0  0  0  0  0
   28.4499  -15.9024  -18.8975 C   0  0  2  0  0  0  0  0  0  0  0  0
   27.9655  -16.8975  -17.9919 N   0  0  0  0  0  0  0  0  0  0  0  0
   29.0788  -14.7546  -18.2020 C   0  0  0  0  0  0  0  0  0  0  0  0
   28.4376  -14.3589  -17.1612 O   0  0  0  0  0  0  0  0  0  0  0  0
   30.2696  -14.1128  -18.5961 N   0  0  0  0  0  0  0  0  0  0  0  0
   31.0132  -14.4041  -19.7954 C   0  0  0  0  0  0  0  0  0  0  0  0
   32.1720  -13.4353  -19.8502 C   0  0  0  0  0  0  0  0  0  0  0  0
   32.3872  -13.1016  -18.3846 C   0  0  0  0  0  0  0  0  0  0  0  0
   30.9446  -13.0743  -17.8925 C   0  0  1  0  0  0  0  0  0  0  0  0
   30.4442  -11.7133  -18.2313 C   0  0  0  0  0  0  0  0  0  0  0  0
   30.1870  -11.5014  -19.4440 O   0  0  0  0  0  0  0  0  0  0  0  0
   27.0385  -11.0111  -15.6099 N   0  0  0  0  0  0  0  0  0  0  0  0
   27.3620  -10.1463  -16.6977 C   0  0  0  0  0  0  0  0  0  0  0  0
   26.6455  -10.2643  -17.7188 O   0  0  0  0  0  0  0  0  0  0  0  0
   28.4695   -9.1798  -16.6147 C   0  0  0  0  0  0  0  0  0  0  0  0
   29.5812   -9.4125  -17.5887 C   0  0  2  0  0  0  0  0  0  0  0  0
   30.2501  -10.6903  -17.3000 N   0  0  0  0  0  0  0  0  0  0  0  0
   30.6224   -8.3427  -17.5673 C   0  0  0  0  0  0  0  0  0  0  0  0
   31.9248   -8.5030  -17.1730 O   0  0  0  0  0  0  0  0  0  0  0  0
   30.2358   -7.1836  -17.9563 O   0  0  0  0  0  0  0  0  0  0  0  0
  2  3  2  0
  2  1  1  0
  4  2  1  0
  5  6  1  1
  5  4  1  0
  7  5  1  0
  8  7  2  0
  9 13  1  0
  9  7  1  0
 10 11  1  0
 10  9  1  0
 11 12  1  0
 12 13  1  0
 14 15  2  0
 13 14  1  6
 16 17  1  0
 17 18  2  0
 17 19  1  0
 20 19  1  1
 20 21  1  0
 20 22  1  0
 21 14  1  0
 22 23  1  0
 24 22  2  0
M  END
$$$$
