NPN.pdb
     RDKit          3D

 24 24  0  0  1  0  0  0  0  0999 V2000
   15.5099  -21.4689    1.8432 N   0  0  0  0  0  0  0  0  0  0  0  0
   16.6283  -21.6296    2.6921 C   0  0  0  0  0  0  0  0  0  0  0  0
   17.2332  -22.7393    2.6880 O   0  0  0  0  0  0  0  0  0  0  0  0
   17.1547  -20.5835    3.5993 C   0  0  0  0  0  0  0  0  0  0  0  0
   16.2575  -19.3456    3.4783 C   0  0  2  0  0  0  0  0  0  0  0  0
   16.1498  -18.9172    2.1182 N   0  0  0  0  0  0  0  0  0  0  0  0
   16.7422  -18.2727    4.3787 C   0  0  0  0  0  0  0  0  0  0  0  0
   17.6785  -17.5510    3.8750 O   0  0  0  0  0  0  0  0  0  0  0  0
   16.2612  -18.0165    5.6779 N   0  0  0  0  0  0  0  0  0  0  0  0
   15.1839  -18.7259    6.3204 C   0  0  0  0  0  0  0  0  0  0  0  0
   15.0551  -18.1716    7.7206 C   0  0  0  0  0  0  0  0  0  0  0  0
   15.6130  -16.7676    7.5678 C   0  0  0  0  0  0  0  0  0  0  0  0
   16.7450  -17.0259    6.5799 C   0  0  1  0  0  0  0  0  0  0  0  0
   17.8871  -17.4959    7.4119 C   0  0  0  0  0  0  0  0  0  0  0  0
   18.2573  -18.6836    7.2277 O   0  0  0  0  0  0  0  0  0  0  0  0
   22.4189  -17.6322   10.0336 N   0  0  0  0  0  0  0  0  0  0  0  0
   22.2811  -17.1800    8.6874 C   0  0  0  0  0  0  0  0  0  0  0  0
   23.3494  -17.0415    8.0474 O   0  0  0  0  0  0  0  0  0  0  0  0
   20.9621  -16.8975    8.0973 C   0  0  0  0  0  0  0  0  0  0  0  0
   19.8045  -17.0861    9.0264 C   0  0  2  0  0  0  0  0  0  0  0  0
   18.5499  -16.7096    8.3573 N   0  0  0  0  0  0  0  0  0  0  0  0
   19.9097  -16.2775   10.2771 C   0  0  0  0  0  0  0  0  0  0  0  0
   19.5510  -14.9619   10.4105 O   0  0  0  0  0  0  0  0  0  0  0  0
   20.3804  -16.8933   11.2986 O   0  0  0  0  0  0  0  0  0  0  0  0
  2  3  2  0
  2  1  1  0
  4  2  1  0
  5  6  1  6
  5  4  1  0
  7  5  1  0
  8  7  2  0
  9 13  1  0
  9  7  1  0
 10 11  1  0
 10  9  1  0
 11 12  1  0
 12 13  1  0
 14 15  2  0
 13 14  1  1
 16 17  1  0
 17 18  2  0
 17 19  1  0
 20 19  1  6
 20 21  1  0
 20 22  1  0
 21 14  1  0
 22 23  1  0
 24 22  2  0
M  END
$$$$
