NPN.pdb
     RDKit          3D

 24 24  0  0  1  0  0  0  0  0999 V2000
   11.3016  -18.0427    0.6924 N   0  0  0  0  0  0  0  0  0  0  0  0
   11.2856  -18.7985    1.8865 C   0  0  0  0  0  0  0  0  0  0  0  0
   10.1679  -19.1266    2.3769 O   0  0  0  0  0  0  0  0  0  0  0  0
   12.4943  -19.2429    2.6185 C   0  0  0  0  0  0  0  0  0  0  0  0
   13.6778  -19.2347    1.6432 C   0  0  2  0  0  0  0  0  0  0  0  0
   13.4601  -20.1422    0.5597 N   0  0  0  0  0  0  0  0  0  0  0  0
   14.9411  -19.5050    2.3698 C   0  0  0  0  0  0  0  0  0  0  0  0
   15.3274  -20.7290    2.3091 O   0  0  0  0  0  0  0  0  0  0  0  0
   15.6958  -18.5505    3.0801 N   0  0  0  0  0  0  0  0  0  0  0  0
   15.3307  -17.1682    3.2593 C   0  0  0  0  0  0  0  0  0  0  0  0
   16.3853  -16.5369    4.1389 C   0  0  0  0  0  0  0  0  0  0  0  0
   17.5996  -17.4072    3.8673 C   0  0  0  0  0  0  0  0  0  0  0  0
   16.9373  -18.7745    3.7415 C   0  0  1  0  0  0  0  0  0  0  0  0
   16.7790  -19.2598    5.1404 C   0  0  0  0  0  0  0  0  0  0  0  0
   15.7362  -18.8943    5.7410 O   0  0  0  0  0  0  0  0  0  0  0  0
   18.5428  -23.8037    5.5386 N   0  0  0  0  0  0  0  0  0  0  0  0
   17.6570  -22.9797    6.2950 C   0  0  0  0  0  0  0  0  0  0  0  0
   16.4344  -23.1662    6.0936 O   0  0  0  0  0  0  0  0  0  0  0  0
   18.1585  -21.9771    7.2494 C   0  0  0  0  0  0  0  0  0  0  0  0
   17.5088  -20.6331    7.1486 C   0  0  2  0  0  0  0  0  0  0  0  0
   17.7003  -20.0764    5.8006 N   0  0  0  0  0  0  0  0  0  0  0  0
   18.0437  -19.6406    8.1273 C   0  0  0  0  0  0  0  0  0  0  0  0
   17.7044  -19.5626    9.4525 O   0  0  0  0  0  0  0  0  0  0  0  0
   18.8919  -18.8005    7.6591 O   0  0  0  0  0  0  0  0  0  0  0  0
  2  3  2  0
  2  1  1  0
  4  2  1  0
  5  6  1  6
  5  4  1  0
  7  5  1  0
  8  7  2  0
  9 13  1  0
  9  7  1  0
 10 11  1  0
 10  9  1  0
 11 12  1  0
 12 13  1  0
 14 15  2  0
 13 14  1  1
 16 17  1  0
 17 18  2  0
 17 19  1  0
 20 19  1  6
 20 21  1  0
 20 22  1  0
 21 14  1  0
 22 23  1  0
 24 22  2  0
M  END
$$$$
