DDP.pdb
     RDKit          3D

 24 24  0  0  1  0  0  0  0  0999 V2000
    7.7170  -16.5521   19.7538 N   0  0  0  0  0  0  0  0  0  0  0  0
    8.1395  -15.3899   20.4769 C   0  0  1  0  0  0  0  0  0  0  0  0
    7.8651  -14.1448   19.6468 C   0  0  0  0  0  0  0  0  0  0  0  0
    8.7992  -14.0457   18.5062 C   0  0  0  0  0  0  0  0  0  0  0  0
    9.8700  -14.7029   18.5184 O   0  0  0  0  0  0  0  0  0  0  0  0
    7.3441  -15.2796   21.7477 C   0  0  0  0  0  0  0  0  0  0  0  0
    6.1899  -14.8081   21.7547 O   0  0  0  0  0  0  0  0  0  0  0  0
    8.5289  -13.2457   17.4165 O   0  0  0  0  0  0  0  0  0  0  0  0
    7.9135  -15.7172   22.9556 N   0  0  0  0  0  0  0  0  0  0  0  0
    7.1892  -15.6778   24.2382 C   0  0  1  0  0  0  0  0  0  0  0  0
    7.1863  -17.1296   24.7098 C   0  0  0  0  0  0  0  0  0  0  0  0
    6.3404  -17.9954   23.8649 C   0  0  0  0  0  0  0  0  0  0  0  0
    5.1202  -17.7332   23.7673 O   0  0  0  0  0  0  0  0  0  0  0  0
    8.0358  -14.9149   25.1889 C   0  0  0  0  0  0  0  0  0  0  0  0
    9.2834  -15.1842   25.2287 O   0  0  0  0  0  0  0  0  0  0  0  0
    6.8252  -19.0891   23.1697 O   0  0  0  0  0  0  0  0  0  0  0  0
    7.5537  -13.8975   26.0625 N   0  0  0  0  0  0  0  0  0  0  0  0
    6.2222  -13.3450   25.9832 C   0  0  0  0  0  0  0  0  0  0  0  0
    6.3587  -11.9664   26.6368 C   0  0  0  0  0  0  0  0  0  0  0  0
    7.2866  -12.3554   27.7983 C   0  0  0  0  0  0  0  0  0  0  0  0
    8.2663  -13.2501   27.1042 C   0  0  1  0  0  0  0  0  0  0  0  0
    8.9330  -14.1917   28.0381 C   0  0  0  0  0  0  0  0  0  0  0  0
    9.8898  -13.8290   28.9695 O   0  0  0  0  0  0  0  0  0  0  0  0
    8.6015  -15.4016   27.9736 O   0  0  0  0  0  0  0  0  0  0  0  0
  2  1  1  6
  3  2  1  0
  3  4  1  0
  4  8  1  0
  5  4  2  0
  6  7  2  0
  6  2  1  0
  9  6  1  0
 10 14  1  0
 10  9  1  0
 10 11  1  1
 12 16  1  0
 12 11  1  0
 13 12  2  0
 14 17  1  0
 15 14  2  0
 17 21  1  0
 17 18  1  0
 18 19  1  0
 20 19  1  0
 21 20  1  0
 21 22  1  1
 22 24  2  0
 22 23  1  0
M  END
$$$$
