DDP.pdb
     RDKit          3D

 24 24  0  0  1  0  0  0  0  0999 V2000
    9.9026  -16.9481   21.0742 N   0  0  0  0  0  0  0  0  0  0  0  0
    8.9034  -16.0345   20.6060 C   0  0  1  0  0  0  0  0  0  0  0  0
    8.1216  -16.6729   19.4678 C   0  0  0  0  0  0  0  0  0  0  0  0
    9.0122  -17.0422   18.3481 C   0  0  0  0  0  0  0  0  0  0  0  0
    8.9946  -18.2152   17.8981 O   0  0  0  0  0  0  0  0  0  0  0  0
    7.9373  -15.7420   21.7199 C   0  0  0  0  0  0  0  0  0  0  0  0
    6.9102  -15.0614   21.5292 O   0  0  0  0  0  0  0  0  0  0  0  0
    9.8714  -16.1290   17.7751 O   0  0  0  0  0  0  0  0  0  0  0  0
    8.1969  -16.2462   23.0056 N   0  0  0  0  0  0  0  0  0  0  0  0
    7.3356  -15.9541   24.1650 C   0  0  1  0  0  0  0  0  0  0  0  0
    7.2077  -17.2954   24.8821 C   0  0  0  0  0  0  0  0  0  0  0  0
    6.1830  -18.1656   24.2723 C   0  0  0  0  0  0  0  0  0  0  0  0
    6.3223  -19.4071   24.3542 O   0  0  0  0  0  0  0  0  0  0  0  0
    8.1064  -15.0557   25.0601 C   0  0  0  0  0  0  0  0  0  0  0  0
    9.3593  -15.2676   25.1866 O   0  0  0  0  0  0  0  0  0  0  0  0
    5.0689  -17.6815   23.6100 O   0  0  0  0  0  0  0  0  0  0  0  0
    7.5458  -13.9675   25.7897 N   0  0  0  0  0  0  0  0  0  0  0  0
    6.2044  -13.4758   25.5810 C   0  0  0  0  0  0  0  0  0  0  0  0
    6.2623  -12.0302   26.0844 C   0  0  0  0  0  0  0  0  0  0  0  0
    7.1359  -12.2565   27.3283 C   0  0  0  0  0  0  0  0  0  0  0  0
    8.1793  -13.1851   26.7889 C   0  0  1  0  0  0  0  0  0  0  0  0
    8.8217  -13.9946   27.8544 C   0  0  0  0  0  0  0  0  0  0  0  0
    9.7344  -13.5040   28.7715 O   0  0  0  0  0  0  0  0  0  0  0  0
    8.5114  -15.2099   27.9236 O   0  0  0  0  0  0  0  0  0  0  0  0
  2  1  1  1
  3  2  1  0
  3  4  1  0
  4  8  1  0
  5  4  2  0
  6  7  2  0
  6  2  1  0
  9  6  1  0
 10 14  1  0
 10  9  1  0
 10 11  1  1
 12 16  1  0
 12 11  1  0
 13 12  2  0
 14 17  1  0
 15 14  2  0
 17 21  1  0
 17 18  1  0
 18 19  1  0
 20 19  1  0
 21 20  1  0
 21 22  1  1
 22 24  2  0
 22 23  1  0
M  END
$$$$
