DDP.pdb
     RDKit          3D

 24 24  0  0  1  0  0  0  0  0999 V2000
    9.5152  -16.5105   20.8163 N   0  0  0  0  0  0  0  0  0  0  0  0
    8.4436  -15.5995   20.5444 C   0  0  1  0  0  0  0  0  0  0  0  0
    7.5901  -16.1406   19.4072 C   0  0  0  0  0  0  0  0  0  0  0  0
    8.4247  -16.5398   18.2551 C   0  0  0  0  0  0  0  0  0  0  0  0
    7.8834  -16.7818   17.1473 O   0  0  0  0  0  0  0  0  0  0  0  0
    7.5687  -15.4847   21.7614 C   0  0  0  0  0  0  0  0  0  0  0  0
    6.4445  -14.9484   21.7071 O   0  0  0  0  0  0  0  0  0  0  0  0
    9.7944  -16.6559   18.3590 O   0  0  0  0  0  0  0  0  0  0  0  0
    8.0275  -15.9929   22.9886 N   0  0  0  0  0  0  0  0  0  0  0  0
    7.2704  -15.8473   24.2443 C   0  0  1  0  0  0  0  0  0  0  0  0
    7.3293  -17.2346   24.8784 C   0  0  0  0  0  0  0  0  0  0  0  0
    6.4832  -18.2150   24.1698 C   0  0  0  0  0  0  0  0  0  0  0  0
    5.2388  -18.0996   24.2432 O   0  0  0  0  0  0  0  0  0  0  0  0
    8.0533  -14.9380   25.1176 C   0  0  0  0  0  0  0  0  0  0  0  0
    9.3157  -15.1166   25.1894 O   0  0  0  0  0  0  0  0  0  0  0  0
    6.9933  -19.2624   23.4234 O   0  0  0  0  0  0  0  0  0  0  0  0
    7.4945  -13.8739   25.8831 N   0  0  0  0  0  0  0  0  0  0  0  0
    6.1132  -13.4645   25.7879 C   0  0  0  0  0  0  0  0  0  0  0  0
    6.1285  -12.0108   26.2706 C   0  0  0  0  0  0  0  0  0  0  0  0
    7.1186  -12.1674   27.4354 C   0  0  0  0  0  0  0  0  0  0  0  0
    8.1647  -13.0413   26.8156 C   0  0  1  0  0  0  0  0  0  0  0  0
    8.9440  -13.7962   27.8285 C   0  0  0  0  0  0  0  0  0  0  0  0
    8.7402  -15.1278   28.1443 O   0  0  0  0  0  0  0  0  0  0  0  0
    9.8510  -13.1775   28.4390 O   0  0  0  0  0  0  0  0  0  0  0  0
  2  1  1  1
  3  2  1  0
  3  4  1  0
  4  8  1  0
  5  4  2  0
  6  7  2  0
  6  2  1  0
  9  6  1  0
 10 14  1  0
 10  9  1  0
 10 11  1  1
 12 16  1  0
 12 11  1  0
 13 12  2  0
 14 17  1  0
 15 14  2  0
 17 21  1  0
 17 18  1  0
 18 19  1  0
 20 19  1  0
 21 20  1  0
 21 22  1  1
 22 24  2  0
 22 23  1  0
M  END
$$$$
