DDP.pdb
     RDKit          3D

 24 24  0  0  1  0  0  0  0  0999 V2000
   10.5365  -17.6969   13.4942 N   0  0  0  0  0  0  0  0  0  0  0  0
   10.9581  -16.5330   14.2151 C   0  0  1  0  0  0  0  0  0  0  0  0
   11.2868  -15.4170   13.2349 C   0  0  0  0  0  0  0  0  0  0  0  0
   12.6442  -15.5800   12.6742 C   0  0  0  0  0  0  0  0  0  0  0  0
   13.3723  -16.5251   13.0685 O   0  0  0  0  0  0  0  0  0  0  0  0
    9.8335  -16.0580   15.0922 C   0  0  0  0  0  0  0  0  0  0  0  0
    9.0623  -15.1488   14.7271 O   0  0  0  0  0  0  0  0  0  0  0  0
   13.1420  -14.7177   11.7208 O   0  0  0  0  0  0  0  0  0  0  0  0
    9.6464  -16.6512   16.3523 N   0  0  0  0  0  0  0  0  0  0  0  0
    8.5032  -16.3270   17.2237 C   0  0  1  0  0  0  0  0  0  0  0  0
    7.9459  -17.6887   17.6300 C   0  0  0  0  0  0  0  0  0  0  0  0
    7.1809  -18.3320   16.5436 C   0  0  0  0  0  0  0  0  0  0  0  0
    6.2727  -17.6801   15.9801 O   0  0  0  0  0  0  0  0  0  0  0  0
    9.0586  -15.7025   18.4502 C   0  0  0  0  0  0  0  0  0  0  0  0
   10.0707  -16.2557   18.9981 O   0  0  0  0  0  0  0  0  0  0  0  0
    7.4137  -19.6252   16.1105 O   0  0  0  0  0  0  0  0  0  0  0  0
    8.5419  -14.5233   19.0609 N   0  0  0  0  0  0  0  0  0  0  0  0
    7.4399  -13.7636   18.5197 C   0  0  0  0  0  0  0  0  0  0  0  0
    7.6385  -12.3625   19.1063 C   0  0  0  0  0  0  0  0  0  0  0  0
    8.0612  -12.7677   20.5271 C   0  0  0  0  0  0  0  0  0  0  0  0
    9.0087  -13.8915   20.2420 C   0  0  1  0  0  0  0  0  0  0  0  0
    9.1492  -14.8189   21.3924 C   0  0  0  0  0  0  0  0  0  0  0  0
    8.5663  -16.0716   21.4675 O   0  0  0  0  0  0  0  0  0  0  0  0
    9.8472  -14.4340   22.3633 O   0  0  0  0  0  0  0  0  0  0  0  0
  2  1  1  6
  3  2  1  0
  3  4  1  0
  4  8  1  0
  5  4  2  0
  6  7  2  0
  6  2  1  0
  9  6  1  0
 10 14  1  0
 10  9  1  0
 10 11  1  1
 12 16  1  0
 12 11  1  0
 13 12  2  0
 14 17  1  0
 15 14  2  0
 17 21  1  0
 17 18  1  0
 18 19  1  0
 20 19  1  0
 21 20  1  0
 21 22  1  1
 22 24  2  0
 22 23  1  0
M  END
$$$$
