DDP.pdb
     RDKit          3D

 24 24  0  0  1  0  0  0  0  0999 V2000
    7.7410  -16.3231   19.7422 N   0  0  0  0  0  0  0  0  0  0  0  0
    8.0416  -15.0565   20.3401 C   0  0  1  0  0  0  0  0  0  0  0  0
    7.5679  -13.9358   19.4267 C   0  0  0  0  0  0  0  0  0  0  0  0
    8.2872  -13.9573   18.1362 C   0  0  0  0  0  0  0  0  0  0  0  0
    9.5394  -14.0600   18.1221 O   0  0  0  0  0  0  0  0  0  0  0  0
    7.2996  -14.9334   21.6416 C   0  0  0  0  0  0  0  0  0  0  0  0
    6.2177  -14.3185   21.7188 O   0  0  0  0  0  0  0  0  0  0  0  0
    7.6194  -13.8675   16.9336 O   0  0  0  0  0  0  0  0  0  0  0  0
    7.8368  -15.5240   22.7980 N   0  0  0  0  0  0  0  0  0  0  0  0
    7.1336  -15.5239   24.0929 C   0  0  1  0  0  0  0  0  0  0  0  0
    7.1166  -16.9927   24.5083 C   0  0  0  0  0  0  0  0  0  0  0  0
    6.1729  -17.7950   23.7053 C   0  0  0  0  0  0  0  0  0  0  0  0
    4.9471  -17.6918   23.9375 O   0  0  0  0  0  0  0  0  0  0  0  0
    8.0064  -14.8105   25.0583 C   0  0  0  0  0  0  0  0  0  0  0  0
    9.2538  -15.0838   25.0529 O   0  0  0  0  0  0  0  0  0  0  0  0
    6.5712  -18.6615   22.7029 O   0  0  0  0  0  0  0  0  0  0  0  0
    7.5498  -13.8366   25.9929 N   0  0  0  0  0  0  0  0  0  0  0  0
    6.2158  -13.2846   25.9801 C   0  0  0  0  0  0  0  0  0  0  0  0
    6.3703  -11.9378   26.6934 C   0  0  0  0  0  0  0  0  0  0  0  0
    7.3337  -12.3784   27.8067 C   0  0  0  0  0  0  0  0  0  0  0  0
    8.2929  -13.2369   27.0418 C   0  0  1  0  0  0  0  0  0  0  0  0
    8.9889  -14.2194   27.9097 C   0  0  0  0  0  0  0  0  0  0  0  0
   10.0081  -13.9056   28.7915 O   0  0  0  0  0  0  0  0  0  0  0  0
    8.6231  -15.4188   27.8340 O   0  0  0  0  0  0  0  0  0  0  0  0
  2  1  1  6
  3  2  1  0
  3  4  1  0
  4  8  1  0
  5  4  2  0
  6  7  2  0
  6  2  1  0
  9  6  1  0
 10 14  1  0
 10  9  1  0
 10 11  1  1
 12 16  1  0
 12 11  1  0
 13 12  2  0
 14 17  1  0
 15 14  2  0
 17 21  1  0
 17 18  1  0
 18 19  1  0
 20 19  1  0
 21 20  1  0
 21 22  1  1
 22 24  2  0
 22 23  1  0
M  END
$$$$
