WLM.pdb
     RDKit          3D

 31 32  0  0  1  0  0  0  0  0999 V2000
    6.4334  -17.8753   25.2371 N   0  0  0  0  0  0  0  0  0  0  0  0
    6.8384  -16.5703   24.7610 C   0  0  1  0  0  0  0  0  0  0  0  0
    8.1440  -16.1755   25.4153 C   0  0  0  0  0  0  0  0  0  0  0  0
    8.0014  -15.1763   26.4768 C   0  0  0  0  0  0  0  0  0  0  0  0
    8.0573  -15.4548   27.8324 C   0  0  0  0  0  0  0  0  0  0  0  0
    7.8895  -14.3065   28.5013 N   0  0  0  0  0  0  0  0  0  0  0  0
    7.7247  -13.2808   27.6146 C   0  0  0  0  0  0  0  0  0  0  0  0
    7.5199  -11.9251   27.7954 C   0  0  0  0  0  0  0  0  0  0  0  0
    7.3881  -11.1367   26.6724 C   0  0  0  0  0  0  0  0  0  0  0  0
    7.4612  -11.7016   25.4044 C   0  0  0  0  0  0  0  0  0  0  0  0
    7.6649  -13.0509   25.2118 C   0  0  0  0  0  0  0  0  0  0  0  0
    7.7964  -13.8376   26.3483 C   0  0  0  0  0  0  0  0  0  0  0  0
    7.0959  -16.6609   23.3138 C   0  0  0  0  0  0  0  0  0  0  0  0
    6.9689  -17.7323   22.7192 O   0  0  0  0  0  0  0  0  0  0  0  0
    7.5387  -12.4199   18.9376 C   0  0  0  0  0  0  0  0  0  0  0  0
    7.8740  -13.9134   19.1858 C   0  0  1  0  0  0  0  0  0  0  0  0
    9.3032  -14.0438   18.7564 C   0  0  0  0  0  0  0  0  0  0  0  0
    7.5863  -14.1425   20.6147 C   0  0  0  0  0  0  0  0  0  0  0  0
    7.7731  -15.4848   21.1942 C   0  0  2  0  0  0  0  0  0  0  0  0
    7.4937  -15.5121   22.5905 N   0  0  0  0  0  0  0  0  0  0  0  0
    9.0409  -16.1488   20.8226 C   0  0  0  0  0  0  0  0  0  0  0  0
    9.2432  -16.6980   19.7049 O   0  0  0  0  0  0  0  0  0  0  0  0
   14.0807  -13.3630   19.8570 C   0  0  0  0  0  0  0  0  0  0  0  0
   14.2926  -15.0977   19.4190 S   0  0  0  0  0  0  0  0  0  0  0  0
   12.8229  -16.0838   19.7372 C   0  0  0  0  0  0  0  0  0  0  0  0
   12.5004  -16.0402   21.2130 C   0  0  0  0  0  0  0  0  0  0  0  0
   11.3305  -16.9292   21.5605 C   0  0  2  0  0  0  0  0  0  0  0  0
   10.1242  -16.1966   21.7451 N   0  0  0  0  0  0  0  0  0  0  0  0
   11.6879  -17.7427   22.7697 C   0  0  0  0  0  0  0  0  0  0  0  0
   12.6902  -18.4954   22.7141 O   0  0  0  0  0  0  0  0  0  0  0  0
   10.9667  -17.6977   23.9292 O   0  0  0  0  0  0  0  0  0  0  0  0
  2 13  1  0
  2  1  1  1
  3  2  1  0
  4  3  1  0
  4  5  2  0
  6  5  1  0
  7 12  2  0
  7  6  1  0
  8  7  1  0
  9 10  1  0
  9  8  2  0
 10 11  2  0
 11 12  1  0
 12  4  1  0
 13 14  2  0
 16 15  1  1
 17 16  1  0
 18 16  1  0
 19 18  1  1
 20 19  1  0
 20 13  1  0
 21 19  1  0
 21 22  2  0
 23 24  1  0
 25 26  1  0
 25 24  1  0
 27 26  1  1
 27 28  1  0
 27 29  1  0
 28 21  1  0
 29 30  2  0
 29 31  1  0
M  END
$$$$
