WLM.pdb
     RDKit          3D

 31 32  0  0  1  0  0  0  0  0999 V2000
    6.2814  -17.2892   24.8296 N   0  0  0  0  0  0  0  0  0  0  0  0
    6.9379  -16.2090   24.1254 C   0  0  1  0  0  0  0  0  0  0  0  0
    8.2195  -15.8433   24.8412 C   0  0  0  0  0  0  0  0  0  0  0  0
    8.0182  -15.0606   26.0628 C   0  0  0  0  0  0  0  0  0  0  0  0
    8.0653  -15.5790   27.3463 C   0  0  0  0  0  0  0  0  0  0  0  0
    7.8385  -14.5794   28.2085 N   0  0  0  0  0  0  0  0  0  0  0  0
    7.6437  -13.4164   27.5192 C   0  0  0  0  0  0  0  0  0  0  0  0
    7.3786  -12.1254   27.9382 C   0  0  0  0  0  0  0  0  0  0  0  0
    7.2305  -11.1514   26.9742 C   0  0  0  0  0  0  0  0  0  0  0  0
    7.3470  -11.4725   25.6267 C   0  0  0  0  0  0  0  0  0  0  0  0
    7.6109  -12.7550   25.1972 C   0  0  0  0  0  0  0  0  0  0  0  0
    7.7584  -13.7299   26.1748 C   0  0  0  0  0  0  0  0  0  0  0  0
    7.3184  -16.6886   22.7860 C   0  0  0  0  0  0  0  0  0  0  0  0
    7.4479  -17.8933   22.5637 O   0  0  0  0  0  0  0  0  0  0  0  0
    8.2084  -12.7598   18.6194 C   0  0  0  0  0  0  0  0  0  0  0  0
    8.5715  -13.7126   19.7876 C   0  0  1  0  0  0  0  0  0  0  0  0
    8.1336  -12.9716   21.0136 C   0  0  0  0  0  0  0  0  0  0  0  0
    7.8700  -14.9759   19.4891 C   0  0  0  0  0  0  0  0  0  0  0  0
    7.9715  -16.1099   20.4253 C   0  0  2  0  0  0  0  0  0  0  0  0
    7.5398  -15.7647   21.7379 N   0  0  0  0  0  0  0  0  0  0  0  0
    9.2623  -16.8301   20.3878 C   0  0  0  0  0  0  0  0  0  0  0  0
    9.5908  -17.6326   19.4713 O   0  0  0  0  0  0  0  0  0  0  0  0
   14.7549  -13.2697   19.6284 C   0  0  0  0  0  0  0  0  0  0  0  0
   14.1218  -14.9435   19.4193 S   0  0  0  0  0  0  0  0  0  0  0  0
   12.9335  -15.4051   20.6875 C   0  0  0  0  0  0  0  0  0  0  0  0
   12.4423  -16.8101   20.4258 C   0  0  0  0  0  0  0  0  0  0  0  0
   11.4893  -17.2826   21.4975 C   0  0  2  0  0  0  0  0  0  0  0  0
   10.2215  -16.6400   21.4224 N   0  0  0  0  0  0  0  0  0  0  0  0
   12.1400  -17.0934   22.8364 C   0  0  0  0  0  0  0  0  0  0  0  0
   13.2532  -17.6327   23.0462 O   0  0  0  0  0  0  0  0  0  0  0  0
   11.5700  -16.3578   23.8367 O   0  0  0  0  0  0  0  0  0  0  0  0
  2 13  1  0
  2  1  1  1
  3  2  1  0
  4  3  1  0
  4  5  2  0
  6  5  1  0
  7 12  2  0
  7  6  1  0
  8  7  1  0
  9 10  1  0
  9  8  2  0
 10 11  2  0
 11 12  1  0
 12  4  1  0
 13 14  2  0
 16 15  1  6
 17 16  1  0
 18 16  1  0
 19 18  1  6
 20 19  1  0
 20 13  1  0
 21 19  1  0
 21 22  2  0
 23 24  1  0
 25 26  1  0
 25 24  1  0
 27 26  1  6
 27 28  1  0
 27 29  1  0
 28 21  1  0
 29 30  2  0
 29 31  1  0
M  END
$$$$
