WLM.pdb
     RDKit          3D

 31 32  0  0  1  0  0  0  0  0999 V2000
    7.2747  -19.5918   21.5991 N   0  0  0  0  0  0  0  0  0  0  0  0
    7.0301  -19.1280   22.9478 C   0  0  1  0  0  0  0  0  0  0  0  0
    7.7572  -20.0202   23.9295 C   0  0  0  0  0  0  0  0  0  0  0  0
    7.1894  -20.0091   25.2797 C   0  0  0  0  0  0  0  0  0  0  0  0
    5.8705  -20.3058   25.5812 C   0  0  0  0  0  0  0  0  0  0  0  0
    5.7110  -20.1967   26.9067 N   0  0  0  0  0  0  0  0  0  0  0  0
    6.8960  -19.8349   27.4815 C   0  0  0  0  0  0  0  0  0  0  0  0
    7.2522  -19.5970   28.7964 C   0  0  0  0  0  0  0  0  0  0  0  0
    8.5578  -19.2397   29.0570 C   0  0  0  0  0  0  0  0  0  0  0  0
    9.4760  -19.1262   28.0196 C   0  0  0  0  0  0  0  0  0  0  0  0
    9.1328  -19.3607   26.7057 C   0  0  0  0  0  0  0  0  0  0  0  0
    7.8158  -19.7200   26.4522 C   0  0  0  0  0  0  0  0  0  0  0  0
    7.6052  -17.7797   23.0888 C   0  0  0  0  0  0  0  0  0  0  0  0
    8.6500  -17.4788   22.5098 O   0  0  0  0  0  0  0  0  0  0  0  0
    6.8871  -12.5392   24.3094 C   0  0  0  0  0  0  0  0  0  0  0  0
    7.0586  -13.4265   25.5694 C   0  0  1  0  0  0  0  0  0  0  0  0
    6.2047  -12.7609   26.6047 C   0  0  0  0  0  0  0  0  0  0  0  0
    6.6550  -14.7813   25.1467 C   0  0  0  0  0  0  0  0  0  0  0  0
    7.4247  -15.4838   24.1042 C   0  0  2  0  0  0  0  0  0  0  0  0
    6.9590  -16.8134   23.8950 N   0  0  0  0  0  0  0  0  0  0  0  0
    8.8931  -15.3765   24.2406 C   0  0  0  0  0  0  0  0  0  0  0  0
    9.6288  -14.7519   23.4278 O   0  0  0  0  0  0  0  0  0  0  0  0
   11.4102  -13.1522   29.8582 C   0  0  0  0  0  0  0  0  0  0  0  0
   10.0892  -14.0464   29.0207 S   0  0  0  0  0  0  0  0  0  0  0  0
   10.6897  -15.4437   28.0612 C   0  0  0  0  0  0  0  0  0  0  0  0
   11.2492  -14.9462   26.7484 C   0  0  0  0  0  0  0  0  0  0  0  0
   10.9526  -15.8965   25.6132 C   0  0  2  0  0  0  0  0  0  0  0  0
    9.5603  -15.9965   25.3347 N   0  0  0  0  0  0  0  0  0  0  0  0
   11.5621  -17.2303   25.9315 C   0  0  0  0  0  0  0  0  0  0  0  0
   12.8062  -17.3045   26.0761 O   0  0  0  0  0  0  0  0  0  0  0  0
   10.8180  -18.3677   26.0704 O   0  0  0  0  0  0  0  0  0  0  0  0
  2 13  1  0
  2  1  1  6
  3  2  1  0
  4  3  1  0
  4  5  2  0
  6  5  1  0
  7 12  2  0
  7  6  1  0
  8  7  1  0
  9 10  1  0
  9  8  2  0
 10 11  2  0
 11 12  1  0
 12  4  1  0
 13 14  2  0
 16 15  1  6
 17 16  1  0
 18 16  1  0
 19 18  1  1
 20 19  1  0
 20 13  1  0
 21 19  1  0
 21 22  2  0
 23 24  1  0
 25 26  1  0
 25 24  1  0
 27 26  1  1
 27 28  1  0
 27 29  1  0
 28 21  1  0
 29 30  2  0
 29 31  1  0
M  END
$$$$
