WLM.pdb
     RDKit          3D

 31 32  0  0  1  0  0  0  0  0999 V2000
    7.6761  -18.2215   22.1837 N   0  0  0  0  0  0  0  0  0  0  0  0
    8.9593  -17.7452   21.7143 C   0  0  1  0  0  0  0  0  0  0  0  0
    8.8802  -17.4556   20.2316 C   0  0  0  0  0  0  0  0  0  0  0  0
    8.5087  -18.6143   19.4162 C   0  0  0  0  0  0  0  0  0  0  0  0
    7.3140  -18.7414   18.7272 C   0  0  0  0  0  0  0  0  0  0  0  0
    7.3208  -19.9221   18.0947 N   0  0  0  0  0  0  0  0  0  0  0  0
    8.4936  -20.5726   18.3535 C   0  0  0  0  0  0  0  0  0  0  0  0
    8.9802  -21.8010   17.9451 C   0  0  0  0  0  0  0  0  0  0  0  0
   10.2284  -22.1811   18.3896 C   0  0  0  0  0  0  0  0  0  0  0  0
   10.9630  -21.3446   19.2219 C   0  0  0  0  0  0  0  0  0  0  0  0
   10.4887  -20.1185   19.6353 C   0  0  0  0  0  0  0  0  0  0  0  0
    9.2306  -19.7436   19.1831 C   0  0  0  0  0  0  0  0  0  0  0  0
    9.2560  -16.4676   22.3840 C   0  0  0  0  0  0  0  0  0  0  0  0
   10.1906  -15.7612   22.0032 O   0  0  0  0  0  0  0  0  0  0  0  0
    5.4642  -13.2945   25.2442 C   0  0  0  0  0  0  0  0  0  0  0  0
    6.5268  -13.7465   24.2093 C   0  0  1  0  0  0  0  0  0  0  0  0
    6.9011  -12.4845   23.4943 C   0  0  0  0  0  0  0  0  0  0  0  0
    7.5860  -14.3999   25.0020 C   0  0  0  0  0  0  0  0  0  0  0  0
    8.7795  -14.9402   24.3267 C   0  0  2  0  0  0  0  0  0  0  0  0
    8.4660  -16.0387   23.4762 N   0  0  0  0  0  0  0  0  0  0  0  0
    9.9379  -15.1795   25.2140 C   0  0  0  0  0  0  0  0  0  0  0  0
   10.7545  -14.2814   25.5583 O   0  0  0  0  0  0  0  0  0  0  0  0
   10.3459  -12.6724   29.9199 C   0  0  0  0  0  0  0  0  0  0  0  0
   10.8951  -14.3743   29.7003 S   0  0  0  0  0  0  0  0  0  0  0  0
   10.1326  -15.1777   28.2837 C   0  0  0  0  0  0  0  0  0  0  0  0
   10.7218  -16.5590   28.1143 C   0  0  0  0  0  0  0  0  0  0  0  0
   11.1839  -16.8047   26.6980 C   0  0  2  0  0  0  0  0  0  0  0  0
   10.1873  -16.4808   25.7347 N   0  0  0  0  0  0  0  0  0  0  0  0
   11.6399  -18.2295   26.5817 C   0  0  0  0  0  0  0  0  0  0  0  0
   11.0665  -19.1036   27.2756 O   0  0  0  0  0  0  0  0  0  0  0  0
   12.6542  -18.6146   25.7513 O   0  0  0  0  0  0  0  0  0  0  0  0
  2 13  1  0
  2  1  1  1
  3  2  1  0
  4  3  1  0
  4  5  2  0
  6  5  1  0
  7 12  2  0
  7  6  1  0
  8  7  1  0
  9 10  1  0
  9  8  2  0
 10 11  2  0
 11 12  1  0
 12  4  1  0
 13 14  2  0
 16 15  1  1
 17 16  1  0
 18 16  1  0
 19 18  1  1
 20 19  1  0
 20 13  1  0
 21 19  1  0
 21 22  2  0
 23 24  1  0
 25 26  1  0
 25 24  1  0
 27 26  1  1
 27 28  1  0
 27 29  1  0
 28 21  1  0
 29 30  2  0
 29 31  1  0
M  END
$$$$
