WLM.pdb
     RDKit          3D

 31 32  0  0  1  0  0  0  0  0999 V2000
    8.3804  -19.2718   22.5852 N   0  0  0  0  0  0  0  0  0  0  0  0
    8.1270  -18.2752   21.5671 C   0  0  1  0  0  0  0  0  0  0  0  0
    6.7718  -18.5233   20.9422 C   0  0  0  0  0  0  0  0  0  0  0  0
    6.5742  -19.8962   20.4713 C   0  0  0  0  0  0  0  0  0  0  0  0
    5.5774  -20.7465   20.9205 C   0  0  0  0  0  0  0  0  0  0  0  0
    5.7002  -21.9122   20.2723 N   0  0  0  0  0  0  0  0  0  0  0  0
    6.7554  -21.8456   19.4076 C   0  0  0  0  0  0  0  0  0  0  0  0
    7.2886  -22.7675   18.5254 C   0  0  0  0  0  0  0  0  0  0  0  0
    8.3813  -22.3869   17.7763 C   0  0  0  0  0  0  0  0  0  0  0  0
    8.9191  -21.1126   17.9145 C   0  0  0  0  0  0  0  0  0  0  0  0
    8.3964  -20.1856   18.7901 C   0  0  0  0  0  0  0  0  0  0  0  0
    7.2960  -20.5773   19.5408 C   0  0  0  0  0  0  0  0  0  0  0  0
    8.0639  -16.9535   22.2135 C   0  0  0  0  0  0  0  0  0  0  0  0
    7.1754  -16.1525   21.9197 O   0  0  0  0  0  0  0  0  0  0  0  0
    5.9184  -13.5130   25.0124 C   0  0  0  0  0  0  0  0  0  0  0  0
    6.8874  -13.9610   23.8878 C   0  0  1  0  0  0  0  0  0  0  0  0
    7.6642  -12.7230   23.5595 C   0  0  0  0  0  0  0  0  0  0  0  0
    7.6469  -15.0901   24.4582 C   0  0  0  0  0  0  0  0  0  0  0  0
    8.9982  -15.3940   23.9540 C   0  0  2  0  0  0  0  0  0  0  0  0
    9.0285  -16.5908   23.1825 N   0  0  0  0  0  0  0  0  0  0  0  0
   10.0716  -15.3054   24.9670 C   0  0  0  0  0  0  0  0  0  0  0  0
   10.8366  -14.3099   25.0925 O   0  0  0  0  0  0  0  0  0  0  0  0
   10.6490  -14.4093   30.7977 C   0  0  0  0  0  0  0  0  0  0  0  0
    9.5612  -13.8973   29.4557 S   0  0  0  0  0  0  0  0  0  0  0  0
    9.7962  -14.8639   27.9577 C   0  0  0  0  0  0  0  0  0  0  0  0
   11.0866  -15.6435   28.0619 C   0  0  0  0  0  0  0  0  0  0  0  0
   11.3572  -16.4542   26.8172 C   0  0  2  0  0  0  0  0  0  0  0  0
   10.2930  -16.3793   25.8750 N   0  0  0  0  0  0  0  0  0  0  0  0
   11.6560  -17.8683   27.2205 C   0  0  0  0  0  0  0  0  0  0  0  0
   10.8822  -18.7794   26.8393 O   0  0  0  0  0  0  0  0  0  0  0  0
   12.7365  -18.2050   27.9861 O   0  0  0  0  0  0  0  0  0  0  0  0
  2 13  1  0
  2  1  1  1
  3  2  1  0
  4  3  1  0
  4  5  2  0
  6  5  1  0
  7 12  2  0
  7  6  1  0
  8  7  1  0
  9 10  1  0
  9  8  2  0
 10 11  2  0
 11 12  1  0
 12  4  1  0
 13 14  2  0
 16 15  1  1
 17 16  1  0
 18 16  1  0
 19 18  1  1
 20 19  1  0
 20 13  1  0
 21 19  1  0
 21 22  2  0
 23 24  1  0
 25 26  1  0
 25 24  1  0
 27 26  1  1
 27 28  1  0
 27 29  1  0
 28 21  1  0
 29 30  2  0
 29 31  1  0
M  END
$$$$
