WLM.pdb
     RDKit          3D

 31 32  0  0  1  0  0  0  0  0999 V2000
    6.0499  -19.6708   23.0231 N   0  0  0  0  0  0  0  0  0  0  0  0
    6.4750  -19.0417   24.2550 C   0  0  1  0  0  0  0  0  0  0  0  0
    7.6510  -19.7995   24.8306 C   0  0  0  0  0  0  0  0  0  0  0  0
    7.4900  -20.1712   26.2382 C   0  0  0  0  0  0  0  0  0  0  0  0
    6.5860  -21.1107   26.7057 C   0  0  0  0  0  0  0  0  0  0  0  0
    6.7185  -21.1912   28.0361 N   0  0  0  0  0  0  0  0  0  0  0  0
    7.6895  -20.3253   28.4521 C   0  0  0  0  0  0  0  0  0  0  0  0
    8.1954  -20.0351   29.7060 C   0  0  0  0  0  0  0  0  0  0  0  0
    9.1949  -19.0901   29.7959 C   0  0  0  0  0  0  0  0  0  0  0  0
    9.6690  -18.4573   28.6527 C   0  0  0  0  0  0  0  0  0  0  0  0
    9.1728  -18.7381   27.3982 C   0  0  0  0  0  0  0  0  0  0  0  0
    8.1662  -19.6910   27.3166 C   0  0  0  0  0  0  0  0  0  0  0  0
    6.9523  -17.6836   23.9446 C   0  0  0  0  0  0  0  0  0  0  0  0
    7.6619  -17.4773   22.9589 O   0  0  0  0  0  0  0  0  0  0  0  0
    6.5013  -12.2919   24.2166 C   0  0  0  0  0  0  0  0  0  0  0  0
    6.7972  -12.9202   25.6030 C   0  0  1  0  0  0  0  0  0  0  0  0
    6.0660  -12.0381   26.5680 C   0  0  0  0  0  0  0  0  0  0  0  0
    6.3364  -14.3182   25.5008 C   0  0  0  0  0  0  0  0  0  0  0  0
    7.0267  -15.2532   24.5943 C   0  0  2  0  0  0  0  0  0  0  0  0
    6.5982  -16.5987   24.7804 N   0  0  0  0  0  0  0  0  0  0  0  0
    8.4956  -15.0930   24.5406 C   0  0  0  0  0  0  0  0  0  0  0  0
    9.0802  -14.2163   23.8466 O   0  0  0  0  0  0  0  0  0  0  0  0
   12.2740  -13.2836   29.4615 C   0  0  0  0  0  0  0  0  0  0  0  0
   10.6492  -13.9607   29.0769 S   0  0  0  0  0  0  0  0  0  0  0  0
   10.3839  -14.1821   27.3122 C   0  0  0  0  0  0  0  0  0  0  0  0
   11.1482  -15.3970   26.8394 C   0  0  0  0  0  0  0  0  0  0  0  0
   10.7487  -15.8053   25.4417 C   0  0  2  0  0  0  0  0  0  0  0  0
    9.3403  -15.9530   25.2978 N   0  0  0  0  0  0  0  0  0  0  0  0
   11.4883  -17.0591   25.0776 C   0  0  0  0  0  0  0  0  0  0  0  0
   12.7409  -17.0225   25.0151 O   0  0  0  0  0  0  0  0  0  0  0  0
   10.8538  -18.2394   24.8111 O   0  0  0  0  0  0  0  0  0  0  0  0
  2 13  1  0
  2  1  1  6
  3  2  1  0
  4  3  1  0
  4  5  2  0
  6  5  1  0
  7 12  2  0
  7  6  1  0
  8  7  1  0
  9 10  1  0
  9  8  2  0
 10 11  2  0
 11 12  1  0
 12  4  1  0
 13 14  2  0
 16 15  1  6
 17 16  1  0
 18 16  1  0
 19 18  1  1
 20 19  1  0
 20 13  1  0
 21 19  1  0
 21 22  2  0
 23 24  1  0
 25 26  1  0
 25 24  1  0
 27 26  1  1
 27 28  1  0
 27 29  1  0
 28 21  1  0
 29 30  2  0
 29 31  1  0
M  END
$$$$
