WLM.pdb
     RDKit          3D

 31 32  0  0  1  0  0  0  0  0999 V2000
    6.4990  -18.6082   24.2773 N   0  0  0  0  0  0  0  0  0  0  0  0
    6.7962  -17.2179   24.0084 C   0  0  1  0  0  0  0  0  0  0  0  0
    7.2747  -16.5478   25.2775 C   0  0  0  0  0  0  0  0  0  0  0  0
    6.4120  -15.4574   25.7383 C   0  0  0  0  0  0  0  0  0  0  0  0
    5.1769  -15.6318   26.3404 C   0  0  0  0  0  0  0  0  0  0  0  0
    4.6785  -14.4221   26.6277 N   0  0  0  0  0  0  0  0  0  0  0  0
    5.5592  -13.4579   26.2274 C   0  0  0  0  0  0  0  0  0  0  0  0
    5.5146  -12.0774   26.2966 C   0  0  0  0  0  0  0  0  0  0  0  0
    6.5857  -11.3709   25.7930 C   0  0  0  0  0  0  0  0  0  0  0  0
    7.6696  -12.0396   25.2361 C   0  0  0  0  0  0  0  0  0  0  0  0
    7.7254  -13.4145   25.1617 C   0  0  0  0  0  0  0  0  0  0  0  0
    6.6423  -14.1183   25.6711 C   0  0  0  0  0  0  0  0  0  0  0  0
    7.9099  -17.1565   23.0468 C   0  0  0  0  0  0  0  0  0  0  0  0
    8.6919  -18.1012   22.9304 O   0  0  0  0  0  0  0  0  0  0  0  0
    8.1767  -12.3214   20.1709 C   0  0  0  0  0  0  0  0  0  0  0  0
    7.8595  -13.7669   20.6340 C   0  0  1  0  0  0  0  0  0  0  0  0
    6.9656  -14.3073   19.5604 C   0  0  0  0  0  0  0  0  0  0  0  0
    9.1733  -14.4189   20.7950 C   0  0  0  0  0  0  0  0  0  0  0  0
    9.2700  -15.7093   21.5007 C   0  0  2  0  0  0  0  0  0  0  0  0
    8.0921  -16.0057   22.2445 N   0  0  0  0  0  0  0  0  0  0  0  0
   10.5242  -15.9085   22.2580 C   0  0  0  0  0  0  0  0  0  0  0  0
   11.6716  -15.6768   21.7872 O   0  0  0  0  0  0  0  0  0  0  0  0
   10.9464  -14.4312   28.7862 C   0  0  0  0  0  0  0  0  0  0  0  0
   11.7151  -16.0466   28.5724 S   0  0  0  0  0  0  0  0  0  0  0  0
   12.3067  -16.3232   26.8970 C   0  0  0  0  0  0  0  0  0  0  0  0
   11.1719  -16.1058   25.9229 C   0  0  0  0  0  0  0  0  0  0  0  0
   11.5868  -16.3965   24.5005 C   0  0  2  0  0  0  0  0  0  0  0  0
   10.4860  -16.3874   23.5981 N   0  0  0  0  0  0  0  0  0  0  0  0
   12.3286  -17.7006   24.4734 C   0  0  0  0  0  0  0  0  0  0  0  0
   11.8294  -18.6641   23.8437 O   0  0  0  0  0  0  0  0  0  0  0  0
   13.5257  -17.8821   25.1064 O   0  0  0  0  0  0  0  0  0  0  0  0
  2 13  1  0
  2  1  1  1
  3  2  1  0
  4  3  1  0
  4  5  2  0
  6  5  1  0
  7 12  2  0
  7  6  1  0
  8  7  1  0
  9 10  1  0
  9  8  2  0
 10 11  2  0
 11 12  1  0
 12  4  1  0
 13 14  2  0
 16 15  1  6
 17 16  1  0
 18 16  1  0
 19 18  1  1
 20 19  1  0
 20 13  1  0
 21 19  1  0
 21 22  2  0
 23 24  1  0
 25 26  1  0
 25 24  1  0
 27 26  1  1
 27 28  1  0
 27 29  1  0
 28 21  1  0
 29 30  2  0
 29 31  1  0
M  END
$$$$
