WLM.pdb
     RDKit          3D

 31 32  0  0  1  0  0  0  0  0999 V2000
    6.4908  -18.3205   24.4568 N   0  0  0  0  0  0  0  0  0  0  0  0
    6.8368  -16.9339   24.2303 C   0  0  1  0  0  0  0  0  0  0  0  0
    7.3371  -16.3200   25.5193 C   0  0  0  0  0  0  0  0  0  0  0  0
    6.4868  -15.2461   26.0381 C   0  0  0  0  0  0  0  0  0  0  0  0
    5.2296  -15.4338   26.5880 C   0  0  0  0  0  0  0  0  0  0  0  0
    4.7515  -14.2373   26.9540 N   0  0  0  0  0  0  0  0  0  0  0  0
    5.6673  -13.2686   26.6564 C   0  0  0  0  0  0  0  0  0  0  0  0
    5.6537  -11.8969   26.8318 C   0  0  0  0  0  0  0  0  0  0  0  0
    6.7568  -11.1821   26.4167 C   0  0  0  0  0  0  0  0  0  0  0  0
    7.8414  -11.8341   25.8416 C   0  0  0  0  0  0  0  0  0  0  0  0
    7.8664  -13.2001   25.6618 C   0  0  0  0  0  0  0  0  0  0  0  0
    6.7512  -13.9124   26.0825 C   0  0  0  0  0  0  0  0  0  0  0  0
    7.9531  -16.8824   23.2711 C   0  0  0  0  0  0  0  0  0  0  0  0
    8.6914  -17.8559   23.1138 O   0  0  0  0  0  0  0  0  0  0  0  0
    8.4539  -12.0785   20.2908 C   0  0  0  0  0  0  0  0  0  0  0  0
    8.0239  -13.3415   21.0811 C   0  0  1  0  0  0  0  0  0  0  0  0
    6.5785  -13.5185   20.7297 C   0  0  0  0  0  0  0  0  0  0  0  0
    8.9486  -14.4050   20.6442 C   0  0  0  0  0  0  0  0  0  0  0  0
    9.1882  -15.5710   21.5134 C   0  0  2  0  0  0  0  0  0  0  0  0
    8.1882  -15.7081   22.5182 N   0  0  0  0  0  0  0  0  0  0  0  0
   10.5712  -15.6900   22.0228 C   0  0  0  0  0  0  0  0  0  0  0  0
   11.5896  -15.7434   21.2798 O   0  0  0  0  0  0  0  0  0  0  0  0
   10.3487  -13.6930   28.0723 C   0  0  0  0  0  0  0  0  0  0  0  0
   11.3198  -15.2091   28.0039 S   0  0  0  0  0  0  0  0  0  0  0  0
   11.2799  -15.9926   26.3858 C   0  0  0  0  0  0  0  0  0  0  0  0
   12.1064  -15.1805   25.4157 C   0  0  0  0  0  0  0  0  0  0  0  0
   12.1048  -15.7838   24.0315 C   0  0  2  0  0  0  0  0  0  0  0  0
   10.8183  -15.7511   23.4234 N   0  0  0  0  0  0  0  0  0  0  0  0
   12.6552  -17.1773   24.1142 C   0  0  0  0  0  0  0  0  0  0  0  0
   11.8867  -18.1426   23.8867 O   0  0  0  0  0  0  0  0  0  0  0  0
   13.9593  -17.4385   24.4272 O   0  0  0  0  0  0  0  0  0  0  0  0
  2 13  1  0
  2  1  1  1
  3  2  1  0
  4  3  1  0
  4  5  2  0
  6  5  1  0
  7 12  2  0
  7  6  1  0
  8  7  1  0
  9 10  1  0
  9  8  2  0
 10 11  2  0
 11 12  1  0
 12  4  1  0
 13 14  2  0
 16 15  1  6
 17 16  1  0
 18 16  1  0
 19 18  1  1
 20 19  1  0
 20 13  1  0
 21 19  1  0
 21 22  2  0
 23 24  1  0
 25 26  1  0
 25 24  1  0
 27 26  1  1
 27 28  1  0
 27 29  1  0
 28 21  1  0
 29 30  2  0
 29 31  1  0
M  END
$$$$
