WLM.pdb
     RDKit          3D

 31 32  0  0  1  0  0  0  0  0999 V2000
    6.2294  -18.5706   24.3644 N   0  0  0  0  0  0  0  0  0  0  0  0
    6.7522  -17.2309   24.2034 C   0  0  1  0  0  0  0  0  0  0  0  0
    7.3611  -16.7651   25.5076 C   0  0  0  0  0  0  0  0  0  0  0  0
    6.7927  -15.5156   26.0188 C   0  0  0  0  0  0  0  0  0  0  0  0
    5.4932  -15.3710   26.4754 C   0  0  0  0  0  0  0  0  0  0  0  0
    5.3268  -14.1001   26.8644 N   0  0  0  0  0  0  0  0  0  0  0  0
    6.4885  -13.4076   26.6732 C   0  0  0  0  0  0  0  0  0  0  0  0
    6.8296  -12.0887   26.9110 C   0  0  0  0  0  0  0  0  0  0  0  0
    8.1120  -11.6880   26.6031 C   0  0  0  0  0  0  0  0  0  0  0  0
    9.0227  -12.5933   26.0709 C   0  0  0  0  0  0  0  0  0  0  0  0
    8.6944  -13.9098   25.8297 C   0  0  0  0  0  0  0  0  0  0  0  0
    7.4006  -14.3049   26.1425 C   0  0  0  0  0  0  0  0  0  0  0  0
    7.8418  -17.2712   23.2135 C   0  0  0  0  0  0  0  0  0  0  0  0
    8.5052  -18.2965   23.0511 O   0  0  0  0  0  0  0  0  0  0  0  0
    8.2150  -12.8207   19.8345 C   0  0  0  0  0  0  0  0  0  0  0  0
    7.8331  -14.1301   20.5723 C   0  0  1  0  0  0  0  0  0  0  0  0
    6.6462  -14.6432   19.8162 C   0  0  0  0  0  0  0  0  0  0  0  0
    9.0514  -14.9619   20.5402 C   0  0  0  0  0  0  0  0  0  0  0  0
    9.2576  -15.9999   21.5662 C   0  0  2  0  0  0  0  0  0  0  0  0
    8.1376  -16.1266   22.4367 N   0  0  0  0  0  0  0  0  0  0  0  0
   10.5576  -15.9282   22.2670 C   0  0  0  0  0  0  0  0  0  0  0  0
   11.6707  -15.8735   21.6755 O   0  0  0  0  0  0  0  0  0  0  0  0
    9.2192  -13.7481   28.1271 C   0  0  0  0  0  0  0  0  0  0  0  0
   10.3723  -15.1250   28.2703 S   0  0  0  0  0  0  0  0  0  0  0  0
   10.6712  -15.9527   26.7022 C   0  0  0  0  0  0  0  0  0  0  0  0
   11.4671  -15.0401   25.7979 C   0  0  0  0  0  0  0  0  0  0  0  0
   11.7753  -15.6908   24.4708 C   0  0  2  0  0  0  0  0  0  0  0  0
   10.6072  -15.9176   23.6897 N   0  0  0  0  0  0  0  0  0  0  0  0
   12.5409  -16.9566   24.7226 C   0  0  0  0  0  0  0  0  0  0  0  0
   13.6769  -16.8783   25.2494 O   0  0  0  0  0  0  0  0  0  0  0  0
   12.0517  -18.1913   24.4019 O   0  0  0  0  0  0  0  0  0  0  0  0
  2 13  1  0
  2  1  1  1
  3  2  1  0
  4  3  1  0
  4  5  2  0
  6  5  1  0
  7 12  2  0
  7  6  1  0
  8  7  1  0
  9 10  1  0
  9  8  2  0
 10 11  2  0
 11 12  1  0
 12  4  1  0
 13 14  2  0
 16 15  1  6
 17 16  1  0
 18 16  1  0
 19 18  1  1
 20 19  1  0
 20 13  1  0
 21 19  1  0
 21 22  2  0
 23 24  1  0
 25 26  1  0
 25 24  1  0
 27 26  1  1
 27 28  1  0
 27 29  1  0
 28 21  1  0
 29 30  2  0
 29 31  1  0
M  END
$$$$
