RSK.pdb
     RDKit          3D

 27 26  0  0  1  0  0  0  0  0999 V2000
   34.9692  -32.0150  -12.8968 N   0  0  0  0  0  0  0  0  0  0  0  0
   36.2815  -32.4662  -13.1494 C   0  0  0  0  0  0  0  0  0  0  0  0
   36.7883  -32.4121  -14.3169 N   0  0  0  0  0  0  0  0  0  0  0  0
   37.0558  -33.0104  -12.1061 N   0  0  0  0  0  0  0  0  0  0  0  0
   36.5496  -33.4168  -10.8212 C   0  0  0  0  0  0  0  0  0  0  0  0
   35.1387  -33.8596  -10.7964 C   0  0  0  0  0  0  0  0  0  0  0  0
   34.4799  -34.2220   -9.5370 C   0  0  0  0  0  0  0  0  0  0  0  0
   34.7147  -35.5724   -8.9697 C   0  0  2  0  0  0  0  0  0  0  0  0
   35.0328  -36.6431   -9.8141 N   0  0  0  0  0  0  0  0  0  0  0  0
   33.5875  -35.9049   -8.0176 C   0  0  0  0  0  0  0  0  0  0  0  0
   32.4782  -36.1642   -8.5412 O   0  0  0  0  0  0  0  0  0  0  0  0
   37.7226  -32.7444  -14.6215 O   0  0  0  0  0  0  0  0  0  0  0  0
   33.7353  -35.5570   -3.7310 C   0  0  0  0  0  0  0  0  0  0  0  0
   33.2030  -36.6588   -4.4069 C   0  0  1  0  0  0  0  0  0  0  0  0
   32.6079  -36.2410   -5.7303 N   0  0  0  0  0  0  0  0  0  0  0  0
   33.7125  -35.9367   -6.6249 C   0  0  0  0  0  0  0  0  0  0  0  0
   31.6811  -35.0874   -5.5831 O   0  0  0  0  0  0  0  0  0  0  0  0
   31.9758  -33.9751   -5.1230 N   0  0  0  0  0  0  0  0  0  0  0  0
   30.3383  -35.2851   -6.0110 C   0  0  1  0  0  0  0  0  0  0  0  0
   29.3377  -34.2612   -5.9153 C   0  0  0  0  0  0  0  0  0  0  0  0
   28.4632  -34.0329   -7.0792 C   0  0  0  0  0  0  0  0  0  0  0  0
   27.3521  -33.0860   -7.0433 C   0  0  0  0  0  0  0  0  0  0  0  0
   26.5128  -32.9358   -8.2676 C   0  0  0  0  0  0  0  0  0  0  0  0
   25.4161  -31.9061   -7.9702 N   0  0  0  0  0  0  0  0  0  0  0  0
   24.6445  -31.6884   -9.1697 C   0  0  0  0  0  0  0  0  0  0  0  0
   28.6379  -34.2652   -4.6150 O   0  0  0  0  0  0  0  0  0  0  0  0
   28.3255  -33.1701   -4.1039 O   0  0  0  0  0  0  0  0  0  0  0  0
  2  3  2  0
  2  1  1  0
  4  5  1  0
  4  2  1  0
  6  5  1  0
  7  6  1  0
  8  7  1  0
  8 10  1  0
  8  9  1  6
 10 11  2  0
 14 13  1  6
 13 12  1  0
 15 14  1  0
 15 10  1  0
 16 17  2  0
 16 14  1  0
 18 16  1  0
 19 25  1  0
 19 18  1  0
 19 20  1  1
 21 20  1  0
 22 21  1  0
 23 24  1  0
 23 22  1  0
 25 27  1  0
 26 25  2  0
M  END
$$$$
