RSK.pdb
     RDKit          3D

 27 26  0  0  1  0  0  0  0  0999 V2000
   19.1143  -22.1949  -13.4760 N   0  0  0  0  0  0  0  0  0  0  0  0
   19.2102  -22.1588  -12.0692 C   0  0  0  0  0  0  0  0  0  0  0  0
   18.6416  -23.0374  -11.3428 N   0  0  0  0  0  0  0  0  0  0  0  0
   19.9278  -21.1258  -11.4351 N   0  0  0  0  0  0  0  0  0  0  0  0
   21.2734  -20.7296  -11.7588 C   0  0  0  0  0  0  0  0  0  0  0  0
   21.9511  -21.5397  -12.7940 C   0  0  0  0  0  0  0  0  0  0  0  0
   23.3193  -21.2306  -13.2232 C   0  0  0  0  0  0  0  0  0  0  0  0
   24.4108  -21.2742  -12.2197 C   0  0  2  0  0  0  0  0  0  0  0  0
   24.2128  -20.7343  -10.9431 N   0  0  0  0  0  0  0  0  0  0  0  0
   25.6863  -20.7780  -12.8635 C   0  0  0  0  0  0  0  0  0  0  0  0
   26.0190  -19.5989  -12.5972 O   0  0  0  0  0  0  0  0  0  0  0  0
   18.5961  -23.0750  -10.3072 O   0  0  0  0  0  0  0  0  0  0  0  0
   28.7891  -22.9108  -14.9428 C   0  0  0  0  0  0  0  0  0  0  0  0
   28.7689  -21.6121  -14.4259 C   0  0  1  0  0  0  0  0  0  0  0  0
   27.4276  -20.9603  -14.6631 N   0  0  0  0  0  0  0  0  0  0  0  0
   26.4904  -21.5414  -13.7161 C   0  0  0  0  0  0  0  0  0  0  0  0
   26.9697  -21.1272  -16.0681 O   0  0  0  0  0  0  0  0  0  0  0  0
   26.3759  -22.1147  -16.5243 N   0  0  0  0  0  0  0  0  0  0  0  0
   27.2401  -20.0538  -16.9624 C   0  0  1  0  0  0  0  0  0  0  0  0
   26.3176  -19.6469  -17.9833 C   0  0  0  0  0  0  0  0  0  0  0  0
   24.9008  -19.4812  -17.6140 C   0  0  0  0  0  0  0  0  0  0  0  0
   23.8776  -19.1290  -18.5945 C   0  0  0  0  0  0  0  0  0  0  0  0
   22.4621  -19.0306  -18.1332 C   0  0  0  0  0  0  0  0  0  0  0  0
   21.5998  -18.6068  -19.3284 N   0  0  0  0  0  0  0  0  0  0  0  0
   20.2190  -18.5603  -18.9128 C   0  0  0  0  0  0  0  0  0  0  0  0
   26.8551  -18.5754  -18.8455 O   0  0  0  0  0  0  0  0  0  0  0  0
   26.3596  -18.4201  -19.9807 O   0  0  0  0  0  0  0  0  0  0  0  0
  2  3  2  0
  2  1  1  0
  4  5  1  0
  4  2  1  0
  6  5  1  0
  7  6  1  0
  8  7  1  0
  8 10  1  0
  8  9  1  1
 10 11  2  0
 14 13  1  1
 13 12  1  0
 15 14  1  0
 15 10  1  0
 16 17  2  0
 16 14  1  0
 18 16  1  0
 19 25  1  0
 19 18  1  0
 19 20  1  6
 21 20  1  0
 22 21  1  0
 23 24  1  0
 23 22  1  0
 25 27  1  0
 26 25  2  0
M  END
$$$$
