RSK.pdb
     RDKit          3D

 27 26  0  0  1  0  0  0  0  0999 V2000
   17.8327  -16.8750  -18.6819 N   0  0  0  0  0  0  0  0  0  0  0  0
   17.8611  -16.4552  -20.0281 C   0  0  0  0  0  0  0  0  0  0  0  0
   17.1801  -17.0527  -20.9237 N   0  0  0  0  0  0  0  0  0  0  0  0
   18.6694  -15.3678  -20.4134 N   0  0  0  0  0  0  0  0  0  0  0  0
   19.4289  -14.5384  -19.5149 C   0  0  0  0  0  0  0  0  0  0  0  0
   18.7651  -13.2929  -19.0728 C   0  0  0  0  0  0  0  0  0  0  0  0
   19.4371  -12.3567  -18.1654 C   0  0  0  0  0  0  0  0  0  0  0  0
   20.3139  -12.8990  -17.0988 C   0  0  2  0  0  0  0  0  0  0  0  0
   19.9135  -14.0216  -16.3640 N   0  0  0  0  0  0  0  0  0  0  0  0
   20.7648  -11.7604  -16.2112 C   0  0  0  0  0  0  0  0  0  0  0  0
   19.8579  -11.1157  -15.6335 O   0  0  0  0  0  0  0  0  0  0  0  0
   17.1310  -16.8356  -21.9369 O   0  0  0  0  0  0  0  0  0  0  0  0
   24.7304  -10.4145  -16.0429 C   0  0  0  0  0  0  0  0  0  0  0  0
   23.9768  -10.4611  -14.8665 C   0  0  1  0  0  0  0  0  0  0  0  0
   22.5065  -10.2865  -15.1631 N   0  0  0  0  0  0  0  0  0  0  0  0
   22.1002  -11.3981  -16.0071 C   0  0  0  0  0  0  0  0  0  0  0  0
   22.2206   -8.9740  -15.8010 O   0  0  0  0  0  0  0  0  0  0  0  0
   22.0889   -8.7724  -17.0167 N   0  0  0  0  0  0  0  0  0  0  0  0
   22.0869   -7.8546  -14.9325 C   0  0  1  0  0  0  0  0  0  0  0  0
   21.8039   -6.5326  -15.4131 C   0  0  0  0  0  0  0  0  0  0  0  0
   20.5988   -6.3358  -16.2379 C   0  0  0  0  0  0  0  0  0  0  0  0
   20.2249   -5.0280  -16.7690 C   0  0  0  0  0  0  0  0  0  0  0  0
   19.0250   -4.9413  -17.6515 C   0  0  0  0  0  0  0  0  0  0  0  0
   18.8509   -3.4783  -18.0767 N   0  0  0  0  0  0  0  0  0  0  0  0
   17.7635   -3.3944  -19.0212 C   0  0  0  0  0  0  0  0  0  0  0  0
   22.0203   -5.4928  -14.3872 O   0  0  0  0  0  0  0  0  0  0  0  0
   22.0482   -5.8368  -13.1876 O   0  0  0  0  0  0  0  0  0  0  0  0
  2  3  2  0
  2  1  1  0
  4  5  1  0
  4  2  1  0
  6  5  1  0
  7  6  1  0
  8  7  1  0
  8 10  1  0
  8  9  1  1
 10 11  2  0
 14 13  1  1
 13 12  1  0
 15 14  1  0
 15 10  1  0
 16 17  2  0
 16 14  1  0
 18 16  1  0
 19 25  1  0
 19 18  1  0
 19 20  1  6
 21 20  1  0
 22 21  1  0
 23 24  1  0
 23 22  1  0
 25 27  1  0
 26 25  2  0
M  END
$$$$
