RSK.pdb
     RDKit          3D

 27 26  0  0  1  0  0  0  0  0999 V2000
   17.5938  -23.0945  -14.3879 N   0  0  0  0  0  0  0  0  0  0  0  0
   18.9026  -23.5963  -14.2314 C   0  0  0  0  0  0  0  0  0  0  0  0
   19.4338  -24.3496  -15.1108 N   0  0  0  0  0  0  0  0  0  0  0  0
   19.6460  -23.2861  -13.0758 N   0  0  0  0  0  0  0  0  0  0  0  0
   20.3910  -22.0719  -12.8688 C   0  0  0  0  0  0  0  0  0  0  0  0
   21.8424  -22.1534  -13.1411 C   0  0  0  0  0  0  0  0  0  0  0  0
   22.6936  -20.9604  -13.0786 C   0  0  0  0  0  0  0  0  0  0  0  0
   24.1345  -21.0919  -13.4057 C   0  0  2  0  0  0  0  0  0  0  0  0
   25.0133  -21.6744  -12.4845 N   0  0  0  0  0  0  0  0  0  0  0  0
   24.6406  -19.7644  -13.9246 C   0  0  0  0  0  0  0  0  0  0  0  0
   24.2269  -18.7423  -13.3279 O   0  0  0  0  0  0  0  0  0  0  0  0
   20.3583  -24.8185  -15.0731 O   0  0  0  0  0  0  0  0  0  0  0  0
   28.0978  -19.3471  -15.8704 C   0  0  0  0  0  0  0  0  0  0  0  0
   27.4524  -18.2497  -15.2930 C   0  0  1  0  0  0  0  0  0  0  0  0
   25.9599  -18.3302  -15.5078 N   0  0  0  0  0  0  0  0  0  0  0  0
   25.5189  -19.6202  -15.0035 C   0  0  0  0  0  0  0  0  0  0  0  0
   25.5933  -18.1397  -16.9363 O   0  0  0  0  0  0  0  0  0  0  0  0
   25.2720  -19.0375  -17.7280 N   0  0  0  0  0  0  0  0  0  0  0  0
   25.6147  -16.8058  -17.4315 C   0  0  1  0  0  0  0  0  0  0  0  0
   25.3418  -16.4857  -18.8033 C   0  0  0  0  0  0  0  0  0  0  0  0
   24.3553  -15.4286  -19.0875 C   0  0  0  0  0  0  0  0  0  0  0  0
   23.8962  -15.1374  -20.4427 C   0  0  0  0  0  0  0  0  0  0  0  0
   22.9305  -14.0165  -20.6353 C   0  0  0  0  0  0  0  0  0  0  0  0
   22.6389  -13.8911  -22.1355 N   0  0  0  0  0  0  0  0  0  0  0  0
   21.7768  -12.7539  -22.3486 C   0  0  0  0  0  0  0  0  0  0  0  0
   26.5639  -16.4210  -19.6295 O   0  0  0  0  0  0  0  0  0  0  0  0
   27.4954  -15.6780  -19.2572 O   0  0  0  0  0  0  0  0  0  0  0  0
  2  3  2  0
  2  1  1  0
  4  5  1  0
  4  2  1  0
  6  5  1  0
  7  6  1  0
  8  7  1  0
  8 10  1  0
  8  9  1  1
 10 11  2  0
 14 13  1  1
 13 12  1  0
 15 14  1  0
 15 10  1  0
 16 17  2  0
 16 14  1  0
 18 16  1  0
 19 25  1  0
 19 18  1  0
 19 20  1  6
 21 20  1  0
 22 21  1  0
 23 24  1  0
 23 22  1  0
 25 27  1  0
 26 25  2  0
M  END
$$$$
