RSK.pdb
     RDKit          3D

 27 26  0  0  1  0  0  0  0  0999 V2000
   30.9534  -25.8004  -18.2986 N   0  0  0  0  0  0  0  0  0  0  0  0
   31.2802  -27.1641  -18.4503 C   0  0  0  0  0  0  0  0  0  0  0  0
   32.4899  -27.5628  -18.4269 N   0  0  0  0  0  0  0  0  0  0  0  0
   30.2632  -28.1171  -18.6539 N   0  0  0  0  0  0  0  0  0  0  0  0
   28.8536  -27.8752  -18.4896 C   0  0  0  0  0  0  0  0  0  0  0  0
   28.4299  -27.4300  -17.1444 C   0  0  0  0  0  0  0  0  0  0  0  0
   27.0160  -27.1910  -16.8355 C   0  0  0  0  0  0  0  0  0  0  0  0
   26.4932  -25.8045  -16.9048 C   0  0  2  0  0  0  0  0  0  0  0  0
   27.3671  -24.7353  -17.1362 N   0  0  0  0  0  0  0  0  0  0  0  0
   25.5897  -25.5632  -15.7160 C   0  0  0  0  0  0  0  0  0  0  0  0
   26.1431  -25.5607  -14.5911 O   0  0  0  0  0  0  0  0  0  0  0  0
   32.8402  -28.5376  -18.4831 O   0  0  0  0  0  0  0  0  0  0  0  0
   23.3508  -22.6599  -13.5135 C   0  0  0  0  0  0  0  0  0  0  0  0
   24.0282  -23.3362  -14.5323 C   0  0  2  0  0  0  0  0  0  0  0  0
   23.4343  -24.7066  -14.7545 N   0  0  0  0  0  0  0  0  0  0  0  0
   24.2101  -25.3500  -15.8020 C   0  0  0  0  0  0  0  0  0  0  0  0
   21.9895  -24.6364  -15.0997 O   0  0  0  0  0  0  0  0  0  0  0  0
   21.4700  -23.8292  -15.8835 N   0  0  0  0  0  0  0  0  0  0  0  0
   21.1334  -25.5836  -14.4711 C   0  0  2  0  0  0  0  0  0  0  0  0
   19.8140  -25.2507  -14.0161 C   0  0  0  0  0  0  0  0  0  0  0  0
   19.4685  -25.5408  -12.6133 C   0  0  0  0  0  0  0  0  0  0  0  0
   19.3680  -26.9054  -12.1034 C   0  0  0  0  0  0  0  0  0  0  0  0
   19.1171  -27.0975  -10.6452 C   0  0  0  0  0  0  0  0  0  0  0  0
   18.9119  -28.5956  -10.3902 N   0  0  0  0  0  0  0  0  0  0  0  0
   18.8063  -28.8154   -8.9682 C   0  0  0  0  0  0  0  0  0  0  0  0
   19.3585  -23.9315  -14.4987 O   0  0  0  0  0  0  0  0  0  0  0  0
   20.0807  -22.9366  -14.2819 O   0  0  0  0  0  0  0  0  0  0  0  0
  2  3  2  0
  2  1  1  0
  4  5  1  0
  4  2  1  0
  6  5  1  0
  7  6  1  0
  8  7  1  0
  8 10  1  0
  8  9  1  1
 10 11  2  0
 14 13  1  1
 13 12  1  0
 15 14  1  0
 15 10  1  0
 16 17  2  0
 16 14  1  0
 18 16  1  0
 19 25  1  0
 19 18  1  0
 19 20  1  1
 21 20  1  0
 22 21  1  0
 23 24  1  0
 23 22  1  0
 25 27  1  0
 26 25  2  0
M  END
$$$$
