RSK.pdb
     RDKit          3D

 27 26  0  0  1  0  0  0  0  0999 V2000
   16.6112  -13.0027  -14.8351 N   0  0  0  0  0  0  0  0  0  0  0  0
   17.4008  -13.6676  -15.7963 C   0  0  0  0  0  0  0  0  0  0  0  0
   17.0234  -14.7658  -16.3200 N   0  0  0  0  0  0  0  0  0  0  0  0
   18.6453  -13.1325  -16.1826 N   0  0  0  0  0  0  0  0  0  0  0  0
   19.2260  -11.9222  -15.6628 C   0  0  0  0  0  0  0  0  0  0  0  0
   19.1219  -10.7325  -16.5351 C   0  0  0  0  0  0  0  0  0  0  0  0
   19.5904   -9.4179  -16.0834 C   0  0  0  0  0  0  0  0  0  0  0  0
   21.0366   -9.2280  -15.8134 C   0  0  2  0  0  0  0  0  0  0  0  0
   21.8025  -10.2879  -15.3131 N   0  0  0  0  0  0  0  0  0  0  0  0
   21.2215   -7.9566  -15.0152 C   0  0  0  0  0  0  0  0  0  0  0  0
   21.1095   -8.0623  -13.7710 O   0  0  0  0  0  0  0  0  0  0  0  0
   17.5135  -15.3296  -17.0398 O   0  0  0  0  0  0  0  0  0  0  0  0
   23.6705   -5.0133  -16.0695 C   0  0  0  0  0  0  0  0  0  0  0  0
   23.1956   -5.2268  -14.7721 C   0  0  1  0  0  0  0  0  0  0  0  0
   21.7115   -5.5051  -14.7824 N   0  0  0  0  0  0  0  0  0  0  0  0
   21.5016   -6.7057  -15.5746 C   0  0  0  0  0  0  0  0  0  0  0  0
   20.9338   -4.3519  -15.3086 O   0  0  0  0  0  0  0  0  0  0  0  0
   20.7385   -4.0950  -16.5051 N   0  0  0  0  0  0  0  0  0  0  0  0
   20.3657   -3.4696  -14.3474 C   0  0  1  0  0  0  0  0  0  0  0  0
   19.6435   -2.2859  -14.7161 C   0  0  0  0  0  0  0  0  0  0  0  0
   18.2316   -2.1776  -14.3083 C   0  0  0  0  0  0  0  0  0  0  0  0
   17.4210   -1.0028  -14.6165 C   0  0  0  0  0  0  0  0  0  0  0  0
   15.9974   -0.9906  -14.1700 C   0  0  0  0  0  0  0  0  0  0  0  0
   15.3342    0.2749  -14.7269 N   0  0  0  0  0  0  0  0  0  0  0  0
   14.9900    0.0498  -16.1099 C   0  0  0  0  0  0  0  0  0  0  0  0
   20.4322   -1.0521  -14.5256 O   0  0  0  0  0  0  0  0  0  0  0  0
   20.3995   -0.1808  -15.4189 O   0  0  0  0  0  0  0  0  0  0  0  0
  2  3  2  0
  2  1  1  0
  4  5  1  0
  4  2  1  0
  6  5  1  0
  7  6  1  0
  8  7  1  0
  8 10  1  0
  8  9  1  1
 10 11  2  0
 14 13  1  1
 13 12  1  0
 15 14  1  0
 15 10  1  0
 16 17  2  0
 16 14  1  0
 18 16  1  0
 19 25  1  0
 19 18  1  0
 19 20  1  6
 21 20  1  0
 22 21  1  0
 23 24  1  0
 23 22  1  0
 25 27  1  0
 26 25  2  0
M  END
$$$$
