RSK.pdb
     RDKit          3D

 27 26  0  0  1  0  0  0  0  0999 V2000
   21.9696  -26.4376  -13.7823 N   0  0  0  0  0  0  0  0  0  0  0  0
   20.8631  -26.4549  -12.9078 C   0  0  0  0  0  0  0  0  0  0  0  0
   20.8778  -27.1383  -11.8329 N   0  0  0  0  0  0  0  0  0  0  0  0
   19.7007  -25.7243  -13.2229 N   0  0  0  0  0  0  0  0  0  0  0  0
   19.6380  -24.2960  -13.3919 C   0  0  0  0  0  0  0  0  0  0  0  0
   20.3759  -23.7526  -14.5526 C   0  0  0  0  0  0  0  0  0  0  0  0
   21.3744  -22.6910  -14.3867 C   0  0  0  0  0  0  0  0  0  0  0  0
   21.1991  -21.7095  -13.2883 C   0  0  2  0  0  0  0  0  0  0  0  0
   20.0721  -20.8791  -13.2619 N   0  0  0  0  0  0  0  0  0  0  0  0
   22.4879  -20.9373  -13.1131 C   0  0  0  0  0  0  0  0  0  0  0  0
   22.4547  -19.7248  -13.4300 O   0  0  0  0  0  0  0  0  0  0  0  0
   20.1153  -27.2490  -11.1383 O   0  0  0  0  0  0  0  0  0  0  0  0
   26.1813  -22.8030  -12.3579 C   0  0  0  0  0  0  0  0  0  0  0  0
   25.9047  -21.5661  -11.7682 C   0  0  1  0  0  0  0  0  0  0  0  0
   24.9435  -20.7692  -12.6173 N   0  0  0  0  0  0  0  0  0  0  0  0
   23.6800  -21.4878  -12.6315 C   0  0  0  0  0  0  0  0  0  0  0  0
   25.4688  -20.5463  -13.9905 O   0  0  0  0  0  0  0  0  0  0  0  0
   25.1494  -21.1879  -15.0016 N   0  0  0  0  0  0  0  0  0  0  0  0
   26.4219  -19.5018  -14.1507 C   0  0  1  0  0  0  0  0  0  0  0  0
   27.0253  -19.1929  -15.4154 C   0  0  0  0  0  0  0  0  0  0  0  0
   27.6121  -17.8535  -15.5970 C   0  0  0  0  0  0  0  0  0  0  0  0
   28.1192  -17.3951  -16.8874 C   0  0  0  0  0  0  0  0  0  0  0  0
   28.7915  -16.0645  -16.9493 C   0  0  0  0  0  0  0  0  0  0  0  0
   29.1459  -15.7774  -18.4133 N   0  0  0  0  0  0  0  0  0  0  0  0
   29.8318  -14.5102  -18.4862 C   0  0  0  0  0  0  0  0  0  0  0  0
   27.8501  -20.2992  -15.9409 O   0  0  0  0  0  0  0  0  0  0  0  0
   28.4320  -21.0462  -15.1274 O   0  0  0  0  0  0  0  0  0  0  0  0
  2  3  2  0
  2  1  1  0
  4  5  1  0
  4  2  1  0
  6  5  1  0
  7  6  1  0
  8  7  1  0
  8 10  1  0
  8  9  1  6
 10 11  2  0
 14 13  1  1
 13 12  1  0
 15 14  1  0
 15 10  1  0
 16 17  2  0
 16 14  1  0
 18 16  1  0
 19 25  1  0
 19 18  1  0
 19 20  1  6
 21 20  1  0
 22 21  1  0
 23 24  1  0
 23 22  1  0
 25 27  1  0
 26 25  2  0
M  END
$$$$
