NRY.pdb
     RDKit          3D

 32 32  0  0  1  0  0  0  0  0999 V2000
   18.0067  -25.1367   -6.3346 N   0  0  0  0  0  0  0  0  0  0  0  0
   17.4096  -24.4790   -7.4351 C   0  0  0  0  0  0  0  0  0  0  0  0
   16.3651  -24.9138   -7.9605 O   0  0  0  0  0  0  0  0  0  0  0  0
   18.0314  -23.2516   -7.9772 C   0  0  0  0  0  0  0  0  0  0  0  0
   17.9824  -23.3526   -9.4870 C   0  0  2  0  0  0  0  0  0  0  0  0
   18.7536  -24.4570   -9.9719 N   0  0  0  0  0  0  0  0  0  0  0  0
   18.4709  -22.0876  -10.1343 C   0  0  0  0  0  0  0  0  0  0  0  0
   17.9268  -20.9764   -9.8177 O   0  0  0  0  0  0  0  0  0  0  0  0
   25.3796  -22.8577  -12.6323 N   0  0  0  0  0  0  0  0  0  0  0  0
   24.5406  -22.7997  -13.7690 C   0  0  0  0  0  0  0  0  0  0  0  0
   24.5333  -23.7856  -14.6240 N   0  0  0  0  0  0  0  0  0  0  0  0
   23.6800  -21.7131  -14.0562 N   0  0  0  0  0  0  0  0  0  0  0  0
   23.5670  -20.5834  -13.1559 C   0  0  0  0  0  0  0  0  0  0  0  0
   22.1147  -20.2407  -12.8480 C   0  0  0  0  0  0  0  0  0  0  0  0
   21.4284  -21.3611  -12.1437 C   0  0  0  0  0  0  0  0  0  0  0  0
   20.0389  -21.0004  -11.7429 C   0  0  2  0  0  0  0  0  0  0  0  0
   19.5206  -22.2057  -11.0704 N   0  0  0  0  0  0  0  0  0  0  0  0
   19.1201  -20.5535  -12.7721 C   0  0  0  0  0  0  0  0  0  0  0  0
   18.5242  -21.4323  -13.4840 O   0  0  0  0  0  0  0  0  0  0  0  0
   24.0248  -23.7656  -15.5203 O   0  0  0  0  0  0  0  0  0  0  0  0
   23.3237  -17.4062  -16.8930 C   0  0  0  0  0  0  0  0  0  0  0  0
   22.0893  -17.9329  -16.5376 C   0  0  0  0  0  0  0  0  0  0  0  0
   21.9065  -19.2757  -16.3895 C   0  0  0  0  0  0  0  0  0  0  0  0
   20.6602  -19.7448  -16.0353 C   0  0  0  0  0  0  0  0  0  0  0  0
   19.5850  -18.9130  -15.8236 C   0  0  0  0  0  0  0  0  0  0  0  0
   18.2436  -19.3911  -15.4536 C   0  0  2  0  0  0  0  0  0  0  0  0
   17.8321  -18.8645  -14.1189 N   0  0  0  0  0  0  0  0  0  0  0  0
   18.7949  -19.2260  -13.0816 C   0  0  0  0  0  0  0  0  0  0  0  0
   16.5242  -19.3748  -13.7174 O   0  0  0  0  0  0  0  0  0  0  0  0
   15.5478  -18.5985  -13.6481 C   0  0  0  0  0  0  0  0  0  0  0  0
   19.8012  -17.5527  -15.9815 C   0  0  0  0  0  0  0  0  0  0  0  0
   21.0361  -17.0761  -16.3330 O   0  0  0  0  0  0  0  0  0  0  0  0
  2  3  2  0
  2  1  1  0
  4  2  1  0
  5  4  1  0
  5  6  1  6
  7  5  1  0
  7  8  2  0
  9 10  1  0
 10 12  1  0
 11 10  2  0
 12 13  1  0
 13 14  1  0
 14 15  1  0
 16 17  1  0
 16 15  1  6
 17  7  1  0
 18 16  1  0
 19 18  2  0
 20 21  1  0
 21 22  2  0
 21 31  1  0
 22 23  1  0
 23 24  2  0
 24 25  1  0
 26 25  1  6
 26 27  1  0
 27 18  1  0
 28 26  1  0
 28 32  1  0
 29 28  2  0
 30 24  1  0
 31 30  2  0
M  END
$$$$
