NRY.pdb
     RDKit          3D

 32 32  0  0  1  0  0  0  0  0999 V2000
   24.6237  -18.1547  -19.1775 N   0  0  0  0  0  0  0  0  0  0  0  0
   24.4446  -17.4356  -17.9730 C   0  0  0  0  0  0  0  0  0  0  0  0
   24.1621  -16.2206  -17.9800 O   0  0  0  0  0  0  0  0  0  0  0  0
   24.5939  -18.1329  -16.6774 C   0  0  0  0  0  0  0  0  0  0  0  0
   25.1026  -19.5276  -16.9742 C   0  0  2  0  0  0  0  0  0  0  0  0
   24.1015  -20.3376  -17.5998 N   0  0  0  0  0  0  0  0  0  0  0  0
   25.5803  -20.2114  -15.7242 C   0  0  0  0  0  0  0  0  0  0  0  0
   24.7795  -20.9772  -15.0892 O   0  0  0  0  0  0  0  0  0  0  0  0
   32.1917  -21.6673  -10.4153 N   0  0  0  0  0  0  0  0  0  0  0  0
   32.2397  -22.3349  -11.6609 C   0  0  0  0  0  0  0  0  0  0  0  0
   32.7756  -23.5219  -11.7433 N   0  0  0  0  0  0  0  0  0  0  0  0
   31.7318  -21.7903  -12.8647 N   0  0  0  0  0  0  0  0  0  0  0  0
   31.0426  -20.5158  -12.8830 C   0  0  0  0  0  0  0  0  0  0  0  0
   29.5302  -20.6825  -12.8041 C   0  0  0  0  0  0  0  0  0  0  0  0
   28.8770  -20.3465  -14.1014 C   0  0  0  0  0  0  0  0  0  0  0  0
   27.3958  -20.4997  -14.0364 C   0  0  2  0  0  0  0  0  0  0  0  0
   26.9092  -19.9615  -15.3197 N   0  0  0  0  0  0  0  0  0  0  0  0
   26.6894  -19.8915  -12.9255 C   0  0  0  0  0  0  0  0  0  0  0  0
   26.5590  -18.6200  -12.9057 O   0  0  0  0  0  0  0  0  0  0  0  0
   32.8239  -24.0718  -12.6138 O   0  0  0  0  0  0  0  0  0  0  0  0
   20.3182  -22.5849  -13.1013 C   0  0  0  0  0  0  0  0  0  0  0  0
   21.2878  -21.7476  -12.5662 C   0  0  0  0  0  0  0  0  0  0  0  0
   21.5237  -21.7014  -11.2243 C   0  0  0  0  0  0  0  0  0  0  0  0
   22.4981  -20.8522  -10.7466 C   0  0  0  0  0  0  0  0  0  0  0  0
   23.2481  -20.0433  -11.5688 C   0  0  0  0  0  0  0  0  0  0  0  0
   24.2872  -19.1228  -11.0812 C   0  0  1  0  0  0  0  0  0  0  0  0
   25.5255  -19.8619  -10.6962 N   0  0  0  0  0  0  0  0  0  0  0  0
   26.1088  -20.5598  -11.8391 C   0  0  0  0  0  0  0  0  0  0  0  0
   25.2624  -20.8483   -9.6521 O   0  0  0  0  0  0  0  0  0  0  0  0
   25.5550  -22.0480   -9.8414 C   0  0  0  0  0  0  0  0  0  0  0  0
   22.9857  -20.1120  -12.9285 C   0  0  0  0  0  0  0  0  0  0  0  0
   22.0196  -20.9529  -13.4136 O   0  0  0  0  0  0  0  0  0  0  0  0
  2  3  2  0
  2  1  1  0
  4  2  1  0
  5  4  1  0
  5  6  1  1
  7  5  1  0
  7  8  2  0
  9 10  1  0
 10 12  1  0
 11 10  2  0
 12 13  1  0
 13 14  1  0
 14 15  1  0
 16 17  1  0
 16 15  1  1
 17  7  1  0
 18 16  1  0
 19 18  2  0
 20 21  1  0
 21 22  2  0
 21 31  1  0
 22 23  1  0
 23 24  2  0
 24 25  1  0
 26 25  1  6
 26 27  1  0
 27 18  1  0
 28 26  1  0
 28 32  1  0
 29 28  2  0
 30 24  1  0
 31 30  2  0
M  END
$$$$
