NRY.pdb
     RDKit          3D

 32 32  0  0  1  0  0  0  0  0999 V2000
   29.0620  -22.0538  -18.0063 N   0  0  0  0  0  0  0  0  0  0  0  0
   29.2698  -22.6680  -16.7494 C   0  0  0  0  0  0  0  0  0  0  0  0
   29.9604  -23.7010  -16.6396 O   0  0  0  0  0  0  0  0  0  0  0  0
   28.6589  -22.0781  -15.5387 C   0  0  0  0  0  0  0  0  0  0  0  0
   27.6943  -21.0060  -15.9994 C   0  0  2  0  0  0  0  0  0  0  0  0
   28.3702  -19.9283  -16.6562 N   0  0  0  0  0  0  0  0  0  0  0  0
   26.8960  -20.4599  -14.8494 C   0  0  0  0  0  0  0  0  0  0  0  0
   27.3130  -19.4163  -14.2426 O   0  0  0  0  0  0  0  0  0  0  0  0
   21.7355  -25.7743  -12.8215 N   0  0  0  0  0  0  0  0  0  0  0  0
   20.9823  -24.7860  -12.1469 C   0  0  0  0  0  0  0  0  0  0  0  0
   20.2176  -25.1215  -11.1439 N   0  0  0  0  0  0  0  0  0  0  0  0
   20.9980  -23.4134  -12.4926 N   0  0  0  0  0  0  0  0  0  0  0  0
   21.8070  -22.9223  -13.5899 C   0  0  0  0  0  0  0  0  0  0  0  0
   23.1529  -22.3896  -13.1142 C   0  0  0  0  0  0  0  0  0  0  0  0
   23.4853  -21.0905  -13.7656 C   0  0  0  0  0  0  0  0  0  0  0  0
   24.8586  -20.6273  -13.4179 C   0  0  2  0  0  0  0  0  0  0  0  0
   25.7121  -21.1455  -14.5026 N   0  0  0  0  0  0  0  0  0  0  0  0
   25.4000  -20.9908  -12.1226 C   0  0  0  0  0  0  0  0  0  0  0  0
   25.7562  -22.2028  -11.9265 O   0  0  0  0  0  0  0  0  0  0  0  0
   19.7319  -24.4429  -10.5390 O   0  0  0  0  0  0  0  0  0  0  0  0
   28.7022  -20.4756   -3.9436 C   0  0  0  0  0  0  0  0  0  0  0  0
   28.3578  -20.2682   -5.2724 C   0  0  0  0  0  0  0  0  0  0  0  0
   29.0026  -20.9181   -6.2826 C   0  0  0  0  0  0  0  0  0  0  0  0
   28.6203  -20.6749   -7.5840 C   0  0  0  0  0  0  0  0  0  0  0  0
   27.6107  -19.7995   -7.9114 C   0  0  0  0  0  0  0  0  0  0  0  0
   27.1912  -19.5173   -9.2931 C   0  0  1  0  0  0  0  0  0  0  0  0
   26.2482  -20.5602   -9.7945 N   0  0  0  0  0  0  0  0  0  0  0  0
   25.5897  -20.1370  -11.0277 C   0  0  0  0  0  0  0  0  0  0  0  0
   25.2119  -20.8673   -8.8126 O   0  0  0  0  0  0  0  0  0  0  0  0
   25.4710  -21.6189   -7.8488 C   0  0  0  0  0  0  0  0  0  0  0  0
   26.9735  -19.1535   -6.8631 C   0  0  0  0  0  0  0  0  0  0  0  0
   27.3455  -19.3884   -5.5661 O   0  0  0  0  0  0  0  0  0  0  0  0
  2  3  2  0
  2  1  1  0
  4  2  1  0
  5  4  1  0
  5  6  1  1
  7  5  1  0
  7  8  2  0
  9 10  1  0
 10 12  1  0
 11 10  2  0
 12 13  1  0
 13 14  1  0
 14 15  1  0
 16 17  1  0
 16 15  1  6
 17  7  1  0
 18 16  1  0
 19 18  2  0
 20 21  1  0
 21 22  2  0
 21 31  1  0
 22 23  1  0
 23 24  2  0
 24 25  1  0
 26 25  1  6
 26 27  1  0
 27 18  1  0
 28 26  1  0
 28 32  1  0
 29 28  2  0
 30 24  1  0
 31 30  2  0
M  END
$$$$
