LLC.pdb
     RDKit          3D

 23 22  0  0  1  0  0  0  0  0999 V2000
   19.0771  -11.1212  -21.5954 C   0  0  0  0  0  0  0  0  0  0  0  0
   18.0479  -11.3056  -20.5239 C   0  0  2  0  0  0  0  0  0  0  0  0
   16.8350  -10.4588  -20.8393 C   0  0  0  0  0  0  0  0  0  0  0  0
   18.6142  -10.9348  -19.1710 C   0  0  0  0  0  0  0  0  0  0  0  0
   19.8633  -11.6915  -18.8453 C   0  0  2  0  0  0  0  0  0  0  0  0
   19.5416  -13.0696  -18.6300 N   0  0  0  0  0  0  0  0  0  0  0  0
   20.4097  -11.1193  -17.5777 C   0  0  0  0  0  0  0  0  0  0  0  0
   19.8241  -11.3838  -16.5010 O   0  0  0  0  0  0  0  0  0  0  0  0
   25.7789  -10.2781  -15.2017 C   0  0  0  0  0  0  0  0  0  0  0  0
   24.3280   -9.8548  -15.0929 C   0  0  2  0  0  0  0  0  0  0  0  0
   23.8262  -10.1198  -13.7283 C   0  0  0  0  0  0  0  0  0  0  0  0
   23.4874  -10.2328  -16.2392 C   0  0  0  0  0  0  0  0  0  0  0  0
   22.1078   -9.7335  -16.3726 C   0  0  2  0  0  0  0  0  0  0  0  0
   21.5666  -10.2996  -17.6301 N   0  0  0  0  0  0  0  0  0  0  0  0
   21.8308   -8.3172  -16.3384 C   0  0  0  0  0  0  0  0  0  0  0  0
   22.1559   -7.6044  -17.3657 O   0  0  0  0  0  0  0  0  0  0  0  0
   21.2236   -7.5755  -15.3006 N   0  0  0  0  0  0  0  0  0  0  0  0
   21.1127   -6.1256  -15.3469 C   0  0  1  0  0  0  0  0  0  0  0  0
   19.6849   -5.7977  -14.8943 C   0  0  0  0  0  0  0  0  0  0  0  0
   19.5011   -4.0000  -14.7410 S   0  0  0  0  0  0  0  0  0  0  0  0
   22.0062   -5.4229  -14.4111 C   0  0  0  0  0  0  0  0  0  0  0  0
   22.6331   -4.2534  -14.8464 O   0  0  0  0  0  0  0  0  0  0  0  0
   22.2622   -5.7786  -13.2444 O   0  0  0  0  0  0  0  0  0  0  0  0
  2  1  1  6
  2  3  1  0
  4  5  1  0
  4  2  1  0
  5  7  1  0
  5  6  1  1
  7  8  2  0
 10  9  1  6
 11 10  1  0
 12 10  1  0
 13 12  1  6
 14 13  1  0
 14  7  1  0
 15 17  1  0
 15 13  1  0
 16 15  2  0
 18 21  1  0
 18 17  1  0
 18 19  1  1
 20 19  1  0
 21 22  1  0
 23 21  2  0
M  END
$$$$
