LLC.pdb
     RDKit          3D

 23 22  0  0  1  0  0  0  0  0999 V2000
   20.0037  -13.5906  -22.8630 C   0  0  0  0  0  0  0  0  0  0  0  0
   20.4701  -14.6001  -21.8605 C   0  0  2  0  0  0  0  0  0  0  0  0
   19.5495  -15.7997  -21.8878 C   0  0  0  0  0  0  0  0  0  0  0  0
   20.5102  -13.9957  -20.4742 C   0  0  0  0  0  0  0  0  0  0  0  0
   21.3346  -12.7483  -20.4161 C   0  0  2  0  0  0  0  0  0  0  0  0
   22.7106  -13.0775  -20.6334 N   0  0  0  0  0  0  0  0  0  0  0  0
   21.1846  -12.1824  -19.0413 C   0  0  0  0  0  0  0  0  0  0  0  0
   20.0298  -12.0550  -18.5697 O   0  0  0  0  0  0  0  0  0  0  0  0
   22.4710  -13.4038  -14.8504 C   0  0  0  0  0  0  0  0  0  0  0  0
   23.6124  -12.8580  -15.6843 C   0  0  2  0  0  0  0  0  0  0  0  0
   24.9041  -13.1704  -15.0376 C   0  0  0  0  0  0  0  0  0  0  0  0
   23.3976  -11.5019  -16.2117 C   0  0  0  0  0  0  0  0  0  0  0  0
   22.1923  -11.1666  -16.9897 C   0  0  2  0  0  0  0  0  0  0  0  0
   22.3453  -11.8089  -18.3159 N   0  0  0  0  0  0  0  0  0  0  0  0
   21.7961   -9.7912  -17.1775 C   0  0  0  0  0  0  0  0  0  0  0  0
   22.3735   -9.1093  -18.1106 O   0  0  0  0  0  0  0  0  0  0  0  0
   20.8220   -9.0620  -16.4598 N   0  0  0  0  0  0  0  0  0  0  0  0
   20.6011   -7.6406  -16.6786 C   0  0  1  0  0  0  0  0  0  0  0  0
   19.0966   -7.4818  -16.9282 C   0  0  0  0  0  0  0  0  0  0  0  0
   18.6944   -5.7193  -17.0729 S   0  0  0  0  0  0  0  0  0  0  0  0
   20.9102   -6.7965  -15.5126 C   0  0  0  0  0  0  0  0  0  0  0  0
   21.1449   -5.4361  -15.7239 O   0  0  0  0  0  0  0  0  0  0  0  0
   20.9840   -7.1869  -14.3313 O   0  0  0  0  0  0  0  0  0  0  0  0
  2  1  1  6
  2  3  1  0
  4  5  1  0
  4  2  1  0
  5  7  1  0
  5  6  1  1
  7  8  2  0
 10  9  1  1
 11 10  1  0
 12 10  1  0
 13 12  1  6
 14 13  1  0
 14  7  1  0
 15 17  1  0
 15 13  1  0
 16 15  2  0
 18 21  1  0
 18 17  1  0
 18 19  1  1
 20 19  1  0
 21 22  1  0
 23 21  2  0
M  END
$$$$
