LLC.pdb
     RDKit          3D

 23 22  0  0  1  0  0  0  0  0999 V2000
   18.8241  -12.4075  -17.2551 C   0  0  0  0  0  0  0  0  0  0  0  0
   18.2237  -12.9037  -15.9765 C   0  0  2  0  0  0  0  0  0  0  0  0
   17.3544  -14.1080  -16.2622 C   0  0  0  0  0  0  0  0  0  0  0  0
   17.4141  -11.8137  -15.3092 C   0  0  0  0  0  0  0  0  0  0  0  0
   18.2166  -10.5761  -15.0572 C   0  0  2  0  0  0  0  0  0  0  0  0
   19.2110  -10.8485  -14.0642 N   0  0  0  0  0  0  0  0  0  0  0  0
   17.2782   -9.5399  -14.5295 C   0  0  0  0  0  0  0  0  0  0  0  0
   16.2169   -9.3179  -15.1593 O   0  0  0  0  0  0  0  0  0  0  0  0
   14.2801   -7.7091  -11.0952 C   0  0  0  0  0  0  0  0  0  0  0  0
   15.6275   -8.2263  -10.6335 C   0  0  2  0  0  0  0  0  0  0  0  0
   15.7052   -8.1850   -9.1582 C   0  0  0  0  0  0  0  0  0  0  0  0
   16.7754   -7.7401  -11.4141 C   0  0  0  0  0  0  0  0  0  0  0  0
   16.7483   -7.7294  -12.8871 C   0  0  2  0  0  0  0  0  0  0  0  0
   17.6138   -8.8432  -13.3400 N   0  0  0  0  0  0  0  0  0  0  0  0
   17.0966   -6.5363  -13.6213 C   0  0  0  0  0  0  0  0  0  0  0  0
   18.3416   -6.1971  -13.6841 O   0  0  0  0  0  0  0  0  0  0  0  0
   16.2324   -5.6588  -14.3133 N   0  0  0  0  0  0  0  0  0  0  0  0
   16.7186   -4.4663  -14.9903 C   0  0  1  0  0  0  0  0  0  0  0  0
   15.8077   -4.2724  -16.2084 C   0  0  0  0  0  0  0  0  0  0  0  0
   16.3296   -2.7940  -17.1197 S   0  0  0  0  0  0  0  0  0  0  0  0
   16.6014   -3.2324  -14.1957 C   0  0  0  0  0  0  0  0  0  0  0  0
   17.5712   -2.2418  -14.3644 O   0  0  0  0  0  0  0  0  0  0  0  0
   15.7019   -2.9818  -13.3702 O   0  0  0  0  0  0  0  0  0  0  0  0
  2  1  1  6
  2  3  1  0
  4  5  1  0
  4  2  1  0
  5  7  1  0
  5  6  1  1
  7  8  2  0
 10  9  1  6
 11 10  1  0
 12 10  1  0
 13 12  1  1
 14 13  1  0
 14  7  1  0
 15 17  1  0
 15 13  1  0
 16 15  2  0
 18 21  1  0
 18 17  1  0
 18 19  1  6
 20 19  1  0
 21 22  1  0
 23 21  2  0
M  END
$$$$
