LLC.pdb
     RDKit          3D

 23 22  0  0  1  0  0  0  0  0999 V2000
   14.5759  -22.7723   -7.3710 C   0  0  0  0  0  0  0  0  0  0  0  0
   14.4493  -24.2002   -6.9390 C   0  0  2  0  0  0  0  0  0  0  0  0
   13.3387  -24.8663   -7.7202 C   0  0  0  0  0  0  0  0  0  0  0  0
   14.1756  -24.2856   -5.4535 C   0  0  0  0  0  0  0  0  0  0  0  0
   15.3625  -23.8985   -4.6286 C   0  0  2  0  0  0  0  0  0  0  0  0
   16.4116  -24.8517   -4.8288 N   0  0  0  0  0  0  0  0  0  0  0  0
   14.9387  -23.9404   -3.1964 C   0  0  0  0  0  0  0  0  0  0  0  0
   14.9948  -25.0352   -2.5878 O   0  0  0  0  0  0  0  0  0  0  0  0
   15.9306  -20.8411    1.6598 C   0  0  0  0  0  0  0  0  0  0  0  0
   14.9729  -21.8531    1.0643 C   0  0  2  0  0  0  0  0  0  0  0  0
   14.9215  -23.0605    1.9150 C   0  0  0  0  0  0  0  0  0  0  0  0
   15.0806  -22.0212   -0.3930 C   0  0  0  0  0  0  0  0  0  0  0  0
   14.0767  -22.7892   -1.1499 C   0  0  2  0  0  0  0  0  0  0  0  0
   14.4885  -22.7483   -2.5724 N   0  0  0  0  0  0  0  0  0  0  0  0
   12.6744  -22.4592   -1.0578 C   0  0  0  0  0  0  0  0  0  0  0  0
   12.2504  -21.4082   -1.6781 O   0  0  0  0  0  0  0  0  0  0  0  0
   11.6615  -23.1570   -0.3631 N   0  0  0  0  0  0  0  0  0  0  0  0
   10.2966  -22.6603   -0.2784 C   0  0  1  0  0  0  0  0  0  0  0  0
    9.3988  -23.8148   -0.7390 C   0  0  0  0  0  0  0  0  0  0  0  0
    7.6906  -23.2245   -0.8888 S   0  0  0  0  0  0  0  0  0  0  0  0
    9.8603  -22.3275    1.0879 C   0  0  0  0  0  0  0  0  0  0  0  0
    8.7489  -21.4965    1.2439 O   0  0  0  0  0  0  0  0  0  0  0  0
   10.3983  -22.7240    2.1398 O   0  0  0  0  0  0  0  0  0  0  0  0
  2  1  1  6
  2  3  1  0
  4  5  1  0
  4  2  1  0
  5  7  1  0
  5  6  1  1
  7  8  2  0
 10  9  1  1
 11 10  1  0
 12 10  1  0
 13 12  1  1
 14 13  1  0
 14  7  1  0
 15 17  1  0
 15 13  1  0
 16 15  2  0
 18 21  1  0
 18 17  1  0
 18 19  1  1
 20 19  1  0
 21 22  1  0
 23 21  2  0
M  END
$$$$
