LLC.pdb
     RDKit          3D

 23 22  0  0  1  0  0  0  0  0999 V2000
   20.5476  -18.4732  -17.9528 C   0  0  0  0  0  0  0  0  0  0  0  0
   21.3653  -19.7257  -18.0160 C   0  0  2  0  0  0  0  0  0  0  0  0
   20.7166  -20.7943  -17.1646 C   0  0  0  0  0  0  0  0  0  0  0  0
   22.7798  -19.4634  -17.5481 C   0  0  0  0  0  0  0  0  0  0  0  0
   22.9743  -19.7879  -16.1003 C   0  0  2  0  0  0  0  0  0  0  0  0
   22.1941  -18.8907  -15.3032 N   0  0  0  0  0  0  0  0  0  0  0  0
   24.4206  -19.5767  -15.7899 C   0  0  0  0  0  0  0  0  0  0  0  0
   25.2653  -20.3235  -16.3385 O   0  0  0  0  0  0  0  0  0  0  0  0
   27.6025  -16.8872  -16.8020 C   0  0  0  0  0  0  0  0  0  0  0  0
   26.6620  -16.2450  -15.8025 C   0  0  2  0  0  0  0  0  0  0  0  0
   26.8831  -14.7841  -15.7682 C   0  0  0  0  0  0  0  0  0  0  0  0
   26.5279  -16.9681  -14.5287 C   0  0  0  0  0  0  0  0  0  0  0  0
   26.2137  -18.4071  -14.4963 C   0  0  2  0  0  0  0  0  0  0  0  0
   24.7921  -18.5446  -14.8899 N   0  0  0  0  0  0  0  0  0  0  0  0
   26.4474  -19.1850  -13.3030 C   0  0  0  0  0  0  0  0  0  0  0  0
   27.4247  -18.8430  -12.5304 O   0  0  0  0  0  0  0  0  0  0  0  0
   25.7232  -20.3068  -12.8415 N   0  0  0  0  0  0  0  0  0  0  0  0
   26.0118  -20.9442  -11.5659 C   0  0  1  0  0  0  0  0  0  0  0  0
   25.3764  -20.0498  -10.4948 C   0  0  0  0  0  0  0  0  0  0  0  0
   26.6800  -19.3482   -9.4473 S   0  0  0  0  0  0  0  0  0  0  0  0
   25.3964  -22.2718  -11.4030 C   0  0  0  0  0  0  0  0  0  0  0  0
   25.7192  -23.0160  -10.2662 O   0  0  0  0  0  0  0  0  0  0  0  0
   24.5991  -22.8062  -12.1979 O   0  0  0  0  0  0  0  0  0  0  0  0
  2  1  1  1
  2  3  1  0
  4  5  1  0
  4  2  1  0
  5  7  1  0
  5  6  1  1
  7  8  2  0
 10  9  1  1
 11 10  1  0
 12 10  1  0
 13 12  1  1
 14 13  1  0
 14  7  1  0
 15 17  1  0
 15 13  1  0
 16 15  2  0
 18 21  1  0
 18 17  1  0
 18 19  1  1
 20 19  1  0
 21 22  1  0
 23 21  2  0
M  END
$$$$
