LLC.pdb
     RDKit          3D

 23 22  0  0  1  0  0  0  0  0999 V2000
   19.2828  -20.6940  -17.0636 C   0  0  0  0  0  0  0  0  0  0  0  0
   18.8037  -20.3195  -15.6955 C   0  0  2  0  0  0  0  0  0  0  0  0
   17.4011  -19.7612  -15.7883 C   0  0  0  0  0  0  0  0  0  0  0  0
   19.7343  -19.3085  -15.0627 C   0  0  0  0  0  0  0  0  0  0  0  0
   21.1562  -19.7742  -15.0389 C   0  0  2  0  0  0  0  0  0  0  0  0
   21.3121  -20.7733  -14.0258 N   0  0  0  0  0  0  0  0  0  0  0  0
   22.0026  -18.5940  -14.6878 C   0  0  0  0  0  0  0  0  0  0  0  0
   22.0841  -18.2534  -13.4839 O   0  0  0  0  0  0  0  0  0  0  0  0
   26.0698  -15.0489  -15.8219 C   0  0  0  0  0  0  0  0  0  0  0  0
   26.1942  -16.5246  -15.5012 C   0  0  2  0  0  0  0  0  0  0  0  0
   27.4953  -17.0369  -15.9796 C   0  0  0  0  0  0  0  0  0  0  0  0
   24.9839  -17.3175  -15.7652 C   0  0  0  0  0  0  0  0  0  0  0  0
   23.6518  -16.8370  -15.3587 C   0  0  2  0  0  0  0  0  0  0  0  0
   22.6841  -17.8989  -15.7201 N   0  0  0  0  0  0  0  0  0  0  0  0
   23.1520  -15.5671  -15.8289 C   0  0  0  0  0  0  0  0  0  0  0  0
   22.8385  -15.4563  -17.0773 O   0  0  0  0  0  0  0  0  0  0  0  0
   22.9432  -14.3856  -15.0830 N   0  0  0  0  0  0  0  0  0  0  0  0
   22.4409  -13.1634  -15.6919 C   0  0  1  0  0  0  0  0  0  0  0  0
   22.4137  -12.1156  -14.5728 C   0  0  0  0  0  0  0  0  0  0  0  0
   21.5052  -10.6526  -15.1415 S   0  0  0  0  0  0  0  0  0  0  0  0
   23.3121  -12.6119  -16.7430 C   0  0  0  0  0  0  0  0  0  0  0  0
   22.7139  -12.0860  -17.8901 O   0  0  0  0  0  0  0  0  0  0  0  0
   24.5570  -12.5683  -16.7068 O   0  0  0  0  0  0  0  0  0  0  0  0
  2  1  1  6
  2  3  1  0
  4  5  1  0
  4  2  1  0
  5  7  1  0
  5  6  1  1
  7  8  2  0
 10  9  1  6
 11 10  1  0
 12 10  1  0
 13 12  1  6
 14 13  1  0
 14  7  1  0
 15 17  1  0
 15 13  1  0
 16 15  2  0
 18 21  1  0
 18 17  1  0
 18 19  1  1
 20 19  1  0
 21 22  1  0
 23 21  2  0
M  END
$$$$
