LLC.pdb
     RDKit          3D

 23 22  0  0  1  0  0  0  0  0999 V2000
   26.8225  -26.0425  -18.1122 C   0  0  0  0  0  0  0  0  0  0  0  0
   28.1016  -26.0291  -17.3342 C   0  0  2  0  0  0  0  0  0  0  0  0
   28.2128  -27.3027  -16.5259 C   0  0  0  0  0  0  0  0  0  0  0  0
   28.1613  -24.8201  -16.4268 C   0  0  0  0  0  0  0  0  0  0  0  0
   28.0734  -23.5314  -17.1822 C   0  0  2  0  0  0  0  0  0  0  0  0
   29.3283  -23.2668  -17.8182 N   0  0  0  0  0  0  0  0  0  0  0  0
   27.7999  -22.4521  -16.1857 C   0  0  0  0  0  0  0  0  0  0  0  0
   28.6849  -22.1807  -15.3400 O   0  0  0  0  0  0  0  0  0  0  0  0
   28.1520  -18.1864  -15.6129 C   0  0  0  0  0  0  0  0  0  0  0  0
   27.1315  -18.6288  -16.6418 C   0  0  2  0  0  0  0  0  0  0  0  0
   26.7940  -17.5008  -17.5351 C   0  0  0  0  0  0  0  0  0  0  0  0
   26.0395  -19.4587  -16.1104 C   0  0  0  0  0  0  0  0  0  0  0  0
   26.3154  -20.6499  -15.2886 C   0  0  2  0  0  0  0  0  0  0  0  0
   26.5556  -21.7715  -16.2261 N   0  0  0  0  0  0  0  0  0  0  0  0
   25.3809  -21.0777  -14.2749 C   0  0  0  0  0  0  0  0  0  0  0  0
   24.3805  -21.8117  -14.6346 O   0  0  0  0  0  0  0  0  0  0  0  0
   25.4142  -20.8005  -12.8901 N   0  0  0  0  0  0  0  0  0  0  0  0
   24.3124  -21.1443  -12.0043 C   0  0  1  0  0  0  0  0  0  0  0  0
   24.7371  -20.6830  -10.6051 C   0  0  0  0  0  0  0  0  0  0  0  0
   23.3831  -20.9835   -9.4366 S   0  0  0  0  0  0  0  0  0  0  0  0
   23.0568  -20.4352  -12.3014 C   0  0  0  0  0  0  0  0  0  0  0  0
   21.8588  -21.1483  -12.2206 O   0  0  0  0  0  0  0  0  0  0  0  0
   22.9581  -19.2356  -12.6247 O   0  0  0  0  0  0  0  0  0  0  0  0
  2  1  1  1
  2  3  1  0
  4  5  1  0
  4  2  1  0
  5  7  1  0
  5  6  1  1
  7  8  2  0
 10  9  1  1
 11 10  1  0
 12 10  1  0
 13 12  1  6
 14 13  1  0
 14  7  1  0
 15 17  1  0
 15 13  1  0
 16 15  2  0
 18 21  1  0
 18 17  1  0
 18 19  1  1
 20 19  1  0
 21 22  1  0
 23 21  2  0
M  END
$$$$
