LLC.pdb
     RDKit          3D

 23 22  0  0  1  0  0  0  0  0999 V2000
   16.0378  -10.9573  -18.9061 C   0  0  0  0  0  0  0  0  0  0  0  0
   17.3379  -11.6347  -19.2099 C   0  0  2  0  0  0  0  0  0  0  0  0
   17.0766  -13.0694  -19.6112 C   0  0  0  0  0  0  0  0  0  0  0  0
   18.2601  -11.5805  -18.0119 C   0  0  0  0  0  0  0  0  0  0  0  0
   18.5332  -10.1799  -17.5615 C   0  0  2  0  0  0  0  0  0  0  0  0
   19.2472   -9.4817  -18.5870 N   0  0  0  0  0  0  0  0  0  0  0  0
   19.3967  -10.2666  -16.3451 C   0  0  0  0  0  0  0  0  0  0  0  0
   18.9698  -10.9030  -15.3528 O   0  0  0  0  0  0  0  0  0  0  0  0
   25.2033  -10.7055  -15.1305 C   0  0  0  0  0  0  0  0  0  0  0  0
   23.8126  -10.6530  -14.5311 C   0  0  2  0  0  0  0  0  0  0  0  0
   23.6565  -11.7231  -13.5238 C   0  0  0  0  0  0  0  0  0  0  0  0
   22.7299  -10.4356  -15.5026 C   0  0  0  0  0  0  0  0  0  0  0  0
   21.5098   -9.6963  -15.1344 C   0  0  2  0  0  0  0  0  0  0  0  0
   20.6650   -9.6306  -16.3495 N   0  0  0  0  0  0  0  0  0  0  0  0
   21.5952   -8.3788  -14.5506 C   0  0  0  0  0  0  0  0  0  0  0  0
   21.7331   -8.2842  -13.2696 O   0  0  0  0  0  0  0  0  0  0  0  0
   21.5550   -7.1312  -15.2121 N   0  0  0  0  0  0  0  0  0  0  0  0
   21.4793   -5.8719  -14.4873 C   0  0  1  0  0  0  0  0  0  0  0  0
   22.6101   -4.9978  -15.0423 C   0  0  0  0  0  0  0  0  0  0  0  0
   22.5813   -3.3830  -14.2175 S   0  0  0  0  0  0  0  0  0  0  0  0
   20.2349   -5.1190  -14.7162 C   0  0  0  0  0  0  0  0  0  0  0  0
   19.3797   -5.5475  -15.7337 O   0  0  0  0  0  0  0  0  0  0  0  0
   19.8639   -4.1158  -14.0766 O   0  0  0  0  0  0  0  0  0  0  0  0
  2  1  1  1
  2  3  1  0
  4  5  1  0
  4  2  1  0
  5  7  1  0
  5  6  1  6
  7  8  2  0
 10  9  1  6
 11 10  1  0
 12 10  1  0
 13 12  1  6
 14 13  1  0
 14  7  1  0
 15 17  1  0
 15 13  1  0
 16 15  2  0
 18 21  1  0
 18 17  1  0
 18 19  1  6
 20 19  1  0
 21 22  1  0
 23 21  2  0
M  END
$$$$
