LLC.pdb
     RDKit          3D

 23 22  0  0  1  0  0  0  0  0999 V2000
   27.6097  -20.5571  -19.4265 C   0  0  0  0  0  0  0  0  0  0  0  0
   28.7014  -20.3705  -18.4191 C   0  0  2  0  0  0  0  0  0  0  0  0
   29.9767  -20.9979  -18.9364 C   0  0  0  0  0  0  0  0  0  0  0  0
   28.3121  -20.9822  -17.0913 C   0  0  0  0  0  0  0  0  0  0  0  0
   27.0014  -20.4675  -16.5852 C   0  0  2  0  0  0  0  0  0  0  0  0
   27.0800  -19.0477  -16.4207 N   0  0  0  0  0  0  0  0  0  0  0  0
   26.7646  -21.0961  -15.2505 C   0  0  0  0  0  0  0  0  0  0  0  0
   26.6297  -22.3412  -15.1913 O   0  0  0  0  0  0  0  0  0  0  0  0
   29.0134  -22.4278  -12.3402 C   0  0  0  0  0  0  0  0  0  0  0  0
   28.8368  -20.9421  -12.1001 C   0  0  2  0  0  0  0  0  0  0  0  0
   29.8959  -20.4478  -11.1955 C   0  0  0  0  0  0  0  0  0  0  0  0
   27.4494  -20.5165  -11.8605 C   0  0  0  0  0  0  0  0  0  0  0  0
   26.3667  -20.8818  -12.7904 C   0  0  2  0  0  0  0  0  0  0  0  0
   26.7000  -20.2708  -14.0982 N   0  0  0  0  0  0  0  0  0  0  0  0
   24.9905  -20.5851  -12.4711 C   0  0  0  0  0  0  0  0  0  0  0  0
   24.7201  -19.4455  -11.9259 O   0  0  0  0  0  0  0  0  0  0  0  0
   23.8542  -21.3961  -12.6873 N   0  0  0  0  0  0  0  0  0  0  0  0
   22.5117  -20.8419  -12.7738 C   0  0  1  0  0  0  0  0  0  0  0  0
   22.5144  -19.9210  -13.9998 C   0  0  0  0  0  0  0  0  0  0  0  0
   20.8966  -19.1152  -14.1493 S   0  0  0  0  0  0  0  0  0  0  0  0
   21.4613  -21.8435  -13.0211 C   0  0  0  0  0  0  0  0  0  0  0  0
   21.7796  -22.9580  -13.8001 O   0  0  0  0  0  0  0  0  0  0  0  0
   20.2918  -21.7915  -12.5936 O   0  0  0  0  0  0  0  0  0  0  0  0
  2  1  1  6
  2  3  1  0
  4  5  1  0
  4  2  1  0
  5  7  1  0
  5  6  1  1
  7  8  2  0
 10  9  1  1
 11 10  1  0
 12 10  1  0
 13 12  1  1
 14 13  1  0
 14  7  1  0
 15 17  1  0
 15 13  1  0
 16 15  2  0
 18 21  1  0
 18 17  1  0
 18 19  1  6
 20 19  1  0
 21 22  1  0
 23 21  2  0
M  END
$$$$
