YDN.pdb
     RDKit          3D

 29 29  0  0  1  0  0  0  0  0999 V2000
   19.9922  -13.8647  -24.1178 O   0  0  0  0  0  0  0  0  0  0  0  0
   20.0112  -12.9935  -23.0366 C   0  0  0  0  0  0  0  0  0  0  0  0
   19.3746  -13.3429  -21.8579 C   0  0  0  0  0  0  0  0  0  0  0  0
   19.3766  -12.4893  -20.7560 C   0  0  0  0  0  0  0  0  0  0  0  0
   20.0133  -11.2705  -20.8074 C   0  0  0  0  0  0  0  0  0  0  0  0
   20.0295  -10.3495  -19.6482 C   0  0  0  0  0  0  0  0  0  0  0  0
   21.3695  -10.3126  -18.9550 C   0  0  2  0  0  0  0  0  0  0  0  0
   21.7565  -11.5704  -18.3948 N   0  0  0  0  0  0  0  0  0  0  0  0
   21.2473   -9.2765  -17.8654 C   0  0  0  0  0  0  0  0  0  0  0  0
   21.0149   -9.5822  -16.6719 O   0  0  0  0  0  0  0  0  0  0  0  0
   20.6467  -10.9332  -21.9936 C   0  0  0  0  0  0  0  0  0  0  0  0
   20.6531  -11.7669  -23.0912 C   0  0  0  0  0  0  0  0  0  0  0  0
   21.3975   -7.9278  -18.1919 N   0  0  0  0  0  0  0  0  0  0  0  0
   21.2773   -6.8321  -17.1653 C   0  0  1  0  0  0  0  0  0  0  0  0
   22.4226   -5.9133  -17.4049 C   0  0  0  0  0  0  0  0  0  0  0  0
   22.4855   -4.7393  -16.5809 C   0  0  0  0  0  0  0  0  0  0  0  0
   21.6760   -4.3562  -15.7369 O   0  0  0  0  0  0  0  0  0  0  0  0
   19.9380   -6.3072  -17.4039 C   0  0  0  0  0  0  0  0  0  0  0  0
   19.4145   -6.4875  -18.5621 O   0  0  0  0  0  0  0  0  0  0  0  0
   23.6156   -3.8805  -16.7292 O   0  0  0  0  0  0  0  0  0  0  0  0
   14.8912   -6.2698  -18.4534 N   0  0  0  0  0  0  0  0  0  0  0  0
   15.6139   -6.2936  -17.2364 C   0  0  0  0  0  0  0  0  0  0  0  0
   14.9464   -6.1292  -16.1527 O   0  0  0  0  0  0  0  0  0  0  0  0
   17.0496   -6.4891  -17.0772 C   0  0  0  0  0  0  0  0  0  0  0  0
   17.7959   -5.2030  -16.8381 C   0  0  2  0  0  0  0  0  0  0  0  0
   19.1662   -5.6248  -16.4704 N   0  0  0  0  0  0  0  0  0  0  0  0
   17.2672   -4.4008  -15.7331 C   0  0  0  0  0  0  0  0  0  0  0  0
   17.6681   -4.6105  -14.5606 O   0  0  0  0  0  0  0  0  0  0  0  0
   16.3342   -3.4036  -15.8989 O   0  0  0  0  0  0  0  0  0  0  0  0
  2 12  2  0
  2  1  1  0
  3  2  1  0
  4  5  1  0
  4  3  2  0
  5 11  2  0
  6  5  1  0
  7  9  1  0
  7  6  1  0
  7  8  1  1
  9 10  2  0
 11 12  1  0
 13 14  1  0
 13  9  1  0
 14 18  1  0
 14 15  1  6
 16 15  1  0
 16 17  2  0
 18 26  1  0
 18 19  2  0
 20 16  1  0
 21 22  1  0
 22 24  1  0
 23 22  2  0
 25 24  1  1
 25 27  1  0
 26 25  1  0
 27 28  2  0
 27 29  1  0
M  END
$$$$
