YDN.pdb
     RDKit          3D

 29 29  0  0  1  0  0  0  0  0999 V2000
   34.4358  -35.1042   -2.1055 O   0  0  0  0  0  0  0  0  0  0  0  0
   33.3963  -34.8752   -2.9972 C   0  0  0  0  0  0  0  0  0  0  0  0
   32.0841  -34.9938   -2.5721 C   0  0  0  0  0  0  0  0  0  0  0  0
   31.0198  -34.7702   -3.4440 C   0  0  0  0  0  0  0  0  0  0  0  0
   31.2427  -34.4239   -4.7569 C   0  0  0  0  0  0  0  0  0  0  0  0
   30.1271  -34.1799   -5.6994 C   0  0  0  0  0  0  0  0  0  0  0  0
   30.1301  -35.1405   -6.8632 C   0  0  2  0  0  0  0  0  0  0  0  0
   29.0195  -34.9681   -7.7477 N   0  0  0  0  0  0  0  0  0  0  0  0
   30.1033  -36.5240   -6.2625 C   0  0  0  0  0  0  0  0  0  0  0  0
   29.0384  -37.0773   -5.8993 O   0  0  0  0  0  0  0  0  0  0  0  0
   32.5613  -34.3087   -5.1693 C   0  0  0  0  0  0  0  0  0  0  0  0
   33.6237  -34.5267   -4.3187 C   0  0  0  0  0  0  0  0  0  0  0  0
   31.3040  -37.2177   -6.1030 N   0  0  0  0  0  0  0  0  0  0  0  0
   31.3563  -38.6257   -5.5701 C   0  0  1  0  0  0  0  0  0  0  0  0
   32.5110  -39.2798   -6.2426 C   0  0  0  0  0  0  0  0  0  0  0  0
   32.7800  -40.6411   -5.8740 C   0  0  0  0  0  0  0  0  0  0  0  0
   31.9998  -41.4750   -5.4157 O   0  0  0  0  0  0  0  0  0  0  0  0
   31.4479  -38.4255   -4.1286 C   0  0  0  0  0  0  0  0  0  0  0  0
   31.8439  -37.2820   -3.7002 O   0  0  0  0  0  0  0  0  0  0  0  0
   34.1105  -41.1277   -6.0458 O   0  0  0  0  0  0  0  0  0  0  0  0
   30.8213  -38.1162    0.9879 N   0  0  0  0  0  0  0  0  0  0  0  0
   30.1449  -37.5404   -0.1142 C   0  0  0  0  0  0  0  0  0  0  0  0
   29.2991  -36.6083    0.1365 O   0  0  0  0  0  0  0  0  0  0  0  0
   30.3073  -37.8925   -1.5194 C   0  0  0  0  0  0  0  0  0  0  0  0
   31.2733  -39.0278   -1.7340 C   0  0  2  0  0  0  0  0  0  0  0  0
   31.1328  -39.3771   -3.1654 N   0  0  0  0  0  0  0  0  0  0  0  0
   30.9690  -40.2282   -0.9526 C   0  0  0  0  0  0  0  0  0  0  0  0
   30.1413  -41.0663   -1.3907 O   0  0  0  0  0  0  0  0  0  0  0  0
   31.5468  -40.5072    0.2643 O   0  0  0  0  0  0  0  0  0  0  0  0
  2 12  2  0
  2  1  1  0
  3  2  1  0
  4  5  1  0
  4  3  2  0
  5 11  2  0
  6  5  1  0
  7  9  1  0
  7  6  1  0
  7  8  1  6
  9 10  2  0
 11 12  1  0
 13 14  1  0
 13  9  1  0
 14 18  1  0
 14 15  1  6
 16 15  1  0
 16 17  2  0
 18 26  1  0
 18 19  2  0
 20 16  1  0
 21 22  1  0
 22 24  1  0
 23 22  2  0
 25 24  1  1
 25 27  1  0
 26 25  1  0
 27 28  2  0
 27 29  1  0
M  END
$$$$
