YDN.pdb
     RDKit          3D

 29 29  0  0  1  0  0  0  0  0999 V2000
   31.0485  -22.2551   -9.6023 O   0  0  0  0  0  0  0  0  0  0  0  0
   30.1988  -21.5747  -10.4644 C   0  0  0  0  0  0  0  0  0  0  0  0
   30.7023  -20.5836  -11.2895 C   0  0  0  0  0  0  0  0  0  0  0  0
   29.8740  -19.8834  -12.1651 C   0  0  0  0  0  0  0  0  0  0  0  0
   28.5274  -20.1576  -12.2355 C   0  0  0  0  0  0  0  0  0  0  0  0
   27.6301  -19.4276  -13.1597 C   0  0  0  0  0  0  0  0  0  0  0  0
   27.4966  -20.1104  -14.4989 C   0  0  2  0  0  0  0  0  0  0  0  0
   28.6764  -20.0247  -15.3028 N   0  0  0  0  0  0  0  0  0  0  0  0
   26.3435  -19.4347  -15.1986 C   0  0  0  0  0  0  0  0  0  0  0  0
   26.4229  -18.2672  -15.6487 O   0  0  0  0  0  0  0  0  0  0  0  0
   28.0365  -21.1523  -11.4038 C   0  0  0  0  0  0  0  0  0  0  0  0
   28.8432  -21.8528  -10.5330 C   0  0  0  0  0  0  0  0  0  0  0  0
   25.1428  -20.1294  -15.3534 N   0  0  0  0  0  0  0  0  0  0  0  0
   23.9700  -19.5541  -16.1034 C   0  0  1  0  0  0  0  0  0  0  0  0
   23.9560  -20.2283  -17.4295 C   0  0  0  0  0  0  0  0  0  0  0  0
   25.0424  -19.9205  -18.3162 C   0  0  0  0  0  0  0  0  0  0  0  0
   25.4759  -18.8139  -18.6351 O   0  0  0  0  0  0  0  0  0  0  0  0
   22.8496  -19.8172  -15.2079 C   0  0  0  0  0  0  0  0  0  0  0  0
   23.1090  -20.1828  -14.0049 O   0  0  0  0  0  0  0  0  0  0  0  0
   25.7337  -21.0097  -18.9264 O   0  0  0  0  0  0  0  0  0  0  0  0
   18.5014  -19.7705  -12.3950 N   0  0  0  0  0  0  0  0  0  0  0  0
   19.5201  -18.8011  -12.5566 C   0  0  0  0  0  0  0  0  0  0  0  0
   19.5602  -17.8423  -11.7045 O   0  0  0  0  0  0  0  0  0  0  0  0
   20.5422  -18.7733  -13.5956 C   0  0  0  0  0  0  0  0  0  0  0  0
   20.4768  -19.9622  -14.5178 C   0  0  2  0  0  0  0  0  0  0  0  0
   21.5068  -19.6981  -15.5474 N   0  0  0  0  0  0  0  0  0  0  0  0
   19.1927  -20.1169  -15.2044 C   0  0  0  0  0  0  0  0  0  0  0  0
   18.1747  -20.4658  -14.5554 O   0  0  0  0  0  0  0  0  0  0  0  0
   19.0225  -19.8986  -16.5519 O   0  0  0  0  0  0  0  0  0  0  0  0
  2 12  2  0
  2  1  1  0
  3  2  1  0
  4  5  1  0
  4  3  2  0
  5 11  2  0
  6  5  1  0
  7  9  1  0
  7  6  1  0
  7  8  1  6
  9 10  2  0
 11 12  1  0
 13 14  1  0
 13  9  1  0
 14 18  1  0
 14 15  1  6
 16 15  1  0
 16 17  2  0
 18 26  1  0
 18 19  2  0
 20 16  1  0
 21 22  1  0
 22 24  1  0
 23 22  2  0
 25 24  1  1
 25 27  1  0
 26 25  1  0
 27 28  2  0
 27 29  1  0
M  END
$$$$
