YDN.pdb
     RDKit          3D

 29 29  0  0  1  0  0  0  0  0999 V2000
   35.2281   -7.8455  -15.4431 O   0  0  0  0  0  0  0  0  0  0  0  0
   34.1640   -8.2783  -16.2232 C   0  0  0  0  0  0  0  0  0  0  0  0
   34.4059   -8.8952  -17.4388 C   0  0  0  0  0  0  0  0  0  0  0  0
   33.3585   -9.3402  -18.2436 C   0  0  0  0  0  0  0  0  0  0  0  0
   32.0491   -9.1790  -17.8524 C   0  0  0  0  0  0  0  0  0  0  0  0
   30.9215   -9.6460  -18.6907 C   0  0  0  0  0  0  0  0  0  0  0  0
   30.5193  -11.0676  -18.3827 C   0  0  2  0  0  0  0  0  0  0  0  0
   31.5613  -12.0187  -18.6178 N   0  0  0  0  0  0  0  0  0  0  0  0
   29.3355  -11.3675  -19.2683 C   0  0  0  0  0  0  0  0  0  0  0  0
   29.4284  -12.0846  -20.2926 O   0  0  0  0  0  0  0  0  0  0  0  0
   31.8211   -8.5598  -16.6331 C   0  0  0  0  0  0  0  0  0  0  0  0
   32.8465   -8.1146  -15.8268 C   0  0  0  0  0  0  0  0  0  0  0  0
   28.0897  -10.8301  -18.9405 N   0  0  0  0  0  0  0  0  0  0  0  0
   26.8525  -11.1103  -19.7528 C   0  0  1  0  0  0  0  0  0  0  0  0
   25.9052  -11.8029  -18.8382 C   0  0  0  0  0  0  0  0  0  0  0  0
   26.2962  -13.1052  -18.3773 C   0  0  0  0  0  0  0  0  0  0  0  0
   26.9734  -13.9494  -18.9629 O   0  0  0  0  0  0  0  0  0  0  0  0
   26.4712   -9.7873  -20.2330 C   0  0  0  0  0  0  0  0  0  0  0  0
   27.1477   -8.7762  -19.8230 O   0  0  0  0  0  0  0  0  0  0  0  0
   25.8642  -13.5102  -17.0790 O   0  0  0  0  0  0  0  0  0  0  0  0
   24.7845   -5.2329  -21.5408 N   0  0  0  0  0  0  0  0  0  0  0  0
   25.1998   -5.9065  -20.3671 C   0  0  0  0  0  0  0  0  0  0  0  0
   25.4707   -5.1861  -19.3402 O   0  0  0  0  0  0  0  0  0  0  0  0
   25.3530   -7.3458  -20.1942 C   0  0  0  0  0  0  0  0  0  0  0  0
   25.1187   -8.1197  -21.4648 C   0  0  2  0  0  0  0  0  0  0  0  0
   25.4284   -9.5238  -21.1138 N   0  0  0  0  0  0  0  0  0  0  0  0
   25.9978   -7.7346  -22.5707 C   0  0  0  0  0  0  0  0  0  0  0  0
   25.8811   -6.5989  -23.0958 O   0  0  0  0  0  0  0  0  0  0  0  0
   26.9715   -8.5579  -23.0871 O   0  0  0  0  0  0  0  0  0  0  0  0
  2 12  2  0
  2  1  1  0
  3  2  1  0
  4  5  1  0
  4  3  2  0
  5 11  2  0
  6  5  1  0
  7  9  1  0
  7  6  1  0
  7  8  1  6
  9 10  2  0
 11 12  1  0
 13 14  1  0
 13  9  1  0
 14 18  1  0
 14 15  1  1
 16 15  1  0
 16 17  2  0
 18 26  1  0
 18 19  2  0
 20 16  1  0
 21 22  1  0
 22 24  1  0
 23 22  2  0
 25 24  1  1
 25 27  1  0
 26 25  1  0
 27 28  2  0
 27 29  1  0
M  END
$$$$
