YDN.pdb
     RDKit          3D

 29 29  0  0  1  0  0  0  0  0999 V2000
   35.4055   -9.1854   -6.3886 O   0  0  0  0  0  0  0  0  0  0  0  0
   36.7320   -9.4275   -6.7206 C   0  0  0  0  0  0  0  0  0  0  0  0
   37.3861   -8.5871   -7.6052 C   0  0  0  0  0  0  0  0  0  0  0  0
   38.7171   -8.8046   -7.9573 C   0  0  0  0  0  0  0  0  0  0  0  0
   39.4223   -9.8642   -7.4344 C   0  0  0  0  0  0  0  0  0  0  0  0
   40.8372  -10.1124   -7.7932 C   0  0  0  0  0  0  0  0  0  0  0  0
   41.7784   -9.8808   -6.6365 C   0  0  2  0  0  0  0  0  0  0  0  0
   41.5367   -8.6544   -5.9414 N   0  0  0  0  0  0  0  0  0  0  0  0
   43.1681   -9.8777   -7.2234 C   0  0  0  0  0  0  0  0  0  0  0  0
   43.7184   -8.8306   -7.6392 O   0  0  0  0  0  0  0  0  0  0  0  0
   38.7553  -10.6977   -6.5499 C   0  0  0  0  0  0  0  0  0  0  0  0
   37.4396  -10.4952   -6.1925 C   0  0  0  0  0  0  0  0  0  0  0  0
   43.8710  -11.0804   -7.3091 N   0  0  0  0  0  0  0  0  0  0  0  0
   45.2799  -11.1544   -7.8367 C   0  0  1  0  0  0  0  0  0  0  0  0
   46.1030  -11.7300   -6.7392 C   0  0  0  0  0  0  0  0  0  0  0  0
   46.4041  -10.8581   -5.6391 C   0  0  0  0  0  0  0  0  0  0  0  0
   46.8896   -9.7279   -5.6731 O   0  0  0  0  0  0  0  0  0  0  0  0
   45.1325  -11.9502   -9.0497 C   0  0  0  0  0  0  0  0  0  0  0  0
   44.7554  -13.1715   -8.9304 O   0  0  0  0  0  0  0  0  0  0  0  0
   46.1185  -11.3248   -4.3211 O   0  0  0  0  0  0  0  0  0  0  0  0
   42.3869  -12.9185  -10.8145 N   0  0  0  0  0  0  0  0  0  0  0  0
   42.7571  -12.0923  -11.9026 C   0  0  0  0  0  0  0  0  0  0  0  0
   41.8101  -11.5659  -12.5903 O   0  0  0  0  0  0  0  0  0  0  0  0
   44.1122  -11.7680  -12.3312 C   0  0  0  0  0  0  0  0  0  0  0  0
   45.1705  -12.4188  -11.4800 C   0  0  2  0  0  0  0  0  0  0  0  0
   45.3620  -11.4920  -10.3420 N   0  0  0  0  0  0  0  0  0  0  0  0
   46.4642  -12.5739  -12.1483 C   0  0  0  0  0  0  0  0  0  0  0  0
   47.0708  -11.5610  -12.5789 O   0  0  0  0  0  0  0  0  0  0  0  0
   47.0772  -13.7903  -12.3406 O   0  0  0  0  0  0  0  0  0  0  0  0
  2 12  2  0
  2  1  1  0
  3  2  1  0
  4  5  1  0
  4  3  2  0
  5 11  2  0
  6  5  1  0
  7  9  1  0
  7  6  1  0
  7  8  1  6
  9 10  2  0
 11 12  1  0
 13 14  1  0
 13  9  1  0
 14 18  1  0
 14 15  1  1
 16 15  1  0
 16 17  2  0
 18 26  1  0
 18 19  2  0
 20 16  1  0
 21 22  1  0
 22 24  1  0
 23 22  2  0
 25 24  1  6
 25 27  1  0
 26 25  1  0
 27 28  2  0
 27 29  1  0
M  END
$$$$
