YDN.pdb
     RDKit          3D

 29 29  0  0  1  0  0  0  0  0999 V2000
   28.4095  -24.4472  -19.0806 O   0  0  0  0  0  0  0  0  0  0  0  0
   27.4333  -23.8666  -18.2817 C   0  0  0  0  0  0  0  0  0  0  0  0
   26.2954  -23.3322  -18.8614 C   0  0  0  0  0  0  0  0  0  0  0  0
   25.2985  -22.7430  -18.0855 C   0  0  0  0  0  0  0  0  0  0  0  0
   25.4164  -22.6752  -16.7162 C   0  0  0  0  0  0  0  0  0  0  0  0
   24.3687  -22.0558  -15.8729 C   0  0  0  0  0  0  0  0  0  0  0  0
   24.3711  -20.5491  -15.9578 C   0  0  2  0  0  0  0  0  0  0  0  0
   25.6082  -19.9570  -15.5521 N   0  0  0  0  0  0  0  0  0  0  0  0
   23.2534  -20.0788  -15.0604 C   0  0  0  0  0  0  0  0  0  0  0  0
   23.4326  -19.8145  -13.8479 O   0  0  0  0  0  0  0  0  0  0  0  0
   26.5608  -23.2141  -16.1487 C   0  0  0  0  0  0  0  0  0  0  0  0
   27.5547  -23.7996  -16.9031 C   0  0  0  0  0  0  0  0  0  0  0  0
   21.9720  -19.9309  -15.5935 N   0  0  0  0  0  0  0  0  0  0  0  0
   20.8325  -19.3452  -14.8013 C   0  0  1  0  0  0  0  0  0  0  0  0
   20.2335  -18.2871  -15.6587 C   0  0  0  0  0  0  0  0  0  0  0  0
   19.0285  -17.6755  -15.1737 C   0  0  0  0  0  0  0  0  0  0  0  0
   17.9066  -17.6960  -15.6790 O   0  0  0  0  0  0  0  0  0  0  0  0
   20.0086  -20.5111  -14.5046 C   0  0  0  0  0  0  0  0  0  0  0  0
   19.8080  -21.3652  -15.4418 O   0  0  0  0  0  0  0  0  0  0  0  0
   19.0988  -16.9405  -13.9525 O   0  0  0  0  0  0  0  0  0  0  0  0
   19.1976  -25.2249  -11.2350 N   0  0  0  0  0  0  0  0  0  0  0  0
   18.7173  -24.1776  -12.0574 C   0  0  0  0  0  0  0  0  0  0  0  0
   17.7992  -24.4695  -12.9053 O   0  0  0  0  0  0  0  0  0  0  0  0
   19.1546  -22.7871  -12.0450 C   0  0  0  0  0  0  0  0  0  0  0  0
   18.5370  -21.9659  -13.1460 C   0  0  2  0  0  0  0  0  0  0  0  0
   19.4190  -20.7844  -13.2756 N   0  0  0  0  0  0  0  0  0  0  0  0
   17.1880  -21.4815  -12.8465 C   0  0  0  0  0  0  0  0  0  0  0  0
   16.1983  -22.2339  -13.0304 O   0  0  0  0  0  0  0  0  0  0  0  0
   16.9252  -20.2209  -12.3625 O   0  0  0  0  0  0  0  0  0  0  0  0
  2 12  2  0
  2  1  1  0
  3  2  1  0
  4  5  1  0
  4  3  2  0
  5 11  2  0
  6  5  1  0
  7  9  1  0
  7  6  1  0
  7  8  1  1
  9 10  2  0
 11 12  1  0
 13 14  1  0
 13  9  1  0
 14 18  1  0
 14 15  1  6
 16 15  1  0
 16 17  2  0
 18 26  1  0
 18 19  2  0
 20 16  1  0
 21 22  1  0
 22 24  1  0
 23 22  2  0
 25 24  1  1
 25 27  1  0
 26 25  1  0
 27 28  2  0
 27 29  1  0
M  END
$$$$
