YDN.pdb
     RDKit          3D

 29 29  0  0  1  0  0  0  0  0999 V2000
   24.2408   -9.9626  -24.4806 O   0  0  0  0  0  0  0  0  0  0  0  0
   23.6116   -9.4700  -23.3449 C   0  0  0  0  0  0  0  0  0  0  0  0
   22.2469   -9.2378  -23.3583 C   0  0  0  0  0  0  0  0  0  0  0  0
   21.5876   -8.7438  -22.2339 C   0  0  0  0  0  0  0  0  0  0  0  0
   22.2760   -8.4716  -21.0739 C   0  0  0  0  0  0  0  0  0  0  0  0
   21.5954   -7.9484  -19.8676 C   0  0  0  0  0  0  0  0  0  0  0  0
   21.5179   -8.9675  -18.7572 C   0  0  2  0  0  0  0  0  0  0  0  0
   20.7955  -10.1484  -19.1164 N   0  0  0  0  0  0  0  0  0  0  0  0
   20.8368   -8.2755  -17.6025 C   0  0  0  0  0  0  0  0  0  0  0  0
   19.5952   -8.3175  -17.4331 O   0  0  0  0  0  0  0  0  0  0  0  0
   23.6420   -8.7087  -21.0743 C   0  0  0  0  0  0  0  0  0  0  0  0
   24.3073   -9.1968  -22.1783 C   0  0  0  0  0  0  0  0  0  0  0  0
   21.6117   -7.5616  -16.6870 N   0  0  0  0  0  0  0  0  0  0  0  0
   21.0049   -6.8102  -15.5311 C   0  0  1  0  0  0  0  0  0  0  0  0
   21.7740   -7.2164  -14.3242 C   0  0  0  0  0  0  0  0  0  0  0  0
   21.3757   -6.6208  -13.0801 C   0  0  0  0  0  0  0  0  0  0  0  0
   21.8735   -6.7781  -11.9658 O   0  0  0  0  0  0  0  0  0  0  0  0
   21.1115   -5.4189  -15.9547 C   0  0  0  0  0  0  0  0  0  0  0  0
   22.1633   -5.0607  -16.5977 O   0  0  0  0  0  0  0  0  0  0  0  0
   20.2642   -5.7259  -13.0952 O   0  0  0  0  0  0  0  0  0  0  0  0
   20.3164   -0.2410  -16.9035 N   0  0  0  0  0  0  0  0  0  0  0  0
   19.1462   -1.0090  -16.6931 C   0  0  0  0  0  0  0  0  0  0  0  0
   18.0187   -0.4071  -16.8096 O   0  0  0  0  0  0  0  0  0  0  0  0
   19.0803   -2.4259  -16.3569 C   0  0  0  0  0  0  0  0  0  0  0  0
   20.4372   -3.0450  -16.1474 C   0  0  2  0  0  0  0  0  0  0  0  0
   20.1562   -4.4354  -15.7249 N   0  0  0  0  0  0  0  0  0  0  0  0
   21.2272   -2.4112  -15.0899 C   0  0  0  0  0  0  0  0  0  0  0  0
   21.1831   -2.8654  -13.9189 O   0  0  0  0  0  0  0  0  0  0  0  0
   22.0384   -1.3202  -15.3001 O   0  0  0  0  0  0  0  0  0  0  0  0
  2 12  2  0
  2  1  1  0
  3  2  1  0
  4  5  1  0
  4  3  2  0
  5 11  2  0
  6  5  1  0
  7  9  1  0
  7  6  1  0
  7  8  1  6
  9 10  2  0
 11 12  1  0
 13 14  1  0
 13  9  1  0
 14 18  1  0
 14 15  1  1
 16 15  1  0
 16 17  2  0
 18 26  1  0
 18 19  2  0
 20 16  1  0
 21 22  1  0
 22 24  1  0
 23 22  2  0
 25 24  1  1
 25 27  1  0
 26 25  1  0
 27 28  2  0
 27 29  1  0
M  END
$$$$
