YDN.pdb
     RDKit          3D

 29 29  0  0  1  0  0  0  0  0999 V2000
   15.4753  -18.2028  -17.7423 O   0  0  0  0  0  0  0  0  0  0  0  0
   16.2192  -17.1311  -17.2666 C   0  0  0  0  0  0  0  0  0  0  0  0
   15.9879  -15.8581  -17.7592 C   0  0  0  0  0  0  0  0  0  0  0  0
   16.7185  -14.7630  -17.3011 C   0  0  0  0  0  0  0  0  0  0  0  0
   17.6940  -14.9153  -16.3427 C   0  0  0  0  0  0  0  0  0  0  0  0
   18.4803  -13.7656  -15.8406 C   0  0  0  0  0  0  0  0  0  0  0  0
   19.7071  -13.4926  -16.6759 C   0  0  2  0  0  0  0  0  0  0  0  0
   20.6170  -14.5947  -16.7301 N   0  0  0  0  0  0  0  0  0  0  0  0
   20.3802  -12.2962  -16.0502 C   0  0  0  0  0  0  0  0  0  0  0  0
   21.5277  -12.3580  -15.5488 O   0  0  0  0  0  0  0  0  0  0  0  0
   17.9153  -16.1952  -15.8581 C   0  0  0  0  0  0  0  0  0  0  0  0
   17.2009  -17.2874  -16.3015 C   0  0  0  0  0  0  0  0  0  0  0  0
   19.7061  -11.0743  -16.0258 N   0  0  0  0  0  0  0  0  0  0  0  0
   20.3471   -9.8105  -15.5152 C   0  0  1  0  0  0  0  0  0  0  0  0
   21.6106   -9.6478  -16.2836 C   0  0  0  0  0  0  0  0  0  0  0  0
   22.3742   -8.4615  -16.0175 C   0  0  0  0  0  0  0  0  0  0  0  0
   22.4519   -7.8246  -14.9675 O   0  0  0  0  0  0  0  0  0  0  0  0
   19.3060   -8.8105  -15.7213 C   0  0  0  0  0  0  0  0  0  0  0  0
   18.7978   -8.6986  -16.8948 O   0  0  0  0  0  0  0  0  0  0  0  0
   23.1567   -7.9200  -17.0810 O   0  0  0  0  0  0  0  0  0  0  0  0
   14.5320   -5.9902  -14.6110 N   0  0  0  0  0  0  0  0  0  0  0  0
   15.8224   -5.8924  -14.0375 C   0  0  0  0  0  0  0  0  0  0  0  0
   16.1612   -4.7584  -13.5414 O   0  0  0  0  0  0  0  0  0  0  0  0
   16.8195   -6.9518  -13.9452 C   0  0  0  0  0  0  0  0  0  0  0  0
   17.7745   -6.9644  -15.1096 C   0  0  2  0  0  0  0  0  0  0  0  0
   18.8051   -7.9610  -14.7414 N   0  0  0  0  0  0  0  0  0  0  0  0
   18.4542   -5.6880  -15.3400 C   0  0  0  0  0  0  0  0  0  0  0  0
   17.8003   -4.6968  -15.7515 O   0  0  0  0  0  0  0  0  0  0  0  0
   19.8001   -5.4969  -15.1289 O   0  0  0  0  0  0  0  0  0  0  0  0
  2 12  2  0
  2  1  1  0
  3  2  1  0
  4  5  1  0
  4  3  2  0
  5 11  2  0
  6  5  1  0
  7  9  1  0
  7  6  1  0
  7  8  1  1
  9 10  2  0
 11 12  1  0
 13 14  1  0
 13  9  1  0
 14 18  1  0
 14 15  1  6
 16 15  1  0
 16 17  2  0
 18 26  1  0
 18 19  2  0
 20 16  1  0
 21 22  1  0
 22 24  1  0
 23 22  2  0
 25 24  1  1
 25 27  1  0
 26 25  1  0
 27 28  2  0
 27 29  1  0
M  END
$$$$
