YDN.pdb
     RDKit          3D

 29 29  0  0  1  0  0  0  0  0999 V2000
   28.9630  -19.4339   -3.0512 O   0  0  0  0  0  0  0  0  0  0  0  0
   28.4537  -19.4743   -4.3424 C   0  0  0  0  0  0  0  0  0  0  0  0
   27.5716  -20.4780   -4.7049 C   0  0  0  0  0  0  0  0  0  0  0  0
   27.0439  -20.5445   -5.9933 C   0  0  0  0  0  0  0  0  0  0  0  0
   27.3850  -19.6118   -6.9457 C   0  0  0  0  0  0  0  0  0  0  0  0
   26.8346  -19.6625   -8.3193 C   0  0  0  0  0  0  0  0  0  0  0  0
   27.3172  -20.8645   -9.0937 C   0  0  2  0  0  0  0  0  0  0  0  0
   28.7411  -20.9982   -9.1101 N   0  0  0  0  0  0  0  0  0  0  0  0
   26.7976  -20.6915  -10.4993 C   0  0  0  0  0  0  0  0  0  0  0  0
   27.5192  -20.2708  -11.4344 O   0  0  0  0  0  0  0  0  0  0  0  0
   28.2690  -18.6123   -6.5693 C   0  0  0  0  0  0  0  0  0  0  0  0
   28.7989  -18.5338   -5.2993 C   0  0  0  0  0  0  0  0  0  0  0  0
   25.4667  -21.0095  -10.7745 N   0  0  0  0  0  0  0  0  0  0  0  0
   24.9286  -21.0778  -12.1797 C   0  0  1  0  0  0  0  0  0  0  0  0
   25.3056  -22.4187  -12.7024 C   0  0  0  0  0  0  0  0  0  0  0  0
   24.9528  -22.6973  -14.0659 C   0  0  0  0  0  0  0  0  0  0  0  0
   24.3864  -21.9605  -14.8725 O   0  0  0  0  0  0  0  0  0  0  0  0
   23.5074  -20.8065  -11.9982 C   0  0  0  0  0  0  0  0  0  0  0  0
   22.9660  -21.1356  -10.8816 O   0  0  0  0  0  0  0  0  0  0  0  0
   25.2839  -23.9823  -14.5908 O   0  0  0  0  0  0  0  0  0  0  0  0
   18.5458  -18.9790  -12.2873 N   0  0  0  0  0  0  0  0  0  0  0  0
   19.5176  -18.2840  -13.0464 C   0  0  0  0  0  0  0  0  0  0  0  0
   19.1445  -17.2053  -13.6332 O   0  0  0  0  0  0  0  0  0  0  0  0
   20.9127  -18.6622  -13.2349 C   0  0  0  0  0  0  0  0  0  0  0  0
   21.2522  -19.9901  -12.6108 C   0  0  2  0  0  0  0  0  0  0  0  0
   22.6786  -20.2082  -12.9404 N   0  0  0  0  0  0  0  0  0  0  0  0
   20.4938  -21.1184  -13.1549 C   0  0  0  0  0  0  0  0  0  0  0  0
   19.5231  -21.5884  -12.5098 O   0  0  0  0  0  0  0  0  0  0  0  0
   20.7819  -21.7144  -14.3609 O   0  0  0  0  0  0  0  0  0  0  0  0
  2 12  2  0
  2  1  1  0
  3  2  1  0
  4  5  1  0
  4  3  2  0
  5 11  2  0
  6  5  1  0
  7  9  1  0
  7  6  1  0
  7  8  1  6
  9 10  2  0
 11 12  1  0
 13 14  1  0
 13  9  1  0
 14 18  1  0
 14 15  1  1
 16 15  1  0
 16 17  2  0
 18 26  1  0
 18 19  2  0
 20 16  1  0
 21 22  1  0
 22 24  1  0
 23 22  2  0
 25 24  1  6
 25 27  1  0
 26 25  1  0
 27 28  2  0
 27 29  1  0
M  END
$$$$
