AQT.pdb
     RDKit          3D

 22 21  0  0  1  0  0  0  0  0999 V2000
   -1.6028  -25.5805   25.5885 C   0  0  0  0  0  0  0  0  0  0  0  0
   -1.5125  -25.5511   27.0865 C   0  0  2  0  0  0  0  0  0  0  0  0
   -0.6567  -26.6477   27.5483 N   0  0  0  0  0  0  0  0  0  0  0  0
   -2.8386  -25.6662   27.7403 C   0  0  0  0  0  0  0  0  0  0  0  0
   -3.6588  -26.4952   27.2554 O   0  0  0  0  0  0  0  0  0  0  0  0
   -3.7439  -26.6397   33.5223 N   0  0  0  0  0  0  0  0  0  0  0  0
   -5.1047  -26.5363   33.1249 C   0  0  0  0  0  0  0  0  0  0  0  0
   -5.9852  -26.9251   33.9313 O   0  0  0  0  0  0  0  0  0  0  0  0
   -5.4067  -25.9777   31.7872 C   0  0  0  0  0  0  0  0  0  0  0  0
   -4.1862  -25.6958   30.9791 C   0  0  0  0  0  0  0  0  0  0  0  0
   -4.4368  -25.1361   29.6158 C   0  0  2  0  0  0  0  0  0  0  0  0
   -3.2255  -24.8998   28.8698 N   0  0  0  0  0  0  0  0  0  0  0  0
   -5.2001  -23.8521   29.8173 C   0  0  0  0  0  0  0  0  0  0  0  0
   -4.5903  -22.8396   30.2456 O   0  0  0  0  0  0  0  0  0  0  0  0
   -7.0958  -21.6315   27.3338 C   0  0  0  0  0  0  0  0  0  0  0  0
   -7.9770  -22.0404   28.4679 C   0  0  1  0  0  0  0  0  0  0  0  0
   -8.7495  -23.1279   28.0631 O   0  0  0  0  0  0  0  0  0  0  0  0
   -7.2196  -22.4546   29.7028 C   0  0  2  0  0  0  0  0  0  0  0  0
   -6.5725  -23.7393   29.5447 N   0  0  0  0  0  0  0  0  0  0  0  0
   -8.1793  -22.4678   30.8454 C   0  0  0  0  0  0  0  0  0  0  0  0
   -8.6934  -21.2976   31.3347 O   0  0  0  0  0  0  0  0  0  0  0  0
   -8.5256  -23.5559   31.3707 O   0  0  0  0  0  0  0  0  0  0  0  0
  2  1  1  6
  2  4  1  0
  3  2  1  0
  4  5  2  0
  6  7  1  0
  7  8  2  0
  7  9  1  0
  9 10  1  0
 11 10  1  1
 11 13  1  0
 12 11  1  0
 12  4  1  0
 13 19  1  0
 14 13  2  0
 16 15  1  6
 16 17  1  0
 18 16  1  0
 18 19  1  6
 20 18  1  0
 21 20  1  0
 22 20  2  0
M  END
$$$$
