AQT.pdb
     RDKit          3D

 22 21  0  0  1  0  0  0  0  0999 V2000
    7.6856  -13.0327   19.2703 C   0  0  0  0  0  0  0  0  0  0  0  0
    7.8248  -14.3864   19.9036 C   0  0  2  0  0  0  0  0  0  0  0  0
    6.5018  -14.8877   20.2862 N   0  0  0  0  0  0  0  0  0  0  0  0
    8.6987  -14.3686   21.1016 C   0  0  0  0  0  0  0  0  0  0  0  0
    9.9344  -14.1806   20.9205 O   0  0  0  0  0  0  0  0  0  0  0  0
    6.7803  -14.2049   26.9799 N   0  0  0  0  0  0  0  0  0  0  0  0
    6.2039  -13.5999   25.8302 C   0  0  0  0  0  0  0  0  0  0  0  0
    5.0222  -13.1835   25.9133 O   0  0  0  0  0  0  0  0  0  0  0  0
    7.0262  -13.4947   24.6032 C   0  0  0  0  0  0  0  0  0  0  0  0
    8.4290  -13.9614   24.7944 C   0  0  0  0  0  0  0  0  0  0  0  0
    9.0739  -14.5613   23.5866 C   0  0  2  0  0  0  0  0  0  0  0  0
    8.2198  -14.5502   22.4247 N   0  0  0  0  0  0  0  0  0  0  0  0
    9.4487  -15.9722   23.9616 C   0  0  0  0  0  0  0  0  0  0  0  0
    8.5927  -16.8848   23.8394 O   0  0  0  0  0  0  0  0  0  0  0  0
   12.8184  -19.4693   24.3988 C   0  0  0  0  0  0  0  0  0  0  0  0
   12.4741  -18.0211   24.2793 C   0  0  1  0  0  0  0  0  0  0  0  0
   12.6595  -17.6262   22.9553 O   0  0  0  0  0  0  0  0  0  0  0  0
   11.0489  -17.7059   24.6530 C   0  0  2  0  0  0  0  0  0  0  0  0
   10.7222  -16.3117   24.4448 N   0  0  0  0  0  0  0  0  0  0  0  0
   10.8512  -18.1022   26.0780 C   0  0  0  0  0  0  0  0  0  0  0  0
   10.7357  -19.4217   26.4228 O   0  0  0  0  0  0  0  0  0  0  0  0
   10.7886  -17.2264   26.9774 O   0  0  0  0  0  0  0  0  0  0  0  0
  2  1  1  1
  2  4  1  0
  3  2  1  0
  4  5  2  0
  6  7  1  0
  7  8  2  0
  7  9  1  0
  9 10  1  0
 11 10  1  1
 11 13  1  0
 12 11  1  0
 12  4  1  0
 13 19  1  0
 14 13  2  0
 16 15  1  6
 16 17  1  0
 18 16  1  0
 18 19  1  1
 20 18  1  0
 21 20  1  0
 22 20  2  0
M  END
$$$$
