AQT.pdb
     RDKit          3D

 22 21  0  0  1  0  0  0  0  0999 V2000
    4.9374  -18.9701   23.5446 C   0  0  0  0  0  0  0  0  0  0  0  0
    5.3257  -18.8957   22.0967 C   0  0  2  0  0  0  0  0  0  0  0  0
    5.5402  -20.2488   21.5758 N   0  0  0  0  0  0  0  0  0  0  0  0
    6.5534  -18.0937   21.8757 C   0  0  0  0  0  0  0  0  0  0  0  0
    7.6638  -18.6508   22.1031 O   0  0  0  0  0  0  0  0  0  0  0  0
    7.0389  -12.5699   18.7505 N   0  0  0  0  0  0  0  0  0  0  0  0
    8.4007  -12.8745   19.0208 C   0  0  0  0  0  0  0  0  0  0  0  0
    9.2811  -12.1327   18.5196 O   0  0  0  0  0  0  0  0  0  0  0  0
    8.7038  -14.0452   19.8754 C   0  0  0  0  0  0  0  0  0  0  0  0
    7.4836  -14.7607   20.3458 C   0  0  0  0  0  0  0  0  0  0  0  0
    7.7360  -15.9834   21.1681 C   0  0  2  0  0  0  0  0  0  0  0  0
    6.5410  -16.7479   21.4269 N   0  0  0  0  0  0  0  0  0  0  0  0
    8.3566  -15.5081   22.4569 C   0  0  0  0  0  0  0  0  0  0  0  0
    9.4872  -14.9594   22.4247 O   0  0  0  0  0  0  0  0  0  0  0  0
    7.0481  -13.1633   25.4013 C   0  0  0  0  0  0  0  0  0  0  0  0
    7.4791  -14.5173   25.8604 C   0  0  1  0  0  0  0  0  0  0  0  0
    6.3479  -15.3175   26.0136 O   0  0  0  0  0  0  0  0  0  0  0  0
    8.4038  -15.2159   24.8975 C   0  0  2  0  0  0  0  0  0  0  0  0
    7.7202  -15.6537   23.6996 N   0  0  0  0  0  0  0  0  0  0  0  0
    9.0292  -16.3648   25.6156 C   0  0  0  0  0  0  0  0  0  0  0  0
    9.8202  -16.1517   26.7120 O   0  0  0  0  0  0  0  0  0  0  0  0
    8.8353  -17.5419   25.2198 O   0  0  0  0  0  0  0  0  0  0  0  0
  2  1  1  1
  2  4  1  0
  3  2  1  0
  4  5  2  0
  6  7  1  0
  7  8  2  0
  7  9  1  0
  9 10  1  0
 11 10  1  6
 11 13  1  0
 12 11  1  0
 12  4  1  0
 13 19  1  0
 14 13  2  0
 16 15  1  6
 16 17  1  0
 18 16  1  0
 18 19  1  6
 20 18  1  0
 21 20  1  0
 22 20  2  0
M  END
$$$$
