AQT.pdb
     RDKit          3D

 22 21  0  0  1  0  0  0  0  0999 V2000
    9.9101  -17.4408   16.2846 C   0  0  0  0  0  0  0  0  0  0  0  0
    9.7838  -17.1585   17.7533 C   0  0  2  0  0  0  0  0  0  0  0  0
    8.8685  -16.0325   17.9598 N   0  0  0  0  0  0  0  0  0  0  0  0
   11.0866  -16.8434   18.3878 C   0  0  0  0  0  0  0  0  0  0  0  0
   11.9951  -17.7183   18.3218 O   0  0  0  0  0  0  0  0  0  0  0  0
   16.2605  -14.0225   18.5479 N   0  0  0  0  0  0  0  0  0  0  0  0
   15.1270  -14.6316   17.9442 C   0  0  0  0  0  0  0  0  0  0  0  0
   15.2759  -15.7616   17.4175 O   0  0  0  0  0  0  0  0  0  0  0  0
   13.8385  -13.9022   17.9704 C   0  0  0  0  0  0  0  0  0  0  0  0
   13.1524  -13.9692   19.2920 C   0  0  0  0  0  0  0  0  0  0  0  0
   12.6262  -15.3159   19.6720 C   0  0  2  0  0  0  0  0  0  0  0  0
   11.3584  -15.6222   19.0569 N   0  0  0  0  0  0  0  0  0  0  0  0
   12.5058  -15.3166   21.1745 C   0  0  0  0  0  0  0  0  0  0  0  0
   11.5114  -14.7626   21.7080 O   0  0  0  0  0  0  0  0  0  0  0  0
   12.1086  -18.4650   22.5299 C   0  0  0  0  0  0  0  0  0  0  0  0
   11.9093  -17.2420   23.3634 C   0  0  1  0  0  0  0  0  0  0  0  0
   11.6968  -17.6324   24.6847 O   0  0  0  0  0  0  0  0  0  0  0  0
   13.0876  -16.3030   23.3500 C   0  0  2  0  0  0  0  0  0  0  0  0
   13.4643  -15.9140   22.0081 N   0  0  0  0  0  0  0  0  0  0  0  0
   14.2167  -16.9756   24.0568 C   0  0  0  0  0  0  0  0  0  0  0  0
   14.1442  -17.2276   25.4001 O   0  0  0  0  0  0  0  0  0  0  0  0
   15.2474  -17.3179   23.4242 O   0  0  0  0  0  0  0  0  0  0  0  0
  2  1  1  6
  2  4  1  0
  3  2  1  0
  4  5  2  0
  6  7  1  0
  7  8  2  0
  7  9  1  0
  9 10  1  0
 11 10  1  6
 11 13  1  0
 12 11  1  0
 12  4  1  0
 13 19  1  0
 14 13  2  0
 16 15  1  6
 16 17  1  0
 18 16  1  0
 18 19  1  6
 20 18  1  0
 21 20  1  0
 22 20  2  0
M  END
$$$$
