YHW.pdb
     RDKit          3D

 37 40  0  0  1  0  0  0  0  0999 V2000
   18.1983  -23.9604   -8.9972 O   0  0  0  0  0  0  0  0  0  0  0  0
   18.8641  -23.0492   -9.7914 C   0  0  0  0  0  0  0  0  0  0  0  0
   20.0255  -22.4207   -9.4008 C   0  0  0  0  0  0  0  0  0  0  0  0
   20.6440  -21.5294  -10.2213 C   0  0  0  0  0  0  0  0  0  0  0  0
   20.1655  -21.1880  -11.4917 C   0  0  0  0  0  0  0  0  0  0  0  0
   20.8899  -20.2115  -12.3310 C   0  0  0  0  0  0  0  0  0  0  0  0
   21.5591  -20.9060  -13.4763 C   0  0  2  0  0  0  0  0  0  0  0  0
   20.6168  -21.7986  -14.1289 N   0  0  0  0  0  0  0  0  0  0  0  0
   22.7491  -21.6476  -12.9954 C   0  0  0  0  0  0  0  0  0  0  0  0
   22.6603  -22.8393  -12.5888 O   0  0  0  0  0  0  0  0  0  0  0  0
   19.0078  -21.8171  -11.8767 C   0  0  0  0  0  0  0  0  0  0  0  0
   18.3734  -22.7216  -11.0529 C   0  0  0  0  0  0  0  0  0  0  0  0
   24.0503  -21.0477  -12.9704 N   0  0  0  0  0  0  0  0  0  0  0  0
   25.1806  -21.7840  -12.3797 C   0  0  1  0  0  0  0  0  0  0  0  0
   26.2147  -21.8744  -13.4853 C   0  0  0  0  0  0  0  0  0  0  0  0
   25.8687  -22.9764  -14.4318 C   0  0  0  0  0  0  0  0  0  0  0  0
   24.7686  -23.7898  -14.3140 C   0  0  0  0  0  0  0  0  0  0  0  0
   24.7478  -24.6781  -15.3308 N   0  0  0  0  0  0  0  0  0  0  0  0
   25.8279  -24.4308  -16.0899 C   0  0  0  0  0  0  0  0  0  0  0  0
   26.5058  -23.3933  -15.5361 N   0  0  0  0  0  0  0  0  0  0  0  0
   25.6889  -21.0472  -11.1905 C   0  0  0  0  0  0  0  0  0  0  0  0
   25.0109  -20.1574  -10.6597 O   0  0  0  0  0  0  0  0  0  0  0  0
   26.9571  -21.3521  -10.6464 N   0  0  0  0  0  0  0  0  0  0  0  0
   27.5686  -20.6654   -9.5188 C   0  0  1  0  0  0  0  0  0  0  0  0
   26.6673  -20.5965   -8.3513 C   0  0  0  0  0  0  0  0  0  0  0  0
   27.2187  -19.8149   -7.2398 C   0  0  0  0  0  0  0  0  0  0  0  0
   27.2388  -18.4375   -7.1443 C   0  0  0  0  0  0  0  0  0  0  0  0
   27.8433  -18.0416   -6.0275 N   0  0  0  0  0  0  0  0  0  0  0  0
   28.2350  -19.1371   -5.3600 C   0  0  0  0  0  0  0  0  0  0  0  0
   28.8846  -19.2656   -4.1425 C   0  0  0  0  0  0  0  0  0  0  0  0
   29.1628  -20.5289   -3.6443 C   0  0  0  0  0  0  0  0  0  0  0  0
   28.7861  -21.6311   -4.3734 C   0  0  0  0  0  0  0  0  0  0  0  0
   28.1418  -21.5171   -5.5833 C   0  0  0  0  0  0  0  0  0  0  0  0
   27.8651  -20.2527   -6.0801 C   0  0  0  0  0  0  0  0  0  0  0  0
   28.9187  -21.0818   -9.2242 C   0  0  0  0  0  0  0  0  0  0  0  0
   29.8525  -20.0721   -8.9055 O   0  0  0  0  0  0  0  0  0  0  0  0
   29.3181  -22.2628   -9.2310 O   0  0  0  0  0  0  0  0  0  0  0  0
  2  1  1  0
  3  2  2  0
  4  3  1  0
  5  4  2  0
  5 11  1  0
  6  5  1  0
  7  9  1  0
  7  6  1  0
  7  8  1  1
  9 10  2  0
 11 12  2  0
 12  2  1  0
 13 14  1  0
 13  9  1  0
 14 15  1  6
 15 16  1  0
 16 17  2  0
 18 17  1  0
 19 18  1  0
 20 19  2  0
 20 16  1  0
 21 23  1  0
 21 14  1  0
 22 21  2  0
 24 23  1  0
 24 35  1  0
 24 25  1  1
 26 25  1  0
 27 26  2  0
 28 27  1  0
 29 28  1  0
 29 34  2  0
 30 29  1  0
 31 30  2  0
 31 32  1  0
 32 33  2  0
 33 34  1  0
 34 26  1  0
 35 36  1  0
 37 35  2  0
M  END
$$$$
