YHW.pdb
     RDKit          3D

 37 40  0  0  1  0  0  0  0  0999 V2000
   16.6309  -17.9945  -16.8546 O   0  0  0  0  0  0  0  0  0  0  0  0
   17.5898  -18.7275  -16.1857 C   0  0  0  0  0  0  0  0  0  0  0  0
   18.6700  -19.3033  -16.8168 C   0  0  0  0  0  0  0  0  0  0  0  0
   19.5884  -20.0170  -16.1117 C   0  0  0  0  0  0  0  0  0  0  0  0
   19.5136  -20.2190  -14.7286 C   0  0  0  0  0  0  0  0  0  0  0  0
   20.5485  -21.0053  -14.0261 C   0  0  0  0  0  0  0  0  0  0  0  0
   21.4836  -20.0951  -13.2919 C   0  0  2  0  0  0  0  0  0  0  0  0
   22.0361  -19.1134  -14.2092 N   0  0  0  0  0  0  0  0  0  0  0  0
   22.5592  -20.8850  -12.6465 C   0  0  0  0  0  0  0  0  0  0  0  0
   22.2941  -21.8607  -11.8906 O   0  0  0  0  0  0  0  0  0  0  0  0
   18.4354  -19.6431  -14.1039 C   0  0  0  0  0  0  0  0  0  0  0  0
   17.4993  -18.9181  -14.8092 C   0  0  0  0  0  0  0  0  0  0  0  0
   23.9441  -20.5784  -12.8505 N   0  0  0  0  0  0  0  0  0  0  0  0
   24.9755  -21.3851  -12.1767 C   0  0  1  0  0  0  0  0  0  0  0  0
   26.0174  -21.6651  -13.2426 C   0  0  0  0  0  0  0  0  0  0  0  0
   25.5620  -22.7711  -14.1367 C   0  0  0  0  0  0  0  0  0  0  0  0
   24.3257  -23.3657  -14.0750 C   0  0  0  0  0  0  0  0  0  0  0  0
   24.2340  -24.3253  -15.0206 N   0  0  0  0  0  0  0  0  0  0  0  0
   25.4047  -24.3406  -15.6788 C   0  0  0  0  0  0  0  0  0  0  0  0
   26.2083  -23.3915  -15.1349 N   0  0  0  0  0  0  0  0  0  0  0  0
   25.5347  -20.6213  -11.0281 C   0  0  0  0  0  0  0  0  0  0  0  0
   25.0323  -19.5446  -10.6792 O   0  0  0  0  0  0  0  0  0  0  0  0
   26.6511  -21.1138  -10.3151 N   0  0  0  0  0  0  0  0  0  0  0  0
   27.3823  -20.3762   -9.2961 C   0  0  1  0  0  0  0  0  0  0  0  0
   26.5515  -20.0900   -8.1095 C   0  0  0  0  0  0  0  0  0  0  0  0
   27.2778  -19.3793   -7.0523 C   0  0  0  0  0  0  0  0  0  0  0  0
   27.5474  -18.0254   -7.0185 C   0  0  0  0  0  0  0  0  0  0  0  0
   28.2572  -17.7031   -5.9407 N   0  0  0  0  0  0  0  0  0  0  0  0
   28.4733  -18.8253   -5.2384 C   0  0  0  0  0  0  0  0  0  0  0  0
   29.1377  -19.0228   -4.0383 C   0  0  0  0  0  0  0  0  0  0  0  0
   29.2055  -20.2959   -3.4941 C   0  0  0  0  0  0  0  0  0  0  0  0
   28.6091  -21.3389   -4.1610 C   0  0  0  0  0  0  0  0  0  0  0  0
   27.9475  -21.1563   -5.3531 C   0  0  0  0  0  0  0  0  0  0  0  0
   27.8815  -19.8824   -5.8961 C   0  0  0  0  0  0  0  0  0  0  0  0
   28.6982  -20.8949   -9.0094 C   0  0  0  0  0  0  0  0  0  0  0  0
   28.9605  -22.2330   -9.3756 O   0  0  0  0  0  0  0  0  0  0  0  0
   29.6156  -20.2502   -8.4644 O   0  0  0  0  0  0  0  0  0  0  0  0
  2  1  1  0
  3  2  2  0
  4  3  1  0
  5  4  2  0
  5 11  1  0
  6  5  1  0
  7  9  1  0
  7  6  1  0
  7  8  1  6
  9 10  2  0
 11 12  2  0
 12  2  1  0
 13 14  1  0
 13  9  1  0
 14 15  1  6
 15 16  1  0
 16 17  2  0
 18 17  1  0
 19 18  1  0
 20 19  2  0
 20 16  1  0
 21 23  1  0
 21 14  1  0
 22 21  2  0
 24 23  1  0
 24 35  1  0
 24 25  1  1
 26 25  1  0
 27 26  2  0
 28 27  1  0
 29 28  1  0
 29 34  2  0
 30 29  1  0
 31 30  2  0
 31 32  1  0
 32 33  2  0
 33 34  1  0
 34 26  1  0
 35 36  1  0
 37 35  2  0
M  END
$$$$
