YHW.pdb
     RDKit          3D

 37 40  0  0  1  0  0  0  0  0999 V2000
   25.5124  -13.1366  -22.7614 O   0  0  0  0  0  0  0  0  0  0  0  0
   24.7336  -14.1532  -22.2474 C   0  0  0  0  0  0  0  0  0  0  0  0
   24.2983  -14.1781  -20.9411 C   0  0  0  0  0  0  0  0  0  0  0  0
   23.5318  -15.2040  -20.4826 C   0  0  0  0  0  0  0  0  0  0  0  0
   23.1344  -16.2861  -21.2767 C   0  0  0  0  0  0  0  0  0  0  0  0
   22.2996  -17.3666  -20.7126 C   0  0  0  0  0  0  0  0  0  0  0  0
   23.1611  -18.4976  -20.2427 C   0  0  2  0  0  0  0  0  0  0  0  0
   23.7945  -19.1396  -21.3816 N   0  0  0  0  0  0  0  0  0  0  0  0
   22.3495  -19.4669  -19.4687 C   0  0  0  0  0  0  0  0  0  0  0  0
   22.0038  -20.5760  -19.9624 O   0  0  0  0  0  0  0  0  0  0  0  0
   23.5705  -16.2569  -22.5780 C   0  0  0  0  0  0  0  0  0  0  0  0
   24.3475  -15.2221  -23.0523 C   0  0  0  0  0  0  0  0  0  0  0  0
   21.9218  -19.1901  -18.1292 N   0  0  0  0  0  0  0  0  0  0  0  0
   21.1861  -20.2173  -17.3727 C   0  0  1  0  0  0  0  0  0  0  0  0
   22.2212  -20.8608  -16.4702 C   0  0  0  0  0  0  0  0  0  0  0  0
   23.0410  -21.8445  -17.2384 C   0  0  0  0  0  0  0  0  0  0  0  0
   22.9032  -22.0953  -18.5814 C   0  0  0  0  0  0  0  0  0  0  0  0
   23.7954  -23.0341  -18.9635 N   0  0  0  0  0  0  0  0  0  0  0  0
   24.4956  -23.3779  -17.8701 C   0  0  0  0  0  0  0  0  0  0  0  0
   24.0306  -22.6494  -16.8235 N   0  0  0  0  0  0  0  0  0  0  0  0
   20.0858  -19.5765  -16.6019 C   0  0  0  0  0  0  0  0  0  0  0  0
   20.2829  -19.1420  -15.4593 O   0  0  0  0  0  0  0  0  0  0  0  0
   18.7946  -19.4534  -17.1632 N   0  0  0  0  0  0  0  0  0  0  0  0
   17.6982  -18.6977  -16.5768 C   0  0  1  0  0  0  0  0  0  0  0  0
   17.8837  -17.2401  -16.7225 C   0  0  0  0  0  0  0  0  0  0  0  0
   17.3007  -16.7030  -17.9561 C   0  0  0  0  0  0  0  0  0  0  0  0
   15.9845  -16.8260  -18.3554 C   0  0  0  0  0  0  0  0  0  0  0  0
   15.7868  -16.2581  -19.5419 N   0  0  0  0  0  0  0  0  0  0  0  0
   16.9565  -15.7478  -19.9549 C   0  0  0  0  0  0  0  0  0  0  0  0
   17.2762  -15.0451  -21.1059 C   0  0  0  0  0  0  0  0  0  0  0  0
   18.5733  -14.5946  -21.2955 C   0  0  0  0  0  0  0  0  0  0  0  0
   19.5178  -14.8565  -20.3324 C   0  0  0  0  0  0  0  0  0  0  0  0
   19.2136  -15.5535  -19.1863 C   0  0  0  0  0  0  0  0  0  0  0  0
   17.9159  -16.0039  -18.9988 C   0  0  0  0  0  0  0  0  0  0  0  0
   16.3837  -19.1834  -16.9221 C   0  0  0  0  0  0  0  0  0  0  0  0
   16.2999  -20.1533  -17.9446 O   0  0  0  0  0  0  0  0  0  0  0  0
   15.3220  -18.8103  -16.3855 O   0  0  0  0  0  0  0  0  0  0  0  0
  2  1  1  0
  3  2  2  0
  4  3  1  0
  5  4  2  0
  5 11  1  0
  6  5  1  0
  7  9  1  0
  7  6  1  0
  7  8  1  6
  9 10  2  0
 11 12  2  0
 12  2  1  0
 13 14  1  0
 13  9  1  0
 14 15  1  1
 15 16  1  0
 16 17  2  0
 18 17  1  0
 19 18  1  0
 20 19  2  0
 20 16  1  0
 21 23  1  0
 21 14  1  0
 22 21  2  0
 24 23  1  0
 24 35  1  0
 24 25  1  6
 26 25  1  0
 27 26  2  0
 28 27  1  0
 29 28  1  0
 29 34  2  0
 30 29  1  0
 31 30  2  0
 31 32  1  0
 32 33  2  0
 33 34  1  0
 34 26  1  0
 35 36  1  0
 37 35  2  0
M  END
$$$$
