YHW.pdb
     RDKit          3D

 37 40  0  0  1  0  0  0  0  0999 V2000
   21.1131  -19.9389  -22.4224 O   0  0  0  0  0  0  0  0  0  0  0  0
   22.0881  -20.3100  -21.5192 C   0  0  0  0  0  0  0  0  0  0  0  0
   21.9254  -20.2093  -20.1554 C   0  0  0  0  0  0  0  0  0  0  0  0
   22.9181  -20.5888  -19.3065 C   0  0  0  0  0  0  0  0  0  0  0  0
   24.1494  -21.0976  -19.7360 C   0  0  0  0  0  0  0  0  0  0  0  0
   25.1833  -21.4918  -18.7571 C   0  0  0  0  0  0  0  0  0  0  0  0
   26.0559  -20.3217  -18.4232 C   0  0  2  0  0  0  0  0  0  0  0  0
   27.1435  -20.2296  -19.3819 N   0  0  0  0  0  0  0  0  0  0  0  0
   26.5746  -20.4529  -17.0408 C   0  0  0  0  0  0  0  0  0  0  0  0
   27.4814  -21.2835  -16.7556 O   0  0  0  0  0  0  0  0  0  0  0  0
   24.3069  -21.1963  -21.0961 C   0  0  0  0  0  0  0  0  0  0  0  0
   23.3073  -20.8145  -21.9647 C   0  0  0  0  0  0  0  0  0  0  0  0
   26.0722  -19.6456  -15.9687 N   0  0  0  0  0  0  0  0  0  0  0  0
   26.6360  -19.7974  -14.6167 C   0  0  1  0  0  0  0  0  0  0  0  0
   27.1832  -18.4287  -14.2604 C   0  0  0  0  0  0  0  0  0  0  0  0
   28.2155  -18.0071  -15.2537 C   0  0  0  0  0  0  0  0  0  0  0  0
   28.1463  -16.8661  -16.0147 C   0  0  0  0  0  0  0  0  0  0  0  0
   29.2367  -16.7797  -16.8065 N   0  0  0  0  0  0  0  0  0  0  0  0
   29.9940  -17.8590  -16.5504 C   0  0  0  0  0  0  0  0  0  0  0  0
   29.3656  -18.6018  -15.6039 N   0  0  0  0  0  0  0  0  0  0  0  0
   25.5688  -20.2401  -13.6782 C   0  0  0  0  0  0  0  0  0  0  0  0
   24.3882  -19.9164  -13.8640 O   0  0  0  0  0  0  0  0  0  0  0  0
   25.8867  -21.0393  -12.5568 N   0  0  0  0  0  0  0  0  0  0  0  0
   24.9442  -21.4397  -11.5231 C   0  0  1  0  0  0  0  0  0  0  0  0
   25.6007  -22.1727  -10.4223 C   0  0  0  0  0  0  0  0  0  0  0  0
   26.1552  -21.2913   -9.3899 C   0  0  0  0  0  0  0  0  0  0  0  0
   25.4587  -20.3389   -8.6725 C   0  0  0  0  0  0  0  0  0  0  0  0
   26.2609  -19.6830   -7.8385 N   0  0  0  0  0  0  0  0  0  0  0  0
   27.4985  -20.1803   -7.9801 C   0  0  0  0  0  0  0  0  0  0  0  0
   28.6794  -19.8554   -7.3314 C   0  0  0  0  0  0  0  0  0  0  0  0
   29.8429  -20.5418   -7.6419 C   0  0  0  0  0  0  0  0  0  0  0  0
   29.7987  -21.5343   -8.5913 C   0  0  0  0  0  0  0  0  0  0  0  0
   28.6335  -21.8656   -9.2429 C   0  0  0  0  0  0  0  0  0  0  0  0
   27.4710  -21.1775   -8.9315 C   0  0  0  0  0  0  0  0  0  0  0  0
   24.0340  -20.3999  -11.1069 C   0  0  0  0  0  0  0  0  0  0  0  0
   22.7558  -20.7994  -10.6597 O   0  0  0  0  0  0  0  0  0  0  0  0
   24.2933  -19.1805  -11.1139 O   0  0  0  0  0  0  0  0  0  0  0  0
  2  1  1  0
  3  2  2  0
  4  3  1  0
  5  4  2  0
  5 11  1  0
  6  5  1  0
  7  9  1  0
  7  6  1  0
  7  8  1  6
  9 10  2  0
 11 12  2  0
 12  2  1  0
 13 14  1  0
 13  9  1  0
 14 15  1  1
 15 16  1  0
 16 17  2  0
 18 17  1  0
 19 18  1  0
 20 19  2  0
 20 16  1  0
 21 23  1  0
 21 14  1  0
 22 21  2  0
 24 23  1  0
 24 35  1  0
 24 25  1  1
 26 25  1  0
 27 26  2  0
 28 27  1  0
 29 28  1  0
 29 34  2  0
 30 29  1  0
 31 30  2  0
 31 32  1  0
 32 33  2  0
 33 34  1  0
 34 26  1  0
 35 36  1  0
 37 35  2  0
M  END
$$$$
