YHW.pdb
     RDKit          3D

 37 40  0  0  1  0  0  0  0  0999 V2000
   32.8484  -15.5138  -19.2156 O   0  0  0  0  0  0  0  0  0  0  0  0
   31.8237  -16.3841  -18.9047 C   0  0  0  0  0  0  0  0  0  0  0  0
   30.5042  -16.1272  -19.2039 C   0  0  0  0  0  0  0  0  0  0  0  0
   29.5303  -17.0183  -18.8758 C   0  0  0  0  0  0  0  0  0  0  0  0
   29.7814  -18.2329  -18.2269 C   0  0  0  0  0  0  0  0  0  0  0  0
   28.6738  -19.1550  -17.9015 C   0  0  0  0  0  0  0  0  0  0  0  0
   28.9320  -20.5064  -18.4925 C   0  0  2  0  0  0  0  0  0  0  0  0
   29.1837  -20.3802  -19.9176 N   0  0  0  0  0  0  0  0  0  0  0  0
   27.7804  -21.4029  -18.2326 C   0  0  0  0  0  0  0  0  0  0  0  0
   27.0949  -21.8823  -19.1780 O   0  0  0  0  0  0  0  0  0  0  0  0
   31.0980  -18.4846  -17.9309 C   0  0  0  0  0  0  0  0  0  0  0  0
   32.0922  -17.5883  -18.2589 C   0  0  0  0  0  0  0  0  0  0  0  0
   27.3942  -21.7653  -16.9010 N   0  0  0  0  0  0  0  0  0  0  0  0
   26.3740  -22.8074  -16.6967 C   0  0  1  0  0  0  0  0  0  0  0  0
   27.1429  -24.1143  -16.6725 C   0  0  0  0  0  0  0  0  0  0  0  0
   26.1999  -25.2721  -16.6643 C   0  0  0  0  0  0  0  0  0  0  0  0
   24.8342  -25.1657  -16.5687 C   0  0  0  0  0  0  0  0  0  0  0  0
   24.2785  -26.3961  -16.5921 N   0  0  0  0  0  0  0  0  0  0  0  0
   25.2848  -27.2790  -16.7017 C   0  0  0  0  0  0  0  0  0  0  0  0
   26.4518  -26.5871  -16.7450 N   0  0  0  0  0  0  0  0  0  0  0  0
   25.6512  -22.5543  -15.4204 C   0  0  0  0  0  0  0  0  0  0  0  0
   26.2388  -22.6349  -14.3334 O   0  0  0  0  0  0  0  0  0  0  0  0
   24.2788  -22.2170  -15.4284 N   0  0  0  0  0  0  0  0  0  0  0  0
   23.5070  -21.8321  -14.2566 C   0  0  1  0  0  0  0  0  0  0  0  0
   24.2092  -20.8304  -13.4296 C   0  0  0  0  0  0  0  0  0  0  0  0
   24.6084  -19.6365  -14.1816 C   0  0  0  0  0  0  0  0  0  0  0  0
   23.7643  -18.7879  -14.8701 C   0  0  0  0  0  0  0  0  0  0  0  0
   24.4455  -17.8198  -15.4768 N   0  0  0  0  0  0  0  0  0  0  0  0
   25.7470  -18.0000  -15.2072 C   0  0  0  0  0  0  0  0  0  0  0  0
   26.8558  -17.2586  -15.5836 C   0  0  0  0  0  0  0  0  0  0  0  0
   28.1155  -17.6415  -15.1500 C   0  0  0  0  0  0  0  0  0  0  0  0
   28.2367  -18.7540  -14.3525 C   0  0  0  0  0  0  0  0  0  0  0  0
   27.1444  -19.4989  -13.9728 C   0  0  0  0  0  0  0  0  0  0  0  0
   25.8855  -19.1146  -14.4081 C   0  0  0  0  0  0  0  0  0  0  0  0
   22.1191  -21.5393  -14.5229 C   0  0  0  0  0  0  0  0  0  0  0  0
   21.7094  -21.5194  -15.8738 O   0  0  0  0  0  0  0  0  0  0  0  0
   21.2600  -21.3036  -13.6507 O   0  0  0  0  0  0  0  0  0  0  0  0
  2  1  1  0
  3  2  2  0
  4  3  1  0
  5  4  2  0
  5 11  1  0
  6  5  1  0
  7  9  1  0
  7  6  1  0
  7  8  1  6
  9 10  2  0
 11 12  2  0
 12  2  1  0
 13 14  1  0
 13  9  1  0
 14 15  1  1
 15 16  1  0
 16 17  2  0
 18 17  1  0
 19 18  1  0
 20 19  2  0
 20 16  1  0
 21 23  1  0
 21 14  1  0
 22 21  2  0
 24 23  1  0
 24 35  1  0
 24 25  1  6
 26 25  1  0
 27 26  2  0
 28 27  1  0
 29 28  1  0
 29 34  2  0
 30 29  1  0
 31 30  2  0
 31 32  1  0
 32 33  2  0
 33 34  1  0
 34 26  1  0
 35 36  1  0
 37 35  2  0
M  END
$$$$
