YHW.pdb
     RDKit          3D

 37 40  0  0  1  0  0  0  0  0999 V2000
   18.1813  -23.8929  -12.9786 O   0  0  0  0  0  0  0  0  0  0  0  0
   19.3353  -24.1475  -13.6911 C   0  0  0  0  0  0  0  0  0  0  0  0
   20.5954  -24.0104  -13.1527 C   0  0  0  0  0  0  0  0  0  0  0  0
   21.7026  -24.2739  -13.8976 C   0  0  0  0  0  0  0  0  0  0  0  0
   21.6539  -24.6933  -15.2323 C   0  0  0  0  0  0  0  0  0  0  0  0
   22.8980  -24.9631  -15.9819 C   0  0  0  0  0  0  0  0  0  0  0  0
   23.6898  -23.7028  -16.1457 C   0  0  2  0  0  0  0  0  0  0  0  0
   22.9091  -22.7234  -16.8816 N   0  0  0  0  0  0  0  0  0  0  0  0
   24.9687  -23.9925  -16.8370 C   0  0  0  0  0  0  0  0  0  0  0  0
   24.9948  -24.6075  -17.9392 O   0  0  0  0  0  0  0  0  0  0  0  0
   20.3958  -24.8286  -15.7645 C   0  0  0  0  0  0  0  0  0  0  0  0
   19.2677  -24.5641  -15.0182 C   0  0  0  0  0  0  0  0  0  0  0  0
   26.2293  -23.5891  -16.2879 N   0  0  0  0  0  0  0  0  0  0  0  0
   27.4688  -23.8550  -17.0374 C   0  0  1  0  0  0  0  0  0  0  0  0
   28.3308  -22.6254  -16.8249 C   0  0  0  0  0  0  0  0  0  0  0  0
   27.8418  -21.4956  -17.6699 C   0  0  0  0  0  0  0  0  0  0  0  0
   26.7569  -21.5613  -18.5093 C   0  0  0  0  0  0  0  0  0  0  0  0
   26.5833  -20.3714  -19.1235 N   0  0  0  0  0  0  0  0  0  0  0  0
   27.5518  -19.5546  -18.6775 C   0  0  0  0  0  0  0  0  0  0  0  0
   28.3143  -20.2462  -17.7927 N   0  0  0  0  0  0  0  0  0  0  0  0
   28.1117  -25.0918  -16.5154 C   0  0  0  0  0  0  0  0  0  0  0  0
   28.6422  -25.1057  -15.3966 O   0  0  0  0  0  0  0  0  0  0  0  0
   28.1271  -26.2735  -17.2904 N   0  0  0  0  0  0  0  0  0  0  0  0
   28.7832  -27.5144  -16.9072 C   0  0  1  0  0  0  0  0  0  0  0  0
   27.9478  -28.6985  -17.1904 C   0  0  0  0  0  0  0  0  0  0  0  0
   28.5797  -29.9608  -16.7935 C   0  0  0  0  0  0  0  0  0  0  0  0
   28.3037  -30.6856  -15.6510 C   0  0  0  0  0  0  0  0  0  0  0  0
   29.0764  -31.7651  -15.5678 N   0  0  0  0  0  0  0  0  0  0  0  0
   29.8764  -31.7836  -16.6442 C   0  0  0  0  0  0  0  0  0  0  0  0
   30.8402  -32.7000  -17.0344 C   0  0  0  0  0  0  0  0  0  0  0  0
   31.5278  -32.5072  -18.2225 C   0  0  0  0  0  0  0  0  0  0  0  0
   31.2364  -31.4056  -18.9905 C   0  0  0  0  0  0  0  0  0  0  0  0
   30.2830  -30.4884  -18.6141 C   0  0  0  0  0  0  0  0  0  0  0  0
   29.5969  -30.6825  -17.4251 C   0  0  0  0  0  0  0  0  0  0  0  0
   30.1582  -27.6213  -17.3327 C   0  0  0  0  0  0  0  0  0  0  0  0
   31.1137  -27.9689  -16.3532 O   0  0  0  0  0  0  0  0  0  0  0  0
   30.5612  -27.4298  -18.4968 O   0  0  0  0  0  0  0  0  0  0  0  0
  2  1  1  0
  3  2  2  0
  4  3  1  0
  5  4  2  0
  5 11  1  0
  6  5  1  0
  7  9  1  0
  7  6  1  0
  7  8  1  6
  9 10  2  0
 11 12  2  0
 12  2  1  0
 13 14  1  0
 13  9  1  0
 14 15  1  1
 15 16  1  0
 16 17  2  0
 18 17  1  0
 19 18  1  0
 20 19  2  0
 20 16  1  0
 21 23  1  0
 21 14  1  0
 22 21  2  0
 24 23  1  0
 24 35  1  0
 24 25  1  6
 26 25  1  0
 27 26  2  0
 28 27  1  0
 29 28  1  0
 29 34  2  0
 30 29  1  0
 31 30  2  0
 31 32  1  0
 32 33  2  0
 33 34  1  0
 34 26  1  0
 35 36  1  0
 37 35  2  0
M  END
$$$$
