SPW.pdb
     RDKit          3D

 28 30  0  0  1  0  0  0  0  0999 V2000
    7.3877  -18.9976   22.0269 O   0  0  0  0  0  0  0  0  0  0  0  0
    6.2025  -18.3391   21.7136 C   0  0  0  0  0  0  0  0  0  0  0  0
    6.3510  -17.6077   20.3705 C   0  0  2  0  0  0  0  0  0  0  0  0
    6.4748  -18.6695   19.3910 N   0  0  0  0  0  0  0  0  0  0  0  0
    7.6246  -16.8494   20.4434 C   0  0  0  0  0  0  0  0  0  0  0  0
    8.6149  -17.3747   19.8181 O   0  0  0  0  0  0  0  0  0  0  0  0
    7.7690  -15.6348   21.1409 N   0  0  0  0  0  0  0  0  0  0  0  0
    6.7931  -14.9824   21.9557 C   0  0  0  0  0  0  0  0  0  0  0  0
    7.1045  -13.4990   21.7705 C   0  0  0  0  0  0  0  0  0  0  0  0
    8.3402  -13.4322   20.8909 C   0  0  0  0  0  0  0  0  0  0  0  0
    8.9491  -14.8194   21.1493 C   0  0  1  0  0  0  0  0  0  0  0  0
    9.6136  -14.7489   22.4561 C   0  0  0  0  0  0  0  0  0  0  0  0
   10.3970  -13.8136   22.7505 O   0  0  0  0  0  0  0  0  0  0  0  0
    9.3514  -15.7757   23.4012 N   0  0  0  0  0  0  0  0  0  0  0  0
   10.2332  -16.1052   24.5099 C   0  0  1  0  0  0  0  0  0  0  0  0
    9.8046  -15.2200   25.6154 C   0  0  0  0  0  0  0  0  0  0  0  0
    8.4324  -14.8584   25.7540 C   0  0  0  0  0  0  0  0  0  0  0  0
    7.3671  -15.7181   25.5750 C   0  0  0  0  0  0  0  0  0  0  0  0
    6.2288  -15.0424   25.7882 N   0  0  0  0  0  0  0  0  0  0  0  0
    6.4776  -13.7538   26.1059 C   0  0  0  0  0  0  0  0  0  0  0  0
    5.6960  -12.6606   26.4115 C   0  0  0  0  0  0  0  0  0  0  0  0
    6.3140  -11.4606   26.6931 C   0  0  0  0  0  0  0  0  0  0  0  0
    7.6890  -11.3566   26.6690 C   0  0  0  0  0  0  0  0  0  0  0  0
    8.4707  -12.4418   26.3654 C   0  0  0  0  0  0  0  0  0  0  0  0
    7.8656  -13.6430   26.0832 C   0  0  0  0  0  0  0  0  0  0  0  0
   10.0085  -17.5187   24.8311 C   0  0  0  0  0  0  0  0  0  0  0  0
    8.9787  -18.2063   24.2144 O   0  0  0  0  0  0  0  0  0  0  0  0
   10.7066  -18.1729   25.6537 O   0  0  0  0  0  0  0  0  0  0  0  0
  2  1  1  0
  3  4  1  6
  3  2  1  0
  5  3  1  0
  5  6  2  0
  7  5  1  0
  8  7  1  0
  9  8  1  0
 10  9  1  0
 10 11  1  0
 11  7  1  0
 11 12  1  1
 12 14  1  0
 13 12  2  0
 15 16  1  1
 15 26  1  0
 15 14  1  0
 17 18  2  0
 17 16  1  0
 19 18  1  0
 20 25  2  0
 20 19  1  0
 21 20  1  0
 22 23  1  0
 22 21  2  0
 23 24  2  0
 24 25  1  0
 25 17  1  0
 26 27  1  0
 28 26  2  0
M  END
$$$$
