SPW.pdb
     RDKit          3D

 28 30  0  0  1  0  0  0  0  0999 V2000
    7.4280  -19.0098   22.2479 O   0  0  0  0  0  0  0  0  0  0  0  0
    6.1541  -18.5840   21.8841 C   0  0  0  0  0  0  0  0  0  0  0  0
    6.2016  -17.9179   20.5003 C   0  0  2  0  0  0  0  0  0  0  0  0
    6.2019  -19.0252   19.5645 N   0  0  0  0  0  0  0  0  0  0  0  0
    7.4996  -17.2026   20.4226 C   0  0  0  0  0  0  0  0  0  0  0  0
    8.4186  -17.8004   19.7549 O   0  0  0  0  0  0  0  0  0  0  0  0
    7.7380  -15.9536   21.0272 N   0  0  0  0  0  0  0  0  0  0  0  0
    6.8659  -15.2332   21.9003 C   0  0  0  0  0  0  0  0  0  0  0  0
    7.1805  -13.7705   21.5951 C   0  0  0  0  0  0  0  0  0  0  0  0
    8.3161  -13.7828   20.5875 C   0  0  0  0  0  0  0  0  0  0  0  0
    8.9258  -15.1665   20.8623 C   0  0  1  0  0  0  0  0  0  0  0  0
    9.7272  -15.0363   22.0849 C   0  0  0  0  0  0  0  0  0  0  0  0
   10.6372  -14.1785   22.1915 O   0  0  0  0  0  0  0  0  0  0  0  0
    9.4519  -15.9133   23.1672 N   0  0  0  0  0  0  0  0  0  0  0  0
   10.2744  -16.0133   24.3625 C   0  0  1  0  0  0  0  0  0  0  0  0
    9.8768  -14.8585   25.1979 C   0  0  0  0  0  0  0  0  0  0  0  0
    8.5013  -14.6257   25.4920 C   0  0  0  0  0  0  0  0  0  0  0  0
    7.5058  -15.5795   25.4201 C   0  0  0  0  0  0  0  0  0  0  0  0
    6.3412  -15.0126   25.7669 N   0  0  0  0  0  0  0  0  0  0  0  0
    6.5049  -13.7076   26.0725 C   0  0  0  0  0  0  0  0  0  0  0  0
    5.6655  -12.6923   26.4774 C   0  0  0  0  0  0  0  0  0  0  0  0
    6.1986  -11.4413   26.7052 C   0  0  0  0  0  0  0  0  0  0  0  0
    7.5471  -11.2106   26.5309 C   0  0  0  0  0  0  0  0  0  0  0  0
    8.3861  -12.2180   26.1281 C   0  0  0  0  0  0  0  0  0  0  0  0
    7.8658  -13.4690   25.8982 C   0  0  0  0  0  0  0  0  0  0  0  0
    9.9401  -17.2876   25.0077 C   0  0  0  0  0  0  0  0  0  0  0  0
   10.7709  -17.7974   25.9893 O   0  0  0  0  0  0  0  0  0  0  0  0
    8.9198  -17.9735   24.7240 O   0  0  0  0  0  0  0  0  0  0  0  0
  2  1  1  0
  3  4  1  6
  3  2  1  0
  5  3  1  0
  5  6  2  0
  7  5  1  0
  8  7  1  0
  9  8  1  0
 10  9  1  0
 10 11  1  0
 11  7  1  0
 11 12  1  1
 12 14  1  0
 13 12  2  0
 15 16  1  1
 15 26  1  0
 15 14  1  0
 17 18  2  0
 17 16  1  0
 19 18  1  0
 20 25  2  0
 20 19  1  0
 21 20  1  0
 22 23  1  0
 22 21  2  0
 23 24  2  0
 24 25  1  0
 25 17  1  0
 26 27  1  0
 28 26  2  0
M  END
$$$$
