SPW.pdb
     RDKit          3D

 28 30  0  0  1  0  0  0  0  0999 V2000
   10.7492  -13.8795   19.4656 O   0  0  0  0  0  0  0  0  0  0  0  0
    9.7526  -13.0113   19.0301 C   0  0  0  0  0  0  0  0  0  0  0  0
    8.4872  -13.8062   18.6729 C   0  0  2  0  0  0  0  0  0  0  0  0
    7.5461  -12.8032   18.2143 N   0  0  0  0  0  0  0  0  0  0  0  0
    7.9959  -14.4053   19.9386 C   0  0  0  0  0  0  0  0  0  0  0  0
    7.2733  -13.6352   20.6683 O   0  0  0  0  0  0  0  0  0  0  0  0
    8.2837  -15.7240   20.3393 N   0  0  0  0  0  0  0  0  0  0  0  0
    9.0419  -16.7011   19.6234 C   0  0  0  0  0  0  0  0  0  0  0  0
    8.3920  -18.0236   20.0237 C   0  0  0  0  0  0  0  0  0  0  0  0
    7.3230  -17.6783   21.0450 C   0  0  0  0  0  0  0  0  0  0  0  0
    7.8498  -16.3312   21.5643 C   0  0  1  0  0  0  0  0  0  0  0  0
    8.9422  -16.6387   22.4950 C   0  0  0  0  0  0  0  0  0  0  0  0
    9.9897  -17.2181   22.1176 O   0  0  0  0  0  0  0  0  0  0  0  0
    8.7930  -16.2634   23.8563 N   0  0  0  0  0  0  0  0  0  0  0  0
    9.9049  -16.0749   24.7746 C   0  0  1  0  0  0  0  0  0  0  0  0
    9.5348  -14.8941   25.5859 C   0  0  0  0  0  0  0  0  0  0  0  0
    8.1628  -14.5950   25.8330 C   0  0  0  0  0  0  0  0  0  0  0  0
    7.1330  -15.5133   25.7843 C   0  0  0  0  0  0  0  0  0  0  0  0
    5.9835  -14.8860   26.0724 N   0  0  0  0  0  0  0  0  0  0  0  0
    6.1905  -13.5741   26.3156 C   0  0  0  0  0  0  0  0  0  0  0  0
    5.3818  -12.5084   26.6472 C   0  0  0  0  0  0  0  0  0  0  0  0
    5.9575  -11.2682   26.8247 C   0  0  0  0  0  0  0  0  0  0  0  0
    7.3176  -11.0976   26.6730 C   0  0  0  0  0  0  0  0  0  0  0  0
    8.1261  -12.1551   26.3432 C   0  0  0  0  0  0  0  0  0  0  0  0
    7.5633  -13.3959   26.1639 C   0  0  0  0  0  0  0  0  0  0  0  0
    9.9941  -17.2878   25.5947 C   0  0  0  0  0  0  0  0  0  0  0  0
   11.0963  -17.4866   26.4067 O   0  0  0  0  0  0  0  0  0  0  0  0
    9.1125  -18.1903   25.6142 O   0  0  0  0  0  0  0  0  0  0  0  0
  2  1  1  0
  3  4  1  1
  3  2  1  0
  5  3  1  0
  5  6  2  0
  7  5  1  0
  8  7  1  0
  9  8  1  0
 10  9  1  0
 10 11  1  0
 11  7  1  0
 11 12  1  1
 12 14  1  0
 13 12  2  0
 15 16  1  1
 15 26  1  0
 15 14  1  0
 17 18  2  0
 17 16  1  0
 19 18  1  0
 20 25  2  0
 20 19  1  0
 21 20  1  0
 22 23  1  0
 22 21  2  0
 23 24  2  0
 24 25  1  0
 25 17  1  0
 26 27  1  0
 28 26  2  0
M  END
$$$$
