SPW.pdb
     RDKit          3D

 28 30  0  0  1  0  0  0  0  0999 V2000
    8.0714  -19.2757   22.3521 O   0  0  0  0  0  0  0  0  0  0  0  0
    6.8685  -18.8529   21.7947 C   0  0  0  0  0  0  0  0  0  0  0  0
    7.1416  -18.0331   20.5241 C   0  0  2  0  0  0  0  0  0  0  0  0
    7.5938  -19.0095   19.5526 N   0  0  0  0  0  0  0  0  0  0  0  0
    8.2544  -17.1077   20.8521 C   0  0  0  0  0  0  0  0  0  0  0  0
    9.4064  -17.4502   20.4014 O   0  0  0  0  0  0  0  0  0  0  0  0
    8.0906  -15.9276   21.6025 N   0  0  0  0  0  0  0  0  0  0  0  0
    6.9053  -15.4776   22.2617 C   0  0  0  0  0  0  0  0  0  0  0  0
    7.0044  -13.9561   22.1793 C   0  0  0  0  0  0  0  0  0  0  0  0
    8.3398  -13.6535   21.5234 C   0  0  0  0  0  0  0  0  0  0  0  0
    9.1101  -14.9460   21.8361 C   0  0  1  0  0  0  0  0  0  0  0  0
    9.5351  -14.8522   23.2378 C   0  0  0  0  0  0  0  0  0  0  0  0
    9.9973  -13.7893   23.7195 O   0  0  0  0  0  0  0  0  0  0  0  0
    9.4130  -16.0054   24.0572 N   0  0  0  0  0  0  0  0  0  0  0  0
   10.2417  -16.2658   25.2237 C   0  0  1  0  0  0  0  0  0  0  0  0
    9.4099  -15.8664   26.3805 C   0  0  0  0  0  0  0  0  0  0  0  0
    8.1179  -15.3000   26.1734 C   0  0  0  0  0  0  0  0  0  0  0  0
    6.9902  -16.0134   25.8194 C   0  0  0  0  0  0  0  0  0  0  0  0
    5.9587  -15.1631   25.7151 N   0  0  0  0  0  0  0  0  0  0  0  0
    6.3405  -13.8964   25.9845 C   0  0  0  0  0  0  0  0  0  0  0  0
    5.7008  -12.6761   26.0207 C   0  0  0  0  0  0  0  0  0  0  0  0
    6.4314  -11.5529   26.3463 C   0  0  0  0  0  0  0  0  0  0  0  0
    7.7775  -11.6493   26.6304 C   0  0  0  0  0  0  0  0  0  0  0  0
    8.4181  -12.8614   26.5958 C   0  0  0  0  0  0  0  0  0  0  0  0
    7.6999  -13.9877   26.2725 C   0  0  0  0  0  0  0  0  0  0  0  0
   10.5272  -17.7046   25.2343 C   0  0  0  0  0  0  0  0  0  0  0  0
   11.4988  -18.2042   26.0828 O   0  0  0  0  0  0  0  0  0  0  0  0
    9.9338  -18.5450   24.5039 O   0  0  0  0  0  0  0  0  0  0  0  0
  2  1  1  0
  3  4  1  6
  3  2  1  0
  5  3  1  0
  5  6  2  0
  7  5  1  0
  8  7  1  0
  9  8  1  0
 10  9  1  0
 10 11  1  0
 11  7  1  0
 11 12  1  1
 12 14  1  0
 13 12  2  0
 15 16  1  1
 15 26  1  0
 15 14  1  0
 17 18  2  0
 17 16  1  0
 19 18  1  0
 20 25  2  0
 20 19  1  0
 21 20  1  0
 22 23  1  0
 22 21  2  0
 23 24  2  0
 24 25  1  0
 25 17  1  0
 26 27  1  0
 28 26  2  0
M  END
$$$$
