RLP.pdb
     RDKit          3D

 27 27  0  0  1  0  0  0  0  0999 V2000
   30.8110  -22.3025  -16.8715 N   0  0  0  0  0  0  0  0  0  0  0  0
   29.5739  -23.0406  -16.9390 C   0  0  0  0  0  0  0  0  0  0  0  0
   29.5897  -24.3158  -16.8218 N   0  0  0  0  0  0  0  0  0  0  0  0
   28.3489  -22.3518  -17.1338 N   0  0  0  0  0  0  0  0  0  0  0  0
   28.2335  -20.9189  -17.1369 C   0  0  0  0  0  0  0  0  0  0  0  0
   28.7701  -20.2798  -15.9025 C   0  0  0  0  0  0  0  0  0  0  0  0
   28.3731  -20.9401  -14.6167 C   0  0  0  0  0  0  0  0  0  0  0  0
   27.1625  -20.4263  -13.9546 C   0  0  2  0  0  0  0  0  0  0  0  0
   27.2970  -19.0381  -13.5744 N   0  0  0  0  0  0  0  0  0  0  0  0
   26.7005  -21.1846  -12.7875 C   0  0  0  0  0  0  0  0  0  0  0  0
   26.7486  -22.4377  -12.8260 O   0  0  0  0  0  0  0  0  0  0  0  0
   28.7607  -24.9050  -16.9751 C   0  0  0  0  0  0  0  0  0  0  0  0
   27.8944  -21.2464   -8.8766 C   0  0  2  0  0  0  0  0  0  0  0  0
   27.0443  -20.0251   -8.9416 C   0  0  0  0  0  0  0  0  0  0  0  0
   27.1133  -19.1915   -7.6800 C   0  0  0  0  0  0  0  0  0  0  0  0
   25.6380  -20.3938   -9.3046 C   0  0  2  0  0  0  0  0  0  0  0  0
   25.6669  -21.3554  -10.4728 N   0  0  0  0  0  0  0  0  0  0  0  0
   26.1975  -20.5925  -11.6057 C   0  0  0  0  0  0  0  0  0  0  0  0
   24.2970  -21.8809  -10.7984 O   0  0  0  0  0  0  0  0  0  0  0  0
   24.2975  -23.0873  -11.1554 N   0  0  0  0  0  0  0  0  0  0  0  0
   23.1469  -21.0693  -10.6998 C   0  0  0  0  0  0  0  0  0  0  0  0
   22.8662  -20.0771   -9.6364 C   0  0  0  0  0  0  0  0  0  0  0  0
   22.0753  -19.0002  -10.2987 C   0  0  0  0  0  0  0  0  0  0  0  0
   21.8248  -19.4951  -11.6941 C   0  0  2  0  0  0  0  0  0  0  0  0
   21.9651  -21.0318  -11.4923 C   0  0  0  0  0  0  0  0  0  0  0  0
   21.9329  -21.6972  -12.7748 O   0  0  0  0  0  0  0  0  0  0  0  0
   23.0688  -21.8554  -13.3585 O   0  0  0  0  0  0  0  0  0  0  0  0
  2  1  1  0
  2  3  2  0
  4  2  1  0
  5  4  1  0
  6  5  1  0
  7  6  1  0
  8  7  1  0
  8  9  1  1
 10 17  1  0
 10  8  1  0
 11 10  2  0
 13 12  1  6
 14 13  1  0
 15 13  1  0
 16 17  1  0
 16 15  1  1
 18 16  1  0
 19 18  2  0
 20 18  1  0
 20 24  1  0
 21 22  1  0
 21 20  1  0
 22 23  1  0
 23 24  1  0
 24 25  1  6
 25 27  1  0
 26 25  2  0
M  END
$$$$
