RLP.pdb
     RDKit          3D

 27 27  0  0  1  0  0  0  0  0999 V2000
   28.7927  -20.7549  -21.1541 N   0  0  0  0  0  0  0  0  0  0  0  0
   28.9178  -19.3564  -20.8248 C   0  0  0  0  0  0  0  0  0  0  0  0
   29.6235  -18.5906  -21.5702 N   0  0  0  0  0  0  0  0  0  0  0  0
   28.2597  -18.8377  -19.6799 N   0  0  0  0  0  0  0  0  0  0  0  0
   27.6796  -19.6611  -18.6542 C   0  0  0  0  0  0  0  0  0  0  0  0
   27.0256  -20.8912  -19.1827 C   0  0  0  0  0  0  0  0  0  0  0  0
   26.3689  -21.7589  -18.1520 C   0  0  0  0  0  0  0  0  0  0  0  0
   27.2233  -22.2505  -17.0583 C   0  0  2  0  0  0  0  0  0  0  0  0
   27.6404  -23.6190  -17.2659 N   0  0  0  0  0  0  0  0  0  0  0  0
   26.6637  -22.1355  -15.7076 C   0  0  0  0  0  0  0  0  0  0  0  0
   25.8388  -22.9986  -15.3222 O   0  0  0  0  0  0  0  0  0  0  0  0
   29.7550  -17.5880  -21.3819 C   0  0  0  0  0  0  0  0  0  0  0  0
   28.1673  -21.9429  -11.4214 C   0  0  2  0  0  0  0  0  0  0  0  0
   28.5289  -20.7996  -12.3049 C   0  0  0  0  0  0  0  0  0  0  0  0
   29.5919  -19.9045  -11.7047 C   0  0  0  0  0  0  0  0  0  0  0  0
   27.2979  -20.0395  -12.6950 C   0  0  2  0  0  0  0  0  0  0  0  0
   26.3802  -20.9553  -13.4756 N   0  0  0  0  0  0  0  0  0  0  0  0
   26.9943  -21.1046  -14.7976 C   0  0  0  0  0  0  0  0  0  0  0  0
   24.9978  -20.3808  -13.6085 O   0  0  0  0  0  0  0  0  0  0  0  0
   24.9803  -19.2411  -14.1408 N   0  0  0  0  0  0  0  0  0  0  0  0
   23.8558  -21.0830  -13.1679 C   0  0  0  0  0  0  0  0  0  0  0  0
   23.7871  -22.5283  -12.8510 C   0  0  0  0  0  0  0  0  0  0  0  0
   22.7754  -22.6470  -11.7618 C   0  0  0  0  0  0  0  0  0  0  0  0
   22.2104  -21.2658  -11.5951 C   0  0  2  0  0  0  0  0  0  0  0  0
   22.5102  -20.6530  -12.9938 C   0  0  0  0  0  0  0  0  0  0  0  0
   22.1970  -19.2422  -12.9858 O   0  0  0  0  0  0  0  0  0  0  0  0
   23.2027  -18.4398  -12.9578 O   0  0  0  0  0  0  0  0  0  0  0  0
  2  1  1  0
  2  3  2  0
  4  2  1  0
  5  4  1  0
  6  5  1  0
  7  6  1  0
  8  7  1  0
  8  9  1  6
 10 17  1  0
 10  8  1  0
 11 10  2  0
 13 12  1  6
 14 13  1  0
 15 13  1  0
 16 17  1  0
 16 15  1  1
 18 16  1  0
 19 18  2  0
 20 18  1  0
 20 24  1  0
 21 22  1  0
 21 20  1  0
 22 23  1  0
 23 24  1  0
 24 25  1  1
 25 27  1  0
 26 25  2  0
M  END
$$$$
