RLP.pdb
     RDKit          3D

 27 27  0  0  1  0  0  0  0  0999 V2000
   26.8397  -18.7694  -18.6875 N   0  0  0  0  0  0  0  0  0  0  0  0
   26.1589  -17.5614  -18.2912 C   0  0  0  0  0  0  0  0  0  0  0  0
   25.3632  -16.9841  -19.1120 N   0  0  0  0  0  0  0  0  0  0  0  0
   26.3732  -17.0207  -16.9971 N   0  0  0  0  0  0  0  0  0  0  0  0
   27.2342  -17.6226  -16.0158 C   0  0  0  0  0  0  0  0  0  0  0  0
   27.2527  -19.1112  -16.0788 C   0  0  0  0  0  0  0  0  0  0  0  0
   26.5381  -19.8070  -14.9599 C   0  0  0  0  0  0  0  0  0  0  0  0
   27.3147  -20.7924  -14.1894 C   0  0  2  0  0  0  0  0  0  0  0  0
   27.5644  -21.9998  -14.9443 N   0  0  0  0  0  0  0  0  0  0  0  0
   26.7591  -21.1669  -12.8850 C   0  0  0  0  0  0  0  0  0  0  0  0
   25.8639  -22.0448  -12.8414 O   0  0  0  0  0  0  0  0  0  0  0  0
   24.8896  -16.0949  -18.9049 C   0  0  0  0  0  0  0  0  0  0  0  0
   26.3193  -18.6547   -7.4011 C   0  0  1  0  0  0  0  0  0  0  0  0
   26.4633  -19.9767   -8.0721 C   0  0  0  0  0  0  0  0  0  0  0  0
   27.1856  -20.9957   -7.2170 C   0  0  0  0  0  0  0  0  0  0  0  0
   27.1018  -19.8061   -9.4168 C   0  0  2  0  0  0  0  0  0  0  0  0
   26.4021  -20.7062  -10.4120 N   0  0  0  0  0  0  0  0  0  0  0  0
   27.1685  -20.5987  -11.6563 C   0  0  0  0  0  0  0  0  0  0  0  0
   24.9781  -20.2844  -10.6426 O   0  0  0  0  0  0  0  0  0  0  0  0
   24.8555  -19.0573  -10.8914 N   0  0  0  0  0  0  0  0  0  0  0  0
   23.9107  -21.2052  -10.5787 C   0  0  0  0  0  0  0  0  0  0  0  0
   24.0254  -22.6810  -10.6334 C   0  0  0  0  0  0  0  0  0  0  0  0
   22.9106  -23.1962   -9.7874 C   0  0  0  0  0  0  0  0  0  0  0  0
   22.1219  -21.9817   -9.3904 C   0  0  2  0  0  0  0  0  0  0  0  0
   22.5037  -20.9952  -10.5319 C   0  0  0  0  0  0  0  0  0  0  0  0
   21.9779  -19.6817  -10.2378 O   0  0  0  0  0  0  0  0  0  0  0  0
   22.7087  -18.9352   -9.4862 O   0  0  0  0  0  0  0  0  0  0  0  0
  2  1  1  0
  2  3  2  0
  4  2  1  0
  5  4  1  0
  6  5  1  0
  7  6  1  0
  8  7  1  0
  8  9  1  6
 10 17  1  0
 10  8  1  0
 11 10  2  0
 13 12  1  1
 14 13  1  0
 15 13  1  0
 16 17  1  0
 16 15  1  1
 18 16  1  0
 19 18  2  0
 20 18  1  0
 20 24  1  0
 21 22  1  0
 21 20  1  0
 22 23  1  0
 23 24  1  0
 24 25  1  1
 25 27  1  0
 26 25  2  0
M  END
$$$$
