RLP.pdb
     RDKit          3D

 27 27  0  0  1  0  0  0  0  0999 V2000
   26.9294  -21.3996  -18.0093 N   0  0  0  0  0  0  0  0  0  0  0  0
   26.0478  -20.2716  -17.8357 C   0  0  0  0  0  0  0  0  0  0  0  0
   26.1379  -19.2693  -18.6279 N   0  0  0  0  0  0  0  0  0  0  0  0
   25.0875  -20.2783  -16.7914 N   0  0  0  0  0  0  0  0  0  0  0  0
   24.6683  -21.4691  -16.1036 C   0  0  0  0  0  0  0  0  0  0  0  0
   25.7949  -22.2208  -15.4824 C   0  0  0  0  0  0  0  0  0  0  0  0
   25.6731  -22.4498  -14.0060 C   0  0  0  0  0  0  0  0  0  0  0  0
   25.6906  -21.2543  -13.1467 C   0  0  2  0  0  0  0  0  0  0  0  0
   26.9585  -20.5620  -13.2021 N   0  0  0  0  0  0  0  0  0  0  0  0
   25.3420  -21.4726  -11.7391 C   0  0  0  0  0  0  0  0  0  0  0  0
   24.8705  -22.5850  -11.4010 O   0  0  0  0  0  0  0  0  0  0  0  0
   25.5206  -18.4488  -18.5690 C   0  0  0  0  0  0  0  0  0  0  0  0
   27.4061  -20.7248   -7.8300 C   0  0  2  0  0  0  0  0  0  0  0  0
   26.9619  -19.4897   -8.5342 C   0  0  0  0  0  0  0  0  0  0  0  0
   27.5544  -18.2288   -7.9424 C   0  0  0  0  0  0  0  0  0  0  0  0
   25.4656  -19.4412   -8.5967 C   0  0  2  0  0  0  0  0  0  0  0  0
   24.9655  -20.6440   -9.3669 N   0  0  0  0  0  0  0  0  0  0  0  0
   25.5028  -20.5023  -10.7229 C   0  0  0  0  0  0  0  0  0  0  0  0
   23.4641  -20.6974   -9.4076 O   0  0  0  0  0  0  0  0  0  0  0  0
   22.9520  -19.7941  -10.1180 N   0  0  0  0  0  0  0  0  0  0  0  0
   22.7362  -21.6808   -8.7047 C   0  0  0  0  0  0  0  0  0  0  0  0
   23.2680  -22.9685   -8.2014 C   0  0  0  0  0  0  0  0  0  0  0  0
   22.4969  -23.2562   -6.9578 C   0  0  0  0  0  0  0  0  0  0  0  0
   21.4581  -22.1748   -6.8779 C   0  0  2  0  0  0  0  0  0  0  0  0
   21.3540  -21.7539   -8.3725 C   0  0  0  0  0  0  0  0  0  0  0  0
   20.5185  -20.5809   -8.4919 O   0  0  0  0  0  0  0  0  0  0  0  0
   21.1345  -19.4594   -8.6295 O   0  0  0  0  0  0  0  0  0  0  0  0
  2  1  1  0
  2  3  2  0
  4  2  1  0
  5  4  1  0
  6  5  1  0
  7  6  1  0
  8  7  1  0
  8  9  1  1
 10 17  1  0
 10  8  1  0
 11 10  2  0
 13 12  1  6
 14 13  1  0
 15 13  1  0
 16 17  1  0
 16 15  1  1
 18 16  1  0
 19 18  2  0
 20 18  1  0
 20 24  1  0
 21 22  1  0
 21 20  1  0
 22 23  1  0
 23 24  1  0
 24 25  1  1
 25 27  1  0
 26 25  2  0
M  END
$$$$
