RLP.pdb
     RDKit          3D

 27 27  0  0  1  0  0  0  0  0999 V2000
   23.9987  -19.9210  -20.2537 N   0  0  0  0  0  0  0  0  0  0  0  0
   24.4911  -20.5206  -21.4693 C   0  0  0  0  0  0  0  0  0  0  0  0
   24.8012  -19.7749  -22.4632 N   0  0  0  0  0  0  0  0  0  0  0  0
   24.6297  -21.9299  -21.5573 N   0  0  0  0  0  0  0  0  0  0  0  0
   24.3259  -22.8283  -20.4769 C   0  0  0  0  0  0  0  0  0  0  0  0
   25.5344  -23.4543  -19.8707 C   0  0  0  0  0  0  0  0  0  0  0  0
   25.9629  -22.8751  -18.5562 C   0  0  0  0  0  0  0  0  0  0  0  0
   26.3019  -21.4423  -18.5428 C   0  0  2  0  0  0  0  0  0  0  0  0
   27.6250  -21.1906  -19.0681 N   0  0  0  0  0  0  0  0  0  0  0  0
   26.1812  -20.7681  -17.2461 C   0  0  0  0  0  0  0  0  0  0  0  0
   27.2260  -20.5148  -16.5995 O   0  0  0  0  0  0  0  0  0  0  0  0
   25.1415  -20.1459  -23.3601 C   0  0  0  0  0  0  0  0  0  0  0  0
   25.3082  -17.4238  -13.8499 C   0  0  1  0  0  0  0  0  0  0  0  0
   24.0854  -17.3576  -14.6977 C   0  0  0  0  0  0  0  0  0  0  0  0
   22.8161  -17.6442  -13.9243 C   0  0  0  0  0  0  0  0  0  0  0  0
   24.2374  -18.2480  -15.8932 C   0  0  1  0  0  0  0  0  0  0  0  0
   24.8426  -19.5635  -15.4537 N   0  0  0  0  0  0  0  0  0  0  0  0
   24.9513  -20.3787  -16.6665 C   0  0  0  0  0  0  0  0  0  0  0  0
   23.9849  -20.2613  -14.4356 O   0  0  0  0  0  0  0  0  0  0  0  0
   22.7618  -20.2614  -14.7299 N   0  0  0  0  0  0  0  0  0  0  0  0
   24.5358  -20.8474  -13.2763 C   0  0  0  0  0  0  0  0  0  0  0  0
   25.9727  -21.1067  -13.0266 C   0  0  0  0  0  0  0  0  0  0  0  0
   26.1518  -20.9568  -11.5537 C   0  0  0  0  0  0  0  0  0  0  0  0
   24.7693  -20.7462  -11.0069 C   0  0  2  0  0  0  0  0  0  0  0  0
   23.9064  -21.3995  -12.1251 C   0  0  0  0  0  0  0  0  0  0  0  0
   22.5065  -21.1436  -11.8735 O   0  0  0  0  0  0  0  0  0  0  0  0
   21.7450  -22.1790  -11.8094 O   0  0  0  0  0  0  0  0  0  0  0  0
  2  1  1  0
  2  3  2  0
  4  2  1  0
  5  4  1  0
  6  5  1  0
  7  6  1  0
  8  7  1  0
  8  9  1  1
 10 17  1  0
 10  8  1  0
 11 10  2  0
 13 12  1  1
 14 13  1  0
 15 13  1  0
 16 17  1  0
 16 15  1  6
 18 16  1  0
 19 18  2  0
 20 18  1  0
 20 24  1  0
 21 22  1  0
 21 20  1  0
 22 23  1  0
 23 24  1  0
 24 25  1  1
 25 27  1  0
 26 25  2  0
M  END
$$$$
