RLP.pdb
     RDKit          3D

 27 27  0  0  1  0  0  0  0  0999 V2000
   21.3045  -27.1285  -15.4254 N   0  0  0  0  0  0  0  0  0  0  0  0
   22.7004  -27.0473  -15.7785 C   0  0  0  0  0  0  0  0  0  0  0  0
   23.2853  -28.0662  -16.2885 N   0  0  0  0  0  0  0  0  0  0  0  0
   23.4164  -25.8421  -15.5601 N   0  0  0  0  0  0  0  0  0  0  0  0
   22.8576  -24.6929  -14.9015 C   0  0  0  0  0  0  0  0  0  0  0  0
   21.9906  -23.8667  -15.7879 C   0  0  0  0  0  0  0  0  0  0  0  0
   22.0303  -22.3914  -15.5257 C   0  0  0  0  0  0  0  0  0  0  0  0
   21.8105  -21.9596  -14.1354 C   0  0  2  0  0  0  0  0  0  0  0  0
   20.5166  -21.3406  -13.9552 N   0  0  0  0  0  0  0  0  0  0  0  0
   22.8325  -21.0716  -13.5717 C   0  0  0  0  0  0  0  0  0  0  0  0
   22.8470  -19.8685  -13.9268 O   0  0  0  0  0  0  0  0  0  0  0  0
   24.2502  -28.0414  -16.6435 C   0  0  0  0  0  0  0  0  0  0  0  0
   27.4826  -21.1124   -9.5446 C   0  0  1  0  0  0  0  0  0  0  0  0
   26.5792  -20.4212  -10.5061 C   0  0  0  0  0  0  0  0  0  0  0  0
   25.7824  -19.3040   -9.8669 C   0  0  0  0  0  0  0  0  0  0  0  0
   25.7042  -21.4194  -11.2011 C   0  0  2  0  0  0  0  0  0  0  0  0
   25.0697  -20.7624  -12.4077 N   0  0  0  0  0  0  0  0  0  0  0  0
   23.8162  -21.4840  -12.6430 C   0  0  0  0  0  0  0  0  0  0  0  0
   25.9528  -20.8491  -13.6207 O   0  0  0  0  0  0  0  0  0  0  0  0
   26.3136  -22.0233  -13.8921 N   0  0  0  0  0  0  0  0  0  0  0  0
   26.3184  -19.7023  -14.3572 C   0  0  0  0  0  0  0  0  0  0  0  0
   25.7449  -18.3453  -14.2030 C   0  0  0  0  0  0  0  0  0  0  0  0
   26.8588  -17.4063  -14.5212 C   0  0  0  0  0  0  0  0  0  0  0  0
   27.9934  -18.2787  -14.9755 C   0  0  2  0  0  0  0  0  0  0  0  0
   27.2220  -19.5458  -15.4458 C   0  0  0  0  0  0  0  0  0  0  0  0
   28.1601  -20.5980  -15.7640 O   0  0  0  0  0  0  0  0  0  0  0  0
   28.4938  -21.3715  -14.7911 O   0  0  0  0  0  0  0  0  0  0  0  0
  2  1  1  0
  2  3  2  0
  4  2  1  0
  5  4  1  0
  6  5  1  0
  7  6  1  0
  8  7  1  0
  8  9  1  6
 10 17  1  0
 10  8  1  0
 11 10  2  0
 13 12  1  6
 14 13  1  0
 15 13  1  0
 16 17  1  0
 16 15  1  1
 18 16  1  0
 19 18  2  0
 20 18  1  0
 20 24  1  0
 21 22  1  0
 21 20  1  0
 22 23  1  0
 23 24  1  0
 24 25  1  1
 25 27  1  0
 26 25  2  0
M  END
$$$$
