RLP.pdb
     RDKit          3D

 27 27  0  0  1  0  0  0  0  0999 V2000
   18.9272  -24.5329   -7.0316 N   0  0  0  0  0  0  0  0  0  0  0  0
   17.7488  -24.0633   -7.7177 C   0  0  0  0  0  0  0  0  0  0  0  0
   16.6168  -24.0837   -7.1192 N   0  0  0  0  0  0  0  0  0  0  0  0
   17.8497  -23.5820   -9.0486 N   0  0  0  0  0  0  0  0  0  0  0  0
   18.7198  -22.5075   -9.4422 C   0  0  0  0  0  0  0  0  0  0  0  0
   20.0113  -22.9741  -10.0205 C   0  0  0  0  0  0  0  0  0  0  0  0
   20.9613  -21.8866  -10.4226 C   0  0  0  0  0  0  0  0  0  0  0  0
   21.9526  -21.4680   -9.4177 C   0  0  2  0  0  0  0  0  0  0  0  0
   21.3579  -20.6814   -8.3605 N   0  0  0  0  0  0  0  0  0  0  0  0
   23.1206  -20.7460   -9.9326 C   0  0  0  0  0  0  0  0  0  0  0  0
   23.0833  -19.4928   -9.9751 O   0  0  0  0  0  0  0  0  0  0  0  0
   15.7404  -23.7793   -7.5631 C   0  0  0  0  0  0  0  0  0  0  0  0
   27.6030  -18.8980   -9.5220 C   0  0  1  0  0  0  0  0  0  0  0  0
   27.7953  -20.3689   -9.6562 C   0  0  0  0  0  0  0  0  0  0  0  0
   28.5081  -20.7557  -10.9343 C   0  0  0  0  0  0  0  0  0  0  0  0
   26.4844  -21.0773   -9.4981 C   0  0  1  0  0  0  0  0  0  0  0  0
   25.5635  -20.6666  -10.6265 N   0  0  0  0  0  0  0  0  0  0  0  0
   24.3020  -21.3740  -10.3909 C   0  0  0  0  0  0  0  0  0  0  0  0
   26.1239  -21.0405  -11.9700 O   0  0  0  0  0  0  0  0  0  0  0  0
   26.5470  -22.2241  -12.0221 N   0  0  0  0  0  0  0  0  0  0  0  0
   26.1538  -20.1252  -13.0436 C   0  0  0  0  0  0  0  0  0  0  0  0
   25.5853  -18.7573  -13.0417 C   0  0  0  0  0  0  0  0  0  0  0  0
   26.4712  -17.9593  -13.9373 C   0  0  0  0  0  0  0  0  0  0  0  0
   27.4386  -18.9488  -14.5201 C   0  0  2  0  0  0  0  0  0  0  0  0
   26.6311  -20.2714  -14.3765 C   0  0  0  0  0  0  0  0  0  0  0  0
   27.4697  -21.3954  -14.7253 O   0  0  0  0  0  0  0  0  0  0  0  0
   28.2173  -21.8565  -13.7848 O   0  0  0  0  0  0  0  0  0  0  0  0
  2  1  1  0
  2  3  2  0
  4  2  1  0
  5  4  1  0
  6  5  1  0
  7  6  1  0
  8  7  1  0
  8  9  1  1
 10 17  1  0
 10  8  1  0
 11 10  2  0
 13 12  1  1
 14 13  1  0
 15 13  1  0
 16 17  1  0
 16 15  1  1
 18 16  1  0
 19 18  2  0
 20 18  1  0
 20 24  1  0
 21 22  1  0
 21 20  1  0
 22 23  1  0
 23 24  1  0
 24 25  1  1
 25 27  1  0
 26 25  2  0
M  END
$$$$
