VLC.pdb
     RDKit          3D

 22 21  0  0  1  0  0  0  0  0999 V2000
   23.2701  -24.9107  -16.7179 C   0  0  0  0  0  0  0  0  0  0  0  0
   23.8013  -23.9361  -17.7267 C   0  0  2  0  0  0  0  0  0  0  0  0
   23.4995  -24.4680  -19.1123 C   0  0  0  0  0  0  0  0  0  0  0  0
   25.2615  -23.6288  -17.5538 C   0  0  2  0  0  0  0  0  0  0  0  0
   25.9842  -24.8777  -17.7005 N   0  0  0  0  0  0  0  0  0  0  0  0
   25.5882  -23.0260  -16.2602 C   0  0  0  0  0  0  0  0  0  0  0  0
   25.9069  -23.6705  -15.2284 O   0  0  0  0  0  0  0  0  0  0  0  0
   28.7714  -20.1724  -14.9479 C   0  0  0  0  0  0  0  0  0  0  0  0
   27.6741  -19.5545  -15.8560 C   0  0  2  0  0  0  0  0  0  0  0  0
   28.1613  -18.1877  -16.2158 C   0  0  0  0  0  0  0  0  0  0  0  0
   26.4288  -19.6064  -15.0680 C   0  0  0  0  0  0  0  0  0  0  0  0
   25.9273  -20.9842  -14.8061 C   0  0  2  0  0  0  0  0  0  0  0  0
   25.5570  -21.6134  -16.1093 N   0  0  0  0  0  0  0  0  0  0  0  0
   24.7341  -21.1036  -13.9638 C   0  0  0  0  0  0  0  0  0  0  0  0
   23.5971  -21.0590  -14.4992 O   0  0  0  0  0  0  0  0  0  0  0  0
   24.7294  -21.2742  -12.5564 N   0  0  0  0  0  0  0  0  0  0  0  0
   23.4967  -21.2565  -11.7780 C   0  0  1  0  0  0  0  0  0  0  0  0
   23.8719  -21.0391  -10.3272 C   0  0  0  0  0  0  0  0  0  0  0  0
   22.3957  -21.0814   -9.2778 S   0  0  0  0  0  0  0  0  0  0  0  0
   22.6678  -20.1043  -12.2054 C   0  0  0  0  0  0  0  0  0  0  0  0
   23.2148  -19.0085  -12.4885 O   0  0  0  0  0  0  0  0  0  0  0  0
   21.2923  -20.2119  -12.2996 O   0  0  0  0  0  0  0  0  0  0  0  0
  2  1  1  1
  2  4  1  0
  2  3  1  0
  4  6  1  0
  4  5  1  1
  6  7  2  0
  9  8  1  1
  9 11  1  0
 10  9  1  0
 12 11  1  6
 12 14  1  0
 13 12  1  0
 13  6  1  0
 14 16  1  0
 15 14  2  0
 16 17  1  0
 17 18  1  1
 18 19  1  0
 20 17  1  0
 21 20  2  0
 22 20  1  0
M  END
$$$$
