VLC.pdb
     RDKit          3D

 22 21  0  0  1  0  0  0  0  0999 V2000
   19.3552  -22.1559  -13.5362 C   0  0  0  0  0  0  0  0  0  0  0  0
   19.9135  -23.0130  -12.4392 C   0  0  2  0  0  0  0  0  0  0  0  0
   18.8558  -24.0165  -12.0293 C   0  0  0  0  0  0  0  0  0  0  0  0
   20.4221  -22.2281  -11.2637 C   0  0  2  0  0  0  0  0  0  0  0  0
   19.2941  -21.5041  -10.7095 N   0  0  0  0  0  0  0  0  0  0  0  0
   21.4884  -21.2837  -11.6020 C   0  0  0  0  0  0  0  0  0  0  0  0
   21.3078  -20.0777  -11.9094 O   0  0  0  0  0  0  0  0  0  0  0  0
   25.0490  -19.5881   -9.6518 C   0  0  0  0  0  0  0  0  0  0  0  0
   25.2314  -21.1007   -9.9507 C   0  0  2  0  0  0  0  0  0  0  0  0
   26.5079  -21.4997   -9.2829 C   0  0  0  0  0  0  0  0  0  0  0  0
   25.2092  -21.2221  -11.4201 C   0  0  0  0  0  0  0  0  0  0  0  0
   23.9293  -20.7942  -12.0503 C   0  0  2  0  0  0  0  0  0  0  0  0
   22.8429  -21.7135  -11.5966 N   0  0  0  0  0  0  0  0  0  0  0  0
   23.8735  -20.8192  -13.5145 C   0  0  0  0  0  0  0  0  0  0  0  0
   23.8314  -21.9266  -14.1089 O   0  0  0  0  0  0  0  0  0  0  0  0
   23.8575  -19.6819  -14.3607 N   0  0  0  0  0  0  0  0  0  0  0  0
   23.7875  -19.7975  -15.8124 C   0  0  1  0  0  0  0  0  0  0  0  0
   22.3847  -19.4169  -16.2370 C   0  0  0  0  0  0  0  0  0  0  0  0
   22.2531  -19.3968  -18.0438 S   0  0  0  0  0  0  0  0  0  0  0  0
   24.7221  -18.8227  -16.4238 C   0  0  0  0  0  0  0  0  0  0  0  0
   25.1590  -17.8604  -15.7432 O   0  0  0  0  0  0  0  0  0  0  0  0
   25.1266  -18.9522  -17.7399 O   0  0  0  0  0  0  0  0  0  0  0  0
  2  1  1  6
  2  4  1  0
  2  3  1  0
  4  6  1  0
  4  5  1  6
  6  7  2  0
  9  8  1  6
  9 11  1  0
 10  9  1  0
 12 11  1  6
 12 14  1  0
 13 12  1  0
 13  6  1  0
 14 16  1  0
 15 14  2  0
 16 17  1  0
 17 18  1  6
 18 19  1  0
 20 17  1  0
 21 20  2  0
 22 20  1  0
M  END
$$$$
