VLC.pdb
     RDKit          3D

 22 21  0  0  1  0  0  0  0  0999 V2000
   20.1959  -13.6902  -17.4877 C   0  0  0  0  0  0  0  0  0  0  0  0
   19.3809  -13.1101  -18.6053 C   0  0  2  0  0  0  0  0  0  0  0  0
   19.3648  -14.1006  -19.7511 C   0  0  0  0  0  0  0  0  0  0  0  0
   19.8490  -11.7533  -19.0485 C   0  0  2  0  0  0  0  0  0  0  0  0
   21.1380  -11.9311  -19.6891 N   0  0  0  0  0  0  0  0  0  0  0  0
   19.9773  -10.7877  -17.9555 C   0  0  0  0  0  0  0  0  0  0  0  0
   19.0372  -10.4289  -17.2011 O   0  0  0  0  0  0  0  0  0  0  0  0
   22.1008  -10.3940  -13.9971 C   0  0  0  0  0  0  0  0  0  0  0  0
   23.0416  -10.5007  -15.2275 C   0  0  2  0  0  0  0  0  0  0  0  0
   24.4260  -10.6207  -14.6762 C   0  0  0  0  0  0  0  0  0  0  0  0
   22.7747   -9.2987  -16.0389 C   0  0  0  0  0  0  0  0  0  0  0  0
   21.3836   -9.2114  -16.5641 C   0  0  2  0  0  0  0  0  0  0  0  0
   21.2356  -10.1841  -17.6881 N   0  0  0  0  0  0  0  0  0  0  0  0
   20.9644   -7.9182  -17.1114 C   0  0  0  0  0  0  0  0  0  0  0  0
   21.3824   -7.5658  -18.2438 O   0  0  0  0  0  0  0  0  0  0  0  0
   20.1015   -6.9915  -16.4740 N   0  0  0  0  0  0  0  0  0  0  0  0
   19.7213   -5.7305  -17.0994 C   0  0  1  0  0  0  0  0  0  0  0  0
   18.2117   -5.7119  -17.2163 C   0  0  0  0  0  0  0  0  0  0  0  0
   17.6360   -4.0721  -17.7284 S   0  0  0  0  0  0  0  0  0  0  0  0
   20.1173   -4.6094  -16.2142 C   0  0  0  0  0  0  0  0  0  0  0  0
   20.1098   -4.7622  -14.9664 O   0  0  0  0  0  0  0  0  0  0  0  0
   20.4983   -3.3877  -16.7384 O   0  0  0  0  0  0  0  0  0  0  0  0
  2  1  1  1
  2  4  1  0
  2  3  1  0
  4  6  1  0
  4  5  1  1
  6  7  2  0
  9  8  1  1
  9 11  1  0
 10  9  1  0
 12 11  1  6
 12 14  1  0
 13 12  1  0
 13  6  1  0
 14 16  1  0
 15 14  2  0
 16 17  1  0
 17 18  1  1
 18 19  1  0
 20 17  1  0
 21 20  2  0
 22 20  1  0
M  END
$$$$
