VLC.pdb
     RDKit          3D

 22 21  0  0  1  0  0  0  0  0999 V2000
   21.2822  -20.4840  -12.6021 C   0  0  0  0  0  0  0  0  0  0  0  0
   21.3270  -19.9703  -14.0106 C   0  0  2  0  0  0  0  0  0  0  0  0
   19.9804  -20.2232  -14.6562 C   0  0  0  0  0  0  0  0  0  0  0  0
   22.4515  -20.5450  -14.8240 C   0  0  2  0  0  0  0  0  0  0  0  0
   22.2658  -21.9831  -14.8588 N   0  0  0  0  0  0  0  0  0  0  0  0
   23.7807  -20.2382  -14.2925 C   0  0  0  0  0  0  0  0  0  0  0  0
   24.3266  -19.1061  -14.3351 O   0  0  0  0  0  0  0  0  0  0  0  0
   25.3217  -19.4926  -10.7435 C   0  0  0  0  0  0  0  0  0  0  0  0
   25.0677  -21.0212  -10.8399 C   0  0  2  0  0  0  0  0  0  0  0  0
   25.1815  -21.5448   -9.4443 C   0  0  0  0  0  0  0  0  0  0  0  0
   26.0632  -21.5308  -11.8010 C   0  0  0  0  0  0  0  0  0  0  0  0
   25.9278  -20.9736  -13.1757 C   0  0  2  0  0  0  0  0  0  0  0  0
   24.5492  -21.2609  -13.6737 N   0  0  0  0  0  0  0  0  0  0  0  0
   26.8302  -21.5109  -14.1977 C   0  0  0  0  0  0  0  0  0  0  0  0
   27.1476  -22.7271  -14.1590 O   0  0  0  0  0  0  0  0  0  0  0  0
   27.3998  -20.7749  -15.2670 N   0  0  0  0  0  0  0  0  0  0  0  0
   28.1793  -21.4153  -16.3197 C   0  0  1  0  0  0  0  0  0  0  0  0
   27.2617  -22.3684  -17.0563 C   0  0  0  0  0  0  0  0  0  0  0  0
   25.8412  -21.4773  -17.7423 S   0  0  0  0  0  0  0  0  0  0  0  0
   28.6285  -20.3861  -17.2873 C   0  0  0  0  0  0  0  0  0  0  0  0
   28.1795  -19.2144  -17.2109 O   0  0  0  0  0  0  0  0  0  0  0  0
   29.5400  -20.6919  -18.2812 O   0  0  0  0  0  0  0  0  0  0  0  0
  2  1  1  1
  2  4  1  0
  2  3  1  0
  4  6  1  0
  4  5  1  1
  6  7  2  0
  9  8  1  1
  9 11  1  0
 10  9  1  0
 12 11  1  1
 12 14  1  0
 13 12  1  0
 13  6  1  0
 14 16  1  0
 15 14  2  0
 16 17  1  0
 17 18  1  6
 18 19  1  0
 20 17  1  0
 21 20  2  0
 22 20  1  0
M  END
$$$$
