VLC.pdb
     RDKit          3D

 22 21  0  0  1  0  0  0  0  0999 V2000
   18.8111  -15.2190  -16.7360 C   0  0  0  0  0  0  0  0  0  0  0  0
   17.5318  -14.4913  -17.0248 C   0  0  2  0  0  0  0  0  0  0  0  0
   16.7354  -15.3008  -18.0269 C   0  0  0  0  0  0  0  0  0  0  0  0
   17.7366  -13.0771  -17.4880 C   0  0  2  0  0  0  0  0  0  0  0  0
   18.3674  -13.1391  -18.7926 N   0  0  0  0  0  0  0  0  0  0  0  0
   18.5634  -12.2746  -16.5848 C   0  0  0  0  0  0  0  0  0  0  0  0
   18.2382  -11.9474  -15.4149 O   0  0  0  0  0  0  0  0  0  0  0  0
   24.5135  -11.2697  -15.9873 C   0  0  0  0  0  0  0  0  0  0  0  0
   23.1280  -10.7699  -15.4964 C   0  0  2  0  0  0  0  0  0  0  0  0
   23.0838  -11.0582  -14.0303 C   0  0  0  0  0  0  0  0  0  0  0  0
   22.1329  -11.4796  -16.3215 C   0  0  0  0  0  0  0  0  0  0  0  0
   20.7244  -11.0626  -16.0753 C   0  0  2  0  0  0  0  0  0  0  0  0
   19.8345  -11.8076  -17.0156 N   0  0  0  0  0  0  0  0  0  0  0  0
   20.4094   -9.6464  -16.2817 C   0  0  0  0  0  0  0  0  0  0  0  0
   20.4583   -9.1692  -17.4442 O   0  0  0  0  0  0  0  0  0  0  0  0
   20.0378   -8.7261  -15.2694 N   0  0  0  0  0  0  0  0  0  0  0  0
   19.7307   -7.3317  -15.5649 C   0  0  1  0  0  0  0  0  0  0  0  0
   18.3836   -7.0170  -14.9492 C   0  0  0  0  0  0  0  0  0  0  0  0
   17.0811   -7.9973  -15.7398 S   0  0  0  0  0  0  0  0  0  0  0  0
   20.7378   -6.4626  -14.9109 C   0  0  0  0  0  0  0  0  0  0  0  0
   21.5884   -6.9634  -14.1326 O   0  0  0  0  0  0  0  0  0  0  0  0
   20.7604   -5.0993  -15.1421 O   0  0  0  0  0  0  0  0  0  0  0  0
  2  1  1  6
  2  4  1  0
  2  3  1  0
  4  6  1  0
  4  5  1  6
  6  7  2  0
  9  8  1  6
  9 11  1  0
 10  9  1  0
 12 11  1  6
 12 14  1  0
 13 12  1  0
 13  6  1  0
 14 16  1  0
 15 14  2  0
 16 17  1  0
 17 18  1  1
 18 19  1  0
 20 17  1  0
 21 20  2  0
 22 20  1  0
M  END
$$$$
