VLC.pdb
     RDKit          3D

 22 21  0  0  1  0  0  0  0  0999 V2000
   17.7369  -11.2475  -21.7359 C   0  0  0  0  0  0  0  0  0  0  0  0
   17.9736  -10.6609  -20.3759 C   0  0  2  0  0  0  0  0  0  0  0  0
   18.3172   -9.1949  -20.5393 C   0  0  0  0  0  0  0  0  0  0  0  0
   19.0167  -11.3921  -19.5797 C   0  0  2  0  0  0  0  0  0  0  0  0
   18.5625  -12.7616  -19.4312 N   0  0  0  0  0  0  0  0  0  0  0  0
   19.2618  -10.8140  -18.2572 C   0  0  0  0  0  0  0  0  0  0  0  0
   18.5217  -10.9787  -17.2538 O   0  0  0  0  0  0  0  0  0  0  0  0
   23.6055  -10.0709  -14.4332 C   0  0  0  0  0  0  0  0  0  0  0  0
   22.3436   -9.2890  -14.8880 C   0  0  2  0  0  0  0  0  0  0  0  0
   21.3919   -9.3407  -13.7364 C   0  0  0  0  0  0  0  0  0  0  0  0
   21.8907   -9.9489  -16.1265 C   0  0  0  0  0  0  0  0  0  0  0  0
   20.6465   -9.3719  -16.7076 C   0  0  2  0  0  0  0  0  0  0  0  0
   20.4065  -10.0001  -18.0414 N   0  0  0  0  0  0  0  0  0  0  0  0
   20.6401   -7.9269  -16.9516 C   0  0  0  0  0  0  0  0  0  0  0  0
   21.4091   -7.4477  -17.8236 O   0  0  0  0  0  0  0  0  0  0  0  0
   19.8237   -6.9795  -16.2843 N   0  0  0  0  0  0  0  0  0  0  0  0
   19.8357   -5.5639  -16.6336 C   0  0  1  0  0  0  0  0  0  0  0  0
   18.4272   -5.0356  -16.4608 C   0  0  0  0  0  0  0  0  0  0  0  0
   17.3133   -5.7929  -17.6725 S   0  0  0  0  0  0  0  0  0  0  0  0
   20.7087   -4.8354  -15.6826 C   0  0  0  0  0  0  0  0  0  0  0  0
   20.9841   -5.3449  -14.5669 O   0  0  0  0  0  0  0  0  0  0  0  0
   21.2311   -3.5953  -16.0013 O   0  0  0  0  0  0  0  0  0  0  0  0
  2  1  1  6
  2  4  1  0
  2  3  1  0
  4  6  1  0
  4  5  1  1
  6  7  2  0
  9  8  1  1
  9 11  1  0
 10  9  1  0
 12 11  1  6
 12 14  1  0
 13 12  1  0
 13  6  1  0
 14 16  1  0
 15 14  2  0
 16 17  1  0
 17 18  1  1
 18 19  1  0
 20 17  1  0
 21 20  2  0
 22 20  1  0
M  END
$$$$
