VLC.pdb
     RDKit          3D

 22 21  0  0  1  0  0  0  0  0999 V2000
   23.0075  -19.8329  -15.4203 C   0  0  0  0  0  0  0  0  0  0  0  0
   23.9281  -18.6563  -15.2871 C   0  0  2  0  0  0  0  0  0  0  0  0
   23.3314  -17.4919  -16.0501 C   0  0  0  0  0  0  0  0  0  0  0  0
   25.3369  -18.9438  -15.7218 C   0  0  2  0  0  0  0  0  0  0  0  0
   25.2931  -19.2697  -17.1344 N   0  0  0  0  0  0  0  0  0  0  0  0
   25.9681  -20.0420  -14.9877 C   0  0  0  0  0  0  0  0  0  0  0  0
   25.9080  -21.2539  -15.3183 O   0  0  0  0  0  0  0  0  0  0  0  0
   29.4659  -21.0174  -10.3026 C   0  0  0  0  0  0  0  0  0  0  0  0
   29.4110  -21.4628  -11.7889 C   0  0  2  0  0  0  0  0  0  0  0  0
   30.8329  -21.6234  -12.2217 C   0  0  0  0  0  0  0  0  0  0  0  0
   28.6397  -20.4195  -12.4895 C   0  0  0  0  0  0  0  0  0  0  0  0
   27.3328  -20.8848  -13.0318 C   0  0  2  0  0  0  0  0  0  0  0  0
   26.7141  -19.7695  -13.8094 N   0  0  0  0  0  0  0  0  0  0  0  0
   26.3179  -21.2871  -12.0543 C   0  0  0  0  0  0  0  0  0  0  0  0
   26.4641  -22.3661  -11.4253 O   0  0  0  0  0  0  0  0  0  0  0  0
   25.1472  -20.5563  -11.7299 N   0  0  0  0  0  0  0  0  0  0  0  0
   24.2112  -21.0071  -10.7069 C   0  0  1  0  0  0  0  0  0  0  0  0
   24.3678  -20.0967   -9.5070 C   0  0  0  0  0  0  0  0  0  0  0  0
   25.8409  -20.5510   -8.5551 S   0  0  0  0  0  0  0  0  0  0  0  0
   22.8262  -20.8510  -11.2116 C   0  0  0  0  0  0  0  0  0  0  0  0
   22.6260  -20.3785  -12.3591 O   0  0  0  0  0  0  0  0  0  0  0  0
   21.7402  -21.2182  -10.4382 O   0  0  0  0  0  0  0  0  0  0  0  0
  2  1  1  6
  2  4  1  0
  2  3  1  0
  4  6  1  0
  4  5  1  6
  6  7  2  0
  9  8  1  1
  9 11  1  0
 10  9  1  0
 12 11  1  1
 12 14  1  0
 13 12  1  0
 13  6  1  0
 14 16  1  0
 15 14  2  0
 16 17  1  0
 17 18  1  1
 18 19  1  0
 20 17  1  0
 21 20  2  0
 22 20  1  0
M  END
$$$$
