VLC.pdb
     RDKit          3D

 22 21  0  0  1  0  0  0  0  0999 V2000
   28.5327  -17.4940  -16.1162 C   0  0  0  0  0  0  0  0  0  0  0  0
   27.6965  -18.6717  -15.7119 C   0  0  2  0  0  0  0  0  0  0  0  0
   27.6803  -19.6636  -16.8563 C   0  0  0  0  0  0  0  0  0  0  0  0
   26.3075  -18.3008  -15.2764 C   0  0  2  0  0  0  0  0  0  0  0  0
   26.4295  -17.1956  -14.3451 N   0  0  0  0  0  0  0  0  0  0  0  0
   25.5770  -19.3974  -14.6381 C   0  0  0  0  0  0  0  0  0  0  0  0
   25.3665  -20.5206  -15.1631 O   0  0  0  0  0  0  0  0  0  0  0  0
   26.3358  -21.8278  -11.1576 C   0  0  0  0  0  0  0  0  0  0  0  0
   25.9198  -20.3797  -10.7827 C   0  0  2  0  0  0  0  0  0  0  0  0
   26.1819  -20.2440   -9.3172 C   0  0  0  0  0  0  0  0  0  0  0  0
   24.5112  -20.2492  -11.1987 C   0  0  0  0  0  0  0  0  0  0  0  0
   24.2967  -20.3384  -12.6700 C   0  0  2  0  0  0  0  0  0  0  0  0
   25.0479  -19.2288  -13.3301 N   0  0  0  0  0  0  0  0  0  0  0  0
   22.9164  -20.2099  -13.1450 C   0  0  0  0  0  0  0  0  0  0  0  0
   22.3127  -19.1177  -12.9906 O   0  0  0  0  0  0  0  0  0  0  0  0
   22.1655  -21.2261  -13.7879 N   0  0  0  0  0  0  0  0  0  0  0  0
   20.8014  -21.0047  -14.2527 C   0  0  1  0  0  0  0  0  0  0  0  0
   20.6734  -21.6390  -15.6217 C   0  0  0  0  0  0  0  0  0  0  0  0
   21.7424  -20.7926  -16.8146 S   0  0  0  0  0  0  0  0  0  0  0  0
   19.8589  -21.7010  -13.3449 C   0  0  0  0  0  0  0  0  0  0  0  0
   20.2857  -22.5713  -12.5445 O   0  0  0  0  0  0  0  0  0  0  0  0
   18.5071  -21.4096  -13.3610 O   0  0  0  0  0  0  0  0  0  0  0  0
  2  1  1  6
  2  4  1  0
  2  3  1  0
  4  6  1  0
  4  5  1  1
  6  7  2  0
  9  8  1  1
  9 11  1  0
 10  9  1  0
 12 11  1  1
 12 14  1  0
 13 12  1  0
 13  6  1  0
 14 16  1  0
 15 14  2  0
 16 17  1  0
 17 18  1  6
 18 19  1  0
 20 17  1  0
 21 20  2  0
 22 20  1  0
M  END
$$$$
