VLC.pdb
     RDKit          3D

 22 21  0  0  1  0  0  0  0  0999 V2000
   20.4769   -9.5794  -16.6804 C   0  0  0  0  0  0  0  0  0  0  0  0
   20.3736  -10.7186  -15.7103 C   0  0  2  0  0  0  0  0  0  0  0  0
   21.1446  -11.8961  -16.2698 C   0  0  0  0  0  0  0  0  0  0  0  0
   18.9588  -11.0905  -15.3690 C   0  0  2  0  0  0  0  0  0  0  0  0
   18.3204  -11.5252  -16.5966 N   0  0  0  0  0  0  0  0  0  0  0  0
   18.1868   -9.9949  -14.7799 C   0  0  0  0  0  0  0  0  0  0  0  0
   17.5245   -9.1504  -15.4354 O   0  0  0  0  0  0  0  0  0  0  0  0
   15.2922   -8.6781   -9.6594 C   0  0  0  0  0  0  0  0  0  0  0  0
   15.9631   -8.0136  -10.8919 C   0  0  2  0  0  0  0  0  0  0  0  0
   14.8518   -7.4062  -11.6860 C   0  0  0  0  0  0  0  0  0  0  0  0
   16.7193   -9.0879  -11.5616 C   0  0  0  0  0  0  0  0  0  0  0  0
   17.4819   -8.6433  -12.7613 C   0  0  2  0  0  0  0  0  0  0  0  0
   18.1522   -9.8320  -13.3686 N   0  0  0  0  0  0  0  0  0  0  0  0
   18.5507   -7.6656  -12.5392 C   0  0  0  0  0  0  0  0  0  0  0  0
   19.4631   -7.9293  -11.7150 O   0  0  0  0  0  0  0  0  0  0  0  0
   18.6685   -6.4088  -13.1844 N   0  0  0  0  0  0  0  0  0  0  0  0
   19.8094   -5.5283  -12.9632 C   0  0  1  0  0  0  0  0  0  0  0  0
   21.0388   -6.2221  -13.5109 C   0  0  0  0  0  0  0  0  0  0  0  0
   22.4566   -5.0941  -13.5088 S   0  0  0  0  0  0  0  0  0  0  0  0
   19.6166   -4.2784  -13.7364 C   0  0  0  0  0  0  0  0  0  0  0  0
   18.9827   -4.3033  -14.8216 O   0  0  0  0  0  0  0  0  0  0  0  0
   20.1249   -3.0746  -13.2836 O   0  0  0  0  0  0  0  0  0  0  0  0
  2  1  1  6
  2  4  1  0
  2  3  1  0
  4  6  1  0
  4  5  1  6
  6  7  2  0
  9  8  1  1
  9 11  1  0
 10  9  1  0
 12 11  1  1
 12 14  1  0
 13 12  1  0
 13  6  1  0
 14 16  1  0
 15 14  2  0
 16 17  1  0
 17 18  1  6
 18 19  1  0
 20 17  1  0
 21 20  2  0
 22 20  1  0
M  END
$$$$
