VLC.pdb
     RDKit          3D

 22 21  0  0  1  0  0  0  0  0999 V2000
   11.9944  -23.8426   -7.2558 C   0  0  0  0  0  0  0  0  0  0  0  0
   12.9901  -22.7413   -7.4691 C   0  0  2  0  0  0  0  0  0  0  0  0
   12.2408  -21.4896   -7.8761 C   0  0  0  0  0  0  0  0  0  0  0  0
   14.0692  -23.0897   -8.4543 C   0  0  2  0  0  0  0  0  0  0  0  0
   13.4206  -23.3717   -9.7206 N   0  0  0  0  0  0  0  0  0  0  0  0
   14.8819  -24.2406   -8.0564 C   0  0  0  0  0  0  0  0  0  0  0  0
   14.5269  -25.4421   -8.1665 O   0  0  0  0  0  0  0  0  0  0  0  0
   17.6429  -26.8075   -9.4197 C   0  0  0  0  0  0  0  0  0  0  0  0
   18.1761  -25.3650   -9.2069 C   0  0  2  0  0  0  0  0  0  0  0  0
   19.4569  -25.2838   -9.9735 C   0  0  0  0  0  0  0  0  0  0  0  0
   18.2889  -25.1930   -7.7467 C   0  0  0  0  0  0  0  0  0  0  0  0
   16.9847  -25.1987   -7.0273 C   0  0  2  0  0  0  0  0  0  0  0  0
   16.1735  -24.0368   -7.5000 N   0  0  0  0  0  0  0  0  0  0  0  0
   17.0348  -25.0698   -5.5684 C   0  0  0  0  0  0  0  0  0  0  0  0
   17.3834  -23.9738   -5.0600 O   0  0  0  0  0  0  0  0  0  0  0  0
   16.7153  -26.0897   -4.6370 N   0  0  0  0  0  0  0  0  0  0  0  0
   16.8311  -25.8884   -3.1976 C   0  0  1  0  0  0  0  0  0  0  0  0
   15.4304  -25.8586   -2.6232 C   0  0  0  0  0  0  0  0  0  0  0  0
   15.1716  -24.3446   -1.6624 S   0  0  0  0  0  0  0  0  0  0  0  0
   17.5376  -27.0461   -2.5995 C   0  0  0  0  0  0  0  0  0  0  0  0
   17.6465  -28.1179   -3.2474 O   0  0  0  0  0  0  0  0  0  0  0  0
   18.0843  -26.9700   -1.3316 O   0  0  0  0  0  0  0  0  0  0  0  0
  2  1  1  6
  2  4  1  0
  2  3  1  0
  4  6  1  0
  4  5  1  6
  6  7  2  0
  9  8  1  1
  9 11  1  0
 10  9  1  0
 12 11  1  6
 12 14  1  0
 13 12  1  0
 13  6  1  0
 14 16  1  0
 15 14  2  0
 16 17  1  0
 17 18  1  1
 18 19  1  0
 20 17  1  0
 21 20  2  0
 22 20  1  0
M  END
$$$$
