IDN.pdb
     RDKit          3D

 25 24  0  0  1  0  0  0  0  0999 V2000
   15.7352  -13.9196  -17.9754 C   0  0  0  0  0  0  0  0  0  0  0  0
   17.2380  -13.8001  -18.1180 C   0  0  0  0  0  0  0  0  0  0  0  0
   17.7710  -12.5528  -17.4798 C   0  0  2  0  0  0  0  0  0  0  0  0
   17.2425  -11.2984  -18.1375 C   0  0  0  0  0  0  0  0  0  0  0  0
   19.2761  -12.5189  -17.5864 C   0  0  2  0  0  0  0  0  0  0  0  0
   19.8077  -13.7265  -17.0177 N   0  0  0  0  0  0  0  0  0  0  0  0
   19.8530  -11.3012  -16.9351 C   0  0  0  0  0  0  0  0  0  0  0  0
   19.7198  -11.1275  -15.6953 O   0  0  0  0  0  0  0  0  0  0  0  0
   20.5499  -10.3355  -17.6929 N   0  0  0  0  0  0  0  0  0  0  0  0
   21.0088   -9.0932  -17.0929 C   0  0  1  0  0  0  0  0  0  0  0  0
   22.1314   -8.5387  -17.9150 C   0  0  0  0  0  0  0  0  0  0  0  0
   22.6843   -7.3307  -17.2895 C   0  0  0  0  0  0  0  0  0  0  0  0
   22.7423   -7.1183  -16.0516 O   0  0  0  0  0  0  0  0  0  0  0  0
   19.9181   -8.1207  -16.9560 C   0  0  0  0  0  0  0  0  0  0  0  0
   18.9448   -8.1744  -17.7461 O   0  0  0  0  0  0  0  0  0  0  0  0
   23.2008   -6.3046  -18.1020 O   0  0  0  0  0  0  0  0  0  0  0  0
   15.4229   -5.7393  -15.6494 N   0  0  0  0  0  0  0  0  0  0  0  0
   16.6235   -5.7688  -14.8922 C   0  0  0  0  0  0  0  0  0  0  0  0
   16.7718   -4.9225  -13.9751 O   0  0  0  0  0  0  0  0  0  0  0  0
   17.6848   -6.7753  -15.1731 C   0  0  0  0  0  0  0  0  0  0  0  0
   18.8943   -6.1373  -15.8174 C   0  0  2  0  0  0  0  0  0  0  0  0
   19.9592   -7.1122  -15.9268 N   0  0  0  0  0  0  0  0  0  0  0  0
   19.3532   -5.0657  -14.8968 C   0  0  0  0  0  0  0  0  0  0  0  0
   18.8245   -3.7722  -14.9565 O   0  0  0  0  0  0  0  0  0  0  0  0
   20.2213   -5.2850  -14.0450 O   0  0  0  0  0  0  0  0  0  0  0  0
  2  1  1  0
  2  3  1  0
  3  5  1  0
  3  4  1  6
  5  6  1  1
  5  7  1  0
  7  8  2  0
  9  7  1  0
  9 10  1  0
 10 14  1  0
 10 11  1  6
 12 11  1  0
 13 12  2  0
 14 15  2  0
 16 12  1  0
 17 18  1  0
 18 19  2  0
 18 20  1  0
 21 20  1  1
 21 23  1  0
 22 21  1  0
 22 14  1  0
 23 25  2  0
 23 24  1  0
M  END
$$$$
