IDN.pdb
     RDKit          3D

 25 24  0  0  1  0  0  0  0  0999 V2000
   17.3870  -16.5300  -16.8037 C   0  0  0  0  0  0  0  0  0  0  0  0
   17.3125  -15.1124  -17.3310 C   0  0  0  0  0  0  0  0  0  0  0  0
   17.9968  -14.1335  -16.4253 C   0  0  2  0  0  0  0  0  0  0  0  0
   17.3524  -14.0650  -15.0595 C   0  0  0  0  0  0  0  0  0  0  0  0
   17.9395  -12.7483  -17.0218 C   0  0  2  0  0  0  0  0  0  0  0  0
   18.4327  -12.8042  -18.3701 N   0  0  0  0  0  0  0  0  0  0  0  0
   18.6972  -11.7553  -16.1973 C   0  0  0  0  0  0  0  0  0  0  0  0
   18.3348  -11.5102  -15.0168 O   0  0  0  0  0  0  0  0  0  0  0  0
   19.8207  -11.0828  -16.7246 N   0  0  0  0  0  0  0  0  0  0  0  0
   20.4278   -9.9636  -16.0227 C   0  0  1  0  0  0  0  0  0  0  0  0
   21.9165  -10.1275  -16.0366 C   0  0  0  0  0  0  0  0  0  0  0  0
   22.5663   -9.0228  -15.3198 C   0  0  0  0  0  0  0  0  0  0  0  0
   22.8030   -7.8863  -15.8029 O   0  0  0  0  0  0  0  0  0  0  0  0
   20.0283   -8.6765  -16.6042 C   0  0  0  0  0  0  0  0  0  0  0  0
   19.8370   -8.5948  -17.8416 O   0  0  0  0  0  0  0  0  0  0  0  0
   22.9723   -9.2069  -13.9852 O   0  0  0  0  0  0  0  0  0  0  0  0
   15.9595   -4.7301  -16.4769 N   0  0  0  0  0  0  0  0  0  0  0  0
   17.1602   -5.2442  -17.0333 C   0  0  0  0  0  0  0  0  0  0  0  0
   17.6801   -4.6322  -18.0000 O   0  0  0  0  0  0  0  0  0  0  0  0
   17.7928   -6.4780  -16.4895 C   0  0  0  0  0  0  0  0  0  0  0  0
   19.2837   -6.3020  -16.3121 C   0  0  2  0  0  0  0  0  0  0  0  0
   19.8562   -7.5153  -15.7676 N   0  0  0  0  0  0  0  0  0  0  0  0
   19.4699   -5.2225  -15.3088 C   0  0  0  0  0  0  0  0  0  0  0  0
   20.0064   -5.4827  -14.0436 O   0  0  0  0  0  0  0  0  0  0  0  0
   19.1548   -4.0548  -15.5623 O   0  0  0  0  0  0  0  0  0  0  0  0
  2  1  1  0
  2  3  1  0
  3  5  1  0
  3  4  1  1
  5  6  1  6
  5  7  1  0
  7  8  2  0
  9  7  1  0
  9 10  1  0
 10 14  1  0
 10 11  1  6
 12 11  1  0
 13 12  2  0
 14 15  2  0
 16 12  1  0
 17 18  1  0
 18 19  2  0
 18 20  1  0
 21 20  1  1
 21 23  1  0
 22 21  1  0
 22 14  1  0
 23 25  2  0
 23 24  1  0
M  END
$$$$
