IDN.pdb
     RDKit          3D

 25 24  0  0  1  0  0  0  0  0999 V2000
   14.9943  -12.5592  -17.8305 C   0  0  0  0  0  0  0  0  0  0  0  0
   16.4581  -12.2638  -17.5794 C   0  0  0  0  0  0  0  0  0  0  0  0
   16.6535  -11.0367  -16.7409 C   0  0  2  0  0  0  0  0  0  0  0  0
   16.1353   -9.7883  -17.4179 C   0  0  0  0  0  0  0  0  0  0  0  0
   18.1225  -10.8252  -16.4667 C   0  0  2  0  0  0  0  0  0  0  0  0
   18.6548  -12.0115  -15.8555 N   0  0  0  0  0  0  0  0  0  0  0  0
   18.3622   -9.6134  -15.6216 C   0  0  0  0  0  0  0  0  0  0  0  0
   17.9274   -9.5734  -14.4408 O   0  0  0  0  0  0  0  0  0  0  0  0
   19.0734   -8.5050  -16.1296 N   0  0  0  0  0  0  0  0  0  0  0  0
   19.3146   -7.3256  -15.3143 C   0  0  1  0  0  0  0  0  0  0  0  0
   20.7900   -7.0803  -15.2339 C   0  0  0  0  0  0  0  0  0  0  0  0
   21.4202   -8.0152  -14.2932 C   0  0  0  0  0  0  0  0  0  0  0  0
   20.9107   -8.4091  -13.2133 O   0  0  0  0  0  0  0  0  0  0  0  0
   18.6071   -6.1504  -15.8364 C   0  0  0  0  0  0  0  0  0  0  0  0
   18.6074   -5.9323  -17.0721 O   0  0  0  0  0  0  0  0  0  0  0  0
   22.6948   -8.5359  -14.5835 O   0  0  0  0  0  0  0  0  0  0  0  0
   14.1857   -2.0838  -14.2405 N   0  0  0  0  0  0  0  0  0  0  0  0
   15.2060   -2.6709  -15.0342 C   0  0  0  0  0  0  0  0  0  0  0  0
   15.3826   -2.2331  -16.1989 O   0  0  0  0  0  0  0  0  0  0  0  0
   16.0495   -3.7786  -14.5053 C   0  0  0  0  0  0  0  0  0  0  0  0
   17.1530   -4.1425  -15.4724 C   0  0  2  0  0  0  0  0  0  0  0  0
   17.9176   -5.2527  -14.9438 N   0  0  0  0  0  0  0  0  0  0  0  0
   18.0566   -2.9662  -15.5515 C   0  0  0  0  0  0  0  0  0  0  0  0
   17.9262   -2.0087  -16.5627 O   0  0  0  0  0  0  0  0  0  0  0  0
   18.9567   -2.7964  -14.7219 O   0  0  0  0  0  0  0  0  0  0  0  0
  2  1  1  0
  2  3  1  0
  3  5  1  0
  3  4  1  6
  5  6  1  1
  5  7  1  0
  7  8  2  0
  9  7  1  0
  9 10  1  0
 10 14  1  0
 10 11  1  6
 12 11  1  0
 13 12  2  0
 14 15  2  0
 16 12  1  0
 17 18  1  0
 18 19  2  0
 18 20  1  0
 21 20  1  1
 21 23  1  0
 22 21  1  0
 22 14  1  0
 23 25  2  0
 23 24  1  0
M  END
$$$$
