IDN.pdb
     RDKit          3D

 25 24  0  0  1  0  0  0  0  0999 V2000
   24.6247  -12.7451  -21.2439 C   0  0  0  0  0  0  0  0  0  0  0  0
   24.9886  -12.0971  -19.9245 C   0  0  0  0  0  0  0  0  0  0  0  0
   26.4713  -12.0365  -19.7122 C   0  0  2  0  0  0  0  0  0  0  0  0
   27.0974  -13.4098  -19.6273 C   0  0  0  0  0  0  0  0  0  0  0  0
   26.7807  -11.3184  -18.4213 C   0  0  2  0  0  0  0  0  0  0  0  0
   26.2097  -10.0011  -18.4760 N   0  0  0  0  0  0  0  0  0  0  0  0
   28.2516  -11.2718  -18.1490 C   0  0  0  0  0  0  0  0  0  0  0  0
   28.9123  -12.3409  -18.0750 O   0  0  0  0  0  0  0  0  0  0  0  0
   28.9170  -10.0395  -17.9720 N   0  0  0  0  0  0  0  0  0  0  0  0
   30.3644   -9.9745  -17.8499 C   0  0  1  0  0  0  0  0  0  0  0  0
   30.9854  -10.6767  -19.0181 C   0  0  0  0  0  0  0  0  0  0  0  0
   32.4401  -10.7803  -18.8469 C   0  0  0  0  0  0  0  0  0  0  0  0
   33.2680   -9.8759  -19.1253 O   0  0  0  0  0  0  0  0  0  0  0  0
   30.8392   -8.5895  -17.7472 C   0  0  0  0  0  0  0  0  0  0  0  0
   30.5013   -7.7580  -18.6241 O   0  0  0  0  0  0  0  0  0  0  0  0
   32.9943  -11.9676  -18.3339 O   0  0  0  0  0  0  0  0  0  0  0  0
   34.3189   -4.8663  -14.0982 N   0  0  0  0  0  0  0  0  0  0  0  0
   33.3946   -5.2311  -15.1122 C   0  0  0  0  0  0  0  0  0  0  0  0
   32.9037   -4.3220  -15.8276 O   0  0  0  0  0  0  0  0  0  0  0  0
   33.0122   -6.6543  -15.3278 C   0  0  0  0  0  0  0  0  0  0  0  0
   32.1411   -6.8126  -16.5530 C   0  0  2  0  0  0  0  0  0  0  0  0
   31.6851   -8.1832  -16.6530 N   0  0  0  0  0  0  0  0  0  0  0  0
   33.0042   -6.5348  -17.7296 C   0  0  0  0  0  0  0  0  0  0  0  0
   33.9778   -7.4444  -18.1552 O   0  0  0  0  0  0  0  0  0  0  0  0
   32.8883   -5.4856  -18.3722 O   0  0  0  0  0  0  0  0  0  0  0  0
  2  1  1  0
  2  3  1  0
  3  5  1  0
  3  4  1  1
  5  6  1  6
  5  7  1  0
  7  8  2  0
  9  7  1  0
  9 10  1  0
 10 14  1  0
 10 11  1  6
 12 11  1  0
 13 12  2  0
 14 15  2  0
 16 12  1  0
 17 18  1  0
 18 19  2  0
 18 20  1  0
 21 20  1  1
 21 23  1  0
 22 21  1  0
 22 14  1  0
 23 25  2  0
 23 24  1  0
M  END
$$$$
