IDN.pdb
     RDKit          3D

 25 24  0  0  1  0  0  0  0  0999 V2000
   19.0726  -14.8493  -17.6858 C   0  0  0  0  0  0  0  0  0  0  0  0
   18.2866  -13.5588  -17.5870 C   0  0  0  0  0  0  0  0  0  0  0  0
   18.4558  -12.8920  -16.2551 C   0  0  2  0  0  0  0  0  0  0  0  0
   17.9512  -13.7469  -15.1150 C   0  0  0  0  0  0  0  0  0  0  0  0
   17.6843  -11.5953  -16.2232 C   0  0  2  0  0  0  0  0  0  0  0  0
   17.9422  -10.8732  -17.4382 N   0  0  0  0  0  0  0  0  0  0  0  0
   18.0177  -10.7787  -15.0141 C   0  0  0  0  0  0  0  0  0  0  0  0
   17.8975  -11.2780  -13.8646 O   0  0  0  0  0  0  0  0  0  0  0  0
   18.4685   -9.4471  -15.1409 N   0  0  0  0  0  0  0  0  0  0  0  0
   18.8645   -8.6708  -13.9771 C   0  0  1  0  0  0  0  0  0  0  0  0
   19.8404   -7.6168  -14.4016 C   0  0  0  0  0  0  0  0  0  0  0  0
   20.3611   -6.8926  -13.2352 C   0  0  0  0  0  0  0  0  0  0  0  0
   20.6347   -7.4122  -12.1234 O   0  0  0  0  0  0  0  0  0  0  0  0
   17.7052   -8.0805  -13.2977 C   0  0  0  0  0  0  0  0  0  0  0  0
   16.8077   -7.5304  -13.9808 O   0  0  0  0  0  0  0  0  0  0  0  0
   20.5865   -5.5065  -13.3245 O   0  0  0  0  0  0  0  0  0  0  0  0
   15.4171   -6.7791   -7.7531 N   0  0  0  0  0  0  0  0  0  0  0  0
   15.2564   -7.3671   -9.0353 C   0  0  0  0  0  0  0  0  0  0  0  0
   14.1108   -7.3685   -9.5520 O   0  0  0  0  0  0  0  0  0  0  0  0
   16.4128   -7.9691   -9.7553 C   0  0  0  0  0  0  0  0  0  0  0  0
   16.4635   -7.5146  -11.1962 C   0  0  2  0  0  0  0  0  0  0  0  0
   17.5934   -8.1290  -11.8614 N   0  0  0  0  0  0  0  0  0  0  0  0
   16.6936   -6.0473  -11.1733 C   0  0  0  0  0  0  0  0  0  0  0  0
   15.6560   -5.1392  -11.4073 O   0  0  0  0  0  0  0  0  0  0  0  0
   17.8152   -5.5810  -10.9456 O   0  0  0  0  0  0  0  0  0  0  0  0
  2  1  1  0
  2  3  1  0
  3  5  1  0
  3  4  1  1
  5  6  1  6
  5  7  1  0
  7  8  2  0
  9  7  1  0
  9 10  1  0
 10 14  1  0
 10 11  1  6
 12 11  1  0
 13 12  2  0
 14 15  2  0
 16 12  1  0
 17 18  1  0
 18 19  2  0
 18 20  1  0
 21 20  1  1
 21 23  1  0
 22 21  1  0
 22 14  1  0
 23 25  2  0
 23 24  1  0
M  END
$$$$
