IDN.pdb
     RDKit          3D

 25 24  0  0  1  0  0  0  0  0999 V2000
   25.0532  -12.8590  -20.3592 C   0  0  0  0  0  0  0  0  0  0  0  0
   23.8514  -13.2300  -19.5160 C   0  0  0  0  0  0  0  0  0  0  0  0
   23.0763  -12.0261  -19.0723 C   0  0  2  0  0  0  0  0  0  0  0  0
   23.8720  -11.1403  -18.1408 C   0  0  0  0  0  0  0  0  0  0  0  0
   21.8313  -12.4545  -18.3345 C   0  0  2  0  0  0  0  0  0  0  0  0
   21.1778  -13.4872  -19.0901 N   0  0  0  0  0  0  0  0  0  0  0  0
   20.9159  -11.3003  -18.0701 C   0  0  0  0  0  0  0  0  0  0  0  0
   20.7497  -10.4145  -18.9492 O   0  0  0  0  0  0  0  0  0  0  0  0
   20.2298  -11.1864  -16.8418 N   0  0  0  0  0  0  0  0  0  0  0  0
   19.3301  -10.0745  -16.5808 C   0  0  1  0  0  0  0  0  0  0  0  0
   17.9815  -10.6128  -16.2134 C   0  0  0  0  0  0  0  0  0  0  0  0
   17.0296   -9.5174  -15.9898 C   0  0  0  0  0  0  0  0  0  0  0  0
   16.8882   -8.5170  -16.7382 O   0  0  0  0  0  0  0  0  0  0  0  0
   19.8523   -9.1872  -15.5348 C   0  0  0  0  0  0  0  0  0  0  0  0
   20.4104   -9.6869  -14.5280 O   0  0  0  0  0  0  0  0  0  0  0  0
   16.1898   -9.5491  -14.8611 O   0  0  0  0  0  0  0  0  0  0  0  0
   22.8560   -4.3859  -14.1531 N   0  0  0  0  0  0  0  0  0  0  0  0
   22.1445   -5.5669  -13.8142 C   0  0  0  0  0  0  0  0  0  0  0  0
   21.9584   -5.8235  -12.5982 O   0  0  0  0  0  0  0  0  0  0  0  0
   21.6290   -6.4831  -14.8693 C   0  0  0  0  0  0  0  0  0  0  0  0
   20.1987   -6.8896  -14.5969 C   0  0  2  0  0  0  0  0  0  0  0  0
   19.7283   -7.7563  -15.6571 N   0  0  0  0  0  0  0  0  0  0  0  0
   19.3870   -5.6462  -14.6336 C   0  0  0  0  0  0  0  0  0  0  0  0
   18.4396   -5.4189  -15.6371 O   0  0  0  0  0  0  0  0  0  0  0  0
   19.5244   -4.7692  -13.7739 O   0  0  0  0  0  0  0  0  0  0  0  0
  2  1  1  0
  2  3  1  0
  3  5  1  0
  3  4  1  1
  5  6  1  6
  5  7  1  0
  7  8  2  0
  9  7  1  0
  9 10  1  0
 10 14  1  0
 10 11  1  1
 12 11  1  0
 13 12  2  0
 14 15  2  0
 16 12  1  0
 17 18  1  0
 18 19  2  0
 18 20  1  0
 21 20  1  6
 21 23  1  0
 22 21  1  0
 22 14  1  0
 23 25  2  0
 23 24  1  0
M  END
$$$$
