IDN.pdb
     RDKit          3D

 25 24  0  0  1  0  0  0  0  0999 V2000
   28.1073  -12.9284  -14.8739 C   0  0  0  0  0  0  0  0  0  0  0  0
   27.5007  -12.0191  -15.9219 C   0  0  0  0  0  0  0  0  0  0  0  0
   26.1554  -11.4999  -15.5123 C   0  0  2  0  0  0  0  0  0  0  0  0
   25.1401  -12.6063  -15.3377 C   0  0  0  0  0  0  0  0  0  0  0  0
   25.6213  -10.5585  -16.5642 C   0  0  2  0  0  0  0  0  0  0  0  0
   26.6492   -9.6144  -16.9053 N   0  0  0  0  0  0  0  0  0  0  0  0
   24.3694   -9.8732  -16.1138 C   0  0  0  0  0  0  0  0  0  0  0  0
   23.3026  -10.5298  -15.9882 O   0  0  0  0  0  0  0  0  0  0  0  0
   24.3636   -8.4915  -15.8250 N   0  0  0  0  0  0  0  0  0  0  0  0
   23.1626   -7.8259  -15.3468 C   0  0  1  0  0  0  0  0  0  0  0  0
   23.5552   -6.7082  -14.4303 C   0  0  0  0  0  0  0  0  0  0  0  0
   22.3653   -6.0559  -13.8691 C   0  0  0  0  0  0  0  0  0  0  0  0
   21.4181   -6.6494  -13.2934 O   0  0  0  0  0  0  0  0  0  0  0  0
   22.3334   -7.3390  -16.4556 C   0  0  0  0  0  0  0  0  0  0  0  0
   21.2613   -6.7380  -16.2027 O   0  0  0  0  0  0  0  0  0  0  0  0
   22.2338   -4.6580  -13.9608 O   0  0  0  0  0  0  0  0  0  0  0  0
   24.8448   -6.3323  -21.2247 N   0  0  0  0  0  0  0  0  0  0  0  0
   23.9473   -6.9387  -20.3070 C   0  0  0  0  0  0  0  0  0  0  0  0
   24.2152   -8.0910  -19.8830 O   0  0  0  0  0  0  0  0  0  0  0  0
   22.7169   -6.2321  -19.8542 C   0  0  0  0  0  0  0  0  0  0  0  0
   21.9032   -7.0890  -18.9114 C   0  0  2  0  0  0  0  0  0  0  0  0
   22.7411   -7.5463  -17.8227 N   0  0  0  0  0  0  0  0  0  0  0  0
   21.4717   -8.2823  -19.6837 C   0  0  0  0  0  0  0  0  0  0  0  0
   20.4868   -8.1979  -20.6732 O   0  0  0  0  0  0  0  0  0  0  0  0
   21.9722   -9.3927  -19.4745 O   0  0  0  0  0  0  0  0  0  0  0  0
  2  1  1  0
  2  3  1  0
  3  5  1  0
  3  4  1  6
  5  6  1  1
  5  7  1  0
  7  8  2  0
  9  7  1  0
  9 10  1  0
 10 14  1  0
 10 11  1  1
 12 11  1  0
 13 12  2  0
 14 15  2  0
 16 12  1  0
 17 18  1  0
 18 19  2  0
 18 20  1  0
 21 20  1  6
 21 23  1  0
 22 21  1  0
 22 14  1  0
 23 25  2  0
 23 24  1  0
M  END
$$$$
