IDN.pdb
     RDKit          3D

 25 24  0  0  1  0  0  0  0  0999 V2000
   27.0912  -20.6831  -10.6540 C   0  0  0  0  0  0  0  0  0  0  0  0
   25.9347  -21.6583  -10.7203 C   0  0  0  0  0  0  0  0  0  0  0  0
   25.0355  -21.3933  -11.8901 C   0  0  2  0  0  0  0  0  0  0  0  0
   25.8033  -21.2388  -13.1831 C   0  0  0  0  0  0  0  0  0  0  0  0
   24.2609  -20.1169  -11.6693 C   0  0  2  0  0  0  0  0  0  0  0  0
   23.6450  -20.1677  -10.3723 N   0  0  0  0  0  0  0  0  0  0  0  0
   23.2528  -19.8834  -12.7506 C   0  0  0  0  0  0  0  0  0  0  0  0
   22.0300  -20.0790  -12.5241 O   0  0  0  0  0  0  0  0  0  0  0  0
   23.6525  -19.4440  -14.0311 N   0  0  0  0  0  0  0  0  0  0  0  0
   22.6742  -19.1168  -15.0557 C   0  0  1  0  0  0  0  0  0  0  0  0
   23.2992  -18.1861  -16.0489 C   0  0  0  0  0  0  0  0  0  0  0  0
   22.3285  -17.8022  -17.0816 C   0  0  0  0  0  0  0  0  0  0  0  0
   21.2993  -17.1072  -16.8852 O   0  0  0  0  0  0  0  0  0  0  0  0
   22.1502  -20.3211  -15.7108 C   0  0  0  0  0  0  0  0  0  0  0  0
   21.1162  -20.2355  -16.4167 O   0  0  0  0  0  0  0  0  0  0  0  0
   22.5268  -18.2238  -18.4094 O   0  0  0  0  0  0  0  0  0  0  0  0
   24.2143  -24.2150  -16.6187 N   0  0  0  0  0  0  0  0  0  0  0  0
   23.8582  -24.4879  -15.2717 C   0  0  0  0  0  0  0  0  0  0  0  0
   24.5616  -25.3013  -14.6214 O   0  0  0  0  0  0  0  0  0  0  0  0
   22.6812  -23.8298  -14.6394 C   0  0  0  0  0  0  0  0  0  0  0  0
   22.0471  -22.8206  -15.5692 C   0  0  2  0  0  0  0  0  0  0  0  0
   22.8120  -21.5914  -15.5487 N   0  0  0  0  0  0  0  0  0  0  0  0
   20.6982  -22.5246  -15.0223 C   0  0  0  0  0  0  0  0  0  0  0  0
   19.6554  -22.0829  -15.8431 O   0  0  0  0  0  0  0  0  0  0  0  0
   20.4541  -22.6602  -13.8184 O   0  0  0  0  0  0  0  0  0  0  0  0
  2  1  1  0
  2  3  1  0
  3  5  1  0
  3  4  1  6
  5  6  1  1
  5  7  1  0
  7  8  2  0
  9  7  1  0
  9 10  1  0
 10 14  1  0
 10 11  1  6
 12 11  1  0
 13 12  2  0
 14 15  2  0
 16 12  1  0
 17 18  1  0
 18 19  2  0
 18 20  1  0
 21 20  1  1
 21 23  1  0
 22 21  1  0
 22 14  1  0
 23 25  2  0
 23 24  1  0
M  END
$$$$
