IDN.pdb
     RDKit          3D

 25 24  0  0  1  0  0  0  0  0999 V2000
   28.9638  -20.7586  -12.3505 C   0  0  0  0  0  0  0  0  0  0  0  0
   27.8463  -20.3881  -11.3981 C   0  0  0  0  0  0  0  0  0  0  0  0
   26.5081  -20.8574  -11.8839 C   0  0  2  0  0  0  0  0  0  0  0  0
   26.1977  -20.3664  -13.2797 C   0  0  0  0  0  0  0  0  0  0  0  0
   25.4183  -20.3473  -10.9729 C   0  0  2  0  0  0  0  0  0  0  0  0
   25.6837  -20.7996   -9.6353 N   0  0  0  0  0  0  0  0  0  0  0  0
   24.0601  -20.7691  -11.4392 C   0  0  0  0  0  0  0  0  0  0  0  0
   23.7164  -21.9780  -11.3648 O   0  0  0  0  0  0  0  0  0  0  0  0
   23.1499  -19.8273  -11.9655 N   0  0  0  0  0  0  0  0  0  0  0  0
   21.8650  -20.2407  -12.5059 C   0  0  1  0  0  0  0  0  0  0  0  0
   20.9422  -19.0611  -12.5292 C   0  0  0  0  0  0  0  0  0  0  0  0
   19.5691  -19.4833  -12.8334 C   0  0  0  0  0  0  0  0  0  0  0  0
   19.2172  -20.6586  -13.1087 O   0  0  0  0  0  0  0  0  0  0  0  0
   22.0030  -20.8353  -13.8407 C   0  0  0  0  0  0  0  0  0  0  0  0
   22.5179  -20.1591  -14.7638 O   0  0  0  0  0  0  0  0  0  0  0  0
   18.5341  -18.5300  -12.8274 O   0  0  0  0  0  0  0  0  0  0  0  0
   24.5301  -22.8218  -15.2946 N   0  0  0  0  0  0  0  0  0  0  0  0
   23.8553  -24.0587  -15.1211 C   0  0  0  0  0  0  0  0  0  0  0  0
   24.5394  -25.0811  -14.8643 O   0  0  0  0  0  0  0  0  0  0  0  0
   22.3733  -24.1490  -15.2392 C   0  0  0  0  0  0  0  0  0  0  0  0
   21.7476  -22.7821  -15.3973 C   0  0  2  0  0  0  0  0  0  0  0  0
   21.5536  -22.1813  -14.0943 N   0  0  0  0  0  0  0  0  0  0  0  0
   20.4080  -22.9931  -16.0035 C   0  0  0  0  0  0  0  0  0  0  0  0
   19.2395  -22.5626  -15.3667 O   0  0  0  0  0  0  0  0  0  0  0  0
   20.2838  -23.5587  -17.0952 O   0  0  0  0  0  0  0  0  0  0  0  0
  2  1  1  0
  2  3  1  0
  3  5  1  0
  3  4  1  6
  5  6  1  1
  5  7  1  0
  7  8  2  0
  9  7  1  0
  9 10  1  0
 10 14  1  0
 10 11  1  6
 12 11  1  0
 13 12  2  0
 14 15  2  0
 16 12  1  0
 17 18  1  0
 18 19  2  0
 18 20  1  0
 21 20  1  1
 21 23  1  0
 22 21  1  0
 22 14  1  0
 23 25  2  0
 23 24  1  0
M  END
$$$$
