CMR.pdb
     RDKit          3D

 26 25  0  0  1  0  0  0  0  0999 V2000
   18.6650  -11.6651    4.7562 N   0  0  0  0  0  0  0  0  0  0  0  0
   17.9436  -12.4871    5.6863 C   0  0  1  0  0  0  0  0  0  0  0  0
   16.4667  -12.4005    5.3816 C   0  0  0  0  0  0  0  0  0  0  0  0
   15.8453  -10.9207    6.2632 S   0  0  0  0  0  0  0  0  0  0  0  0
   18.4636  -13.8668    5.6548 C   0  0  0  0  0  0  0  0  0  0  0  0
   18.5858  -14.4595    4.5523 O   0  0  0  0  0  0  0  0  0  0  0  0
   22.7371  -19.6641    8.7224 C   0  0  0  0  0  0  0  0  0  0  0  0
   22.2232  -17.9391    8.8897 S   0  0  0  0  0  0  0  0  0  0  0  0
   20.8067  -17.6761    7.7900 C   0  0  0  0  0  0  0  0  0  0  0  0
   20.3577  -16.2189    7.8359 C   0  0  0  0  0  0  0  0  0  0  0  0
   19.2833  -15.9546    6.8038 C   0  0  2  0  0  0  0  0  0  0  0  0
   18.8434  -14.5826    6.8263 N   0  0  0  0  0  0  0  0  0  0  0  0
   18.1536  -16.9119    6.9312 C   0  0  0  0  0  0  0  0  0  0  0  0
   17.2984  -16.7030    7.8249 O   0  0  0  0  0  0  0  0  0  0  0  0
   14.4295  -21.8668    0.7399 N   0  0  0  0  0  0  0  0  0  0  0  0
   15.4119  -22.4835    1.5299 C   0  0  0  0  0  0  0  0  0  0  0  0
   15.9875  -23.5532    1.1083 N   0  0  0  0  0  0  0  0  0  0  0  0
   15.7560  -21.9210    2.7857 N   0  0  0  0  0  0  0  0  0  0  0  0
   15.0780  -20.7156    3.2044 C   0  0  0  0  0  0  0  0  0  0  0  0
   15.3938  -20.3557    4.6259 C   0  0  0  0  0  0  0  0  0  0  0  0
   16.6035  -19.5038    4.7441 C   0  0  0  0  0  0  0  0  0  0  0  0
   16.9446  -18.9860    6.0835 C   0  0  2  0  0  0  0  0  0  0  0  0
   18.0347  -18.0338    6.0722 N   0  0  0  0  0  0  0  0  0  0  0  0
   17.1133  -20.0249    7.1438 C   0  0  0  0  0  0  0  0  0  0  0  0
   16.0621  -20.5071    7.9077 O   0  0  0  0  0  0  0  0  0  0  0  0
   18.2368  -20.5385    7.4178 O   0  0  0  0  0  0  0  0  0  0  0  0
  2  1  1  6
  2  3  1  0
  4  3  1  0
  5  2  1  0
  5  6  2  0
  7  8  1  0
  8  9  1  0
  9 10  1  0
 11 10  1  1
 11 12  1  0
 12  5  1  0
 13 11  1  0
 14 13  2  0
 16 15  1  0
 16 18  1  0
 17 16  2  0
 19 18  1  0
 19 20  1  0
 20 21  1  0
 22 23  1  0
 22 21  1  6
 23 13  1  0
 24 22  1  0
 25 24  1  0
 26 24  2  0
M  END
$$$$
