CMR.pdb
     RDKit          3D

 26 25  0  0  1  0  0  0  0  0999 V2000
   28.6219  -18.5919   -5.5574 N   0  0  0  0  0  0  0  0  0  0  0  0
   28.0788  -19.8630   -5.9453 C   0  0  1  0  0  0  0  0  0  0  0  0
   26.7877  -20.0989   -5.1975 C   0  0  0  0  0  0  0  0  0  0  0  0
   27.2311  -20.1965   -3.4235 S   0  0  0  0  0  0  0  0  0  0  0  0
   27.9210  -19.9225   -7.4104 C   0  0  0  0  0  0  0  0  0  0  0  0
   27.5752  -18.8904   -8.0403 O   0  0  0  0  0  0  0  0  0  0  0  0
   31.5897  -23.0498  -11.7587 C   0  0  0  0  0  0  0  0  0  0  0  0
   32.0466  -22.2733  -10.1916 S   0  0  0  0  0  0  0  0  0  0  0  0
   30.6299  -21.2937   -9.6274 C   0  0  0  0  0  0  0  0  0  0  0  0
   29.3278  -21.8768  -10.1677 C   0  0  0  0  0  0  0  0  0  0  0  0
   28.1337  -21.1330   -9.6105 C   0  0  2  0  0  0  0  0  0  0  0  0
   28.1420  -21.1072   -8.1699 N   0  0  0  0  0  0  0  0  0  0  0  0
   26.8561  -21.6588  -10.1584 C   0  0  0  0  0  0  0  0  0  0  0  0
   26.0305  -22.1605   -9.3581 O   0  0  0  0  0  0  0  0  0  0  0  0
   20.4613  -21.8503  -10.5208 N   0  0  0  0  0  0  0  0  0  0  0  0
   20.0048  -20.5592  -10.8283 C   0  0  0  0  0  0  0  0  0  0  0  0
   18.7427  -20.3419  -10.9434 N   0  0  0  0  0  0  0  0  0  0  0  0
   20.9415  -19.5101  -11.0115 N   0  0  0  0  0  0  0  0  0  0  0  0
   22.3157  -19.7455  -10.6318 C   0  0  0  0  0  0  0  0  0  0  0  0
   23.2264  -19.8101  -11.8217 C   0  0  0  0  0  0  0  0  0  0  0  0
   24.6315  -20.1110  -11.4499 C   0  0  0  0  0  0  0  0  0  0  0  0
   25.2847  -21.2524  -12.1200 C   0  0  2  0  0  0  0  0  0  0  0  0
   26.5667  -21.6006  -11.5454 N   0  0  0  0  0  0  0  0  0  0  0  0
   25.3378  -21.1702  -13.6108 C   0  0  0  0  0  0  0  0  0  0  0  0
   24.5093  -21.9084  -14.4414 O   0  0  0  0  0  0  0  0  0  0  0  0
   26.1495  -20.4147  -14.2201 O   0  0  0  0  0  0  0  0  0  0  0  0
  2  1  1  6
  2  3  1  0
  4  3  1  0
  5  2  1  0
  5  6  2  0
  7  8  1  0
  8  9  1  0
  9 10  1  0
 11 10  1  1
 11 12  1  0
 12  5  1  0
 13 11  1  0
 14 13  2  0
 16 15  1  0
 16 18  1  0
 17 16  2  0
 19 18  1  0
 19 20  1  0
 20 21  1  0
 22 23  1  0
 22 21  1  1
 23 13  1  0
 24 22  1  0
 25 24  1  0
 26 24  2  0
M  END
$$$$
