CMR.pdb
     RDKit          3D

 26 25  0  0  1  0  0  0  0  0999 V2000
   20.4792  -10.7153    6.6160 N   0  0  0  0  0  0  0  0  0  0  0  0
   19.7727  -11.5649    7.5325 C   0  0  1  0  0  0  0  0  0  0  0  0
   18.2945  -11.5008    7.2282 C   0  0  0  0  0  0  0  0  0  0  0  0
   17.4669  -12.5615    8.4703 S   0  0  0  0  0  0  0  0  0  0  0  0
   20.3180  -12.9341    7.4798 C   0  0  0  0  0  0  0  0  0  0  0  0
   20.4758  -13.4974    6.3664 O   0  0  0  0  0  0  0  0  0  0  0  0
   25.1395  -16.8411   10.5024 C   0  0  0  0  0  0  0  0  0  0  0  0
   23.4832  -17.3095   11.0547 S   0  0  0  0  0  0  0  0  0  0  0  0
   22.3234  -16.9117    9.7201 C   0  0  0  0  0  0  0  0  0  0  0  0
   21.8700  -15.4586    9.8214 C   0  0  0  0  0  0  0  0  0  0  0  0
   21.0578  -15.0630    8.6075 C   0  0  2  0  0  0  0  0  0  0  0  0
   20.6840  -13.6718    8.6421 N   0  0  0  0  0  0  0  0  0  0  0  0
   19.8867  -15.9578    8.4163 C   0  0  0  0  0  0  0  0  0  0  0  0
   18.8248  -15.6813    9.0243 O   0  0  0  0  0  0  0  0  0  0  0  0
   14.2324  -17.0586    2.7303 N   0  0  0  0  0  0  0  0  0  0  0  0
   13.9810  -18.2636    3.4046 C   0  0  0  0  0  0  0  0  0  0  0  0
   12.9504  -18.9650    3.0898 N   0  0  0  0  0  0  0  0  0  0  0  0
   14.8655  -18.6918    4.4274 N   0  0  0  0  0  0  0  0  0  0  0  0
   16.0324  -17.8860    4.7046 C   0  0  0  0  0  0  0  0  0  0  0  0
   16.8153  -18.4100    5.8717 C   0  0  0  0  0  0  0  0  0  0  0  0
   18.0090  -17.5823    6.1767 C   0  0  0  0  0  0  0  0  0  0  0  0
   18.8629  -18.0061    7.3034 C   0  0  2  0  0  0  0  0  0  0  0  0
   19.9552  -17.0953    7.5725 N   0  0  0  0  0  0  0  0  0  0  0  0
   19.3127  -19.4302    7.2610 C   0  0  0  0  0  0  0  0  0  0  0  0
   18.4409  -20.5042    7.3494 O   0  0  0  0  0  0  0  0  0  0  0  0
   20.5299  -19.7539    7.1406 O   0  0  0  0  0  0  0  0  0  0  0  0
  2  1  1  6
  2  3  1  0
  4  3  1  0
  5  2  1  0
  5  6  2  0
  7  8  1  0
  8  9  1  0
  9 10  1  0
 11 10  1  1
 11 12  1  0
 12  5  1  0
 13 11  1  0
 14 13  2  0
 16 15  1  0
 16 18  1  0
 17 16  2  0
 19 18  1  0
 19 20  1  0
 20 21  1  0
 22 23  1  0
 22 21  1  6
 23 13  1  0
 24 22  1  0
 25 24  1  0
 26 24  2  0
M  END
$$$$
