CMR.pdb
     RDKit          3D

 26 25  0  0  1  0  0  0  0  0999 V2000
   19.4701  -13.4686  -16.6107 N   0  0  0  0  0  0  0  0  0  0  0  0
   19.3824  -12.1341  -17.1326 C   0  0  1  0  0  0  0  0  0  0  0  0
   18.0591  -11.9655  -17.8413 C   0  0  0  0  0  0  0  0  0  0  0  0
   18.1645  -12.9643  -19.3724 S   0  0  0  0  0  0  0  0  0  0  0  0
   19.5930  -11.1514  -16.0534 C   0  0  0  0  0  0  0  0  0  0  0  0
   19.0408  -11.3269  -14.9371 O   0  0  0  0  0  0  0  0  0  0  0  0
   25.8366  -10.4307  -14.2494 C   0  0  0  0  0  0  0  0  0  0  0  0
   24.7648   -9.0669  -14.7580 S   0  0  0  0  0  0  0  0  0  0  0  0
   23.0630   -9.6890  -14.8010 C   0  0  0  0  0  0  0  0  0  0  0  0
   22.0921   -8.5659  -15.1521 C   0  0  0  0  0  0  0  0  0  0  0  0
   20.6635   -9.0643  -15.1319 C   0  0  2  0  0  0  0  0  0  0  0  0
   20.4028   -9.9894  -16.2055 N   0  0  0  0  0  0  0  0  0  0  0  0
   19.6913   -7.9405  -15.1064 C   0  0  0  0  0  0  0  0  0  0  0  0
   19.4440   -7.3469  -16.1835 O   0  0  0  0  0  0  0  0  0  0  0  0
   13.6143   -6.2635   -9.0929 N   0  0  0  0  0  0  0  0  0  0  0  0
   15.0123   -6.3442   -8.9986 C   0  0  0  0  0  0  0  0  0  0  0  0
   15.5581   -6.6206   -7.8677 N   0  0  0  0  0  0  0  0  0  0  0  0
   15.8064   -6.1169  -10.1516 N   0  0  0  0  0  0  0  0  0  0  0  0
   15.1357   -5.9031  -11.4134 C   0  0  0  0  0  0  0  0  0  0  0  0
   16.0994   -5.5835  -12.5174 C   0  0  0  0  0  0  0  0  0  0  0  0
   17.1056   -6.6548  -12.7251 C   0  0  0  0  0  0  0  0  0  0  0  0
   18.1204   -6.4426  -13.7755 C   0  0  2  0  0  0  0  0  0  0  0  0
   19.0542   -7.5411  -13.9042 N   0  0  0  0  0  0  0  0  0  0  0  0
   18.8095   -5.1175  -13.7369 C   0  0  0  0  0  0  0  0  0  0  0  0
   20.1290   -4.9597  -13.3433 O   0  0  0  0  0  0  0  0  0  0  0  0
   18.2295   -4.0415  -14.0638 O   0  0  0  0  0  0  0  0  0  0  0  0
  2  1  1  1
  2  3  1  0
  4  3  1  0
  5  2  1  0
  5  6  2  0
  7  8  1  0
  8  9  1  0
  9 10  1  0
 11 10  1  6
 11 12  1  0
 12  5  1  0
 13 11  1  0
 14 13  2  0
 16 15  1  0
 16 18  1  0
 17 16  2  0
 19 18  1  0
 19 20  1  0
 20 21  1  0
 22 23  1  0
 22 21  1  1
 23 13  1  0
 24 22  1  0
 25 24  1  0
 26 24  2  0
M  END
$$$$
