CMR.pdb
     RDKit          3D

 26 25  0  0  1  0  0  0  0  0999 V2000
   28.6451  -20.8761  -15.7989 N   0  0  0  0  0  0  0  0  0  0  0  0
   27.9448  -19.9521  -14.9520 C   0  0  1  0  0  0  0  0  0  0  0  0
   27.4722  -18.7812  -15.7809 C   0  0  0  0  0  0  0  0  0  0  0  0
   28.9729  -17.8404  -16.2454 S   0  0  0  0  0  0  0  0  0  0  0  0
   26.8508  -20.6415  -14.2429 C   0  0  0  0  0  0  0  0  0  0  0  0
   26.2780  -21.6204  -14.7864 O   0  0  0  0  0  0  0  0  0  0  0  0
   24.8618  -20.9512   -7.7395 C   0  0  0  0  0  0  0  0  0  0  0  0
   26.5387  -20.6370   -8.3366 S   0  0  0  0  0  0  0  0  0  0  0  0
   26.5801  -21.0403  -10.1031 C   0  0  0  0  0  0  0  0  0  0  0  0
   25.2970  -20.5785  -10.7870 C   0  0  0  0  0  0  0  0  0  0  0  0
   25.3199  -20.9211  -12.2607 C   0  0  2  0  0  0  0  0  0  0  0  0
   26.3952  -20.2541  -12.9500 N   0  0  0  0  0  0  0  0  0  0  0  0
   24.0011  -20.6763  -12.9008 C   0  0  0  0  0  0  0  0  0  0  0  0
   23.6878  -19.4937  -13.1779 O   0  0  0  0  0  0  0  0  0  0  0  0
   17.1320  -25.4287  -13.6514 N   0  0  0  0  0  0  0  0  0  0  0  0
   16.8557  -24.7199  -14.8308 C   0  0  0  0  0  0  0  0  0  0  0  0
   15.6398  -24.6041  -15.2327 N   0  0  0  0  0  0  0  0  0  0  0  0
   17.9216  -24.1424  -15.5671 N   0  0  0  0  0  0  0  0  0  0  0  0
   19.2511  -24.1974  -15.0038 C   0  0  0  0  0  0  0  0  0  0  0  0
   19.7848  -22.8327  -14.6837 C   0  0  0  0  0  0  0  0  0  0  0  0
   21.1791  -22.8693  -14.1759 C   0  0  0  0  0  0  0  0  0  0  0  0
   21.7767  -21.5950  -13.7319 C   0  0  2  0  0  0  0  0  0  0  0  0
   23.1130  -21.7418  -13.1953 N   0  0  0  0  0  0  0  0  0  0  0  0
   20.9059  -20.7541  -12.8563 C   0  0  0  0  0  0  0  0  0  0  0  0
   20.9568  -20.7951  -11.4717 O   0  0  0  0  0  0  0  0  0  0  0  0
   20.0565  -19.9413  -13.3240 O   0  0  0  0  0  0  0  0  0  0  0  0
  2  1  1  6
  2  3  1  0
  4  3  1  0
  5  2  1  0
  5  6  2  0
  7  8  1  0
  8  9  1  0
  9 10  1  0
 11 10  1  1
 11 12  1  0
 12  5  1  0
 13 11  1  0
 14 13  2  0
 16 15  1  0
 16 18  1  0
 17 16  2  0
 19 18  1  0
 19 20  1  0
 20 21  1  0
 22 23  1  0
 22 21  1  1
 23 13  1  0
 24 22  1  0
 25 24  1  0
 26 24  2  0
M  END
$$$$
