CMR.pdb
     RDKit          3D

 26 25  0  0  1  0  0  0  0  0999 V2000
   13.6664  -13.9360  -11.3333 N   0  0  0  0  0  0  0  0  0  0  0  0
   14.8273  -13.1014  -11.2025 C   0  0  1  0  0  0  0  0  0  0  0  0
   15.7337  -13.3242  -12.3901 C   0  0  0  0  0  0  0  0  0  0  0  0
   16.3749  -15.0324  -12.2348 S   0  0  0  0  0  0  0  0  0  0  0  0
   14.4243  -11.6927  -11.0351 C   0  0  0  0  0  0  0  0  0  0  0  0
   13.2711  -11.3310  -11.3831 O   0  0  0  0  0  0  0  0  0  0  0  0
   10.5816   -9.2361   -8.6492 C   0  0  0  0  0  0  0  0  0  0  0  0
   11.6743   -8.0009   -7.9090 S   0  0  0  0  0  0  0  0  0  0  0  0
   13.2075   -7.9706   -8.8751 C   0  0  0  0  0  0  0  0  0  0  0  0
   13.6418   -9.3886   -9.2329 C   0  0  0  0  0  0  0  0  0  0  0  0
   14.8391   -9.3669  -10.1580 C   0  0  2  0  0  0  0  0  0  0  0  0
   15.2844  -10.6962  -10.4906 N   0  0  0  0  0  0  0  0  0  0  0  0
   15.9357   -8.5233   -9.6151 C   0  0  0  0  0  0  0  0  0  0  0  0
   16.5742   -8.9488   -8.6228 O   0  0  0  0  0  0  0  0  0  0  0  0
   22.4573   -8.8797  -12.9255 N   0  0  0  0  0  0  0  0  0  0  0  0
   21.5702   -8.0411  -13.6180 C   0  0  0  0  0  0  0  0  0  0  0  0
   21.6480   -7.9526  -14.8984 N   0  0  0  0  0  0  0  0  0  0  0  0
   20.6003   -7.2989  -12.8968 N   0  0  0  0  0  0  0  0  0  0  0  0
   20.9411   -6.8332  -11.5721 C   0  0  0  0  0  0  0  0  0  0  0  0
   19.8066   -6.0965  -10.9241 C   0  0  0  0  0  0  0  0  0  0  0  0
   18.5214   -6.8336  -11.0142 C   0  0  0  0  0  0  0  0  0  0  0  0
   17.4984   -6.5484   -9.9893 C   0  0  2  0  0  0  0  0  0  0  0  0
   16.2609   -7.2705  -10.1944 N   0  0  0  0  0  0  0  0  0  0  0  0
   17.2666   -5.0997   -9.7068 C   0  0  0  0  0  0  0  0  0  0  0  0
   18.0570   -4.3595   -8.8416 O   0  0  0  0  0  0  0  0  0  0  0  0
   16.3253   -4.4461  -10.2430 O   0  0  0  0  0  0  0  0  0  0  0  0
  2  1  1  6
  2  3  1  0
  4  3  1  0
  5  2  1  0
  5  6  2  0
  7  8  1  0
  8  9  1  0
  9 10  1  0
 11 10  1  1
 11 12  1  0
 12  5  1  0
 13 11  1  0
 14 13  2  0
 16 15  1  0
 16 18  1  0
 17 16  2  0
 19 18  1  0
 19 20  1  0
 20 21  1  0
 22 23  1  0
 22 21  1  6
 23 13  1  0
 24 22  1  0
 25 24  1  0
 26 24  2  0
M  END
$$$$
