AIC.pdb
     RDKit          3D

 20 19  0  0  1  0  0  0  0  0999 V2000
   20.4632  -32.0407  -15.6972 C   0  0  0  0  0  0  0  0  0  0  0  0
   20.9900  -30.6988  -15.2470 C   0  0  2  0  0  0  0  0  0  0  0  0
   22.3352  -30.5676  -15.7698 N   0  0  0  0  0  0  0  0  0  0  0  0
   21.0737  -30.6099  -13.7662 C   0  0  0  0  0  0  0  0  0  0  0  0
   22.0277  -31.1317  -13.1210 O   0  0  0  0  0  0  0  0  0  0  0  0
   19.9353  -25.9514  -11.4739 C   0  0  0  0  0  0  0  0  0  0  0  0
   20.5381  -27.2975  -11.8863 C   0  0  0  0  0  0  0  0  0  0  0  0
   19.7199  -28.3686  -11.2420 C   0  0  2  0  0  0  0  0  0  0  0  0
   19.6225  -28.1198   -9.7517 C   0  0  0  0  0  0  0  0  0  0  0  0
   20.1745  -29.7651  -11.5556 C   0  0  2  0  0  0  0  0  0  0  0  0
   20.0924  -29.9369  -12.9876 N   0  0  0  0  0  0  0  0  0  0  0  0
   19.3799  -30.8032  -10.8357 C   0  0  0  0  0  0  0  0  0  0  0  0
   18.1710  -30.9820  -11.0830 O   0  0  0  0  0  0  0  0  0  0  0  0
   19.9941  -31.6108   -9.8489 N   0  0  0  0  0  0  0  0  0  0  0  0
   19.3619  -32.6768   -9.1452 C   0  0  1  0  0  0  0  0  0  0  0  0
   20.3121  -33.7474   -8.6787 C   0  0  0  0  0  0  0  0  0  0  0  0
   21.2869  -34.2673  -10.1272 S   0  0  0  0  0  0  0  0  0  0  0  0
   18.5735  -32.1855   -8.0052 C   0  0  0  0  0  0  0  0  0  0  0  0
   18.7431  -30.9957   -7.5951 O   0  0  0  0  0  0  0  0  0  0  0  0
   17.6612  -33.0427   -7.4077 O   0  0  0  0  0  0  0  0  0  0  0  0
  2  1  1  1
  3  2  1  0
  4 11  1  0
  4  2  1  0
  5  4  2  0
  7  8  1  0
  7  6  1  0
  8 10  1  0
  8  9  1  1
 10 12  1  0
 10 11  1  6
 12 14  1  0
 13 12  2  0
 14 15  1  0
 15 18  1  0
 15 16  1  1
 16 17  1  0
 18 19  2  0
 18 20  1  0
M  END
$$$$
