AIC.pdb
     RDKit          3D

 20 19  0  0  1  0  0  0  0  0999 V2000
   26.5515  -12.1259  -15.3208 C   0  0  0  0  0  0  0  0  0  0  0  0
   25.3950  -12.9420  -15.8476 C   0  0  2  0  0  0  0  0  0  0  0  0
   25.8902  -13.7154  -16.9687 N   0  0  0  0  0  0  0  0  0  0  0  0
   24.2959  -12.0774  -16.3496 C   0  0  0  0  0  0  0  0  0  0  0  0
   24.3176  -11.5813  -17.5124 O   0  0  0  0  0  0  0  0  0  0  0  0
   19.5641  -13.5433  -17.0914 C   0  0  0  0  0  0  0  0  0  0  0  0
   20.8880  -12.7757  -17.1519 C   0  0  0  0  0  0  0  0  0  0  0  0
   20.8431  -11.7251  -16.0908 C   0  0  2  0  0  0  0  0  0  0  0  0
   19.5980  -10.8789  -16.2523 C   0  0  0  0  0  0  0  0  0  0  0  0
   22.0880  -10.8905  -15.9958 C   0  0  2  0  0  0  0  0  0  0  0  0
   23.1586  -11.7563  -15.5587 N   0  0  0  0  0  0  0  0  0  0  0  0
   21.9268   -9.7201  -15.0838 C   0  0  0  0  0  0  0  0  0  0  0  0
   21.6093   -9.8690  -13.8873 O   0  0  0  0  0  0  0  0  0  0  0  0
   22.1345   -8.4069  -15.5693 N   0  0  0  0  0  0  0  0  0  0  0  0
   22.0385   -7.2159  -14.7924 C   0  0  1  0  0  0  0  0  0  0  0  0
   23.0577   -6.1685  -15.1540 C   0  0  0  0  0  0  0  0  0  0  0  0
   22.8362   -4.7817  -13.9935 S   0  0  0  0  0  0  0  0  0  0  0  0
   20.6895   -6.6335  -14.8519 C   0  0  0  0  0  0  0  0  0  0  0  0
   20.0827   -6.5759  -15.9660 O   0  0  0  0  0  0  0  0  0  0  0  0
   20.1159   -6.1610  -13.6806 O   0  0  0  0  0  0  0  0  0  0  0  0
  2  1  1  6
  3  2  1  0
  4 11  1  0
  4  2  1  0
  5  4  2  0
  7  8  1  0
  7  6  1  0
  8 10  1  0
  8  9  1  6
 10 12  1  0
 10 11  1  1
 12 14  1  0
 13 12  2  0
 14 15  1  0
 15 18  1  0
 15 16  1  6
 16 17  1  0
 18 19  2  0
 18 20  1  0
M  END
$$$$
