AIC.pdb
     RDKit          3D

 20 19  0  0  1  0  0  0  0  0999 V2000
   27.9569  -18.9624  -14.8172 C   0  0  0  0  0  0  0  0  0  0  0  0
   28.4347  -20.0924  -13.9365 C   0  0  2  0  0  0  0  0  0  0  0  0
   29.0846  -21.0617  -14.7956 N   0  0  0  0  0  0  0  0  0  0  0  0
   27.3033  -20.7789  -13.2611 C   0  0  0  0  0  0  0  0  0  0  0  0
   26.7522  -21.8017  -13.7599 O   0  0  0  0  0  0  0  0  0  0  0  0
   26.7175  -19.9721   -7.8663 C   0  0  0  0  0  0  0  0  0  0  0  0
   26.7804  -20.7637   -9.1759 C   0  0  0  0  0  0  0  0  0  0  0  0
   25.5691  -20.4042   -9.9728 C   0  0  2  0  0  0  0  0  0  0  0  0
   24.3187  -20.8460   -9.2422 C   0  0  0  0  0  0  0  0  0  0  0  0
   25.5982  -20.8909  -11.3932 C   0  0  2  0  0  0  0  0  0  0  0  0
   26.7733  -20.3313  -12.0197 N   0  0  0  0  0  0  0  0  0  0  0  0
   24.3589  -20.5390  -12.1466 C   0  0  0  0  0  0  0  0  0  0  0  0
   24.0642  -19.3526  -12.3927 O   0  0  0  0  0  0  0  0  0  0  0  0
   23.4883  -21.5590  -12.5991 N   0  0  0  0  0  0  0  0  0  0  0  0
   22.2981  -21.3519  -13.3552 C   0  0  1  0  0  0  0  0  0  0  0  0
   21.9997  -22.4540  -14.3364 C   0  0  0  0  0  0  0  0  0  0  0  0
   23.4778  -22.6557  -15.3821 S   0  0  0  0  0  0  0  0  0  0  0  0
   21.1314  -21.1346  -12.4868 C   0  0  0  0  0  0  0  0  0  0  0  0
   21.2405  -21.3226  -11.2356 O   0  0  0  0  0  0  0  0  0  0  0  0
   19.9377  -20.7278  -13.0645 O   0  0  0  0  0  0  0  0  0  0  0  0
  2  1  1  6
  3  2  1  0
  4 11  1  0
  4  2  1  0
  5  4  2  0
  7  8  1  0
  7  6  1  0
  8 10  1  0
  8  9  1  1
 10 12  1  0
 10 11  1  6
 12 14  1  0
 13 12  2  0
 14 15  1  0
 15 18  1  0
 15 16  1  1
 16 17  1  0
 18 19  2  0
 18 20  1  0
M  END
$$$$
