AIC.pdb
     RDKit          3D

 20 19  0  0  1  0  0  0  0  0999 V2000
   24.0608  -10.1288  -18.7743 C   0  0  0  0  0  0  0  0  0  0  0  0
   22.8492  -10.9992  -18.5385 C   0  0  2  0  0  0  0  0  0  0  0  0
   22.4384  -11.5220  -19.8262 N   0  0  0  0  0  0  0  0  0  0  0  0
   21.7111  -10.2192  -17.9872 C   0  0  0  0  0  0  0  0  0  0  0  0
   21.1105   -9.3431  -18.6731 O   0  0  0  0  0  0  0  0  0  0  0  0
   17.7108  -12.4461  -15.4863 C   0  0  0  0  0  0  0  0  0  0  0  0
   18.5207  -11.4600  -16.3331 C   0  0  0  0  0  0  0  0  0  0  0  0
   19.2262  -10.5388  -15.3921 C   0  0  2  0  0  0  0  0  0  0  0  0
   18.2183   -9.8044  -14.5335 C   0  0  0  0  0  0  0  0  0  0  0  0
   20.1955   -9.6030  -16.0554 C   0  0  2  0  0  0  0  0  0  0  0  0
   21.2297  -10.4083  -16.6626 N   0  0  0  0  0  0  0  0  0  0  0  0
   20.7693   -8.6034  -15.1073 C   0  0  0  0  0  0  0  0  0  0  0  0
   21.6742   -8.9130  -14.3073 O   0  0  0  0  0  0  0  0  0  0  0  0
   20.2890   -7.2720  -15.1015 N   0  0  0  0  0  0  0  0  0  0  0  0
   20.8352   -6.2018  -14.3350 C   0  0  1  0  0  0  0  0  0  0  0  0
   22.2328   -5.8142  -14.7385 C   0  0  0  0  0  0  0  0  0  0  0  0
   22.7494   -4.4536  -13.6428 S   0  0  0  0  0  0  0  0  0  0  0  0
   19.9671   -5.0150  -14.3599 C   0  0  0  0  0  0  0  0  0  0  0  0
   19.1595   -4.8521  -15.3263 O   0  0  0  0  0  0  0  0  0  0  0  0
   20.0570   -4.1022  -13.3193 O   0  0  0  0  0  0  0  0  0  0  0  0
  2  1  1  6
  3  2  1  0
  4 11  1  0
  4  2  1  0
  5  4  2  0
  7  8  1  0
  7  6  1  0
  8 10  1  0
  8  9  1  6
 10 12  1  0
 10 11  1  1
 12 14  1  0
 13 12  2  0
 14 15  1  0
 15 18  1  0
 15 16  1  6
 16 17  1  0
 18 19  2  0
 18 20  1  0
M  END
$$$$
