AIC.pdb
     RDKit          3D

 20 19  0  0  1  0  0  0  0  0999 V2000
   27.3897  -18.8796  -15.9971 C   0  0  0  0  0  0  0  0  0  0  0  0
   27.8414  -20.0592  -15.1691 C   0  0  2  0  0  0  0  0  0  0  0  0
   28.2741  -21.0906  -16.0904 N   0  0  0  0  0  0  0  0  0  0  0  0
   26.7294  -20.6195  -14.3584 C   0  0  0  0  0  0  0  0  0  0  0  0
   25.9797  -21.5365  -14.8009 O   0  0  0  0  0  0  0  0  0  0  0  0
   27.4325  -20.6481   -9.0275 C   0  0  0  0  0  0  0  0  0  0  0  0
   27.0742  -21.1101  -10.4431 C   0  0  0  0  0  0  0  0  0  0  0  0
   25.7575  -20.4970  -10.7923 C   0  0  2  0  0  0  0  0  0  0  0  0
   24.6883  -20.9895   -9.8402 C   0  0  0  0  0  0  0  0  0  0  0  0
   25.3592  -20.6680  -12.2302 C   0  0  2  0  0  0  0  0  0  0  0  0
   26.4410  -20.1623  -13.0431 N   0  0  0  0  0  0  0  0  0  0  0  0
   24.0705  -19.9886  -12.5541 C   0  0  0  0  0  0  0  0  0  0  0  0
   24.0264  -18.7690  -12.8097 O   0  0  0  0  0  0  0  0  0  0  0  0
   22.8635  -20.7275  -12.5763 N   0  0  0  0  0  0  0  0  0  0  0  0
   21.7297  -20.4305  -13.3873 C   0  0  1  0  0  0  0  0  0  0  0  0
   22.0261  -20.4035  -14.8631 C   0  0  0  0  0  0  0  0  0  0  0  0
   20.4988  -19.8800  -15.7071 S   0  0  0  0  0  0  0  0  0  0  0  0
   20.6148  -21.3526  -13.1242 C   0  0  0  0  0  0  0  0  0  0  0  0
   20.8192  -22.6055  -13.1585 O   0  0  0  0  0  0  0  0  0  0  0  0
   19.3639  -20.8223  -12.8445 O   0  0  0  0  0  0  0  0  0  0  0  0
  2  1  1  6
  3  2  1  0
  4 11  1  0
  4  2  1  0
  5  4  2  0
  7  8  1  0
  7  6  1  0
  8 10  1  0
  8  9  1  1
 10 12  1  0
 10 11  1  6
 12 14  1  0
 13 12  2  0
 14 15  1  0
 15 18  1  0
 15 16  1  6
 16 17  1  0
 18 19  2  0
 18 20  1  0
M  END
$$$$
