AIC.pdb
     RDKit          3D

 20 19  0  0  1  0  0  0  0  0999 V2000
   26.5858  -10.5548  -15.3699 C   0  0  0  0  0  0  0  0  0  0  0  0
   25.4620  -11.3061  -16.0432 C   0  0  2  0  0  0  0  0  0  0  0  0
   26.0015  -11.8923  -17.2538 N   0  0  0  0  0  0  0  0  0  0  0  0
   24.3541  -10.3987  -16.4393 C   0  0  0  0  0  0  0  0  0  0  0  0
   24.3855   -9.7421  -17.5194 O   0  0  0  0  0  0  0  0  0  0  0  0
   19.9360  -12.3169  -16.5006 C   0  0  0  0  0  0  0  0  0  0  0  0
   20.7131  -11.1159  -17.0475 C   0  0  0  0  0  0  0  0  0  0  0  0
   20.8422  -10.1251  -15.9370 C   0  0  2  0  0  0  0  0  0  0  0  0
   19.6107   -9.2461  -15.8816 C   0  0  0  0  0  0  0  0  0  0  0  0
   22.1112   -9.3226  -15.9705 C   0  0  2  0  0  0  0  0  0  0  0  0
   23.1971  -10.2136  -15.6336 N   0  0  0  0  0  0  0  0  0  0  0  0
   22.0697   -8.1437  -15.0562 C   0  0  0  0  0  0  0  0  0  0  0  0
   21.8450   -8.2761  -13.8369 O   0  0  0  0  0  0  0  0  0  0  0  0
   22.2875   -6.8413  -15.5655 N   0  0  0  0  0  0  0  0  0  0  0  0
   22.1930   -5.6350  -14.8123 C   0  0  1  0  0  0  0  0  0  0  0  0
   22.9644   -4.4852  -15.4035 C   0  0  0  0  0  0  0  0  0  0  0  0
   24.7218   -4.9651  -15.4091 S   0  0  0  0  0  0  0  0  0  0  0  0
   20.7944   -5.2336  -14.5990 C   0  0  0  0  0  0  0  0  0  0  0  0
   19.9086   -5.5865  -15.4377 O   0  0  0  0  0  0  0  0  0  0  0  0
   20.4824   -4.4759  -13.4798 O   0  0  0  0  0  0  0  0  0  0  0  0
  2  1  1  6
  3  2  1  0
  4 11  1  0
  4  2  1  0
  5  4  2  0
  7  8  1  0
  7  6  1  0
  8 10  1  0
  8  9  1  6
 10 12  1  0
 10 11  1  1
 12 14  1  0
 13 12  2  0
 14 15  1  0
 15 18  1  0
 15 16  1  6
 16 17  1  0
 18 19  2  0
 18 20  1  0
M  END
$$$$
