TNW.pdb
     RDKit          3D

 30 31  0  0  1  0  0  0  0  0999 V2000
    8.7910  -12.7065   20.7896 C   0  0  0  0  0  0  0  0  0  0  0  0
    7.8018  -13.2834   19.7976 C   0  0  1  0  0  0  0  0  0  0  0  0
    7.5790  -12.4391   18.7323 O   0  0  0  0  0  0  0  0  0  0  0  0
    8.2514  -14.6654   19.3220 C   0  0  2  0  0  0  0  0  0  0  0  0
    7.1928  -15.1444   18.4535 N   0  0  0  0  0  0  0  0  0  0  0  0
    8.4060  -15.5975   20.4754 C   0  0  0  0  0  0  0  0  0  0  0  0
    7.3810  -15.8727   21.1880 O   0  0  0  0  0  0  0  0  0  0  0  0
   11.5745  -17.3702   19.5207 N   0  0  0  0  0  0  0  0  0  0  0  0
   11.7534  -17.8975   20.8370 C   0  0  0  0  0  0  0  0  0  0  0  0
   12.9403  -18.0474   21.2182 O   0  0  0  0  0  0  0  0  0  0  0  0
   10.6113  -18.2467   21.7005 C   0  0  0  0  0  0  0  0  0  0  0  0
    9.6762  -17.0771   21.9761 C   0  0  2  0  0  0  0  0  0  0  0  0
    9.6218  -16.1947   20.8254 N   0  0  0  0  0  0  0  0  0  0  0  0
   10.1703  -16.3684   23.1811 C   0  0  0  0  0  0  0  0  0  0  0  0
   11.1163  -15.5639   23.1105 O   0  0  0  0  0  0  0  0  0  0  0  0
    9.5906  -16.5676   24.4884 N   0  0  0  0  0  0  0  0  0  0  0  0
   10.3359  -16.4100   25.6990 C   0  0  1  0  0  0  0  0  0  0  0  0
    9.8393  -15.2632   26.5516 C   0  0  0  0  0  0  0  0  0  0  0  0
    8.4229  -14.9306   26.2516 C   0  0  0  0  0  0  0  0  0  0  0  0
    7.4143  -15.8316   25.9923 C   0  0  0  0  0  0  0  0  0  0  0  0
    6.2865  -15.1498   25.7694 N   0  0  0  0  0  0  0  0  0  0  0  0
    6.4883  -13.8299   25.8665 C   0  0  0  0  0  0  0  0  0  0  0  0
    5.6879  -12.7154   25.7336 C   0  0  0  0  0  0  0  0  0  0  0  0
    6.1669  -11.4366   25.8908 C   0  0  0  0  0  0  0  0  0  0  0  0
    7.5156  -11.2945   26.1953 C   0  0  0  0  0  0  0  0  0  0  0  0
    8.3098  -12.4172   26.3265 C   0  0  0  0  0  0  0  0  0  0  0  0
    7.8398  -13.6871   26.1718 C   0  0  0  0  0  0  0  0  0  0  0  0
   10.2509  -17.6652   26.4867 C   0  0  0  0  0  0  0  0  0  0  0  0
   10.9945  -17.8573   27.6496 O   0  0  0  0  0  0  0  0  0  0  0  0
    9.4786  -18.5679   26.0734 O   0  0  0  0  0  0  0  0  0  0  0  0
  2  1  1  1
  2  4  1  0
  3  2  1  0
  4  6  1  0
  4  5  1  6
  6  7  2  0
  9  8  1  0
 10  9  2  0
 11  9  1  0
 12 11  1  6
 12 14  1  0
 13  6  1  0
 13 12  1  0
 14 15  2  0
 16 17  1  0
 16 14  1  0
 17 28  1  0
 17 18  1  1
 19 27  1  0
 19 18  1  0
 20 19  2  0
 21 20  1  0
 21 22  1  0
 22 27  2  0
 23 22  1  0
 23 24  2  0
 24 25  1  0
 25 26  2  0
 27 26  1  0
 28 30  2  0
 28 29  1  0
M  END
$$$$
