TNW.pdb
     RDKit          3D

 30 31  0  0  1  0  0  0  0  0999 V2000
    8.0485  -12.3957   19.0524 C   0  0  0  0  0  0  0  0  0  0  0  0
    8.5017  -13.4661   20.0240 C   0  0  1  0  0  0  0  0  0  0  0  0
    7.9902  -13.2732   21.2883 O   0  0  0  0  0  0  0  0  0  0  0  0
    8.1589  -14.8599   19.4967 C   0  0  2  0  0  0  0  0  0  0  0  0
    6.7235  -14.8576   19.2874 N   0  0  0  0  0  0  0  0  0  0  0  0
    8.5119  -15.9063   20.4986 C   0  0  0  0  0  0  0  0  0  0  0  0
    7.5882  -16.3874   21.2398 O   0  0  0  0  0  0  0  0  0  0  0  0
   12.7948  -17.3567   19.5462 N   0  0  0  0  0  0  0  0  0  0  0  0
   12.4196  -17.6916   20.8840 C   0  0  0  0  0  0  0  0  0  0  0  0
   13.2347  -17.3742   21.7849 O   0  0  0  0  0  0  0  0  0  0  0  0
   11.1485  -18.3709   21.1920 C   0  0  0  0  0  0  0  0  0  0  0  0
   10.0530  -17.4267   21.6681 C   0  0  2  0  0  0  0  0  0  0  0  0
    9.8101  -16.3968   20.6750 N   0  0  0  0  0  0  0  0  0  0  0  0
   10.4805  -16.8432   22.9624 C   0  0  0  0  0  0  0  0  0  0  0  0
   11.3719  -15.9771   23.0135 O   0  0  0  0  0  0  0  0  0  0  0  0
    9.8954  -17.2401   24.2213 N   0  0  0  0  0  0  0  0  0  0  0  0
   10.3491  -16.7353   25.4804 C   0  0  1  0  0  0  0  0  0  0  0  0
   10.0684  -15.2595   25.6592 C   0  0  0  0  0  0  0  0  0  0  0  0
    8.6130  -14.9898   25.7846 C   0  0  0  0  0  0  0  0  0  0  0  0
    7.5981  -15.8984   25.5825 C   0  0  0  0  0  0  0  0  0  0  0  0
    6.4311  -15.2802   25.7885 N   0  0  0  0  0  0  0  0  0  0  0  0
    6.6125  -13.9960   26.1204 C   0  0  0  0  0  0  0  0  0  0  0  0
    5.7724  -12.9472   26.4281 C   0  0  0  0  0  0  0  0  0  0  0  0
    6.2382  -11.6926   26.7419 C   0  0  0  0  0  0  0  0  0  0  0  0
    7.6155  -11.5057   26.7404 C   0  0  0  0  0  0  0  0  0  0  0  0
    8.4495  -12.5626   26.4307 C   0  0  0  0  0  0  0  0  0  0  0  0
    7.9926  -13.8082   26.1190 C   0  0  0  0  0  0  0  0  0  0  0  0
    9.6807  -17.4864   26.5722 C   0  0  0  0  0  0  0  0  0  0  0  0
    9.9514  -17.2312   27.9153 O   0  0  0  0  0  0  0  0  0  0  0  0
    8.8495  -18.3745   26.2522 O   0  0  0  0  0  0  0  0  0  0  0  0
  2  1  1  6
  2  4  1  0
  3  2  1  0
  4  6  1  0
  4  5  1  1
  6  7  2  0
  9  8  1  0
 10  9  2  0
 11  9  1  0
 12 11  1  6
 12 14  1  0
 13  6  1  0
 13 12  1  0
 14 15  2  0
 16 17  1  0
 16 14  1  0
 17 28  1  0
 17 18  1  1
 19 27  1  0
 19 18  1  0
 20 19  2  0
 21 20  1  0
 21 22  1  0
 22 27  2  0
 23 22  1  0
 23 24  2  0
 24 25  1  0
 25 26  2  0
 27 26  1  0
 28 30  2  0
 28 29  1  0
M  END
$$$$
