TNW.pdb
     RDKit          3D

 30 31  0  0  1  0  0  0  0  0999 V2000
    8.0539  -12.6375   19.2547 C   0  0  0  0  0  0  0  0  0  0  0  0
    8.5919  -13.6633   20.2311 C   0  0  1  0  0  0  0  0  0  0  0  0
    8.4414  -13.2653   21.5412 O   0  0  0  0  0  0  0  0  0  0  0  0
    7.9502  -15.0305   19.9925 C   0  0  2  0  0  0  0  0  0  0  0  0
    6.5203  -14.8191   20.1152 N   0  0  0  0  0  0  0  0  0  0  0  0
    8.3964  -16.0116   21.0228 C   0  0  0  0  0  0  0  0  0  0  0  0
    7.6379  -16.2406   22.0260 O   0  0  0  0  0  0  0  0  0  0  0  0
   12.4994  -17.5101   19.7345 N   0  0  0  0  0  0  0  0  0  0  0  0
   12.2979  -17.8477   21.1086 C   0  0  0  0  0  0  0  0  0  0  0  0
   13.2131  -17.5156   21.9015 O   0  0  0  0  0  0  0  0  0  0  0  0
   11.0857  -18.5461   21.5717 C   0  0  0  0  0  0  0  0  0  0  0  0
    9.9780  -17.6063   22.0278 C   0  0  2  0  0  0  0  0  0  0  0  0
    9.6105  -16.7032   20.9530 N   0  0  0  0  0  0  0  0  0  0  0  0
   10.4646  -16.8660   23.2168 C   0  0  0  0  0  0  0  0  0  0  0  0
   11.3157  -15.9653   23.1088 O   0  0  0  0  0  0  0  0  0  0  0  0
    9.9860  -17.1431   24.5505 N   0  0  0  0  0  0  0  0  0  0  0  0
   10.4562  -16.4407   25.7043 C   0  0  1  0  0  0  0  0  0  0  0  0
   10.0521  -14.9829   25.7120 C   0  0  0  0  0  0  0  0  0  0  0  0
    8.5756  -14.8238   25.7496 C   0  0  0  0  0  0  0  0  0  0  0  0
    7.6461  -15.8273   25.5898 C   0  0  0  0  0  0  0  0  0  0  0  0
    6.4255  -15.2913   25.6873 N   0  0  0  0  0  0  0  0  0  0  0  0
    6.4893  -13.9719   25.9056 C   0  0  0  0  0  0  0  0  0  0  0  0
    5.5555  -12.9726   26.0782 C   0  0  0  0  0  0  0  0  0  0  0  0
    5.9057  -11.6609   26.2935 C   0  0  0  0  0  0  0  0  0  0  0  0
    7.2626  -11.3622   26.3333 C   0  0  0  0  0  0  0  0  0  0  0  0
    8.1910  -12.3703   26.1593 C   0  0  0  0  0  0  0  0  0  0  0  0
    7.8489  -13.6721   25.9457 C   0  0  0  0  0  0  0  0  0  0  0  0
    9.9162  -17.0946   26.9225 C   0  0  0  0  0  0  0  0  0  0  0  0
   10.1646  -16.5942   28.1992 O   0  0  0  0  0  0  0  0  0  0  0  0
    9.2166  -18.1293   26.7738 O   0  0  0  0  0  0  0  0  0  0  0  0
  2  1  1  6
  2  4  1  0
  3  2  1  0
  4  6  1  0
  4  5  1  1
  6  7  2  0
  9  8  1  0
 10  9  2  0
 11  9  1  0
 12 11  1  6
 12 14  1  0
 13  6  1  0
 13 12  1  0
 14 15  2  0
 16 17  1  0
 16 14  1  0
 17 28  1  0
 17 18  1  6
 19 27  1  0
 19 18  1  0
 20 19  2  0
 21 20  1  0
 21 22  1  0
 22 27  2  0
 23 22  1  0
 23 24  2  0
 24 25  1  0
 25 26  2  0
 27 26  1  0
 28 30  2  0
 28 29  1  0
M  END
$$$$
