TNW.pdb
     RDKit          3D

 30 31  0  0  1  0  0  0  0  0999 V2000
    6.8510  -12.8404   19.1282 C   0  0  0  0  0  0  0  0  0  0  0  0
    7.1937  -14.1735   19.7611 C   0  0  1  0  0  0  0  0  0  0  0  0
    7.8679  -15.0046   18.8938 O   0  0  0  0  0  0  0  0  0  0  0  0
    7.9795  -13.9743   21.0576 C   0  0  2  0  0  0  0  0  0  0  0  0
    9.1093  -13.1351   20.7060 N   0  0  0  0  0  0  0  0  0  0  0  0
    8.4755  -15.2792   21.5816 C   0  0  0  0  0  0  0  0  0  0  0  0
    7.6414  -16.0857   22.1182 O   0  0  0  0  0  0  0  0  0  0  0  0
    9.7952  -18.4633   19.9322 N   0  0  0  0  0  0  0  0  0  0  0  0
   11.1397  -18.2839   20.3826 C   0  0  0  0  0  0  0  0  0  0  0  0
   12.0316  -18.8558   19.7087 O   0  0  0  0  0  0  0  0  0  0  0  0
   11.4641  -17.4740   21.5703 C   0  0  0  0  0  0  0  0  0  0  0  0
   10.2430  -16.8591   22.2404 C   0  0  2  0  0  0  0  0  0  0  0  0
    9.8157  -15.6753   21.5181 N   0  0  0  0  0  0  0  0  0  0  0  0
   10.6014  -16.5396   23.6433 C   0  0  0  0  0  0  0  0  0  0  0  0
   11.5185  -15.7414   23.9062 O   0  0  0  0  0  0  0  0  0  0  0  0
    9.9166  -17.1276   24.7702 N   0  0  0  0  0  0  0  0  0  0  0  0
   10.2570  -16.8275   26.1267 C   0  0  1  0  0  0  0  0  0  0  0  0
    9.9242  -15.4042   26.5167 C   0  0  0  0  0  0  0  0  0  0  0  0
    8.4673  -15.1337   26.4115 C   0  0  0  0  0  0  0  0  0  0  0  0
    7.4900  -16.0546   26.1060 C   0  0  0  0  0  0  0  0  0  0  0  0
    6.3078  -15.4309   26.1061 N   0  0  0  0  0  0  0  0  0  0  0  0
    6.4430  -14.1314   26.3978 C   0  0  0  0  0  0  0  0  0  0  0  0
    5.5706  -13.0716   26.5258 C   0  0  0  0  0  0  0  0  0  0  0  0
    5.9896  -11.8015   26.8433 C   0  0  0  0  0  0  0  0  0  0  0  0
    7.3527  -11.6103   27.0368 C   0  0  0  0  0  0  0  0  0  0  0  0
    8.2192  -12.6782   26.9065 C   0  0  0  0  0  0  0  0  0  0  0  0
    7.8088  -13.9392   26.5919 C   0  0  0  0  0  0  0  0  0  0  0  0
    9.5254  -17.7548   27.0257 C   0  0  0  0  0  0  0  0  0  0  0  0
    9.7159  -17.7462   28.4062 O   0  0  0  0  0  0  0  0  0  0  0  0
    8.7151  -18.5630   26.5040 O   0  0  0  0  0  0  0  0  0  0  0  0
  2  1  1  6
  2  4  1  0
  3  2  1  0
  4  6  1  0
  4  5  1  6
  6  7  2  0
  9  8  1  0
 10  9  2  0
 11  9  1  0
 12 11  1  6
 12 14  1  0
 13  6  1  0
 13 12  1  0
 14 15  2  0
 16 17  1  0
 16 14  1  0
 17 28  1  0
 17 18  1  1
 19 27  1  0
 19 18  1  0
 20 19  2  0
 21 20  1  0
 21 22  1  0
 22 27  2  0
 23 22  1  0
 23 24  2  0
 24 25  1  0
 25 26  2  0
 27 26  1  0
 28 30  2  0
 28 29  1  0
M  END
$$$$
