TNW.pdb
     RDKit          3D

 30 31  0  0  1  0  0  0  0  0999 V2000
    8.1173  -12.3360   18.9267 C   0  0  0  0  0  0  0  0  0  0  0  0
    8.6029  -13.3815   19.9097 C   0  0  1  0  0  0  0  0  0  0  0  0
    8.2769  -13.0658   21.2102 O   0  0  0  0  0  0  0  0  0  0  0  0
    8.0814  -14.7681   19.5310 C   0  0  2  0  0  0  0  0  0  0  0  0
    6.6349  -14.6583   19.5385 N   0  0  0  0  0  0  0  0  0  0  0  0
    8.5063  -15.7856   20.5348 C   0  0  0  0  0  0  0  0  0  0  0  0
    7.6523  -16.2034   21.3892 O   0  0  0  0  0  0  0  0  0  0  0  0
   10.1726  -20.3167   20.0799 N   0  0  0  0  0  0  0  0  0  0  0  0
   10.8317  -19.0576   19.9285 C   0  0  0  0  0  0  0  0  0  0  0  0
   11.0607  -18.6893   18.7501 O   0  0  0  0  0  0  0  0  0  0  0  0
   11.2220  -18.2357   21.0879 C   0  0  0  0  0  0  0  0  0  0  0  0
   10.1107  -17.3241   21.5900 C   0  0  2  0  0  0  0  0  0  0  0  0
    9.7999  -16.3148   20.5947 N   0  0  0  0  0  0  0  0  0  0  0  0
   10.5598  -16.7111   22.8632 C   0  0  0  0  0  0  0  0  0  0  0  0
   11.3993  -15.7933   22.8733 O   0  0  0  0  0  0  0  0  0  0  0  0
   10.0562  -17.1375   24.1475 N   0  0  0  0  0  0  0  0  0  0  0  0
   10.4558  -16.5276   25.3781 C   0  0  1  0  0  0  0  0  0  0  0  0
   10.1815  -15.0403   25.4149 C   0  0  0  0  0  0  0  0  0  0  0  0
    8.7266  -14.7535   25.5029 C   0  0  0  0  0  0  0  0  0  0  0  0
    7.7068  -15.6535   25.2876 C   0  0  0  0  0  0  0  0  0  0  0  0
    6.5422  -15.0203   25.4587 N   0  0  0  0  0  0  0  0  0  0  0  0
    6.7299  -13.7342   25.7797 C   0  0  0  0  0  0  0  0  0  0  0  0
    5.8944  -12.6728   26.0552 C   0  0  0  0  0  0  0  0  0  0  0  0
    6.3665  -11.4196   26.3651 C   0  0  0  0  0  0  0  0  0  0  0  0
    7.7455  -11.2476   26.3938 C   0  0  0  0  0  0  0  0  0  0  0  0
    8.5748  -12.3171   26.1164 C   0  0  0  0  0  0  0  0  0  0  0  0
    8.1117  -13.5613   25.8086 C   0  0  0  0  0  0  0  0  0  0  0  0
    9.7302  -17.1772   26.4982 C   0  0  0  0  0  0  0  0  0  0  0  0
    9.9403  -16.8073   27.8253 O   0  0  0  0  0  0  0  0  0  0  0  0
    8.9064  -18.0853   26.2175 O   0  0  0  0  0  0  0  0  0  0  0  0
  2  1  1  6
  2  4  1  0
  3  2  1  0
  4  6  1  0
  4  5  1  1
  6  7  2  0
  9  8  1  0
 10  9  2  0
 11  9  1  0
 12 11  1  6
 12 14  1  0
 13  6  1  0
 13 12  1  0
 14 15  2  0
 16 17  1  0
 16 14  1  0
 17 28  1  0
 17 18  1  6
 19 27  1  0
 19 18  1  0
 20 19  2  0
 21 20  1  0
 21 22  1  0
 22 27  2  0
 23 22  1  0
 23 24  2  0
 24 25  1  0
 25 26  2  0
 27 26  1  0
 28 30  2  0
 28 29  1  0
M  END
$$$$
