TNW.pdb
     RDKit          3D

 30 31  0  0  1  0  0  0  0  0999 V2000
    9.3997  -20.5859   22.6083 C   0  0  0  0  0  0  0  0  0  0  0  0
    9.0274  -20.4523   21.1459 C   0  0  1  0  0  0  0  0  0  0  0  0
    8.4490  -21.5991   20.6481 O   0  0  0  0  0  0  0  0  0  0  0  0
    8.1255  -19.2378   20.9229 C   0  0  2  0  0  0  0  0  0  0  0  0
    7.6608  -19.3411   19.5526 N   0  0  0  0  0  0  0  0  0  0  0  0
    8.8930  -17.9706   21.0917 C   0  0  0  0  0  0  0  0  0  0  0  0
   10.0299  -17.8570   20.5185 O   0  0  0  0  0  0  0  0  0  0  0  0
    6.0998  -14.3746   20.7279 N   0  0  0  0  0  0  0  0  0  0  0  0
    7.5121  -14.5482   20.5929 C   0  0  0  0  0  0  0  0  0  0  0  0
    7.9333  -14.7903   19.4351 O   0  0  0  0  0  0  0  0  0  0  0  0
    8.4250  -14.4494   21.7457 C   0  0  0  0  0  0  0  0  0  0  0  0
    9.2619  -15.7015   21.9689 C   0  0  2  0  0  0  0  0  0  0  0  0
    8.4344  -16.8876   21.8492 N   0  0  0  0  0  0  0  0  0  0  0  0
    9.8824  -15.6055   23.3122 C   0  0  0  0  0  0  0  0  0  0  0  0
   10.7475  -14.7469   23.5603 O   0  0  0  0  0  0  0  0  0  0  0  0
    9.5238  -16.4901   24.3955 N   0  0  0  0  0  0  0  0  0  0  0  0
   10.3093  -16.6182   25.5840 C   0  0  1  0  0  0  0  0  0  0  0  0
    9.7214  -15.8730   26.7620 C   0  0  0  0  0  0  0  0  0  0  0  0
    8.3611  -15.3576   26.4608 C   0  0  0  0  0  0  0  0  0  0  0  0
    7.2658  -16.1137   26.1072 C   0  0  0  0  0  0  0  0  0  0  0  0
    6.2291  -15.2916   25.9176 N   0  0  0  0  0  0  0  0  0  0  0  0
    6.5750  -14.0154   26.1273 C   0  0  0  0  0  0  0  0  0  0  0  0
    5.9095  -12.8096   26.0700 C   0  0  0  0  0  0  0  0  0  0  0  0
    6.5243  -11.6106   26.3419 C   0  0  0  0  0  0  0  0  0  0  0  0
    7.8706  -11.6486   26.6852 C   0  0  0  0  0  0  0  0  0  0  0  0
    8.5292  -12.8617   26.7401 C   0  0  0  0  0  0  0  0  0  0  0  0
    7.9242  -14.0531   26.4715 C   0  0  0  0  0  0  0  0  0  0  0  0
   10.4248  -18.0558   25.9351 C   0  0  0  0  0  0  0  0  0  0  0  0
   11.2612  -18.4997   26.9577 O   0  0  0  0  0  0  0  0  0  0  0  0
    9.7385  -18.8792   25.2770 O   0  0  0  0  0  0  0  0  0  0  0  0
  2  1  1  1
  2  4  1  0
  3  2  1  0
  4  6  1  0
  4  5  1  6
  6  7  2  0
  9  8  1  0
 10  9  2  0
 11  9  1  0
 12 11  1  1
 12 14  1  0
 13  6  1  0
 13 12  1  0
 14 15  2  0
 16 17  1  0
 16 14  1  0
 17 28  1  0
 17 18  1  1
 19 27  1  0
 19 18  1  0
 20 19  2  0
 21 20  1  0
 21 22  1  0
 22 27  2  0
 23 22  1  0
 23 24  2  0
 24 25  1  0
 25 26  2  0
 27 26  1  0
 28 30  2  0
 28 29  1  0
M  END
$$$$
