TQL.pdb
     RDKit          3D

 25 24  0  0  1  0  0  0  0  0999 V2000
    9.5873  -18.6430   18.4469 C   0  0  0  0  0  0  0  0  0  0  0  0
    9.1830  -18.0741   19.8075 C   0  0  1  0  0  0  0  0  0  0  0  0
    8.4519  -16.9213   19.6718 O   0  0  0  0  0  0  0  0  0  0  0  0
    8.3700  -19.1556   20.4936 C   0  0  2  0  0  0  0  0  0  0  0  0
    7.1687  -19.3259   19.6921 N   0  0  0  0  0  0  0  0  0  0  0  0
    8.0240  -18.7235   21.8508 C   0  0  0  0  0  0  0  0  0  0  0  0
    6.9648  -18.0665   22.0352 O   0  0  0  0  0  0  0  0  0  0  0  0
    9.8001  -20.9841   27.5301 N   0  0  0  0  0  0  0  0  0  0  0  0
    9.1143  -19.7978   27.8632 C   0  0  0  0  0  0  0  0  0  0  0  0
    8.9771  -19.5001   29.0726 O   0  0  0  0  0  0  0  0  0  0  0  0
    8.5708  -18.9151   26.8322 C   0  0  0  0  0  0  0  0  0  0  0  0
    8.8359  -19.3815   25.4575 C   0  0  0  0  0  0  0  0  0  0  0  0
    8.4717  -18.4966   24.3247 C   0  0  2  0  0  0  0  0  0  0  0  0
    8.7994  -18.9868   23.0171 N   0  0  0  0  0  0  0  0  0  0  0  0
    8.8793  -17.0871   24.5168 C   0  0  0  0  0  0  0  0  0  0  0  0
    9.9654  -16.6337   24.0859 O   0  0  0  0  0  0  0  0  0  0  0  0
    7.6869  -12.4656   27.1914 C   0  0  0  0  0  0  0  0  0  0  0  0
    7.1997  -12.5651   25.7382 C   0  0  2  0  0  0  0  0  0  0  0  0
    5.9252  -11.7918   25.6449 C   0  0  0  0  0  0  0  0  0  0  0  0
    7.0578  -14.0163   25.4440 C   0  0  0  0  0  0  0  0  0  0  0  0
    8.3457  -14.7901   25.3815 C   0  0  2  0  0  0  0  0  0  0  0  0
    8.0206  -16.1996   25.2130 N   0  0  0  0  0  0  0  0  0  0  0  0
    9.1762  -14.6479   26.5780 C   0  0  0  0  0  0  0  0  0  0  0  0
    9.9965  -13.7188   26.6710 O   0  0  0  0  0  0  0  0  0  0  0  0
    9.0522  -15.5472   27.6121 O   0  0  0  0  0  0  0  0  0  0  0  0
  2  1  1  6
  3  2  1  0
  4  6  1  0
  4  5  1  6
  4  2  1  0
  6 14  1  0
  7  6  2  0
  9 11  1  0
  9  8  1  0
 10  9  2  0
 12 11  1  0
 13 12  1  1
 14 13  1  0
 15 13  1  0
 16 15  2  0
 18 17  1  1
 18 19  1  0
 20 18  1  0
 21 20  1  1
 21 22  1  0
 21 23  1  0
 22 15  1  0
 23 25  1  0
 24 23  2  0
M  END
$$$$
