TQL.pdb
     RDKit          3D

 25 24  0  0  1  0  0  0  0  0999 V2000
    9.2389  -12.5224   20.0828 C   0  0  0  0  0  0  0  0  0  0  0  0
    8.1293  -13.0866   19.1947 C   0  0  1  0  0  0  0  0  0  0  0  0
    8.0644  -12.4273   17.9935 O   0  0  0  0  0  0  0  0  0  0  0  0
    8.4547  -14.5544   18.9921 C   0  0  2  0  0  0  0  0  0  0  0  0
    7.3767  -15.0978   18.1813 N   0  0  0  0  0  0  0  0  0  0  0  0
    8.5091  -15.2296   20.2919 C   0  0  0  0  0  0  0  0  0  0  0  0
    7.4608  -15.3115   20.9861 O   0  0  0  0  0  0  0  0  0  0  0  0
   12.8177  -19.3179   22.6825 N   0  0  0  0  0  0  0  0  0  0  0  0
   11.9053  -19.1371   23.7424 C   0  0  0  0  0  0  0  0  0  0  0  0
   12.0489  -19.8183   24.7843 O   0  0  0  0  0  0  0  0  0  0  0  0
   10.8088  -18.1745   23.6499 C   0  0  0  0  0  0  0  0  0  0  0  0
   10.7555  -17.4644   22.3575 C   0  0  0  0  0  0  0  0  0  0  0  0
    9.7132  -16.4285   22.1587 C   0  0  2  0  0  0  0  0  0  0  0  0
    9.6749  -15.8203   20.8602 N   0  0  0  0  0  0  0  0  0  0  0  0
    9.6506  -15.4313   23.2502 C   0  0  0  0  0  0  0  0  0  0  0  0
   10.3831  -14.4147   23.2787 O   0  0  0  0  0  0  0  0  0  0  0  0
    5.4422  -12.7942   26.3495 C   0  0  0  0  0  0  0  0  0  0  0  0
    6.9364  -13.1232   26.4853 C   0  0  2  0  0  0  0  0  0  0  0  0
    7.6771  -11.8261   26.4834 C   0  0  0  0  0  0  0  0  0  0  0  0
    7.2712  -14.0206   25.3471 C   0  0  0  0  0  0  0  0  0  0  0  0
    8.6279  -14.6659   25.4128 C   0  0  2  0  0  0  0  0  0  0  0  0
    8.7322  -15.6161   24.3142 N   0  0  0  0  0  0  0  0  0  0  0  0
    8.8802  -15.3792   26.6654 C   0  0  0  0  0  0  0  0  0  0  0  0
    9.0280  -14.7544   27.7297 O   0  0  0  0  0  0  0  0  0  0  0  0
    8.9552  -16.7532   26.6714 O   0  0  0  0  0  0  0  0  0  0  0  0
  2  1  1  1
  3  2  1  0
  4  6  1  0
  4  5  1  6
  4  2  1  0
  6 14  1  0
  7  6  2  0
  9 11  1  0
  9  8  1  0
 10  9  2  0
 12 11  1  0
 13 12  1  6
 14 13  1  0
 15 13  1  0
 16 15  2  0
 18 17  1  6
 18 19  1  0
 20 18  1  0
 21 20  1  1
 21 22  1  0
 21 23  1  0
 22 15  1  0
 23 25  1  0
 24 23  2  0
M  END
$$$$
