TQL.pdb
     RDKit          3D

 25 24  0  0  1  0  0  0  0  0999 V2000
    8.8075  -12.1219   18.6446 C   0  0  0  0  0  0  0  0  0  0  0  0
    8.5913  -12.8732   19.9588 C   0  0  1  0  0  0  0  0  0  0  0  0
    7.4571  -12.4449   20.6006 O   0  0  0  0  0  0  0  0  0  0  0  0
    8.4876  -14.3421   19.5942 C   0  0  2  0  0  0  0  0  0  0  0  0
    7.2723  -14.4768   18.8071 N   0  0  0  0  0  0  0  0  0  0  0  0
    8.3989  -15.1466   20.8163 C   0  0  0  0  0  0  0  0  0  0  0  0
    7.2644  -15.4796   21.2516 O   0  0  0  0  0  0  0  0  0  0  0  0
   11.7129  -19.8263   21.3288 N   0  0  0  0  0  0  0  0  0  0  0  0
   10.4124  -19.4376   20.9466 C   0  0  0  0  0  0  0  0  0  0  0  0
   10.0479  -19.6332   19.7638 O   0  0  0  0  0  0  0  0  0  0  0  0
    9.4891  -18.8215   21.8982 C   0  0  0  0  0  0  0  0  0  0  0  0
   10.0965  -17.7330   22.6879 C   0  0  0  0  0  0  0  0  0  0  0  0
    9.3994  -16.4255   22.7489 C   0  0  2  0  0  0  0  0  0  0  0  0
    9.5124  -15.6009   21.5807 N   0  0  0  0  0  0  0  0  0  0  0  0
    9.6559  -15.6730   23.9970 C   0  0  0  0  0  0  0  0  0  0  0  0
   10.7081  -15.0191   24.1870 O   0  0  0  0  0  0  0  0  0  0  0  0
    8.2235  -12.1090   25.9447 C   0  0  0  0  0  0  0  0  0  0  0  0
    7.1766  -13.2248   25.8098 C   0  0  2  0  0  0  0  0  0  0  0  0
    5.8536  -12.6370   26.1773 C   0  0  0  0  0  0  0  0  0  0  0  0
    7.6251  -14.3278   26.7016 C   0  0  0  0  0  0  0  0  0  0  0  0
    8.9078  -15.0012   26.2986 C   0  0  2  0  0  0  0  0  0  0  0  0
    8.6848  -15.6802   25.0298 N   0  0  0  0  0  0  0  0  0  0  0  0
    9.3865  -15.9849   27.2706 C   0  0  0  0  0  0  0  0  0  0  0  0
    9.7626  -15.6264   28.3997 O   0  0  0  0  0  0  0  0  0  0  0  0
    9.4226  -17.3196   26.9375 O   0  0  0  0  0  0  0  0  0  0  0  0
  2  1  1  6
  3  2  1  0
  4  6  1  0
  4  5  1  6
  4  2  1  0
  6 14  1  0
  7  6  2  0
  9 11  1  0
  9  8  1  0
 10  9  2  0
 12 11  1  0
 13 12  1  6
 14 13  1  0
 15 13  1  0
 16 15  2  0
 18 17  1  1
 18 19  1  0
 20 18  1  0
 21 20  1  1
 21 22  1  0
 21 23  1  0
 22 15  1  0
 23 25  1  0
 24 23  2  0
M  END
$$$$
