TQL.pdb
     RDKit          3D

 25 24  0  0  1  0  0  0  0  0999 V2000
    8.4587  -12.5272   19.7581 C   0  0  0  0  0  0  0  0  0  0  0  0
    8.0809  -13.2979   18.4926 C   0  0  1  0  0  0  0  0  0  0  0  0
    8.3823  -12.5829   17.3613 O   0  0  0  0  0  0  0  0  0  0  0  0
    8.8630  -14.5969   18.5389 C   0  0  2  0  0  0  0  0  0  0  0  0
    8.5027  -15.3271   17.3341 N   0  0  0  0  0  0  0  0  0  0  0  0
    8.4821  -15.3574   19.7326 C   0  0  0  0  0  0  0  0  0  0  0  0
    7.7407  -16.3682   19.6065 O   0  0  0  0  0  0  0  0  0  0  0  0
    9.7489  -20.0054   21.5090 N   0  0  0  0  0  0  0  0  0  0  0  0
   10.7709  -19.0381   21.4175 C   0  0  0  0  0  0  0  0  0  0  0  0
   11.9367  -19.4157   21.1558 O   0  0  0  0  0  0  0  0  0  0  0  0
   10.4958  -17.6159   21.6155 C   0  0  0  0  0  0  0  0  0  0  0  0
    9.0963  -17.3327   21.9878 C   0  0  0  0  0  0  0  0  0  0  0  0
    8.6854  -15.9215   22.1846 C   0  0  2  0  0  0  0  0  0  0  0  0
    8.8862  -15.0490   21.0640 N   0  0  0  0  0  0  0  0  0  0  0  0
    9.1716  -15.3323   23.4520 C   0  0  0  0  0  0  0  0  0  0  0  0
   10.2864  -14.7679   23.5502 O   0  0  0  0  0  0  0  0  0  0  0  0
    7.8967  -11.6790   26.2397 C   0  0  0  0  0  0  0  0  0  0  0  0
    6.5598  -12.3933   25.9915 C   0  0  2  0  0  0  0  0  0  0  0  0
    5.9573  -12.6812   27.3276 C   0  0  0  0  0  0  0  0  0  0  0  0
    6.8768  -13.6053   25.1893 C   0  0  0  0  0  0  0  0  0  0  0  0
    8.1949  -14.2583   25.5016 C   0  0  2  0  0  0  0  0  0  0  0  0
    8.3585  -15.3990   24.6114 N   0  0  0  0  0  0  0  0  0  0  0  0
    8.3049  -14.7309   26.8823 C   0  0  0  0  0  0  0  0  0  0  0  0
    8.6558  -13.9568   27.7891 O   0  0  0  0  0  0  0  0  0  0  0  0
    8.0185  -16.0423   27.1852 O   0  0  0  0  0  0  0  0  0  0  0  0
  2  1  1  1
  3  2  1  0
  4  6  1  0
  4  5  1  6
  4  2  1  0
  6 14  1  0
  7  6  2  0
  9 11  1  0
  9  8  1  0
 10  9  2  0
 12 11  1  0
 13 12  1  6
 14 13  1  0
 15 13  1  0
 16 15  2  0
 18 17  1  1
 18 19  1  0
 20 18  1  0
 21 20  1  1
 21 22  1  0
 21 23  1  0
 22 15  1  0
 23 25  1  0
 24 23  2  0
M  END
$$$$
