TQL.pdb
     RDKit          3D

 25 24  0  0  1  0  0  0  0  0999 V2000
    7.4931  -12.9612   18.6375 C   0  0  0  0  0  0  0  0  0  0  0  0
    7.9340  -13.5537   19.9765 C   0  0  1  0  0  0  0  0  0  0  0  0
    7.1294  -13.1275   21.0026 O   0  0  0  0  0  0  0  0  0  0  0  0
    7.8594  -15.0605   19.8175 C   0  0  2  0  0  0  0  0  0  0  0  0
    6.4578  -15.3724   19.5880 N   0  0  0  0  0  0  0  0  0  0  0  0
    8.3349  -15.7081   21.0434 C   0  0  0  0  0  0  0  0  0  0  0  0
    7.5050  -16.0010   21.9451 O   0  0  0  0  0  0  0  0  0  0  0  0
   13.1000  -19.4426   23.1237 N   0  0  0  0  0  0  0  0  0  0  0  0
   12.5761  -19.3141   21.8208 C   0  0  0  0  0  0  0  0  0  0  0  0
   12.7833  -20.2329   20.9944 O   0  0  0  0  0  0  0  0  0  0  0  0
   11.7987  -18.1416   21.4228 C   0  0  0  0  0  0  0  0  0  0  0  0
   11.4755  -17.2401   22.5454 C   0  0  0  0  0  0  0  0  0  0  0  0
   10.1466  -16.5824   22.5682 C   0  0  2  0  0  0  0  0  0  0  0  0
    9.6915  -16.0475   21.3175 N   0  0  0  0  0  0  0  0  0  0  0  0
    9.9753  -15.6274   23.6855 C   0  0  0  0  0  0  0  0  0  0  0  0
   10.1466  -14.3931   23.5509 O   0  0  0  0  0  0  0  0  0  0  0  0
    6.0856  -13.1531   26.2749 C   0  0  0  0  0  0  0  0  0  0  0  0
    7.5085  -13.5214   26.7206 C   0  0  2  0  0  0  0  0  0  0  0  0
    8.2612  -12.2437   26.8987 C   0  0  0  0  0  0  0  0  0  0  0  0
    8.0587  -14.4137   25.6651 C   0  0  0  0  0  0  0  0  0  0  0  0
    9.2742  -15.2060   26.0602 C   0  0  2  0  0  0  0  0  0  0  0  0
    9.6030  -16.1087   24.9659 N   0  0  0  0  0  0  0  0  0  0  0  0
    9.0890  -16.0012   27.2747 C   0  0  0  0  0  0  0  0  0  0  0  0
    8.9495  -15.4465   28.3781 O   0  0  0  0  0  0  0  0  0  0  0  0
    9.0679  -17.3751   27.2005 O   0  0  0  0  0  0  0  0  0  0  0  0
  2  1  1  6
  3  2  1  0
  4  6  1  0
  4  5  1  1
  4  2  1  0
  6 14  1  0
  7  6  2  0
  9 11  1  0
  9  8  1  0
 10  9  2  0
 12 11  1  0
 13 12  1  6
 14 13  1  0
 15 13  1  0
 16 15  2  0
 18 17  1  6
 18 19  1  0
 20 18  1  0
 21 20  1  6
 21 22  1  0
 21 23  1  0
 22 15  1  0
 23 25  1  0
 24 23  2  0
M  END
$$$$
