TQL.pdb
     RDKit          3D

 25 24  0  0  1  0  0  0  0  0999 V2000
   10.2575  -13.8223   17.4990 C   0  0  0  0  0  0  0  0  0  0  0  0
    9.8430  -14.0885   18.9467 C   0  0  1  0  0  0  0  0  0  0  0  0
   10.0490  -12.9870   19.7379 O   0  0  0  0  0  0  0  0  0  0  0  0
    8.3727  -14.4599   18.9043 C   0  0  2  0  0  0  0  0  0  0  0  0
    7.6673  -13.2630   18.4747 N   0  0  0  0  0  0  0  0  0  0  0  0
    7.9294  -14.8643   20.2415 C   0  0  0  0  0  0  0  0  0  0  0  0
    7.3645  -14.0173   20.9838 O   0  0  0  0  0  0  0  0  0  0  0  0
    8.0431  -20.6997   23.0304 N   0  0  0  0  0  0  0  0  0  0  0  0
    7.4580  -19.8590   23.9997 C   0  0  0  0  0  0  0  0  0  0  0  0
    6.9981  -20.3737   25.0455 O   0  0  0  0  0  0  0  0  0  0  0  0
    7.3841  -18.4113   23.8101 C   0  0  0  0  0  0  0  0  0  0  0  0
    7.7142  -17.9791   22.4383 C   0  0  0  0  0  0  0  0  0  0  0  0
    7.6542  -16.5330   22.1155 C   0  0  2  0  0  0  0  0  0  0  0  0
    8.0830  -16.1679   20.7962 N   0  0  0  0  0  0  0  0  0  0  0  0
    8.2436  -15.6660   23.1598 C   0  0  0  0  0  0  0  0  0  0  0  0
    9.4496  -15.3248   23.1526 O   0  0  0  0  0  0  0  0  0  0  0  0
    7.0104  -13.0213   27.8555 C   0  0  0  0  0  0  0  0  0  0  0  0
    7.1712  -12.2438   26.5407 C   0  0  2  0  0  0  0  0  0  0  0  0
    6.2376  -11.0793   26.5981 C   0  0  0  0  0  0  0  0  0  0  0  0
    6.8792  -13.2087   25.4468 C   0  0  0  0  0  0  0  0  0  0  0  0
    7.9298  -14.2598   25.2172 C   0  0  2  0  0  0  0  0  0  0  0  0
    7.4277  -15.1928   24.2181 N   0  0  0  0  0  0  0  0  0  0  0  0
    8.2786  -15.0159   26.4206 C   0  0  0  0  0  0  0  0  0  0  0  0
    7.6183  -16.0151   26.7528 O   0  0  0  0  0  0  0  0  0  0  0  0
    9.3459  -14.6222   27.1949 O   0  0  0  0  0  0  0  0  0  0  0  0
  2  1  1  6
  3  2  1  0
  4  6  1  0
  4  5  1  1
  4  2  1  0
  6 14  1  0
  7  6  2  0
  9 11  1  0
  9  8  1  0
 10  9  2  0
 12 11  1  0
 13 12  1  1
 14 13  1  0
 15 13  1  0
 16 15  2  0
 18 17  1  1
 18 19  1  0
 20 18  1  0
 21 20  1  1
 21 22  1  0
 21 23  1  0
 22 15  1  0
 23 25  1  0
 24 23  2  0
M  END
$$$$
