TQL.pdb
     RDKit          3D

 25 24  0  0  1  0  0  0  0  0999 V2000
    8.7074  -12.4459   18.0599 C   0  0  0  0  0  0  0  0  0  0  0  0
    8.7946  -13.1348   19.4223 C   0  0  1  0  0  0  0  0  0  0  0  0
    7.9961  -12.5149   20.3497 O   0  0  0  0  0  0  0  0  0  0  0  0
    8.3557  -14.5697   19.1997 C   0  0  2  0  0  0  0  0  0  0  0  0
    6.9924  -14.5007   18.6984 N   0  0  0  0  0  0  0  0  0  0  0  0
    8.3986  -15.2994   20.4702 C   0  0  0  0  0  0  0  0  0  0  0  0
    7.3328  -15.4603   21.1226 O   0  0  0  0  0  0  0  0  0  0  0  0
    9.8938  -21.4846   22.4479 N   0  0  0  0  0  0  0  0  0  0  0  0
   10.6075  -20.2818   22.2678 C   0  0  0  0  0  0  0  0  0  0  0  0
   11.8114  -20.2377   22.6123 O   0  0  0  0  0  0  0  0  0  0  0  0
    9.9750  -19.0986   21.6868 C   0  0  0  0  0  0  0  0  0  0  0  0
   10.4729  -17.8283   22.2490 C   0  0  0  0  0  0  0  0  0  0  0  0
    9.5716  -16.6508   22.2506 C   0  0  2  0  0  0  0  0  0  0  0  0
    9.5715  -15.8610   21.0532 N   0  0  0  0  0  0  0  0  0  0  0  0
    9.6784  -15.8224   23.4722 C   0  0  0  0  0  0  0  0  0  0  0  0
   10.7223  -15.1989   23.7760 O   0  0  0  0  0  0  0  0  0  0  0  0
    5.7107  -12.6308   26.6441 C   0  0  0  0  0  0  0  0  0  0  0  0
    7.1410  -13.1832   26.7340 C   0  0  2  0  0  0  0  0  0  0  0  0
    8.0640  -12.0112   26.8091 C   0  0  0  0  0  0  0  0  0  0  0  0
    7.3346  -14.0384   25.5323 C   0  0  0  0  0  0  0  0  0  0  0  0
    8.5927  -14.8620   25.5234 C   0  0  2  0  0  0  0  0  0  0  0  0
    8.5665  -15.7178   24.3454 N   0  0  0  0  0  0  0  0  0  0  0  0
    8.7496  -15.7094   26.7061 C   0  0  0  0  0  0  0  0  0  0  0  0
    8.2249  -16.8352   26.7510 O   0  0  0  0  0  0  0  0  0  0  0  0
    9.4835  -15.2616   27.7805 O   0  0  0  0  0  0  0  0  0  0  0  0
  2  1  1  6
  3  2  1  0
  4  6  1  0
  4  5  1  1
  4  2  1  0
  6 14  1  0
  7  6  2  0
  9 11  1  0
  9  8  1  0
 10  9  2  0
 12 11  1  0
 13 12  1  6
 14 13  1  0
 15 13  1  0
 16 15  2  0
 18 17  1  6
 18 19  1  0
 20 18  1  0
 21 20  1  1
 21 22  1  0
 21 23  1  0
 22 15  1  0
 23 25  1  0
 24 23  2  0
M  END
$$$$
