VTF.pdb
     RDKit          3D

 26 26  0  0  1  0  0  0  0  0999 V2000
    8.7863  -12.2205   18.8526 C   0  0  0  0  0  0  0  0  0  0  0  0
    8.3714  -13.1769   19.9268 C   0  0  1  0  0  0  0  0  0  0  0  0
    6.9114  -13.0108   20.2372 C   0  0  0  0  0  0  0  0  0  0  0  0
    8.7407  -14.6091   19.6189 C   0  0  2  0  0  0  0  0  0  0  0  0
    8.0897  -14.9900   18.4010 N   0  0  0  0  0  0  0  0  0  0  0  0
    8.3782  -15.5303   20.7081 C   0  0  0  0  0  0  0  0  0  0  0  0
    7.5138  -16.4360   20.5770 O   0  0  0  0  0  0  0  0  0  0  0  0
    8.5460  -18.2148   21.3325 C   0  0  0  0  0  0  0  0  0  0  0  0
    9.2200  -17.7634   22.5823 C   0  0  1  0  0  0  0  0  0  0  0  0
   10.5924  -17.7138   22.3415 O   0  0  0  0  0  0  0  0  0  0  0  0
    8.7683  -16.3949   23.0395 C   0  0  2  0  0  0  0  0  0  0  0  0
    9.0050  -15.4305   21.9810 N   0  0  0  0  0  0  0  0  0  0  0  0
    9.4217  -15.9881   24.3042 C   0  0  0  0  0  0  0  0  0  0  0  0
   10.5277  -15.3971   24.2973 O   0  0  0  0  0  0  0  0  0  0  0  0
    8.8384  -16.2424   25.5701 N   0  0  0  0  0  0  0  0  0  0  0  0
    9.4998  -15.7669   26.7811 C   0  0  1  0  0  0  0  0  0  0  0  0
    8.5335  -15.1505   27.7273 C   0  0  0  0  0  0  0  0  0  0  0  0
    7.8617  -13.9727   27.1190 C   0  0  0  0  0  0  0  0  0  0  0  0
    8.5151  -12.7643   27.0950 C   0  0  0  0  0  0  0  0  0  0  0  0
    7.9023  -11.6737   26.5292 C   0  0  0  0  0  0  0  0  0  0  0  0
    6.6401  -11.7912   25.9894 C   0  0  0  0  0  0  0  0  0  0  0  0
    5.9864  -12.9977   26.0130 C   0  0  0  0  0  0  0  0  0  0  0  0
    6.5944  -14.0735   26.5725 C   0  0  0  0  0  0  0  0  0  0  0  0
   10.1727  -16.9142   27.3862 C   0  0  0  0  0  0  0  0  0  0  0  0
    9.9280  -18.0691   26.9813 O   0  0  0  0  0  0  0  0  0  0  0  0
   11.0849  -16.7597   28.4026 O   0  0  0  0  0  0  0  0  0  0  0  0
  2  1  1  6
  3  2  1  0
  4  6  1  0
  4  2  1  0
  4  5  1  6
  6  7  2  0
  9  8  1  6
  9 11  1  0
 10  9  1  0
 11 13  1  0
 11 12  1  6
 12  6  1  0
 13 14  2  0
 13 15  1  0
 15 16  1  0
 16 24  1  0
 16 17  1  1
 18 17  1  0
 19 18  2  0
 20 19  1  0
 21 20  2  0
 21 22  1  0
 22 23  2  0
 23 18  1  0
 24 25  2  0
 24 26  1  0
M  END
$$$$
