VTF.pdb
     RDKit          3D

 26 26  0  0  1  0  0  0  0  0999 V2000
    8.7955  -12.6336   20.1176 C   0  0  0  0  0  0  0  0  0  0  0  0
    8.0956  -13.3865   19.0294 C   0  0  1  0  0  0  0  0  0  0  0  0
    8.2892  -12.6957   17.7099 C   0  0  0  0  0  0  0  0  0  0  0  0
    8.4762  -14.8477   18.9816 C   0  0  2  0  0  0  0  0  0  0  0  0
    7.8426  -15.4410   17.8421 N   0  0  0  0  0  0  0  0  0  0  0  0
    8.1049  -15.5664   20.2114 C   0  0  0  0  0  0  0  0  0  0  0  0
    6.9172  -15.6528   20.6193 O   0  0  0  0  0  0  0  0  0  0  0  0
    8.1353  -18.9576   21.1580 C   0  0  0  0  0  0  0  0  0  0  0  0
    8.9966  -18.3127   22.1887 C   0  0  1  0  0  0  0  0  0  0  0  0
   10.3284  -18.5499   21.8513 O   0  0  0  0  0  0  0  0  0  0  0  0
    8.7899  -16.8181   22.2847 C   0  0  2  0  0  0  0  0  0  0  0  0
    9.0969  -16.2059   21.0051 N   0  0  0  0  0  0  0  0  0  0  0  0
    9.5826  -16.2171   23.3812 C   0  0  0  0  0  0  0  0  0  0  0  0
   10.7391  -15.7785   23.1750 O   0  0  0  0  0  0  0  0  0  0  0  0
    9.0815  -16.1083   24.7020 N   0  0  0  0  0  0  0  0  0  0  0  0
    9.9313  -15.5644   25.7566 C   0  0  1  0  0  0  0  0  0  0  0  0
    9.8345  -14.0831   25.8290 C   0  0  0  0  0  0  0  0  0  0  0  0
    8.4539  -13.6500   26.1681 C   0  0  0  0  0  0  0  0  0  0  0  0
    8.2019  -13.1194   27.4101 C   0  0  0  0  0  0  0  0  0  0  0  0
    6.9298  -12.7120   27.7276 C   0  0  0  0  0  0  0  0  0  0  0  0
    5.9130  -12.8350   26.8061 C   0  0  0  0  0  0  0  0  0  0  0  0
    6.1636  -13.3650   25.5652 C   0  0  0  0  0  0  0  0  0  0  0  0
    7.4214  -13.7666   25.2542 C   0  0  0  0  0  0  0  0  0  0  0  0
    9.5126  -16.1829   27.0125 C   0  0  0  0  0  0  0  0  0  0  0  0
    8.5373  -16.9614   27.0328 O   0  0  0  0  0  0  0  0  0  0  0  0
   10.1718  -15.9334   28.1925 O   0  0  0  0  0  0  0  0  0  0  0  0
  2  1  1  1
  3  2  1  0
  4  6  1  0
  4  2  1  0
  4  5  1  6
  6  7  2  0
  9  8  1  6
  9 11  1  0
 10  9  1  0
 11 13  1  0
 11 12  1  6
 12  6  1  0
 13 14  2  0
 13 15  1  0
 15 16  1  0
 16 24  1  0
 16 17  1  1
 18 17  1  0
 19 18  2  0
 20 19  1  0
 21 20  2  0
 21 22  1  0
 22 23  2  0
 23 18  1  0
 24 25  2  0
 24 26  1  0
M  END
$$$$
