VTF.pdb
     RDKit          3D

 26 26  0  0  1  0  0  0  0  0999 V2000
    8.9804  -12.7034   20.0583 C   0  0  0  0  0  0  0  0  0  0  0  0
    8.3128  -13.4753   18.9632 C   0  0  1  0  0  0  0  0  0  0  0  0
    8.5673  -12.8220   17.6350 C   0  0  0  0  0  0  0  0  0  0  0  0
    8.6744  -14.9422   18.9680 C   0  0  2  0  0  0  0  0  0  0  0  0
    8.0701  -15.5585   17.8248 N   0  0  0  0  0  0  0  0  0  0  0  0
    8.2531  -15.6215   20.2040 C   0  0  0  0  0  0  0  0  0  0  0  0
    7.0450  -15.7562   20.5311 O   0  0  0  0  0  0  0  0  0  0  0  0
    8.2103  -18.8735   21.2258 C   0  0  0  0  0  0  0  0  0  0  0  0
    9.0096  -18.2445   22.3146 C   0  0  1  0  0  0  0  0  0  0  0  0
   10.3548  -18.5324   22.0870 O   0  0  0  0  0  0  0  0  0  0  0  0
    8.8493  -16.7425   22.3772 C   0  0  2  0  0  0  0  0  0  0  0  0
    9.2172  -16.1647   21.0975 N   0  0  0  0  0  0  0  0  0  0  0  0
    9.6259  -16.1468   23.4880 C   0  0  0  0  0  0  0  0  0  0  0  0
   10.7785  -15.6912   23.2971 O   0  0  0  0  0  0  0  0  0  0  0  0
    9.1131  -16.0623   24.8061 N   0  0  0  0  0  0  0  0  0  0  0  0
    9.9444  -15.5136   25.8729 C   0  0  1  0  0  0  0  0  0  0  0  0
    9.7738  -14.0426   25.9991 C   0  0  0  0  0  0  0  0  0  0  0  0
    8.3687  -13.6905   26.3315 C   0  0  0  0  0  0  0  0  0  0  0  0
    7.4280  -13.6627   25.3304 C   0  0  0  0  0  0  0  0  0  0  0  0
    6.1270  -13.3439   25.6317 C   0  0  0  0  0  0  0  0  0  0  0  0
    5.7680  -13.0537   26.9299 C   0  0  0  0  0  0  0  0  0  0  0  0
    6.7069  -13.0809   27.9306 C   0  0  0  0  0  0  0  0  0  0  0  0
    7.9915  -13.3963   27.6299 C   0  0  0  0  0  0  0  0  0  0  0  0
    9.5695  -16.1967   27.1091 C   0  0  0  0  0  0  0  0  0  0  0  0
    8.6237  -17.0110   27.1127 O   0  0  0  0  0  0  0  0  0  0  0  0
   10.2387  -15.9701   28.2880 O   0  0  0  0  0  0  0  0  0  0  0  0
  2  1  1  1
  3  2  1  0
  4  6  1  0
  4  2  1  0
  4  5  1  6
  6  7  2  0
  9  8  1  6
  9 11  1  0
 10  9  1  0
 11 13  1  0
 11 12  1  6
 12  6  1  0
 13 14  2  0
 13 15  1  0
 15 16  1  0
 16 24  1  0
 16 17  1  1
 18 17  1  0
 19 18  2  0
 20 19  1  0
 21 20  2  0
 21 22  1  0
 22 23  2  0
 23 18  1  0
 24 25  2  0
 24 26  1  0
M  END
$$$$
