VTF.pdb
     RDKit          3D

 26 26  0  0  1  0  0  0  0  0999 V2000
    8.0357  -12.5356   20.9397 C   0  0  0  0  0  0  0  0  0  0  0  0
    7.8026  -13.1768   19.6073 C   0  0  1  0  0  0  0  0  0  0  0  0
    8.1002  -12.2047   18.5018 C   0  0  0  0  0  0  0  0  0  0  0  0
    8.5389  -14.4859   19.4438 C   0  0  2  0  0  0  0  0  0  0  0  0
    8.2370  -15.0132   18.1465 N   0  0  0  0  0  0  0  0  0  0  0  0
    8.1926  -15.4608   20.4908 C   0  0  0  0  0  0  0  0  0  0  0  0
    7.3671  -16.3935   20.3089 O   0  0  0  0  0  0  0  0  0  0  0  0
    8.3559  -18.1320   20.9990 C   0  0  0  0  0  0  0  0  0  0  0  0
    9.0315  -17.7413   22.2683 C   0  0  1  0  0  0  0  0  0  0  0  0
   10.4031  -17.6748   22.0270 O   0  0  0  0  0  0  0  0  0  0  0  0
    8.5762  -16.3991   22.7946 C   0  0  2  0  0  0  0  0  0  0  0  0
    8.7912  -15.3849   21.7788 N   0  0  0  0  0  0  0  0  0  0  0  0
    9.2443  -16.0461   24.0678 C   0  0  0  0  0  0  0  0  0  0  0  0
   10.3467  -15.4485   24.0733 O   0  0  0  0  0  0  0  0  0  0  0  0
    8.6794  -16.3612   25.3283 N   0  0  0  0  0  0  0  0  0  0  0  0
    9.3346  -15.9052   26.5501 C   0  0  1  0  0  0  0  0  0  0  0  0
    8.3581  -15.3404   27.5177 C   0  0  0  0  0  0  0  0  0  0  0  0
    7.7781  -14.0675   27.0156 C   0  0  0  0  0  0  0  0  0  0  0  0
    6.4918  -14.0594   26.5328 C   0  0  0  0  0  0  0  0  0  0  0  0
    5.9480  -12.8856   26.0729 C   0  0  0  0  0  0  0  0  0  0  0  0
    6.6882  -11.7238   26.0957 C   0  0  0  0  0  0  0  0  0  0  0  0
    7.9732  -11.7308   26.5776 C   0  0  0  0  0  0  0  0  0  0  0  0
    8.5079  -12.8920   27.0314 C   0  0  0  0  0  0  0  0  0  0  0  0
   10.0380  -17.0529   27.1188 C   0  0  0  0  0  0  0  0  0  0  0  0
   10.7469  -16.9118   28.1363 O   0  0  0  0  0  0  0  0  0  0  0  0
    9.9397  -18.3055   26.5618 O   0  0  0  0  0  0  0  0  0  0  0  0
  2  1  1  1
  3  2  1  0
  4  6  1  0
  4  2  1  0
  4  5  1  6
  6  7  2  0
  9  8  1  6
  9 11  1  0
 10  9  1  0
 11 13  1  0
 11 12  1  6
 12  6  1  0
 13 14  2  0
 13 15  1  0
 15 16  1  0
 16 24  1  0
 16 17  1  1
 18 17  1  0
 19 18  2  0
 20 19  1  0
 21 20  2  0
 21 22  1  0
 22 23  2  0
 23 18  1  0
 24 25  2  0
 24 26  1  0
M  END
$$$$
