VTF.pdb
     RDKit          3D

 26 26  0  0  1  0  0  0  0  0999 V2000
    8.0320  -12.6873   20.8355 C   0  0  0  0  0  0  0  0  0  0  0  0
    7.9453  -13.3046   19.4745 C   0  0  1  0  0  0  0  0  0  0  0  0
    8.3207  -12.3010   18.4221 C   0  0  0  0  0  0  0  0  0  0  0  0
    8.7295  -14.5906   19.3570 C   0  0  2  0  0  0  0  0  0  0  0  0
    8.5502  -15.1080   18.0333 N   0  0  0  0  0  0  0  0  0  0  0  0
    8.3264  -15.5890   20.3606 C   0  0  0  0  0  0  0  0  0  0  0  0
    7.4847  -16.4944   20.1231 O   0  0  0  0  0  0  0  0  0  0  0  0
    8.2982  -18.3327   20.9254 C   0  0  0  0  0  0  0  0  0  0  0  0
    8.9585  -17.9278   22.1983 C   0  0  1  0  0  0  0  0  0  0  0  0
   10.3367  -17.9154   21.9872 O   0  0  0  0  0  0  0  0  0  0  0  0
    8.5387  -16.5558   22.6748 C   0  0  2  0  0  0  0  0  0  0  0  0
    8.8853  -15.5691   21.6684 N   0  0  0  0  0  0  0  0  0  0  0  0
    9.1264  -16.2213   23.9918 C   0  0  0  0  0  0  0  0  0  0  0  0
   10.2460  -15.6627   24.0750 O   0  0  0  0  0  0  0  0  0  0  0  0
    8.4625  -16.5115   25.2094 N   0  0  0  0  0  0  0  0  0  0  0  0
    9.0495  -16.0819   26.4747 C   0  0  1  0  0  0  0  0  0  0  0  0
    8.0333  -15.4709   27.3708 C   0  0  0  0  0  0  0  0  0  0  0  0
    7.5925  -14.1466   26.8602 C   0  0  0  0  0  0  0  0  0  0  0  0
    6.3184  -14.0073   26.3653 C   0  0  0  0  0  0  0  0  0  0  0  0
    5.9030  -12.7851   25.8976 C   0  0  0  0  0  0  0  0  0  0  0  0
    6.7591  -11.7059   25.9245 C   0  0  0  0  0  0  0  0  0  0  0  0
    8.0321  -11.8440   26.4184 C   0  0  0  0  0  0  0  0  0  0  0  0
    8.4397  -13.0527   26.8800 C   0  0  0  0  0  0  0  0  0  0  0  0
    9.6583  -17.2584   27.0915 C   0  0  0  0  0  0  0  0  0  0  0  0
    9.4772  -18.3897   26.5963 O   0  0  0  0  0  0  0  0  0  0  0  0
   10.4404  -17.1575   28.2172 O   0  0  0  0  0  0  0  0  0  0  0  0
  2  1  1  1
  3  2  1  0
  4  6  1  0
  4  2  1  0
  4  5  1  6
  6  7  2  0
  9  8  1  6
  9 11  1  0
 10  9  1  0
 11 13  1  0
 11 12  1  6
 12  6  1  0
 13 14  2  0
 13 15  1  0
 15 16  1  0
 16 24  1  0
 16 17  1  1
 18 17  1  0
 19 18  2  0
 20 19  1  0
 21 20  2  0
 21 22  1  0
 22 23  2  0
 23 18  1  0
 24 25  2  0
 24 26  1  0
M  END
$$$$
