VTF.pdb
     RDKit          3D

 26 26  0  0  1  0  0  0  0  0999 V2000
    9.1945  -12.4448   18.1947 C   0  0  0  0  0  0  0  0  0  0  0  0
    8.7016  -13.2248   19.3734 C   0  0  1  0  0  0  0  0  0  0  0  0
    7.3957  -12.6647   19.8599 C   0  0  0  0  0  0  0  0  0  0  0  0
    8.6352  -14.7116   19.1132 C   0  0  2  0  0  0  0  0  0  0  0  0
    7.7196  -14.9395   18.0354 N   0  0  0  0  0  0  0  0  0  0  0  0
    8.2297  -15.4738   20.3053 C   0  0  0  0  0  0  0  0  0  0  0  0
    7.0269  -15.6144   20.6490 O   0  0  0  0  0  0  0  0  0  0  0  0
    8.2156  -18.8226   21.0294 C   0  0  0  0  0  0  0  0  0  0  0  0
    9.0299  -18.2819   22.1539 C   0  0  1  0  0  0  0  0  0  0  0  0
   10.3736  -18.5260   21.8729 O   0  0  0  0  0  0  0  0  0  0  0  0
    8.8496  -16.7946   22.3562 C   0  0  2  0  0  0  0  0  0  0  0  0
    9.2037  -16.0955   21.1345 N   0  0  0  0  0  0  0  0  0  0  0  0
    9.6231  -16.2938   23.5150 C   0  0  0  0  0  0  0  0  0  0  0  0
   10.7728  -15.8162   23.3647 O   0  0  0  0  0  0  0  0  0  0  0  0
    9.1105  -16.3283   24.8354 N   0  0  0  0  0  0  0  0  0  0  0  0
    9.9344  -15.8584   25.9447 C   0  0  1  0  0  0  0  0  0  0  0  0
    9.9659  -14.3741   26.0137 C   0  0  0  0  0  0  0  0  0  0  0  0
    8.6006  -13.8147   26.1913 C   0  0  0  0  0  0  0  0  0  0  0  0
    7.8284  -13.5620   25.0834 C   0  0  0  0  0  0  0  0  0  0  0  0
    6.5639  -13.0507   25.2409 C   0  0  0  0  0  0  0  0  0  0  0  0
    6.0735  -12.7927   26.5023 C   0  0  0  0  0  0  0  0  0  0  0  0
    6.8440  -13.0446   27.6097 C   0  0  0  0  0  0  0  0  0  0  0  0
    8.0929  -13.5498   27.4510 C   0  0  0  0  0  0  0  0  0  0  0  0
    9.3806  -16.4323   27.1691 C   0  0  0  0  0  0  0  0  0  0  0  0
    8.2998  -17.0557   27.1357 O   0  0  0  0  0  0  0  0  0  0  0  0
   10.0243  -16.3087   28.3772 O   0  0  0  0  0  0  0  0  0  0  0  0
  2  1  1  6
  3  2  1  0
  4  6  1  0
  4  2  1  0
  4  5  1  6
  6  7  2  0
  9  8  1  6
  9 11  1  0
 10  9  1  0
 11 13  1  0
 11 12  1  6
 12  6  1  0
 13 14  2  0
 13 15  1  0
 15 16  1  0
 16 24  1  0
 16 17  1  1
 18 17  1  0
 19 18  2  0
 20 19  1  0
 21 20  2  0
 21 22  1  0
 22 23  2  0
 23 18  1  0
 24 25  2  0
 24 26  1  0
M  END
$$$$
