KKI.pdb
     RDKit          3D

 27 26  0  0  1  0  0  0  0  0999 V2000
   24.5869  -22.1270  -10.6925 N   0  0  0  0  0  0  0  0  0  0  0  0
   23.8745  -21.1292  -11.3971 C   0  0  1  0  0  0  0  0  0  0  0  0
   23.5142  -19.9253  -10.5495 C   0  0  0  0  0  0  0  0  0  0  0  0
   22.3263  -20.1135   -9.6780 C   0  0  0  0  0  0  0  0  0  0  0  0
   21.8548  -21.5141   -9.4989 C   0  0  0  0  0  0  0  0  0  0  0  0
   20.6004  -21.6176   -8.6589 C   0  0  0  0  0  0  0  0  0  0  0  0
   20.1156  -22.9837   -8.5910 N   0  0  0  0  0  0  0  0  0  0  0  0
   24.4382  -20.7233  -12.7052 C   0  0  0  0  0  0  0  0  0  0  0  0
   24.2308  -19.5203  -13.1045 O   0  0  0  0  0  0  0  0  0  0  0  0
   25.1879  -21.5154  -13.5780 N   0  0  0  0  0  0  0  0  0  0  0  0
   25.7857  -21.0059  -14.8133 C   0  0  1  0  0  0  0  0  0  0  0  0
   26.8577  -22.0001  -15.1908 C   0  0  0  0  0  0  0  0  0  0  0  0
   27.5826  -21.7211  -16.4570 C   0  0  0  0  0  0  0  0  0  0  0  0
   28.6087  -22.8430  -16.7254 C   0  0  0  0  0  0  0  0  0  0  0  0
   29.3470  -22.5140  -17.9864 C   0  0  0  0  0  0  0  0  0  0  0  0
   30.3182  -23.5642  -18.2311 N   0  0  0  0  0  0  0  0  0  0  0  0
   24.7726  -20.7722  -15.8484 C   0  0  0  0  0  0  0  0  0  0  0  0
   23.7878  -21.5911  -15.8780 O   0  0  0  0  0  0  0  0  0  0  0  0
   21.3955  -16.7406  -18.8542 C   0  0  0  0  0  0  0  0  0  0  0  0
   22.0262  -18.1088  -18.8293 C   0  0  0  0  0  0  0  0  0  0  0  0
   23.1326  -18.2307  -17.8092 C   0  0  2  0  0  0  0  0  0  0  0  0
   24.2520  -17.2634  -18.1444 C   0  0  0  0  0  0  0  0  0  0  0  0
   23.7305  -19.6182  -17.7665 C   0  0  2  0  0  0  0  0  0  0  0  0
   24.7963  -19.7252  -16.8013 N   0  0  0  0  0  0  0  0  0  0  0  0
   24.2075  -19.9439  -19.1370 C   0  0  0  0  0  0  0  0  0  0  0  0
   23.4304  -20.2870  -20.0589 O   0  0  0  0  0  0  0  0  0  0  0  0
   25.5571  -19.8786  -19.4515 O   0  0  0  0  0  0  0  0  0  0  0  0
  2  1  1  1
  3  2  1  0
  3  4  1  0
  4  5  1  0
  5  6  1  0
  7  6  1  0
  8  9  2  0
  8  2  1  0
 10  8  1  0
 11 17  1  0
 11 10  1  0
 11 12  1  6
 13 12  1  0
 14 13  1  0
 15 14  1  0
 16 15  1  0
 17 24  1  0
 18 17  2  0
 19 20  1  0
 21 20  1  0
 21 22  1  6
 21 23  1  0
 23 25  1  0
 23 24  1  1
 25 26  2  0
 25 27  1  0
M  END
$$$$
