KKI.pdb
     RDKit          3D

 27 26  0  0  1  0  0  0  0  0999 V2000
   19.7021  -26.9904  -14.9530 N   0  0  0  0  0  0  0  0  0  0  0  0
   20.2026  -25.7789  -15.4832 C   0  0  1  0  0  0  0  0  0  0  0  0
   19.2950  -24.5886  -15.2437 C   0  0  0  0  0  0  0  0  0  0  0  0
   18.0261  -24.6112  -16.0153 C   0  0  0  0  0  0  0  0  0  0  0  0
   17.1104  -23.4550  -15.8131 C   0  0  0  0  0  0  0  0  0  0  0  0
   15.8301  -23.5621  -16.6125 C   0  0  0  0  0  0  0  0  0  0  0  0
   16.0114  -23.0950  -17.9744 N   0  0  0  0  0  0  0  0  0  0  0  0
   21.6133  -25.4587  -15.1650 C   0  0  0  0  0  0  0  0  0  0  0  0
   22.0117  -25.6247  -13.9553 O   0  0  0  0  0  0  0  0  0  0  0  0
   22.5861  -24.9852  -16.0486 N   0  0  0  0  0  0  0  0  0  0  0  0
   23.9241  -24.5703  -15.6238 C   0  0  1  0  0  0  0  0  0  0  0  0
   24.7576  -24.5223  -16.8820 C   0  0  0  0  0  0  0  0  0  0  0  0
   26.1642  -24.0766  -16.7103 C   0  0  0  0  0  0  0  0  0  0  0  0
   27.0866  -25.3081  -16.5819 C   0  0  0  0  0  0  0  0  0  0  0  0
   28.5052  -24.8304  -16.5308 C   0  0  0  0  0  0  0  0  0  0  0  0
   29.3712  -25.9901  -16.4241 N   0  0  0  0  0  0  0  0  0  0  0  0
   23.8859  -23.3159  -14.8639 C   0  0  0  0  0  0  0  0  0  0  0  0
   23.0351  -22.4400  -15.2514 O   0  0  0  0  0  0  0  0  0  0  0  0
   25.3680  -20.4149   -9.5621 C   0  0  0  0  0  0  0  0  0  0  0  0
   24.8522  -20.4184  -10.9779 C   0  0  0  0  0  0  0  0  0  0  0  0
   25.0781  -21.7327  -11.6857 C   0  0  2  0  0  0  0  0  0  0  0  0
   26.5622  -22.0424  -11.7371 C   0  0  0  0  0  0  0  0  0  0  0  0
   24.5686  -21.7192  -13.1086 C   0  0  2  0  0  0  0  0  0  0  0  0
   24.7019  -23.0038  -13.7497 N   0  0  0  0  0  0  0  0  0  0  0  0
   25.3196  -20.6673  -13.8444 C   0  0  0  0  0  0  0  0  0  0  0  0
   25.1328  -19.4430  -13.6499 O   0  0  0  0  0  0  0  0  0  0  0  0
   26.2735  -21.0094  -14.7918 O   0  0  0  0  0  0  0  0  0  0  0  0
  2  1  1  1
  3  2  1  0
  3  4  1  0
  4  5  1  0
  5  6  1  0
  7  6  1  0
  8  9  2  0
  8  2  1  0
 10  8  1  0
 11 17  1  0
 11 10  1  0
 11 12  1  6
 13 12  1  0
 14 13  1  0
 15 14  1  0
 16 15  1  0
 17 24  1  0
 18 17  2  0
 19 20  1  0
 21 20  1  0
 21 22  1  6
 21 23  1  0
 23 25  1  0
 23 24  1  6
 25 26  2  0
 25 27  1  0
M  END
$$$$
