KKI.pdb
     RDKit          3D

 27 26  0  0  1  0  0  0  0  0999 V2000
   14.5823  -12.4044  -16.8371 N   0  0  0  0  0  0  0  0  0  0  0  0
   15.8288  -12.4255  -16.1699 C   0  0  1  0  0  0  0  0  0  0  0  0
   16.9609  -12.9789  -17.0123 C   0  0  0  0  0  0  0  0  0  0  0  0
   16.8555  -14.4287  -17.3174 C   0  0  0  0  0  0  0  0  0  0  0  0
   16.5972  -15.3292  -16.1606 C   0  0  0  0  0  0  0  0  0  0  0  0
   16.5300  -16.7908  -16.5466 C   0  0  0  0  0  0  0  0  0  0  0  0
   16.2456  -17.6326  -15.3994 N   0  0  0  0  0  0  0  0  0  0  0  0
   16.2246  -11.1743  -15.4830 C   0  0  0  0  0  0  0  0  0  0  0  0
   16.3944  -10.1211  -16.1982 O   0  0  0  0  0  0  0  0  0  0  0  0
   16.4404  -11.0009  -14.1139 N   0  0  0  0  0  0  0  0  0  0  0  0
   16.7840   -9.7119  -13.5112 C   0  0  1  0  0  0  0  0  0  0  0  0
   16.4305   -9.8356  -12.0484 C   0  0  0  0  0  0  0  0  0  0  0  0
   16.8731   -8.7158  -11.1784 C   0  0  0  0  0  0  0  0  0  0  0  0
   15.6658   -8.1622  -10.3912 C   0  0  0  0  0  0  0  0  0  0  0  0
   16.1389   -7.0201   -9.5455 C   0  0  0  0  0  0  0  0  0  0  0  0
   14.9779   -6.3832   -8.9518 N   0  0  0  0  0  0  0  0  0  0  0  0
   18.1794   -9.3450  -13.7772 C   0  0  0  0  0  0  0  0  0  0  0  0
   19.0531  -10.2674  -13.6130 O   0  0  0  0  0  0  0  0  0  0  0  0
   20.2639   -8.1115  -18.2529 C   0  0  0  0  0  0  0  0  0  0  0  0
   19.9779   -8.5111  -16.8285 C   0  0  0  0  0  0  0  0  0  0  0  0
   20.3507   -7.4427  -15.8291 C   0  0  2  0  0  0  0  0  0  0  0  0
   21.8395   -7.1623  -15.9052 C   0  0  0  0  0  0  0  0  0  0  0  0
   20.0379   -7.8461  -14.4064 C   0  0  2  0  0  0  0  0  0  0  0  0
   18.6288   -8.0701  -14.1985 N   0  0  0  0  0  0  0  0  0  0  0  0
   20.5528   -6.7748  -13.5125 C   0  0  0  0  0  0  0  0  0  0  0  0
   19.8296   -5.8419  -13.0901 O   0  0  0  0  0  0  0  0  0  0  0  0
   21.8790   -6.7687  -13.1052 O   0  0  0  0  0  0  0  0  0  0  0  0
  2  1  1  6
  3  2  1  0
  3  4  1  0
  4  5  1  0
  5  6  1  0
  7  6  1  0
  8  9  2  0
  8  2  1  0
 10  8  1  0
 11 17  1  0
 11 10  1  0
 11 12  1  1
 13 12  1  0
 14 13  1  0
 15 14  1  0
 16 15  1  0
 17 24  1  0
 18 17  2  0
 19 20  1  0
 21 20  1  0
 21 22  1  1
 21 23  1  0
 23 25  1  0
 23 24  1  6
 25 26  2  0
 25 27  1  0
M  END
$$$$
