KKI.pdb
     RDKit          3D

 27 26  0  0  1  0  0  0  0  0999 V2000
   27.7098  -20.8043  -17.7234 N   0  0  0  0  0  0  0  0  0  0  0  0
   27.3119  -19.9085  -16.7042 C   0  0  1  0  0  0  0  0  0  0  0  0
   26.7798  -18.5890  -17.2271 C   0  0  0  0  0  0  0  0  0  0  0  0
   27.1687  -18.2739  -18.6255 C   0  0  0  0  0  0  0  0  0  0  0  0
   28.3397  -17.3709  -18.7971 C   0  0  0  0  0  0  0  0  0  0  0  0
   28.5789  -16.9725  -20.2372 C   0  0  0  0  0  0  0  0  0  0  0  0
   29.0853  -18.0841  -21.0206 N   0  0  0  0  0  0  0  0  0  0  0  0
   26.4366  -20.4666  -15.6477 C   0  0  0  0  0  0  0  0  0  0  0  0
   25.4520  -21.2079  -16.0090 O   0  0  0  0  0  0  0  0  0  0  0  0
   26.5593  -20.2763  -14.2693 N   0  0  0  0  0  0  0  0  0  0  0  0
   25.5971  -20.7977  -13.2971 C   0  0  1  0  0  0  0  0  0  0  0  0
   26.2233  -20.5768  -11.9410 C   0  0  0  0  0  0  0  0  0  0  0  0
   25.4130  -21.0130  -10.7749 C   0  0  0  0  0  0  0  0  0  0  0  0
   26.1193  -20.5953   -9.4670 C   0  0  0  0  0  0  0  0  0  0  0  0
   25.2256  -20.9447   -8.3170 C   0  0  0  0  0  0  0  0  0  0  0  0
   25.9394  -20.6630   -7.0853 N   0  0  0  0  0  0  0  0  0  0  0  0
   24.2723  -20.1910  -13.4682 C   0  0  0  0  0  0  0  0  0  0  0  0
   24.2353  -18.9125  -13.5403 O   0  0  0  0  0  0  0  0  0  0  0  0
   19.7546  -19.2036  -16.8723 C   0  0  0  0  0  0  0  0  0  0  0  0
   20.1311  -19.3388  -15.4196 C   0  0  0  0  0  0  0  0  0  0  0  0
   21.4221  -20.0935  -15.2117 C   0  0  2  0  0  0  0  0  0  0  0  0
   21.2755  -21.5157  -15.7186 C   0  0  0  0  0  0  0  0  0  0  0  0
   21.8200  -20.1704  -13.7556 C   0  0  2  0  0  0  0  0  0  0  0  0
   23.0493  -20.8985  -13.5621 N   0  0  0  0  0  0  0  0  0  0  0  0
   20.6952  -20.8021  -13.0156 C   0  0  0  0  0  0  0  0  0  0  0  0
   20.6011  -22.0425  -12.8601 O   0  0  0  0  0  0  0  0  0  0  0  0
   19.6888  -20.0261  -12.4593 O   0  0  0  0  0  0  0  0  0  0  0  0
  2  1  1  6
  3  2  1  0
  3  4  1  0
  4  5  1  0
  5  6  1  0
  7  6  1  0
  8  9  2  0
  8  2  1  0
 10  8  1  0
 11 17  1  0
 11 10  1  0
 11 12  1  1
 13 12  1  0
 14 13  1  0
 15 14  1  0
 16 15  1  0
 17 24  1  0
 18 17  2  0
 19 20  1  0
 21 20  1  0
 21 22  1  1
 21 23  1  0
 23 25  1  0
 23 24  1  6
 25 26  2  0
 25 27  1  0
M  END
$$$$
