KKI.pdb
     RDKit          3D

 27 26  0  0  1  0  0  0  0  0999 V2000
   19.8032  -23.3492  -16.4884 N   0  0  0  0  0  0  0  0  0  0  0  0
   20.1778  -22.3737  -15.5357 C   0  0  1  0  0  0  0  0  0  0  0  0
   19.2662  -22.3229  -14.3257 C   0  0  0  0  0  0  0  0  0  0  0  0
   17.8504  -21.9922  -14.6294 C   0  0  0  0  0  0  0  0  0  0  0  0
   17.5467  -20.5560  -14.8765 C   0  0  0  0  0  0  0  0  0  0  0  0
   16.0964  -20.3056  -15.2281 C   0  0  0  0  0  0  0  0  0  0  0  0
   15.8442  -18.8989  -15.4802 N   0  0  0  0  0  0  0  0  0  0  0  0
   21.6053  -22.3589  -15.1410 C   0  0  0  0  0  0  0  0  0  0  0  0
   22.0621  -23.3680  -14.4909 O   0  0  0  0  0  0  0  0  0  0  0  0
   22.5369  -21.3505  -15.3993 N   0  0  0  0  0  0  0  0  0  0  0  0
   23.9104  -21.3766  -14.8940 C   0  0  1  0  0  0  0  0  0  0  0  0
   24.6868  -20.4191  -15.7661 C   0  0  0  0  0  0  0  0  0  0  0  0
   26.1252  -20.2594  -15.4314 C   0  0  0  0  0  0  0  0  0  0  0  0
   26.9416  -21.3867  -16.0994 C   0  0  0  0  0  0  0  0  0  0  0  0
   28.3699  -21.2522  -15.6690 C   0  0  0  0  0  0  0  0  0  0  0  0
   29.1272  -22.3385  -16.2626 N   0  0  0  0  0  0  0  0  0  0  0  0
   23.9644  -21.0811  -13.4579 C   0  0  0  0  0  0  0  0  0  0  0  0
   23.2318  -20.1140  -13.0466 O   0  0  0  0  0  0  0  0  0  0  0  0
   25.9111  -21.3132   -8.2625 C   0  0  0  0  0  0  0  0  0  0  0  0
   26.7510  -20.8384   -9.4198 C   0  0  0  0  0  0  0  0  0  0  0  0
   26.4129  -21.5307  -10.7183 C   0  0  2  0  0  0  0  0  0  0  0  0
   27.4268  -21.1551  -11.7822 C   0  0  0  0  0  0  0  0  0  0  0  0
   25.0466  -21.1486  -11.2396 C   0  0  2  0  0  0  0  0  0  0  0  0
   24.7492  -21.7737  -12.5043 N   0  0  0  0  0  0  0  0  0  0  0  0
   25.0054  -19.6658  -11.3464 C   0  0  0  0  0  0  0  0  0  0  0  0
   23.9646  -19.0016  -11.1289 O   0  0  0  0  0  0  0  0  0  0  0  0
   26.1401  -18.9491  -11.6976 O   0  0  0  0  0  0  0  0  0  0  0  0
  2  1  1  1
  3  2  1  0
  3  4  1  0
  4  5  1  0
  5  6  1  0
  7  6  1  0
  8  9  2  0
  8  2  1  0
 10  8  1  0
 11 17  1  0
 11 10  1  0
 11 12  1  6
 13 12  1  0
 14 13  1  0
 15 14  1  0
 16 15  1  0
 17 24  1  0
 18 17  2  0
 19 20  1  0
 21 20  1  0
 21 22  1  6
 21 23  1  0
 23 25  1  0
 23 24  1  6
 25 26  2  0
 25 27  1  0
M  END
$$$$
