KKI.pdb
     RDKit          3D

 27 26  0  0  1  0  0  0  0  0999 V2000
   27.0072  -20.6421   -9.7037 N   0  0  0  0  0  0  0  0  0  0  0  0
   25.6886  -20.8996  -10.1449 C   0  0  1  0  0  0  0  0  0  0  0  0
   24.6288  -20.1403   -9.3716 C   0  0  0  0  0  0  0  0  0  0  0  0
   23.9949  -20.9090   -8.2701 C   0  0  0  0  0  0  0  0  0  0  0  0
   22.8494  -20.2529   -7.5820 C   0  0  0  0  0  0  0  0  0  0  0  0
   22.2476  -21.1030   -6.4843 C   0  0  0  0  0  0  0  0  0  0  0  0
   21.3095  -22.0742   -7.0158 N   0  0  0  0  0  0  0  0  0  0  0  0
   25.4594  -20.8158  -11.6058 C   0  0  0  0  0  0  0  0  0  0  0  0
   25.7869  -19.7289  -12.2066 O   0  0  0  0  0  0  0  0  0  0  0  0
   24.9147  -21.8052  -12.4278 N   0  0  0  0  0  0  0  0  0  0  0  0
   24.7871  -21.6639  -13.8791 C   0  0  1  0  0  0  0  0  0  0  0  0
   25.0412  -23.0389  -14.4492 C   0  0  0  0  0  0  0  0  0  0  0  0
   24.8985  -23.1656  -15.9223 C   0  0  0  0  0  0  0  0  0  0  0  0
   25.1899  -24.6206  -16.3486 C   0  0  0  0  0  0  0  0  0  0  0  0
   25.0588  -24.7102  -17.8380 C   0  0  0  0  0  0  0  0  0  0  0  0
   25.4683  -26.0398  -18.2507 N   0  0  0  0  0  0  0  0  0  0  0  0
   23.4979  -21.0722  -14.2539 C   0  0  0  0  0  0  0  0  0  0  0  0
   22.4808  -21.4379  -13.5662 O   0  0  0  0  0  0  0  0  0  0  0  0
   23.3247  -16.3733  -17.0949 C   0  0  0  0  0  0  0  0  0  0  0  0
   23.3180  -17.7862  -16.5714 C   0  0  0  0  0  0  0  0  0  0  0  0
   21.9681  -18.2166  -16.0498 C   0  0  2  0  0  0  0  0  0  0  0  0
   21.5628  -17.3386  -14.8811 C   0  0  0  0  0  0  0  0  0  0  0  0
   21.9644  -19.6477  -15.5639 C   0  0  2  0  0  0  0  0  0  0  0  0
   23.2938  -20.1391  -15.2992 N   0  0  0  0  0  0  0  0  0  0  0  0
   21.2793  -20.4706  -16.5961 C   0  0  0  0  0  0  0  0  0  0  0  0
   21.8784  -21.3362  -17.2768 O   0  0  0  0  0  0  0  0  0  0  0  0
   19.9250  -20.3069  -16.8483 O   0  0  0  0  0  0  0  0  0  0  0  0
  2  1  1  6
  3  2  1  0
  3  4  1  0
  4  5  1  0
  5  6  1  0
  7  6  1  0
  8  9  2  0
  8  2  1  0
 10  8  1  0
 11 17  1  0
 11 10  1  0
 11 12  1  6
 13 12  1  0
 14 13  1  0
 15 14  1  0
 16 15  1  0
 17 24  1  0
 18 17  2  0
 19 20  1  0
 21 20  1  0
 21 22  1  1
 21 23  1  0
 23 25  1  0
 23 24  1  6
 25 26  2  0
 25 27  1  0
M  END
$$$$
