KKI.pdb
     RDKit          3D

 27 26  0  0  1  0  0  0  0  0999 V2000
   17.9134  -14.7774  -17.8947 N   0  0  0  0  0  0  0  0  0  0  0  0
   17.4149  -13.4798  -17.6356 C   0  0  1  0  0  0  0  0  0  0  0  0
   16.5300  -13.4015  -16.4073 C   0  0  0  0  0  0  0  0  0  0  0  0
   15.3034  -14.2364  -16.4725 C   0  0  0  0  0  0  0  0  0  0  0  0
   15.0634  -15.1475  -15.3199 C   0  0  0  0  0  0  0  0  0  0  0  0
   13.7139  -15.8302  -15.3710 C   0  0  0  0  0  0  0  0  0  0  0  0
   13.4349  -16.5519  -14.1434 N   0  0  0  0  0  0  0  0  0  0  0  0
   18.4073  -12.3805  -17.6607 C   0  0  0  0  0  0  0  0  0  0  0  0
   19.5731  -12.6088  -17.1726 O   0  0  0  0  0  0  0  0  0  0  0  0
   18.2193  -11.0918  -18.1658 N   0  0  0  0  0  0  0  0  0  0  0  0
   19.3001  -10.1128  -18.2933 C   0  0  1  0  0  0  0  0  0  0  0  0
   18.8164   -9.0962  -19.2995 C   0  0  0  0  0  0  0  0  0  0  0  0
   18.7812   -9.5507  -20.7133 C   0  0  0  0  0  0  0  0  0  0  0  0
   18.2013   -8.4307  -21.6040 C   0  0  0  0  0  0  0  0  0  0  0  0
   18.1332   -8.9367  -23.0121 C   0  0  0  0  0  0  0  0  0  0  0  0
   17.5348   -7.9038  -23.8373 N   0  0  0  0  0  0  0  0  0  0  0  0
   19.6812   -9.5550  -16.9910 C   0  0  0  0  0  0  0  0  0  0  0  0
   18.7316   -9.3623  -16.1529 O   0  0  0  0  0  0  0  0  0  0  0  0
   22.1670   -9.9458  -11.9983 C   0  0  0  0  0  0  0  0  0  0  0  0
   22.4727   -8.9704  -13.1053 C   0  0  0  0  0  0  0  0  0  0  0  0
   22.2050   -9.5342  -14.4801 C   0  0  2  0  0  0  0  0  0  0  0  0
   23.4969   -9.5968  -15.2725 C   0  0  0  0  0  0  0  0  0  0  0  0
   21.2290   -8.6935  -15.2707 C   0  0  2  0  0  0  0  0  0  0  0  0
   20.9983   -9.2209  -16.5927 N   0  0  0  0  0  0  0  0  0  0  0  0
   21.7715   -7.3100  -15.3276 C   0  0  0  0  0  0  0  0  0  0  0  0
   22.4097   -6.8748  -16.3151 O   0  0  0  0  0  0  0  0  0  0  0  0
   21.5875   -6.4328  -14.2687 O   0  0  0  0  0  0  0  0  0  0  0  0
  2  1  1  1
  3  2  1  0
  3  4  1  0
  4  5  1  0
  5  6  1  0
  7  6  1  0
  8  9  2  0
  8  2  1  0
 10  8  1  0
 11 17  1  0
 11 10  1  0
 11 12  1  6
 13 12  1  0
 14 13  1  0
 15 14  1  0
 16 15  1  0
 17 24  1  0
 18 17  2  0
 19 20  1  0
 21 20  1  0
 21 22  1  6
 21 23  1  0
 23 25  1  0
 23 24  1  6
 25 26  2  0
 25 27  1  0
M  END
$$$$
