RKR.pdb
     RDKit          3D

 32 31  0  0  1  0  0  0  0  0999 V2000
  -54.9785  -37.8637  -20.4840 N   0  0  0  0  0  0  0  0  0  0  0  0
  -54.1933  -37.3838  -21.5719 C   0  0  0  0  0  0  0  0  0  0  0  0
  -54.0511  -36.1152  -21.7843 N   0  0  0  0  0  0  0  0  0  0  0  0
  -53.5332  -38.2715  -22.4660 N   0  0  0  0  0  0  0  0  0  0  0  0
  -54.1798  -38.7166  -23.6845 C   0  0  0  0  0  0  0  0  0  0  0  0
  -54.0983  -40.2237  -23.7272 C   0  0  0  0  0  0  0  0  0  0  0  0
  -54.2274  -40.8232  -22.3397 C   0  0  0  0  0  0  0  0  0  0  0  0
  -55.3419  -41.8283  -22.2673 C   0  0  2  0  0  0  0  0  0  0  0  0
  -55.0062  -43.0974  -22.8756 N   0  0  0  0  0  0  0  0  0  0  0  0
  -56.5140  -41.2717  -23.0126 C   0  0  0  0  0  0  0  0  0  0  0  0
  -56.3347  -40.6395  -24.0744 O   0  0  0  0  0  0  0  0  0  0  0  0
  -54.8749  -35.4989  -21.6691 N   0  0  0  0  0  0  0  0  0  0  0  0
  -57.8455  -41.4474  -22.5356 C   0  0  2  0  0  0  0  0  0  0  0  0
  -58.5971  -40.3890  -21.9314 C   0  0  0  0  0  0  0  0  0  0  0  0
  -58.8529  -40.5542  -20.4843 C   0  0  0  0  0  0  0  0  0  0  0  0
  -58.1706  -41.7452  -19.8935 C   0  0  0  0  0  0  0  0  0  0  0  0
  -58.6983  -41.8920  -18.4623 C   0  0  0  0  0  0  0  0  0  0  0  0
  -57.5953  -42.3481  -17.5146 N   0  0  0  0  0  0  0  0  0  0  0  0
  -58.2781  -42.7162  -16.2739 C   0  0  0  0  0  0  0  0  0  0  0  0
  -57.9911  -39.0767  -22.2862 O   0  0  0  0  0  0  0  0  0  0  0  0
  -56.8105  -39.0209  -22.7184 N   0  0  0  0  0  0  0  0  0  0  0  0
  -65.2014  -38.5927  -20.0327 C   0  0  0  0  0  0  0  0  0  0  0  0
  -64.4728  -39.8174  -19.8347 N   0  0  0  0  0  0  0  0  0  0  0  0
  -64.8708  -40.6591  -18.9452 N   0  0  0  0  0  0  0  0  0  0  0  0
  -63.3181  -40.1304  -20.5970 C   0  0  0  0  0  0  0  0  0  0  0  0
  -62.5629  -39.1142  -21.2962 C   0  0  0  0  0  0  0  0  0  0  0  0
  -61.2544  -39.7108  -21.7343 C   0  0  0  0  0  0  0  0  0  0  0  0
  -60.6725  -39.0444  -22.9475 C   0  0  1  0  0  0  0  0  0  0  0  0
  -60.0728  -37.7236  -22.6159 N   0  0  0  0  0  0  0  0  0  0  0  0
  -58.6928  -37.8498  -22.1600 C   0  0  0  0  0  0  0  0  0  0  0  0
  -60.8085  -36.9537  -21.6028 O   0  0  0  0  0  0  0  0  0  0  0  0
  -60.6117  -37.1937  -20.2382 O   0  0  0  0  0  0  0  0  0  0  0  0
  1  2  1  0
  2  3  2  0
  4  5  1  0
  4  2  1  0
  5  6  1  0
  7  8  1  0
  7  6  1  0
  8  9  1  6
 10 12  1  0
 10  8  1  0
 11 10  2  0
 13 19  1  0
 13 12  1  0
 13 14  1  6
 14 15  1  0
 16 15  1  0
 17 16  1  0
 18 17  1  0
 19 20  2  0
 22 23  2  0
 22 21  1  0
 24 22  1  0
 25 24  1  0
 26 25  1  0
 27 26  1  0
 28 27  1  6
 29 28  1  0
 29 19  1  0
 30 31  1  0
 30 28  1  0
 32 30  2  0
M  END
$$$$
