RKR.pdb
     RDKit          3D

 32 31  0  0  1  0  0  0  0  0999 V2000
    7.6283  -12.7680   15.0465 N   0  0  0  0  0  0  0  0  0  0  0  0
    8.2494  -14.0236   15.3075 C   0  0  0  0  0  0  0  0  0  0  0  0
    8.0387  -15.0450   14.5413 N   0  0  0  0  0  0  0  0  0  0  0  0
    9.1246  -14.2089   16.4133 N   0  0  0  0  0  0  0  0  0  0  0  0
    9.5640  -15.5350   16.7999 C   0  0  0  0  0  0  0  0  0  0  0  0
    8.3591  -16.2928   17.3034 C   0  0  0  0  0  0  0  0  0  0  0  0
    8.5087  -16.6575   18.7683 C   0  0  0  0  0  0  0  0  0  0  0  0
    7.4190  -16.0532   19.6081 C   0  0  2  0  0  0  0  0  0  0  0  0
    6.6897  -15.0048   18.9283 N   0  0  0  0  0  0  0  0  0  0  0  0
    8.0539  -15.4436   20.8182 C   0  0  0  0  0  0  0  0  0  0  0  0
    8.9264  -14.5601   20.6865 O   0  0  0  0  0  0  0  0  0  0  0  0
    8.3594  -15.9765   14.8591 N   0  0  0  0  0  0  0  0  0  0  0  0
    7.6829  -15.8505   22.1328 C   0  0  1  0  0  0  0  0  0  0  0  0
    8.2658  -15.2842   23.3116 C   0  0  0  0  0  0  0  0  0  0  0  0
    7.3144  -14.5867   24.2034 C   0  0  0  0  0  0  0  0  0  0  0  0
    7.9692  -13.9436   25.3826 C   0  0  0  0  0  0  0  0  0  0  0  0
    6.8608  -13.2441   26.1766 C   0  0  0  0  0  0  0  0  0  0  0  0
    7.4312  -12.5052   27.3814 N   0  0  0  0  0  0  0  0  0  0  0  0
    6.2884  -11.8329   28.0003 C   0  0  0  0  0  0  0  0  0  0  0  0
    9.0944  -16.3085   24.0040 O   0  0  0  0  0  0  0  0  0  0  0  0
    8.6963  -17.5001   24.0782 N   0  0  0  0  0  0  0  0  0  0  0  0
   14.8162  -14.6189   17.8729 C   0  0  0  0  0  0  0  0  0  0  0  0
   15.1232  -14.6103   19.2784 N   0  0  0  0  0  0  0  0  0  0  0  0
   15.9248  -13.7198   19.7502 N   0  0  0  0  0  0  0  0  0  0  0  0
   14.5643  -15.5614   20.1702 C   0  0  0  0  0  0  0  0  0  0  0  0
   13.1740  -15.5159   20.5661 C   0  0  0  0  0  0  0  0  0  0  0  0
   13.0720  -15.9651   21.9972 C   0  0  0  0  0  0  0  0  0  0  0  0
   11.7121  -15.7454   22.5948 C   0  0  1  0  0  0  0  0  0  0  0  0
   11.5978  -16.3610   23.9447 N   0  0  0  0  0  0  0  0  0  0  0  0
   10.3450  -16.0055   24.6022 C   0  0  0  0  0  0  0  0  0  0  0  0
   12.6945  -16.0279   24.8648 O   0  0  0  0  0  0  0  0  0  0  0  0
   12.5077  -15.1005   25.8960 O   0  0  0  0  0  0  0  0  0  0  0  0
  1  2  1  0
  2  3  2  0
  4  5  1  0
  4  2  1  0
  5  6  1  0
  7  8  1  0
  7  6  1  0
  8  9  1  6
 10 12  1  0
 10  8  1  0
 11 10  2  0
 13 19  1  0
 13 12  1  0
 13 14  1  1
 14 15  1  0
 16 15  1  0
 17 16  1  0
 18 17  1  0
 19 20  2  0
 22 23  2  0
 22 21  1  0
 24 22  1  0
 25 24  1  0
 26 25  1  0
 27 26  1  0
 28 27  1  6
 29 28  1  0
 29 19  1  0
 30 31  1  0
 30 28  1  0
 32 30  2  0
M  END
$$$$
