RKR.pdb
     RDKit          3D

 32 31  0  0  1  0  0  0  0  0999 V2000
    6.9656  -15.4677   16.7749 N   0  0  0  0  0  0  0  0  0  0  0  0
    7.3708  -14.1262   16.5165 C   0  0  0  0  0  0  0  0  0  0  0  0
    7.7410  -13.7568   15.3328 N   0  0  0  0  0  0  0  0  0  0  0  0
    7.3844  -13.1392   17.5406 N   0  0  0  0  0  0  0  0  0  0  0  0
    8.0960  -13.3662   18.7827 C   0  0  0  0  0  0  0  0  0  0  0  0
    8.7073  -14.7454   18.7201 C   0  0  0  0  0  0  0  0  0  0  0  0
    9.4845  -15.0627   19.9837 C   0  0  0  0  0  0  0  0  0  0  0  0
   10.1127  -16.4264   19.9250 C   0  0  2  0  0  0  0  0  0  0  0  0
    9.1877  -17.4946   20.2356 N   0  0  0  0  0  0  0  0  0  0  0  0
   11.2081  -16.4737   20.9432 C   0  0  0  0  0  0  0  0  0  0  0  0
   12.1572  -15.6649   20.8762 O   0  0  0  0  0  0  0  0  0  0  0  0
    8.0800  -12.7877   15.2004 N   0  0  0  0  0  0  0  0  0  0  0  0
   11.1950  -17.4296   22.0004 C   0  0  1  0  0  0  0  0  0  0  0  0
   12.3319  -17.6758   22.8353 C   0  0  0  0  0  0  0  0  0  0  0  0
   12.2025  -18.8416   23.7358 C   0  0  0  0  0  0  0  0  0  0  0  0
   11.0091  -18.7690   24.6322 C   0  0  0  0  0  0  0  0  0  0  0  0
   10.8780  -20.1395   25.3051 C   0  0  0  0  0  0  0  0  0  0  0  0
    9.6697  -20.1821   26.2331 N   0  0  0  0  0  0  0  0  0  0  0  0
    9.5502  -21.5796   26.6498 C   0  0  0  0  0  0  0  0  0  0  0  0
   13.5686  -17.6932   22.0073 O   0  0  0  0  0  0  0  0  0  0  0  0
   13.7408  -18.5941   21.1456 N   0  0  0  0  0  0  0  0  0  0  0  0
   15.7800  -12.4962   17.4341 C   0  0  0  0  0  0  0  0  0  0  0  0
   17.1662  -12.7581   17.7161 N   0  0  0  0  0  0  0  0  0  0  0  0
   18.0177  -11.7928   17.6784 N   0  0  0  0  0  0  0  0  0  0  0  0
   17.6293  -14.0597   18.0384 C   0  0  0  0  0  0  0  0  0  0  0  0
   16.7716  -15.2210   17.9530 C   0  0  0  0  0  0  0  0  0  0  0  0
   16.8921  -15.9968   19.2350 C   0  0  0  0  0  0  0  0  0  0  0  0
   15.6325  -15.9961   20.0523 C   0  0  1  0  0  0  0  0  0  0  0  0
   15.7920  -16.7741   21.3107 N   0  0  0  0  0  0  0  0  0  0  0  0
   14.5935  -16.7208   22.1407 C   0  0  0  0  0  0  0  0  0  0  0  0
   16.9306  -16.3636   22.1446 O   0  0  0  0  0  0  0  0  0  0  0  0
   16.7263  -15.8071   23.4122 O   0  0  0  0  0  0  0  0  0  0  0  0
  1  2  1  0
  2  3  2  0
  4  5  1  0
  4  2  1  0
  5  6  1  0
  7  8  1  0
  7  6  1  0
  8  9  1  1
 10 12  1  0
 10  8  1  0
 11 10  2  0
 13 19  1  0
 13 12  1  0
 13 14  1  1
 14 15  1  0
 16 15  1  0
 17 16  1  0
 18 17  1  0
 19 20  2  0
 22 23  2  0
 22 21  1  0
 24 22  1  0
 25 24  1  0
 26 25  1  0
 27 26  1  0
 28 27  1  6
 29 28  1  0
 29 19  1  0
 30 31  1  0
 30 28  1  0
 32 30  2  0
M  END
$$$$
