RKR.pdb
     RDKit          3D

 32 31  0  0  1  0  0  0  0  0999 V2000
   10.9636  -17.7338   14.6165 N   0  0  0  0  0  0  0  0  0  0  0  0
   10.3152  -17.9730   15.8626 C   0  0  0  0  0  0  0  0  0  0  0  0
   10.1721  -19.1747   16.3209 N   0  0  0  0  0  0  0  0  0  0  0  0
    9.8015  -16.9088   16.6542 N   0  0  0  0  0  0  0  0  0  0  0  0
   10.2333  -15.5427   16.4342 C   0  0  0  0  0  0  0  0  0  0  0  0
    9.0301  -14.6455   16.5975 C   0  0  0  0  0  0  0  0  0  0  0  0
    8.2661  -14.9718   17.8669 C   0  0  0  0  0  0  0  0  0  0  0  0
    7.7136  -13.7361   18.5191 C   0  0  2  0  0  0  0  0  0  0  0  0
    8.1914  -12.5106   17.9167 N   0  0  0  0  0  0  0  0  0  0  0  0
    8.1548  -13.7328   19.9489 C   0  0  0  0  0  0  0  0  0  0  0  0
    9.2992  -14.1320   20.2493 O   0  0  0  0  0  0  0  0  0  0  0  0
    9.7387  -19.3005   17.2527 N   0  0  0  0  0  0  0  0  0  0  0  0
    7.2917  -13.2796   20.9887 C   0  0  2  0  0  0  0  0  0  0  0  0
    7.4487  -13.6801   22.3543 C   0  0  0  0  0  0  0  0  0  0  0  0
    6.5586  -12.9893   23.3122 C   0  0  0  0  0  0  0  0  0  0  0  0
    6.9997  -13.1222   24.7337 C   0  0  0  0  0  0  0  0  0  0  0  0
    5.9695  -12.3756   25.5877 C   0  0  0  0  0  0  0  0  0  0  0  0
    6.3428  -12.4230   27.0646 N   0  0  0  0  0  0  0  0  0  0  0  0
    5.2538  -11.7382   27.7618 C   0  0  0  0  0  0  0  0  0  0  0  0
    7.3960  -15.1644   22.4517 O   0  0  0  0  0  0  0  0  0  0  0  0
    7.7483  -15.8756   21.4751 N   0  0  0  0  0  0  0  0  0  0  0  0
   11.2576  -17.0654   29.9484 C   0  0  0  0  0  0  0  0  0  0  0  0
   11.9690  -16.6404   28.7724 N   0  0  0  0  0  0  0  0  0  0  0  0
   13.0761  -15.9944   28.8959 N   0  0  0  0  0  0  0  0  0  0  0  0
   11.4847  -16.9142   27.4674 C   0  0  0  0  0  0  0  0  0  0  0  0
   10.6812  -15.9620   26.7330 C   0  0  0  0  0  0  0  0  0  0  0  0
   10.1132  -16.6514   25.5237 C   0  0  0  0  0  0  0  0  0  0  0  0
    9.1050  -15.8207   24.7834 C   0  0  2  0  0  0  0  0  0  0  0  0
    7.8900  -16.6074   24.4384 N   0  0  0  0  0  0  0  0  0  0  0  0
    6.9575  -15.8403   23.6198 C   0  0  0  0  0  0  0  0  0  0  0  0
    7.1461  -17.1249   25.5956 O   0  0  0  0  0  0  0  0  0  0  0  0
    7.4631  -18.3688   26.1530 O   0  0  0  0  0  0  0  0  0  0  0  0
  1  2  1  0
  2  3  2  0
  4  5  1  0
  4  2  1  0
  5  6  1  0
  7  8  1  0
  7  6  1  0
  8  9  1  6
 10 12  1  0
 10  8  1  0
 11 10  2  0
 13 19  1  0
 13 12  1  0
 13 14  1  6
 14 15  1  0
 16 15  1  0
 17 16  1  0
 18 17  1  0
 19 20  2  0
 22 23  2  0
 22 21  1  0
 24 22  1  0
 25 24  1  0
 26 25  1  0
 27 26  1  0
 28 27  1  6
 29 28  1  0
 29 19  1  0
 30 31  1  0
 30 28  1  0
 32 30  2  0
M  END
$$$$
