RKR.pdb
     RDKit          3D

 32 31  0  0  1  0  0  0  0  0999 V2000
    8.5026  -12.1627   18.9596 N   0  0  0  0  0  0  0  0  0  0  0  0
    8.9150  -13.5221   19.0700 C   0  0  0  0  0  0  0  0  0  0  0  0
   10.0766  -13.8307   19.5499 N   0  0  0  0  0  0  0  0  0  0  0  0
    8.0734  -14.5939   18.6625 N   0  0  0  0  0  0  0  0  0  0  0  0
    8.2913  -15.9394   19.1553 C   0  0  0  0  0  0  0  0  0  0  0  0
    7.7314  -16.0153   20.5555 C   0  0  0  0  0  0  0  0  0  0  0  0
    6.3399  -16.6195   20.5616 C   0  0  0  0  0  0  0  0  0  0  0  0
    6.3748  -18.0986   20.8241 C   0  0  2  0  0  0  0  0  0  0  0  0
    5.1995  -18.7915   20.3425 N   0  0  0  0  0  0  0  0  0  0  0  0
    6.4383  -18.3028   22.3051 C   0  0  0  0  0  0  0  0  0  0  0  0
    5.5498  -17.8227   23.0395 O   0  0  0  0  0  0  0  0  0  0  0  0
   10.3309  -14.8313   19.6253 N   0  0  0  0  0  0  0  0  0  0  0  0
    7.4997  -19.0405   22.9055 C   0  0  2  0  0  0  0  0  0  0  0  0
    7.6353  -19.1866   24.3234 C   0  0  0  0  0  0  0  0  0  0  0  0
    7.5918  -20.5814   24.8127 C   0  0  0  0  0  0  0  0  0  0  0  0
    7.7700  -20.6969   26.2919 C   0  0  0  0  0  0  0  0  0  0  0  0
    7.6585  -22.1861   26.6355 C   0  0  0  0  0  0  0  0  0  0  0  0
    7.8420  -22.4198   28.1304 N   0  0  0  0  0  0  0  0  0  0  0  0
    7.5659  -23.8418   28.3370 C   0  0  0  0  0  0  0  0  0  0  0  0
    8.8226  -18.4233   24.7956 O   0  0  0  0  0  0  0  0  0  0  0  0
    9.6995  -18.9885   25.4994 N   0  0  0  0  0  0  0  0  0  0  0  0
    6.3055  -11.7257   24.7155 C   0  0  0  0  0  0  0  0  0  0  0  0
    6.2555  -11.5493   26.1424 N   0  0  0  0  0  0  0  0  0  0  0  0
    6.5956  -10.4190   26.6572 N   0  0  0  0  0  0  0  0  0  0  0  0
    5.8383  -12.5920   27.0091 C   0  0  0  0  0  0  0  0  0  0  0  0
    5.7586  -13.9677   26.5698 C   0  0  0  0  0  0  0  0  0  0  0  0
    7.1410  -14.5577   26.6004 C   0  0  0  0  0  0  0  0  0  0  0  0
    7.3859  -15.5579   25.5075 C   0  0  1  0  0  0  0  0  0  0  0  0
    8.8014  -16.0161   25.4874 N   0  0  0  0  0  0  0  0  0  0  0  0
    9.0251  -17.0533   24.4862 C   0  0  0  0  0  0  0  0  0  0  0  0
    9.2995  -16.5234   26.7739 O   0  0  0  0  0  0  0  0  0  0  0  0
    9.2465  -17.8891   27.0743 O   0  0  0  0  0  0  0  0  0  0  0  0
  1  2  1  0
  2  3  2  0
  4  5  1  0
  4  2  1  0
  5  6  1  0
  7  8  1  0
  7  6  1  0
  8  9  1  1
 10 12  1  0
 10  8  1  0
 11 10  2  0
 13 19  1  0
 13 12  1  0
 13 14  1  6
 14 15  1  0
 16 15  1  0
 17 16  1  0
 18 17  1  0
 19 20  2  0
 22 23  2  0
 22 21  1  0
 24 22  1  0
 25 24  1  0
 26 25  1  0
 27 26  1  0
 28 27  1  6
 29 28  1  0
 29 19  1  0
 30 31  1  0
 30 28  1  0
 32 30  2  0
M  END
$$$$
