RKR.pdb
     RDKit          3D

 32 31  0  0  1  0  0  0  0  0999 V2000
    9.7380  -14.0284   13.8133 N   0  0  0  0  0  0  0  0  0  0  0  0
    8.4255  -14.5638   13.9586 C   0  0  0  0  0  0  0  0  0  0  0  0
    7.5346  -14.4081   13.0330 N   0  0  0  0  0  0  0  0  0  0  0  0
    8.0389  -15.2902   15.1187 N   0  0  0  0  0  0  0  0  0  0  0  0
    8.7712  -15.1509   16.3618 C   0  0  0  0  0  0  0  0  0  0  0  0
    7.7659  -15.0936   17.4868 C   0  0  0  0  0  0  0  0  0  0  0  0
    8.4517  -14.9671   18.8341 C   0  0  0  0  0  0  0  0  0  0  0  0
    8.2786  -13.5951   19.4219 C   0  0  2  0  0  0  0  0  0  0  0  0
    9.1743  -12.6126   18.8511 N   0  0  0  0  0  0  0  0  0  0  0  0
    8.5810  -13.6787   20.8850 C   0  0  0  0  0  0  0  0  0  0  0  0
    9.7469  -13.9084   21.2687 O   0  0  0  0  0  0  0  0  0  0  0  0
    6.6099  -14.8572   13.1557 N   0  0  0  0  0  0  0  0  0  0  0  0
    7.5597  -13.5001   21.8630 C   0  0  2  0  0  0  0  0  0  0  0  0
    7.8055  -13.6170   23.2687 C   0  0  0  0  0  0  0  0  0  0  0  0
    6.8262  -12.9223   24.1320 C   0  0  0  0  0  0  0  0  0  0  0  0
    7.1078  -13.0764   25.5914 C   0  0  0  0  0  0  0  0  0  0  0  0
    6.0280  -12.2839   26.3359 C   0  0  0  0  0  0  0  0  0  0  0  0
    6.2467  -12.3403   27.8432 N   0  0  0  0  0  0  0  0  0  0  0  0
    5.1001  -11.6440   28.4275 C   0  0  0  0  0  0  0  0  0  0  0  0
    8.0095  -15.0474   23.6257 O   0  0  0  0  0  0  0  0  0  0  0  0
    7.3195  -15.9426   23.0722 N   0  0  0  0  0  0  0  0  0  0  0  0
   13.2495  -16.6235   19.0924 C   0  0  0  0  0  0  0  0  0  0  0  0
   12.9766  -15.4765   19.9168 N   0  0  0  0  0  0  0  0  0  0  0  0
   13.3163  -14.3032   19.5091 N   0  0  0  0  0  0  0  0  0  0  0  0
   12.3377  -15.5987   21.1775 C   0  0  0  0  0  0  0  0  0  0  0  0
   12.4794  -16.7821   21.9968 C   0  0  0  0  0  0  0  0  0  0  0  0
   11.7255  -16.5658   23.2793 C   0  0  0  0  0  0  0  0  0  0  0  0
   10.2877  -16.9921   23.2041 C   0  0  1  0  0  0  0  0  0  0  0  0
    9.5843  -16.7881   24.4995 N   0  0  0  0  0  0  0  0  0  0  0  0
    8.9678  -15.4687   24.5838 C   0  0  0  0  0  0  0  0  0  0  0  0
   10.4292  -16.9624   25.6895 O   0  0  0  0  0  0  0  0  0  0  0  0
   10.9303  -15.8537   26.3809 O   0  0  0  0  0  0  0  0  0  0  0  0
  1  2  1  0
  2  3  2  0
  4  5  1  0
  4  2  1  0
  5  6  1  0
  7  8  1  0
  7  6  1  0
  8  9  1  6
 10 12  1  0
 10  8  1  0
 11 10  2  0
 13 19  1  0
 13 12  1  0
 13 14  1  6
 14 15  1  0
 16 15  1  0
 17 16  1  0
 18 17  1  0
 19 20  2  0
 22 23  2  0
 22 21  1  0
 24 22  1  0
 25 24  1  0
 26 25  1  0
 27 26  1  0
 28 27  1  6
 29 28  1  0
 29 19  1  0
 30 31  1  0
 30 28  1  0
 32 30  2  0
M  END
$$$$
