RKR.pdb
     RDKit          3D

 32 31  0  0  1  0  0  0  0  0999 V2000
   10.5886  -22.3181   16.0037 N   0  0  0  0  0  0  0  0  0  0  0  0
   11.7570  -21.9243   16.7180 C   0  0  0  0  0  0  0  0  0  0  0  0
   12.9027  -22.4774   16.4809 N   0  0  0  0  0  0  0  0  0  0  0  0
   11.7172  -20.9111   17.7154 N   0  0  0  0  0  0  0  0  0  0  0  0
   10.6659  -19.9133   17.7204 C   0  0  0  0  0  0  0  0  0  0  0  0
   10.9351  -18.9524   16.5874 C   0  0  0  0  0  0  0  0  0  0  0  0
   11.8514  -17.8254   17.0251 C   0  0  0  0  0  0  0  0  0  0  0  0
   11.2105  -16.4795   16.8365 C   0  0  2  0  0  0  0  0  0  0  0  0
   11.9279  -15.6307   15.9102 N   0  0  0  0  0  0  0  0  0  0  0  0
   11.1983  -15.7848   18.1617 C   0  0  0  0  0  0  0  0  0  0  0  0
   12.2751  -15.4905   18.7214 O   0  0  0  0  0  0  0  0  0  0  0  0
   13.7146  -22.2019   17.0610 N   0  0  0  0  0  0  0  0  0  0  0  0
    9.9742  -15.4461   18.8084 C   0  0  2  0  0  0  0  0  0  0  0  0
    9.9265  -14.7928   20.0816 C   0  0  0  0  0  0  0  0  0  0  0  0
    8.6676  -14.0702   20.3640 C   0  0  0  0  0  0  0  0  0  0  0  0
    8.3239  -13.0500   19.3276 C   0  0  0  0  0  0  0  0  0  0  0  0
    6.8351  -13.2267   19.0103 C   0  0  0  0  0  0  0  0  0  0  0  0
    6.3821  -12.2438   17.9372 N   0  0  0  0  0  0  0  0  0  0  0  0
    4.9646  -12.5338   17.7196 C   0  0  0  0  0  0  0  0  0  0  0  0
   10.3210  -15.7490   21.1518 O   0  0  0  0  0  0  0  0  0  0  0  0
    9.6824  -16.8221   21.3086 N   0  0  0  0  0  0  0  0  0  0  0  0
   14.6022  -14.0538   18.9731 C   0  0  0  0  0  0  0  0  0  0  0  0
   15.7817  -14.4650   19.6868 N   0  0  0  0  0  0  0  0  0  0  0  0
   16.9180  -13.9306   19.4013 N   0  0  0  0  0  0  0  0  0  0  0  0
   15.7318  -15.4504   20.7061 C   0  0  0  0  0  0  0  0  0  0  0  0
   14.9617  -15.2629   21.9158 C   0  0  0  0  0  0  0  0  0  0  0  0
   14.1196  -16.4883   22.1384 C   0  0  0  0  0  0  0  0  0  0  0  0
   13.2529  -16.4013   23.3614 C   0  0  2  0  0  0  0  0  0  0  0  0
   11.8080  -16.5031   23.0209 N   0  0  0  0  0  0  0  0  0  0  0  0
   11.4095  -15.5093   22.0300 C   0  0  0  0  0  0  0  0  0  0  0  0
   10.8979  -16.3787   24.1682 O   0  0  0  0  0  0  0  0  0  0  0  0
    9.9131  -15.3847   24.1969 O   0  0  0  0  0  0  0  0  0  0  0  0
  1  2  1  0
  2  3  2  0
  4  5  1  0
  4  2  1  0
  5  6  1  0
  7  8  1  0
  7  6  1  0
  8  9  1  6
 10 12  1  0
 10  8  1  0
 11 10  2  0
 13 19  1  0
 13 12  1  0
 13 14  1  6
 14 15  1  0
 16 15  1  0
 17 16  1  0
 18 17  1  0
 19 20  2  0
 22 23  2  0
 22 21  1  0
 24 22  1  0
 25 24  1  0
 26 25  1  0
 27 26  1  0
 28 27  1  6
 29 28  1  0
 29 19  1  0
 30 31  1  0
 30 28  1  0
 32 30  2  0
M  END
$$$$
