QMW.pdb
     RDKit          3D

 32 33  0  0  1  0  0  0  0  0999 V2000
   25.8406  -24.6986  -15.3009 N   0  0  0  0  0  0  0  0  0  0  0  0
   26.7970  -23.8590  -15.9495 C   0  0  0  0  0  0  0  0  0  0  0  0
   27.9470  -24.1997  -16.2462 O   0  0  0  0  0  0  0  0  0  0  0  0
   26.3375  -22.4708  -16.2787 C   0  0  0  0  0  0  0  0  0  0  0  0
   24.9324  -22.2661  -15.8228 C   0  0  0  0  0  0  0  0  0  0  0  0
   24.4920  -20.8337  -15.7568 C   0  0  2  0  0  0  0  0  0  0  0  0
   25.4424  -19.9713  -16.4618 N   0  0  0  0  0  0  0  0  0  0  0  0
   24.2775  -20.3661  -14.3747 C   0  0  0  0  0  0  0  0  0  0  0  0
   24.9468  -19.3939  -13.9515 O   0  0  0  0  0  0  0  0  0  0  0  0
   18.7929  -21.8923  -11.3676 C   0  0  0  0  0  0  0  0  0  0  0  0
   19.1314  -20.1234  -11.3997 S   0  0  0  0  0  0  0  0  0  0  0  0
   20.7654  -19.7332  -11.9873 C   0  0  0  0  0  0  0  0  0  0  0  0
   21.8706  -20.6415  -11.6034 C   0  0  0  0  0  0  0  0  0  0  0  0
   23.2441  -20.4095  -12.1049 C   0  0  2  0  0  0  0  0  0  0  0  0
   23.3497  -20.9574  -13.4871 N   0  0  0  0  0  0  0  0  0  0  0  0
   24.2848  -21.0036  -11.2666 C   0  0  0  0  0  0  0  0  0  0  0  0
   24.6445  -22.1771  -11.3836 O   0  0  0  0  0  0  0  0  0  0  0  0
   24.9370  -20.2109  -10.2514 N   0  0  0  0  0  0  0  0  0  0  0  0
   25.9482  -20.7958   -9.3606 C   0  0  1  0  0  0  0  0  0  0  0  0
   27.0791  -19.8114   -9.3613 C   0  0  0  0  0  0  0  0  0  0  0  0
   28.1867  -20.1215   -8.4755 C   0  0  0  0  0  0  0  0  0  0  0  0
   29.3043  -20.8564   -8.8740 C   0  0  0  0  0  0  0  0  0  0  0  0
   30.0993  -20.9806   -7.8118 N   0  0  0  0  0  0  0  0  0  0  0  0
   29.5508  -20.3613   -6.7463 C   0  0  0  0  0  0  0  0  0  0  0  0
   29.9527  -20.1790   -5.4405 C   0  0  0  0  0  0  0  0  0  0  0  0
   29.1798  -19.4716   -4.5556 C   0  0  0  0  0  0  0  0  0  0  0  0
   27.9906  -18.9314   -4.9540 C   0  0  0  0  0  0  0  0  0  0  0  0
   27.5859  -19.1095   -6.2491 C   0  0  0  0  0  0  0  0  0  0  0  0
   28.3335  -19.8105   -7.1558 C   0  0  0  0  0  0  0  0  0  0  0  0
   25.3870  -21.0957   -8.0504 C   0  0  0  0  0  0  0  0  0  0  0  0
   24.3955  -20.4026   -7.6532 O   0  0  0  0  0  0  0  0  0  0  0  0
   25.8148  -22.0680   -7.1773 O   0  0  0  0  0  0  0  0  0  0  0  0
  2  1  1  0
  3  2  2  0
  4  2  1  0
  5  4  1  0
  6  5  1  0
  6  7  1  1
  8  9  2  0
  8  6  1  0
 10 11  1  0
 12 11  1  0
 12 13  1  0
 14 13  1  1
 14 16  1  0
 14 15  1  0
 15  8  1  0
 16 18  1  0
 17 16  2  0
 18 19  1  0
 19 30  1  0
 20 21  1  0
 19 20  1  1
 21 29  1  0
 22 23  1  0
 22 21  2  0
 23 24  1  0
 24 29  2  0
 24 25  1  0
 25 26  2  0
 26 27  1  0
 28 27  2  0
 29 28  1  0
 30 31  2  0
 30 32  1  0
M  END
$$$$
