QMW.pdb
     RDKit          3D

 32 33  0  0  1  0  0  0  0  0999 V2000
   21.9280  -24.9207  -16.2131 N   0  0  0  0  0  0  0  0  0  0  0  0
   22.8428  -25.6621  -17.0216 C   0  0  0  0  0  0  0  0  0  0  0  0
   22.5418  -26.6482  -17.7026 O   0  0  0  0  0  0  0  0  0  0  0  0
   24.2622  -25.1806  -17.0193 C   0  0  0  0  0  0  0  0  0  0  0  0
   24.4296  -24.0595  -16.0501 C   0  0  0  0  0  0  0  0  0  0  0  0
   25.4110  -23.0048  -16.4676 C   0  0  2  0  0  0  0  0  0  0  0  0
   26.2344  -23.4812  -17.5808 N   0  0  0  0  0  0  0  0  0  0  0  0
   26.2517  -22.5341  -15.3511 C   0  0  0  0  0  0  0  0  0  0  0  0
   27.1248  -23.3023  -14.8822 O   0  0  0  0  0  0  0  0  0  0  0  0
   30.8409  -19.9531  -10.9059 C   0  0  0  0  0  0  0  0  0  0  0  0
   30.2087  -19.8578  -12.5899 S   0  0  0  0  0  0  0  0  0  0  0  0
   28.5660  -19.1793  -12.6843 C   0  0  0  0  0  0  0  0  0  0  0  0
   27.6664  -19.6974  -13.7409 C   0  0  0  0  0  0  0  0  0  0  0  0
   26.9116  -20.9545  -13.5368 C   0  0  2  0  0  0  0  0  0  0  0  0
   26.1295  -21.2509  -14.7706 N   0  0  0  0  0  0  0  0  0  0  0  0
   26.0088  -20.9188  -12.3869 C   0  0  0  0  0  0  0  0  0  0  0  0
   24.9012  -20.3788  -12.4268 O   0  0  0  0  0  0  0  0  0  0  0  0
   26.4005  -21.5313  -11.1395 N   0  0  0  0  0  0  0  0  0  0  0  0
   25.5401  -21.4575   -9.9511 C   0  0  1  0  0  0  0  0  0  0  0  0
   26.4409  -21.7939   -8.8008 C   0  0  0  0  0  0  0  0  0  0  0  0
   26.9808  -20.6618   -8.0695 C   0  0  0  0  0  0  0  0  0  0  0  0
   26.6127  -19.3396   -8.3230 C   0  0  0  0  0  0  0  0  0  0  0  0
   27.3189  -18.5646   -7.5007 N   0  0  0  0  0  0  0  0  0  0  0  0
   28.1249  -19.3210   -6.7275 C   0  0  0  0  0  0  0  0  0  0  0  0
   29.0276  -19.0330   -5.7263 C   0  0  0  0  0  0  0  0  0  0  0  0
   29.7123  -20.0323   -5.0835 C   0  0  0  0  0  0  0  0  0  0  0  0
   29.5115  -21.3391   -5.4253 C   0  0  0  0  0  0  0  0  0  0  0  0
   28.6171  -21.6313   -6.4189 C   0  0  0  0  0  0  0  0  0  0  0  0
   27.9189  -20.6575   -7.0797 C   0  0  0  0  0  0  0  0  0  0  0  0
   24.8745  -20.1649   -9.8611 C   0  0  0  0  0  0  0  0  0  0  0  0
   25.4246  -19.1695  -10.4336 O   0  0  0  0  0  0  0  0  0  0  0  0
   23.6902  -19.8947   -9.2167 O   0  0  0  0  0  0  0  0  0  0  0  0
  2  1  1  0
  3  2  2  0
  4  2  1  0
  5  4  1  0
  6  5  1  0
  6  7  1  6
  8  9  2  0
  8  6  1  0
 10 11  1  0
 12 11  1  0
 12 13  1  0
 14 13  1  6
 14 16  1  0
 14 15  1  0
 15  8  1  0
 16 18  1  0
 17 16  2  0
 18 19  1  0
 19 30  1  0
 20 21  1  0
 19 20  1  1
 21 29  1  0
 22 23  1  0
 22 21  2  0
 23 24  1  0
 24 29  2  0
 24 25  1  0
 25 26  2  0
 26 27  1  0
 28 27  2  0
 29 28  1  0
 30 31  2  0
 30 32  1  0
M  END
$$$$
