QMW.pdb
     RDKit          3D

 32 33  0  0  1  0  0  0  0  0999 V2000
   23.2794  -20.4251  -17.7948 N   0  0  0  0  0  0  0  0  0  0  0  0
   23.9367  -19.3875  -18.5241 C   0  0  0  0  0  0  0  0  0  0  0  0
   23.5038  -18.8714  -19.5599 O   0  0  0  0  0  0  0  0  0  0  0  0
   25.2440  -18.9157  -17.9629 C   0  0  0  0  0  0  0  0  0  0  0  0
   25.5580  -19.6388  -16.6969 C   0  0  0  0  0  0  0  0  0  0  0  0
   26.7989  -20.4802  -16.7412 C   0  0  2  0  0  0  0  0  0  0  0  0
   26.5966  -21.6488  -17.6000 N   0  0  0  0  0  0  0  0  0  0  0  0
   27.2631  -20.8828  -15.4005 C   0  0  0  0  0  0  0  0  0  0  0  0
   26.6631  -21.8068  -14.8019 O   0  0  0  0  0  0  0  0  0  0  0  0
   31.2985  -22.4481   -9.4195 C   0  0  0  0  0  0  0  0  0  0  0  0
   30.6069  -22.2965  -11.0758 S   0  0  0  0  0  0  0  0  0  0  0  0
   30.6366  -20.6291  -11.6976 C   0  0  0  0  0  0  0  0  0  0  0  0
   30.0783  -20.3875  -13.0481 C   0  0  0  0  0  0  0  0  0  0  0  0
   28.6609  -20.6972  -13.3429 C   0  0  2  0  0  0  0  0  0  0  0  0
   28.3591  -20.2801  -14.7418 N   0  0  0  0  0  0  0  0  0  0  0  0
   27.7160  -20.0545  -12.4303 C   0  0  0  0  0  0  0  0  0  0  0  0
   27.4503  -18.8519  -12.4859 O   0  0  0  0  0  0  0  0  0  0  0  0
   27.0507  -20.8317  -11.4116 N   0  0  0  0  0  0  0  0  0  0  0  0
   26.2140  -20.1902  -10.3887 C   0  0  1  0  0  0  0  0  0  0  0  0
   25.1828  -19.4219  -11.1596 C   0  0  0  0  0  0  0  0  0  0  0  0
   23.9768  -20.1535  -11.5035 C   0  0  0  0  0  0  0  0  0  0  0  0
   23.2159  -20.8591  -10.5703 C   0  0  0  0  0  0  0  0  0  0  0  0
   22.2095  -21.4330  -11.2285 N   0  0  0  0  0  0  0  0  0  0  0  0
   22.2819  -21.1322  -12.5415 C   0  0  0  0  0  0  0  0  0  0  0  0
   21.5032  -21.4473  -13.6344 C   0  0  0  0  0  0  0  0  0  0  0  0
   21.8144  -20.9744  -14.8834 C   0  0  0  0  0  0  0  0  0  0  0  0
   22.9079  -20.1778  -15.0690 C   0  0  0  0  0  0  0  0  0  0  0  0
   23.6853  -19.8621  -13.9879 C   0  0  0  0  0  0  0  0  0  0  0  0
   23.4022  -20.3183  -12.7293 C   0  0  0  0  0  0  0  0  0  0  0  0
   25.6847  -21.1698   -9.4496 C   0  0  0  0  0  0  0  0  0  0  0  0
   25.5675  -22.3740   -9.8465 O   0  0  0  0  0  0  0  0  0  0  0  0
   25.2933  -20.9353   -8.1525 O   0  0  0  0  0  0  0  0  0  0  0  0
  2  1  1  0
  3  2  2  0
  4  2  1  0
  5  4  1  0
  6  5  1  0
  6  7  1  6
  8  9  2  0
  8  6  1  0
 10 11  1  0
 12 11  1  0
 12 13  1  0
 14 13  1  1
 14 16  1  0
 14 15  1  0
 15  8  1  0
 16 18  1  0
 17 16  2  0
 18 19  1  0
 19 30  1  0
 20 21  1  0
 19 20  1  6
 21 29  1  0
 22 23  1  0
 22 21  2  0
 23 24  1  0
 24 29  2  0
 24 25  1  0
 25 26  2  0
 26 27  1  0
 28 27  2  0
 29 28  1  0
 30 31  2  0
 30 32  1  0
M  END
$$$$
