QMW.pdb
     RDKit          3D

 32 33  0  0  1  0  0  0  0  0999 V2000
   26.6157  -17.0559  -14.4637 N   0  0  0  0  0  0  0  0  0  0  0  0
   26.0875  -17.4235  -15.7390 C   0  0  0  0  0  0  0  0  0  0  0  0
   25.1383  -16.8626  -16.2967 O   0  0  0  0  0  0  0  0  0  0  0  0
   26.7580  -18.5777  -16.4208 C   0  0  0  0  0  0  0  0  0  0  0  0
   27.8616  -19.1132  -15.5725 C   0  0  0  0  0  0  0  0  0  0  0  0
   27.8300  -20.5973  -15.3577 C   0  0  2  0  0  0  0  0  0  0  0  0
   27.4552  -21.2873  -16.5936 N   0  0  0  0  0  0  0  0  0  0  0  0
   26.9498  -20.9935  -14.2427 C   0  0  0  0  0  0  0  0  0  0  0  0
   25.9126  -21.6525  -14.4921 O   0  0  0  0  0  0  0  0  0  0  0  0
   25.9980  -19.3752   -6.8430 C   0  0  0  0  0  0  0  0  0  0  0  0
   26.7224  -20.7673   -7.7274 S   0  0  0  0  0  0  0  0  0  0  0  0
   25.9581  -21.0685   -9.3063 C   0  0  0  0  0  0  0  0  0  0  0  0
   26.7720  -20.8338  -10.5214 C   0  0  0  0  0  0  0  0  0  0  0  0
   26.1881  -21.0297  -11.8677 C   0  0  2  0  0  0  0  0  0  0  0  0
   27.2098  -20.6696  -12.8915 N   0  0  0  0  0  0  0  0  0  0  0  0
   24.9723  -20.2511  -12.1008 C   0  0  0  0  0  0  0  0  0  0  0  0
   24.9777  -19.0222  -12.2004 O   0  0  0  0  0  0  0  0  0  0  0  0
   23.6977  -20.9181  -12.2237 N   0  0  0  0  0  0  0  0  0  0  0  0
   22.4491  -20.1565  -12.3601 C   0  0  1  0  0  0  0  0  0  0  0  0
   22.6784  -19.2451  -13.5283 C   0  0  0  0  0  0  0  0  0  0  0  0
   21.9671  -19.5887  -14.7464 C   0  0  0  0  0  0  0  0  0  0  0  0
   20.6060  -19.3439  -14.9342 C   0  0  0  0  0  0  0  0  0  0  0  0
   20.2792  -19.8115  -16.1384 N   0  0  0  0  0  0  0  0  0  0  0  0
   21.3626  -20.3459  -16.7387 C   0  0  0  0  0  0  0  0  0  0  0  0
   21.5760  -20.9379  -17.9651 C   0  0  0  0  0  0  0  0  0  0  0  0
   22.8208  -21.3859  -18.3262 C   0  0  0  0  0  0  0  0  0  0  0  0
   23.8784  -21.2531  -17.4727 C   0  0  0  0  0  0  0  0  0  0  0  0
   23.6727  -20.6666  -16.2534 C   0  0  0  0  0  0  0  0  0  0  0  0
   22.4432  -20.2101  -15.8632 C   0  0  0  0  0  0  0  0  0  0  0  0
   21.3003  -21.0438  -12.4812 C   0  0  0  0  0  0  0  0  0  0  0  0
   21.5025  -22.2268  -12.9066 O   0  0  0  0  0  0  0  0  0  0  0  0
   19.9940  -20.7416  -12.1762 O   0  0  0  0  0  0  0  0  0  0  0  0
  2  1  1  0
  3  2  2  0
  4  2  1  0
  5  4  1  0
  6  5  1  0
  6  7  1  6
  8  9  2  0
  8  6  1  0
 10 11  1  0
 12 11  1  0
 12 13  1  0
 14 13  1  1
 14 16  1  0
 14 15  1  0
 15  8  1  0
 16 18  1  0
 17 16  2  0
 18 19  1  0
 19 30  1  0
 20 21  1  0
 19 20  1  6
 21 29  1  0
 22 23  1  0
 22 21  2  0
 23 24  1  0
 24 29  2  0
 24 25  1  0
 25 26  2  0
 26 27  1  0
 28 27  2  0
 29 28  1  0
 30 31  2  0
 30 32  1  0
M  END
$$$$
