QMW.pdb
     RDKit          3D

 32 33  0  0  1  0  0  0  0  0999 V2000
   26.3566  -21.1271  -16.3985 N   0  0  0  0  0  0  0  0  0  0  0  0
   27.7285  -20.8015  -16.6273 C   0  0  0  0  0  0  0  0  0  0  0  0
   28.2102  -20.5140  -17.7282 O   0  0  0  0  0  0  0  0  0  0  0  0
   28.6189  -20.8202  -15.4217 C   0  0  0  0  0  0  0  0  0  0  0  0
   27.8107  -20.9972  -14.1808 C   0  0  0  0  0  0  0  0  0  0  0  0
   28.5899  -20.9116  -12.9020 C   0  0  2  0  0  0  0  0  0  0  0  0
   29.7369  -21.8211  -12.9375 N   0  0  0  0  0  0  0  0  0  0  0  0
   27.7573  -21.1560  -11.7095 C   0  0  0  0  0  0  0  0  0  0  0  0
   26.8208  -21.9866  -11.7823 O   0  0  0  0  0  0  0  0  0  0  0  0
   26.7317  -20.2398   -3.8314 C   0  0  0  0  0  0  0  0  0  0  0  0
   27.7307  -20.0084   -5.3123 S   0  0  0  0  0  0  0  0  0  0  0  0
   26.8838  -20.4701   -6.8081 C   0  0  0  0  0  0  0  0  0  0  0  0
   27.6216  -20.3394   -8.0858 C   0  0  0  0  0  0  0  0  0  0  0  0
   27.0133  -20.7953   -9.3561 C   0  0  2  0  0  0  0  0  0  0  0  0
   27.9554  -20.5004  -10.4729 N   0  0  0  0  0  0  0  0  0  0  0  0
   25.7163  -20.1825   -9.6408 C   0  0  0  0  0  0  0  0  0  0  0  0
   25.5557  -18.9615   -9.6996 O   0  0  0  0  0  0  0  0  0  0  0  0
   24.5571  -21.0129   -9.8666 N   0  0  0  0  0  0  0  0  0  0  0  0
   23.2268  -20.4247  -10.0725 C   0  0  1  0  0  0  0  0  0  0  0  0
   23.4258  -19.3807  -11.1300 C   0  0  0  0  0  0  0  0  0  0  0  0
   23.5409  -19.8740  -12.4906 C   0  0  0  0  0  0  0  0  0  0  0  0
   22.8329  -20.9778  -12.9682 C   0  0  0  0  0  0  0  0  0  0  0  0
   23.2007  -21.1701  -14.2344 N   0  0  0  0  0  0  0  0  0  0  0  0
   24.1113  -20.2441  -14.5990 C   0  0  0  0  0  0  0  0  0  0  0  0
   24.7896  -19.9862  -15.7710 C   0  0  0  0  0  0  0  0  0  0  0  0
   25.6678  -18.9370  -15.8628 C   0  0  0  0  0  0  0  0  0  0  0  0
   25.8879  -18.1231  -14.7887 C   0  0  0  0  0  0  0  0  0  0  0  0
   25.2180  -18.3743  -13.6221 C   0  0  0  0  0  0  0  0  0  0  0  0
   24.3361  -19.4132  -13.4982 C   0  0  0  0  0  0  0  0  0  0  0  0
   22.2404  -21.4487  -10.3889 C   0  0  0  0  0  0  0  0  0  0  0  0
   22.6618  -22.6190  -10.6614 O   0  0  0  0  0  0  0  0  0  0  0  0
   20.8749  -21.2906  -10.4223 O   0  0  0  0  0  0  0  0  0  0  0  0
  2  1  1  0
  3  2  2  0
  4  2  1  0
  5  4  1  0
  6  5  1  0
  6  7  1  6
  8  9  2  0
  8  6  1  0
 10 11  1  0
 12 11  1  0
 12 13  1  0
 14 13  1  1
 14 16  1  0
 14 15  1  0
 15  8  1  0
 16 18  1  0
 17 16  2  0
 18 19  1  0
 19 30  1  0
 20 21  1  0
 19 20  1  6
 21 29  1  0
 22 23  1  0
 22 21  2  0
 23 24  1  0
 24 29  2  0
 24 25  1  0
 25 26  2  0
 26 27  1  0
 28 27  2  0
 29 28  1  0
 30 31  2  0
 30 32  1  0
M  END
$$$$
