QMW.pdb
     RDKit          3D

 32 33  0  0  1  0  0  0  0  0999 V2000
   25.3610  -17.3875  -20.2601 N   0  0  0  0  0  0  0  0  0  0  0  0
   24.7589  -16.2975  -19.5602 C   0  0  0  0  0  0  0  0  0  0  0  0
   24.4824  -15.2037  -20.0640 O   0  0  0  0  0  0  0  0  0  0  0  0
   24.4548  -16.5336  -18.1117 C   0  0  0  0  0  0  0  0  0  0  0  0
   24.9212  -17.8878  -17.6961 C   0  0  0  0  0  0  0  0  0  0  0  0
   24.9490  -18.1192  -16.2144 C   0  0  2  0  0  0  0  0  0  0  0  0
   25.4811  -16.9445  -15.5210 N   0  0  0  0  0  0  0  0  0  0  0  0
   25.6934  -19.3364  -15.8412 C   0  0  0  0  0  0  0  0  0  0  0  0
   25.2944  -20.4467  -16.2658 O   0  0  0  0  0  0  0  0  0  0  0  0
   27.6968  -21.6555  -18.7428 C   0  0  0  0  0  0  0  0  0  0  0  0
   28.9681  -21.9528  -17.5018 S   0  0  0  0  0  0  0  0  0  0  0  0
   29.3459  -20.5126  -16.5267 C   0  0  0  0  0  0  0  0  0  0  0  0
   28.9428  -20.5208  -15.1014 C   0  0  0  0  0  0  0  0  0  0  0  0
   27.5150  -20.6228  -14.7237 C   0  0  2  0  0  0  0  0  0  0  0  0
   26.8453  -19.3250  -15.0219 N   0  0  0  0  0  0  0  0  0  0  0  0
   27.3011  -20.9676  -13.3186 C   0  0  0  0  0  0  0  0  0  0  0  0
   28.2241  -21.2723  -12.5602 O   0  0  0  0  0  0  0  0  0  0  0  0
   25.9672  -20.9609  -12.7664 N   0  0  0  0  0  0  0  0  0  0  0  0
   25.7234  -21.3035  -11.3588 C   0  0  1  0  0  0  0  0  0  0  0  0
   26.6400  -20.4089  -10.5794 C   0  0  0  0  0  0  0  0  0  0  0  0
   26.4042  -20.3565   -9.1478 C   0  0  0  0  0  0  0  0  0  0  0  0
   25.1302  -20.3912   -8.5790 C   0  0  0  0  0  0  0  0  0  0  0  0
   25.2801  -20.2911   -7.2588 N   0  0  0  0  0  0  0  0  0  0  0  0
   26.5888  -20.1942   -6.9461 C   0  0  0  0  0  0  0  0  0  0  0  0
   27.2777  -20.0866   -5.7570 C   0  0  0  0  0  0  0  0  0  0  0  0
   28.6473  -20.0215   -5.7375 C   0  0  0  0  0  0  0  0  0  0  0  0
   29.3585  -20.0624   -6.9025 C   0  0  0  0  0  0  0  0  0  0  0  0
   28.6802  -20.1685   -8.0863 C   0  0  0  0  0  0  0  0  0  0  0  0
   27.3145  -20.2349   -8.1395 C   0  0  0  0  0  0  0  0  0  0  0  0
   24.3104  -21.1874  -11.0247 C   0  0  0  0  0  0  0  0  0  0  0  0
   23.6008  -20.3788  -11.7058 O   0  0  0  0  0  0  0  0  0  0  0  0
   23.6416  -21.8718  -10.0373 O   0  0  0  0  0  0  0  0  0  0  0  0
  2  1  1  0
  3  2  2  0
  4  2  1  0
  5  4  1  0
  6  5  1  0
  6  7  1  1
  8  9  2  0
  8  6  1  0
 10 11  1  0
 12 11  1  0
 12 13  1  0
 14 13  1  1
 14 16  1  0
 14 15  1  0
 15  8  1  0
 16 18  1  0
 17 16  2  0
 18 19  1  0
 19 30  1  0
 20 21  1  0
 19 20  1  1
 21 29  1  0
 22 23  1  0
 22 21  2  0
 23 24  1  0
 24 29  2  0
 24 25  1  0
 25 26  2  0
 26 27  1  0
 28 27  2  0
 29 28  1  0
 30 31  2  0
 30 32  1  0
M  END
$$$$
