QMW.pdb
     RDKit          3D

 32 33  0  0  1  0  0  0  0  0999 V2000
   26.4999  -32.1317  -16.0630 N   0  0  0  0  0  0  0  0  0  0  0  0
   27.9078  -31.8913  -16.0876 C   0  0  0  0  0  0  0  0  0  0  0  0
   28.5006  -31.2678  -16.9745 O   0  0  0  0  0  0  0  0  0  0  0  0
   28.6908  -32.4507  -14.9385 C   0  0  0  0  0  0  0  0  0  0  0  0
   27.7755  -33.0740  -13.9396 C   0  0  0  0  0  0  0  0  0  0  0  0
   28.4610  -33.7339  -12.7801 C   0  0  2  0  0  0  0  0  0  0  0  0
   29.1250  -34.9662  -13.2096 N   0  0  0  0  0  0  0  0  0  0  0  0
   27.5494  -33.9903  -11.6494 C   0  0  0  0  0  0  0  0  0  0  0  0
   26.8214  -35.0108  -11.6754 O   0  0  0  0  0  0  0  0  0  0  0  0
   28.3925  -32.6485   -5.2365 C   0  0  0  0  0  0  0  0  0  0  0  0
   26.6369  -32.3161   -5.4644 S   0  0  0  0  0  0  0  0  0  0  0  0
   25.9964  -32.9532   -6.9978 C   0  0  0  0  0  0  0  0  0  0  0  0
   26.8687  -32.8786   -8.1926 C   0  0  0  0  0  0  0  0  0  0  0  0
   26.4362  -33.4715   -9.4783 C   0  0  2  0  0  0  0  0  0  0  0  0
   27.4467  -33.1419  -10.5233 N   0  0  0  0  0  0  0  0  0  0  0  0
   25.1168  -33.0210   -9.9199 C   0  0  0  0  0  0  0  0  0  0  0  0
   24.9567  -32.0269  -10.6314 O   0  0  0  0  0  0  0  0  0  0  0  0
   23.9336  -33.7474   -9.5239 N   0  0  0  0  0  0  0  0  0  0  0  0
   22.6064  -33.3781  -10.0337 C   0  0  1  0  0  0  0  0  0  0  0  0
   22.7757  -33.2866  -11.5206 C   0  0  0  0  0  0  0  0  0  0  0  0
   21.5810  -32.9468  -12.2724 C   0  0  0  0  0  0  0  0  0  0  0  0
   20.7447  -31.8796  -11.9413 C   0  0  0  0  0  0  0  0  0  0  0  0
   19.7362  -31.8783  -12.8123 N   0  0  0  0  0  0  0  0  0  0  0  0
   19.8800  -32.8918  -13.6907 C   0  0  0  0  0  0  0  0  0  0  0  0
   19.1464  -33.3226  -14.7752 C   0  0  0  0  0  0  0  0  0  0  0  0
   19.5509  -34.4020  -15.5181 C   0  0  0  0  0  0  0  0  0  0  0  0
   20.6949  -35.0742  -15.1955 C   0  0  0  0  0  0  0  0  0  0  0  0
   21.4273  -34.6517  -14.1194 C   0  0  0  0  0  0  0  0  0  0  0  0
   21.0504  -33.5791  -13.3580 C   0  0  0  0  0  0  0  0  0  0  0  0
   21.5877  -34.3159   -9.5815 C   0  0  0  0  0  0  0  0  0  0  0  0
   21.9428  -35.5167   -9.3505 O   0  0  0  0  0  0  0  0  0  0  0  0
   20.2574  -34.0423   -9.3669 O   0  0  0  0  0  0  0  0  0  0  0  0
  2  1  1  0
  3  2  2  0
  4  2  1  0
  5  4  1  0
  6  5  1  0
  6  7  1  6
  8  9  2  0
  8  6  1  0
 10 11  1  0
 12 11  1  0
 12 13  1  0
 14 13  1  1
 14 16  1  0
 14 15  1  0
 15  8  1  0
 16 18  1  0
 17 16  2  0
 18 19  1  0
 19 30  1  0
 20 21  1  0
 19 20  1  6
 21 29  1  0
 22 23  1  0
 22 21  2  0
 23 24  1  0
 24 29  2  0
 24 25  1  0
 25 26  2  0
 26 27  1  0
 28 27  2  0
 29 28  1  0
 30 31  2  0
 30 32  1  0
M  END
$$$$
