QMW.pdb
     RDKit          3D

 32 33  0  0  1  0  0  0  0  0999 V2000
   11.6465  -12.3976    7.3194 N   0  0  0  0  0  0  0  0  0  0  0  0
   11.3693  -11.2520    6.5123 C   0  0  0  0  0  0  0  0  0  0  0  0
   10.3252  -10.5930    6.5595 O   0  0  0  0  0  0  0  0  0  0  0  0
   12.4454  -10.8495    5.5498 C   0  0  0  0  0  0  0  0  0  0  0  0
   13.6048  -11.7827    5.6457 C   0  0  0  0  0  0  0  0  0  0  0  0
   14.7845  -11.4139    4.7960 C   0  0  2  0  0  0  0  0  0  0  0  0
   14.4615  -11.5641    3.3758 N   0  0  0  0  0  0  0  0  0  0  0  0
   15.9991  -12.1738    5.1457 C   0  0  0  0  0  0  0  0  0  0  0  0
   16.2147  -13.2700    4.5766 O   0  0  0  0  0  0  0  0  0  0  0  0
   21.3413  -11.4362   10.1707 C   0  0  0  0  0  0  0  0  0  0  0  0
   21.5761  -11.3002    8.3900 S   0  0  0  0  0  0  0  0  0  0  0  0
   20.4636  -12.3286    7.4560 C   0  0  0  0  0  0  0  0  0  0  0  0
   19.1837  -11.7312    7.0100 C   0  0  0  0  0  0  0  0  0  0  0  0
   18.1731  -12.5544    6.3081 C   0  0  2  0  0  0  0  0  0  0  0  0
   16.9469  -11.7334    6.0976 N   0  0  0  0  0  0  0  0  0  0  0  0
   17.8185  -13.7828    7.0180 C   0  0  0  0  0  0  0  0  0  0  0  0
   17.0250  -13.8009    7.9615 O   0  0  0  0  0  0  0  0  0  0  0  0
   18.4039  -15.0420    6.6230 N   0  0  0  0  0  0  0  0  0  0  0  0
   18.1784  -16.2656    7.4040 C   0  0  1  0  0  0  0  0  0  0  0  0
   17.7751  -17.2988    6.3952 C   0  0  0  0  0  0  0  0  0  0  0  0
   17.4205  -18.6004    6.9316 C   0  0  0  0  0  0  0  0  0  0  0  0
   16.2711  -18.8299    7.6893 C   0  0  0  0  0  0  0  0  0  0  0  0
   16.2767  -20.1146    8.0431 N   0  0  0  0  0  0  0  0  0  0  0  0
   17.3730  -20.7271    7.5505 C   0  0  0  0  0  0  0  0  0  0  0  0
   17.8466  -22.0204    7.6065 C   0  0  0  0  0  0  0  0  0  0  0  0
   19.0146  -22.3727    6.9802 C   0  0  0  0  0  0  0  0  0  0  0  0
   19.7346  -21.4434    6.2854 C   0  0  0  0  0  0  0  0  0  0  0  0
   19.2699  -20.1576    6.2267 C   0  0  0  0  0  0  0  0  0  0  0  0
   18.1089  -19.7742    6.8411 C   0  0  0  0  0  0  0  0  0  0  0  0
   19.3471  -16.6031    8.2051 C   0  0  0  0  0  0  0  0  0  0  0  0
   19.2040  -17.4568    9.1390 O   0  0  0  0  0  0  0  0  0  0  0  0
   20.6166  -16.0953    8.0594 O   0  0  0  0  0  0  0  0  0  0  0  0
  2  1  1  0
  3  2  2  0
  4  2  1  0
  5  4  1  0
  6  5  1  0
  6  7  1  6
  8  9  2  0
  8  6  1  0
 10 11  1  0
 12 11  1  0
 12 13  1  0
 14 13  1  1
 14 16  1  0
 14 15  1  0
 15  8  1  0
 16 18  1  0
 17 16  2  0
 18 19  1  0
 19 30  1  0
 20 21  1  0
 19 20  1  6
 21 29  1  0
 22 23  1  0
 22 21  2  0
 23 24  1  0
 24 29  2  0
 24 25  1  0
 25 26  2  0
 26 27  1  0
 28 27  2  0
 29 28  1  0
 30 31  2  0
 30 32  1  0
M  END
$$$$
