QMW.pdb
     RDKit          3D

 32 33  0  0  1  0  0  0  0  0999 V2000
   22.9570  -20.6867  -16.1484 N   0  0  0  0  0  0  0  0  0  0  0  0
   22.6488  -21.2102  -17.4412 C   0  0  0  0  0  0  0  0  0  0  0  0
   21.8613  -20.6936  -18.2410 O   0  0  0  0  0  0  0  0  0  0  0  0
   23.3501  -22.4792  -17.8213 C   0  0  0  0  0  0  0  0  0  0  0  0
   24.3610  -22.8446  -16.7876 C   0  0  0  0  0  0  0  0  0  0  0  0
   25.7376  -22.3006  -17.0303 C   0  0  2  0  0  0  0  0  0  0  0  0
   26.4661  -23.1495  -17.9751 N   0  0  0  0  0  0  0  0  0  0  0  0
   26.5054  -22.1152  -15.7848 C   0  0  0  0  0  0  0  0  0  0  0  0
   27.3102  -23.0083  -15.4286 O   0  0  0  0  0  0  0  0  0  0  0  0
   30.3163  -21.6805  -11.2372 C   0  0  0  0  0  0  0  0  0  0  0  0
   30.4818  -20.2911  -12.3718 S   0  0  0  0  0  0  0  0  0  0  0  0
   28.9591  -19.4034  -12.6191 C   0  0  0  0  0  0  0  0  0  0  0  0
   28.1250  -19.7778  -13.7845 C   0  0  0  0  0  0  0  0  0  0  0  0
   27.1895  -20.9223  -13.7037 C   0  0  2  0  0  0  0  0  0  0  0  0
   26.3856  -20.9751  -14.9578 N   0  0  0  0  0  0  0  0  0  0  0  0
   26.2894  -20.8665  -12.5524 C   0  0  0  0  0  0  0  0  0  0  0  0
   25.4015  -20.0182  -12.4422 O   0  0  0  0  0  0  0  0  0  0  0  0
   26.4196  -21.8290  -11.4842 N   0  0  0  0  0  0  0  0  0  0  0  0
   25.8393  -21.5789  -10.1581 C   0  0  1  0  0  0  0  0  0  0  0  0
   27.0165  -21.3473   -9.2589 C   0  0  0  0  0  0  0  0  0  0  0  0
   26.7035  -20.9387   -7.9014 C   0  0  0  0  0  0  0  0  0  0  0  0
   25.4915  -21.2300   -7.2735 C   0  0  0  0  0  0  0  0  0  0  0  0
   25.5294  -20.6814   -6.0598 N   0  0  0  0  0  0  0  0  0  0  0  0
   26.7068  -20.0505   -5.8719 C   0  0  0  0  0  0  0  0  0  0  0  0
   27.2542  -19.3513   -4.8176 C   0  0  0  0  0  0  0  0  0  0  0  0
   28.5149  -18.8184   -4.9020 C   0  0  0  0  0  0  0  0  0  0  0  0
   29.2560  -18.9714   -6.0387 C   0  0  0  0  0  0  0  0  0  0  0  0
   28.7178  -19.6641   -7.0891 C   0  0  0  0  0  0  0  0  0  0  0  0
   27.4629  -20.2071   -7.0366 C   0  0  0  0  0  0  0  0  0  0  0  0
   24.8694  -20.4931  -10.2029 C   0  0  0  0  0  0  0  0  0  0  0  0
   25.2675  -19.3539  -10.6090 O   0  0  0  0  0  0  0  0  0  0  0  0
   23.5416  -20.5637   -9.8525 O   0  0  0  0  0  0  0  0  0  0  0  0
  2  1  1  0
  3  2  2  0
  4  2  1  0
  5  4  1  0
  6  5  1  0
  6  7  1  6
  8  9  2  0
  8  6  1  0
 10 11  1  0
 12 11  1  0
 12 13  1  0
 14 13  1  6
 14 16  1  0
 14 15  1  0
 15  8  1  0
 16 18  1  0
 17 16  2  0
 18 19  1  0
 19 30  1  0
 20 21  1  0
 19 20  1  1
 21 29  1  0
 22 23  1  0
 22 21  2  0
 23 24  1  0
 24 29  2  0
 24 25  1  0
 25 26  2  0
 26 27  1  0
 28 27  2  0
 29 28  1  0
 30 31  2  0
 30 32  1  0
M  END
$$$$
