APV.pdb
     RDKit          3D

 20 20  0  0  1  0  0  0  0  0999 V2000
    7.0617  -17.4242   17.7999 C   0  0  0  0  0  0  0  0  0  0  0  0
    8.0662  -16.3949   17.2674 C   0  0  2  0  0  0  0  0  0  0  0  0
    8.8514  -16.9857   16.2164 N   0  0  0  0  0  0  0  0  0  0  0  0
    8.8408  -15.9241   18.4271 C   0  0  0  0  0  0  0  0  0  0  0  0
    9.9466  -16.5077   18.6353 O   0  0  0  0  0  0  0  0  0  0  0  0
    8.4456  -14.8970   19.2948 N   0  0  0  0  0  0  0  0  0  0  0  0
    7.2100  -14.1616   19.2328 C   0  0  0  0  0  0  0  0  0  0  0  0
    7.1692  -13.3988   20.5269 C   0  0  0  0  0  0  0  0  0  0  0  0
    8.6232  -13.0420   20.7373 C   0  0  0  0  0  0  0  0  0  0  0  0
    9.2454  -14.4124   20.4158 C   0  0  1  0  0  0  0  0  0  0  0  0
    9.0848  -15.2364   21.6132 C   0  0  0  0  0  0  0  0  0  0  0  0
    7.9625  -15.7326   21.9255 O   0  0  0  0  0  0  0  0  0  0  0  0
   11.1405  -18.3570   22.1059 C   0  0  0  0  0  0  0  0  0  0  0  0
   11.1663  -17.6320   23.4362 C   0  0  1  0  0  0  0  0  0  0  0  0
   12.5234  -16.9655   23.5552 C   0  0  0  0  0  0  0  0  0  0  0  0
   10.1203  -16.6065   23.4745 C   0  0  2  0  0  0  0  0  0  0  0  0
   10.1109  -15.5673   22.5287 N   0  0  0  0  0  0  0  0  0  0  0  0
   10.0738  -16.0232   24.8381 C   0  0  0  0  0  0  0  0  0  0  0  0
   10.3384  -14.8055   24.9778 O   0  0  0  0  0  0  0  0  0  0  0  0
    9.7575  -16.7252   25.9827 O   0  0  0  0  0  0  0  0  0  0  0  0
  2  4  1  0
  2  1  1  1
  3  2  1  0
  4  5  2  0
  6  4  1  0
  6 10  1  0
  7  6  1  0
  7  8  1  0
  8  9  1  0
 10 11  1  1
 10  9  1  0
 11 12  2  0
 11 17  1  0
 14 13  1  6
 14 15  1  0
 14 16  1  0
 16 18  1  0
 16 17  1  6
 18 19  2  0
 18 20  1  0
M  END
$$$$
