APV.pdb
     RDKit          3D

 20 20  0  0  1  0  0  0  0  0999 V2000
    7.7510  -16.8669   16.5586 C   0  0  0  0  0  0  0  0  0  0  0  0
    8.6078  -15.6330   16.2496 C   0  0  2  0  0  0  0  0  0  0  0  0
    9.4888  -15.9204   15.1488 N   0  0  0  0  0  0  0  0  0  0  0  0
    9.2856  -15.2667   17.5037 C   0  0  0  0  0  0  0  0  0  0  0  0
   10.4605  -15.7170   17.6569 O   0  0  0  0  0  0  0  0  0  0  0  0
    8.7305  -14.4710   18.5152 N   0  0  0  0  0  0  0  0  0  0  0  0
    7.4011  -13.9198   18.5283 C   0  0  0  0  0  0  0  0  0  0  0  0
    7.2291  -13.4045   19.9294 C   0  0  0  0  0  0  0  0  0  0  0  0
    8.6114  -12.8853   20.2543 C   0  0  0  0  0  0  0  0  0  0  0  0
    9.4334  -14.0771   19.7324 C   0  0  1  0  0  0  0  0  0  0  0  0
    9.3783  -15.1089   20.7672 C   0  0  0  0  0  0  0  0  0  0  0  0
    8.3803  -15.8808   20.8752 O   0  0  0  0  0  0  0  0  0  0  0  0
   12.5104  -17.4167   21.3170 C   0  0  0  0  0  0  0  0  0  0  0  0
   11.9030  -17.0977   22.6680 C   0  0  1  0  0  0  0  0  0  0  0  0
   12.8037  -16.0740   23.3320 C   0  0  0  0  0  0  0  0  0  0  0  0
   10.5647  -16.5254   22.4992 C   0  0  2  0  0  0  0  0  0  0  0  0
   10.3821  -15.3633   21.7307 N   0  0  0  0  0  0  0  0  0  0  0  0
    9.9604  -16.3220   23.8392 C   0  0  0  0  0  0  0  0  0  0  0  0
    9.8511  -17.3103   24.6030 O   0  0  0  0  0  0  0  0  0  0  0  0
    9.5021  -15.1126   24.3190 O   0  0  0  0  0  0  0  0  0  0  0  0
  2  4  1  0
  2  1  1  1
  3  2  1  0
  4  5  2  0
  6  4  1  0
  6 10  1  0
  7  6  1  0
  7  8  1  0
  8  9  1  0
 10 11  1  1
 10  9  1  0
 11 12  2  0
 11 17  1  0
 14 13  1  6
 14 15  1  0
 14 16  1  0
 16 18  1  0
 16 17  1  1
 18 19  2  0
 18 20  1  0
M  END
$$$$
