APV.pdb
     RDKit          3D

 20 20  0  0  1  0  0  0  0  0999 V2000
    7.1498  -16.2203   21.7892 C   0  0  0  0  0  0  0  0  0  0  0  0
    7.8371  -14.8599   21.6184 C   0  0  2  0  0  0  0  0  0  0  0  0
    8.7952  -14.9342   20.5476 N   0  0  0  0  0  0  0  0  0  0  0  0
    8.4032  -14.5070   22.9305 C   0  0  0  0  0  0  0  0  0  0  0  0
    9.6482  -14.6984   23.0723 O   0  0  0  0  0  0  0  0  0  0  0  0
    7.6735  -13.9850   24.0072 N   0  0  0  0  0  0  0  0  0  0  0  0
    6.2661  -13.6839   24.0124 C   0  0  0  0  0  0  0  0  0  0  0  0
    5.9491  -13.4270   25.4587 C   0  0  0  0  0  0  0  0  0  0  0  0
    7.1995  -12.7295   25.9443 C   0  0  0  0  0  0  0  0  0  0  0  0
    8.2452  -13.6648   25.3116 C   0  0  1  0  0  0  0  0  0  0  0  0
    8.3403  -14.8361   26.1819 C   0  0  0  0  0  0  0  0  0  0  0  0
    7.9736  -15.9819   25.7865 O   0  0  0  0  0  0  0  0  0  0  0  0
   11.7935  -15.9064   29.5792 C   0  0  0  0  0  0  0  0  0  0  0  0
   10.5196  -15.1301   29.3139 C   0  0  1  0  0  0  0  0  0  0  0  0
   10.8874  -13.6588   29.3036 C   0  0  0  0  0  0  0  0  0  0  0  0
    9.9651  -15.4977   28.0084 C   0  0  2  0  0  0  0  0  0  0  0  0
    8.8291  -14.8384   27.5091 N   0  0  0  0  0  0  0  0  0  0  0  0
    9.7259  -16.9621   27.9869 C   0  0  0  0  0  0  0  0  0  0  0  0
    8.5594  -17.3811   28.1769 O   0  0  0  0  0  0  0  0  0  0  0  0
   10.7003  -17.9144   27.7711 O   0  0  0  0  0  0  0  0  0  0  0  0
  2  4  1  0
  2  1  1  1
  3  2  1  0
  4  5  2  0
  6  4  1  0
  6 10  1  0
  7  6  1  0
  7  8  1  0
  8  9  1  0
 10 11  1  1
 10  9  1  0
 11 12  2  0
 11 17  1  0
 14 13  1  6
 14 15  1  0
 14 16  1  0
 16 18  1  0
 16 17  1  1
 18 19  2  0
 18 20  1  0
M  END
$$$$
