APV.pdb
     RDKit          3D

 20 20  0  0  1  0  0  0  0  0999 V2000
    4.9639  -17.0538   21.5262 C   0  0  0  0  0  0  0  0  0  0  0  0
    6.2533  -17.1499   20.7015 C   0  0  2  0  0  0  0  0  0  0  0  0
    6.6344  -18.5302   20.5605 N   0  0  0  0  0  0  0  0  0  0  0  0
    7.2483  -16.3002   21.3757 C   0  0  0  0  0  0  0  0  0  0  0  0
    7.9007  -16.8426   22.3176 O   0  0  0  0  0  0  0  0  0  0  0  0
    7.5157  -14.9632   21.0520 N   0  0  0  0  0  0  0  0  0  0  0  0
    6.7680  -14.1465   20.1324 C   0  0  0  0  0  0  0  0  0  0  0  0
    7.2896  -12.7565   20.3652 C   0  0  0  0  0  0  0  0  0  0  0  0
    8.7564  -13.0034   20.6360 C   0  0  0  0  0  0  0  0  0  0  0  0
    8.6146  -14.1835   21.6135 C   0  0  1  0  0  0  0  0  0  0  0  0
    8.2827  -13.6098   22.9171 C   0  0  0  0  0  0  0  0  0  0  0  0
    7.6872  -12.4966   23.0143 O   0  0  0  0  0  0  0  0  0  0  0  0
    6.1159  -14.2117   26.0884 C   0  0  0  0  0  0  0  0  0  0  0  0
    7.1020  -13.0863   25.8496 C   0  0  1  0  0  0  0  0  0  0  0  0
    7.2567  -12.3422   27.1620 C   0  0  0  0  0  0  0  0  0  0  0  0
    8.4021  -13.6291   25.4467 C   0  0  2  0  0  0  0  0  0  0  0  0
    8.5700  -14.1958   24.1719 N   0  0  0  0  0  0  0  0  0  0  0  0
    8.8523  -14.6009   26.4738 C   0  0  0  0  0  0  0  0  0  0  0  0
    8.9417  -15.8104   26.1552 O   0  0  0  0  0  0  0  0  0  0  0  0
    9.1856  -14.2744   27.7720 O   0  0  0  0  0  0  0  0  0  0  0  0
  2  4  1  0
  2  1  1  1
  3  2  1  0
  4  5  2  0
  6  4  1  0
  6 10  1  0
  7  6  1  0
  7  8  1  0
  8  9  1  0
 10 11  1  1
 10  9  1  0
 11 12  2  0
 11 17  1  0
 14 13  1  1
 14 15  1  0
 14 16  1  0
 16 18  1  0
 16 17  1  6
 18 19  2  0
 18 20  1  0
M  END
$$$$
