APV.pdb
     RDKit          3D

 20 20  0  0  1  0  0  0  0  0999 V2000
    7.6599  -16.9174   21.8403 C   0  0  0  0  0  0  0  0  0  0  0  0
    8.0058  -15.4699   21.4697 C   0  0  2  0  0  0  0  0  0  0  0  0
    8.8833  -15.4601   20.3295 N   0  0  0  0  0  0  0  0  0  0  0  0
    8.5611  -14.8465   22.6819 C   0  0  0  0  0  0  0  0  0  0  0  0
    9.8255  -14.8127   22.7645 O   0  0  0  0  0  0  0  0  0  0  0  0
    7.8016  -14.3002   23.7254 N   0  0  0  0  0  0  0  0  0  0  0  0
    6.3648  -14.2500   23.7936 C   0  0  0  0  0  0  0  0  0  0  0  0
    6.0769  -13.8336   25.2086 C   0  0  0  0  0  0  0  0  0  0  0  0
    7.2013  -12.8643   25.4949 C   0  0  0  0  0  0  0  0  0  0  0  0
    8.3680  -13.6901   24.9245 C   0  0  1  0  0  0  0  0  0  0  0  0
    8.7172  -14.6802   25.9425 C   0  0  0  0  0  0  0  0  0  0  0  0
    8.4712  -15.9111   25.7759 O   0  0  0  0  0  0  0  0  0  0  0  0
   10.0424  -14.0634   30.0207 C   0  0  0  0  0  0  0  0  0  0  0  0
   11.0155  -14.6357   29.0100 C   0  0  1  0  0  0  0  0  0  0  0  0
   11.7739  -15.7515   29.7028 C   0  0  0  0  0  0  0  0  0  0  0  0
   10.2889  -15.1861   27.8628 C   0  0  2  0  0  0  0  0  0  0  0  0
    9.3426  -14.4030   27.1805 N   0  0  0  0  0  0  0  0  0  0  0  0
    9.6588  -16.4672   28.2674 C   0  0  0  0  0  0  0  0  0  0  0  0
    8.4227  -16.4865   28.4776 O   0  0  0  0  0  0  0  0  0  0  0  0
   10.3354  -17.6579   28.4332 O   0  0  0  0  0  0  0  0  0  0  0  0
  2  4  1  0
  2  1  1  1
  3  2  1  0
  4  5  2  0
  6  4  1  0
  6 10  1  0
  7  6  1  0
  7  8  1  0
  8  9  1  0
 10 11  1  1
 10  9  1  0
 11 12  2  0
 11 17  1  0
 14 13  1  1
 14 15  1  0
 14 16  1  0
 16 18  1  0
 16 17  1  1
 18 19  2  0
 18 20  1  0
M  END
$$$$
