APV.pdb
     RDKit          3D

 20 20  0  0  1  0  0  0  0  0999 V2000
    7.1897  -16.2563   21.8224 C   0  0  0  0  0  0  0  0  0  0  0  0
    7.8131  -14.8720   21.6050 C   0  0  2  0  0  0  0  0  0  0  0  0
    8.7212  -14.9213   20.4900 N   0  0  0  0  0  0  0  0  0  0  0  0
    8.4267  -14.4813   22.8846 C   0  0  0  0  0  0  0  0  0  0  0  0
    9.6856  -14.6074   22.9628 O   0  0  0  0  0  0  0  0  0  0  0  0
    7.7272  -13.9902   23.9953 N   0  0  0  0  0  0  0  0  0  0  0  0
    6.2986  -13.8563   24.1075 C   0  0  0  0  0  0  0  0  0  0  0  0
    6.0690  -13.5594   25.5627 C   0  0  0  0  0  0  0  0  0  0  0  0
    7.2602  -12.6946   25.9075 C   0  0  0  0  0  0  0  0  0  0  0  0
    8.3579  -13.5341   25.2302 C   0  0  1  0  0  0  0  0  0  0  0  0
    8.6635  -14.6367   26.1409 C   0  0  0  0  0  0  0  0  0  0  0  0
    8.3355  -15.8284   25.8657 O   0  0  0  0  0  0  0  0  0  0  0  0
   11.4191  -13.4910   29.0591 C   0  0  0  0  0  0  0  0  0  0  0  0
   11.0638  -14.9630   29.1141 C   0  0  1  0  0  0  0  0  0  0  0  0
   10.1708  -15.1618   30.3238 C   0  0  0  0  0  0  0  0  0  0  0  0
   10.3327  -15.3531   27.9057 C   0  0  2  0  0  0  0  0  0  0  0  0
    9.3306  -14.5185   27.3825 N   0  0  0  0  0  0  0  0  0  0  0  0
    9.7772  -16.7148   28.1029 C   0  0  0  0  0  0  0  0  0  0  0  0
    8.5314  -16.8562   28.1230 O   0  0  0  0  0  0  0  0  0  0  0  0
   10.5344  -17.8560   28.2684 O   0  0  0  0  0  0  0  0  0  0  0  0
  2  4  1  0
  2  1  1  1
  3  2  1  0
  4  5  2  0
  6  4  1  0
  6 10  1  0
  7  6  1  0
  7  8  1  0
  8  9  1  0
 10 11  1  1
 10  9  1  0
 11 12  2  0
 11 17  1  0
 14 13  1  6
 14 15  1  0
 14 16  1  0
 16 18  1  0
 16 17  1  1
 18 19  2  0
 18 20  1  0
M  END
$$$$
