APV.pdb
     RDKit          3D

 20 20  0  0  1  0  0  0  0  0999 V2000
    5.5361  -17.6144   21.9307 C   0  0  0  0  0  0  0  0  0  0  0  0
    6.7138  -17.4459   20.9628 C   0  0  2  0  0  0  0  0  0  0  0  0
    7.2947  -18.7318   20.6809 N   0  0  0  0  0  0  0  0  0  0  0  0
    7.6316  -16.4758   21.5817 C   0  0  0  0  0  0  0  0  0  0  0  0
    8.4768  -16.9485   22.3997 O   0  0  0  0  0  0  0  0  0  0  0  0
    7.6327  -15.0969   21.3315 N   0  0  0  0  0  0  0  0  0  0  0  0
    6.8422  -14.4131   20.3419 C   0  0  0  0  0  0  0  0  0  0  0  0
    7.0082  -12.9578   20.6784 C   0  0  0  0  0  0  0  0  0  0  0  0
    8.4477  -12.8944   21.1360 C   0  0  0  0  0  0  0  0  0  0  0  0
    8.4518  -14.1290   22.0548 C   0  0  1  0  0  0  0  0  0  0  0  0
    7.8409  -13.7137   23.3169 C   0  0  0  0  0  0  0  0  0  0  0  0
    6.9808  -12.7853   23.3581 O   0  0  0  0  0  0  0  0  0  0  0  0
    6.9885  -11.5860   25.4463 C   0  0  0  0  0  0  0  0  0  0  0  0
    7.3090  -12.7377   26.3775 C   0  0  1  0  0  0  0  0  0  0  0  0
    6.0377  -13.5491   26.5379 C   0  0  0  0  0  0  0  0  0  0  0  0
    8.3519  -13.5855   25.7940 C   0  0  2  0  0  0  0  0  0  0  0  0
    8.1189  -14.2680   24.5880 N   0  0  0  0  0  0  0  0  0  0  0  0
    8.8085  -14.5547   26.8207 C   0  0  0  0  0  0  0  0  0  0  0  0
    8.7529  -15.7789   26.5552 O   0  0  0  0  0  0  0  0  0  0  0  0
    9.2973  -14.2105   28.0639 O   0  0  0  0  0  0  0  0  0  0  0  0
  2  4  1  0
  2  1  1  1
  3  2  1  0
  4  5  2  0
  6  4  1  0
  6 10  1  0
  7  6  1  0
  7  8  1  0
  8  9  1  0
 10 11  1  1
 10  9  1  0
 11 12  2  0
 11 17  1  0
 14 13  1  6
 14 15  1  0
 14 16  1  0
 16 18  1  0
 16 17  1  6
 18 19  2  0
 18 20  1  0
M  END
$$$$
