APV.pdb
     RDKit          3D

 20 20  0  0  1  0  0  0  0  0999 V2000
    9.9807  -18.5686   22.0541 C   0  0  0  0  0  0  0  0  0  0  0  0
   10.5219  -17.4390   21.1692 C   0  0  2  0  0  0  0  0  0  0  0  0
   11.9480  -17.5734   21.0333 N   0  0  0  0  0  0  0  0  0  0  0  0
   10.0759  -16.1761   21.7795 C   0  0  0  0  0  0  0  0  0  0  0  0
   10.8728  -15.6436   22.6092 O   0  0  0  0  0  0  0  0  0  0  0  0
    8.8574  -15.5385   21.5095 N   0  0  0  0  0  0  0  0  0  0  0  0
    7.8772  -15.9557   20.5416 C   0  0  0  0  0  0  0  0  0  0  0  0
    6.6720  -15.1128   20.8502 C   0  0  0  0  0  0  0  0  0  0  0  0
    7.2941  -13.7943   21.2505 C   0  0  0  0  0  0  0  0  0  0  0  0
    8.3912  -14.3321   22.1863 C   0  0  1  0  0  0  0  0  0  0  0  0
    7.7446  -14.6242   23.4650 C   0  0  0  0  0  0  0  0  0  0  0  0
    7.6570  -15.8090   23.9032 O   0  0  0  0  0  0  0  0  0  0  0  0
    6.7823  -12.7178   27.9601 C   0  0  0  0  0  0  0  0  0  0  0  0
    6.5112  -12.5837   26.4753 C   0  0  1  0  0  0  0  0  0  0  0  0
    7.0435  -11.2303   26.0448 C   0  0  0  0  0  0  0  0  0  0  0  0
    7.2132  -13.6356   25.7353 C   0  0  2  0  0  0  0  0  0  0  0  0
    7.1639  -13.6688   24.3314 N   0  0  0  0  0  0  0  0  0  0  0  0
    6.7926  -14.9553   26.2678 C   0  0  0  0  0  0  0  0  0  0  0  0
    5.6866  -15.4222   25.9057 O   0  0  0  0  0  0  0  0  0  0  0  0
    7.5335  -15.7217   27.1433 O   0  0  0  0  0  0  0  0  0  0  0  0
  2  4  1  0
  2  1  1  1
  3  2  1  0
  4  5  2  0
  6  4  1  0
  6 10  1  0
  7  6  1  0
  7  8  1  0
  8  9  1  0
 10 11  1  1
 10  9  1  0
 11 12  2  0
 11 17  1  0
 14 13  1  1
 14 15  1  0
 14 16  1  0
 16 18  1  0
 16 17  1  6
 18 19  2  0
 18 20  1  0
M  END
$$$$
