APV.pdb
     RDKit          3D

 20 20  0  0  1  0  0  0  0  0999 V2000
    7.1381  -16.2767   21.8878 C   0  0  0  0  0  0  0  0  0  0  0  0
    7.6663  -14.8495   21.6969 C   0  0  2  0  0  0  0  0  0  0  0  0
    8.5354  -14.8056   20.5510 N   0  0  0  0  0  0  0  0  0  0  0  0
    8.2996  -14.4619   22.9678 C   0  0  0  0  0  0  0  0  0  0  0  0
    9.5592  -14.5912   23.0274 O   0  0  0  0  0  0  0  0  0  0  0  0
    7.6178  -13.9701   24.0891 N   0  0  0  0  0  0  0  0  0  0  0  0
    6.1931  -13.8063   24.2120 C   0  0  0  0  0  0  0  0  0  0  0  0
    5.9788  -13.5237   25.6723 C   0  0  0  0  0  0  0  0  0  0  0  0
    7.1909  -12.6899   26.0210 C   0  0  0  0  0  0  0  0  0  0  0  0
    8.2657  -13.5444   25.3259 C   0  0  1  0  0  0  0  0  0  0  0  0
    8.5522  -14.6655   26.2202 C   0  0  0  0  0  0  0  0  0  0  0  0
    8.1592  -15.8389   25.9521 O   0  0  0  0  0  0  0  0  0  0  0  0
   11.5393  -13.5694   28.9453 C   0  0  0  0  0  0  0  0  0  0  0  0
   11.1224  -15.0231   29.0410 C   0  0  1  0  0  0  0  0  0  0  0  0
   10.2689  -15.1617   30.2869 C   0  0  0  0  0  0  0  0  0  0  0  0
   10.3290  -15.4006   27.8684 C   0  0  2  0  0  0  0  0  0  0  0  0
    9.2686  -14.5858   27.4372 N   0  0  0  0  0  0  0  0  0  0  0  0
    9.8324  -16.7865   28.0545 C   0  0  0  0  0  0  0  0  0  0  0  0
    8.6046  -16.9631   28.2381 O   0  0  0  0  0  0  0  0  0  0  0  0
   10.6268  -17.9142   28.0414 O   0  0  0  0  0  0  0  0  0  0  0  0
  2  4  1  0
  2  1  1  1
  3  2  1  0
  4  5  2  0
  6  4  1  0
  6 10  1  0
  7  6  1  0
  7  8  1  0
  8  9  1  0
 10 11  1  1
 10  9  1  0
 11 12  2  0
 11 17  1  0
 14 13  1  6
 14 15  1  0
 14 16  1  0
 16 18  1  0
 16 17  1  1
 18 19  2  0
 18 20  1  0
M  END
$$$$
