APV.pdb
     RDKit          3D

 20 20  0  0  1  0  0  0  0  0999 V2000
   11.3480  -18.6965   21.7553 C   0  0  0  0  0  0  0  0  0  0  0  0
   11.1249  -17.3516   21.0527 C   0  0  2  0  0  0  0  0  0  0  0  0
   12.3058  -16.9912   20.3140 N   0  0  0  0  0  0  0  0  0  0  0  0
   10.7325  -16.3915   22.0970 C   0  0  0  0  0  0  0  0  0  0  0  0
   11.6661  -15.6925   22.5936 O   0  0  0  0  0  0  0  0  0  0  0  0
    9.4254  -16.2034   22.5666 N   0  0  0  0  0  0  0  0  0  0  0  0
    8.2487  -16.8878   22.0991 C   0  0  0  0  0  0  0  0  0  0  0  0
    7.1902  -16.5302   23.1041 C   0  0  0  0  0  0  0  0  0  0  0  0
    7.5377  -15.0985   23.4434 C   0  0  0  0  0  0  0  0  0  0  0  0
    9.0568  -15.2668   23.6238 C   0  0  1  0  0  0  0  0  0  0  0  0
    9.2603  -15.8253   24.9599 C   0  0  0  0  0  0  0  0  0  0  0  0
    9.5128  -17.0546   25.1284 O   0  0  0  0  0  0  0  0  0  0  0  0
   10.9003  -14.7341   29.5096 C   0  0  0  0  0  0  0  0  0  0  0  0
    9.8403  -14.4054   28.4779 C   0  0  1  0  0  0  0  0  0  0  0  0
   10.1340  -13.0085   27.9656 C   0  0  0  0  0  0  0  0  0  0  0  0
    9.9088  -15.3526   27.3620 C   0  0  2  0  0  0  0  0  0  0  0  0
    9.2040  -15.1000   26.1729 N   0  0  0  0  0  0  0  0  0  0  0  0
    9.5520  -16.7039   27.8608 C   0  0  0  0  0  0  0  0  0  0  0  0
    8.3639  -17.0889   27.7495 O   0  0  0  0  0  0  0  0  0  0  0  0
   10.4378  -17.5845   28.4464 O   0  0  0  0  0  0  0  0  0  0  0  0
  2  4  1  0
  2  1  1  1
  3  2  1  0
  4  5  2  0
  6  4  1  0
  6 10  1  0
  7  6  1  0
  7  8  1  0
  8  9  1  0
 10 11  1  1
 10  9  1  0
 11 12  2  0
 11 17  1  0
 14 13  1  1
 14 15  1  0
 14 16  1  0
 16 18  1  0
 16 17  1  6
 18 19  2  0
 18 20  1  0
M  END
$$$$
