APV.pdb
     RDKit          3D

 20 20  0  0  1  0  0  0  0  0999 V2000
   10.0127  -18.3512   21.2728 C   0  0  0  0  0  0  0  0  0  0  0  0
   10.1233  -16.8893   20.8223 C   0  0  2  0  0  0  0  0  0  0  0  0
   11.2887  -16.7262   19.9944 N   0  0  0  0  0  0  0  0  0  0  0  0
   10.1149  -16.0704   22.0453 C   0  0  0  0  0  0  0  0  0  0  0  0
   11.2489  -15.7772   22.5299 O   0  0  0  0  0  0  0  0  0  0  0  0
    8.9629  -15.6042   22.6933 N   0  0  0  0  0  0  0  0  0  0  0  0
    7.6032  -15.8797   22.3101 C   0  0  0  0  0  0  0  0  0  0  0  0
    6.7860  -15.3902   23.4725 C   0  0  0  0  0  0  0  0  0  0  0  0
    7.5517  -14.1625   23.9111 C   0  0  0  0  0  0  0  0  0  0  0  0
    8.9722  -14.7538   23.8796 C   0  0  1  0  0  0  0  0  0  0  0  0
    9.1341  -15.5204   25.1144 C   0  0  0  0  0  0  0  0  0  0  0  0
    8.9555  -16.7738   25.1397 O   0  0  0  0  0  0  0  0  0  0  0  0
   11.0916  -13.4832   28.2058 C   0  0  0  0  0  0  0  0  0  0  0  0
   10.6062  -14.8640   28.5978 C   0  0  1  0  0  0  0  0  0  0  0  0
    9.3992  -14.6745   29.4963 C   0  0  0  0  0  0  0  0  0  0  0  0
   10.2071  -15.6177   27.4064 C   0  0  2  0  0  0  0  0  0  0  0  0
    9.4925  -14.9865   26.3741 N   0  0  0  0  0  0  0  0  0  0  0  0
    9.4706  -16.8326   27.8349 C   0  0  0  0  0  0  0  0  0  0  0  0
    8.2480  -16.9164   27.5696 O   0  0  0  0  0  0  0  0  0  0  0  0
   10.0331  -17.8942   28.5129 O   0  0  0  0  0  0  0  0  0  0  0  0
  2  4  1  0
  2  1  1  1
  3  2  1  0
  4  5  2  0
  6  4  1  0
  6 10  1  0
  7  6  1  0
  7  8  1  0
  8  9  1  0
 10 11  1  1
 10  9  1  0
 11 12  2  0
 11 17  1  0
 14 13  1  6
 14 15  1  0
 14 16  1  0
 16 18  1  0
 16 17  1  6
 18 19  2  0
 18 20  1  0
M  END
$$$$
