VKM.pdb
     RDKit          3D

 25 24  0  0  1  0  0  0  0  0999 V2000
    6.2011  -11.0434   26.3334 C   0  0  0  0  0  0  0  0  0  0  0  0
    6.9496  -12.2082   25.7984 C   0  0  1  0  0  0  0  0  0  0  0  0
    7.9137  -12.7647   26.8273 C   0  0  0  0  0  0  0  0  0  0  0  0
    6.0352  -13.2492   25.2477 C   0  0  2  0  0  0  0  0  0  0  0  0
    5.2794  -13.7763   26.4037 N   0  0  0  0  0  0  0  0  0  0  0  0
    6.7999  -14.3943   24.7016 C   0  0  0  0  0  0  0  0  0  0  0  0
    7.1969  -15.3391   25.4784 O   0  0  0  0  0  0  0  0  0  0  0  0
    7.1536  -14.5604   23.3330 N   0  0  0  0  0  0  0  0  0  0  0  0
    8.0605  -15.6376   22.9106 C   0  0  1  0  0  0  0  0  0  0  0  0
    8.0265  -15.6997   21.3849 C   0  0  0  0  0  0  0  0  0  0  0  0
    8.8432  -16.8172   20.8439 C   0  0  0  0  0  0  0  0  0  0  0  0
    8.7817  -16.8138   19.3433 C   0  0  0  0  0  0  0  0  0  0  0  0
    9.4316  -18.0136   18.7468 C   0  0  0  0  0  0  0  0  0  0  0  0
    9.4583  -17.9482   17.2883 N   0  0  0  0  0  0  0  0  0  0  0  0
    9.4286  -15.4189   23.4196 C   0  0  0  0  0  0  0  0  0  0  0  0
    9.8634  -14.2456   23.4876 O   0  0  0  0  0  0  0  0  0  0  0  0
   11.4780  -13.3806   28.9896 C   0  0  0  0  0  0  0  0  0  0  0  0
   10.9180  -15.0960   28.8062 S   0  0  0  0  0  0  0  0  0  0  0  0
   11.6290  -15.8343   27.3090 C   0  0  0  0  0  0  0  0  0  0  0  0
   10.5883  -15.8962   26.2135 C   0  0  0  0  0  0  0  0  0  0  0  0
   11.2101  -16.3939   24.9335 C   0  0  2  0  0  0  0  0  0  0  0  0
   10.2917  -16.4517   23.8400 N   0  0  0  0  0  0  0  0  0  0  0  0
   11.9126  -17.6764   25.1661 C   0  0  0  0  0  0  0  0  0  0  0  0
   11.2575  -18.7379   25.0421 O   0  0  0  0  0  0  0  0  0  0  0  0
   13.2461  -17.7770   25.5115 O   0  0  0  0  0  0  0  0  0  0  0  0
  2  1  1  1
  2  3  1  0
  4  6  1  0
  4  2  1  0
  4  5  1  1
  6  8  1  0
  7  6  2  0
  8  9  1  0
  9 10  1  6
 11 10  1  0
 11 12  1  0
 12 13  1  0
 13 14  1  0
 15  9  1  0
 16 15  2  0
 17 18  1  0
 18 19  1  0
 19 20  1  0
 21 20  1  1
 21 22  1  0
 22 15  1  0
 23 21  1  0
 23 25  1  0
 24 23  2  0
M  END
$$$$
