VKM.pdb
     RDKit          3D

 25 24  0  0  1  0  0  0  0  0999 V2000
    8.4737  -12.2742   18.4317 C   0  0  0  0  0  0  0  0  0  0  0  0
    8.4713  -13.1356   19.6405 C   0  0  1  0  0  0  0  0  0  0  0  0
    7.2418  -12.8884   20.4920 C   0  0  0  0  0  0  0  0  0  0  0  0
    8.6497  -14.5752   19.2956 C   0  0  2  0  0  0  0  0  0  0  0  0
    7.4837  -14.9393   18.4629 N   0  0  0  0  0  0  0  0  0  0  0  0
    8.5708  -15.4261   20.5055 C   0  0  0  0  0  0  0  0  0  0  0  0
    7.4276  -15.7644   20.9876 O   0  0  0  0  0  0  0  0  0  0  0  0
    9.6921  -15.9329   21.2207 N   0  0  0  0  0  0  0  0  0  0  0  0
    9.5128  -16.7970   22.3965 C   0  0  1  0  0  0  0  0  0  0  0  0
   10.4548  -17.9894   22.2427 C   0  0  0  0  0  0  0  0  0  0  0  0
   10.3808  -18.9238   23.3959 C   0  0  0  0  0  0  0  0  0  0  0  0
   11.3789  -20.0319   23.2193 C   0  0  0  0  0  0  0  0  0  0  0  0
   11.3148  -21.0332   24.3197 C   0  0  0  0  0  0  0  0  0  0  0  0
   12.2459  -22.1371   24.1045 N   0  0  0  0  0  0  0  0  0  0  0  0
    9.7642  -16.0585   23.6495 C   0  0  0  0  0  0  0  0  0  0  0  0
   10.7979  -15.3550   23.7347 O   0  0  0  0  0  0  0  0  0  0  0  0
    6.6124  -11.7354   27.6526 C   0  0  0  0  0  0  0  0  0  0  0  0
    6.0619  -12.8033   26.2938 S   0  0  0  0  0  0  0  0  0  0  0  0
    7.4678  -13.7180   25.6017 C   0  0  0  0  0  0  0  0  0  0  0  0
    7.9598  -14.7470   26.5946 C   0  0  0  0  0  0  0  0  0  0  0  0
    9.1572  -15.4750   26.0384 C   0  0  2  0  0  0  0  0  0  0  0  0
    8.9113  -16.0896   24.7719 N   0  0  0  0  0  0  0  0  0  0  0  0
    9.6993  -16.4184   27.0427 C   0  0  0  0  0  0  0  0  0  0  0  0
    9.5058  -17.6441   26.8644 O   0  0  0  0  0  0  0  0  0  0  0  0
   10.4058  -16.0326   28.1650 O   0  0  0  0  0  0  0  0  0  0  0  0
  2  1  1  6
  2  3  1  0
  4  6  1  0
  4  2  1  0
  4  5  1  6
  6  8  1  0
  7  6  2  0
  8  9  1  0
  9 10  1  6
 11 10  1  0
 11 12  1  0
 12 13  1  0
 13 14  1  0
 15  9  1  0
 16 15  2  0
 17 18  1  0
 18 19  1  0
 19 20  1  0
 21 20  1  1
 21 22  1  0
 22 15  1  0
 23 21  1  0
 23 25  1  0
 24 23  2  0
M  END
$$$$
