VKM.pdb
     RDKit          3D

 25 24  0  0  1  0  0  0  0  0999 V2000
    8.7396  -12.8913   20.3266 C   0  0  0  0  0  0  0  0  0  0  0  0
    7.9740  -13.4803   19.1996 C   0  0  1  0  0  0  0  0  0  0  0  0
    8.0943  -12.6335   17.9481 C   0  0  0  0  0  0  0  0  0  0  0  0
    8.3423  -14.9060   18.9646 C   0  0  2  0  0  0  0  0  0  0  0  0
    7.3951  -15.4059   17.9456 N   0  0  0  0  0  0  0  0  0  0  0  0
    8.1081  -15.7231   20.1777 C   0  0  0  0  0  0  0  0  0  0  0  0
    6.9264  -15.8225   20.6750 O   0  0  0  0  0  0  0  0  0  0  0  0
    9.1125  -16.4468   20.8800 N   0  0  0  0  0  0  0  0  0  0  0  0
    8.8096  -17.1258   22.1482 C   0  0  1  0  0  0  0  0  0  0  0  0
    9.6459  -18.4027   22.2009 C   0  0  0  0  0  0  0  0  0  0  0  0
    9.4375  -19.1664   23.4586 C   0  0  0  0  0  0  0  0  0  0  0  0
   10.2900  -20.4028   23.4518 C   0  0  0  0  0  0  0  0  0  0  0  0
    9.8666  -21.3889   24.4843 C   0  0  0  0  0  0  0  0  0  0  0  0
   10.5570  -22.6663   24.3307 N   0  0  0  0  0  0  0  0  0  0  0  0
    9.0763  -16.2483   23.3047 C   0  0  0  0  0  0  0  0  0  0  0  0
   10.1525  -15.6071   23.3362 O   0  0  0  0  0  0  0  0  0  0  0  0
    6.5591  -10.4629   26.8401 C   0  0  0  0  0  0  0  0  0  0  0  0
    5.9740  -12.1734   26.9877 S   0  0  0  0  0  0  0  0  0  0  0  0
    7.3630  -13.3303   26.8311 C   0  0  0  0  0  0  0  0  0  0  0  0
    7.1552  -14.2358   25.6378 C   0  0  0  0  0  0  0  0  0  0  0  0
    8.3423  -15.1490   25.4655 C   0  0  2  0  0  0  0  0  0  0  0  0
    8.1930  -16.0791   24.3908 N   0  0  0  0  0  0  0  0  0  0  0  0
    8.6820  -15.8012   26.7507 C   0  0  0  0  0  0  0  0  0  0  0  0
    8.1999  -16.9351   26.9815 O   0  0  0  0  0  0  0  0  0  0  0  0
    9.4977  -15.2382   27.7126 O   0  0  0  0  0  0  0  0  0  0  0  0
  2  1  1  1
  2  3  1  0
  4  6  1  0
  4  2  1  0
  4  5  1  6
  6  8  1  0
  7  6  2  0
  8  9  1  0
  9 10  1  1
 11 10  1  0
 11 12  1  0
 12 13  1  0
 13 14  1  0
 15  9  1  0
 16 15  2  0
 17 18  1  0
 18 19  1  0
 19 20  1  0
 21 20  1  1
 21 22  1  0
 22 15  1  0
 23 21  1  0
 23 25  1  0
 24 23  2  0
M  END
$$$$
