VKM.pdb
     RDKit          3D

 25 24  0  0  1  0  0  0  0  0999 V2000
    8.9670  -12.6036   20.5492 C   0  0  0  0  0  0  0  0  0  0  0  0
    7.9314  -13.2453   19.7014 C   0  0  1  0  0  0  0  0  0  0  0  0
    7.5791  -12.3783   18.5089 C   0  0  0  0  0  0  0  0  0  0  0  0
    8.3172  -14.6310   19.3085 C   0  0  2  0  0  0  0  0  0  0  0  0
    7.1720  -15.1683   18.5436 N   0  0  0  0  0  0  0  0  0  0  0  0
    8.4597  -15.5014   20.4985 C   0  0  0  0  0  0  0  0  0  0  0  0
    7.4188  -15.8952   21.1430 O   0  0  0  0  0  0  0  0  0  0  0  0
    9.6971  -15.9698   21.0230 N   0  0  0  0  0  0  0  0  0  0  0  0
    9.7356  -16.8607   22.1918 C   0  0  1  0  0  0  0  0  0  0  0  0
   10.5603  -18.0886   21.8109 C   0  0  0  0  0  0  0  0  0  0  0  0
   10.6460  -19.0797   22.9150 C   0  0  0  0  0  0  0  0  0  0  0  0
   11.4050  -20.2911   22.4550 C   0  0  0  0  0  0  0  0  0  0  0  0
   11.5843  -21.2939   23.5413 C   0  0  0  0  0  0  0  0  0  0  0  0
   10.3534  -22.0333   23.8064 N   0  0  0  0  0  0  0  0  0  0  0  0
   10.2910  -16.1730   23.3737 C   0  0  0  0  0  0  0  0  0  0  0  0
   11.2748  -16.6838   23.9583 O   0  0  0  0  0  0  0  0  0  0  0  0
    6.2500  -11.1622   26.7397 C   0  0  0  0  0  0  0  0  0  0  0  0
    5.9447  -12.9501   26.7233 S   0  0  0  0  0  0  0  0  0  0  0  0
    7.5157  -13.8574   26.6918 C   0  0  0  0  0  0  0  0  0  0  0  0
    7.9045  -14.1770   25.2658 C   0  0  0  0  0  0  0  0  0  0  0  0
    9.2946  -14.7590   25.2241 C   0  0  2  0  0  0  0  0  0  0  0  0
    9.7852  -14.9656   23.8979 N   0  0  0  0  0  0  0  0  0  0  0  0
    9.3693  -15.9764   26.0637 C   0  0  0  0  0  0  0  0  0  0  0  0
    9.8639  -15.8716   27.2108 O   0  0  0  0  0  0  0  0  0  0  0  0
    8.9278  -17.2220   25.6621 O   0  0  0  0  0  0  0  0  0  0  0  0
  2  1  1  6
  2  3  1  0
  4  6  1  0
  4  2  1  0
  4  5  1  6
  6  8  1  0
  7  6  2  0
  8  9  1  0
  9 10  1  6
 11 10  1  0
 11 12  1  0
 12 13  1  0
 13 14  1  0
 15  9  1  0
 16 15  2  0
 17 18  1  0
 18 19  1  0
 19 20  1  0
 21 20  1  6
 21 22  1  0
 22 15  1  0
 23 21  1  0
 23 25  1  0
 24 23  2  0
M  END
$$$$
