VKM.pdb
     RDKit          3D

 25 24  0  0  1  0  0  0  0  0999 V2000
    8.4162  -12.0342   18.5763 C   0  0  0  0  0  0  0  0  0  0  0  0
    8.4097  -13.0074   19.6970 C   0  0  1  0  0  0  0  0  0  0  0  0
    7.1020  -12.9595   20.4622 C   0  0  0  0  0  0  0  0  0  0  0  0
    8.7551  -14.3834   19.2382 C   0  0  2  0  0  0  0  0  0  0  0  0
    7.6775  -14.7823   18.3081 N   0  0  0  0  0  0  0  0  0  0  0  0
    8.7044  -15.3475   20.3617 C   0  0  0  0  0  0  0  0  0  0  0  0
    7.5770  -15.8201   20.7609 O   0  0  0  0  0  0  0  0  0  0  0  0
    9.8379  -15.8275   21.0762 N   0  0  0  0  0  0  0  0  0  0  0  0
    9.6874  -16.7927   22.1749 C   0  0  1  0  0  0  0  0  0  0  0  0
   10.7564  -17.8687   21.9955 C   0  0  0  0  0  0  0  0  0  0  0  0
   10.7284  -18.8835   23.0808 C   0  0  0  0  0  0  0  0  0  0  0  0
   11.8029  -19.9069   22.8499 C   0  0  0  0  0  0  0  0  0  0  0  0
   11.2471  -21.2658   22.6003 C   0  0  0  0  0  0  0  0  0  0  0  0
   12.3009  -22.2488   22.3653 N   0  0  0  0  0  0  0  0  0  0  0  0
    9.7919  -16.1307   23.4899 C   0  0  0  0  0  0  0  0  0  0  0  0
   10.3337  -15.0025   23.5528 O   0  0  0  0  0  0  0  0  0  0  0  0
    7.9482  -11.3307   26.8063 C   0  0  0  0  0  0  0  0  0  0  0  0
    6.7483  -12.6528   26.4865 S   0  0  0  0  0  0  0  0  0  0  0  0
    7.4616  -14.2668   26.9088 C   0  0  0  0  0  0  0  0  0  0  0  0
    7.7520  -15.0537   25.6504 C   0  0  0  0  0  0  0  0  0  0  0  0
    8.9345  -15.9633   25.8675 C   0  0  2  0  0  0  0  0  0  0  0  0
    9.3183  -16.6865   24.6962 N   0  0  0  0  0  0  0  0  0  0  0  0
    8.7023  -16.8404   27.0377 C   0  0  0  0  0  0  0  0  0  0  0  0
    8.0139  -17.8747   26.8713 O   0  0  0  0  0  0  0  0  0  0  0  0
    9.1970  -16.5904   28.3028 O   0  0  0  0  0  0  0  0  0  0  0  0
  2  1  1  6
  2  3  1  0
  4  6  1  0
  4  2  1  0
  4  5  1  6
  6  8  1  0
  7  6  2  0
  8  9  1  0
  9 10  1  6
 11 10  1  0
 11 12  1  0
 12 13  1  0
 13 14  1  0
 15  9  1  0
 16 15  2  0
 17 18  1  0
 18 19  1  0
 19 20  1  0
 21 20  1  6
 21 22  1  0
 22 15  1  0
 23 21  1  0
 23 25  1  0
 24 23  2  0
M  END
$$$$
