VKM.pdb
     RDKit          3D

 25 24  0  0  1  0  0  0  0  0999 V2000
    8.6810  -12.5974   20.2458 C   0  0  0  0  0  0  0  0  0  0  0  0
    7.9215  -13.3978   19.2530 C   0  0  1  0  0  0  0  0  0  0  0  0
    7.7406  -12.6383   17.9537 C   0  0  0  0  0  0  0  0  0  0  0  0
    8.5250  -14.7460   19.0496 C   0  0  2  0  0  0  0  0  0  0  0  0
    7.6309  -15.4515   18.1070 N   0  0  0  0  0  0  0  0  0  0  0  0
    8.5023  -15.5340   20.3036 C   0  0  0  0  0  0  0  0  0  0  0  0
    7.3827  -15.8976   20.8214 O   0  0  0  0  0  0  0  0  0  0  0  0
    9.6556  -15.9509   21.0259 N   0  0  0  0  0  0  0  0  0  0  0  0
    9.5331  -16.7655   22.2436 C   0  0  1  0  0  0  0  0  0  0  0  0
   10.5861  -17.8695   22.1698 C   0  0  0  0  0  0  0  0  0  0  0  0
   10.3008  -18.8552   21.0949 C   0  0  0  0  0  0  0  0  0  0  0  0
   10.1475  -20.2264   21.6880 C   0  0  0  0  0  0  0  0  0  0  0  0
    9.9307  -21.2719   20.6499 C   0  0  0  0  0  0  0  0  0  0  0  0
    9.7597  -22.5963   21.2404 N   0  0  0  0  0  0  0  0  0  0  0  0
    9.6871  -15.9421   23.4588 C   0  0  0  0  0  0  0  0  0  0  0  0
   10.6751  -15.1759   23.5436 O   0  0  0  0  0  0  0  0  0  0  0  0
    6.5558  -10.9923   26.4143 C   0  0  0  0  0  0  0  0  0  0  0  0
    6.4420  -12.4195   27.5278 S   0  0  0  0  0  0  0  0  0  0  0  0
    7.8524  -13.5321   27.2726 C   0  0  0  0  0  0  0  0  0  0  0  0
    7.7045  -14.2686   25.9602 C   0  0  0  0  0  0  0  0  0  0  0  0
    8.8880  -15.1754   25.7369 C   0  0  2  0  0  0  0  0  0  0  0  0
    8.7882  -15.9577   24.5451 N   0  0  0  0  0  0  0  0  0  0  0  0
    9.1465  -15.9926   26.9443 C   0  0  0  0  0  0  0  0  0  0  0  0
    8.7975  -17.1965   26.9267 O   0  0  0  0  0  0  0  0  0  0  0  0
    9.7487  -15.5115   28.0903 O   0  0  0  0  0  0  0  0  0  0  0  0
  2  1  1  1
  2  3  1  0
  4  6  1  0
  4  2  1  0
  4  5  1  6
  6  8  1  0
  7  6  2  0
  8  9  1  0
  9 10  1  6
 11 10  1  0
 11 12  1  0
 12 13  1  0
 13 14  1  0
 15  9  1  0
 16 15  2  0
 17 18  1  0
 18 19  1  0
 19 20  1  0
 21 20  1  1
 21 22  1  0
 22 15  1  0
 23 21  1  0
 23 25  1  0
 24 23  2  0
M  END
$$$$
