WGI.pdb
     RDKit          3D

 27 28  0  0  1  0  0  0  0  0999 V2000
   26.4438  -22.4394  -11.5924 N   0  0  0  0  0  0  0  0  0  0  0  0
   25.7507  -21.3815  -10.9022 C   0  0  1  0  0  0  0  0  0  0  0  0
   26.6098  -20.1140  -10.8478 C   0  0  0  0  0  0  0  0  0  0  0  0
   27.7765  -20.4003   -9.9847 C   0  0  0  0  0  0  0  0  0  0  0  0
   29.0491  -20.7910  -10.3523 C   0  0  0  0  0  0  0  0  0  0  0  0
   29.8107  -20.9438   -9.2427 N   0  0  0  0  0  0  0  0  0  0  0  0
   29.0607  -20.6614   -8.1648 C   0  0  0  0  0  0  0  0  0  0  0  0
   29.3037  -20.6499   -6.8071 C   0  0  0  0  0  0  0  0  0  0  0  0
   28.3078  -20.3079   -5.9114 C   0  0  0  0  0  0  0  0  0  0  0  0
   27.0441  -19.9688   -6.3491 C   0  0  0  0  0  0  0  0  0  0  0  0
   26.7873  -19.9758   -7.6991 C   0  0  0  0  0  0  0  0  0  0  0  0
   27.7862  -20.3199   -8.6134 C   0  0  0  0  0  0  0  0  0  0  0  0
   24.5254  -21.0088  -11.6445 C   0  0  0  0  0  0  0  0  0  0  0  0
   24.5434  -20.6366  -12.8447 O   0  0  0  0  0  0  0  0  0  0  0  0
   23.2755  -21.0729  -10.9770 N   0  0  0  0  0  0  0  0  0  0  0  0
   22.5291  -19.8665  -10.7595 C   0  0  0  0  0  0  0  0  0  0  0  0
   21.5036  -19.6472  -11.8098 C   0  0  0  0  0  0  0  0  0  0  0  0
   20.6621  -18.7170  -11.6510 O   0  0  0  0  0  0  0  0  0  0  0  0
   21.5625  -20.1181  -17.7526 C   0  0  0  0  0  0  0  0  0  0  0  0
   21.1909  -19.3009  -16.5710 C   0  0  0  0  0  0  0  0  0  0  0  0
   21.7482  -19.8067  -15.2710 C   0  0  2  0  0  0  0  0  0  0  0  0
   22.4328  -21.1445  -15.4438 C   0  0  0  0  0  0  0  0  0  0  0  0
   20.7252  -19.9339  -14.1873 C   0  0  2  0  0  0  0  0  0  0  0  0
   21.4071  -20.4231  -12.9928 N   0  0  0  0  0  0  0  0  0  0  0  0
   19.6290  -20.8762  -14.5273 C   0  0  0  0  0  0  0  0  0  0  0  0
   19.7016  -22.1070  -14.2818 O   0  0  0  0  0  0  0  0  0  0  0  0
   18.4403  -20.4530  -15.1451 O   0  0  0  0  0  0  0  0  0  0  0  0
  2  1  1  6
  3  2  1  0
  4  3  1  0
  4  5  2  0
  6  5  1  0
  7  6  1  0
  8  7  2  0
  9  8  1  0
 10  9  2  0
 10 11  1  0
 11 12  2  0
 12  7  1  0
 12  4  1  0
 13  2  1  0
 13 14  2  0
 15 16  1  0
 15 13  1  0
 17 18  2  0
 17 16  1  0
 20 19  1  0
 20 21  1  0
 21 22  1  6
 23 21  1  0
 23 24  1  1
 24 17  1  0
 25 23  1  0
 26 25  2  0
 27 25  1  0
M  END
$$$$
