WGI.pdb
     RDKit          3D

 27 28  0  0  1  0  0  0  0  0999 V2000
   26.2183  -22.5760  -12.5938 N   0  0  0  0  0  0  0  0  0  0  0  0
   25.8519  -21.1868  -12.4845 C   0  0  1  0  0  0  0  0  0  0  0  0
   27.0980  -20.2955  -12.4715 C   0  0  0  0  0  0  0  0  0  0  0  0
   27.9186  -20.6898  -11.3057 C   0  0  0  0  0  0  0  0  0  0  0  0
   29.1257  -21.3606  -11.2848 C   0  0  0  0  0  0  0  0  0  0  0  0
   29.5315  -21.5162  -10.0020 N   0  0  0  0  0  0  0  0  0  0  0  0
   28.6152  -20.9620   -9.1914 C   0  0  0  0  0  0  0  0  0  0  0  0
   28.5056  -20.8269   -7.8231 C   0  0  0  0  0  0  0  0  0  0  0  0
   27.4162  -20.1904   -7.2584 C   0  0  0  0  0  0  0  0  0  0  0  0
   26.4087  -19.6726   -8.0460 C   0  0  0  0  0  0  0  0  0  0  0  0
   26.5043  -19.7997   -9.4110 C   0  0  0  0  0  0  0  0  0  0  0  0
   27.6008  -20.4412   -9.9926 C   0  0  0  0  0  0  0  0  0  0  0  0
   25.0704  -20.7733  -13.6718 C   0  0  0  0  0  0  0  0  0  0  0  0
   25.0987  -21.4037  -14.7586 O   0  0  0  0  0  0  0  0  0  0  0  0
   24.2535  -19.6170  -13.5839 N   0  0  0  0  0  0  0  0  0  0  0  0
   23.4948  -19.2004  -14.7287 C   0  0  0  0  0  0  0  0  0  0  0  0
   22.1829  -19.8897  -14.8103 C   0  0  0  0  0  0  0  0  0  0  0  0
   21.5055  -19.7805  -15.8723 O   0  0  0  0  0  0  0  0  0  0  0  0
   21.7633  -24.8102  -14.9111 C   0  0  0  0  0  0  0  0  0  0  0  0
   21.4064  -23.3731  -15.0096 C   0  0  0  0  0  0  0  0  0  0  0  0
   20.6511  -22.8424  -13.8246 C   0  0  2  0  0  0  0  0  0  0  0  0
   19.3436  -23.5765  -13.6258 C   0  0  0  0  0  0  0  0  0  0  0  0
   20.3649  -21.3763  -13.9017 C   0  0  2  0  0  0  0  0  0  0  0  0
   21.6356  -20.6713  -13.7614 N   0  0  0  0  0  0  0  0  0  0  0  0
   19.4411  -20.9054  -12.8388 C   0  0  0  0  0  0  0  0  0  0  0  0
   19.8557  -20.4222  -11.7548 O   0  0  0  0  0  0  0  0  0  0  0  0
   18.0444  -20.9694  -12.9761 O   0  0  0  0  0  0  0  0  0  0  0  0
  2  1  1  6
  3  2  1  0
  4  3  1  0
  4  5  2  0
  6  5  1  0
  7  6  1  0
  8  7  2  0
  9  8  1  0
 10  9  2  0
 10 11  1  0
 11 12  2  0
 12  7  1  0
 12  4  1  0
 13  2  1  0
 13 14  2  0
 15 16  1  0
 15 13  1  0
 17 18  2  0
 17 16  1  0
 20 19  1  0
 20 21  1  0
 21 22  1  6
 23 21  1  0
 23 24  1  1
 24 17  1  0
 25 23  1  0
 26 25  2  0
 27 25  1  0
M  END
$$$$
