WGI.pdb
     RDKit          3D

 27 28  0  0  1  0  0  0  0  0999 V2000
   24.5629  -18.3929  -16.6853 N   0  0  0  0  0  0  0  0  0  0  0  0
   25.6326  -19.3518  -16.7961 C   0  0  1  0  0  0  0  0  0  0  0  0
   26.7551  -18.8131  -17.6889 C   0  0  0  0  0  0  0  0  0  0  0  0
   26.1325  -18.2890  -18.9242 C   0  0  0  0  0  0  0  0  0  0  0  0
   26.1663  -17.0053  -19.4324 C   0  0  0  0  0  0  0  0  0  0  0  0
   25.4635  -16.9610  -20.5894 N   0  0  0  0  0  0  0  0  0  0  0  0
   24.9751  -18.1864  -20.8423 C   0  0  0  0  0  0  0  0  0  0  0  0
   24.2044  -18.7183  -21.8550 C   0  0  0  0  0  0  0  0  0  0  0  0
   23.8467  -20.0536  -21.8472 C   0  0  0  0  0  0  0  0  0  0  0  0
   24.2497  -20.8913  -20.8277 C   0  0  0  0  0  0  0  0  0  0  0  0
   25.0180  -20.3753  -19.8118 C   0  0  0  0  0  0  0  0  0  0  0  0
   25.3854  -19.0273  -19.8095 C   0  0  0  0  0  0  0  0  0  0  0  0
   26.2462  -19.5831  -15.4689 C   0  0  0  0  0  0  0  0  0  0  0  0
   26.3085  -18.6934  -14.5835 O   0  0  0  0  0  0  0  0  0  0  0  0
   26.7883  -20.8615  -15.1797 N   0  0  0  0  0  0  0  0  0  0  0  0
   27.3259  -21.1212  -13.8746 C   0  0  0  0  0  0  0  0  0  0  0  0
   26.2655  -21.4462  -12.8883 C   0  0  0  0  0  0  0  0  0  0  0  0
   25.4986  -22.4238  -13.1226 O   0  0  0  0  0  0  0  0  0  0  0  0
   26.2621  -19.1081   -7.6700 C   0  0  0  0  0  0  0  0  0  0  0  0
   25.7866  -19.3897   -9.0472 C   0  0  0  0  0  0  0  0  0  0  0  0
   25.6015  -20.8493   -9.3497 C   0  0  2  0  0  0  0  0  0  0  0  0
   26.8981  -21.6148   -9.2049 C   0  0  0  0  0  0  0  0  0  0  0  0
   25.0434  -21.1149  -10.7118 C   0  0  2  0  0  0  0  0  0  0  0  0
   26.0563  -20.7223  -11.6871 N   0  0  0  0  0  0  0  0  0  0  0  0
   23.7975  -20.3563  -10.9900 C   0  0  0  0  0  0  0  0  0  0  0  0
   23.7851  -19.3279  -11.7129 O   0  0  0  0  0  0  0  0  0  0  0  0
   22.5526  -20.7391  -10.4635 O   0  0  0  0  0  0  0  0  0  0  0  0
  2  1  1  1
  3  2  1  0
  4  3  1  0
  4  5  2  0
  6  5  1  0
  7  6  1  0
  8  7  2  0
  9  8  1  0
 10  9  2  0
 10 11  1  0
 11 12  2  0
 12  7  1  0
 12  4  1  0
 13  2  1  0
 13 14  2  0
 15 16  1  0
 15 13  1  0
 17 18  2  0
 17 16  1  0
 20 19  1  0
 20 21  1  0
 21 22  1  6
 23 21  1  0
 23 24  1  6
 24 17  1  0
 25 23  1  0
 26 25  2  0
 27 25  1  0
M  END
$$$$
