WGI.pdb
     RDKit          3D

 27 28  0  0  1  0  0  0  0  0999 V2000
   27.3655  -22.2626  -13.2279 N   0  0  0  0  0  0  0  0  0  0  0  0
   26.3151  -21.7818  -12.3668 C   0  0  1  0  0  0  0  0  0  0  0  0
   26.6266  -20.3672  -11.8673 C   0  0  0  0  0  0  0  0  0  0  0  0
   27.7482  -20.4677  -10.9083 C   0  0  0  0  0  0  0  0  0  0  0  0
   29.0903  -20.6683  -11.1650 C   0  0  0  0  0  0  0  0  0  0  0  0
   29.7729  -20.6945   -9.9954 N   0  0  0  0  0  0  0  0  0  0  0  0
   28.9039  -20.5157   -8.9869 C   0  0  0  0  0  0  0  0  0  0  0  0
   29.0308  -20.4542   -7.6149 C   0  0  0  0  0  0  0  0  0  0  0  0
   27.9256  -20.2550   -6.8088 C   0  0  0  0  0  0  0  0  0  0  0  0
   26.6657  -20.1123   -7.3527 C   0  0  0  0  0  0  0  0  0  0  0  0
   26.5239  -20.1715   -8.7183 C   0  0  0  0  0  0  0  0  0  0  0  0
   27.6340  -20.3725   -9.5427 C   0  0  0  0  0  0  0  0  0  0  0  0
   25.0477  -21.6741  -13.1241 C   0  0  0  0  0  0  0  0  0  0  0  0
   23.9311  -21.5311  -12.5655 O   0  0  0  0  0  0  0  0  0  0  0  0
   25.0904  -21.7347  -14.5406 N   0  0  0  0  0  0  0  0  0  0  0  0
   24.1772  -22.5948  -15.2379 C   0  0  0  0  0  0  0  0  0  0  0  0
   22.7688  -22.1502  -15.0913 C   0  0  0  0  0  0  0  0  0  0  0  0
   21.8721  -22.7485  -15.7522 O   0  0  0  0  0  0  0  0  0  0  0  0
   21.2083  -19.5985  -10.4027 C   0  0  0  0  0  0  0  0  0  0  0  0
   21.4749  -19.6531  -11.8616 C   0  0  0  0  0  0  0  0  0  0  0  0
   20.6864  -20.7009  -12.5941 C   0  0  2  0  0  0  0  0  0  0  0  0
   20.9365  -22.0808  -12.0272 C   0  0  0  0  0  0  0  0  0  0  0  0
   20.9552  -20.7365  -14.0651 C   0  0  2  0  0  0  0  0  0  0  0  0
   22.3609  -21.0859  -14.2477 N   0  0  0  0  0  0  0  0  0  0  0  0
   20.6980  -19.4375  -14.7369 C   0  0  0  0  0  0  0  0  0  0  0  0
   19.5494  -18.9304  -14.8003 O   0  0  0  0  0  0  0  0  0  0  0  0
   21.7216  -18.6914  -15.3447 O   0  0  0  0  0  0  0  0  0  0  0  0
  2  1  1  6
  3  2  1  0
  4  3  1  0
  4  5  2  0
  6  5  1  0
  7  6  1  0
  8  7  2  0
  9  8  1  0
 10  9  2  0
 10 11  1  0
 11 12  2  0
 12  7  1  0
 12  4  1  0
 13  2  1  0
 13 14  2  0
 15 16  1  0
 15 13  1  0
 17 18  2  0
 17 16  1  0
 20 19  1  0
 20 21  1  0
 21 22  1  1
 23 21  1  0
 23 24  1  1
 24 17  1  0
 25 23  1  0
 26 25  2  0
 27 25  1  0
M  END
$$$$
