WGI.pdb
     RDKit          3D

 27 28  0  0  1  0  0  0  0  0999 V2000
   18.0670  -23.7146  -11.7739 N   0  0  0  0  0  0  0  0  0  0  0  0
   18.3579  -25.0220  -12.3051 C   0  0  1  0  0  0  0  0  0  0  0  0
   19.7432  -25.0470  -12.9592 C   0  0  0  0  0  0  0  0  0  0  0  0
   19.7290  -24.0766  -14.0755 C   0  0  0  0  0  0  0  0  0  0  0  0
   19.8537  -22.7020  -14.0282 C   0  0  0  0  0  0  0  0  0  0  0  0
   19.7872  -22.2009  -15.2848 N   0  0  0  0  0  0  0  0  0  0  0  0
   19.6220  -23.2191  -16.1450 C   0  0  0  0  0  0  0  0  0  0  0  0
   19.4934  -23.3017  -17.5158 C   0  0  0  0  0  0  0  0  0  0  0  0
   19.3306  -24.5241  -18.1404 C   0  0  0  0  0  0  0  0  0  0  0  0
   19.2920  -25.6950  -17.4117 C   0  0  0  0  0  0  0  0  0  0  0  0
   19.4188  -25.6282  -16.0450 C   0  0  0  0  0  0  0  0  0  0  0  0
   19.5838  -24.3983  -15.4031 C   0  0  0  0  0  0  0  0  0  0  0  0
   18.4097  -26.0151  -11.2085 C   0  0  0  0  0  0  0  0  0  0  0  0
   18.7068  -27.2217  -11.3963 O   0  0  0  0  0  0  0  0  0  0  0  0
   18.1121  -25.5916   -9.8879 N   0  0  0  0  0  0  0  0  0  0  0  0
   18.1076  -26.5533   -8.8225 C   0  0  0  0  0  0  0  0  0  0  0  0
   17.7043  -25.9505   -7.5276 C   0  0  0  0  0  0  0  0  0  0  0  0
   17.7044  -24.6908   -7.4190 O   0  0  0  0  0  0  0  0  0  0  0  0
   14.5109  -28.8121   -4.2321 C   0  0  0  0  0  0  0  0  0  0  0  0
   15.0425  -27.5738   -4.8538 C   0  0  0  0  0  0  0  0  0  0  0  0
   16.3306  -27.0863   -4.2541 C   0  0  2  0  0  0  0  0  0  0  0  0
   16.1125  -26.4886   -2.8817 C   0  0  0  0  0  0  0  0  0  0  0  0
   17.0456  -26.0818   -5.1008 C   0  0  2  0  0  0  0  0  0  0  0  0
   17.3144  -26.7061   -6.3928 N   0  0  0  0  0  0  0  0  0  0  0  0
   18.3337  -25.6342   -4.5129 C   0  0  0  0  0  0  0  0  0  0  0  0
   19.3739  -26.3384   -4.5605 O   0  0  0  0  0  0  0  0  0  0  0  0
   18.4727  -24.3949   -3.8659 O   0  0  0  0  0  0  0  0  0  0  0  0
  2  1  1  1
  3  2  1  0
  4  3  1  0
  4  5  2  0
  6  5  1  0
  7  6  1  0
  8  7  2  0
  9  8  1  0
 10  9  2  0
 10 11  1  0
 11 12  2  0
 12  7  1  0
 12  4  1  0
 13  2  1  0
 13 14  2  0
 15 16  1  0
 15 13  1  0
 17 18  2  0
 17 16  1  0
 20 19  1  0
 20 21  1  0
 21 22  1  1
 23 21  1  0
 23 24  1  6
 24 17  1  0
 25 23  1  0
 26 25  2  0
 27 25  1  0
M  END
$$$$
