WGI.pdb
     RDKit          3D

 27 28  0  0  1  0  0  0  0  0999 V2000
   26.5077  -19.3909  -17.0986 N   0  0  0  0  0  0  0  0  0  0  0  0
   27.6594  -20.1748  -16.7308 C   0  0  1  0  0  0  0  0  0  0  0  0
   28.5472  -19.4073  -15.7458 C   0  0  0  0  0  0  0  0  0  0  0  0
   27.8876  -18.1140  -15.4623 C   0  0  0  0  0  0  0  0  0  0  0  0
   27.0778  -17.7712  -14.3974 C   0  0  0  0  0  0  0  0  0  0  0  0
   26.6862  -16.4811  -14.5271 N   0  0  0  0  0  0  0  0  0  0  0  0
   27.2235  -15.9803  -15.6517 C   0  0  0  0  0  0  0  0  0  0  0  0
   27.1680  -14.7498  -16.2724 C   0  0  0  0  0  0  0  0  0  0  0  0
   27.8435  -14.5219  -17.4567 C   0  0  0  0  0  0  0  0  0  0  0  0
   28.5916  -15.5172  -18.0511 C   0  0  0  0  0  0  0  0  0  0  0  0
   28.6561  -16.7485  -17.4441 C   0  0  0  0  0  0  0  0  0  0  0  0
   27.9773  -16.9900  -16.2470 C   0  0  0  0  0  0  0  0  0  0  0  0
   27.2324  -21.4013  -16.0204 C   0  0  0  0  0  0  0  0  0  0  0  0
   28.0470  -22.2462  -15.5711 O   0  0  0  0  0  0  0  0  0  0  0  0
   25.8458  -21.6374  -15.8368 N   0  0  0  0  0  0  0  0  0  0  0  0
   25.4131  -22.8652  -15.2325 C   0  0  0  0  0  0  0  0  0  0  0  0
   25.1015  -22.6988  -13.7910 C   0  0  0  0  0  0  0  0  0  0  0  0
   24.5271  -23.6461  -13.1814 O   0  0  0  0  0  0  0  0  0  0  0  0
   28.4181  -20.3819  -10.2982 C   0  0  0  0  0  0  0  0  0  0  0  0
   27.3618  -21.1911  -10.9551 C   0  0  0  0  0  0  0  0  0  0  0  0
   26.0038  -20.5491  -10.9563 C   0  0  2  0  0  0  0  0  0  0  0  0
   25.5189  -20.2740   -9.5501 C   0  0  0  0  0  0  0  0  0  0  0  0
   24.9610  -21.3498  -11.6695 C   0  0  2  0  0  0  0  0  0  0  0  0
   25.4109  -21.5325  -13.0462 N   0  0  0  0  0  0  0  0  0  0  0  0
   23.6307  -20.6901  -11.6886 C   0  0  0  0  0  0  0  0  0  0  0  0
   23.3330  -19.8038  -12.5289 O   0  0  0  0  0  0  0  0  0  0  0  0
   22.6192  -21.0143  -10.7691 O   0  0  0  0  0  0  0  0  0  0  0  0
  2  1  1  1
  3  2  1  0
  4  3  1  0
  4  5  2  0
  6  5  1  0
  7  6  1  0
  8  7  2  0
  9  8  1  0
 10  9  2  0
 10 11  1  0
 11 12  2  0
 12  7  1  0
 12  4  1  0
 13  2  1  0
 13 14  2  0
 15 16  1  0
 15 13  1  0
 17 18  2  0
 17 16  1  0
 20 19  1  0
 20 21  1  0
 21 22  1  1
 23 21  1  0
 23 24  1  6
 24 17  1  0
 25 23  1  0
 26 25  2  0
 27 25  1  0
M  END
$$$$
