WGI.pdb
     RDKit          3D

 27 28  0  0  1  0  0  0  0  0999 V2000
   23.4110  -20.0150  -16.3583 N   0  0  0  0  0  0  0  0  0  0  0  0
   24.3817  -18.9610  -16.2067 C   0  0  1  0  0  0  0  0  0  0  0  0
   23.7397  -17.5916  -16.4518 C   0  0  0  0  0  0  0  0  0  0  0  0
   24.6583  -16.8138  -17.3116 C   0  0  0  0  0  0  0  0  0  0  0  0
   24.6844  -16.7227  -18.6894 C   0  0  0  0  0  0  0  0  0  0  0  0
   25.6903  -15.8979  -19.0666 N   0  0  0  0  0  0  0  0  0  0  0  0
   26.3167  -15.4528  -17.9650 C   0  0  0  0  0  0  0  0  0  0  0  0
   27.3859  -14.6088  -17.7480 C   0  0  0  0  0  0  0  0  0  0  0  0
   27.8189  -14.3283  -16.4655 C   0  0  0  0  0  0  0  0  0  0  0  0
   27.1951  -14.8837  -15.3674 C   0  0  0  0  0  0  0  0  0  0  0  0
   26.1284  -15.7266  -15.5682 C   0  0  0  0  0  0  0  0  0  0  0  0
   25.6823  -16.0171  -16.8599 C   0  0  0  0  0  0  0  0  0  0  0  0
   24.8834  -18.9298  -14.8143 C   0  0  0  0  0  0  0  0  0  0  0  0
   24.1203  -18.8861  -13.8167 O   0  0  0  0  0  0  0  0  0  0  0  0
   26.2841  -18.9498  -14.5916 N   0  0  0  0  0  0  0  0  0  0  0  0
   26.7871  -18.8449  -13.2515 C   0  0  0  0  0  0  0  0  0  0  0  0
   26.2110  -19.8790  -12.3562 C   0  0  0  0  0  0  0  0  0  0  0  0
   26.3670  -21.0970  -12.6574 O   0  0  0  0  0  0  0  0  0  0  0  0
   27.1297  -19.8667   -7.3127 C   0  0  0  0  0  0  0  0  0  0  0  0
   26.7419  -20.3604   -8.6574 C   0  0  0  0  0  0  0  0  0  0  0  0
   25.2632  -20.3372   -8.9205 C   0  0  2  0  0  0  0  0  0  0  0  0
   24.5253  -21.3091   -8.0266 C   0  0  0  0  0  0  0  0  0  0  0  0
   24.9008  -20.6309  -10.3416 C   0  0  2  0  0  0  0  0  0  0  0  0
   25.4893  -19.5841  -11.1717 N   0  0  0  0  0  0  0  0  0  0  0  0
   23.4348  -20.6550  -10.5769 C   0  0  0  0  0  0  0  0  0  0  0  0
   22.7467  -19.6045  -10.6334 O   0  0  0  0  0  0  0  0  0  0  0  0
   22.7226  -21.8533  -10.7517 O   0  0  0  0  0  0  0  0  0  0  0  0
  2  1  1  1
  3  2  1  0
  4  3  1  0
  4  5  2  0
  6  5  1  0
  7  6  1  0
  8  7  2  0
  9  8  1  0
 10  9  2  0
 10 11  1  0
 11 12  2  0
 12  7  1  0
 12  4  1  0
 13  2  1  0
 13 14  2  0
 15 16  1  0
 15 13  1  0
 17 18  2  0
 17 16  1  0
 20 19  1  0
 20 21  1  0
 21 22  1  1
 23 21  1  0
 23 24  1  6
 24 17  1  0
 25 23  1  0
 26 25  2  0
 27 25  1  0
M  END
$$$$
