WGI.pdb
     RDKit          3D

 27 28  0  0  1  0  0  0  0  0999 V2000
   25.4439  -20.6041  -13.8803 N   0  0  0  0  0  0  0  0  0  0  0  0
   25.9130  -19.2437  -13.9529 C   0  0  1  0  0  0  0  0  0  0  0  0
   24.9353  -18.3735  -14.7493 C   0  0  0  0  0  0  0  0  0  0  0  0
   25.0569  -18.7520  -16.1740 C   0  0  0  0  0  0  0  0  0  0  0  0
   24.1968  -19.5100  -16.9441 C   0  0  0  0  0  0  0  0  0  0  0  0
   24.6901  -19.6118  -18.2014 N   0  0  0  0  0  0  0  0  0  0  0  0
   25.8500  -18.9375  -18.2636 C   0  0  0  0  0  0  0  0  0  0  0  0
   26.7686  -18.7053  -19.2659 C   0  0  0  0  0  0  0  0  0  0  0  0
   27.9030  -17.9520  -19.0275 C   0  0  0  0  0  0  0  0  0  0  0  0
   28.1485  -17.4116  -17.7821 C   0  0  0  0  0  0  0  0  0  0  0  0
   27.2421  -17.6347  -16.7736 C   0  0  0  0  0  0  0  0  0  0  0  0
   26.0923  -18.3945  -17.0031 C   0  0  0  0  0  0  0  0  0  0  0  0
   25.9686  -18.6533  -12.5965 C   0  0  0  0  0  0  0  0  0  0  0  0
   25.8002  -17.4267  -12.3807 O   0  0  0  0  0  0  0  0  0  0  0  0
   26.2226  -19.5040  -11.4904 N   0  0  0  0  0  0  0  0  0  0  0  0
   26.4255  -18.9300  -10.1906 C   0  0  0  0  0  0  0  0  0  0  0  0
   26.6563  -19.9655   -9.1526 C   0  0  0  0  0  0  0  0  0  0  0  0
   26.9872  -21.1292   -9.5200 O   0  0  0  0  0  0  0  0  0  0  0  0
   29.5716  -18.6692   -5.0143 C   0  0  0  0  0  0  0  0  0  0  0  0
   28.8751  -19.4187   -6.0892 C   0  0  0  0  0  0  0  0  0  0  0  0
   27.5945  -20.0729   -5.6552 C   0  0  2  0  0  0  0  0  0  0  0  0
   27.8327  -21.0832   -4.5549 C   0  0  0  0  0  0  0  0  0  0  0  0
   26.8574  -20.7482   -6.7678 C   0  0  2  0  0  0  0  0  0  0  0  0
   26.5281  -19.7294   -7.7603 N   0  0  0  0  0  0  0  0  0  0  0  0
   25.6000  -21.4011   -6.3229 C   0  0  0  0  0  0  0  0  0  0  0  0
   25.5969  -22.4599   -5.6452 O   0  0  0  0  0  0  0  0  0  0  0  0
   24.3331  -20.8775   -6.6305 O   0  0  0  0  0  0  0  0  0  0  0  0
  2  1  1  1
  3  2  1  0
  4  3  1  0
  4  5  2  0
  6  5  1  0
  7  6  1  0
  8  7  2  0
  9  8  1  0
 10  9  2  0
 10 11  1  0
 11 12  2  0
 12  7  1  0
 12  4  1  0
 13  2  1  0
 13 14  2  0
 15 16  1  0
 15 13  1  0
 17 18  2  0
 17 16  1  0
 20 19  1  0
 20 21  1  0
 21 22  1  1
 23 21  1  0
 23 24  1  6
 24 17  1  0
 25 23  1  0
 26 25  2  0
 27 25  1  0
M  END
$$$$
