WGI.pdb
     RDKit          3D

 27 28  0  0  1  0  0  0  0  0999 V2000
   26.9075  -21.6318  -13.1532 N   0  0  0  0  0  0  0  0  0  0  0  0
   27.9632  -21.2529  -12.2487 C   0  0  1  0  0  0  0  0  0  0  0  0
   28.9697  -20.3306  -12.9442 C   0  0  0  0  0  0  0  0  0  0  0  0
   29.9222  -21.1852  -13.6860 C   0  0  0  0  0  0  0  0  0  0  0  0
   30.0077  -21.4059  -15.0466 C   0  0  0  0  0  0  0  0  0  0  0  0
   31.0281  -22.2596  -15.3006 N   0  0  0  0  0  0  0  0  0  0  0  0
   31.6054  -22.5973  -14.1358 C   0  0  0  0  0  0  0  0  0  0  0  0
   32.6622  -23.4152  -13.7940 C   0  0  0  0  0  0  0  0  0  0  0  0
   33.0381  -23.5732  -12.4732 C   0  0  0  0  0  0  0  0  0  0  0  0
   32.3682  -22.9184  -11.4603 C   0  0  0  0  0  0  0  0  0  0  0  0
   31.3132  -22.1001  -11.7858 C   0  0  0  0  0  0  0  0  0  0  0  0
   30.9245  -21.9330  -13.1174 C   0  0  0  0  0  0  0  0  0  0  0  0
   27.4087  -20.4705  -11.1210 C   0  0  0  0  0  0  0  0  0  0  0  0
   28.1183  -19.7376  -10.3871 O   0  0  0  0  0  0  0  0  0  0  0  0
   26.0179  -20.5484  -10.8533 N   0  0  0  0  0  0  0  0  0  0  0  0
   25.4754  -19.8422   -9.7278 C   0  0  0  0  0  0  0  0  0  0  0  0
   25.8278  -20.4896   -8.4396 C   0  0  0  0  0  0  0  0  0  0  0  0
   25.7775  -21.7505   -8.3608 O   0  0  0  0  0  0  0  0  0  0  0  0
   29.2208  -17.9081   -4.9382 C   0  0  0  0  0  0  0  0  0  0  0  0
   28.5445  -18.9460   -5.7553 C   0  0  0  0  0  0  0  0  0  0  0  0
   27.2675  -19.4657   -5.1589 C   0  0  2  0  0  0  0  0  0  0  0  0
   27.5052  -20.1024   -3.8075 C   0  0  0  0  0  0  0  0  0  0  0  0
   26.5553  -20.4517   -6.0292 C   0  0  2  0  0  0  0  0  0  0  0  0
   26.2218  -19.7757   -7.2794 N   0  0  0  0  0  0  0  0  0  0  0  0
   25.3032  -20.9692   -5.4211 C   0  0  0  0  0  0  0  0  0  0  0  0
   24.1688  -20.5420   -5.7541 O   0  0  0  0  0  0  0  0  0  0  0  0
   25.3059  -21.9696   -4.4347 O   0  0  0  0  0  0  0  0  0  0  0  0
  2  1  1  6
  3  2  1  0
  4  3  1  0
  4  5  2  0
  6  5  1  0
  7  6  1  0
  8  7  2  0
  9  8  1  0
 10  9  2  0
 10 11  1  0
 11 12  2  0
 12  7  1  0
 12  4  1  0
 13  2  1  0
 13 14  2  0
 15 16  1  0
 15 13  1  0
 17 18  2  0
 17 16  1  0
 20 19  1  0
 20 21  1  0
 21 22  1  1
 23 21  1  0
 23 24  1  6
 24 17  1  0
 25 23  1  0
 26 25  2  0
 27 25  1  0
M  END
$$$$
