KCV.pdb
     RDKit          3D

 23 22  0  0  1  0  0  0  0  0999 V2000
   19.1440  -24.3575   -7.4138 N   0  0  0  0  0  0  0  0  0  0  0  0
   17.8648  -24.8166   -6.9152 C   0  0  1  0  0  0  0  0  0  0  0  0
   17.3259  -25.9086   -7.7898 C   0  0  0  0  0  0  0  0  0  0  0  0
   16.4953  -25.3395   -8.9001 C   0  0  0  0  0  0  0  0  0  0  0  0
   17.3344  -24.9205  -10.0893 C   0  0  0  0  0  0  0  0  0  0  0  0
   16.4515  -24.2777  -11.1460 C   0  0  0  0  0  0  0  0  0  0  0  0
   17.2559  -23.8837  -12.2790 N   0  0  0  0  0  0  0  0  0  0  0  0
   18.0405  -25.2640   -5.5039 C   0  0  0  0  0  0  0  0  0  0  0  0
   19.2038  -25.5205   -5.0621 O   0  0  0  0  0  0  0  0  0  0  0  0
   16.9632  -25.4255   -4.5996 N   0  0  0  0  0  0  0  0  0  0  0  0
   17.1799  -25.7621   -3.1848 C   0  0  1  0  0  0  0  0  0  0  0  0
   16.3406  -24.8656   -2.2938 C   0  0  0  0  0  0  0  0  0  0  0  0
   16.5720  -25.2576   -0.5436 S   0  0  0  0  0  0  0  0  0  0  0  0
   16.8001  -27.1893   -3.0178 C   0  0  0  0  0  0  0  0  0  0  0  0
   15.6997  -27.6562   -3.4639 O   0  0  0  0  0  0  0  0  0  0  0  0
   18.0866  -30.2724   -4.2434 C   0  0  0  0  0  0  0  0  0  0  0  0
   18.1733  -30.4880   -2.7470 C   0  0  1  0  0  0  0  0  0  0  0  0
   19.5645  -30.2522   -2.2310 C   0  0  0  0  0  0  0  0  0  0  0  0
   17.2306  -29.5018   -2.0923 C   0  0  2  0  0  0  0  0  0  0  0  0
   17.6353  -28.1285   -2.3513 N   0  0  0  0  0  0  0  0  0  0  0  0
   17.1521  -29.7086   -0.6275 C   0  0  0  0  0  0  0  0  0  0  0  0
   17.5576  -28.8329    0.1737 O   0  0  0  0  0  0  0  0  0  0  0  0
   16.6281  -30.8766   -0.1003 O   0  0  0  0  0  0  0  0  0  0  0  0
  2  8  1  0
  2  1  1  6
  3  2  1  0
  4  3  1  0
  5  4  1  0
  6  7  1  0
  6  5  1  0
  8  9  2  0
 10 11  1  0
 10  8  1  0
 11 12  1  1
 13 12  1  0
 14 15  2  0
 14 11  1  0
 17 16  1  6
 17 19  1  0
 18 17  1  0
 19 20  1  1
 20 14  1  0
 21 23  1  0
 21 19  1  0
 22 21  2  0
M  END
$$$$
