KCV.pdb
     RDKit          3D

 23 22  0  0  1  0  0  0  0  0999 V2000
   27.1099  -20.7912  -15.6934 N   0  0  0  0  0  0  0  0  0  0  0  0
   26.3583  -19.8859  -14.8499 C   0  0  1  0  0  0  0  0  0  0  0  0
   25.3136  -19.1711  -15.6533 C   0  0  0  0  0  0  0  0  0  0  0  0
   25.9425  -18.3838  -16.7628 C   0  0  0  0  0  0  0  0  0  0  0  0
   24.9130  -17.6966  -17.6357 C   0  0  0  0  0  0  0  0  0  0  0  0
   25.6026  -16.9807  -18.7851 C   0  0  0  0  0  0  0  0  0  0  0  0
   24.6200  -16.2954  -19.5918 N   0  0  0  0  0  0  0  0  0  0  0  0
   25.7648  -20.6681  -13.7280 C   0  0  0  0  0  0  0  0  0  0  0  0
   25.2071  -21.7855  -13.9619 O   0  0  0  0  0  0  0  0  0  0  0  0
   25.7839  -20.2326  -12.3810 N   0  0  0  0  0  0  0  0  0  0  0  0
   25.0705  -20.9580  -11.3195 C   0  0  1  0  0  0  0  0  0  0  0  0
   25.4694  -20.4260   -9.9558 C   0  0  0  0  0  0  0  0  0  0  0  0
   24.5505  -21.2380   -8.6267 S   0  0  0  0  0  0  0  0  0  0  0  0
   23.6176  -20.7638  -11.5657 C   0  0  0  0  0  0  0  0  0  0  0  0
   23.1319  -19.6356  -11.9105 O   0  0  0  0  0  0  0  0  0  0  0  0
   19.1888  -22.4055  -12.6910 C   0  0  0  0  0  0  0  0  0  0  0  0
   20.6861  -22.6221  -12.6258 C   0  0  1  0  0  0  0  0  0  0  0  0
   21.3392  -22.3950  -13.9597 C   0  0  0  0  0  0  0  0  0  0  0  0
   21.2438  -21.6302  -11.6283 C   0  0  2  0  0  0  0  0  0  0  0  0
   22.6732  -21.8195  -11.4339 N   0  0  0  0  0  0  0  0  0  0  0  0
   20.5653  -21.7333  -10.3154 C   0  0  0  0  0  0  0  0  0  0  0  0
   21.0694  -22.3924   -9.3749 O   0  0  0  0  0  0  0  0  0  0  0  0
   19.3532  -21.1038  -10.0890 O   0  0  0  0  0  0  0  0  0  0  0  0
  2  8  1  0
  2  1  1  6
  3  2  1  0
  4  3  1  0
  5  4  1  0
  6  7  1  0
  6  5  1  0
  8  9  2  0
 10 11  1  0
 10  8  1  0
 11 12  1  1
 13 12  1  0
 14 15  2  0
 14 11  1  0
 17 16  1  6
 17 19  1  0
 18 17  1  0
 19 20  1  1
 20 14  1  0
 21 23  1  0
 21 19  1  0
 22 21  2  0
M  END
$$$$
