KCV.pdb
     RDKit          3D

 23 22  0  0  1  0  0  0  0  0999 V2000
   17.3193  -12.4431  -16.7041 N   0  0  0  0  0  0  0  0  0  0  0  0
   18.4285  -11.6731  -17.2264 C   0  0  1  0  0  0  0  0  0  0  0  0
   18.2632  -11.4550  -18.7006 C   0  0  0  0  0  0  0  0  0  0  0  0
   18.4016  -12.7467  -19.4480 C   0  0  0  0  0  0  0  0  0  0  0  0
   19.7686  -13.3730  -19.2657 C   0  0  0  0  0  0  0  0  0  0  0  0
   19.9046  -14.5915  -20.1635 C   0  0  0  0  0  0  0  0  0  0  0  0
   21.2193  -15.1682  -20.0060 N   0  0  0  0  0  0  0  0  0  0  0  0
   18.5073  -10.3880  -16.4748 C   0  0  0  0  0  0  0  0  0  0  0  0
   17.4631   -9.6808  -16.3205 O   0  0  0  0  0  0  0  0  0  0  0  0
   19.7052   -9.8918  -15.9064 N   0  0  0  0  0  0  0  0  0  0  0  0
   19.7613   -8.5900  -15.2253 C   0  0  1  0  0  0  0  0  0  0  0  0
   20.6136   -8.6847  -13.9736 C   0  0  0  0  0  0  0  0  0  0  0  0
   19.7712   -7.9806  -12.5367 S   0  0  0  0  0  0  0  0  0  0  0  0
   20.3382   -7.6211  -16.1936 C   0  0  0  0  0  0  0  0  0  0  0  0
   21.3093   -7.9258  -16.9627 O   0  0  0  0  0  0  0  0  0  0  0  0
   19.2995   -6.8181  -19.1026 C   0  0  0  0  0  0  0  0  0  0  0  0
   19.3226   -5.4071  -18.5534 C   0  0  1  0  0  0  0  0  0  0  0  0
   17.9652   -4.9736  -18.0771 C   0  0  0  0  0  0  0  0  0  0  0  0
   20.2835   -5.3921  -17.3845 C   0  0  2  0  0  0  0  0  0  0  0  0
   19.8479   -6.2923  -16.3278 N   0  0  0  0  0  0  0  0  0  0  0  0
   20.4378   -4.0314  -16.8196 C   0  0  0  0  0  0  0  0  0  0  0  0
   21.0360   -3.1298  -17.4540 O   0  0  0  0  0  0  0  0  0  0  0  0
   19.9250   -3.7155  -15.5730 O   0  0  0  0  0  0  0  0  0  0  0  0
  2  8  1  0
  2  1  1  1
  3  2  1  0
  4  3  1  0
  5  4  1  0
  6  7  1  0
  6  5  1  0
  8  9  2  0
 10 11  1  0
 10  8  1  0
 11 12  1  1
 13 12  1  0
 14 15  2  0
 14 11  1  0
 17 16  1  1
 17 19  1  0
 18 17  1  0
 19 20  1  1
 20 14  1  0
 21 23  1  0
 21 19  1  0
 22 21  2  0
M  END
$$$$
