KCV.pdb
     RDKit          3D

 23 22  0  0  1  0  0  0  0  0999 V2000
   25.9895  -24.7649  -15.4556 N   0  0  0  0  0  0  0  0  0  0  0  0
   26.2669  -23.3767  -15.1527 C   0  0  1  0  0  0  0  0  0  0  0  0
   26.1185  -22.5347  -16.3844 C   0  0  0  0  0  0  0  0  0  0  0  0
   26.9740  -23.0630  -17.4959 C   0  0  0  0  0  0  0  0  0  0  0  0
   28.4222  -22.6417  -17.3569 C   0  0  0  0  0  0  0  0  0  0  0  0
   29.2302  -23.1679  -18.5314 C   0  0  0  0  0  0  0  0  0  0  0  0
   30.6317  -22.8878  -18.3229 N   0  0  0  0  0  0  0  0  0  0  0  0
   25.3511  -22.9390  -14.0608 C   0  0  0  0  0  0  0  0  0  0  0  0
   24.2132  -23.4892  -13.9313 O   0  0  0  0  0  0  0  0  0  0  0  0
   25.6781  -21.9208  -13.1331 N   0  0  0  0  0  0  0  0  0  0  0  0
   24.7034  -21.4204  -12.1526 C   0  0  1  0  0  0  0  0  0  0  0  0
   25.3907  -20.5391  -11.1264 C   0  0  0  0  0  0  0  0  0  0  0  0
   25.2168  -21.2019   -9.4529 S   0  0  0  0  0  0  0  0  0  0  0  0
   23.6793  -20.6574  -12.9132 C   0  0  0  0  0  0  0  0  0  0  0  0
   23.9606  -19.5840  -13.5427 O   0  0  0  0  0  0  0  0  0  0  0  0
   20.2336  -22.4843  -14.3006 C   0  0  0  0  0  0  0  0  0  0  0  0
   20.8047  -21.2222  -14.9121 C   0  0  1  0  0  0  0  0  0  0  0  0
   19.7626  -20.4521  -15.6726 C   0  0  0  0  0  0  0  0  0  0  0  0
   21.3224  -20.3641  -13.7783 C   0  0  2  0  0  0  0  0  0  0  0  0
   22.3204  -21.0712  -12.9903 N   0  0  0  0  0  0  0  0  0  0  0  0
   20.2289  -19.9242  -12.8808 C   0  0  0  0  0  0  0  0  0  0  0  0
   19.3527  -19.1173  -13.2735 O   0  0  0  0  0  0  0  0  0  0  0  0
   20.1430  -20.3922  -11.5807 O   0  0  0  0  0  0  0  0  0  0  0  0
  2  8  1  0
  2  1  1  6
  3  2  1  0
  4  3  1  0
  5  4  1  0
  6  7  1  0
  6  5  1  0
  8  9  2  0
 10 11  1  0
 10  8  1  0
 11 12  1  1
 13 12  1  0
 14 15  2  0
 14 11  1  0
 17 16  1  1
 17 19  1  0
 18 17  1  0
 19 20  1  1
 20 14  1  0
 21 23  1  0
 21 19  1  0
 22 21  2  0
M  END
$$$$
