KCV.pdb
     RDKit          3D

 23 22  0  0  1  0  0  0  0  0999 V2000
   19.9335  -12.6098  -17.8594 N   0  0  0  0  0  0  0  0  0  0  0  0
   20.8665  -11.5208  -18.0580 C   0  0  1  0  0  0  0  0  0  0  0  0
   20.8904  -11.1113  -19.5001 C   0  0  0  0  0  0  0  0  0  0  0  0
   20.4342  -12.2358  -20.3798 C   0  0  0  0  0  0  0  0  0  0  0  0
   21.5530  -13.2048  -20.7013 C   0  0  0  0  0  0  0  0  0  0  0  0
   21.0848  -14.2116  -21.7387 C   0  0  0  0  0  0  0  0  0  0  0  0
   22.1158  -15.1987  -21.9594 N   0  0  0  0  0  0  0  0  0  0  0  0
   20.4765  -10.3949  -17.1619 C   0  0  0  0  0  0  0  0  0  0  0  0
   19.2477  -10.1592  -16.9409 O   0  0  0  0  0  0  0  0  0  0  0  0
   21.4147   -9.5481  -16.5239 N   0  0  0  0  0  0  0  0  0  0  0  0
   20.9951   -8.4157  -15.6852 C   0  0  1  0  0  0  0  0  0  0  0  0
   21.5207   -8.5817  -14.2716 C   0  0  0  0  0  0  0  0  0  0  0  0
   21.2153   -7.1087  -13.2680 S   0  0  0  0  0  0  0  0  0  0  0  0
   21.5393   -7.1856  -16.3176 C   0  0  0  0  0  0  0  0  0  0  0  0
   22.6997   -7.1501  -16.8466 O   0  0  0  0  0  0  0  0  0  0  0  0
   19.1476   -4.4901  -18.1267 C   0  0  0  0  0  0  0  0  0  0  0  0
   20.6407   -4.5527  -18.3710 C   0  0  1  0  0  0  0  0  0  0  0  0
   21.1591   -3.2782  -18.9748 C   0  0  0  0  0  0  0  0  0  0  0  0
   21.3098   -4.7716  -17.0315 C   0  0  2  0  0  0  0  0  0  0  0  0
   20.8053   -5.9683  -16.3755 N   0  0  0  0  0  0  0  0  0  0  0  0
   21.1175   -3.6140  -16.1274 C   0  0  0  0  0  0  0  0  0  0  0  0
   20.1549   -3.5711  -15.3244 O   0  0  0  0  0  0  0  0  0  0  0  0
   21.9964   -2.5445  -16.1431 O   0  0  0  0  0  0  0  0  0  0  0  0
  2  8  1  0
  2  1  1  6
  3  2  1  0
  4  3  1  0
  5  4  1  0
  6  7  1  0
  6  5  1  0
  8  9  2  0
 10 11  1  0
 10  8  1  0
 11 12  1  1
 13 12  1  0
 14 15  2  0
 14 11  1  0
 17 16  1  1
 17 19  1  0
 18 17  1  0
 19 20  1  1
 20 14  1  0
 21 23  1  0
 21 19  1  0
 22 21  2  0
M  END
$$$$
