KCV.pdb
     RDKit          3D

 23 22  0  0  1  0  0  0  0  0999 V2000
   19.3402   -9.5024  -17.4910 N   0  0  0  0  0  0  0  0  0  0  0  0
   18.1957   -8.7946  -16.9571 C   0  0  1  0  0  0  0  0  0  0  0  0
   17.2102   -9.7622  -16.3734 C   0  0  0  0  0  0  0  0  0  0  0  0
   17.8332  -11.1140  -16.1969 C   0  0  0  0  0  0  0  0  0  0  0  0
   16.8479  -12.1369  -15.6709 C   0  0  0  0  0  0  0  0  0  0  0  0
   17.5150  -13.4990  -15.5774 C   0  0  0  0  0  0  0  0  0  0  0  0
   16.5656  -14.4743  -15.0943 N   0  0  0  0  0  0  0  0  0  0  0  0
   18.6782   -7.8087  -15.9482 C   0  0  0  0  0  0  0  0  0  0  0  0
   17.8401   -7.1308  -15.2756 O   0  0  0  0  0  0  0  0  0  0  0  0
   20.0492   -7.5735  -15.6848 N   0  0  0  0  0  0  0  0  0  0  0  0
   20.4904   -6.6361  -14.6415 C   0  0  1  0  0  0  0  0  0  0  0  0
   21.7359   -7.1607  -13.9520 C   0  0  0  0  0  0  0  0  0  0  0  0
   22.4526   -5.9288  -12.8389 S   0  0  0  0  0  0  0  0  0  0  0  0
   20.7575   -5.3374  -15.3134 C   0  0  0  0  0  0  0  0  0  0  0  0
   21.4466   -5.2555  -16.3839 O   0  0  0  0  0  0  0  0  0  0  0  0
   18.8390   -2.8775  -17.0528 C   0  0  0  0  0  0  0  0  0  0  0  0
   19.3987   -2.0796  -15.8938 C   0  0  1  0  0  0  0  0  0  0  0  0
   18.4042   -1.9524  -14.7748 C   0  0  0  0  0  0  0  0  0  0  0  0
   20.6205   -2.8145  -15.3867 C   0  0  2  0  0  0  0  0  0  0  0  0
   20.2643   -4.1017  -14.8098 N   0  0  0  0  0  0  0  0  0  0  0  0
   21.3541   -2.0226  -14.3721 C   0  0  0  0  0  0  0  0  0  0  0  0
   21.3847   -2.3784  -13.1697 O   0  0  0  0  0  0  0  0  0  0  0  0
   22.0279   -0.8653  -14.7229 O   0  0  0  0  0  0  0  0  0  0  0  0
  2  8  1  0
  2  1  1  1
  3  2  1  0
  4  3  1  0
  5  4  1  0
  6  7  1  0
  6  5  1  0
  8  9  2  0
 10 11  1  0
 10  8  1  0
 11 12  1  6
 13 12  1  0
 14 15  2  0
 14 11  1  0
 17 16  1  6
 17 19  1  0
 18 17  1  0
 19 20  1  1
 20 14  1  0
 21 23  1  0
 21 19  1  0
 22 21  2  0
M  END
$$$$
