KCV.pdb
     RDKit          3D

 23 22  0  0  1  0  0  0  0  0999 V2000
   22.1870  -20.8151  -10.0378 N   0  0  0  0  0  0  0  0  0  0  0  0
   21.9971  -21.0271  -11.4573 C   0  0  1  0  0  0  0  0  0  0  0  0
   20.6873  -20.4472  -11.9002 C   0  0  0  0  0  0  0  0  0  0  0  0
   19.7197  -21.5335  -12.2609 C   0  0  0  0  0  0  0  0  0  0  0  0
   19.1718  -22.2441  -11.0406 C   0  0  0  0  0  0  0  0  0  0  0  0
   18.1016  -23.2392  -11.4571 C   0  0  0  0  0  0  0  0  0  0  0  0
   17.5795  -23.9102  -10.2895 N   0  0  0  0  0  0  0  0  0  0  0  0
   23.1512  -20.4246  -12.1837 C   0  0  0  0  0  0  0  0  0  0  0  0
   23.1796  -19.1726  -12.3980 O   0  0  0  0  0  0  0  0  0  0  0  0
   24.2481  -21.1803  -12.6634 N   0  0  0  0  0  0  0  0  0  0  0  0
   25.4103  -20.5445  -13.3012 C   0  0  1  0  0  0  0  0  0  0  0  0
   26.6913  -21.2382  -12.8770 C   0  0  0  0  0  0  0  0  0  0  0  0
   26.4292  -22.3053  -11.4408 S   0  0  0  0  0  0  0  0  0  0  0  0
   25.2067  -20.6481  -14.7699 C   0  0  0  0  0  0  0  0  0  0  0  0
   24.7642  -21.7101  -15.3212 O   0  0  0  0  0  0  0  0  0  0  0  0
   23.1436  -18.3628  -16.9558 C   0  0  0  0  0  0  0  0  0  0  0  0
   24.5267  -18.3822  -17.5721 C   0  0  1  0  0  0  0  0  0  0  0  0
   25.3349  -17.1839  -17.1618 C   0  0  0  0  0  0  0  0  0  0  0  0
   25.2213  -19.6356  -17.0860 C   0  0  2  0  0  0  0  0  0  0  0  0
   25.4906  -19.5732  -15.6576 N   0  0  0  0  0  0  0  0  0  0  0  0
   26.4965  -19.8683  -17.8029 C   0  0  0  0  0  0  0  0  0  0  0  0
   27.5987  -19.5896  -17.2730 O   0  0  0  0  0  0  0  0  0  0  0  0
   26.5081  -20.4010  -19.0807 O   0  0  0  0  0  0  0  0  0  0  0  0
  2  8  1  0
  2  1  1  1
  3  2  1  0
  4  3  1  0
  5  4  1  0
  6  7  1  0
  6  5  1  0
  8  9  2  0
 10 11  1  0
 10  8  1  0
 11 12  1  6
 13 12  1  0
 14 15  2  0
 14 11  1  0
 17 16  1  1
 17 19  1  0
 18 17  1  0
 19 20  1  1
 20 14  1  0
 21 23  1  0
 21 19  1  0
 22 21  2  0
M  END
$$$$
