FHH.pdb
     RDKit          3D

 32 34  0  0  1  0  0  0  0  0999 V2000
    5.6845  -16.8470   24.4858 N   0  0  0  0  0  0  0  0  0  0  0  0
    6.6220  -15.7588   24.3670 C   0  0  1  0  0  0  0  0  0  0  0  0
    7.1056  -15.3293   25.7424 C   0  0  0  0  0  0  0  0  0  0  0  0
    6.7486  -13.9472   26.0572 C   0  0  0  0  0  0  0  0  0  0  0  0
    7.6335  -12.9344   25.7799 C   0  0  0  0  0  0  0  0  0  0  0  0
    7.3448  -11.6026   26.0561 C   0  0  0  0  0  0  0  0  0  0  0  0
    6.1325  -11.3237   26.6224 C   0  0  0  0  0  0  0  0  0  0  0  0
    5.2134  -12.3032   26.9185 C   0  0  0  0  0  0  0  0  0  0  0  0
    5.5381  -13.6222   26.6277 C   0  0  0  0  0  0  0  0  0  0  0  0
    7.8253  -16.1107   23.5730 C   0  0  0  0  0  0  0  0  0  0  0  0
    8.3287  -17.2634   23.5499 O   0  0  0  0  0  0  0  0  0  0  0  0
    8.4938  -15.1205   22.7637 N   0  0  0  0  0  0  0  0  0  0  0  0
    9.6035  -15.4699   21.9077 C   0  0  1  0  0  0  0  0  0  0  0  0
    9.9664  -14.3073   20.9917 C   0  0  0  0  0  0  0  0  0  0  0  0
    8.9742  -14.1221   19.9231 C   0  0  0  0  0  0  0  0  0  0  0  0
    7.9224  -14.9533   19.6390 C   0  0  0  0  0  0  0  0  0  0  0  0
    7.2134  -14.4789   18.5942 N   0  0  0  0  0  0  0  0  0  0  0  0
    7.8372  -13.3392   18.2290 C   0  0  0  0  0  0  0  0  0  0  0  0
    8.8971  -13.1209   19.0259 N   0  0  0  0  0  0  0  0  0  0  0  0
   10.7685  -15.8570   22.7517 C   0  0  0  0  0  0  0  0  0  0  0  0
   11.0745  -15.1523   23.7393 O   0  0  0  0  0  0  0  0  0  0  0  0
   11.5538  -17.0028   22.4797 N   0  0  0  0  0  0  0  0  0  0  0  0
   12.7397  -17.4086   23.2168 C   0  0  1  0  0  0  0  0  0  0  0  0
   12.6887  -18.8311   23.6296 C   0  0  0  0  0  0  0  0  0  0  0  0
   11.6749  -19.0623   24.6672 C   0  0  0  0  0  0  0  0  0  0  0  0
   10.9154  -18.1985   25.3970 C   0  0  0  0  0  0  0  0  0  0  0  0
   10.1332  -18.8671   26.2646 N   0  0  0  0  0  0  0  0  0  0  0  0
   10.3911  -20.1659   26.0917 C   0  0  0  0  0  0  0  0  0  0  0  0
   11.3252  -20.3012   25.1251 N   0  0  0  0  0  0  0  0  0  0  0  0
   14.0029  -16.9526   22.5908 C   0  0  0  0  0  0  0  0  0  0  0  0
   14.0056  -16.4901   21.4256 O   0  0  0  0  0  0  0  0  0  0  0  0
   15.2281  -17.0081   23.2437 O   0  0  0  0  0  0  0  0  0  0  0  0
  2  1  1  1
  3  4  1  0
  3  2  1  0
  4  5  2  0
  5  6  1  0
  7  6  2  0
  8  7  1  0
  9  4  1  0
  9  8  2  0
 10 11  2  0
 10  2  1  0
 12 10  1  0
 13 12  1  0
 13 14  1  1
 14 15  1  0
 15 16  2  0
 15 19  1  0
 16 17  1  0
 17 18  1  0
 19 18  2  0
 20 13  1  0
 21 20  2  0
 22 20  1  0
 23 22  1  0
 24 25  1  0
 23 24  1  6
 25 29  1  0
 26 27  1  0
 26 25  2  0
 27 28  1  0
 28 29  2  0
 30 23  1  0
 30 32  1  0
 31 30  2  0
M  END
$$$$
