FHH.pdb
     RDKit          3D

 32 34  0  0  1  0  0  0  0  0999 V2000
    5.4527  -17.4961   22.2487 N   0  0  0  0  0  0  0  0  0  0  0  0
    6.3376  -16.6861   21.4501 C   0  0  1  0  0  0  0  0  0  0  0  0
    6.5593  -15.3375   22.1152 C   0  0  0  0  0  0  0  0  0  0  0  0
    7.2508  -14.3886   21.2445 C   0  0  0  0  0  0  0  0  0  0  0  0
    6.7284  -14.0904   20.0100 C   0  0  0  0  0  0  0  0  0  0  0  0
    7.3430  -13.1940   19.1428 C   0  0  0  0  0  0  0  0  0  0  0  0
    8.5040  -12.6063   19.5609 C   0  0  0  0  0  0  0  0  0  0  0  0
    9.0659  -12.8726   20.7878 C   0  0  0  0  0  0  0  0  0  0  0  0
    8.4224  -13.7738   21.6264 C   0  0  0  0  0  0  0  0  0  0  0  0
    7.6745  -17.3008   21.2567 C   0  0  0  0  0  0  0  0  0  0  0  0
    8.4013  -17.6937   22.2053 O   0  0  0  0  0  0  0  0  0  0  0  0
    8.2200  -17.4853   19.9336 N   0  0  0  0  0  0  0  0  0  0  0  0
    9.4685  -18.1803   19.7225 C   0  0  1  0  0  0  0  0  0  0  0  0
    9.6893  -18.4567   18.2402 C   0  0  0  0  0  0  0  0  0  0  0  0
   10.8710  -19.3003   18.0108 C   0  0  0  0  0  0  0  0  0  0  0  0
   12.1201  -18.8671   17.6504 C   0  0  0  0  0  0  0  0  0  0  0  0
   12.9653  -19.9109   17.5263 N   0  0  0  0  0  0  0  0  0  0  0  0
   12.2264  -21.0031   17.8140 C   0  0  0  0  0  0  0  0  0  0  0  0
   10.9659  -20.6402   18.1060 N   0  0  0  0  0  0  0  0  0  0  0  0
   10.5831  -17.3612   20.2757 C   0  0  0  0  0  0  0  0  0  0  0  0
   10.9603  -16.3391   19.6604 O   0  0  0  0  0  0  0  0  0  0  0  0
   11.2418  -17.6950   21.4833 N   0  0  0  0  0  0  0  0  0  0  0  0
   12.3544  -16.9644   22.0686 C   0  0  1  0  0  0  0  0  0  0  0  0
   12.2008  -15.4967   21.9313 C   0  0  0  0  0  0  0  0  0  0  0  0
   12.7744  -15.0032   20.6722 C   0  0  0  0  0  0  0  0  0  0  0  0
   13.4467  -15.6414   19.6741 C   0  0  0  0  0  0  0  0  0  0  0  0
   13.8152  -14.7717   18.7152 N   0  0  0  0  0  0  0  0  0  0  0  0
   13.3780  -13.5696   19.0989 C   0  0  0  0  0  0  0  0  0  0  0  0
   12.7438  -13.6931   20.2853 N   0  0  0  0  0  0  0  0  0  0  0  0
   12.7396  -17.4606   23.4106 C   0  0  0  0  0  0  0  0  0  0  0  0
   13.7162  -16.9617   24.0179 O   0  0  0  0  0  0  0  0  0  0  0  0
   12.0561  -18.4818   24.0590 O   0  0  0  0  0  0  0  0  0  0  0  0
  2  1  1  1
  3  4  1  0
  3  2  1  0
  4  5  2  0
  5  6  1  0
  7  6  2  0
  8  7  1  0
  9  4  1  0
  9  8  2  0
 10 11  2  0
 10  2  1  0
 12 10  1  0
 13 12  1  0
 13 14  1  6
 14 15  1  0
 15 16  2  0
 15 19  1  0
 16 17  1  0
 17 18  1  0
 19 18  2  0
 20 13  1  0
 21 20  2  0
 22 20  1  0
 23 22  1  0
 24 25  1  0
 23 24  1  1
 25 29  1  0
 26 27  1  0
 26 25  2  0
 27 28  1  0
 28 29  2  0
 30 23  1  0
 30 32  1  0
 31 30  2  0
M  END
$$$$
