FHH.pdb
     RDKit          3D

 32 34  0  0  1  0  0  0  0  0999 V2000
    6.9723  -16.1006   26.2222 N   0  0  0  0  0  0  0  0  0  0  0  0
    7.1238  -15.7955   24.8219 C   0  0  1  0  0  0  0  0  0  0  0  0
    7.7059  -14.4023   24.6475 C   0  0  0  0  0  0  0  0  0  0  0  0
    7.2734  -13.4778   25.6939 C   0  0  0  0  0  0  0  0  0  0  0  0
    6.0004  -12.9635   25.6656 C   0  0  0  0  0  0  0  0  0  0  0  0
    5.5361  -12.0825   26.6360 C   0  0  0  0  0  0  0  0  0  0  0  0
    6.3983  -11.7356   27.6382 C   0  0  0  0  0  0  0  0  0  0  0  0
    7.6820  -12.2240   27.7094 C   0  0  0  0  0  0  0  0  0  0  0  0
    8.1096  -13.1021   26.7215 C   0  0  0  0  0  0  0  0  0  0  0  0
    8.0280  -16.7364   24.1152 C   0  0  0  0  0  0  0  0  0  0  0  0
    8.8927  -17.4387   24.6998 O   0  0  0  0  0  0  0  0  0  0  0  0
    7.9556  -16.8981   22.6832 N   0  0  0  0  0  0  0  0  0  0  0  0
    8.8073  -17.8329   21.9854 C   0  0  1  0  0  0  0  0  0  0  0  0
    8.2541  -18.1368   20.5983 C   0  0  0  0  0  0  0  0  0  0  0  0
    9.0832  -19.1157   19.8808 C   0  0  0  0  0  0  0  0  0  0  0  0
    9.9753  -18.8433   18.8769 C   0  0  0  0  0  0  0  0  0  0  0  0
   10.5635  -19.9780   18.4458 N   0  0  0  0  0  0  0  0  0  0  0  0
   10.0261  -20.9639   19.1946 C   0  0  0  0  0  0  0  0  0  0  0  0
    9.1350  -20.4495   20.0591 N   0  0  0  0  0  0  0  0  0  0  0  0
   10.1812  -17.2649   21.8901 C   0  0  0  0  0  0  0  0  0  0  0  0
   10.3766  -16.2384   21.2019 O   0  0  0  0  0  0  0  0  0  0  0  0
   11.2888  -17.8450   22.5535 N   0  0  0  0  0  0  0  0  0  0  0  0
   12.6691  -17.4027   22.4384 C   0  0  1  0  0  0  0  0  0  0  0  0
   12.7864  -15.9262   22.3856 C   0  0  0  0  0  0  0  0  0  0  0  0
   12.9321  -15.4391   21.0075 C   0  0  0  0  0  0  0  0  0  0  0  0
   13.0066  -16.0998   19.8186 C   0  0  0  0  0  0  0  0  0  0  0  0
   13.1696  -15.2339   18.8011 N   0  0  0  0  0  0  0  0  0  0  0  0
   13.2000  -14.0117   19.3384 C   0  0  0  0  0  0  0  0  0  0  0  0
   13.0570  -14.1191   20.6774 N   0  0  0  0  0  0  0  0  0  0  0  0
   13.5873  -18.1005   23.3688 C   0  0  0  0  0  0  0  0  0  0  0  0
   14.6124  -18.6789   22.9376 O   0  0  0  0  0  0  0  0  0  0  0  0
   13.3715  -18.1515   24.7404 O   0  0  0  0  0  0  0  0  0  0  0  0
  2  1  1  1
  3  4  1  0
  3  2  1  0
  4  5  2  0
  5  6  1  0
  7  6  2  0
  8  7  1  0
  9  4  1  0
  9  8  2  0
 10 11  2  0
 10  2  1  0
 12 10  1  0
 13 12  1  0
 13 14  1  6
 14 15  1  0
 15 16  2  0
 15 19  1  0
 16 17  1  0
 17 18  1  0
 19 18  2  0
 20 13  1  0
 21 20  2  0
 22 20  1  0
 23 22  1  0
 24 25  1  0
 23 24  1  1
 25 29  1  0
 26 27  1  0
 26 25  2  0
 27 28  1  0
 28 29  2  0
 30 23  1  0
 30 32  1  0
 31 30  2  0
M  END
$$$$
