KYF.pdb
     RDKit          3D

 33 34  0  0  1  0  0  0  0  0999 V2000
   13.8847  -12.4482  -13.7243 N   0  0  0  0  0  0  0  0  0  0  0  0
   13.7502  -10.9790  -13.7118 C   0  0  1  0  0  0  0  0  0  0  0  0
   12.5335  -10.6803  -12.8917 C   0  0  0  0  0  0  0  0  0  0  0  0
   11.9780  -11.9155  -12.2648 C   0  0  0  0  0  0  0  0  0  0  0  0
   10.7987  -11.5651  -11.4065 C   0  0  0  0  0  0  0  0  0  0  0  0
   10.2668  -12.7827  -10.7045 C   0  0  0  0  0  0  0  0  0  0  0  0
    9.2145  -12.3016   -9.8045 N   0  0  0  0  0  0  0  0  0  0  0  0
   14.9383  -10.3687  -13.0937 C   0  0  0  0  0  0  0  0  0  0  0  0
   15.6337  -11.0467  -12.3028 O   0  0  0  0  0  0  0  0  0  0  0  0
   22.3108   -6.0630  -11.4409 O   0  0  0  0  0  0  0  0  0  0  0  0
   21.1234   -6.5003  -11.9981 C   0  0  0  0  0  0  0  0  0  0  0  0
   20.8594   -7.8428  -12.0651 C   0  0  0  0  0  0  0  0  0  0  0  0
   19.7022   -8.3305  -12.6051 C   0  0  0  0  0  0  0  0  0  0  0  0
   18.7334   -7.4648  -13.1155 C   0  0  0  0  0  0  0  0  0  0  0  0
   17.5093   -8.0180  -13.6964 C   0  0  0  0  0  0  0  0  0  0  0  0
   16.4890   -8.4773  -12.6624 C   0  0  2  0  0  0  0  0  0  0  0  0
   15.3417   -9.0265  -13.3542 N   0  0  0  0  0  0  0  0  0  0  0  0
   16.0562   -7.3262  -11.8428 C   0  0  0  0  0  0  0  0  0  0  0  0
   15.2516   -6.4483  -12.2335 O   0  0  0  0  0  0  0  0  0  0  0  0
   19.0057   -6.1096  -13.0454 C   0  0  0  0  0  0  0  0  0  0  0  0
   20.1744   -5.6340  -12.4990 C   0  0  0  0  0  0  0  0  0  0  0  0
   16.5743   -7.1911  -10.5285 N   0  0  0  0  0  0  0  0  0  0  0  0
   16.0968   -6.0996   -9.6725 C   0  0  1  0  0  0  0  0  0  0  0  0
   15.8491   -6.7235   -8.3120 C   0  0  0  0  0  0  0  0  0  0  0  0
   14.4354   -7.1240   -8.1686 C   0  0  0  0  0  0  0  0  0  0  0  0
   13.4590   -6.2179   -7.8347 C   0  0  0  0  0  0  0  0  0  0  0  0
   12.1224   -6.6101   -7.7069 C   0  0  0  0  0  0  0  0  0  0  0  0
   11.7947   -7.9465   -7.9256 C   0  0  0  0  0  0  0  0  0  0  0  0
   12.7640   -8.8618   -8.2601 C   0  0  0  0  0  0  0  0  0  0  0  0
   14.0697   -8.4305   -8.3753 C   0  0  0  0  0  0  0  0  0  0  0  0
   17.1304   -5.0530   -9.6624 C   0  0  0  0  0  0  0  0  0  0  0  0
   16.9270   -3.9887   -9.0375 O   0  0  0  0  0  0  0  0  0  0  0  0
   18.3299   -5.2093  -10.3272 O   0  0  0  0  0  0  0  0  0  0  0  0
  2  3  1  0
  2  1  1  1
  4  3  1  0
  5  4  1  0
  6  5  1  0
  7  6  1  0
  8  2  1  0
  9  8  2  0
 10 11  1  0
 11 12  2  0
 11 21  1  0
 12 13  1  0
 13 14  2  0
 14 15  1  0
 16 15  1  6
 16 17  1  0
 17  8  1  0
 18 16  1  0
 18 22  1  0
 19 18  2  0
 20 14  1  0
 21 20  2  0
 23 22  1  0
 23 31  1  0
 23 24  1  1
 24 25  1  0
 25 30  1  0
 25 26  2  0
 26 27  1  0
 27 28  2  0
 29 28  1  0
 30 29  2  0
 31 33  1  0
 32 31  2  0
M  END
$$$$
