KYF.pdb
     RDKit          3D

 33 34  0  0  1  0  0  0  0  0999 V2000
   27.7287  -23.2795  -16.3359 N   0  0  0  0  0  0  0  0  0  0  0  0
   27.1493  -21.9445  -16.0935 C   0  0  1  0  0  0  0  0  0  0  0  0
   26.2016  -21.6913  -17.2248 C   0  0  0  0  0  0  0  0  0  0  0  0
   26.8177  -20.8258  -18.2729 C   0  0  0  0  0  0  0  0  0  0  0  0
   28.0319  -21.4993  -18.8407 C   0  0  0  0  0  0  0  0  0  0  0  0
   28.6113  -20.6951  -19.9703 C   0  0  0  0  0  0  0  0  0  0  0  0
   29.8347  -21.3933  -20.3761 N   0  0  0  0  0  0  0  0  0  0  0  0
   26.4223  -21.9346  -14.8138 C   0  0  0  0  0  0  0  0  0  0  0  0
   25.8554  -22.9811  -14.4235 O   0  0  0  0  0  0  0  0  0  0  0  0
   31.2300  -21.6492   -9.8641 O   0  0  0  0  0  0  0  0  0  0  0  0
   30.0167  -21.2076  -10.3585 C   0  0  0  0  0  0  0  0  0  0  0  0
   28.8873  -21.3291   -9.5929 C   0  0  0  0  0  0  0  0  0  0  0  0
   27.6626  -20.9095  -10.0314 C   0  0  0  0  0  0  0  0  0  0  0  0
   27.5167  -20.3331  -11.2944 C   0  0  0  0  0  0  0  0  0  0  0  0
   26.1904  -19.9029  -11.7393 C   0  0  0  0  0  0  0  0  0  0  0  0
   25.5531  -20.8311  -12.7657 C   0  0  2  0  0  0  0  0  0  0  0  0
   26.3306  -20.7776  -13.9861 N   0  0  0  0  0  0  0  0  0  0  0  0
   24.1723  -20.3877  -13.0501 C   0  0  0  0  0  0  0  0  0  0  0  0
   23.8667  -19.5800  -13.9583 O   0  0  0  0  0  0  0  0  0  0  0  0
   28.6609  -20.2131  -12.0636 C   0  0  0  0  0  0  0  0  0  0  0  0
   29.8863  -20.6399  -11.6087 C   0  0  0  0  0  0  0  0  0  0  0  0
   23.1140  -20.8989  -12.2547 N   0  0  0  0  0  0  0  0  0  0  0  0
   21.7247  -20.6335  -12.6440 C   0  0  1  0  0  0  0  0  0  0  0  0
   21.5536  -21.2678  -14.0114 C   0  0  0  0  0  0  0  0  0  0  0  0
   20.1667  -21.1110  -14.4922 C   0  0  0  0  0  0  0  0  0  0  0  0
   19.7568  -19.9816  -15.1573 C   0  0  0  0  0  0  0  0  0  0  0  0
   18.4407  -19.8483  -15.6119 C   0  0  0  0  0  0  0  0  0  0  0  0
   17.5442  -20.8887  -15.3770 C   0  0  0  0  0  0  0  0  0  0  0  0
   17.9438  -22.0235  -14.7121 C   0  0  0  0  0  0  0  0  0  0  0  0
   19.2518  -22.1121  -14.2816 C   0  0  0  0  0  0  0  0  0  0  0  0
   20.8515  -21.2124  -11.6115 C   0  0  0  0  0  0  0  0  0  0  0  0
   19.8257  -20.5941  -11.2509 O   0  0  0  0  0  0  0  0  0  0  0  0
   21.1306  -22.4288  -11.0216 O   0  0  0  0  0  0  0  0  0  0  0  0
  2  3  1  0
  2  1  1  6
  4  3  1  0
  5  4  1  0
  6  5  1  0
  7  6  1  0
  8  2  1  0
  9  8  2  0
 10 11  1  0
 11 12  2  0
 11 21  1  0
 12 13  1  0
 13 14  2  0
 14 15  1  0
 16 15  1  1
 16 17  1  0
 17  8  1  0
 18 16  1  0
 18 22  1  0
 19 18  2  0
 20 14  1  0
 21 20  2  0
 23 22  1  0
 23 31  1  0
 23 24  1  6
 24 25  1  0
 25 30  1  0
 25 26  2  0
 26 27  1  0
 27 28  2  0
 29 28  1  0
 30 29  2  0
 31 33  1  0
 32 31  2  0
M  END
$$$$
