KYF.pdb
     RDKit          3D

 33 34  0  0  1  0  0  0  0  0999 V2000
   29.0148  -23.3208  -18.0361 N   0  0  0  0  0  0  0  0  0  0  0  0
   29.0233  -21.9620  -17.4614 C   0  0  1  0  0  0  0  0  0  0  0  0
   28.6021  -21.0416  -18.5648 C   0  0  0  0  0  0  0  0  0  0  0  0
   29.7248  -20.7681  -19.5093 C   0  0  0  0  0  0  0  0  0  0  0  0
   29.3098  -19.7269  -20.5062 C   0  0  0  0  0  0  0  0  0  0  0  0
   30.4019  -19.4796  -21.5084 C   0  0  0  0  0  0  0  0  0  0  0  0
   29.8616  -18.5057  -22.4615 N   0  0  0  0  0  0  0  0  0  0  0  0
   28.0689  -21.8807  -16.3439 C   0  0  0  0  0  0  0  0  0  0  0  0
   27.0476  -22.6056  -16.3571 O   0  0  0  0  0  0  0  0  0  0  0  0
   24.6386  -20.2043   -8.3496 O   0  0  0  0  0  0  0  0  0  0  0  0
   25.4639  -20.2896   -9.4556 C   0  0  0  0  0  0  0  0  0  0  0  0
   25.6185  -19.2008  -10.2723 C   0  0  0  0  0  0  0  0  0  0  0  0
   26.4214  -19.2292  -11.3782 C   0  0  0  0  0  0  0  0  0  0  0  0
   27.1232  -20.3864  -11.7200 C   0  0  0  0  0  0  0  0  0  0  0  0
   27.9671  -20.3885  -12.9158 C   0  0  0  0  0  0  0  0  0  0  0  0
   27.3208  -21.0521  -14.1254 C   0  0  2  0  0  0  0  0  0  0  0  0
   28.2523  -21.0063  -15.2331 N   0  0  0  0  0  0  0  0  0  0  0  0
   26.0897  -20.3234  -14.4961 C   0  0  0  0  0  0  0  0  0  0  0  0
   26.0732  -19.2772  -15.1859 O   0  0  0  0  0  0  0  0  0  0  0  0
   26.9630  -21.4834  -10.8915 C   0  0  0  0  0  0  0  0  0  0  0  0
   26.1518  -21.4396   -9.7822 C   0  0  0  0  0  0  0  0  0  0  0  0
   24.8392  -20.8261  -14.0516 N   0  0  0  0  0  0  0  0  0  0  0  0
   23.6076  -20.1094  -14.4003 C   0  0  1  0  0  0  0  0  0  0  0  0
   23.4861  -20.2127  -15.9090 C   0  0  0  0  0  0  0  0  0  0  0  0
   22.1844  -19.6882  -16.3673 C   0  0  0  0  0  0  0  0  0  0  0  0
   21.0912  -20.5049  -16.5215 C   0  0  0  0  0  0  0  0  0  0  0  0
   19.8623  -19.9937  -16.9517 C   0  0  0  0  0  0  0  0  0  0  0  0
   19.7642  -18.6308  -17.2238 C   0  0  0  0  0  0  0  0  0  0  0  0
   20.8521  -17.8043  -17.0729 C   0  0  0  0  0  0  0  0  0  0  0  0
   22.0447  -18.3517  -16.6461 C   0  0  0  0  0  0  0  0  0  0  0  0
   22.4978  -20.7456  -13.6740 C   0  0  0  0  0  0  0  0  0  0  0  0
   22.5770  -21.9533  -13.3580 O   0  0  0  0  0  0  0  0  0  0  0  0
   21.3602  -20.0454  -13.3263 O   0  0  0  0  0  0  0  0  0  0  0  0
  2  3  1  0
  2  1  1  6
  4  3  1  0
  5  4  1  0
  6  5  1  0
  7  6  1  0
  8  2  1  0
  9  8  2  0
 10 11  1  0
 11 12  2  0
 11 21  1  0
 12 13  1  0
 13 14  2  0
 14 15  1  0
 16 15  1  1
 16 17  1  0
 17  8  1  0
 18 16  1  0
 18 22  1  0
 19 18  2  0
 20 14  1  0
 21 20  2  0
 23 22  1  0
 23 31  1  0
 23 24  1  6
 24 25  1  0
 25 30  1  0
 25 26  2  0
 26 27  1  0
 27 28  2  0
 29 28  1  0
 30 29  2  0
 31 33  1  0
 32 31  2  0
M  END
$$$$
