KYF.pdb
     RDKit          3D

 33 34  0  0  1  0  0  0  0  0999 V2000
   25.3312  -22.7489  -19.3368 N   0  0  0  0  0  0  0  0  0  0  0  0
   24.7244  -21.7861  -18.3980 C   0  0  1  0  0  0  0  0  0  0  0  0
   24.1419  -20.6944  -19.2413 C   0  0  0  0  0  0  0  0  0  0  0  0
   25.1967  -19.9806  -20.0193 C   0  0  0  0  0  0  0  0  0  0  0  0
   26.0288  -19.1397  -19.0970 C   0  0  0  0  0  0  0  0  0  0  0  0
   27.0249  -18.3222  -19.8701 C   0  0  0  0  0  0  0  0  0  0  0  0
   27.9018  -17.7046  -18.8709 N   0  0  0  0  0  0  0  0  0  0  0  0
   23.6630  -22.4425  -17.6178 C   0  0  0  0  0  0  0  0  0  0  0  0
   22.8633  -23.2122  -18.1981 O   0  0  0  0  0  0  0  0  0  0  0  0
   25.3687  -28.4797  -15.8211 O   0  0  0  0  0  0  0  0  0  0  0  0
   24.7905  -27.2754  -15.4646 C   0  0  0  0  0  0  0  0  0  0  0  0
   23.4555  -27.2274  -15.1610 C   0  0  0  0  0  0  0  0  0  0  0  0
   22.8325  -26.0648  -14.8023 C   0  0  0  0  0  0  0  0  0  0  0  0
   23.5452  -24.8666  -14.7315 C   0  0  0  0  0  0  0  0  0  0  0  0
   22.8477  -23.6365  -14.3541 C   0  0  0  0  0  0  0  0  0  0  0  0
   22.3540  -22.8186  -15.5409 C   0  0  2  0  0  0  0  0  0  0  0  0
   23.4982  -22.2426  -16.2160 N   0  0  0  0  0  0  0  0  0  0  0  0
   21.4728  -21.7314  -15.0659 C   0  0  0  0  0  0  0  0  0  0  0  0
   21.8727  -20.7336  -14.4216 O   0  0  0  0  0  0  0  0  0  0  0  0
   24.8934  -24.9211  -15.0396 C   0  0  0  0  0  0  0  0  0  0  0  0
   25.5063  -26.0984  -15.3986 C   0  0  0  0  0  0  0  0  0  0  0  0
   20.0840  -21.8062  -15.3483 N   0  0  0  0  0  0  0  0  0  0  0  0
   19.1923  -20.7421  -14.8741 C   0  0  1  0  0  0  0  0  0  0  0  0
   19.6269  -19.4863  -15.6062 C   0  0  0  0  0  0  0  0  0  0  0  0
   19.3468  -19.5985  -17.0513 C   0  0  0  0  0  0  0  0  0  0  0  0
   20.3435  -19.8489  -17.9622 C   0  0  0  0  0  0  0  0  0  0  0  0
   20.0632  -19.9577  -19.3283 C   0  0  0  0  0  0  0  0  0  0  0  0
   18.7452  -19.8066  -19.7539 C   0  0  0  0  0  0  0  0  0  0  0  0
   17.7399  -19.5556  -18.8507 C   0  0  0  0  0  0  0  0  0  0  0  0
   18.0621  -19.4562  -17.5127 C   0  0  0  0  0  0  0  0  0  0  0  0
   17.8105  -21.1499  -15.1709 C   0  0  0  0  0  0  0  0  0  0  0  0
   16.8577  -20.4508  -14.7612 O   0  0  0  0  0  0  0  0  0  0  0  0
   17.5287  -22.2911  -15.8945 O   0  0  0  0  0  0  0  0  0  0  0  0
  2  3  1  0
  2  1  1  6
  4  3  1  0
  5  4  1  0
  6  5  1  0
  7  6  1  0
  8  2  1  0
  9  8  2  0
 10 11  1  0
 11 12  2  0
 11 21  1  0
 12 13  1  0
 13 14  2  0
 14 15  1  0
 16 15  1  1
 16 17  1  0
 17  8  1  0
 18 16  1  0
 18 22  1  0
 19 18  2  0
 20 14  1  0
 21 20  2  0
 23 22  1  0
 23 31  1  0
 23 24  1  6
 24 25  1  0
 25 30  1  0
 25 26  2  0
 26 27  1  0
 27 28  2  0
 29 28  1  0
 30 29  2  0
 31 33  1  0
 32 31  2  0
M  END
$$$$
