KYF.pdb
     RDKit          3D

 33 34  0  0  1  0  0  0  0  0999 V2000
   18.0130  -12.7653  -19.7578 N   0  0  0  0  0  0  0  0  0  0  0  0
   17.6805  -11.9432  -18.5787 C   0  0  1  0  0  0  0  0  0  0  0  0
   17.6424  -12.8835  -17.4140 C   0  0  0  0  0  0  0  0  0  0  0  0
   16.4833  -13.8193  -17.5026 C   0  0  0  0  0  0  0  0  0  0  0  0
   16.5133  -14.7783  -16.3495 C   0  0  0  0  0  0  0  0  0  0  0  0
   15.4920  -15.8656  -16.5305 C   0  0  0  0  0  0  0  0  0  0  0  0
   15.5346  -16.6670  -15.3038 N   0  0  0  0  0  0  0  0  0  0  0  0
   18.7175  -10.9202  -18.3682 C   0  0  0  0  0  0  0  0  0  0  0  0
   19.8607  -11.0993  -18.8477 O   0  0  0  0  0  0  0  0  0  0  0  0
   18.8463   -6.6176  -23.4406 O   0  0  0  0  0  0  0  0  0  0  0  0
   18.9522   -6.8010  -22.0743 C   0  0  0  0  0  0  0  0  0  0  0  0
   17.8438   -7.1496  -21.3487 C   0  0  0  0  0  0  0  0  0  0  0  0
   17.8910   -7.3437  -19.9965 C   0  0  0  0  0  0  0  0  0  0  0  0
   19.0888   -7.1913  -19.2959 C   0  0  0  0  0  0  0  0  0  0  0  0
   19.1050   -7.3963  -17.8468 C   0  0  0  0  0  0  0  0  0  0  0  0
   19.5675   -8.7854  -17.4257 C   0  0  2  0  0  0  0  0  0  0  0  0
   18.4818   -9.7200  -17.6359 N   0  0  0  0  0  0  0  0  0  0  0  0
   19.9305   -8.7776  -15.9931 C   0  0  0  0  0  0  0  0  0  0  0  0
   19.0978   -8.8101  -15.0571 O   0  0  0  0  0  0  0  0  0  0  0  0
   20.2052   -6.8388  -20.0340 C   0  0  0  0  0  0  0  0  0  0  0  0
   20.1421   -6.6471  -21.3941 C   0  0  0  0  0  0  0  0  0  0  0  0
   21.3036   -8.7305  -15.6373 N   0  0  0  0  0  0  0  0  0  0  0  0
   21.6802   -8.6311  -14.2229 C   0  0  1  0  0  0  0  0  0  0  0  0
   22.2490   -9.9882  -13.8536 C   0  0  0  0  0  0  0  0  0  0  0  0
   23.4902  -10.2587  -14.6057 C   0  0  0  0  0  0  0  0  0  0  0  0
   23.5031  -10.3237  -15.9774 C   0  0  0  0  0  0  0  0  0  0  0  0
   24.6874  -10.5758  -16.6778 C   0  0  0  0  0  0  0  0  0  0  0  0
   25.8640  -10.7617  -15.9551 C   0  0  0  0  0  0  0  0  0  0  0  0
   25.8624  -10.6988  -14.5820 C   0  0  0  0  0  0  0  0  0  0  0  0
   24.6711  -10.4477  -13.9326 C   0  0  0  0  0  0  0  0  0  0  0  0
   22.6475   -7.5306  -14.0929 C   0  0  0  0  0  0  0  0  0  0  0  0
   23.1924   -7.0617  -15.1165 O   0  0  0  0  0  0  0  0  0  0  0  0
   22.9766   -6.9931  -12.8648 O   0  0  0  0  0  0  0  0  0  0  0  0
  2  3  1  0
  2  1  1  6
  4  3  1  0
  5  4  1  0
  6  5  1  0
  7  6  1  0
  8  2  1  0
  9  8  2  0
 10 11  1  0
 11 12  2  0
 11 21  1  0
 12 13  1  0
 13 14  2  0
 14 15  1  0
 16 15  1  1
 16 17  1  0
 17  8  1  0
 18 16  1  0
 18 22  1  0
 19 18  2  0
 20 14  1  0
 21 20  2  0
 23 22  1  0
 23 31  1  0
 23 24  1  6
 24 25  1  0
 25 30  1  0
 25 26  2  0
 26 27  1  0
 27 28  2  0
 29 28  1  0
 30 29  2  0
 31 33  1  0
 32 31  2  0
M  END
$$$$
