SGY.pdb
     RDKit          3D

 23 23  0  0  1  0  0  0  0  0999 V2000
    8.7083  -18.1535   16.6938 O   0  0  0  0  0  0  0  0  0  0  0  0
   10.0036  -17.6376   16.7422 C   0  0  0  0  0  0  0  0  0  0  0  0
   10.5191  -17.7806   18.1605 C   0  0  2  0  0  0  0  0  0  0  0  0
   10.2751  -19.0827   18.7036 N   0  0  0  0  0  0  0  0  0  0  0  0
    9.7733  -16.7761   18.9886 C   0  0  0  0  0  0  0  0  0  0  0  0
    9.8848  -15.5447   18.7791 O   0  0  0  0  0  0  0  0  0  0  0  0
    8.9148  -17.1960   20.0398 N   0  0  0  0  0  0  0  0  0  0  0  0
    8.2094  -16.2271   20.8317 C   0  0  0  0  0  0  0  0  0  0  0  0
    9.0212  -15.9651   22.0655 C   0  0  0  0  0  0  0  0  0  0  0  0
   10.2770  -16.0865   22.0921 O   0  0  0  0  0  0  0  0  0  0  0  0
   11.1138  -14.6493   30.5381 O   0  0  0  0  0  0  0  0  0  0  0  0
   10.4261  -14.6696   29.3254 C   0  0  0  0  0  0  0  0  0  0  0  0
   10.2343  -13.5420   28.5548 C   0  0  0  0  0  0  0  0  0  0  0  0
    9.5462  -13.6260   27.3657 C   0  0  0  0  0  0  0  0  0  0  0  0
    9.0240  -14.8305   26.8981 C   0  0  0  0  0  0  0  0  0  0  0  0
    8.2786  -14.8818   25.6288 C   0  0  0  0  0  0  0  0  0  0  0  0
    9.1588  -15.3570   24.5205 C   0  0  2  0  0  0  0  0  0  0  0  0
    8.4091  -15.5614   23.2842 N   0  0  0  0  0  0  0  0  0  0  0  0
    9.9088  -16.5840   24.8312 C   0  0  0  0  0  0  0  0  0  0  0  0
    9.3967  -17.8681   24.8540 O   0  0  0  0  0  0  0  0  0  0  0  0
    9.2272  -15.9455   27.6841 C   0  0  0  0  0  0  0  0  0  0  0  0
    9.9089  -15.8551   28.8596 C   0  0  0  0  0  0  0  0  0  0  0  0
   11.1479  -16.5032   25.1129 O   0  0  0  0  0  0  0  0  0  0  0  0
  2  3  1  0
  2  1  1  0
  3  4  1  1
  5  7  1  0
  5  3  1  0
  6  5  2  0
  8  7  1  0
  9 18  1  0
  9  8  1  0
 10  9  2  0
 12 11  1  0
 12 22  2  0
 13 12  1  0
 14 13  2  0
 14 15  1  0
 15 21  2  0
 16 15  1  0
 17 16  1  1
 17 18  1  0
 19 20  1  0
 19 17  1  0
 21 22  1  0
 23 19  2  0
M  END
$$$$
