SGY.pdb
     RDKit          3D

 23 23  0  0  1  0  0  0  0  0999 V2000
    9.9077  -23.0747   15.9489 O   0  0  0  0  0  0  0  0  0  0  0  0
    9.5674  -21.9947   15.1340 C   0  0  0  0  0  0  0  0  0  0  0  0
   10.4631  -20.8264   15.4954 C   0  0  2  0  0  0  0  0  0  0  0  0
   11.8428  -21.1994   15.5804 N   0  0  0  0  0  0  0  0  0  0  0  0
   10.0183  -20.3501   16.8468 C   0  0  0  0  0  0  0  0  0  0  0  0
    8.8793  -19.8561   17.0232 O   0  0  0  0  0  0  0  0  0  0  0  0
   10.8819  -20.4468   17.9708 N   0  0  0  0  0  0  0  0  0  0  0  0
   10.4345  -20.0230   19.2684 C   0  0  0  0  0  0  0  0  0  0  0  0
   11.5870  -20.1615   20.2183 C   0  0  0  0  0  0  0  0  0  0  0  0
   11.5814  -19.6534   21.3735 O   0  0  0  0  0  0  0  0  0  0  0  0
    9.9144  -24.7480   24.1797 O   0  0  0  0  0  0  0  0  0  0  0  0
   10.9224  -24.2150   23.3774 C   0  0  0  0  0  0  0  0  0  0  0  0
   10.8857  -24.2619   21.9995 C   0  0  0  0  0  0  0  0  0  0  0  0
   11.9122  -23.7176   21.2616 C   0  0  0  0  0  0  0  0  0  0  0  0
   13.0114  -23.1075   21.8630 C   0  0  0  0  0  0  0  0  0  0  0  0
   14.1005  -22.5495   21.0433 C   0  0  0  0  0  0  0  0  0  0  0  0
   13.8720  -21.0974   20.7828 C   0  0  2  0  0  0  0  0  0  0  0  0
   12.7602  -20.8817   19.8610 N   0  0  0  0  0  0  0  0  0  0  0  0
   15.0549  -20.3828   20.2779 C   0  0  0  0  0  0  0  0  0  0  0  0
   16.3084  -20.3685   20.8610 O   0  0  0  0  0  0  0  0  0  0  0  0
   13.0280  -23.0717   23.2417 C   0  0  0  0  0  0  0  0  0  0  0  0
   12.0090  -23.6122   23.9655 C   0  0  0  0  0  0  0  0  0  0  0  0
   14.9611  -19.6997   19.2074 O   0  0  0  0  0  0  0  0  0  0  0  0
  2  3  1  0
  2  1  1  0
  3  4  1  1
  5  7  1  0
  5  3  1  0
  6  5  2  0
  8  7  1  0
  9 18  1  0
  9  8  1  0
 10  9  2  0
 12 11  1  0
 12 22  2  0
 13 12  1  0
 14 13  2  0
 14 15  1  0
 15 21  2  0
 16 15  1  0
 17 16  1  6
 17 18  1  0
 19 20  1  0
 19 17  1  0
 21 22  1  0
 23 19  2  0
M  END
$$$$
