SGY.pdb
     RDKit          3D

 23 23  0  0  1  0  0  0  0  0999 V2000
    8.6114  -17.4474   15.7549 O   0  0  0  0  0  0  0  0  0  0  0  0
    8.6306  -18.7560   16.2379 C   0  0  0  0  0  0  0  0  0  0  0  0
    8.6066  -18.7036   17.7527 C   0  0  2  0  0  0  0  0  0  0  0  0
    7.6552  -17.7580   18.2532 N   0  0  0  0  0  0  0  0  0  0  0  0
    9.9760  -18.2705   18.1862 C   0  0  0  0  0  0  0  0  0  0  0  0
   10.9956  -18.5603   17.5160 O   0  0  0  0  0  0  0  0  0  0  0  0
   10.1556  -17.5152   19.3760 N   0  0  0  0  0  0  0  0  0  0  0  0
   11.4454  -16.9750   19.7051 C   0  0  0  0  0  0  0  0  0  0  0  0
   11.3092  -16.2144   20.9907 C   0  0  0  0  0  0  0  0  0  0  0  0
   12.2828  -15.6311   21.5425 O   0  0  0  0  0  0  0  0  0  0  0  0
    7.8362  -12.7984   17.2831 O   0  0  0  0  0  0  0  0  0  0  0  0
    8.0411  -13.1793   18.6086 C   0  0  0  0  0  0  0  0  0  0  0  0
    9.0447  -12.6503   19.3928 C   0  0  0  0  0  0  0  0  0  0  0  0
    9.1964  -13.0672   20.6958 C   0  0  0  0  0  0  0  0  0  0  0  0
    8.3588  -14.0230   21.2677 C   0  0  0  0  0  0  0  0  0  0  0  0
    8.5595  -14.4584   22.6603 C   0  0  0  0  0  0  0  0  0  0  0  0
    9.8385  -15.2166   22.7954 C   0  0  2  0  0  0  0  0  0  0  0  0
   10.0598  -16.1104   21.6621 N   0  0  0  0  0  0  0  0  0  0  0  0
    9.9508  -15.9907   24.0416 C   0  0  0  0  0  0  0  0  0  0  0  0
    9.9398  -15.4754   25.3245 O   0  0  0  0  0  0  0  0  0  0  0  0
    7.3621  -14.5390   20.4659 C   0  0  0  0  0  0  0  0  0  0  0  0
    7.2178  -14.1219   19.1776 C   0  0  0  0  0  0  0  0  0  0  0  0
   10.0727  -17.2567   23.9806 O   0  0  0  0  0  0  0  0  0  0  0  0
  2  3  1  0
  2  1  1  0
  3  4  1  6
  5  7  1  0
  5  3  1  0
  6  5  2  0
  8  7  1  0
  9 18  1  0
  9  8  1  0
 10  9  2  0
 12 11  1  0
 12 22  2  0
 13 12  1  0
 14 13  2  0
 14 15  1  0
 15 21  2  0
 16 15  1  0
 17 16  1  6
 17 18  1  0
 19 20  1  0
 19 17  1  0
 21 22  1  0
 23 19  2  0
M  END
$$$$
