SGY.pdb
     RDKit          3D

 23 23  0  0  1  0  0  0  0  0999 V2000
    5.8821  -16.7115   20.5464 O   0  0  0  0  0  0  0  0  0  0  0  0
    6.5081  -17.3725   19.4893 C   0  0  0  0  0  0  0  0  0  0  0  0
    7.7617  -18.0384   20.0213 C   0  0  2  0  0  0  0  0  0  0  0  0
    7.5117  -18.8188   21.1953 N   0  0  0  0  0  0  0  0  0  0  0  0
    8.7111  -16.9339   20.3816 C   0  0  0  0  0  0  0  0  0  0  0  0
    9.2524  -16.2243   19.5007 O   0  0  0  0  0  0  0  0  0  0  0  0
    9.0243  -16.6604   21.7401 N   0  0  0  0  0  0  0  0  0  0  0  0
    9.9240  -15.5923   22.0767 C   0  0  0  0  0  0  0  0  0  0  0  0
   10.0987  -15.5927   23.5665 C   0  0  0  0  0  0  0  0  0  0  0  0
   10.9117  -14.8287   24.1563 O   0  0  0  0  0  0  0  0  0  0  0  0
    6.1978  -11.1221   25.6001 O   0  0  0  0  0  0  0  0  0  0  0  0
    6.7097  -12.3903   25.8719 C   0  0  0  0  0  0  0  0  0  0  0  0
    7.4950  -12.6601   26.9731 C   0  0  0  0  0  0  0  0  0  0  0  0
    7.9710  -13.9337   27.1874 C   0  0  0  0  0  0  0  0  0  0  0  0
    7.6856  -14.9849   26.3181 C   0  0  0  0  0  0  0  0  0  0  0  0
    8.2249  -16.3324   26.5688 C   0  0  0  0  0  0  0  0  0  0  0  0
    9.5194  -16.5231   25.8500 C   0  0  2  0  0  0  0  0  0  0  0  0
    9.3473  -16.4653   24.4011 N   0  0  0  0  0  0  0  0  0  0  0  0
   10.2230  -17.7679   26.1969 C   0  0  0  0  0  0  0  0  0  0  0  0
   10.6049  -18.7609   25.3139 O   0  0  0  0  0  0  0  0  0  0  0  0
    6.8988  -14.6930   25.2234 C   0  0  0  0  0  0  0  0  0  0  0  0
    6.4313  -13.4307   25.0176 C   0  0  0  0  0  0  0  0  0  0  0  0
   10.5274  -17.9943   27.4123 O   0  0  0  0  0  0  0  0  0  0  0  0
  2  3  1  0
  2  1  1  0
  3  4  1  1
  5  7  1  0
  5  3  1  0
  6  5  2  0
  8  7  1  0
  9 18  1  0
  9  8  1  0
 10  9  2  0
 12 11  1  0
 12 22  2  0
 13 12  1  0
 14 13  2  0
 14 15  1  0
 15 21  2  0
 16 15  1  0
 17 16  1  1
 17 18  1  0
 19 20  1  0
 19 17  1  0
 21 22  1  0
 23 19  2  0
M  END
$$$$
