SGY.pdb
     RDKit          3D

 23 23  0  0  1  0  0  0  0  0999 V2000
    7.8572  -13.8144   18.0347 O   0  0  0  0  0  0  0  0  0  0  0  0
    7.3316  -12.9310   18.9778 C   0  0  0  0  0  0  0  0  0  0  0  0
    8.2575  -12.9114   20.1779 C   0  0  2  0  0  0  0  0  0  0  0  0
    9.6389  -12.8709   19.8037 N   0  0  0  0  0  0  0  0  0  0  0  0
    8.0086  -14.1859   20.9293 C   0  0  0  0  0  0  0  0  0  0  0  0
    6.8995  -14.4232   21.4641 O   0  0  0  0  0  0  0  0  0  0  0  0
    9.0303  -15.1650   21.0560 N   0  0  0  0  0  0  0  0  0  0  0  0
    8.8106  -16.3454   21.8446 C   0  0  0  0  0  0  0  0  0  0  0  0
    9.3006  -16.0657   23.2344 C   0  0  0  0  0  0  0  0  0  0  0  0
   10.3376  -15.3850   23.4660 O   0  0  0  0  0  0  0  0  0  0  0  0
    6.4227  -10.7215   26.1454 O   0  0  0  0  0  0  0  0  0  0  0  0
    6.8579  -12.0368   26.3019 C   0  0  0  0  0  0  0  0  0  0  0  0
    8.1220  -12.3586   26.7499 C   0  0  0  0  0  0  0  0  0  0  0  0
    8.4931  -13.6773   26.8839 C   0  0  0  0  0  0  0  0  0  0  0  0
    7.6248  -14.7236   26.5787 C   0  0  0  0  0  0  0  0  0  0  0  0
    8.0601  -16.1238   26.7180 C   0  0  0  0  0  0  0  0  0  0  0  0
    9.1375  -16.4402   25.7341 C   0  0  2  0  0  0  0  0  0  0  0  0
    8.6125  -16.5597   24.3768 N   0  0  0  0  0  0  0  0  0  0  0  0
    9.9091  -17.6512   26.0549 C   0  0  0  0  0  0  0  0  0  0  0  0
   10.7948  -17.7981   27.1063 O   0  0  0  0  0  0  0  0  0  0  0  0
    6.3659  -14.3795   26.1323 C   0  0  0  0  0  0  0  0  0  0  0  0
    6.0053  -13.0728   26.0022 C   0  0  0  0  0  0  0  0  0  0  0  0
    9.7817  -18.6843   25.3216 O   0  0  0  0  0  0  0  0  0  0  0  0
  2  3  1  0
  2  1  1  0
  3  4  1  6
  5  7  1  0
  5  3  1  0
  6  5  2  0
  8  7  1  0
  9 18  1  0
  9  8  1  0
 10  9  2  0
 12 11  1  0
 12 22  2  0
 13 12  1  0
 14 13  2  0
 14 15  1  0
 15 21  2  0
 16 15  1  0
 17 16  1  1
 17 18  1  0
 19 20  1  0
 19 17  1  0
 21 22  1  0
 23 19  2  0
M  END
$$$$
