SGY.pdb
     RDKit          3D

 23 23  0  0  1  0  0  0  0  0999 V2000
    9.7863  -11.9097   18.6042 O   0  0  0  0  0  0  0  0  0  0  0  0
    8.9386  -12.4751   19.5572 C   0  0  0  0  0  0  0  0  0  0  0  0
    8.4993  -13.8360   19.0544 C   0  0  2  0  0  0  0  0  0  0  0  0
    7.5385  -13.7455   17.9967 N   0  0  0  0  0  0  0  0  0  0  0  0
    7.8573  -14.5334   20.2173 C   0  0  0  0  0  0  0  0  0  0  0  0
    6.6899  -14.2564   20.5819 O   0  0  0  0  0  0  0  0  0  0  0  0
    8.5599  -15.5334   20.9418 N   0  0  0  0  0  0  0  0  0  0  0  0
    7.9042  -16.2673   21.9881 C   0  0  0  0  0  0  0  0  0  0  0  0
    8.6579  -16.0221   23.2616 C   0  0  0  0  0  0  0  0  0  0  0  0
    9.7488  -15.3886   23.2952 O   0  0  0  0  0  0  0  0  0  0  0  0
    5.7971  -10.7250   26.0553 O   0  0  0  0  0  0  0  0  0  0  0  0
    6.3471  -11.9864   26.2804 C   0  0  0  0  0  0  0  0  0  0  0  0
    7.4956  -12.1811   27.0187 C   0  0  0  0  0  0  0  0  0  0  0  0
    7.9899  -13.4520   27.2061 C   0  0  0  0  0  0  0  0  0  0  0  0
    7.3635  -14.5748   26.6684 C   0  0  0  0  0  0  0  0  0  0  0  0
    7.9287  -15.9192   26.8747 C   0  0  0  0  0  0  0  0  0  0  0  0
    8.8747  -16.2669   25.7733 C   0  0  2  0  0  0  0  0  0  0  0  0
    8.1754  -16.4972   24.5122 N   0  0  0  0  0  0  0  0  0  0  0  0
    9.7332  -17.4267   26.0607 C   0  0  0  0  0  0  0  0  0  0  0  0
    9.7290  -18.6313   25.3822 O   0  0  0  0  0  0  0  0  0  0  0  0
    6.2167  -14.3574   25.9336 C   0  0  0  0  0  0  0  0  0  0  0  0
    5.7332  -13.0973   25.7523 C   0  0  0  0  0  0  0  0  0  0  0  0
   10.5725  -17.3599   27.0158 O   0  0  0  0  0  0  0  0  0  0  0  0
  2  3  1  0
  2  1  1  0
  3  4  1  6
  5  7  1  0
  5  3  1  0
  6  5  2  0
  8  7  1  0
  9 18  1  0
  9  8  1  0
 10  9  2  0
 12 11  1  0
 12 22  2  0
 13 12  1  0
 14 13  2  0
 14 15  1  0
 15 21  2  0
 16 15  1  0
 17 16  1  1
 17 18  1  0
 19 20  1  0
 19 17  1  0
 21 22  1  0
 23 19  2  0
M  END
$$$$
