SGY.pdb
     RDKit          3D

 23 23  0  0  1  0  0  0  0  0999 V2000
    8.0181  -15.9189   19.5682 O   0  0  0  0  0  0  0  0  0  0  0  0
    7.1030  -15.3041   20.4231 C   0  0  0  0  0  0  0  0  0  0  0  0
    7.8736  -14.6511   21.5534 C   0  0  2  0  0  0  0  0  0  0  0  0
    9.0013  -13.9022   21.0869 N   0  0  0  0  0  0  0  0  0  0  0  0
    8.3739  -15.7636   22.4269 C   0  0  0  0  0  0  0  0  0  0  0  0
    7.5831  -16.5119   23.0490 O   0  0  0  0  0  0  0  0  0  0  0  0
    9.7671  -16.0007   22.5735 N   0  0  0  0  0  0  0  0  0  0  0  0
   10.2357  -17.1264   23.3329 C   0  0  0  0  0  0  0  0  0  0  0  0
   10.9273  -16.5988   24.5549 C   0  0  0  0  0  0  0  0  0  0  0  0
   12.1834  -16.5930   24.6766 O   0  0  0  0  0  0  0  0  0  0  0  0
    5.2343  -12.5693   26.8268 O   0  0  0  0  0  0  0  0  0  0  0  0
    6.5780  -12.9414   26.8222 C   0  0  0  0  0  0  0  0  0  0  0  0
    7.2405  -13.3394   25.6799 C   0  0  0  0  0  0  0  0  0  0  0  0
    8.5688  -13.6951   25.7394 C   0  0  0  0  0  0  0  0  0  0  0  0
    9.2876  -13.6691   26.9330 C   0  0  0  0  0  0  0  0  0  0  0  0
   10.7039  -14.0721   26.9640 C   0  0  0  0  0  0  0  0  0  0  0  0
   10.8312  -15.5560   26.8612 C   0  0  2  0  0  0  0  0  0  0  0  0
   10.1933  -16.0712   25.6529 N   0  0  0  0  0  0  0  0  0  0  0  0
   10.3071  -16.2873   28.0254 C   0  0  0  0  0  0  0  0  0  0  0  0
   10.7328  -16.1489   29.3335 O   0  0  0  0  0  0  0  0  0  0  0  0
    8.6059  -13.2684   28.0631 C   0  0  0  0  0  0  0  0  0  0  0  0
    7.2917  -12.9177   27.9969 C   0  0  0  0  0  0  0  0  0  0  0  0
    9.3747  -17.1383   27.8593 O   0  0  0  0  0  0  0  0  0  0  0  0
  2  3  1  0
  2  1  1  0
  3  4  1  6
  5  7  1  0
  5  3  1  0
  6  5  2  0
  8  7  1  0
  9 18  1  0
  9  8  1  0
 10  9  2  0
 12 11  1  0
 12 22  2  0
 13 12  1  0
 14 13  2  0
 14 15  1  0
 15 21  2  0
 16 15  1  0
 17 16  1  1
 17 18  1  0
 19 20  1  0
 19 17  1  0
 21 22  1  0
 23 19  2  0
M  END
$$$$
