LHA.pdb
     RDKit          3D

 24 24  0  0  1  0  0  0  0  0999 V2000
   26.3874  -19.8093  -10.6287 C   0  0  0  0  0  0  0  0  0  0  0  0
   24.9376  -20.3112  -10.5852 C   0  0  2  0  0  0  0  0  0  0  0  0
   24.8186  -21.4115   -9.5389 C   0  0  0  0  0  0  0  0  0  0  0  0
   24.5370  -20.8769  -11.9073 C   0  0  0  0  0  0  0  0  0  0  0  0
   24.7017  -19.8570  -13.0098 C   0  0  2  0  0  0  0  0  0  0  0  0
   23.7660  -18.7825  -12.9569 N   0  0  0  0  0  0  0  0  0  0  0  0
   24.6645  -20.6006  -14.2950 C   0  0  0  0  0  0  0  0  0  0  0  0
   23.5864  -20.6963  -14.9372 O   0  0  0  0  0  0  0  0  0  0  0  0
   25.7979  -21.2332  -14.8709 N   0  0  0  0  0  0  0  0  0  0  0  0
   25.7511  -21.9052  -16.1544 C   0  0  1  0  0  0  0  0  0  0  0  0
   27.0899  -21.9267  -16.8338 C   0  0  0  0  0  0  0  0  0  0  0  0
   27.0737  -22.5743  -18.1628 C   0  0  0  0  0  0  0  0  0  0  0  0
   26.1426  -22.3505  -19.1508 C   0  0  0  0  0  0  0  0  0  0  0  0
   26.4511  -23.1143  -20.2162 N   0  0  0  0  0  0  0  0  0  0  0  0
   27.5567  -23.8137  -19.9188 C   0  0  0  0  0  0  0  0  0  0  0  0
   27.9226  -23.4768  -18.6726 N   0  0  0  0  0  0  0  0  0  0  0  0
   25.1156  -23.2083  -15.9663 C   0  0  0  0  0  0  0  0  0  0  0  0
   24.9903  -23.9753  -16.9549 O   0  0  0  0  0  0  0  0  0  0  0  0
   23.8326  -25.4000  -13.1734 C   0  0  0  0  0  0  0  0  0  0  0  0
   23.9901  -24.9468  -14.6306 C   0  0  2  0  0  0  0  0  0  0  0  0
   24.6216  -23.6721  -14.7105 N   0  0  0  0  0  0  0  0  0  0  0  0
   22.6800  -25.0252  -15.3317 C   0  0  0  0  0  0  0  0  0  0  0  0
   21.8246  -23.9393  -15.1599 O   0  0  0  0  0  0  0  0  0  0  0  0
   22.2943  -25.9620  -16.0439 O   0  0  0  0  0  0  0  0  0  0  0  0
  2  1  1  6
  3  2  1  0
  4  5  1  0
  4  2  1  0
  5  6  1  6
  7  5  1  0
  7  8  2  0
  9  7  1  0
 10  9  1  0
 10 11  1  1
 11 12  1  0
 12 13  2  0
 12 16  1  0
 13 14  1  0
 14 15  1  0
 16 15  2  0
 17 10  1  0
 18 17  2  0
 20 19  1  1
 20 21  1  0
 21 17  1  0
 22 20  1  0
 23 22  1  0
 24 22  2  0
M  END
$$$$
