LHA.pdb
     RDKit          3D

 24 24  0  0  1  0  0  0  0  0999 V2000
   23.7107  -12.5513  -19.8831 C   0  0  0  0  0  0  0  0  0  0  0  0
   22.3132  -12.8924  -19.3482 C   0  0  2  0  0  0  0  0  0  0  0  0
   21.4387  -13.3724  -20.4990 C   0  0  0  0  0  0  0  0  0  0  0  0
   21.6723  -11.6868  -18.7444 C   0  0  0  0  0  0  0  0  0  0  0  0
   22.5376  -11.0966  -17.6554 C   0  0  2  0  0  0  0  0  0  0  0  0
   22.9955  -12.0447  -16.6941 N   0  0  0  0  0  0  0  0  0  0  0  0
   21.7688   -9.9782  -17.0517 C   0  0  0  0  0  0  0  0  0  0  0  0
   21.3226   -9.0541  -17.7804 O   0  0  0  0  0  0  0  0  0  0  0  0
   21.4918   -9.8735  -15.6630 N   0  0  0  0  0  0  0  0  0  0  0  0
   20.5981   -8.8715  -15.1167 C   0  0  1  0  0  0  0  0  0  0  0  0
   19.6382   -9.4502  -14.1177 C   0  0  0  0  0  0  0  0  0  0  0  0
   18.4308  -10.0471  -14.7276 C   0  0  0  0  0  0  0  0  0  0  0  0
   18.1559  -10.0965  -16.0749 C   0  0  0  0  0  0  0  0  0  0  0  0
   16.9720  -10.7137  -16.2519 N   0  0  0  0  0  0  0  0  0  0  0  0
   16.4969  -11.0533  -15.0441 C   0  0  0  0  0  0  0  0  0  0  0  0
   17.3903  -10.6437  -14.1306 N   0  0  0  0  0  0  0  0  0  0  0  0
   21.4045   -7.7480  -14.6425 C   0  0  0  0  0  0  0  0  0  0  0  0
   22.3410   -7.9671  -13.8324 O   0  0  0  0  0  0  0  0  0  0  0  0
   22.9859   -4.8192  -15.5645 C   0  0  0  0  0  0  0  0  0  0  0  0
   22.0129   -5.3635  -14.5107 C   0  0  2  0  0  0  0  0  0  0  0  0
   21.1925   -6.3967  -15.0489 N   0  0  0  0  0  0  0  0  0  0  0  0
   21.2561   -4.2425  -13.8904 C   0  0  0  0  0  0  0  0  0  0  0  0
   22.0042   -3.3326  -13.1469 O   0  0  0  0  0  0  0  0  0  0  0  0
   20.0353   -4.0555  -13.9798 O   0  0  0  0  0  0  0  0  0  0  0  0
  2  1  1  6
  3  2  1  0
  4  5  1  0
  4  2  1  0
  5  6  1  1
  7  5  1  0
  7  8  2  0
  9  7  1  0
 10  9  1  0
 10 11  1  1
 11 12  1  0
 12 13  2  0
 12 16  1  0
 13 14  1  0
 14 15  1  0
 16 15  2  0
 17 10  1  0
 18 17  2  0
 20 19  1  6
 20 21  1  0
 21 17  1  0
 22 20  1  0
 23 22  1  0
 24 22  2  0
M  END
$$$$
