LHA.pdb
     RDKit          3D

 24 24  0  0  1  0  0  0  0  0999 V2000
   29.6061  -22.8276  -16.0341 C   0  0  0  0  0  0  0  0  0  0  0  0
   30.0627  -23.7242  -17.1931 C   0  0  2  0  0  0  0  0  0  0  0  0
   30.6947  -22.8607  -18.2768 C   0  0  0  0  0  0  0  0  0  0  0  0
   28.9001  -24.4467  -17.7887 C   0  0  0  0  0  0  0  0  0  0  0  0
   28.2596  -25.3736  -16.7819 C   0  0  2  0  0  0  0  0  0  0  0  0
   29.1871  -26.1657  -16.0437 N   0  0  0  0  0  0  0  0  0  0  0  0
   27.2563  -26.1842  -17.5185 C   0  0  0  0  0  0  0  0  0  0  0  0
   26.4224  -25.6209  -18.2742 O   0  0  0  0  0  0  0  0  0  0  0  0
   27.1678  -27.5985  -17.4276 N   0  0  0  0  0  0  0  0  0  0  0  0
   26.2495  -28.3785  -18.2336 C   0  0  1  0  0  0  0  0  0  0  0  0
   26.8686  -29.6548  -18.7257 C   0  0  0  0  0  0  0  0  0  0  0  0
   27.5169  -29.5316  -20.0487 C   0  0  0  0  0  0  0  0  0  0  0  0
   27.4299  -28.4419  -20.8842 C   0  0  0  0  0  0  0  0  0  0  0  0
   28.1491  -28.6908  -21.9953 N   0  0  0  0  0  0  0  0  0  0  0  0
   28.6867  -29.9141  -21.8758 C   0  0  0  0  0  0  0  0  0  0  0  0
   28.2956  -30.4115  -20.6925 N   0  0  0  0  0  0  0  0  0  0  0  0
   24.9995  -28.5266  -17.4901 C   0  0  0  0  0  0  0  0  0  0  0  0
   25.0469  -28.7479  -16.2532 O   0  0  0  0  0  0  0  0  0  0  0  0
   21.3946  -27.6940  -17.8218 C   0  0  0  0  0  0  0  0  0  0  0  0
   22.5445  -28.5505  -17.2761 C   0  0  2  0  0  0  0  0  0  0  0  0
   23.7081  -28.4332  -18.0900 N   0  0  0  0  0  0  0  0  0  0  0  0
   22.0821  -29.9495  -17.0683 C   0  0  0  0  0  0  0  0  0  0  0  0
   21.3981  -30.2011  -15.8813 O   0  0  0  0  0  0  0  0  0  0  0  0
   22.2530  -30.8929  -17.8520 O   0  0  0  0  0  0  0  0  0  0  0  0
  2  1  1  1
  3  2  1  0
  4  5  1  0
  4  2  1  0
  5  6  1  6
  7  5  1  0
  7  8  2  0
  9  7  1  0
 10  9  1  0
 10 11  1  1
 11 12  1  0
 12 13  2  0
 12 16  1  0
 13 14  1  0
 14 15  1  0
 16 15  2  0
 17 10  1  0
 18 17  2  0
 20 19  1  6
 20 21  1  0
 21 17  1  0
 22 20  1  0
 23 22  1  0
 24 22  2  0
M  END
$$$$
