LHA.pdb
     RDKit          3D

 24 24  0  0  1  0  0  0  0  0999 V2000
   22.6619  -10.7515  -21.2867 C   0  0  0  0  0  0  0  0  0  0  0  0
   21.1621  -10.9364  -21.5552 C   0  0  2  0  0  0  0  0  0  0  0  0
   20.7809  -10.1757  -22.8183 C   0  0  0  0  0  0  0  0  0  0  0  0
   20.3544  -10.3966  -20.4218 C   0  0  0  0  0  0  0  0  0  0  0  0
   20.7586  -11.0324  -19.1121 C   0  0  2  0  0  0  0  0  0  0  0  0
   20.4426  -12.4192  -19.0133 N   0  0  0  0  0  0  0  0  0  0  0  0
   20.1503  -10.2167  -18.0301 C   0  0  0  0  0  0  0  0  0  0  0  0
   18.9521   -9.8424  -18.1203 O   0  0  0  0  0  0  0  0  0  0  0  0
   20.8485   -9.8149  -16.8607 N   0  0  0  0  0  0  0  0  0  0  0  0
   20.2353   -9.0143  -15.8195 C   0  0  1  0  0  0  0  0  0  0  0  0
   19.8509   -9.8359  -14.6230 C   0  0  0  0  0  0  0  0  0  0  0  0
   18.7065  -10.7406  -14.8638 C   0  0  0  0  0  0  0  0  0  0  0  0
   18.7958  -12.0659  -15.2227 C   0  0  0  0  0  0  0  0  0  0  0  0
   17.5510  -12.5635  -15.3514 N   0  0  0  0  0  0  0  0  0  0  0  0
   16.6809  -11.5789  -15.0808 C   0  0  0  0  0  0  0  0  0  0  0  0
   17.3944  -10.4810  -14.7873 N   0  0  0  0  0  0  0  0  0  0  0  0
   21.1047   -7.8705  -15.5491 C   0  0  0  0  0  0  0  0  0  0  0  0
   22.3152   -8.0742  -15.2763 O   0  0  0  0  0  0  0  0  0  0  0  0
   21.1227   -4.1360  -15.8834 C   0  0  0  0  0  0  0  0  0  0  0  0
   21.5728   -5.4673  -15.2680 C   0  0  2  0  0  0  0  0  0  0  0  0
   20.6583   -6.5154  -15.5770 N   0  0  0  0  0  0  0  0  0  0  0  0
   21.8337   -5.2925  -13.8135 C   0  0  0  0  0  0  0  0  0  0  0  0
   20.9181   -5.8874  -12.9487 O   0  0  0  0  0  0  0  0  0  0  0  0
   22.7831   -4.6712  -13.3174 O   0  0  0  0  0  0  0  0  0  0  0  0
  2  1  1  1
  3  2  1  0
  4  5  1  0
  4  2  1  0
  5  6  1  6
  7  5  1  0
  7  8  2  0
  9  7  1  0
 10  9  1  0
 10 11  1  1
 11 12  1  0
 12 13  2  0
 12 16  1  0
 13 14  1  0
 14 15  1  0
 16 15  2  0
 17 10  1  0
 18 17  2  0
 20 19  1  1
 20 21  1  0
 21 17  1  0
 22 20  1  0
 23 22  1  0
 24 22  2  0
M  END
$$$$
