LHA.pdb
     RDKit          3D

 24 24  0  0  1  0  0  0  0  0999 V2000
   27.7144  -22.8371  -17.9165 C   0  0  0  0  0  0  0  0  0  0  0  0
   28.1223  -22.0907  -16.6390 C   0  0  2  0  0  0  0  0  0  0  0  0
   29.4301  -22.6695  -16.1154 C   0  0  0  0  0  0  0  0  0  0  0  0
   27.0819  -22.2519  -15.5806 C   0  0  0  0  0  0  0  0  0  0  0  0
   25.7585  -21.6728  -16.0236 C   0  0  2  0  0  0  0  0  0  0  0  0
   25.8257  -20.3099  -16.4369 N   0  0  0  0  0  0  0  0  0  0  0  0
   24.7953  -21.9001  -14.9160 C   0  0  0  0  0  0  0  0  0  0  0  0
   24.7352  -23.0242  -14.3533 O   0  0  0  0  0  0  0  0  0  0  0  0
   23.9066  -20.9050  -14.4298 N   0  0  0  0  0  0  0  0  0  0  0  0
   22.9991  -21.1391  -13.3241 C   0  0  1  0  0  0  0  0  0  0  0  0
   23.0694  -20.0518  -12.2911 C   0  0  0  0  0  0  0  0  0  0  0  0
   23.8675  -20.4119  -11.0998 C   0  0  0  0  0  0  0  0  0  0  0  0
   24.4614  -21.6322  -10.8734 C   0  0  0  0  0  0  0  0  0  0  0  0
   25.1020  -21.5880   -9.6896 N   0  0  0  0  0  0  0  0  0  0  0  0
   24.9234  -20.3654   -9.1670 C   0  0  0  0  0  0  0  0  0  0  0  0
   24.1742  -19.6640  -10.0314 N   0  0  0  0  0  0  0  0  0  0  0  0
   21.6702  -21.4078  -13.8711 C   0  0  0  0  0  0  0  0  0  0  0  0
   21.2984  -20.7925  -14.9028 O   0  0  0  0  0  0  0  0  0  0  0  0
   18.7476  -23.7342  -13.3324 C   0  0  0  0  0  0  0  0  0  0  0  0
   19.4466  -22.4702  -13.8493 C   0  0  2  0  0  0  0  0  0  0  0  0
   20.7543  -22.3404  -13.2986 N   0  0  0  0  0  0  0  0  0  0  0  0
   18.5735  -21.2840  -13.6377 C   0  0  0  0  0  0  0  0  0  0  0  0
   17.6778  -20.9890  -14.6629 O   0  0  0  0  0  0  0  0  0  0  0  0
   18.5782  -20.5495  -12.6407 O   0  0  0  0  0  0  0  0  0  0  0  0
  2  1  1  6
  3  2  1  0
  4  5  1  0
  4  2  1  0
  5  6  1  1
  7  5  1  0
  7  8  2  0
  9  7  1  0
 10  9  1  0
 10 11  1  1
 11 12  1  0
 12 13  2  0
 12 16  1  0
 13 14  1  0
 14 15  1  0
 16 15  2  0
 17 10  1  0
 18 17  2  0
 20 19  1  1
 20 21  1  0
 21 17  1  0
 22 20  1  0
 23 22  1  0
 24 22  2  0
M  END
$$$$
