LHA.pdb
     RDKit          3D

 24 24  0  0  1  0  0  0  0  0999 V2000
   29.2740  -18.2592  -16.2463 C   0  0  0  0  0  0  0  0  0  0  0  0
   28.8406  -19.0087  -17.5135 C   0  0  2  0  0  0  0  0  0  0  0  0
   29.0130  -18.0957  -18.7203 C   0  0  0  0  0  0  0  0  0  0  0  0
   27.4033  -19.4027  -17.4260 C   0  0  0  0  0  0  0  0  0  0  0  0
   27.1669  -20.3516  -16.2742 C   0  0  2  0  0  0  0  0  0  0  0  0
   27.9077  -21.5671  -16.3564 N   0  0  0  0  0  0  0  0  0  0  0  0
   25.6999  -20.5671  -16.1865 C   0  0  0  0  0  0  0  0  0  0  0  0
   25.1832  -21.6001  -16.6864 O   0  0  0  0  0  0  0  0  0  0  0  0
   24.8077  -19.6593  -15.5570 N   0  0  0  0  0  0  0  0  0  0  0  0
   23.3874  -19.9192  -15.4300 C   0  0  1  0  0  0  0  0  0  0  0  0
   22.7876  -19.2291  -14.2390 C   0  0  0  0  0  0  0  0  0  0  0  0
   21.3169  -19.3550  -14.1550 C   0  0  0  0  0  0  0  0  0  0  0  0
   20.4062  -18.4887  -14.7148 C   0  0  0  0  0  0  0  0  0  0  0  0
   19.1641  -18.9253  -14.4318 N   0  0  0  0  0  0  0  0  0  0  0  0
   19.2746  -20.0481  -13.7058 C   0  0  0  0  0  0  0  0  0  0  0  0
   20.5835  -20.2964  -13.5460 N   0  0  0  0  0  0  0  0  0  0  0  0
   22.7522  -19.6311  -16.7149 C   0  0  0  0  0  0  0  0  0  0  0  0
   23.1564  -18.6502  -17.3899 O   0  0  0  0  0  0  0  0  0  0  0  0
   21.0928  -21.1922  -19.4967 C   0  0  0  0  0  0  0  0  0  0  0  0
   21.1014  -20.0243  -18.5020 C   0  0  2  0  0  0  0  0  0  0  0  0
   21.6857  -20.4068  -17.2601 N   0  0  0  0  0  0  0  0  0  0  0  0
   19.7348  -19.4479  -18.3830 C   0  0  0  0  0  0  0  0  0  0  0  0
   19.1566  -18.9875  -19.5637 O   0  0  0  0  0  0  0  0  0  0  0  0
   19.0802  -19.3457  -17.3368 O   0  0  0  0  0  0  0  0  0  0  0  0
  2  1  1  1
  3  2  1  0
  4  5  1  0
  4  2  1  0
  5  6  1  6
  7  5  1  0
  7  8  2  0
  9  7  1  0
 10  9  1  0
 10 11  1  1
 11 12  1  0
 12 13  2  0
 12 16  1  0
 13 14  1  0
 14 15  1  0
 16 15  2  0
 17 10  1  0
 18 17  2  0
 20 19  1  6
 20 21  1  0
 21 17  1  0
 22 20  1  0
 23 22  1  0
 24 22  2  0
M  END
$$$$
