NFQ.pdb
     RDKit          3D

 29 29  0  0  1  0  0  0  0  0999 V2000
   28.3678  -18.6762  -16.1210 N   0  0  0  0  0  0  0  0  0  0  0  0
   28.8095  -19.9704  -15.7693 C   0  0  0  0  0  0  0  0  0  0  0  0
   29.7277  -20.4994  -16.4289 O   0  0  0  0  0  0  0  0  0  0  0  0
   28.2022  -20.6811  -14.6505 C   0  0  0  0  0  0  0  0  0  0  0  0
   27.1159  -19.9113  -13.9569 C   0  0  2  0  0  0  0  0  0  0  0  0
   27.7162  -18.7628  -13.3072 N   0  0  0  0  0  0  0  0  0  0  0  0
   26.3566  -20.7038  -12.9894 C   0  0  0  0  0  0  0  0  0  0  0  0
   25.9104  -21.8329  -13.3300 O   0  0  0  0  0  0  0  0  0  0  0  0
   26.0735  -20.2908  -11.6586 N   0  0  0  0  0  0  0  0  0  0  0  0
   25.1121  -20.8926  -10.7848 C   0  0  1  0  0  0  0  0  0  0  0  0
   25.3244  -20.4811   -9.3481 C   0  0  0  0  0  0  0  0  0  0  0  0
   26.7079  -20.5815   -8.8842 C   0  0  0  0  0  0  0  0  0  0  0  0
   27.1608  -19.7603   -7.8553 C   0  0  0  0  0  0  0  0  0  0  0  0
   28.4663  -19.8540   -7.4194 C   0  0  0  0  0  0  0  0  0  0  0  0
   29.3680  -20.7435   -7.9662 C   0  0  0  0  0  0  0  0  0  0  0  0
   28.9198  -21.5571   -8.9854 C   0  0  0  0  0  0  0  0  0  0  0  0
   27.5946  -21.4626   -9.4285 C   0  0  0  0  0  0  0  0  0  0  0  0
   23.7084  -20.6021  -11.1399 C   0  0  0  0  0  0  0  0  0  0  0  0
   22.8445  -20.8604  -10.2629 O   0  0  0  0  0  0  0  0  0  0  0  0
   22.3366  -18.8933  -16.6830 N   0  0  0  0  0  0  0  0  0  0  0  0
   21.0253  -19.0757  -16.2264 C   0  0  0  0  0  0  0  0  0  0  0  0
   20.1024  -19.2766  -17.0668 O   0  0  0  0  0  0  0  0  0  0  0  0
   20.6913  -19.0476  -14.8085 C   0  0  0  0  0  0  0  0  0  0  0  0
   21.7961  -18.8767  -13.8410 C   0  0  0  0  0  0  0  0  0  0  0  0
   21.8728  -19.7737  -12.6632 C   0  0  2  0  0  0  0  0  0  0  0  0
   23.2879  -20.0692  -12.3638 N   0  0  0  0  0  0  0  0  0  0  0  0
   21.0982  -20.9773  -12.7355 C   0  0  0  0  0  0  0  0  0  0  0  0
   21.5224  -22.0947  -13.1779 O   0  0  0  0  0  0  0  0  0  0  0  0
   19.7678  -21.0130  -12.2968 O   0  0  0  0  0  0  0  0  0  0  0  0
  1  2  1  0
  2  3  2  0
  4  5  1  0
  4  2  1  0
  5  6  1  1
  7  8  2  0
  7  5  1  0
  9  7  1  0
 10  9  1  0
 11 12  1  0
 10 11  1  1
 12 17  2  0
 12 13  1  0
 13 14  2  0
 14 15  1  0
 16 15  2  0
 17 16  1  0
 18 19  2  0
 18 10  1  0
 21 20  1  0
 22 21  2  0
 23 21  1  0
 25 24  1  6
 24 23  1  0
 25 26  1  0
 26 18  1  0
 27 25  1  0
 28 27  2  0
 29 27  1  0
M  END
$$$$
