NFQ.pdb
     RDKit          3D

 29 29  0  0  1  0  0  0  0  0999 V2000
   28.7427  -21.5791  -20.1908 N   0  0  0  0  0  0  0  0  0  0  0  0
   29.2008  -22.6210  -19.3552 C   0  0  0  0  0  0  0  0  0  0  0  0
   30.0316  -23.4382  -19.8025 O   0  0  0  0  0  0  0  0  0  0  0  0
   28.7110  -22.7424  -17.9874 C   0  0  0  0  0  0  0  0  0  0  0  0
   27.6902  -21.7078  -17.6114 C   0  0  2  0  0  0  0  0  0  0  0  0
   28.3510  -20.4191  -17.5487 N   0  0  0  0  0  0  0  0  0  0  0  0
   27.0020  -21.9885  -16.3512 C   0  0  0  0  0  0  0  0  0  0  0  0
   26.6967  -23.1781  -16.0656 O   0  0  0  0  0  0  0  0  0  0  0  0
   26.6397  -20.9994  -15.3962 N   0  0  0  0  0  0  0  0  0  0  0  0
   25.8730  -21.2273  -14.2086 C   0  0  1  0  0  0  0  0  0  0  0  0
   26.2349  -20.2553  -13.1119 C   0  0  0  0  0  0  0  0  0  0  0  0
   25.5650  -20.5011  -11.8351 C   0  0  0  0  0  0  0  0  0  0  0  0
   24.2843  -20.0033  -11.6111 C   0  0  0  0  0  0  0  0  0  0  0  0
   23.6538  -20.2337  -10.4059 C   0  0  0  0  0  0  0  0  0  0  0  0
   24.2441  -20.9509   -9.3860 C   0  0  0  0  0  0  0  0  0  0  0  0
   25.5127  -21.4441   -9.6074 C   0  0  0  0  0  0  0  0  0  0  0  0
   26.1535  -21.2106  -10.8306 C   0  0  0  0  0  0  0  0  0  0  0  0
   24.4117  -21.1627  -14.4116 C   0  0  0  0  0  0  0  0  0  0  0  0
   23.9697  -20.1257  -14.9696 O   0  0  0  0  0  0  0  0  0  0  0  0
   21.4993  -23.8211  -17.7068 N   0  0  0  0  0  0  0  0  0  0  0  0
   20.3350  -23.3461  -17.0904 C   0  0  0  0  0  0  0  0  0  0  0  0
   19.3147  -23.1107  -17.7988 O   0  0  0  0  0  0  0  0  0  0  0  0
   20.2605  -23.1201  -15.6530 C   0  0  0  0  0  0  0  0  0  0  0  0
   21.5103  -23.2266  -14.8704 C   0  0  0  0  0  0  0  0  0  0  0  0
   22.0469  -22.0211  -14.1948 C   0  0  2  0  0  0  0  0  0  0  0  0
   23.5074  -22.1606  -14.0307 N   0  0  0  0  0  0  0  0  0  0  0  0
   21.4205  -21.6600  -12.9574 C   0  0  0  0  0  0  0  0  0  0  0  0
   21.8890  -21.9125  -11.7994 O   0  0  0  0  0  0  0  0  0  0  0  0
   20.2032  -20.9661  -12.9342 O   0  0  0  0  0  0  0  0  0  0  0  0
  1  2  1  0
  2  3  2  0
  4  5  1  0
  4  2  1  0
  5  6  1  1
  7  8  2  0
  7  5  1  0
  9  7  1  0
 10  9  1  0
 11 12  1  0
 10 11  1  1
 12 17  2  0
 12 13  1  0
 13 14  2  0
 14 15  1  0
 16 15  2  0
 17 16  1  0
 18 19  2  0
 18 10  1  0
 21 20  1  0
 22 21  2  0
 23 21  1  0
 25 24  1  1
 24 23  1  0
 25 26  1  0
 26 18  1  0
 27 25  1  0
 28 27  2  0
 29 27  1  0
M  END
$$$$
