NFQ.pdb
     RDKit          3D

 29 29  0  0  1  0  0  0  0  0999 V2000
   28.5729  -17.2152  -16.1851 N   0  0  0  0  0  0  0  0  0  0  0  0
   28.9016  -18.5872  -16.2436 C   0  0  0  0  0  0  0  0  0  0  0  0
   29.7975  -18.9648  -17.0264 O   0  0  0  0  0  0  0  0  0  0  0  0
   28.2047  -19.5517  -15.4012 C   0  0  0  0  0  0  0  0  0  0  0  0
   27.0760  -18.9628  -14.6056 C   0  0  2  0  0  0  0  0  0  0  0  0
   27.6340  -18.0285  -13.6479 N   0  0  0  0  0  0  0  0  0  0  0  0
   26.2521  -19.9603  -13.9225 C   0  0  0  0  0  0  0  0  0  0  0  0
   26.0428  -21.0733  -14.4769 O   0  0  0  0  0  0  0  0  0  0  0  0
   25.6517  -19.7696  -12.6478 N   0  0  0  0  0  0  0  0  0  0  0  0
   24.8487  -20.7292  -11.9517 C   0  0  1  0  0  0  0  0  0  0  0  0
   24.8537  -20.4895  -10.4614 C   0  0  0  0  0  0  0  0  0  0  0  0
   26.1660  -20.6179   -9.8285 C   0  0  0  0  0  0  0  0  0  0  0  0
   26.4331  -19.9548   -8.6339 C   0  0  0  0  0  0  0  0  0  0  0  0
   27.6717  -20.0747   -8.0384 C   0  0  0  0  0  0  0  0  0  0  0  0
   28.6842  -20.8382   -8.5814 C   0  0  0  0  0  0  0  0  0  0  0  0
   28.4200  -21.4952   -9.7647 C   0  0  0  0  0  0  0  0  0  0  0  0
   27.1630  -21.3740  -10.3699 C   0  0  0  0  0  0  0  0  0  0  0  0
   23.4429  -20.7796  -12.4010 C   0  0  0  0  0  0  0  0  0  0  0  0
   22.7669  -19.7307  -12.2427 O   0  0  0  0  0  0  0  0  0  0  0  0
   19.6577  -25.4064  -12.3741 N   0  0  0  0  0  0  0  0  0  0  0  0
   18.9806  -24.6788  -13.3607 C   0  0  0  0  0  0  0  0  0  0  0  0
   17.7729  -24.9564  -13.6113 O   0  0  0  0  0  0  0  0  0  0  0  0
   19.6243  -23.6046  -14.1052 C   0  0  0  0  0  0  0  0  0  0  0  0
   21.0354  -23.2945  -13.7912 C   0  0  0  0  0  0  0  0  0  0  0  0
   21.3859  -21.9447  -13.2885 C   0  0  2  0  0  0  0  0  0  0  0  0
   22.8285  -21.8964  -12.9791 N   0  0  0  0  0  0  0  0  0  0  0  0
   20.6055  -21.4587  -12.1890 C   0  0  0  0  0  0  0  0  0  0  0  0
   19.6461  -20.6253  -12.2849 O   0  0  0  0  0  0  0  0  0  0  0  0
   20.8467  -21.8925  -10.8786 O   0  0  0  0  0  0  0  0  0  0  0  0
  1  2  1  0
  2  3  2  0
  4  5  1  0
  4  2  1  0
  5  6  1  1
  7  8  2  0
  7  5  1  0
  9  7  1  0
 10  9  1  0
 11 12  1  0
 10 11  1  1
 12 17  2  0
 12 13  1  0
 13 14  2  0
 14 15  1  0
 16 15  2  0
 17 16  1  0
 18 19  2  0
 18 10  1  0
 21 20  1  0
 22 21  2  0
 23 21  1  0
 25 24  1  1
 24 23  1  0
 25 26  1  0
 26 18  1  0
 27 25  1  0
 28 27  2  0
 29 27  1  0
M  END
$$$$
