NFQ.pdb
     RDKit          3D

 29 29  0  0  1  0  0  0  0  0999 V2000
   20.6185  -13.4950  -21.0175 N   0  0  0  0  0  0  0  0  0  0  0  0
   19.3022  -13.1153  -20.6753 C   0  0  0  0  0  0  0  0  0  0  0  0
   18.4224  -13.1067  -21.5606 O   0  0  0  0  0  0  0  0  0  0  0  0
   18.9732  -12.7376  -19.3060 C   0  0  0  0  0  0  0  0  0  0  0  0
   20.1449  -12.7653  -18.3678 C   0  0  2  0  0  0  0  0  0  0  0  0
   20.2849  -14.1140  -17.8551 N   0  0  0  0  0  0  0  0  0  0  0  0
   20.0402  -11.8100  -17.2647 C   0  0  0  0  0  0  0  0  0  0  0  0
   19.1941  -12.0109  -16.3515 O   0  0  0  0  0  0  0  0  0  0  0  0
   20.8386  -10.6404  -17.1364 N   0  0  0  0  0  0  0  0  0  0  0  0
   20.7647   -9.6929  -16.0655 C   0  0  1  0  0  0  0  0  0  0  0  0
   22.1311   -9.1952  -15.6612 C   0  0  0  0  0  0  0  0  0  0  0  0
   22.1250   -8.2104  -14.5798 C   0  0  0  0  0  0  0  0  0  0  0  0
   22.3377   -6.8635  -14.8605 C   0  0  0  0  0  0  0  0  0  0  0  0
   22.3338   -5.9354  -13.8399 C   0  0  0  0  0  0  0  0  0  0  0  0
   22.1243   -6.2843  -12.5218 C   0  0  0  0  0  0  0  0  0  0  0  0
   21.9136   -7.6184  -12.2433 C   0  0  0  0  0  0  0  0  0  0  0  0
   21.9175   -8.5612  -13.2787 C   0  0  0  0  0  0  0  0  0  0  0  0
   19.9188   -8.5179  -16.3563 C   0  0  0  0  0  0  0  0  0  0  0  0
   20.1556   -7.9105  -17.4320 O   0  0  0  0  0  0  0  0  0  0  0  0
   14.0892   -8.0550  -14.6859 N   0  0  0  0  0  0  0  0  0  0  0  0
   14.6163   -8.4813  -15.9114 C   0  0  0  0  0  0  0  0  0  0  0  0
   13.9345   -9.2592  -16.6383 O   0  0  0  0  0  0  0  0  0  0  0  0
   15.9269   -8.0499  -16.3791 C   0  0  0  0  0  0  0  0  0  0  0  0
   16.6772   -7.0879  -15.5440 C   0  0  0  0  0  0  0  0  0  0  0  0
   18.1083   -6.8359  -15.8377 C   0  0  2  0  0  0  0  0  0  0  0  0
   18.8927   -8.0477  -15.5288 N   0  0  0  0  0  0  0  0  0  0  0  0
   18.6841   -5.6771  -15.2215 C   0  0  0  0  0  0  0  0  0  0  0  0
   18.7303   -4.5165  -15.7461 O   0  0  0  0  0  0  0  0  0  0  0  0
   19.2508   -5.7402  -13.9415 O   0  0  0  0  0  0  0  0  0  0  0  0
  1  2  1  0
  2  3  2  0
  4  5  1  0
  4  2  1  0
  5  6  1  1
  7  8  2  0
  7  5  1  0
  9  7  1  0
 10  9  1  0
 11 12  1  0
 10 11  1  6
 12 17  2  0
 12 13  1  0
 13 14  2  0
 14 15  1  0
 16 15  2  0
 17 16  1  0
 18 19  2  0
 18 10  1  0
 21 20  1  0
 22 21  2  0
 23 21  1  0
 25 24  1  1
 24 23  1  0
 25 26  1  0
 26 18  1  0
 27 25  1  0
 28 27  2  0
 29 27  1  0
M  END
$$$$
