NFQ.pdb
     RDKit          3D

 29 29  0  0  1  0  0  0  0  0999 V2000
   20.8339  -14.2138  -20.5485 N   0  0  0  0  0  0  0  0  0  0  0  0
   22.0690  -13.6492  -20.1617 C   0  0  0  0  0  0  0  0  0  0  0  0
   23.0212  -13.6591  -20.9687 O   0  0  0  0  0  0  0  0  0  0  0  0
   22.2319  -13.0619  -18.8372 C   0  0  0  0  0  0  0  0  0  0  0  0
   23.6329  -12.6138  -18.5372 C   0  0  2  0  0  0  0  0  0  0  0  0
   24.4546  -13.7917  -18.3403 N   0  0  0  0  0  0  0  0  0  0  0  0
   23.7330  -11.7244  -17.3799 C   0  0  0  0  0  0  0  0  0  0  0  0
   23.1847  -12.0586  -16.2946 O   0  0  0  0  0  0  0  0  0  0  0  0
   24.4181  -10.4785  -17.3811 N   0  0  0  0  0  0  0  0  0  0  0  0
   24.5252   -9.5840  -16.2682 C   0  0  1  0  0  0  0  0  0  0  0  0
   25.9640   -9.2714  -15.9359 C   0  0  0  0  0  0  0  0  0  0  0  0
   26.8462  -10.4372  -15.8936 C   0  0  0  0  0  0  0  0  0  0  0  0
   26.7972  -11.3113  -14.8112 C   0  0  0  0  0  0  0  0  0  0  0  0
   27.6310  -12.4096  -14.7710 C   0  0  0  0  0  0  0  0  0  0  0  0
   28.5336  -12.6920  -15.7753 C   0  0  0  0  0  0  0  0  0  0  0  0
   28.5825  -11.8263  -16.8477 C   0  0  0  0  0  0  0  0  0  0  0  0
   27.7365  -10.7111  -16.8893 C   0  0  0  0  0  0  0  0  0  0  0  0
   23.8108   -8.3045  -16.4512 C   0  0  0  0  0  0  0  0  0  0  0  0
   24.0038   -7.7069  -17.5410 O   0  0  0  0  0  0  0  0  0  0  0  0
   18.0012   -7.2574  -16.5151 N   0  0  0  0  0  0  0  0  0  0  0  0
   18.4760   -5.9398  -16.5171 C   0  0  0  0  0  0  0  0  0  0  0  0
   17.6652   -4.9929  -16.7278 O   0  0  0  0  0  0  0  0  0  0  0  0
   19.8780   -5.6248  -16.2769 C   0  0  0  0  0  0  0  0  0  0  0  0
   20.8068   -6.7482  -16.0296 C   0  0  0  0  0  0  0  0  0  0  0  0
   22.2342   -6.4602  -15.7518 C   0  0  2  0  0  0  0  0  0  0  0  0
   22.9515   -7.7275  -15.5091 N   0  0  0  0  0  0  0  0  0  0  0  0
   22.4951   -5.5116  -14.7097 C   0  0  0  0  0  0  0  0  0  0  0  0
   22.3558   -4.2494  -14.8180 O   0  0  0  0  0  0  0  0  0  0  0  0
   22.9299   -5.9242  -13.4431 O   0  0  0  0  0  0  0  0  0  0  0  0
  1  2  1  0
  2  3  2  0
  4  5  1  0
  4  2  1  0
  5  6  1  1
  7  8  2  0
  7  5  1  0
  9  7  1  0
 10  9  1  0
 11 12  1  0
 10 11  1  6
 12 17  2  0
 12 13  1  0
 13 14  2  0
 14 15  1  0
 16 15  2  0
 17 16  1  0
 18 19  2  0
 18 10  1  0
 21 20  1  0
 22 21  2  0
 23 21  1  0
 25 24  1  1
 24 23  1  0
 25 26  1  0
 26 18  1  0
 27 25  1  0
 28 27  2  0
 29 27  1  0
M  END
$$$$
