NFQ.pdb
     RDKit          3D

 29 29  0  0  1  0  0  0  0  0999 V2000
   24.6769  -13.7591  -21.0671 N   0  0  0  0  0  0  0  0  0  0  0  0
   23.2682  -13.6966  -20.9941 C   0  0  0  0  0  0  0  0  0  0  0  0
   22.5875  -14.3935  -21.7744 O   0  0  0  0  0  0  0  0  0  0  0  0
   22.6153  -12.8297  -20.0204 C   0  0  0  0  0  0  0  0  0  0  0  0
   23.5688  -12.0781  -19.1374 C   0  0  2  0  0  0  0  0  0  0  0  0
   24.2544  -13.0346  -18.2909 N   0  0  0  0  0  0  0  0  0  0  0  0
   22.9291  -11.0447  -18.3229 C   0  0  0  0  0  0  0  0  0  0  0  0
   21.6704  -10.9822  -18.2810 O   0  0  0  0  0  0  0  0  0  0  0  0
   23.6331  -10.0783  -17.5535 N   0  0  0  0  0  0  0  0  0  0  0  0
   23.0357   -9.0403  -16.7687 C   0  0  1  0  0  0  0  0  0  0  0  0
   23.9056   -8.6504  -15.5984 C   0  0  0  0  0  0  0  0  0  0  0  0
   23.3665   -7.5705  -14.7722 C   0  0  0  0  0  0  0  0  0  0  0  0
   22.5378   -7.8640  -13.6928 C   0  0  0  0  0  0  0  0  0  0  0  0
   22.0280   -6.8450  -12.9151 C   0  0  0  0  0  0  0  0  0  0  0  0
   22.3056   -5.5161  -13.1600 C   0  0  0  0  0  0  0  0  0  0  0  0
   23.1265   -5.2248  -14.2292 C   0  0  0  0  0  0  0  0  0  0  0  0
   23.6444   -6.2587  -15.0192 C   0  0  0  0  0  0  0  0  0  0  0  0
   22.7182   -7.8150  -17.5294 C   0  0  0  0  0  0  0  0  0  0  0  0
   23.6333   -7.3582  -18.2616 O   0  0  0  0  0  0  0  0  0  0  0  0
   18.3597   -6.8841  -21.3635 N   0  0  0  0  0  0  0  0  0  0  0  0
   17.9126   -6.6093  -20.0650 C   0  0  0  0  0  0  0  0  0  0  0  0
   16.6815   -6.7219  -19.8004 O   0  0  0  0  0  0  0  0  0  0  0  0
   18.8255   -6.2029  -19.0048 C   0  0  0  0  0  0  0  0  0  0  0  0
   20.2694   -6.1496  -19.3180 C   0  0  0  0  0  0  0  0  0  0  0  0
   21.2384   -5.8913  -18.2262 C   0  0  2  0  0  0  0  0  0  0  0  0
   21.4904   -7.1446  -17.4880 N   0  0  0  0  0  0  0  0  0  0  0  0
   20.9094   -4.8218  -17.3307 C   0  0  0  0  0  0  0  0  0  0  0  0
   20.5432   -4.9690  -16.1189 O   0  0  0  0  0  0  0  0  0  0  0  0
   20.9804   -3.4834  -17.7396 O   0  0  0  0  0  0  0  0  0  0  0  0
  1  2  1  0
  2  3  2  0
  4  5  1  0
  4  2  1  0
  5  6  1  1
  7  8  2  0
  7  5  1  0
  9  7  1  0
 10  9  1  0
 11 12  1  0
 10 11  1  1
 12 17  2  0
 12 13  1  0
 13 14  2  0
 14 15  1  0
 16 15  2  0
 17 16  1  0
 18 19  2  0
 18 10  1  0
 21 20  1  0
 22 21  2  0
 23 21  1  0
 25 24  1  6
 24 23  1  0
 25 26  1  0
 26 18  1  0
 27 25  1  0
 28 27  2  0
 29 27  1  0
M  END
$$$$
