NFQ.pdb
     RDKit          3D

 29 29  0  0  1  0  0  0  0  0999 V2000
   27.3721  -20.7972  -20.2560 N   0  0  0  0  0  0  0  0  0  0  0  0
   27.4559  -20.3522  -18.9186 C   0  0  0  0  0  0  0  0  0  0  0  0
   28.2631  -19.4453  -18.6293 O   0  0  0  0  0  0  0  0  0  0  0  0
   26.6113  -20.9433  -17.8876 C   0  0  0  0  0  0  0  0  0  0  0  0
   27.3733  -21.4948  -16.7175 C   0  0  2  0  0  0  0  0  0  0  0  0
   28.1049  -22.6646  -17.1621 N   0  0  0  0  0  0  0  0  0  0  0  0
   26.5308  -21.8278  -15.5687 C   0  0  0  0  0  0  0  0  0  0  0  0
   25.8684  -22.9007  -15.5787 O   0  0  0  0  0  0  0  0  0  0  0  0
   26.3956  -21.0156  -14.4095 N   0  0  0  0  0  0  0  0  0  0  0  0
   25.4859  -21.2488  -13.3286 C   0  0  1  0  0  0  0  0  0  0  0  0
   25.8197  -20.4053  -12.1223 C   0  0  0  0  0  0  0  0  0  0  0  0
   24.9344  -20.6058  -10.9753 C   0  0  0  0  0  0  0  0  0  0  0  0
   23.6784  -20.0060  -10.9493 C   0  0  0  0  0  0  0  0  0  0  0  0
   22.8447  -20.1939   -9.8663 C   0  0  0  0  0  0  0  0  0  0  0  0
   23.2027  -20.9660   -8.7806 C   0  0  0  0  0  0  0  0  0  0  0  0
   24.4469  -21.5603   -8.8061 C   0  0  0  0  0  0  0  0  0  0  0  0
   25.2939  -21.3700   -9.9050 C   0  0  0  0  0  0  0  0  0  0  0  0
   24.0687  -21.0147  -13.6712 C   0  0  0  0  0  0  0  0  0  0  0  0
   23.7927  -19.8966  -14.1769 O   0  0  0  0  0  0  0  0  0  0  0  0
   19.9909  -25.0810  -15.8279 N   0  0  0  0  0  0  0  0  0  0  0  0
   19.3118  -23.8621  -15.9485 C   0  0  0  0  0  0  0  0  0  0  0  0
   18.1391  -23.8542  -16.4208 O   0  0  0  0  0  0  0  0  0  0  0  0
   19.9137  -22.6000  -15.5394 C   0  0  0  0  0  0  0  0  0  0  0  0
   21.2804  -22.6358  -14.9766 C   0  0  0  0  0  0  0  0  0  0  0  0
   21.6450  -21.6857  -13.8987 C   0  0  2  0  0  0  0  0  0  0  0  0
   23.0358  -21.9381  -13.4728 N   0  0  0  0  0  0  0  0  0  0  0  0
   20.7603  -21.6400  -12.7721 C   0  0  0  0  0  0  0  0  0  0  0  0
   20.9052  -22.3143  -11.7004 O   0  0  0  0  0  0  0  0  0  0  0  0
   19.6327  -20.8081  -12.7666 O   0  0  0  0  0  0  0  0  0  0  0  0
  1  2  1  0
  2  3  2  0
  4  5  1  0
  4  2  1  0
  5  6  1  6
  7  8  2  0
  7  5  1  0
  9  7  1  0
 10  9  1  0
 11 12  1  0
 10 11  1  1
 12 17  2  0
 12 13  1  0
 13 14  2  0
 14 15  1  0
 16 15  2  0
 17 16  1  0
 18 19  2  0
 18 10  1  0
 21 20  1  0
 22 21  2  0
 23 21  1  0
 25 24  1  6
 24 23  1  0
 25 26  1  0
 26 18  1  0
 27 25  1  0
 28 27  2  0
 29 27  1  0
M  END
$$$$
