LPI.pdb
     RDKit          3D

 24 24  0  0  1  0  0  0  0  0999 V2000
    3.4406  -18.0935   20.8744 C   0  0  0  0  0  0  0  0  0  0  0  0
    4.3550  -18.7674   21.8465 C   0  0  2  0  0  0  0  0  0  0  0  0
    3.5668  -19.0785   23.1017 C   0  0  0  0  0  0  0  0  0  0  0  0
    5.5292  -17.9275   22.2441 C   0  0  0  0  0  0  0  0  0  0  0  0
    6.4482  -17.6264   21.0695 C   0  0  2  0  0  0  0  0  0  0  0  0
    6.7613  -18.8075   20.3778 N   0  0  0  0  0  0  0  0  0  0  0  0
    7.5231  -16.7100   21.4549 C   0  0  0  0  0  0  0  0  0  0  0  0
    8.1710  -17.1208   22.4973 O   0  0  0  0  0  0  0  0  0  0  0  0
    7.9359  -15.5096   20.8880 N   0  0  0  0  0  0  0  0  0  0  0  0
    7.7328  -15.1569   19.4521 C   0  0  0  0  0  0  0  0  0  0  0  0
    7.1332  -13.7675   19.6039 C   0  0  0  0  0  0  0  0  0  0  0  0
    7.5168  -13.2830   20.9855 C   0  0  0  0  0  0  0  0  0  0  0  0
    8.6145  -14.3279   21.3382 C   0  0  1  0  0  0  0  0  0  0  0  0
    9.0387  -14.1675   22.6882 C   0  0  0  0  0  0  0  0  0  0  0  0
    9.8261  -13.3326   23.1384 O   0  0  0  0  0  0  0  0  0  0  0  0
    7.1431  -11.9447   27.2368 C   0  0  0  0  0  0  0  0  0  0  0  0
    7.9314  -13.1707   26.9124 C   0  0  0  0  0  0  0  0  0  0  0  0
    7.8368  -13.6249   25.5144 C   0  0  2  0  0  0  0  0  0  0  0  0
    6.3535  -13.7305   25.1253 C   0  0  0  0  0  0  0  0  0  0  0  0
    8.5877  -14.8180   25.0806 C   0  0  2  0  0  0  0  0  0  0  0  0
    8.4880  -15.0878   23.6619 N   0  0  0  0  0  0  0  0  0  0  0  0
    8.2086  -16.0246   25.8320 C   0  0  0  0  0  0  0  0  0  0  0  0
    8.8056  -16.4103   27.0367 O   0  0  0  0  0  0  0  0  0  0  0  0
    7.2814  -16.7854   25.3779 O   0  0  0  0  0  0  0  0  0  0  0  0
  2  1  1  6
  2  3  1  0
  4  2  1  0
  5  6  1  1
  5  4  1  0
  5  7  1  0
  7  8  2  0
  9  7  1  0
  9 10  1  0
 11 10  1  0
 12 13  1  0
 12 11  1  0
 13  9  1  0
 13 14  1  1
 15 14  2  0
 17 16  1  0
 17 18  1  0
 18 20  1  0
 18 19  1  1
 20 22  1  0
 20 21  1  6
 21 14  1  0
 22 23  1  0
 24 22  2  0
M  END
$$$$
