LPI.pdb
     RDKit          3D

 24 24  0  0  1  0  0  0  0  0999 V2000
    5.7661  -11.2634   25.6939 C   0  0  0  0  0  0  0  0  0  0  0  0
    5.9278  -12.5622   26.4165 C   0  0  2  0  0  0  0  0  0  0  0  0
    6.3827  -12.2648   27.8302 C   0  0  0  0  0  0  0  0  0  0  0  0
    6.9431  -13.4702   25.7945 C   0  0  0  0  0  0  0  0  0  0  0  0
    6.3024  -14.6606   25.0963 C   0  0  2  0  0  0  0  0  0  0  0  0
    5.2516  -15.1757   25.8722 N   0  0  0  0  0  0  0  0  0  0  0  0
    7.3149  -15.5713   24.5582 C   0  0  0  0  0  0  0  0  0  0  0  0
    7.6937  -16.4547   25.4248 O   0  0  0  0  0  0  0  0  0  0  0  0
    7.9068  -15.6258   23.3015 N   0  0  0  0  0  0  0  0  0  0  0  0
    7.1619  -15.4250   22.0239 C   0  0  0  0  0  0  0  0  0  0  0  0
    8.0697  -14.4106   21.3457 C   0  0  0  0  0  0  0  0  0  0  0  0
    9.4196  -14.5238   22.0209 C   0  0  0  0  0  0  0  0  0  0  0  0
    9.2236  -15.8658   22.7836 C   0  0  1  0  0  0  0  0  0  0  0  0
   10.3361  -16.1212   23.6351 C   0  0  0  0  0  0  0  0  0  0  0  0
   11.5330  -16.1006   23.3407 O   0  0  0  0  0  0  0  0  0  0  0  0
   10.6523  -13.8013   29.1404 C   0  0  0  0  0  0  0  0  0  0  0  0
   11.3130  -14.7328   28.1784 C   0  0  0  0  0  0  0  0  0  0  0  0
   10.5176  -15.0693   26.9852 C   0  0  2  0  0  0  0  0  0  0  0  0
    9.0592  -15.3039   27.4099 C   0  0  0  0  0  0  0  0  0  0  0  0
   10.9832  -16.1286   26.0706 C   0  0  2  0  0  0  0  0  0  0  0  0
   10.0434  -16.4456   25.0162 N   0  0  0  0  0  0  0  0  0  0  0  0
   11.3502  -17.3633   26.7812 C   0  0  0  0  0  0  0  0  0  0  0  0
   12.5799  -17.5577   27.4188 O   0  0  0  0  0  0  0  0  0  0  0  0
   10.5137  -18.3340   26.8329 O   0  0  0  0  0  0  0  0  0  0  0  0
  2  1  1  6
  2  3  1  0
  4  2  1  0
  5  6  1  1
  5  4  1  0
  5  7  1  0
  7  8  2  0
  9  7  1  0
  9 10  1  0
 11 10  1  0
 12 13  1  0
 12 11  1  0
 13  9  1  0
 13 14  1  1
 15 14  2  0
 17 16  1  0
 17 18  1  0
 18 20  1  0
 18 19  1  1
 20 22  1  0
 20 21  1  6
 21 14  1  0
 22 23  1  0
 24 22  2  0
M  END
$$$$
