LPI.pdb
     RDKit          3D

 24 24  0  0  1  0  0  0  0  0999 V2000
    9.5517  -13.6873   18.0991 C   0  0  0  0  0  0  0  0  0  0  0  0
    8.0707  -13.7000   18.3034 C   0  0  2  0  0  0  0  0  0  0  0  0
    7.5531  -12.2901   18.1087 C   0  0  0  0  0  0  0  0  0  0  0  0
    7.6596  -14.1498   19.6712 C   0  0  0  0  0  0  0  0  0  0  0  0
    8.1355  -15.5610   19.9826 C   0  0  2  0  0  0  0  0  0  0  0  0
    7.6920  -16.4559   18.9957 N   0  0  0  0  0  0  0  0  0  0  0  0
    7.9386  -15.8904   21.3956 C   0  0  0  0  0  0  0  0  0  0  0  0
    7.1115  -15.0839   21.9791 O   0  0  0  0  0  0  0  0  0  0  0  0
    8.4872  -16.9033   22.1738 N   0  0  0  0  0  0  0  0  0  0  0  0
    8.5099  -18.3400   21.7702 C   0  0  0  0  0  0  0  0  0  0  0  0
    9.9727  -18.6644   22.0312 C   0  0  0  0  0  0  0  0  0  0  0  0
   10.4819  -17.6095   22.9897 C   0  0  0  0  0  0  0  0  0  0  0  0
    9.1289  -16.9971   23.4541 C   0  0  1  0  0  0  0  0  0  0  0  0
    9.3551  -15.8536   24.2721 C   0  0  0  0  0  0  0  0  0  0  0  0
   10.2852  -15.0474   24.2029 O   0  0  0  0  0  0  0  0  0  0  0  0
    6.5626  -11.1676   26.5646 C   0  0  0  0  0  0  0  0  0  0  0  0
    7.5508  -12.2302   26.9168 C   0  0  0  0  0  0  0  0  0  0  0  0
    7.5118  -13.4300   26.0633 C   0  0  2  0  0  0  0  0  0  0  0  0
    6.1005  -14.0361   26.1219 C   0  0  0  0  0  0  0  0  0  0  0  0
    8.5455  -14.4708   26.2171 C   0  0  2  0  0  0  0  0  0  0  0  0
    8.3850  -15.5920   25.3156 N   0  0  0  0  0  0  0  0  0  0  0  0
    8.6411  -14.9683   27.5982 C   0  0  0  0  0  0  0  0  0  0  0  0
    8.2239  -16.2425   27.9967 O   0  0  0  0  0  0  0  0  0  0  0  0
    9.1296  -14.2099   28.5097 O   0  0  0  0  0  0  0  0  0  0  0  0
  2  1  1  1
  2  3  1  0
  4  2  1  0
  5  6  1  6
  5  4  1  0
  5  7  1  0
  7  8  2  0
  9  7  1  0
  9 10  1  0
 11 10  1  0
 12 13  1  0
 12 11  1  0
 13  9  1  0
 13 14  1  6
 15 14  2  0
 17 16  1  0
 17 18  1  0
 18 20  1  0
 18 19  1  1
 20 22  1  0
 20 21  1  6
 21 14  1  0
 22 23  1  0
 24 22  2  0
M  END
$$$$
