LPI.pdb
     RDKit          3D

 24 24  0  0  1  0  0  0  0  0999 V2000
    7.2910  -19.8990   18.9815 C   0  0  0  0  0  0  0  0  0  0  0  0
    8.6059  -19.1889   18.9367 C   0  0  2  0  0  0  0  0  0  0  0  0
    9.6998  -20.2257   18.7875 C   0  0  0  0  0  0  0  0  0  0  0  0
    8.8989  -18.3944   20.1716 C   0  0  0  0  0  0  0  0  0  0  0  0
    9.6029  -17.0819   19.8604 C   0  0  2  0  0  0  0  0  0  0  0  0
   10.7591  -17.3153   19.0988 N   0  0  0  0  0  0  0  0  0  0  0  0
    9.6807  -16.2248   21.0450 C   0  0  0  0  0  0  0  0  0  0  0  0
   10.8749  -16.1776   21.5416 O   0  0  0  0  0  0  0  0  0  0  0  0
    8.6990  -15.4818   21.6907 N   0  0  0  0  0  0  0  0  0  0  0  0
    7.7569  -14.5626   20.9871 C   0  0  0  0  0  0  0  0  0  0  0  0
    6.4381  -15.0283   21.5846 C   0  0  0  0  0  0  0  0  0  0  0  0
    6.7806  -15.7508   22.8697 C   0  0  0  0  0  0  0  0  0  0  0  0
    8.2587  -15.2969   23.0440 C   0  0  1  0  0  0  0  0  0  0  0  0
    8.8638  -15.9816   24.1363 C   0  0  0  0  0  0  0  0  0  0  0  0
    9.1947  -17.1677   24.1943 O   0  0  0  0  0  0  0  0  0  0  0  0
   10.0530  -12.6653   28.7127 C   0  0  0  0  0  0  0  0  0  0  0  0
   10.1940  -13.5299   27.5034 C   0  0  0  0  0  0  0  0  0  0  0  0
    9.7639  -14.9276   27.6788 C   0  0  2  0  0  0  0  0  0  0  0  0
   10.5808  -15.5600   28.8169 C   0  0  0  0  0  0  0  0  0  0  0  0
    9.6962  -15.8242   26.5096 C   0  0  2  0  0  0  0  0  0  0  0  0
    9.1293  -15.2054   25.3302 N   0  0  0  0  0  0  0  0  0  0  0  0
    8.9718  -17.0715   26.7991 C   0  0  0  0  0  0  0  0  0  0  0  0
    7.6011  -17.2438   26.5798 O   0  0  0  0  0  0  0  0  0  0  0  0
    9.6092  -18.0738   27.2826 O   0  0  0  0  0  0  0  0  0  0  0  0
  2  1  1  1
  2  3  1  0
  4  2  1  0
  5  6  1  1
  5  4  1  0
  5  7  1  0
  7  8  2  0
  9  7  1  0
  9 10  1  0
 11 10  1  0
 12 13  1  0
 12 11  1  0
 13  9  1  0
 13 14  1  1
 15 14  2  0
 17 16  1  0
 17 18  1  0
 18 20  1  0
 18 19  1  1
 20 22  1  0
 20 21  1  6
 21 14  1  0
 22 23  1  0
 24 22  2  0
M  END
$$$$
