LPI.pdb
     RDKit          3D

 24 24  0  0  1  0  0  0  0  0999 V2000
    4.8758  -11.7836   25.9437 C   0  0  0  0  0  0  0  0  0  0  0  0
    5.9047  -12.6042   26.6531 C   0  0  2  0  0  0  0  0  0  0  0  0
    6.7196  -11.6828   27.5366 C   0  0  0  0  0  0  0  0  0  0  0  0
    6.8532  -13.3033   25.7290 C   0  0  0  0  0  0  0  0  0  0  0  0
    6.2640  -14.5842   25.1573 C   0  0  2  0  0  0  0  0  0  0  0  0
    5.2931  -15.1069   26.0266 N   0  0  0  0  0  0  0  0  0  0  0  0
    7.3098  -15.4640   24.6317 C   0  0  0  0  0  0  0  0  0  0  0  0
    7.6632  -16.3726   25.4829 O   0  0  0  0  0  0  0  0  0  0  0  0
    7.9546  -15.4680   23.4001 N   0  0  0  0  0  0  0  0  0  0  0  0
    7.2801  -15.1424   22.1092 C   0  0  0  0  0  0  0  0  0  0  0  0
    8.2697  -14.1372   21.5406 C   0  0  0  0  0  0  0  0  0  0  0  0
    9.5797  -14.3691   22.2624 C   0  0  0  0  0  0  0  0  0  0  0  0
    9.2793  -15.7457   22.9226 C   0  0  1  0  0  0  0  0  0  0  0  0
   10.3370  -16.1177   23.8005 C   0  0  0  0  0  0  0  0  0  0  0  0
   11.4987  -16.4048   23.5044 O   0  0  0  0  0  0  0  0  0  0  0  0
   10.0207  -13.3723   28.6297 C   0  0  0  0  0  0  0  0  0  0  0  0
   10.5435  -13.9921   27.3758 C   0  0  0  0  0  0  0  0  0  0  0  0
   10.7564  -15.4482   27.4380 C   0  0  2  0  0  0  0  0  0  0  0  0
   11.7659  -15.7557   28.5555 C   0  0  0  0  0  0  0  0  0  0  0  0
   11.0808  -16.1932   26.2070 C   0  0  2  0  0  0  0  0  0  0  0  0
   10.0273  -16.1700   25.2146 N   0  0  0  0  0  0  0  0  0  0  0  0
   11.4617  -17.5881   26.4782 C   0  0  0  0  0  0  0  0  0  0  0  0
   12.7654  -17.9933   26.7828 O   0  0  0  0  0  0  0  0  0  0  0  0
   10.5669  -18.5058   26.4379 O   0  0  0  0  0  0  0  0  0  0  0  0
  2  1  1  6
  2  3  1  0
  4  2  1  0
  5  6  1  1
  5  4  1  0
  5  7  1  0
  7  8  2  0
  9  7  1  0
  9 10  1  0
 11 10  1  0
 12 13  1  0
 12 11  1  0
 13  9  1  0
 13 14  1  1
 15 14  2  0
 17 16  1  0
 17 18  1  0
 18 20  1  0
 18 19  1  1
 20 22  1  0
 20 21  1  6
 21 14  1  0
 22 23  1  0
 24 22  2  0
M  END
$$$$
