LPI.pdb
     RDKit          3D

 24 24  0  0  1  0  0  0  0  0999 V2000
    7.5162  -20.0880   21.7678 C   0  0  0  0  0  0  0  0  0  0  0  0
    7.8352  -18.8205   21.0419 C   0  0  2  0  0  0  0  0  0  0  0  0
    6.8884  -18.6961   19.8663 C   0  0  0  0  0  0  0  0  0  0  0  0
    9.2327  -18.7737   20.5062 C   0  0  0  0  0  0  0  0  0  0  0  0
    9.6763  -17.3570   20.1727 C   0  0  2  0  0  0  0  0  0  0  0  0
   10.9573  -17.3678   19.5979 N   0  0  0  0  0  0  0  0  0  0  0  0
    9.3874  -16.4351   21.2729 C   0  0  0  0  0  0  0  0  0  0  0  0
    9.6614  -16.9469   22.4297 O   0  0  0  0  0  0  0  0  0  0  0  0
    8.8822  -15.1400   21.2596 N   0  0  0  0  0  0  0  0  0  0  0  0
    9.0379  -14.2003   20.1106 C   0  0  0  0  0  0  0  0  0  0  0  0
    7.5990  -13.7330   19.9549 C   0  0  0  0  0  0  0  0  0  0  0  0
    6.9091  -14.0220   21.2708 C   0  0  0  0  0  0  0  0  0  0  0  0
    8.1507  -14.3015   22.1660 C   0  0  1  0  0  0  0  0  0  0  0  0
    7.7439  -14.7540   23.4536 C   0  0  0  0  0  0  0  0  0  0  0  0
    7.1232  -15.7822   23.7316 O   0  0  0  0  0  0  0  0  0  0  0  0
   10.6690  -13.3938   28.1306 C   0  0  0  0  0  0  0  0  0  0  0  0
    9.8959  -14.0083   27.0106 C   0  0  0  0  0  0  0  0  0  0  0  0
    8.4576  -13.6910   26.9939 C   0  0  2  0  0  0  0  0  0  0  0  0
    7.8623  -14.0089   28.3748 C   0  0  0  0  0  0  0  0  0  0  0  0
    7.6049  -14.2180   25.9119 C   0  0  2  0  0  0  0  0  0  0  0  0
    8.0937  -13.9172   24.5830 N   0  0  0  0  0  0  0  0  0  0  0  0
    6.2084  -13.7703   26.0284 C   0  0  0  0  0  0  0  0  0  0  0  0
    5.1982  -14.5235   26.6358 O   0  0  0  0  0  0  0  0  0  0  0  0
    5.8699  -12.6286   25.5525 O   0  0  0  0  0  0  0  0  0  0  0  0
  2  1  1  6
  2  3  1  0
  4  2  1  0
  5  6  1  1
  5  4  1  0
  5  7  1  0
  7  8  2  0
  9  7  1  0
  9 10  1  0
 11 10  1  0
 12 13  1  0
 12 11  1  0
 13  9  1  0
 13 14  1  1
 15 14  2  0
 17 16  1  0
 17 18  1  0
 18 20  1  0
 18 19  1  1
 20 22  1  0
 20 21  1  6
 21 14  1  0
 22 23  1  0
 24 22  2  0
M  END
$$$$
