LPI.pdb
     RDKit          3D

 24 24  0  0  1  0  0  0  0  0999 V2000
   10.0945  -21.6445   21.5353 C   0  0  0  0  0  0  0  0  0  0  0  0
   10.7544  -20.4067   21.0179 C   0  0  2  0  0  0  0  0  0  0  0  0
   12.1819  -20.3838   21.5232 C   0  0  0  0  0  0  0  0  0  0  0  0
   10.0923  -19.1422   21.4705 C   0  0  0  0  0  0  0  0  0  0  0  0
   10.4091  -17.9661   20.5587 C   0  0  2  0  0  0  0  0  0  0  0  0
   11.7001  -18.0966   20.0223 N   0  0  0  0  0  0  0  0  0  0  0  0
   10.0059  -16.6965   21.1666 C   0  0  0  0  0  0  0  0  0  0  0  0
   10.9450  -16.1757   21.8890 O   0  0  0  0  0  0  0  0  0  0  0  0
    8.8091  -15.9939   21.0854 N   0  0  0  0  0  0  0  0  0  0  0  0
    8.0462  -15.7981   19.8177 C   0  0  0  0  0  0  0  0  0  0  0  0
    6.6572  -16.2116   20.2789 C   0  0  0  0  0  0  0  0  0  0  0  0
    6.6557  -16.1013   21.7885 C   0  0  0  0  0  0  0  0  0  0  0  0
    7.9606  -15.2796   21.9962 C   0  0  1  0  0  0  0  0  0  0  0  0
    8.2635  -15.1692   23.3833 C   0  0  0  0  0  0  0  0  0  0  0  0
    8.6903  -16.0477   24.1355 O   0  0  0  0  0  0  0  0  0  0  0  0
    6.7703  -10.9251   27.7562 C   0  0  0  0  0  0  0  0  0  0  0  0
    7.4874  -12.1759   27.3677 C   0  0  0  0  0  0  0  0  0  0  0  0
    7.4075  -12.5261   25.9392 C   0  0  2  0  0  0  0  0  0  0  0  0
    5.9307  -12.5424   25.5133 C   0  0  0  0  0  0  0  0  0  0  0  0
    8.1202  -13.7157   25.4368 C   0  0  2  0  0  0  0  0  0  0  0  0
    8.0499  -13.8760   23.9999 N   0  0  0  0  0  0  0  0  0  0  0  0
    7.6698  -14.9565   26.0862 C   0  0  0  0  0  0  0  0  0  0  0  0
    8.3503  -15.5736   27.1411 O   0  0  0  0  0  0  0  0  0  0  0  0
    6.5956  -15.5273   25.6803 O   0  0  0  0  0  0  0  0  0  0  0  0
  2  1  1  1
  2  3  1  0
  4  2  1  0
  5  6  1  1
  5  4  1  0
  5  7  1  0
  7  8  2  0
  9  7  1  0
  9 10  1  0
 11 10  1  0
 12 13  1  0
 12 11  1  0
 13  9  1  0
 13 14  1  1
 15 14  2  0
 17 16  1  0
 17 18  1  0
 18 20  1  0
 18 19  1  1
 20 22  1  0
 20 21  1  6
 21 14  1  0
 22 23  1  0
 24 22  2  0
M  END
$$$$
