LPI.pdb
     RDKit          3D

 24 24  0  0  1  0  0  0  0  0999 V2000
    5.4346  -21.1586   23.9311 C   0  0  0  0  0  0  0  0  0  0  0  0
    6.8288  -20.8180   24.3500 C   0  0  2  0  0  0  0  0  0  0  0  0
    6.9885  -21.1861   25.8103 C   0  0  0  0  0  0  0  0  0  0  0  0
    7.1569  -19.3637   24.2098 C   0  0  0  0  0  0  0  0  0  0  0  0
    7.5113  -18.9869   22.7790 C   0  0  2  0  0  0  0  0  0  0  0  0
    8.0118  -20.1025   22.0887 N   0  0  0  0  0  0  0  0  0  0  0  0
    8.2423  -17.7193   22.7270 C   0  0  0  0  0  0  0  0  0  0  0  0
    9.3044  -17.7321   23.4666 O   0  0  0  0  0  0  0  0  0  0  0  0
    7.9750  -16.5483   22.0270 N   0  0  0  0  0  0  0  0  0  0  0  0
    7.2688  -16.5101   20.7127 C   0  0  0  0  0  0  0  0  0  0  0  0
    6.2327  -15.4347   21.0010 C   0  0  0  0  0  0  0  0  0  0  0  0
    6.7508  -14.6459   22.1844 C   0  0  0  0  0  0  0  0  0  0  0  0
    8.2235  -15.1472   22.2138 C   0  0  1  0  0  0  0  0  0  0  0  0
    8.8970  -14.6455   23.3639 C   0  0  0  0  0  0  0  0  0  0  0  0
    9.7423  -13.7495   23.4133 O   0  0  0  0  0  0  0  0  0  0  0  0
    5.8740  -12.1047   26.1204 C   0  0  0  0  0  0  0  0  0  0  0  0
    7.0550  -12.7950   25.5216 C   0  0  0  0  0  0  0  0  0  0  0  0
    7.7216  -13.7717   26.3997 C   0  0  2  0  0  0  0  0  0  0  0  0
    8.0926  -13.0801   27.7213 C   0  0  0  0  0  0  0  0  0  0  0  0
    8.8479  -14.5712   25.8823 C   0  0  2  0  0  0  0  0  0  0  0  0
    8.5597  -15.2497   24.6365 N   0  0  0  0  0  0  0  0  0  0  0  0
    9.3412  -15.5489   26.8646 C   0  0  0  0  0  0  0  0  0  0  0  0
   10.3471  -15.2747   27.7971 O   0  0  0  0  0  0  0  0  0  0  0  0
    8.8387  -16.7285   26.8880 O   0  0  0  0  0  0  0  0  0  0  0  0
  2  1  1  1
  2  3  1  0
  4  2  1  0
  5  6  1  1
  5  4  1  0
  5  7  1  0
  7  8  2  0
  9  7  1  0
  9 10  1  0
 11 10  1  0
 12 13  1  0
 12 11  1  0
 13  9  1  0
 13 14  1  1
 15 14  2  0
 17 16  1  0
 17 18  1  0
 18 20  1  0
 18 19  1  1
 20 22  1  0
 20 21  1  6
 21 14  1  0
 22 23  1  0
 24 22  2  0
M  END
$$$$
