LPI.pdb
     RDKit          3D

 24 24  0  0  1  0  0  0  0  0999 V2000
    5.9504  -12.7574   26.6516 C   0  0  0  0  0  0  0  0  0  0  0  0
    6.4799  -13.6676   25.5902 C   0  0  2  0  0  0  0  0  0  0  0  0
    6.4754  -12.9160   24.2754 C   0  0  0  0  0  0  0  0  0  0  0  0
    5.6641  -14.9096   25.4059 C   0  0  0  0  0  0  0  0  0  0  0  0
    6.1997  -15.7919   24.2881 C   0  0  2  0  0  0  0  0  0  0  0  0
    5.2958  -16.8291   24.0074 N   0  0  0  0  0  0  0  0  0  0  0  0
    7.6162  -16.1044   24.4878 C   0  0  0  0  0  0  0  0  0  0  0  0
    7.9214  -16.2303   25.7392 O   0  0  0  0  0  0  0  0  0  0  0  0
    8.6429  -16.2798   23.5670 N   0  0  0  0  0  0  0  0  0  0  0  0
    8.4216  -16.6458   22.1371 C   0  0  0  0  0  0  0  0  0  0  0  0
    9.2920  -15.5991   21.4591 C   0  0  0  0  0  0  0  0  0  0  0  0
   10.2713  -15.1120   22.5053 C   0  0  0  0  0  0  0  0  0  0  0  0
   10.0764  -16.2148   23.5856 C   0  0  1  0  0  0  0  0  0  0  0  0
   10.8034  -15.8889   24.7660 C   0  0  0  0  0  0  0  0  0  0  0  0
   11.8683  -15.2738   24.8516 O   0  0  0  0  0  0  0  0  0  0  0  0
    9.6897  -12.6160   28.3452 C   0  0  0  0  0  0  0  0  0  0  0  0
   10.3427  -13.6483   27.4864 C   0  0  0  0  0  0  0  0  0  0  0  0
   10.4180  -14.9966   28.0746 C   0  0  2  0  0  0  0  0  0  0  0  0
   11.1284  -14.9066   29.4346 C   0  0  0  0  0  0  0  0  0  0  0  0
   10.9440  -16.1165   27.2717 C   0  0  2  0  0  0  0  0  0  0  0  0
   10.2372  -16.3255   26.0258 N   0  0  0  0  0  0  0  0  0  0  0  0
   10.9823  -17.3792   28.0257 C   0  0  0  0  0  0  0  0  0  0  0  0
   12.0677  -17.7843   28.8096 O   0  0  0  0  0  0  0  0  0  0  0  0
    9.9768  -18.1737   27.9776 O   0  0  0  0  0  0  0  0  0  0  0  0
  2  1  1  1
  2  3  1  0
  4  2  1  0
  5  6  1  1
  5  4  1  0
  5  7  1  0
  7  8  2  0
  9  7  1  0
  9 10  1  0
 11 10  1  0
 12 13  1  0
 12 11  1  0
 13  9  1  0
 13 14  1  1
 15 14  2  0
 17 16  1  0
 17 18  1  0
 18 20  1  0
 18 19  1  1
 20 22  1  0
 20 21  1  6
 21 14  1  0
 22 23  1  0
 24 22  2  0
M  END
$$$$
