HMH.pdb
     RDKit          3D

 29 30  0  0  1  0  0  0  0  0999 V2000
   10.0265  -15.9184   20.0030 N   0  0  0  0  0  0  0  0  0  0  0  0
    8.9823  -16.3001   20.8990 C   0  0  1  0  0  0  0  0  0  0  0  0
    8.5716  -17.7255   20.7247 C   0  0  0  0  0  0  0  0  0  0  0  0
    8.0251  -18.0501   19.4091 C   0  0  0  0  0  0  0  0  0  0  0  0
    7.2223  -17.2376   18.6462 C   0  0  0  0  0  0  0  0  0  0  0  0
    6.9381  -17.9037   17.5102 N   0  0  0  0  0  0  0  0  0  0  0  0
    7.5409  -19.0994   17.5516 C   0  0  0  0  0  0  0  0  0  0  0  0
    8.2043  -19.1775   18.7206 N   0  0  0  0  0  0  0  0  0  0  0  0
    9.3358  -16.0940   22.3237 C   0  0  0  0  0  0  0  0  0  0  0  0
   10.5173  -16.2830   22.7110 O   0  0  0  0  0  0  0  0  0  0  0  0
    6.8815  -10.8975   26.4463 C   0  0  0  0  0  0  0  0  0  0  0  0
    6.9986  -12.6696   26.6936 S   0  0  0  0  0  0  0  0  0  0  0  0
    7.4813  -13.5528   25.1855 C   0  0  0  0  0  0  0  0  0  0  0  0
    7.6179  -15.0178   25.5396 C   0  0  0  0  0  0  0  0  0  0  0  0
    8.7376  -15.6665   24.7143 C   0  0  2  0  0  0  0  0  0  0  0  0
    8.3982  -15.6832   23.3139 N   0  0  0  0  0  0  0  0  0  0  0  0
    8.9017  -17.0345   25.2670 C   0  0  0  0  0  0  0  0  0  0  0  0
    8.6555  -18.0434   24.5587 O   0  0  0  0  0  0  0  0  0  0  0  0
    9.3371  -17.2832   26.6000 N   0  0  0  0  0  0  0  0  0  0  0  0
   10.3012  -18.3333   26.8995 C   0  0  1  0  0  0  0  0  0  0  0  0
   11.5979  -18.1301   26.1770 C   0  0  0  0  0  0  0  0  0  0  0  0
   11.7814  -19.0337   25.0267 C   0  0  0  0  0  0  0  0  0  0  0  0
   10.8229  -19.9445   24.6319 C   0  0  0  0  0  0  0  0  0  0  0  0
   11.2877  -20.6173   23.5550 N   0  0  0  0  0  0  0  0  0  0  0  0
   12.5199  -20.1442   23.2683 C   0  0  0  0  0  0  0  0  0  0  0  0
   12.7948  -19.1930   24.1668 N   0  0  0  0  0  0  0  0  0  0  0  0
   10.4548  -18.3611   28.3767 C   0  0  0  0  0  0  0  0  0  0  0  0
   10.9272  -19.4619   29.0761 O   0  0  0  0  0  0  0  0  0  0  0  0
   10.1462  -17.3434   29.0474 O   0  0  0  0  0  0  0  0  0  0  0  0
  2  9  1  0
  2  1  1  6
  3  2  1  0
  4  3  1  0
  4  8  1  0
  5  6  1  0
  5  4  2  0
  6  7  1  0
  7  8  2  0
  9 10  2  0
 12 13  1  0
 12 11  1  0
 13 14  1  0
 15 14  1  1
 16 15  1  0
 16  9  1  0
 17 18  2  0
 17 15  1  0
 19 17  1  0
 20 27  1  0
 20 19  1  0
 20 21  1  6
 22 26  1  0
 22 21  1  0
 23 22  2  0
 24 23  1  0
 24 25  1  0
 25 26  2  0
 27 28  1  0
 29 27  2  0
M  END
$$$$
