HMH.pdb
     RDKit          3D

 29 30  0  0  1  0  0  0  0  0999 V2000
    9.5195  -15.9778   19.1174 N   0  0  0  0  0  0  0  0  0  0  0  0
    8.4569  -16.1570   20.0544 C   0  0  1  0  0  0  0  0  0  0  0  0
    8.0500  -17.5875   20.1910 C   0  0  0  0  0  0  0  0  0  0  0  0
    7.3966  -18.1546   19.0137 C   0  0  0  0  0  0  0  0  0  0  0  0
    6.7562  -17.4460   18.0266 C   0  0  0  0  0  0  0  0  0  0  0  0
    6.2931  -18.3358   17.1273 N   0  0  0  0  0  0  0  0  0  0  0  0
    6.6288  -19.5683   17.5311 C   0  0  0  0  0  0  0  0  0  0  0  0
    7.3050  -19.4443   18.6887 N   0  0  0  0  0  0  0  0  0  0  0  0
    8.7809  -15.6396   21.4052 C   0  0  0  0  0  0  0  0  0  0  0  0
    9.8906  -15.9103   21.9316 O   0  0  0  0  0  0  0  0  0  0  0  0
    6.5842  -11.1600   27.5878 C   0  0  0  0  0  0  0  0  0  0  0  0
    6.1172  -12.0413   26.0977 S   0  0  0  0  0  0  0  0  0  0  0  0
    7.3991  -13.1966   25.5414 C   0  0  0  0  0  0  0  0  0  0  0  0
    7.0737  -13.5857   24.1156 C   0  0  0  0  0  0  0  0  0  0  0  0
    8.1995  -14.4453   23.5244 C   0  0  2  0  0  0  0  0  0  0  0  0
    7.8923  -14.8315   22.1705 N   0  0  0  0  0  0  0  0  0  0  0  0
    8.3242  -15.6178   24.4264 C   0  0  0  0  0  0  0  0  0  0  0  0
    7.4171  -16.4867   24.4739 O   0  0  0  0  0  0  0  0  0  0  0  0
    9.4505  -15.8263   25.2727 N   0  0  0  0  0  0  0  0  0  0  0  0
    9.7380  -17.1351   25.8440 C   0  0  1  0  0  0  0  0  0  0  0  0
   10.9090  -17.7941   25.1813 C   0  0  0  0  0  0  0  0  0  0  0  0
   11.2876  -19.0807   25.7935 C   0  0  0  0  0  0  0  0  0  0  0  0
   10.4835  -19.7424   26.6989 C   0  0  0  0  0  0  0  0  0  0  0  0
   11.1057  -20.8836   27.0717 N   0  0  0  0  0  0  0  0  0  0  0  0
   12.2848  -20.9484   26.4160 C   0  0  0  0  0  0  0  0  0  0  0  0
   12.3716  -19.8534   25.6537 N   0  0  0  0  0  0  0  0  0  0  0  0
    9.9329  -16.9293   27.3021 C   0  0  0  0  0  0  0  0  0  0  0  0
   10.0191  -17.9688   28.2166 O   0  0  0  0  0  0  0  0  0  0  0  0
   10.0273  -15.7590   27.7519 O   0  0  0  0  0  0  0  0  0  0  0  0
  2  9  1  0
  2  1  1  6
  3  2  1  0
  4  3  1  0
  4  8  1  0
  5  6  1  0
  5  4  2  0
  6  7  1  0
  7  8  2  0
  9 10  2  0
 12 13  1  0
 12 11  1  0
 13 14  1  0
 15 14  1  1
 16 15  1  0
 16  9  1  0
 17 18  2  0
 17 15  1  0
 19 17  1  0
 20 27  1  0
 20 19  1  0
 20 21  1  6
 22 26  1  0
 22 21  1  0
 23 22  2  0
 24 23  1  0
 24 25  1  0
 25 26  2  0
 27 28  1  0
 29 27  2  0
M  END
$$$$
