HMH.pdb
     RDKit          3D

 29 30  0  0  1  0  0  0  0  0999 V2000
    9.3779  -15.2218   19.9782 N   0  0  0  0  0  0  0  0  0  0  0  0
    8.4290  -15.7908   20.8809 C   0  0  1  0  0  0  0  0  0  0  0  0
    8.2997  -17.2697   20.7176 C   0  0  0  0  0  0  0  0  0  0  0  0
    7.6765  -17.6967   19.4670 C   0  0  0  0  0  0  0  0  0  0  0  0
    7.3026  -16.8764   18.4307 C   0  0  0  0  0  0  0  0  0  0  0  0
    6.7696  -17.6570   17.4707 N   0  0  0  0  0  0  0  0  0  0  0  0
    6.8044  -18.9306   17.8849 C   0  0  0  0  0  0  0  0  0  0  0  0
    7.3625  -18.9423   19.1101 N   0  0  0  0  0  0  0  0  0  0  0  0
    8.7401  -15.5102   22.3028 C   0  0  0  0  0  0  0  0  0  0  0  0
    9.9371  -15.4107   22.6757 O   0  0  0  0  0  0  0  0  0  0  0  0
    6.9767  -10.5157   26.4010 C   0  0  0  0  0  0  0  0  0  0  0  0
    7.2829  -12.2735   26.5799 S   0  0  0  0  0  0  0  0  0  0  0  0
    6.5581  -13.2470   25.2329 C   0  0  0  0  0  0  0  0  0  0  0  0
    6.8693  -14.7028   25.5047 C   0  0  0  0  0  0  0  0  0  0  0  0
    8.0914  -15.1505   24.6914 C   0  0  2  0  0  0  0  0  0  0  0  0
    7.7435  -15.3403   23.3059 N   0  0  0  0  0  0  0  0  0  0  0  0
    8.5583  -16.4076   25.3286 C   0  0  0  0  0  0  0  0  0  0  0  0
    7.7661  -17.3678   25.5030 O   0  0  0  0  0  0  0  0  0  0  0  0
    9.8984  -16.5993   25.7707 N   0  0  0  0  0  0  0  0  0  0  0  0
   10.3099  -17.8298   26.4330 C   0  0  1  0  0  0  0  0  0  0  0  0
   11.7292  -18.1916   26.1177 C   0  0  0  0  0  0  0  0  0  0  0  0
   11.9460  -18.5585   24.7064 C   0  0  0  0  0  0  0  0  0  0  0  0
   10.9375  -19.0385   23.8959 C   0  0  0  0  0  0  0  0  0  0  0  0
   11.4511  -19.2796   22.6686 N   0  0  0  0  0  0  0  0  0  0  0  0
   12.7630  -18.9592   22.6958 C   0  0  0  0  0  0  0  0  0  0  0  0
   13.0370  -18.5281   23.9314 N   0  0  0  0  0  0  0  0  0  0  0  0
   10.0671  -17.6330   27.8851 C   0  0  0  0  0  0  0  0  0  0  0  0
    9.6201  -16.4387   28.4311 O   0  0  0  0  0  0  0  0  0  0  0  0
   10.2714  -18.5867   28.6787 O   0  0  0  0  0  0  0  0  0  0  0  0
  2  9  1  0
  2  1  1  6
  3  2  1  0
  4  3  1  0
  4  8  1  0
  5  6  1  0
  5  4  2  0
  6  7  1  0
  7  8  2  0
  9 10  2  0
 12 13  1  0
 12 11  1  0
 13 14  1  0
 15 14  1  1
 16 15  1  0
 16  9  1  0
 17 18  2  0
 17 15  1  0
 19 17  1  0
 20 27  1  0
 20 19  1  0
 20 21  1  1
 22 26  1  0
 22 21  1  0
 23 22  2  0
 24 23  1  0
 24 25  1  0
 25 26  2  0
 27 28  1  0
 29 27  2  0
M  END
$$$$
