HMH.pdb
     RDKit          3D

 29 30  0  0  1  0  0  0  0  0999 V2000
    9.3772  -13.4357   19.8046 N   0  0  0  0  0  0  0  0  0  0  0  0
    8.3604  -14.0849   20.5686 C   0  0  1  0  0  0  0  0  0  0  0  0
    7.9733  -15.4094   19.9971 C   0  0  0  0  0  0  0  0  0  0  0  0
    7.5619  -15.3762   18.5955 C   0  0  0  0  0  0  0  0  0  0  0  0
    6.8704  -14.3606   17.9815 C   0  0  0  0  0  0  0  0  0  0  0  0
    6.6902  -14.7161   16.6946 N   0  0  0  0  0  0  0  0  0  0  0  0
    7.2491  -15.9179   16.4991 C   0  0  0  0  0  0  0  0  0  0  0  0
    7.7803  -16.3123   17.6717 N   0  0  0  0  0  0  0  0  0  0  0  0
    8.7411  -14.2891   21.9865 C   0  0  0  0  0  0  0  0  0  0  0  0
    9.9413  -14.5136   22.2882 O   0  0  0  0  0  0  0  0  0  0  0  0
    6.5237  -10.3035   27.1751 C   0  0  0  0  0  0  0  0  0  0  0  0
    6.8208  -12.0686   27.0685 S   0  0  0  0  0  0  0  0  0  0  0  0
    6.7476  -12.6853   25.3651 C   0  0  0  0  0  0  0  0  0  0  0  0
    7.0782  -14.1617   25.4007 C   0  0  0  0  0  0  0  0  0  0  0  0
    8.2200  -14.4789   24.4254 C   0  0  2  0  0  0  0  0  0  0  0  0
    7.8102  -14.2465   23.0636 N   0  0  0  0  0  0  0  0  0  0  0  0
    8.5721  -15.9004   24.6692 C   0  0  0  0  0  0  0  0  0  0  0  0
    7.8062  -16.8223   24.2902 O   0  0  0  0  0  0  0  0  0  0  0  0
    9.7688  -16.2984   25.3308 N   0  0  0  0  0  0  0  0  0  0  0  0
   10.1274  -17.7034   25.4696 C   0  0  1  0  0  0  0  0  0  0  0  0
   11.5279  -17.9751   25.0116 C   0  0  0  0  0  0  0  0  0  0  0  0
   11.9522  -19.3735   25.2055 C   0  0  0  0  0  0  0  0  0  0  0  0
   11.0585  -20.4229   25.2725 C   0  0  0  0  0  0  0  0  0  0  0  0
   11.7541  -21.5683   25.4531 N   0  0  0  0  0  0  0  0  0  0  0  0
   13.0672  -21.2551   25.5004 C   0  0  0  0  0  0  0  0  0  0  0  0
   13.1611  -19.9300   25.3493 N   0  0  0  0  0  0  0  0  0  0  0  0
    9.8994  -18.0621   26.8928 C   0  0  0  0  0  0  0  0  0  0  0  0
    9.7696  -19.3684   27.3412 O   0  0  0  0  0  0  0  0  0  0  0  0
    9.8164  -17.1486   27.7528 O   0  0  0  0  0  0  0  0  0  0  0  0
  2  9  1  0
  2  1  1  6
  3  2  1  0
  4  3  1  0
  4  8  1  0
  5  6  1  0
  5  4  2  0
  6  7  1  0
  7  8  2  0
  9 10  2  0
 12 13  1  0
 12 11  1  0
 13 14  1  0
 15 14  1  1
 16 15  1  0
 16  9  1  0
 17 18  2  0
 17 15  1  0
 19 17  1  0
 20 27  1  0
 20 19  1  0
 20 21  1  1
 22 26  1  0
 22 21  1  0
 23 22  2  0
 24 23  1  0
 24 25  1  0
 25 26  2  0
 27 28  1  0
 29 27  2  0
M  END
$$$$
