HMH.pdb
     RDKit          3D

 29 30  0  0  1  0  0  0  0  0999 V2000
    7.5242  -16.1020   20.8094 N   0  0  0  0  0  0  0  0  0  0  0  0
    8.5941  -15.1679   20.9571 C   0  0  1  0  0  0  0  0  0  0  0  0
    8.3288  -13.8782   20.2521 C   0  0  0  0  0  0  0  0  0  0  0  0
    8.0935  -14.0015   18.8154 C   0  0  0  0  0  0  0  0  0  0  0  0
    7.6150  -13.0145   17.9886 C   0  0  0  0  0  0  0  0  0  0  0  0
    7.5439  -13.5292   16.7456 N   0  0  0  0  0  0  0  0  0  0  0  0
    7.9636  -14.8009   16.7831 C   0  0  0  0  0  0  0  0  0  0  0  0
    8.2978  -15.0790   18.0574 N   0  0  0  0  0  0  0  0  0  0  0  0
    8.9063  -14.8623   22.3736 C   0  0  0  0  0  0  0  0  0  0  0  0
    9.8779  -14.1150   22.6551 O   0  0  0  0  0  0  0  0  0  0  0  0
    6.6736  -10.8850   26.3711 C   0  0  0  0  0  0  0  0  0  0  0  0
    6.4247  -12.6104   26.7910 S   0  0  0  0  0  0  0  0  0  0  0  0
    6.4226  -13.6884   25.3331 C   0  0  0  0  0  0  0  0  0  0  0  0
    7.2064  -14.9338   25.6867 C   0  0  0  0  0  0  0  0  0  0  0  0
    8.4780  -15.0273   24.8323 C   0  0  2  0  0  0  0  0  0  0  0  0
    8.1564  -15.3740   23.4710 N   0  0  0  0  0  0  0  0  0  0  0  0
    9.3257  -16.0556   25.4866 C   0  0  0  0  0  0  0  0  0  0  0  0
    9.8353  -15.8396   26.6152 O   0  0  0  0  0  0  0  0  0  0  0  0
    9.6073  -17.3185   24.8918 N   0  0  0  0  0  0  0  0  0  0  0  0
   10.4498  -18.3009   25.5606 C   0  0  1  0  0  0  0  0  0  0  0  0
   11.8933  -17.8994   25.5586 C   0  0  0  0  0  0  0  0  0  0  0  0
   12.4710  -17.7781   24.2078 C   0  0  0  0  0  0  0  0  0  0  0  0
   11.7447  -18.0216   23.0600 C   0  0  0  0  0  0  0  0  0  0  0  0
   12.5507  -17.8256   21.9922 N   0  0  0  0  0  0  0  0  0  0  0  0
   13.7687  -17.4638   22.4505 C   0  0  0  0  0  0  0  0  0  0  0  0
   13.6960  -17.4422   23.7854 N   0  0  0  0  0  0  0  0  0  0  0  0
    9.8954  -18.4767   26.9274 C   0  0  0  0  0  0  0  0  0  0  0  0
   10.3904  -19.3954   27.8413 O   0  0  0  0  0  0  0  0  0  0  0  0
    8.9261  -17.7654   27.2953 O   0  0  0  0  0  0  0  0  0  0  0  0
  2  9  1  0
  2  1  1  1
  3  2  1  0
  4  3  1  0
  4  8  1  0
  5  6  1  0
  5  4  2  0
  6  7  1  0
  7  8  2  0
  9 10  2  0
 12 13  1  0
 12 11  1  0
 13 14  1  0
 15 14  1  1
 16 15  1  0
 16  9  1  0
 17 18  2  0
 17 15  1  0
 19 17  1  0
 20 27  1  0
 20 19  1  0
 20 21  1  1
 22 26  1  0
 22 21  1  0
 23 22  2  0
 24 23  1  0
 24 25  1  0
 25 26  2  0
 27 28  1  0
 29 27  2  0
M  END
$$$$
