HMH.pdb
     RDKit          3D

 29 30  0  0  1  0  0  0  0  0999 V2000
    8.0439  -17.2649   20.6366 N   0  0  0  0  0  0  0  0  0  0  0  0
    9.3436  -16.7268   20.8818 C   0  0  1  0  0  0  0  0  0  0  0  0
    9.8440  -15.8989   19.7439 C   0  0  0  0  0  0  0  0  0  0  0  0
    9.5026  -16.4084   18.4178 C   0  0  0  0  0  0  0  0  0  0  0  0
    8.7506  -17.5267   18.1523 C   0  0  0  0  0  0  0  0  0  0  0  0
    8.6693  -17.6492   16.8131 N   0  0  0  0  0  0  0  0  0  0  0  0
    9.3476  -16.6415   16.2481 C   0  0  0  0  0  0  0  0  0  0  0  0
    9.8540  -15.8875   17.2420 N   0  0  0  0  0  0  0  0  0  0  0  0
    9.4083  -15.9038   22.1130 C   0  0  0  0  0  0  0  0  0  0  0  0
   10.5060  -15.4154   22.4847 O   0  0  0  0  0  0  0  0  0  0  0  0
    6.4049  -10.7965   26.3041 C   0  0  0  0  0  0  0  0  0  0  0  0
    5.9332  -12.5264   26.2917 S   0  0  0  0  0  0  0  0  0  0  0  0
    7.3422  -13.6302   26.0020 C   0  0  0  0  0  0  0  0  0  0  0  0
    7.1936  -14.2022   24.6088 C   0  0  0  0  0  0  0  0  0  0  0  0
    8.4164  -15.0562   24.2469 C   0  0  2  0  0  0  0  0  0  0  0  0
    8.2755  -15.6203   22.9284 N   0  0  0  0  0  0  0  0  0  0  0  0
    8.4999  -16.1021   25.2973 C   0  0  0  0  0  0  0  0  0  0  0  0
    7.4593  -16.6633   25.7241 O   0  0  0  0  0  0  0  0  0  0  0  0
    9.7325  -16.5242   25.8723 N   0  0  0  0  0  0  0  0  0  0  0  0
    9.8753  -17.8414   26.4777 C   0  0  1  0  0  0  0  0  0  0  0  0
    9.7853  -18.9403   25.4632 C   0  0  0  0  0  0  0  0  0  0  0  0
    8.5136  -19.6845   25.5094 C   0  0  0  0  0  0  0  0  0  0  0  0
    7.5271  -19.4209   26.4376 C   0  0  0  0  0  0  0  0  0  0  0  0
    6.4946  -20.2660   26.2184 N   0  0  0  0  0  0  0  0  0  0  0  0
    6.8166  -21.0540   25.1697 C   0  0  0  0  0  0  0  0  0  0  0  0
    8.0350  -20.6855   24.7605 N   0  0  0  0  0  0  0  0  0  0  0  0
   11.1645  -17.8331   27.2155 C   0  0  0  0  0  0  0  0  0  0  0  0
   12.0426  -16.7593   27.2092 O   0  0  0  0  0  0  0  0  0  0  0  0
   11.4964  -18.8427   27.8873 O   0  0  0  0  0  0  0  0  0  0  0  0
  2  9  1  0
  2  1  1  6
  3  2  1  0
  4  3  1  0
  4  8  1  0
  5  6  1  0
  5  4  2  0
  6  7  1  0
  7  8  2  0
  9 10  2  0
 12 13  1  0
 12 11  1  0
 13 14  1  0
 15 14  1  1
 16 15  1  0
 16  9  1  0
 17 18  2  0
 17 15  1  0
 19 17  1  0
 20 27  1  0
 20 19  1  0
 20 21  1  6
 22 26  1  0
 22 21  1  0
 23 22  2  0
 24 23  1  0
 24 25  1  0
 25 26  2  0
 27 28  1  0
 29 27  2  0
M  END
$$$$
