WYP.pdb
     RDKit          3D

 34 37  0  0  1  0  0  0  0  0999 V2000
    5.5613  -19.2583   21.2807 N   0  0  0  0  0  0  0  0  0  0  0  0
    6.4226  -18.1051   21.3741 C   0  0  1  0  0  0  0  0  0  0  0  0
    5.9117  -17.0133   20.4611 C   0  0  0  0  0  0  0  0  0  0  0  0
    6.9735  -15.9925   20.2923 C   0  0  0  0  0  0  0  0  0  0  0  0
    8.0761  -16.0308   19.4544 C   0  0  0  0  0  0  0  0  0  0  0  0
    8.7859  -14.9006   19.6116 N   0  0  0  0  0  0  0  0  0  0  0  0
    8.2043  -14.1050   20.5212 C   0  0  0  0  0  0  0  0  0  0  0  0
    8.5414  -12.8617   21.0218 C   0  0  0  0  0  0  0  0  0  0  0  0
    7.7132  -12.3002   21.9724 C   0  0  0  0  0  0  0  0  0  0  0  0
    6.5790  -12.9727   22.4050 C   0  0  0  0  0  0  0  0  0  0  0  0
    6.2510  -14.2015   21.9064 C   0  0  0  0  0  0  0  0  0  0  0  0
    7.0724  -14.7778   20.9519 C   0  0  0  0  0  0  0  0  0  0  0  0
    6.5436  -17.6224   22.7747 C   0  0  0  0  0  0  0  0  0  0  0  0
    5.5482  -17.5460   23.5375 O   0  0  0  0  0  0  0  0  0  0  0  0
   10.2000  -16.5660   30.6767 O   0  0  0  0  0  0  0  0  0  0  0  0
    9.8929  -16.9001   29.3624 C   0  0  0  0  0  0  0  0  0  0  0  0
    8.8669  -17.7753   29.0691 C   0  0  0  0  0  0  0  0  0  0  0  0
    8.5589  -18.1106   27.7460 C   0  0  0  0  0  0  0  0  0  0  0  0
    9.2760  -17.5715   26.7169 C   0  0  0  0  0  0  0  0  0  0  0  0
    8.9999  -17.8870   25.2937 C   0  0  0  0  0  0  0  0  0  0  0  0
    7.9945  -16.8905   24.7059 C   0  0  2  0  0  0  0  0  0  0  0  0
    7.7972  -17.2322   23.2905 N   0  0  0  0  0  0  0  0  0  0  0  0
    8.6286  -15.5517   24.8106 C   0  0  0  0  0  0  0  0  0  0  0  0
    9.6275  -15.3403   24.0400 O   0  0  0  0  0  0  0  0  0  0  0  0
   10.2978  -16.7001   27.0083 C   0  0  0  0  0  0  0  0  0  0  0  0
   10.6112  -16.3604   28.3299 C   0  0  0  0  0  0  0  0  0  0  0  0
    8.2264  -14.5266   25.6657 N   0  0  0  0  0  0  0  0  0  0  0  0
    7.2225  -14.4786   26.7290 C   0  0  0  0  0  0  0  0  0  0  0  0
    6.7640  -13.0363   26.7935 C   0  0  0  0  0  0  0  0  0  0  0  0
    7.5125  -12.3683   25.6692 C   0  0  0  0  0  0  0  0  0  0  0  0
    8.7947  -13.1684   25.6334 C   0  0  1  0  0  0  0  0  0  0  0  0
    9.6230  -13.0161   26.8364 C   0  0  0  0  0  0  0  0  0  0  0  0
    9.7559  -13.9497   27.8519 O   0  0  0  0  0  0  0  0  0  0  0  0
   10.2807  -11.9362   26.9672 O   0  0  0  0  0  0  0  0  0  0  0  0
  2  1  1  1
  3  2  1  0
  4  5  2  0
  4  3  1  0
  6  5  1  0
  7 12  2  0
  7  6  1  0
  8  7  1  0
  9 10  1  0
  9  8  2  0
 10 11  2  0
 11 12  1  0
 12  4  1  0
 13 14  2  0
 13  2  1  0
 16 17  2  0
 16 15  1  0
 18 17  1  0
 19 18  2  0
 20 19  1  0
 21 20  1  6
 21 22  1  0
 22 13  1  0
 23 24  2  0
 23 21  1  0
 25 19  1  0
 25 26  2  0
 26 16  1  0
 27 23  1  0
 28 29  1  0
 28 27  1  0
 30 31  1  0
 30 29  1  0
 31 27  1  0
 31 32  1  1
 32 33  1  0
 34 32  2  0
M  END
$$$$
