WYP.pdb
     RDKit          3D

 34 37  0  0  1  0  0  0  0  0999 V2000
    7.7806  -19.7747   25.3191 N   0  0  0  0  0  0  0  0  0  0  0  0
    6.7771  -19.0171   24.6122 C   0  0  1  0  0  0  0  0  0  0  0  0
    5.4052  -19.3766   25.1368 C   0  0  0  0  0  0  0  0  0  0  0  0
    4.5421  -19.7669   23.9962 C   0  0  0  0  0  0  0  0  0  0  0  0
    3.9213  -20.9839   23.7663 C   0  0  0  0  0  0  0  0  0  0  0  0
    3.2320  -20.9140   22.6148 N   0  0  0  0  0  0  0  0  0  0  0  0
    3.3649  -19.6991   22.0625 C   0  0  0  0  0  0  0  0  0  0  0  0
    2.8601  -19.1440   20.9018 C   0  0  0  0  0  0  0  0  0  0  0  0
    3.1927  -17.8363   20.6119 C   0  0  0  0  0  0  0  0  0  0  0  0
    4.0098  -17.1103   21.4669 C   0  0  0  0  0  0  0  0  0  0  0  0
    4.5057  -17.6647   22.6127 C   0  0  0  0  0  0  0  0  0  0  0  0
    4.1808  -18.9760   22.9172 C   0  0  0  0  0  0  0  0  0  0  0  0
    7.0240  -17.5546   24.7093 C   0  0  0  0  0  0  0  0  0  0  0  0
    6.1839  -16.7734   25.2216 O   0  0  0  0  0  0  0  0  0  0  0  0
    9.5058  -14.7813   29.9389 O   0  0  0  0  0  0  0  0  0  0  0  0
    9.5420  -14.8526   28.5508 C   0  0  0  0  0  0  0  0  0  0  0  0
   10.1790  -15.8930   27.9055 C   0  0  0  0  0  0  0  0  0  0  0  0
   10.2146  -15.9635   26.5085 C   0  0  0  0  0  0  0  0  0  0  0  0
    9.6140  -14.9946   25.7571 C   0  0  0  0  0  0  0  0  0  0  0  0
    9.6169  -15.0116   24.2735 C   0  0  0  0  0  0  0  0  0  0  0  0
    8.3128  -15.6136   23.7387 C   0  0  2  0  0  0  0  0  0  0  0  0
    8.2252  -16.9986   24.2216 N   0  0  0  0  0  0  0  0  0  0  0  0
    8.4310  -15.6095   22.2584 C   0  0  0  0  0  0  0  0  0  0  0  0
    8.5265  -16.7556   21.6984 O   0  0  0  0  0  0  0  0  0  0  0  0
    8.9797  -13.9584   26.3991 C   0  0  0  0  0  0  0  0  0  0  0  0
    8.9403  -13.8819   27.7965 C   0  0  0  0  0  0  0  0  0  0  0  0
    8.4438  -14.4756   21.4473 N   0  0  0  0  0  0  0  0  0  0  0  0
    8.4273  -13.0473   21.7641 C   0  0  0  0  0  0  0  0  0  0  0  0
    7.7690  -12.3730   20.5782 C   0  0  0  0  0  0  0  0  0  0  0  0
    7.3777  -13.5193   19.6818 C   0  0  0  0  0  0  0  0  0  0  0  0
    8.4660  -14.5267   19.9757 C   0  0  1  0  0  0  0  0  0  0  0  0
    9.8033  -14.0975   19.5468 C   0  0  0  0  0  0  0  0  0  0  0  0
   10.9137  -13.9673   20.3659 O   0  0  0  0  0  0  0  0  0  0  0  0
    9.9678  -13.8189   18.3175 O   0  0  0  0  0  0  0  0  0  0  0  0
  2  1  1  1
  3  2  1  0
  4  5  2  0
  4  3  1  0
  6  5  1  0
  7 12  2  0
  7  6  1  0
  8  7  1  0
  9 10  1  0
  9  8  2  0
 10 11  2  0
 11 12  1  0
 12  4  1  0
 13 14  2  0
 13  2  1  0
 16 17  2  0
 16 15  1  0
 18 17  1  0
 19 18  2  0
 20 19  1  0
 21 20  1  1
 21 22  1  0
 22 13  1  0
 23 24  2  0
 23 21  1  0
 25 19  1  0
 25 26  2  0
 26 16  1  0
 27 23  1  0
 28 29  1  0
 28 27  1  0
 30 31  1  0
 30 29  1  0
 31 27  1  0
 31 32  1  6
 32 33  1  0
 34 32  2  0
M  END
$$$$
