WYP.pdb
     RDKit          3D

 34 37  0  0  1  0  0  0  0  0999 V2000
    5.2117  -18.7236   22.7858 N   0  0  0  0  0  0  0  0  0  0  0  0
    6.0911  -17.6250   23.1028 C   0  0  1  0  0  0  0  0  0  0  0  0
    5.3802  -16.3149   22.8489 C   0  0  0  0  0  0  0  0  0  0  0  0
    6.3751  -15.2159   22.8741 C   0  0  0  0  0  0  0  0  0  0  0  0
    7.3338  -14.9036   21.9240 C   0  0  0  0  0  0  0  0  0  0  0  0
    8.0292  -13.8311   22.3388 N   0  0  0  0  0  0  0  0  0  0  0  0
    7.5759  -13.4107   23.5289 C   0  0  0  0  0  0  0  0  0  0  0  0
    7.9540  -12.3680   24.3536 C   0  0  0  0  0  0  0  0  0  0  0  0
    7.2699  -12.2006   25.5405 C   0  0  0  0  0  0  0  0  0  0  0  0
    6.2355  -13.0591   25.8852 C   0  0  0  0  0  0  0  0  0  0  0  0
    5.8664  -14.0879   25.0658 C   0  0  0  0  0  0  0  0  0  0  0  0
    6.5436  -14.2687   23.8714 C   0  0  0  0  0  0  0  0  0  0  0  0
    6.5877  -17.7055   24.5014 C   0  0  0  0  0  0  0  0  0  0  0  0
    5.8514  -17.4341   25.4825 O   0  0  0  0  0  0  0  0  0  0  0  0
   11.8388  -18.4473   31.5035 O   0  0  0  0  0  0  0  0  0  0  0  0
   11.1921  -18.6182   30.2845 C   0  0  0  0  0  0  0  0  0  0  0  0
    9.8406  -18.8911   30.2250 C   0  0  0  0  0  0  0  0  0  0  0  0
    9.1912  -19.0628   28.9977 C   0  0  0  0  0  0  0  0  0  0  0  0
    9.8922  -18.9617   27.8304 C   0  0  0  0  0  0  0  0  0  0  0  0
    9.2627  -19.1335   26.4980 C   0  0  0  0  0  0  0  0  0  0  0  0
    8.5700  -17.8390   26.0580 C   0  0  2  0  0  0  0  0  0  0  0  0
    7.9176  -18.0943   24.7664 N   0  0  0  0  0  0  0  0  0  0  0  0
    9.6472  -16.8322   25.8807 C   0  0  0  0  0  0  0  0  0  0  0  0
   10.1813  -16.7782   24.7196 O   0  0  0  0  0  0  0  0  0  0  0  0
   11.2380  -18.6900   27.8890 C   0  0  0  0  0  0  0  0  0  0  0  0
   11.8939  -18.5171   29.1137 C   0  0  0  0  0  0  0  0  0  0  0  0
   10.1113  -15.9572   26.8619 N   0  0  0  0  0  0  0  0  0  0  0  0
    9.7994  -15.8317   28.2859 C   0  0  0  0  0  0  0  0  0  0  0  0
   10.0301  -14.3742   28.6280 C   0  0  0  0  0  0  0  0  0  0  0  0
   10.3928  -13.7458   27.3073 C   0  0  0  0  0  0  0  0  0  0  0  0
   11.0898  -14.8875   26.6030 C   0  0  1  0  0  0  0  0  0  0  0  0
   12.3523  -15.2922   27.2348 C   0  0  0  0  0  0  0  0  0  0  0  0
   13.5825  -14.6811   27.0508 O   0  0  0  0  0  0  0  0  0  0  0  0
   12.3250  -16.2898   28.0220 O   0  0  0  0  0  0  0  0  0  0  0  0
  2  1  1  1
  3  2  1  0
  4  5  2  0
  4  3  1  0
  6  5  1  0
  7 12  2  0
  7  6  1  0
  8  7  1  0
  9 10  1  0
  9  8  2  0
 10 11  2  0
 11 12  1  0
 12  4  1  0
 13 14  2  0
 13  2  1  0
 16 17  2  0
 16 15  1  0
 18 17  1  0
 19 18  2  0
 20 19  1  0
 21 20  1  6
 21 22  1  0
 22 13  1  0
 23 24  2  0
 23 21  1  0
 25 19  1  0
 25 26  2  0
 26 16  1  0
 27 23  1  0
 28 29  1  0
 28 27  1  0
 30 31  1  0
 30 29  1  0
 31 27  1  0
 31 32  1  1
 32 33  1  0
 34 32  2  0
M  END
$$$$
