WYP.pdb
     RDKit          3D

 34 37  0  0  1  0  0  0  0  0999 V2000
    7.0028  -18.0747   26.2889 N   0  0  0  0  0  0  0  0  0  0  0  0
    7.3800  -16.7816   25.7730 C   0  0  1  0  0  0  0  0  0  0  0  0
    8.7189  -16.3759   26.3467 C   0  0  0  0  0  0  0  0  0  0  0  0
    8.5098  -15.2860   27.3298 C   0  0  0  0  0  0  0  0  0  0  0  0
    8.7035  -15.3177   28.7012 C   0  0  0  0  0  0  0  0  0  0  0  0
    8.3962  -14.1149   29.2155 N   0  0  0  0  0  0  0  0  0  0  0  0
    8.0040  -13.2768   28.2447 C   0  0  0  0  0  0  0  0  0  0  0  0
    7.5939  -11.9571   28.2637 C   0  0  0  0  0  0  0  0  0  0  0  0
    7.2492  -11.3690   27.0636 C   0  0  0  0  0  0  0  0  0  0  0  0
    7.3162  -12.0904   25.8800 C   0  0  0  0  0  0  0  0  0  0  0  0
    7.7223  -13.3946   25.8678 C   0  0  0  0  0  0  0  0  0  0  0  0
    8.0714  -13.9985   27.0641 C   0  0  0  0  0  0  0  0  0  0  0  0
    7.4056  -16.7698   24.2869 C   0  0  0  0  0  0  0  0  0  0  0  0
    7.5758  -17.8202   23.6188 O   0  0  0  0  0  0  0  0  0  0  0  0
    8.8934  -13.1471   16.3597 O   0  0  0  0  0  0  0  0  0  0  0  0
    8.5425  -13.3362   17.6918 C   0  0  0  0  0  0  0  0  0  0  0  0
    9.3642  -12.9079   18.7145 C   0  0  0  0  0  0  0  0  0  0  0  0
    9.0098  -13.0988   20.0545 C   0  0  0  0  0  0  0  0  0  0  0  0
    7.8348  -13.7174   20.3720 C   0  0  0  0  0  0  0  0  0  0  0  0
    7.4024  -13.9502   21.7721 C   0  0  0  0  0  0  0  0  0  0  0  0
    7.6329  -15.4118   22.1715 C   0  0  2  0  0  0  0  0  0  0  0  0
    7.2370  -15.5616   23.5787 N   0  0  0  0  0  0  0  0  0  0  0  0
    9.0920  -15.6530   22.0370 C   0  0  0  0  0  0  0  0  0  0  0  0
    9.8258  -15.2068   22.9850 O   0  0  0  0  0  0  0  0  0  0  0  0
    7.0163  -14.1442   19.3541 C   0  0  0  0  0  0  0  0  0  0  0  0
    7.3649  -13.9563   18.0112 C   0  0  0  0  0  0  0  0  0  0  0  0
    9.7119  -16.3167   20.9791 N   0  0  0  0  0  0  0  0  0  0  0  0
    9.2188  -16.7408   19.6685 C   0  0  0  0  0  0  0  0  0  0  0  0
   10.0511  -17.9484   19.2898 C   0  0  0  0  0  0  0  0  0  0  0  0
   10.9313  -18.1724   20.4922 C   0  0  0  0  0  0  0  0  0  0  0  0
   11.1149  -16.7631   21.0075 C   0  0  1  0  0  0  0  0  0  0  0  0
   11.8662  -15.8910   20.0955 C   0  0  0  0  0  0  0  0  0  0  0  0
   11.3299  -14.8730   19.3230 O   0  0  0  0  0  0  0  0  0  0  0  0
   13.1198  -16.0779   19.9991 O   0  0  0  0  0  0  0  0  0  0  0  0
  2  1  1  6
  3  2  1  0
  4  5  2  0
  4  3  1  0
  6  5  1  0
  7 12  2  0
  7  6  1  0
  8  7  1  0
  9 10  1  0
  9  8  2  0
 10 11  2  0
 11 12  1  0
 12  4  1  0
 13 14  2  0
 13  2  1  0
 16 17  2  0
 16 15  1  0
 18 17  1  0
 19 18  2  0
 20 19  1  0
 21 20  1  1
 21 22  1  0
 22 13  1  0
 23 24  2  0
 23 21  1  0
 25 19  1  0
 25 26  2  0
 26 16  1  0
 27 23  1  0
 28 29  1  0
 28 27  1  0
 30 31  1  0
 30 29  1  0
 31 27  1  0
 31 32  1  6
 32 33  1  0
 34 32  2  0
M  END
$$$$
