WYP.pdb
     RDKit          3D

 34 37  0  0  1  0  0  0  0  0999 V2000
    7.7156  -18.2505   26.3065 N   0  0  0  0  0  0  0  0  0  0  0  0
    6.7542  -17.7187   25.3718 C   0  0  1  0  0  0  0  0  0  0  0  0
    6.0483  -16.5320   25.9882 C   0  0  0  0  0  0  0  0  0  0  0  0
    7.0609  -15.6242   26.5786 C   0  0  0  0  0  0  0  0  0  0  0  0
    8.3297  -15.9366   27.0390 C   0  0  0  0  0  0  0  0  0  0  0  0
    8.9181  -14.8182   27.4958 N   0  0  0  0  0  0  0  0  0  0  0  0
    8.0956  -13.7675   27.3607 C   0  0  0  0  0  0  0  0  0  0  0  0
    8.2357  -12.4292   27.6758 C   0  0  0  0  0  0  0  0  0  0  0  0
    7.1774  -11.5860   27.4039 C   0  0  0  0  0  0  0  0  0  0  0  0
    6.0129  -12.0780   26.8315 C   0  0  0  0  0  0  0  0  0  0  0  0
    5.8806  -13.4020   26.5223 C   0  0  0  0  0  0  0  0  0  0  0  0
    6.9339  -14.2605   26.7892 C   0  0  0  0  0  0  0  0  0  0  0  0
    7.3898  -17.3544   24.0785 C   0  0  0  0  0  0  0  0  0  0  0  0
    7.9641  -18.2090   23.3586 O   0  0  0  0  0  0  0  0  0  0  0  0
    9.1904  -12.4226   16.9584 O   0  0  0  0  0  0  0  0  0  0  0  0
    8.8544  -12.8323   18.2439 C   0  0  0  0  0  0  0  0  0  0  0  0
    9.7830  -12.8145   19.2647 C   0  0  0  0  0  0  0  0  0  0  0  0
    9.4435  -13.2270   20.5579 C   0  0  0  0  0  0  0  0  0  0  0  0
    8.1766  -13.6568   20.8305 C   0  0  0  0  0  0  0  0  0  0  0  0
    7.7542  -14.1073   22.1796 C   0  0  0  0  0  0  0  0  0  0  0  0
    7.9102  -15.6261   22.3142 C   0  0  2  0  0  0  0  0  0  0  0  0
    7.3639  -16.0206   23.6200 N   0  0  0  0  0  0  0  0  0  0  0  0
    9.3699  -15.8971   22.2833 C   0  0  0  0  0  0  0  0  0  0  0  0
    9.9941  -15.7447   23.3895 O   0  0  0  0  0  0  0  0  0  0  0  0
    7.2516  -13.6748   19.8145 C   0  0  0  0  0  0  0  0  0  0  0  0
    7.5848  -13.2634   18.5184 C   0  0  0  0  0  0  0  0  0  0  0  0
   10.0985  -16.2985   21.1644 N   0  0  0  0  0  0  0  0  0  0  0  0
    9.7564  -16.3507   19.7428 C   0  0  0  0  0  0  0  0  0  0  0  0
   10.6054  -17.4607   19.1585 C   0  0  0  0  0  0  0  0  0  0  0  0
   11.3327  -18.0257   20.3511 C   0  0  0  0  0  0  0  0  0  0  0  0
   11.4799  -16.8047   21.2302 C   0  0  1  0  0  0  0  0  0  0  0  0
   12.3497  -15.7664   20.6628 C   0  0  0  0  0  0  0  0  0  0  0  0
   13.7277  -15.7022   20.7962 O   0  0  0  0  0  0  0  0  0  0  0  0
   11.8001  -14.8403   19.9875 O   0  0  0  0  0  0  0  0  0  0  0  0
  2  1  1  1
  3  2  1  0
  4  5  2  0
  4  3  1  0
  6  5  1  0
  7 12  2  0
  7  6  1  0
  8  7  1  0
  9 10  1  0
  9  8  2  0
 10 11  2  0
 11 12  1  0
 12  4  1  0
 13 14  2  0
 13  2  1  0
 16 17  2  0
 16 15  1  0
 18 17  1  0
 19 18  2  0
 20 19  1  0
 21 20  1  1
 21 22  1  0
 22 13  1  0
 23 24  2  0
 23 21  1  0
 25 19  1  0
 25 26  2  0
 26 16  1  0
 27 23  1  0
 28 29  1  0
 28 27  1  0
 30 31  1  0
 30 29  1  0
 31 27  1  0
 31 32  1  6
 32 33  1  0
 34 32  2  0
M  END
$$$$
