WYP.pdb
     RDKit          3D

 34 37  0  0  1  0  0  0  0  0999 V2000
    4.7716  -20.8984   24.1278 N   0  0  0  0  0  0  0  0  0  0  0  0
    5.9273  -20.2497   23.5585 C   0  0  1  0  0  0  0  0  0  0  0  0
    6.1825  -20.7918   22.1702 C   0  0  0  0  0  0  0  0  0  0  0  0
    6.8759  -22.0973   22.2844 C   0  0  0  0  0  0  0  0  0  0  0  0
    6.3170  -23.3569   22.4270 C   0  0  0  0  0  0  0  0  0  0  0  0
    7.3018  -24.2687   22.4935 N   0  0  0  0  0  0  0  0  0  0  0  0
    8.4994  -23.6722   22.4013 C   0  0  0  0  0  0  0  0  0  0  0  0
    9.7897  -24.1672   22.4172 C   0  0  0  0  0  0  0  0  0  0  0  0
   10.8297  -23.2677   22.2983 C   0  0  0  0  0  0  0  0  0  0  0  0
   10.5758  -21.9097   22.1673 C   0  0  0  0  0  0  0  0  0  0  0  0
    9.2981  -21.4265   22.1521 C   0  0  0  0  0  0  0  0  0  0  0  0
    8.2441  -22.3168   22.2705 C   0  0  0  0  0  0  0  0  0  0  0  0
    5.7728  -18.7715   23.5388 C   0  0  0  0  0  0  0  0  0  0  0  0
    4.6544  -18.2201   23.6923 O   0  0  0  0  0  0  0  0  0  0  0  0
    7.0190  -11.2227   27.3188 O   0  0  0  0  0  0  0  0  0  0  0  0
    7.0112  -12.5228   26.8257 C   0  0  0  0  0  0  0  0  0  0  0  0
    8.1692  -13.1222   26.3738 C   0  0  0  0  0  0  0  0  0  0  0  0
    8.1599  -14.4305   25.8779 C   0  0  0  0  0  0  0  0  0  0  0  0
    6.9937  -15.1392   25.8339 C   0  0  0  0  0  0  0  0  0  0  0  0
    6.9172  -16.5288   25.3195 C   0  0  0  0  0  0  0  0  0  0  0  0
    6.9204  -16.5372   23.7868 C   0  0  2  0  0  0  0  0  0  0  0  0
    6.8943  -17.9382   23.3444 N   0  0  0  0  0  0  0  0  0  0  0  0
    8.2001  -15.9083   23.3717 C   0  0  0  0  0  0  0  0  0  0  0  0
    9.2675  -16.5181   23.7253 O   0  0  0  0  0  0  0  0  0  0  0  0
    5.8403  -14.5429   26.2837 C   0  0  0  0  0  0  0  0  0  0  0  0
    5.8428  -13.2342   26.7811 C   0  0  0  0  0  0  0  0  0  0  0  0
    8.3258  -14.7287   22.6392 N   0  0  0  0  0  0  0  0  0  0  0  0
    7.8639  -13.3646   22.8968 C   0  0  0  0  0  0  0  0  0  0  0  0
    7.6698  -12.7342   21.5332 C   0  0  0  0  0  0  0  0  0  0  0  0
    7.9723  -13.8537   20.5710 C   0  0  0  0  0  0  0  0  0  0  0  0
    9.0068  -14.6475   21.3359 C   0  0  1  0  0  0  0  0  0  0  0  0
   10.2685  -13.9271   21.5499 C   0  0  0  0  0  0  0  0  0  0  0  0
   10.7709  -13.5198   22.7756 O   0  0  0  0  0  0  0  0  0  0  0  0
   10.9695  -13.6480   20.5270 O   0  0  0  0  0  0  0  0  0  0  0  0
  2  1  1  6
  3  2  1  0
  4  5  2  0
  4  3  1  0
  6  5  1  0
  7 12  2  0
  7  6  1  0
  8  7  1  0
  9 10  1  0
  9  8  2  0
 10 11  2  0
 11 12  1  0
 12  4  1  0
 13 14  2  0
 13  2  1  0
 16 17  2  0
 16 15  1  0
 18 17  1  0
 19 18  2  0
 20 19  1  0
 21 20  1  1
 21 22  1  0
 22 13  1  0
 23 24  2  0
 23 21  1  0
 25 19  1  0
 25 26  2  0
 26 16  1  0
 27 23  1  0
 28 29  1  0
 28 27  1  0
 30 31  1  0
 30 29  1  0
 31 27  1  0
 31 32  1  1
 32 33  1  0
 34 32  2  0
M  END
$$$$
