WYP.pdb
     RDKit          3D

 34 37  0  0  1  0  0  0  0  0999 V2000
    6.7561  -19.0195   25.8142 N   0  0  0  0  0  0  0  0  0  0  0  0
    6.8265  -17.6033   25.5494 C   0  0  1  0  0  0  0  0  0  0  0  0
    7.6468  -16.9252   26.6235 C   0  0  0  0  0  0  0  0  0  0  0  0
    7.1427  -15.5439   26.8125 C   0  0  0  0  0  0  0  0  0  0  0  0
    5.8444  -15.0782   26.6819 C   0  0  0  0  0  0  0  0  0  0  0  0
    5.8231  -13.7599   26.9416 N   0  0  0  0  0  0  0  0  0  0  0  0
    7.0547  -13.3216   27.2412 C   0  0  0  0  0  0  0  0  0  0  0  0
    7.5427  -12.0724   27.5749 C   0  0  0  0  0  0  0  0  0  0  0  0
    8.8934  -11.9524   27.8317 C   0  0  0  0  0  0  0  0  0  0  0  0
    9.7269  -13.0592   27.7541 C   0  0  0  0  0  0  0  0  0  0  0  0
    9.2386  -14.2915   27.4237 C   0  0  0  0  0  0  0  0  0  0  0  0
    7.8853  -14.4277   27.1633 C   0  0  0  0  0  0  0  0  0  0  0  0
    7.3756  -17.3246   24.1966 C   0  0  0  0  0  0  0  0  0  0  0  0
    8.1511  -18.1263   23.6183 O   0  0  0  0  0  0  0  0  0  0  0  0
    8.8520  -12.8423   16.6794 O   0  0  0  0  0  0  0  0  0  0  0  0
    8.4391  -13.2183   17.9528 C   0  0  0  0  0  0  0  0  0  0  0  0
    7.3678  -14.0692   18.1341 C   0  0  0  0  0  0  0  0  0  0  0  0
    6.9535  -14.4467   19.4161 C   0  0  0  0  0  0  0  0  0  0  0  0
    7.6097  -13.9741   20.5161 C   0  0  0  0  0  0  0  0  0  0  0  0
    7.2196  -14.3359   21.9011 C   0  0  0  0  0  0  0  0  0  0  0  0
    7.5971  -15.7900   22.2051 C   0  0  2  0  0  0  0  0  0  0  0  0
    7.0351  -16.1357   23.5180 N   0  0  0  0  0  0  0  0  0  0  0  0
    9.0800  -15.8275   22.2733 C   0  0  0  0  0  0  0  0  0  0  0  0
    9.6047  -15.3947   23.3567 O   0  0  0  0  0  0  0  0  0  0  0  0
    8.6765  -13.1268   20.3363 C   0  0  0  0  0  0  0  0  0  0  0  0
    9.0962  -12.7451   19.0563 C   0  0  0  0  0  0  0  0  0  0  0  0
    9.9283  -16.2906   21.2684 N   0  0  0  0  0  0  0  0  0  0  0  0
    9.6937  -16.6020   19.8582 C   0  0  0  0  0  0  0  0  0  0  0  0
   10.7141  -17.6621   19.4984 C   0  0  0  0  0  0  0  0  0  0  0  0
   11.4235  -17.9374   20.7990 C   0  0  0  0  0  0  0  0  0  0  0  0
   11.3548  -16.5893   21.4797 C   0  0  1  0  0  0  0  0  0  0  0  0
   12.1234  -15.5402   20.7975 C   0  0  0  0  0  0  0  0  0  0  0  0
   13.4396  -15.1975   21.0637 O   0  0  0  0  0  0  0  0  0  0  0  0
   11.5391  -14.8828   19.8798 O   0  0  0  0  0  0  0  0  0  0  0  0
  2  1  1  1
  3  2  1  0
  4  5  2  0
  4  3  1  0
  6  5  1  0
  7 12  2  0
  7  6  1  0
  8  7  1  0
  9 10  1  0
  9  8  2  0
 10 11  2  0
 11 12  1  0
 12  4  1  0
 13 14  2  0
 13  2  1  0
 16 17  2  0
 16 15  1  0
 18 17  1  0
 19 18  2  0
 20 19  1  0
 21 20  1  1
 21 22  1  0
 22 13  1  0
 23 24  2  0
 23 21  1  0
 25 19  1  0
 25 26  2  0
 26 16  1  0
 27 23  1  0
 28 29  1  0
 28 27  1  0
 30 31  1  0
 30 29  1  0
 31 27  1  0
 31 32  1  6
 32 33  1  0
 34 32  2  0
M  END
$$$$
