WYP.pdb
     RDKit          3D

 34 37  0  0  1  0  0  0  0  0999 V2000
    6.5894  -19.1823   21.4957 N   0  0  0  0  0  0  0  0  0  0  0  0
    6.8387  -17.7700   21.6503 C   0  0  1  0  0  0  0  0  0  0  0  0
    5.9453  -16.9902   20.7122 C   0  0  0  0  0  0  0  0  0  0  0  0
    6.7742  -16.0250   19.9510 C   0  0  0  0  0  0  0  0  0  0  0  0
    7.4511  -16.2271   18.7592 C   0  0  0  0  0  0  0  0  0  0  0  0
    8.0801  -15.0909   18.4140 N   0  0  0  0  0  0  0  0  0  0  0  0
    7.8529  -14.1341   19.3259 C   0  0  0  0  0  0  0  0  0  0  0  0
    8.2700  -12.8198   19.4198 C   0  0  0  0  0  0  0  0  0  0  0  0
    7.8506  -12.0839   20.5095 C   0  0  0  0  0  0  0  0  0  0  0  0
    7.0353  -12.6565   21.4755 C   0  0  0  0  0  0  0  0  0  0  0  0
    6.6263  -13.9563   21.3770 C   0  0  0  0  0  0  0  0  0  0  0  0
    7.0389  -14.7074   20.2892 C   0  0  0  0  0  0  0  0  0  0  0  0
    6.6541  -17.3311   23.0583 C   0  0  0  0  0  0  0  0  0  0  0  0
    5.5163  -17.2608   23.5866 O   0  0  0  0  0  0  0  0  0  0  0  0
    5.9822  -22.5790   26.3831 O   0  0  0  0  0  0  0  0  0  0  0  0
    6.5994  -21.3355   26.3053 C   0  0  0  0  0  0  0  0  0  0  0  0
    7.6027  -21.0922   25.3895 C   0  0  0  0  0  0  0  0  0  0  0  0
    8.2229  -19.8403   25.3123 C   0  0  0  0  0  0  0  0  0  0  0  0
    7.8404  -18.8323   26.1500 C   0  0  0  0  0  0  0  0  0  0  0  0
    8.4585  -17.4839   26.1187 C   0  0  0  0  0  0  0  0  0  0  0  0
    7.6346  -16.5334   25.2430 C   0  0  2  0  0  0  0  0  0  0  0  0
    7.7677  -16.9772   23.8485 N   0  0  0  0  0  0  0  0  0  0  0  0
    8.2484  -15.1901   25.3981 C   0  0  0  0  0  0  0  0  0  0  0  0
    9.2287  -14.9260   24.6198 O   0  0  0  0  0  0  0  0  0  0  0  0
    6.8414  -19.0740   27.0621 C   0  0  0  0  0  0  0  0  0  0  0  0
    6.2168  -20.3242   27.1446 C   0  0  0  0  0  0  0  0  0  0  0  0
    7.8460  -14.2128   26.3074 N   0  0  0  0  0  0  0  0  0  0  0  0
    6.7509  -14.1716   27.2767 C   0  0  0  0  0  0  0  0  0  0  0  0
    6.4013  -12.7065   27.4367 C   0  0  0  0  0  0  0  0  0  0  0  0
    7.3045  -12.0097   26.4521 C   0  0  0  0  0  0  0  0  0  0  0  0
    8.5183  -12.9109   26.4550 C   0  0  1  0  0  0  0  0  0  0  0  0
    9.2358  -12.9359   27.7361 C   0  0  0  0  0  0  0  0  0  0  0  0
    9.2496  -13.9895   28.6363 O   0  0  0  0  0  0  0  0  0  0  0  0
    9.9069  -11.9051   28.0569 O   0  0  0  0  0  0  0  0  0  0  0  0
  2  1  1  1
  3  2  1  0
  4  5  2  0
  4  3  1  0
  6  5  1  0
  7 12  2  0
  7  6  1  0
  8  7  1  0
  9 10  1  0
  9  8  2  0
 10 11  2  0
 11 12  1  0
 12  4  1  0
 13 14  2  0
 13  2  1  0
 16 17  2  0
 16 15  1  0
 18 17  1  0
 19 18  2  0
 20 19  1  0
 21 20  1  1
 21 22  1  0
 22 13  1  0
 23 24  2  0
 23 21  1  0
 25 19  1  0
 25 26  2  0
 26 16  1  0
 27 23  1  0
 28 29  1  0
 28 27  1  0
 30 31  1  0
 30 29  1  0
 31 27  1  0
 31 32  1  1
 32 33  1  0
 34 32  2  0
M  END
$$$$
