YWR.pdb
     RDKit          3D

 38 40  0  0  1  0  0  0  0  0999 V2000
    6.8367  -14.4924   14.1315 O   0  0  0  0  0  0  0  0  0  0  0  0
    7.2480  -14.7853   15.4487 C   0  0  0  0  0  0  0  0  0  0  0  0
    7.4436  -13.7575   16.3469 C   0  0  0  0  0  0  0  0  0  0  0  0
    7.8485  -14.0411   17.6459 C   0  0  0  0  0  0  0  0  0  0  0  0
    8.0710  -15.3231   18.0970 C   0  0  0  0  0  0  0  0  0  0  0  0
    8.5007  -15.6447   19.4753 C   0  0  0  0  0  0  0  0  0  0  0  0
    8.5396  -14.4987   20.4180 C   0  0  2  0  0  0  0  0  0  0  0  0
    9.1860  -13.3295   19.8133 N   0  0  0  0  0  0  0  0  0  0  0  0
    9.0661  -14.7356   21.7545 C   0  0  0  0  0  0  0  0  0  0  0  0
   10.0722  -14.0514   22.1573 O   0  0  0  0  0  0  0  0  0  0  0  0
    7.8653  -16.3494   17.1661 C   0  0  0  0  0  0  0  0  0  0  0  0
    7.4621  -16.0716   15.8725 C   0  0  0  0  0  0  0  0  0  0  0  0
    8.5572  -15.6827   22.6992 N   0  0  0  0  0  0  0  0  0  0  0  0
    9.1785  -15.8890   23.9682 C   0  0  1  0  0  0  0  0  0  0  0  0
    8.1613  -16.0150   25.0883 C   0  0  0  0  0  0  0  0  0  0  0  0
    7.2511  -14.8734   25.1914 C   0  0  0  0  0  0  0  0  0  0  0  0
    5.9891  -14.7650   24.6469 C   0  0  0  0  0  0  0  0  0  0  0  0
    5.4552  -13.5681   24.9505 N   0  0  0  0  0  0  0  0  0  0  0  0
    6.3541  -12.8666   25.6995 C   0  0  0  0  0  0  0  0  0  0  0  0
    6.3163  -11.6117   26.2666 C   0  0  0  0  0  0  0  0  0  0  0  0
    7.3828  -11.1245   26.9988 C   0  0  0  0  0  0  0  0  0  0  0  0
    8.4756  -11.9358   27.1382 C   0  0  0  0  0  0  0  0  0  0  0  0
    8.5435  -13.1997   26.5808 C   0  0  0  0  0  0  0  0  0  0  0  0
    7.4791  -13.6853   25.8503 C   0  0  0  0  0  0  0  0  0  0  0  0
    9.9809  -17.1345   24.0228 C   0  0  0  0  0  0  0  0  0  0  0  0
    9.3782  -18.2323   24.0661 O   0  0  0  0  0  0  0  0  0  0  0  0
   16.3019  -14.0067   21.3770 N   0  0  0  0  0  0  0  0  0  0  0  0
   15.2875  -14.4321   20.4856 C   0  0  0  0  0  0  0  0  0  0  0  0
   15.2190  -13.8154   19.3482 N   0  0  0  0  0  0  0  0  0  0  0  0
   14.3756  -15.4630   20.7738 N   0  0  0  0  0  0  0  0  0  0  0  0
   14.5381  -16.2316   22.0477 C   0  0  0  0  0  0  0  0  0  0  0  0
   13.5557  -17.3254   22.1024 C   0  0  0  0  0  0  0  0  0  0  0  0
   13.4346  -18.1200   23.2985 C   0  0  0  0  0  0  0  0  0  0  0  0
   12.1786  -18.4146   24.0050 C   0  0  2  0  0  0  0  0  0  0  0  0
   11.3806  -17.1624   24.0284 N   0  0  0  0  0  0  0  0  0  0  0  0
   12.1647  -18.9343   25.3534 C   0  0  0  0  0  0  0  0  0  0  0  0
   12.5627  -20.1369   25.8690 O   0  0  0  0  0  0  0  0  0  0  0  0
   11.6887  -18.1415   26.2717 O   0  0  0  0  0  0  0  0  0  0  0  0
  2  1  1  0
  2 12  2  0
  3  2  1  0
  4  3  2  0
  4  5  1  0
  5 11  2  0
  6  7  1  0
  6  5  1  0
  7  8  1  6
  9  7  1  0
  9 13  1  0
 10  9  2  0
 11 12  1  0
 14 25  1  0
 14 13  1  0
 14 15  1  1
 16 15  1  0
 16 24  1  0
 17 18  1  0
 17 16  2  0
 18 19  1  0
 19 24  2  0
 19 20  1  0
 20 21  2  0
 21 22  1  0
 23 22  2  0
 24 23  1  0
 25 26  2  0
 27 28  1  0
 28 29  2  0
 30 28  1  0
 30 31  1  0
 32 33  1  0
 32 31  1  0
 34 33  1  1
 34 36  1  0
 35 34  1  0
 35 25  1  0
 36 37  1  0
 38 36  2  0
M  END
$$$$
