YWR.pdb
     RDKit          3D

 38 40  0  0  1  0  0  0  0  0999 V2000
    7.8277  -22.7836   15.0988 O   0  0  0  0  0  0  0  0  0  0  0  0
    8.1737  -21.9506   16.1835 C   0  0  0  0  0  0  0  0  0  0  0  0
    7.1895  -21.2463   16.8441 C   0  0  0  0  0  0  0  0  0  0  0  0
    7.5255  -20.4247   17.9136 C   0  0  0  0  0  0  0  0  0  0  0  0
    8.8187  -20.2708   18.3611 C   0  0  0  0  0  0  0  0  0  0  0  0
    9.1955  -19.4025   19.4977 C   0  0  0  0  0  0  0  0  0  0  0  0
    8.9813  -17.9482   19.2913 C   0  0  2  0  0  0  0  0  0  0  0  0
    9.6569  -17.4739   18.0792 N   0  0  0  0  0  0  0  0  0  0  0  0
    9.2558  -17.0554   20.4081 C   0  0  0  0  0  0  0  0  0  0  0  0
   10.4673  -16.8975   20.7954 O   0  0  0  0  0  0  0  0  0  0  0  0
    9.8002  -20.9966   17.6740 C   0  0  0  0  0  0  0  0  0  0  0  0
    9.4701  -21.8156   16.6094 C   0  0  0  0  0  0  0  0  0  0  0  0
    8.2805  -16.3073   21.1413 N   0  0  0  0  0  0  0  0  0  0  0  0
    8.6355  -15.5142   22.2745 C   0  0  1  0  0  0  0  0  0  0  0  0
    7.5025  -14.6027   22.7111 C   0  0  0  0  0  0  0  0  0  0  0  0
    7.8675  -13.6795   23.7867 C   0  0  0  0  0  0  0  0  0  0  0  0
    8.8943  -12.7594   23.7793 C   0  0  0  0  0  0  0  0  0  0  0  0
    8.9248  -12.0904   24.9460 N   0  0  0  0  0  0  0  0  0  0  0  0
    7.9200  -12.5564   25.7426 C   0  0  0  0  0  0  0  0  0  0  0  0
    7.5089  -12.2234   27.0146 C   0  0  0  0  0  0  0  0  0  0  0  0
    6.4348  -12.8586   27.6091 C   0  0  0  0  0  0  0  0  0  0  0  0
    5.7968  -13.8295   26.8863 C   0  0  0  0  0  0  0  0  0  0  0  0
    6.1860  -14.1861   25.6080 C   0  0  0  0  0  0  0  0  0  0  0  0
    7.2578  -13.5520   25.0153 C   0  0  0  0  0  0  0  0  0  0  0  0
    8.9682  -16.3284   23.4680 C   0  0  0  0  0  0  0  0  0  0  0  0
    8.1966  -17.2624   23.7884 O   0  0  0  0  0  0  0  0  0  0  0  0
   15.4923  -18.2252   20.9620 N   0  0  0  0  0  0  0  0  0  0  0  0
   14.4482  -18.9609   21.5728 C   0  0  0  0  0  0  0  0  0  0  0  0
   13.6624  -19.6195   20.7805 N   0  0  0  0  0  0  0  0  0  0  0  0
   14.2313  -19.0045   22.9615 N   0  0  0  0  0  0  0  0  0  0  0  0
   12.8512  -19.2897   23.4652 C   0  0  0  0  0  0  0  0  0  0  0  0
   12.1323  -18.0277   23.7004 C   0  0  0  0  0  0  0  0  0  0  0  0
   11.7330  -17.6695   25.0379 C   0  0  0  0  0  0  0  0  0  0  0  0
   10.4776  -16.9958   25.4032 C   0  0  2  0  0  0  0  0  0  0  0  0
   10.0993  -16.1191   24.2658 N   0  0  0  0  0  0  0  0  0  0  0  0
   10.3628  -16.1899   26.5973 C   0  0  0  0  0  0  0  0  0  0  0  0
   10.1854  -14.8453   26.7737 O   0  0  0  0  0  0  0  0  0  0  0  0
   10.4425  -16.8261   27.7318 O   0  0  0  0  0  0  0  0  0  0  0  0
  2  1  1  0
  2 12  2  0
  3  2  1  0
  4  3  2  0
  4  5  1  0
  5 11  2  0
  6  7  1  0
  6  5  1  0
  7  8  1  6
  9  7  1  0
  9 13  1  0
 10  9  2  0
 11 12  1  0
 14 25  1  0
 14 13  1  0
 14 15  1  1
 16 15  1  0
 16 24  1  0
 17 18  1  0
 17 16  2  0
 18 19  1  0
 19 24  2  0
 19 20  1  0
 20 21  2  0
 21 22  1  0
 23 22  2  0
 24 23  1  0
 25 26  2  0
 27 28  1  0
 28 29  2  0
 30 28  1  0
 30 31  1  0
 32 33  1  0
 32 31  1  0
 34 33  1  6
 34 36  1  0
 35 34  1  0
 35 25  1  0
 36 37  1  0
 38 36  2  0
M  END
$$$$
