YWR.pdb
     RDKit          3D

 38 40  0  0  1  0  0  0  0  0999 V2000
    6.9229  -13.8100   15.5024 O   0  0  0  0  0  0  0  0  0  0  0  0
    7.3269  -13.8898   16.8517 C   0  0  0  0  0  0  0  0  0  0  0  0
    7.7810  -15.0891   17.3582 C   0  0  0  0  0  0  0  0  0  0  0  0
    8.1805  -15.1725   18.6868 C   0  0  0  0  0  0  0  0  0  0  0  0
    8.1469  -14.0975   19.5469 C   0  0  0  0  0  0  0  0  0  0  0  0
    8.5688  -14.1664   20.9629 C   0  0  0  0  0  0  0  0  0  0  0  0
    8.9061  -15.5217   21.4656 C   0  0  2  0  0  0  0  0  0  0  0  0
    7.8639  -16.4949   21.1230 N   0  0  0  0  0  0  0  0  0  0  0  0
    9.2832  -15.6531   22.8656 C   0  0  0  0  0  0  0  0  0  0  0  0
   10.2922  -14.9947   23.3027 O   0  0  0  0  0  0  0  0  0  0  0  0
    7.6820  -12.8907   19.0086 C   0  0  0  0  0  0  0  0  0  0  0  0
    7.2838  -12.8033   17.6870 C   0  0  0  0  0  0  0  0  0  0  0  0
    8.6194  -16.4659   23.8389 N   0  0  0  0  0  0  0  0  0  0  0  0
    9.1036  -16.5854   25.1769 C   0  0  1  0  0  0  0  0  0  0  0  0
    7.9868  -16.4790   26.2000 C   0  0  0  0  0  0  0  0  0  0  0  0
    7.1992  -15.2503   26.0897 C   0  0  0  0  0  0  0  0  0  0  0  0
    5.8830  -15.1395   25.6946 C   0  0  0  0  0  0  0  0  0  0  0  0
    5.5008  -13.8499   25.7140 N   0  0  0  0  0  0  0  0  0  0  0  0
    6.5565  -13.0879   26.1217 C   0  0  0  0  0  0  0  0  0  0  0  0
    6.7074  -11.7323   26.3154 C   0  0  0  0  0  0  0  0  0  0  0  0
    7.9080  -11.2000   26.7466 C   0  0  0  0  0  0  0  0  0  0  0  0
    8.9391  -12.0705   26.9731 C   0  0  0  0  0  0  0  0  0  0  0  0
    8.8185  -13.4356   26.7875 C   0  0  0  0  0  0  0  0  0  0  0  0
    7.6204  -13.9662   26.3572 C   0  0  0  0  0  0  0  0  0  0  0  0
    9.7565  -17.8902   25.4406 C   0  0  0  0  0  0  0  0  0  0  0  0
    9.0625  -18.9311   25.3687 O   0  0  0  0  0  0  0  0  0  0  0  0
   17.7068  -20.3291   22.7127 N   0  0  0  0  0  0  0  0  0  0  0  0
   17.1476  -21.4744   23.3292 C   0  0  0  0  0  0  0  0  0  0  0  0
   17.8247  -22.5748   23.2311 N   0  0  0  0  0  0  0  0  0  0  0  0
   15.9233  -21.4706   24.0210 N   0  0  0  0  0  0  0  0  0  0  0  0
   15.1312  -20.2020   24.0738 C   0  0  0  0  0  0  0  0  0  0  0  0
   13.9406  -20.3887   24.9178 C   0  0  0  0  0  0  0  0  0  0  0  0
   13.0000  -19.3089   25.0783 C   0  0  0  0  0  0  0  0  0  0  0  0
   11.7867  -19.3490   25.9088 C   0  0  2  0  0  0  0  0  0  0  0  0
   11.1102  -18.0345   25.7666 N   0  0  0  0  0  0  0  0  0  0  0  0
   11.8396  -19.6312   27.3251 C   0  0  0  0  0  0  0  0  0  0  0  0
   12.0543  -20.7933   28.0137 O   0  0  0  0  0  0  0  0  0  0  0  0
   11.6482  -18.6182   28.1221 O   0  0  0  0  0  0  0  0  0  0  0  0
  2  1  1  0
  2 12  2  0
  3  2  1  0
  4  3  2  0
  4  5  1  0
  5 11  2  0
  6  7  1  0
  6  5  1  0
  7  8  1  1
  9  7  1  0
  9 13  1  0
 10  9  2  0
 11 12  1  0
 14 25  1  0
 14 13  1  0
 14 15  1  1
 16 15  1  0
 16 24  1  0
 17 18  1  0
 17 16  2  0
 18 19  1  0
 19 24  2  0
 19 20  1  0
 20 21  2  0
 21 22  1  0
 23 22  2  0
 24 23  1  0
 25 26  2  0
 27 28  1  0
 28 29  2  0
 30 28  1  0
 30 31  1  0
 32 33  1  0
 32 31  1  0
 34 33  1  1
 34 36  1  0
 35 34  1  0
 35 25  1  0
 36 37  1  0
 38 36  2  0
M  END
$$$$
