YWR.pdb
     RDKit          3D

 38 40  0  0  1  0  0  0  0  0999 V2000
    6.7679  -13.7920   14.8156 O   0  0  0  0  0  0  0  0  0  0  0  0
    7.1592  -14.2333   16.0970 C   0  0  0  0  0  0  0  0  0  0  0  0
    7.6678  -13.3284   17.0046 C   0  0  0  0  0  0  0  0  0  0  0  0
    8.0543  -13.7584   18.2684 C   0  0  0  0  0  0  0  0  0  0  0  0
    7.9554  -15.0704   18.6749 C   0  0  0  0  0  0  0  0  0  0  0  0
    8.3602  -15.5466   20.0154 C   0  0  0  0  0  0  0  0  0  0  0  0
    8.7495  -14.4882   20.9806 C   0  0  2  0  0  0  0  0  0  0  0  0
    9.6864  -13.5335   20.3796 N   0  0  0  0  0  0  0  0  0  0  0  0
    9.2216  -14.9055   22.2931 C   0  0  0  0  0  0  0  0  0  0  0  0
   10.4447  -14.6926   22.6112 O   0  0  0  0  0  0  0  0  0  0  0  0
    7.4357  -15.9701   17.7353 C   0  0  0  0  0  0  0  0  0  0  0  0
    7.0496  -15.5463   16.4766 C   0  0  0  0  0  0  0  0  0  0  0  0
    8.4339  -15.5472   23.3012 N   0  0  0  0  0  0  0  0  0  0  0  0
    8.9770  -15.8905   24.5764 C   0  0  1  0  0  0  0  0  0  0  0  0
    7.9002  -16.0256   25.6382 C   0  0  0  0  0  0  0  0  0  0  0  0
    6.9968  -14.8764   25.7134 C   0  0  0  0  0  0  0  0  0  0  0  0
    5.6728  -14.8338   25.3313 C   0  0  0  0  0  0  0  0  0  0  0  0
    5.1680  -13.6057   25.5466 N   0  0  0  0  0  0  0  0  0  0  0  0
    6.1486  -12.8172   26.0740 C   0  0  0  0  0  0  0  0  0  0  0  0
    6.1696  -11.4995   26.4754 C   0  0  0  0  0  0  0  0  0  0  0  0
    7.3167  -10.9265   26.9916 C   0  0  0  0  0  0  0  0  0  0  0  0
    8.4288  -11.7176   27.0881 C   0  0  0  0  0  0  0  0  0  0  0  0
    8.4391  -13.0431   26.6935 C   0  0  0  0  0  0  0  0  0  0  0  0
    7.2942  -13.6143   26.1785 C   0  0  0  0  0  0  0  0  0  0  0  0
    9.6891  -17.1910   24.5698 C   0  0  0  0  0  0  0  0  0  0  0  0
    9.0731  -18.2116   24.9561 O   0  0  0  0  0  0  0  0  0  0  0  0
   16.5301  -22.0200   22.3041 N   0  0  0  0  0  0  0  0  0  0  0  0
   15.4619  -22.0428   21.3751 C   0  0  0  0  0  0  0  0  0  0  0  0
   15.6705  -22.6811   20.2670 N   0  0  0  0  0  0  0  0  0  0  0  0
   14.2213  -21.4184   21.5951 N   0  0  0  0  0  0  0  0  0  0  0  0
   14.1783  -19.9275   21.7178 C   0  0  0  0  0  0  0  0  0  0  0  0
   13.9087  -19.5466   23.1131 C   0  0  0  0  0  0  0  0  0  0  0  0
   12.9615  -18.4989   23.3992 C   0  0  0  0  0  0  0  0  0  0  0  0
   11.7442  -18.6460   24.2115 C   0  0  2  0  0  0  0  0  0  0  0  0
   11.0165  -17.3527   24.1554 N   0  0  0  0  0  0  0  0  0  0  0  0
   11.7970  -19.0260   25.6048 C   0  0  0  0  0  0  0  0  0  0  0  0
   11.9096  -18.2821   26.7469 O   0  0  0  0  0  0  0  0  0  0  0  0
   11.7324  -20.3029   25.8567 O   0  0  0  0  0  0  0  0  0  0  0  0
  2  1  1  0
  2 12  2  0
  3  2  1  0
  4  3  2  0
  4  5  1  0
  5 11  2  0
  6  7  1  0
  6  5  1  0
  7  8  1  6
  9  7  1  0
  9 13  1  0
 10  9  2  0
 11 12  1  0
 14 25  1  0
 14 13  1  0
 14 15  1  1
 16 15  1  0
 16 24  1  0
 17 18  1  0
 17 16  2  0
 18 19  1  0
 19 24  2  0
 19 20  1  0
 20 21  2  0
 21 22  1  0
 23 22  2  0
 24 23  1  0
 25 26  2  0
 27 28  1  0
 28 29  2  0
 30 28  1  0
 30 31  1  0
 32 33  1  0
 32 31  1  0
 34 33  1  1
 34 36  1  0
 35 34  1  0
 35 25  1  0
 36 37  1  0
 38 36  2  0
M  END
$$$$
