YWR.pdb
     RDKit          3D

 38 40  0  0  1  0  0  0  0  0999 V2000
    7.5583  -13.8931   15.9984 O   0  0  0  0  0  0  0  0  0  0  0  0
    7.8181  -13.9561   17.3835 C   0  0  0  0  0  0  0  0  0  0  0  0
    9.1046  -14.1788   17.8270 C   0  0  0  0  0  0  0  0  0  0  0  0
    9.3655  -14.2414   19.1907 C   0  0  0  0  0  0  0  0  0  0  0  0
    8.3865  -14.0900   20.1474 C   0  0  0  0  0  0  0  0  0  0  0  0
    8.6449  -14.1521   21.6024 C   0  0  0  0  0  0  0  0  0  0  0  0
    9.1889  -15.4397   22.1020 C   0  0  2  0  0  0  0  0  0  0  0  0
    8.3460  -16.5699   21.6986 N   0  0  0  0  0  0  0  0  0  0  0  0
    9.5221  -15.5339   23.5161 C   0  0  0  0  0  0  0  0  0  0  0  0
   10.3325  -14.6800   24.0227 O   0  0  0  0  0  0  0  0  0  0  0  0
    7.0883  -13.8647   19.6717 C   0  0  0  0  0  0  0  0  0  0  0  0
    6.8244  -13.8015   18.3155 C   0  0  0  0  0  0  0  0  0  0  0  0
    9.0188  -16.5121   24.4316 N   0  0  0  0  0  0  0  0  0  0  0  0
    9.4502  -16.5631   25.7919 C   0  0  1  0  0  0  0  0  0  0  0  0
    8.2965  -16.3911   26.7638 C   0  0  0  0  0  0  0  0  0  0  0  0
    7.3184  -15.3848   26.3480 C   0  0  0  0  0  0  0  0  0  0  0  0
    6.1090  -15.6089   25.7251 C   0  0  0  0  0  0  0  0  0  0  0  0
    5.4830  -14.4406   25.4954 N   0  0  0  0  0  0  0  0  0  0  0  0
    6.2671  -13.4263   25.9620 C   0  0  0  0  0  0  0  0  0  0  0  0
    6.1062  -12.0582   25.9828 C   0  0  0  0  0  0  0  0  0  0  0  0
    7.0703  -11.2322   26.5296 C   0  0  0  0  0  0  0  0  0  0  0  0
    8.1888  -11.8252   27.0486 C   0  0  0  0  0  0  0  0  0  0  0  0
    8.3791  -13.1951   27.0422 C   0  0  0  0  0  0  0  0  0  0  0  0
    7.4169  -14.0188   26.4965 C   0  0  0  0  0  0  0  0  0  0  0  0
   10.0779  -17.8575   26.1506 C   0  0  0  0  0  0  0  0  0  0  0  0
   10.4437  -18.0362   27.3358 O   0  0  0  0  0  0  0  0  0  0  0  0
   16.6791  -17.7255   21.3411 N   0  0  0  0  0  0  0  0  0  0  0  0
   16.0152  -18.8872   20.8780 C   0  0  0  0  0  0  0  0  0  0  0  0
   16.7267  -19.7291   20.1969 N   0  0  0  0  0  0  0  0  0  0  0  0
   14.6559  -19.1578   21.1157 N   0  0  0  0  0  0  0  0  0  0  0  0
   13.8929  -18.2553   22.0338 C   0  0  0  0  0  0  0  0  0  0  0  0
   13.4869  -18.9936   23.2399 C   0  0  0  0  0  0  0  0  0  0  0  0
   12.1549  -18.8306   23.7650 C   0  0  0  0  0  0  0  0  0  0  0  0
   11.6224  -19.4939   24.9649 C   0  0  2  0  0  0  0  0  0  0  0  0
   10.2891  -18.9016   25.2423 N   0  0  0  0  0  0  0  0  0  0  0  0
   12.3396  -19.4936   26.2196 C   0  0  0  0  0  0  0  0  0  0  0  0
   13.1967  -20.4016   26.7776 O   0  0  0  0  0  0  0  0  0  0  0  0
   12.1574  -18.4565   26.9873 O   0  0  0  0  0  0  0  0  0  0  0  0
  2  1  1  0
  2 12  2  0
  3  2  1  0
  4  3  2  0
  4  5  1  0
  5 11  2  0
  6  7  1  0
  6  5  1  0
  7  8  1  1
  9  7  1  0
  9 13  1  0
 10  9  2  0
 11 12  1  0
 14 25  1  0
 14 13  1  0
 14 15  1  1
 16 15  1  0
 16 24  1  0
 17 18  1  0
 17 16  2  0
 18 19  1  0
 19 24  2  0
 19 20  1  0
 20 21  2  0
 21 22  1  0
 23 22  2  0
 24 23  1  0
 25 26  2  0
 27 28  1  0
 28 29  2  0
 30 28  1  0
 30 31  1  0
 32 33  1  0
 32 31  1  0
 34 33  1  6
 34 36  1  0
 35 34  1  0
 35 25  1  0
 36 37  1  0
 38 36  2  0
M  END
$$$$
