YWR.pdb
     RDKit          3D

 38 40  0  0  1  0  0  0  0  0999 V2000
    7.0770  -13.3793   15.2373 O   0  0  0  0  0  0  0  0  0  0  0  0
    7.4443  -13.5211   16.5920 C   0  0  0  0  0  0  0  0  0  0  0  0
    6.9903  -12.6091   17.5212 C   0  0  0  0  0  0  0  0  0  0  0  0
    7.3492  -12.7449   18.8570 C   0  0  0  0  0  0  0  0  0  0  0  0
    8.1531  -13.7646   19.3156 C   0  0  0  0  0  0  0  0  0  0  0  0
    8.5446  -13.9264   20.7327 C   0  0  0  0  0  0  0  0  0  0  0  0
    8.8376  -15.3169   21.1617 C   0  0  2  0  0  0  0  0  0  0  0  0
    7.7275  -16.2207   20.8436 N   0  0  0  0  0  0  0  0  0  0  0  0
    9.2862  -15.5256   22.5310 C   0  0  0  0  0  0  0  0  0  0  0  0
   10.3418  -14.9238   22.9386 O   0  0  0  0  0  0  0  0  0  0  0  0
    8.6011  -14.6781   18.3527 C   0  0  0  0  0  0  0  0  0  0  0  0
    8.2461  -14.5468   17.0224 C   0  0  0  0  0  0  0  0  0  0  0  0
    8.6470  -16.3585   23.5037 N   0  0  0  0  0  0  0  0  0  0  0  0
    9.1895  -16.5414   24.8119 C   0  0  1  0  0  0  0  0  0  0  0  0
    8.1134  -16.5325   25.8828 C   0  0  0  0  0  0  0  0  0  0  0  0
    7.2993  -15.3161   25.8927 C   0  0  0  0  0  0  0  0  0  0  0  0
    5.9906  -15.1886   25.4782 C   0  0  0  0  0  0  0  0  0  0  0  0
    5.5771  -13.9181   25.6345 N   0  0  0  0  0  0  0  0  0  0  0  0
    6.6042  -13.1858   26.1541 C   0  0  0  0  0  0  0  0  0  0  0  0
    6.7179  -11.8584   26.5052 C   0  0  0  0  0  0  0  0  0  0  0  0
    7.8947  -11.3538   27.0258 C   0  0  0  0  0  0  0  0  0  0  0  0
    8.9407  -12.2225   27.1787 C   0  0  0  0  0  0  0  0  0  0  0  0
    8.8575  -13.5596   26.8354 C   0  0  0  0  0  0  0  0  0  0  0  0
    7.6830  -14.0626   26.3159 C   0  0  0  0  0  0  0  0  0  0  0  0
    9.8920  -17.8374   24.9699 C   0  0  0  0  0  0  0  0  0  0  0  0
    9.2544  -18.8935   24.7497 O   0  0  0  0  0  0  0  0  0  0  0  0
   14.2851  -18.8597   19.6145 N   0  0  0  0  0  0  0  0  0  0  0  0
   14.7424  -19.9067   20.4508 C   0  0  0  0  0  0  0  0  0  0  0  0
   15.0921  -21.0074   19.8633 N   0  0  0  0  0  0  0  0  0  0  0  0
   14.8284  -19.8078   21.8508 N   0  0  0  0  0  0  0  0  0  0  0  0
   13.6403  -20.1967   22.6735 C   0  0  0  0  0  0  0  0  0  0  0  0
   13.9601  -20.0770   24.1046 C   0  0  0  0  0  0  0  0  0  0  0  0
   13.2761  -19.0987   24.9120 C   0  0  0  0  0  0  0  0  0  0  0  0
   11.9351  -19.2585   25.4945 C   0  0  2  0  0  0  0  0  0  0  0  0
   11.2334  -17.9574   25.3519 N   0  0  0  0  0  0  0  0  0  0  0  0
   11.7423  -19.6799   26.8634 C   0  0  0  0  0  0  0  0  0  0  0  0
   11.8304  -20.9084   27.4580 O   0  0  0  0  0  0  0  0  0  0  0  0
   11.4207  -18.7463   27.7138 O   0  0  0  0  0  0  0  0  0  0  0  0
  2  1  1  0
  2 12  2  0
  3  2  1  0
  4  3  2  0
  4  5  1  0
  5 11  2  0
  6  7  1  0
  6  5  1  0
  7  8  1  1
  9  7  1  0
  9 13  1  0
 10  9  2  0
 11 12  1  0
 14 25  1  0
 14 13  1  0
 14 15  1  1
 16 15  1  0
 16 24  1  0
 17 18  1  0
 17 16  2  0
 18 19  1  0
 19 24  2  0
 19 20  1  0
 20 21  2  0
 21 22  1  0
 23 22  2  0
 24 23  1  0
 25 26  2  0
 27 28  1  0
 28 29  2  0
 30 28  1  0
 30 31  1  0
 32 33  1  0
 32 31  1  0
 34 33  1  1
 34 36  1  0
 35 34  1  0
 35 25  1  0
 36 37  1  0
 38 36  2  0
M  END
$$$$
