YWR.pdb
     RDKit          3D

 38 40  0  0  1  0  0  0  0  0999 V2000
    9.3626  -21.3563   14.5222 O   0  0  0  0  0  0  0  0  0  0  0  0
    9.4994  -20.5893   15.6984 C   0  0  0  0  0  0  0  0  0  0  0  0
   10.0982  -19.3487   15.6382 C   0  0  0  0  0  0  0  0  0  0  0  0
   10.2349  -18.5893   16.7942 C   0  0  0  0  0  0  0  0  0  0  0  0
    9.7951  -19.0176   18.0269 C   0  0  0  0  0  0  0  0  0  0  0  0
    9.9305  -18.2236   19.2674 C   0  0  0  0  0  0  0  0  0  0  0  0
    9.3055  -16.8775   19.2379 C   0  0  2  0  0  0  0  0  0  0  0  0
    9.8855  -16.0407   18.1824 N   0  0  0  0  0  0  0  0  0  0  0  0
    9.2280  -16.1364   20.4886 C   0  0  0  0  0  0  0  0  0  0  0  0
   10.2568  -15.4873   20.8921 O   0  0  0  0  0  0  0  0  0  0  0  0
    9.1903  -20.2807   18.0618 C   0  0  0  0  0  0  0  0  0  0  0  0
    9.0520  -21.0395   16.9138 C   0  0  0  0  0  0  0  0  0  0  0  0
    8.0821  -16.0513   21.3419 N   0  0  0  0  0  0  0  0  0  0  0  0
    8.1810  -15.6005   22.6932 C   0  0  1  0  0  0  0  0  0  0  0  0
    6.8380  -15.6191   23.4012 C   0  0  0  0  0  0  0  0  0  0  0  0
    6.8849  -15.1063   24.7713 C   0  0  0  0  0  0  0  0  0  0  0  0
    6.8479  -15.8430   25.9361 C   0  0  0  0  0  0  0  0  0  0  0  0
    6.9096  -15.0259   27.0029 N   0  0  0  0  0  0  0  0  0  0  0  0
    6.9883  -13.7373   26.5616 C   0  0  0  0  0  0  0  0  0  0  0  0
    7.0738  -12.5304   27.2203 C   0  0  0  0  0  0  0  0  0  0  0  0
    7.1472  -11.3384   26.5242 C   0  0  0  0  0  0  0  0  0  0  0  0
    7.1317  -11.4038   25.1576 C   0  0  0  0  0  0  0  0  0  0  0  0
    7.0464  -12.5995   24.4680 C   0  0  0  0  0  0  0  0  0  0  0  0
    6.9732  -13.7886   25.1631 C   0  0  0  0  0  0  0  0  0  0  0  0
    9.0742  -16.4467   23.5204 C   0  0  0  0  0  0  0  0  0  0  0  0
    9.0099  -17.6912   23.3881 O   0  0  0  0  0  0  0  0  0  0  0  0
   16.4396  -14.3696   21.8660 N   0  0  0  0  0  0  0  0  0  0  0  0
   15.3039  -14.6291   21.0612 C   0  0  0  0  0  0  0  0  0  0  0  0
   15.4179  -14.3705   19.7967 N   0  0  0  0  0  0  0  0  0  0  0  0
   14.0918  -15.1378   21.5606 N   0  0  0  0  0  0  0  0  0  0  0  0
   14.0069  -15.5009   23.0099 C   0  0  0  0  0  0  0  0  0  0  0  0
   12.6563  -15.9911   23.3261 C   0  0  0  0  0  0  0  0  0  0  0  0
   12.3256  -16.3560   24.6804 C   0  0  0  0  0  0  0  0  0  0  0  0
   10.9973  -16.7763   25.1520 C   0  0  2  0  0  0  0  0  0  0  0  0
    9.9930  -15.9397   24.4470 N   0  0  0  0  0  0  0  0  0  0  0  0
   10.6408  -16.7512   26.5523 C   0  0  0  0  0  0  0  0  0  0  0  0
    9.6667  -16.0722   27.2309 O   0  0  0  0  0  0  0  0  0  0  0  0
   11.3600  -17.4963   27.3434 O   0  0  0  0  0  0  0  0  0  0  0  0
  2  1  1  0
  2 12  2  0
  3  2  1  0
  4  3  2  0
  4  5  1  0
  5 11  2  0
  6  7  1  0
  6  5  1  0
  7  8  1  6
  9  7  1  0
  9 13  1  0
 10  9  2  0
 11 12  1  0
 14 25  1  0
 14 13  1  0
 14 15  1  1
 16 15  1  0
 16 24  1  0
 17 18  1  0
 17 16  2  0
 18 19  1  0
 19 24  2  0
 19 20  1  0
 20 21  2  0
 21 22  1  0
 23 22  2  0
 24 23  1  0
 25 26  2  0
 27 28  1  0
 28 29  2  0
 30 28  1  0
 30 31  1  0
 32 33  1  0
 32 31  1  0
 34 33  1  1
 34 36  1  0
 35 34  1  0
 35 25  1  0
 36 37  1  0
 38 36  2  0
M  END
$$$$
