YWR.pdb
     RDKit          3D

 38 40  0  0  1  0  0  0  0  0999 V2000
    7.0781  -15.3217   13.3329 O   0  0  0  0  0  0  0  0  0  0  0  0
    7.4296  -15.6054   14.6693 C   0  0  0  0  0  0  0  0  0  0  0  0
    8.3070  -14.7756   15.3349 C   0  0  0  0  0  0  0  0  0  0  0  0
    8.6561  -15.0508   16.6517 C   0  0  0  0  0  0  0  0  0  0  0  0
    8.1625  -16.1329   17.3460 C   0  0  0  0  0  0  0  0  0  0  0  0
    8.5211  -16.4412   18.7474 C   0  0  0  0  0  0  0  0  0  0  0  0
    9.4624  -15.4913   19.3916 C   0  0  2  0  0  0  0  0  0  0  0  0
   10.8184  -15.6312   18.8509 N   0  0  0  0  0  0  0  0  0  0  0  0
    9.4975  -15.4506   20.8465 C   0  0  0  0  0  0  0  0  0  0  0  0
   10.4725  -16.0108   21.4614 O   0  0  0  0  0  0  0  0  0  0  0  0
    7.2732  -16.9603   16.6483 C   0  0  0  0  0  0  0  0  0  0  0  0
    6.9230  -16.6900   15.3379 C   0  0  0  0  0  0  0  0  0  0  0  0
    8.5251  -14.8254   21.6904 N   0  0  0  0  0  0  0  0  0  0  0  0
    8.6875  -14.7615   23.1076 C   0  0  1  0  0  0  0  0  0  0  0  0
    7.6909  -13.8163   23.7546 C   0  0  0  0  0  0  0  0  0  0  0  0
    7.8344  -13.7098   25.2073 C   0  0  0  0  0  0  0  0  0  0  0  0
    8.6002  -14.5108   26.0276 C   0  0  0  0  0  0  0  0  0  0  0  0
    8.4808  -14.1118   27.3067 N   0  0  0  0  0  0  0  0  0  0  0  0
    7.6355  -13.0420   27.3530 C   0  0  0  0  0  0  0  0  0  0  0  0
    7.1772  -12.2608   28.3912 C   0  0  0  0  0  0  0  0  0  0  0  0
    6.3083  -11.2094   28.1666 C   0  0  0  0  0  0  0  0  0  0  0  0
    5.9217  -10.9751   26.8752 C   0  0  0  0  0  0  0  0  0  0  0  0
    6.3641  -11.7416   25.8124 C   0  0  0  0  0  0  0  0  0  0  0  0
    7.2310  -12.7905   26.0371 C   0  0  0  0  0  0  0  0  0  0  0  0
    8.4783  -16.0700   23.7726 C   0  0  0  0  0  0  0  0  0  0  0  0
    7.3807  -16.6531   23.6124 O   0  0  0  0  0  0  0  0  0  0  0  0
    9.7989  -18.9524   19.6012 N   0  0  0  0  0  0  0  0  0  0  0  0
   10.9026  -19.7183   20.0485 C   0  0  0  0  0  0  0  0  0  0  0  0
   11.9527  -19.7204   19.2893 N   0  0  0  0  0  0  0  0  0  0  0  0
   10.9076  -20.4578   21.2445 N   0  0  0  0  0  0  0  0  0  0  0  0
    9.7298  -20.3500   22.1615 C   0  0  0  0  0  0  0  0  0  0  0  0
    9.7572  -19.0574   22.8636 C   0  0  0  0  0  0  0  0  0  0  0  0
    9.8787  -19.0246   24.2992 C   0  0  0  0  0  0  0  0  0  0  0  0
    9.2441  -18.0395   25.1881 C   0  0  2  0  0  0  0  0  0  0  0  0
    9.4371  -16.7012   24.5740 N   0  0  0  0  0  0  0  0  0  0  0  0
    9.6203  -17.9106   26.5775 C   0  0  0  0  0  0  0  0  0  0  0  0
    9.2732  -18.6344   27.6848 O   0  0  0  0  0  0  0  0  0  0  0  0
   10.4345  -16.9348   26.8659 O   0  0  0  0  0  0  0  0  0  0  0  0
  2  1  1  0
  2 12  2  0
  3  2  1  0
  4  3  2  0
  4  5  1  0
  5 11  2  0
  6  7  1  0
  6  5  1  0
  7  8  1  1
  9  7  1  0
  9 13  1  0
 10  9  2  0
 11 12  1  0
 14 25  1  0
 14 13  1  0
 14 15  1  1
 16 15  1  0
 16 24  1  0
 17 18  1  0
 17 16  2  0
 18 19  1  0
 19 24  2  0
 19 20  1  0
 20 21  2  0
 21 22  1  0
 23 22  2  0
 24 23  1  0
 25 26  2  0
 27 28  1  0
 28 29  2  0
 30 28  1  0
 30 31  1  0
 32 33  1  0
 32 31  1  0
 34 33  1  6
 34 36  1  0
 35 34  1  0
 35 25  1  0
 36 37  1  0
 38 36  2  0
M  END
$$$$
