YWR.pdb
     RDKit          3D

 38 40  0  0  1  0  0  0  0  0999 V2000
    8.7412  -22.0881   16.2449 O   0  0  0  0  0  0  0  0  0  0  0  0
    9.1327  -21.3429   17.3769 C   0  0  0  0  0  0  0  0  0  0  0  0
   10.4675  -21.0640   17.5820 C   0  0  0  0  0  0  0  0  0  0  0  0
   10.8580  -20.3299   18.6956 C   0  0  0  0  0  0  0  0  0  0  0  0
    9.9642  -19.8539   19.6289 C   0  0  0  0  0  0  0  0  0  0  0  0
   10.3604  -19.0702   20.8190 C   0  0  0  0  0  0  0  0  0  0  0  0
   10.6124  -17.6269   20.5809 C   0  0  2  0  0  0  0  0  0  0  0  0
   11.8480  -17.4174   19.8193 N   0  0  0  0  0  0  0  0  0  0  0  0
   10.5637  -16.7302   21.7268 C   0  0  0  0  0  0  0  0  0  0  0  0
   11.6126  -16.5860   22.4491 O   0  0  0  0  0  0  0  0  0  0  0  0
    8.6146  -20.1500   19.3981 C   0  0  0  0  0  0  0  0  0  0  0  0
    8.2216  -20.8801   18.2911 C   0  0  0  0  0  0  0  0  0  0  0  0
    9.4288  -15.9638   22.1427 N   0  0  0  0  0  0  0  0  0  0  0  0
    9.2419  -15.5722   23.5032 C   0  0  1  0  0  0  0  0  0  0  0  0
    7.8757  -14.9525   23.7366 C   0  0  0  0  0  0  0  0  0  0  0  0
    7.6691  -14.4752   25.1048 C   0  0  0  0  0  0  0  0  0  0  0  0
    6.4644  -14.1959   25.7144 C   0  0  0  0  0  0  0  0  0  0  0  0
    6.6701  -13.7771   26.9761 N   0  0  0  0  0  0  0  0  0  0  0  0
    8.0123  -13.7727   27.2210 C   0  0  0  0  0  0  0  0  0  0  0  0
    8.7555  -13.4396   28.3321 C   0  0  0  0  0  0  0  0  0  0  0  0
   10.1350  -13.5273   28.3232 C   0  0  0  0  0  0  0  0  0  0  0  0
   10.7326  -13.9571   27.1699 C   0  0  0  0  0  0  0  0  0  0  0  0
   10.0139  -14.2983   26.0386 C   0  0  0  0  0  0  0  0  0  0  0  0
    8.6375  -14.2106   26.0480 C   0  0  0  0  0  0  0  0  0  0  0  0
    9.3247  -16.7112   24.4487 C   0  0  0  0  0  0  0  0  0  0  0  0
    8.6268  -17.7272   24.2229 O   0  0  0  0  0  0  0  0  0  0  0  0
   15.6439  -20.9867   27.7188 N   0  0  0  0  0  0  0  0  0  0  0  0
   15.2206  -19.7390   28.2371 C   0  0  0  0  0  0  0  0  0  0  0  0
   15.7445  -19.3712   29.3637 N   0  0  0  0  0  0  0  0  0  0  0  0
   14.2813  -18.9070   27.6024 N   0  0  0  0  0  0  0  0  0  0  0  0
   13.6480  -19.3769   26.3305 C   0  0  0  0  0  0  0  0  0  0  0  0
   12.5565  -18.4675   25.9478 C   0  0  0  0  0  0  0  0  0  0  0  0
   11.5363  -18.1293   26.9077 C   0  0  0  0  0  0  0  0  0  0  0  0
   10.1341  -17.8185   26.5906 C   0  0  2  0  0  0  0  0  0  0  0  0
   10.1402  -16.7243   25.5865 N   0  0  0  0  0  0  0  0  0  0  0  0
    9.1877  -17.4317   27.6120 C   0  0  0  0  0  0  0  0  0  0  0  0
    8.4100  -16.3159   27.7559 O   0  0  0  0  0  0  0  0  0  0  0  0
    9.0225  -18.2734   28.5930 O   0  0  0  0  0  0  0  0  0  0  0  0
  2  1  1  0
  2 12  2  0
  3  2  1  0
  4  3  2  0
  4  5  1  0
  5 11  2  0
  6  7  1  0
  6  5  1  0
  7  8  1  1
  9  7  1  0
  9 13  1  0
 10  9  2  0
 11 12  1  0
 14 25  1  0
 14 13  1  0
 14 15  1  6
 16 15  1  0
 16 24  1  0
 17 18  1  0
 17 16  2  0
 18 19  1  0
 19 24  2  0
 19 20  1  0
 20 21  2  0
 21 22  1  0
 23 22  2  0
 24 23  1  0
 25 26  2  0
 27 28  1  0
 28 29  2  0
 30 28  1  0
 30 31  1  0
 32 33  1  0
 32 31  1  0
 34 33  1  1
 34 36  1  0
 35 34  1  0
 35 25  1  0
 36 37  1  0
 38 36  2  0
M  END
$$$$
