YWR.pdb
     RDKit          3D

 38 40  0  0  1  0  0  0  0  0999 V2000
    7.7642  -13.8178   13.1887 O   0  0  0  0  0  0  0  0  0  0  0  0
    8.1351  -13.8441   14.5495 C   0  0  0  0  0  0  0  0  0  0  0  0
    7.4248  -13.0966   15.4649 C   0  0  0  0  0  0  0  0  0  0  0  0
    7.7862  -13.1196   16.8068 C   0  0  0  0  0  0  0  0  0  0  0  0
    8.8405  -13.8655   17.2848 C   0  0  0  0  0  0  0  0  0  0  0  0
    9.2393  -13.9037   18.7086 C   0  0  0  0  0  0  0  0  0  0  0  0
    9.0958  -15.2203   19.3790 C   0  0  2  0  0  0  0  0  0  0  0  0
    7.9052  -15.9347   18.9070 N   0  0  0  0  0  0  0  0  0  0  0  0
    9.1654  -15.2540   20.8328 C   0  0  0  0  0  0  0  0  0  0  0  0
   10.2933  -15.0518   21.4067 O   0  0  0  0  0  0  0  0  0  0  0  0
    9.5460  -14.6161   16.3356 C   0  0  0  0  0  0  0  0  0  0  0  0
    9.1895  -14.5963   14.9994 C   0  0  0  0  0  0  0  0  0  0  0  0
    8.0668  -15.4941   21.7183 N   0  0  0  0  0  0  0  0  0  0  0  0
    8.2251  -15.4745   23.1373 C   0  0  1  0  0  0  0  0  0  0  0  0
    6.8931  -15.3745   23.8592 C   0  0  0  0  0  0  0  0  0  0  0  0
    7.0077  -14.9486   25.2548 C   0  0  0  0  0  0  0  0  0  0  0  0
    6.9260  -15.7463   26.3764 C   0  0  0  0  0  0  0  0  0  0  0  0
    7.0768  -15.0013   27.4863 N   0  0  0  0  0  0  0  0  0  0  0  0
    7.2603  -13.7008   27.1173 C   0  0  0  0  0  0  0  0  0  0  0  0
    7.4619  -12.5463   27.8415 C   0  0  0  0  0  0  0  0  0  0  0  0
    7.6273  -11.3264   27.2128 C   0  0  0  0  0  0  0  0  0  0  0  0
    7.5832  -11.3102   25.8454 C   0  0  0  0  0  0  0  0  0  0  0  0
    7.3822  -12.4517   25.0910 C   0  0  0  0  0  0  0  0  0  0  0  0
    7.2172  -13.6686   25.7188 C   0  0  0  0  0  0  0  0  0  0  0  0
    8.8674  -16.7026   23.6640 C   0  0  0  0  0  0  0  0  0  0  0  0
    8.4279  -17.8146   23.2891 O   0  0  0  0  0  0  0  0  0  0  0  0
   15.6393  -20.9983   24.2978 N   0  0  0  0  0  0  0  0  0  0  0  0
   15.8886  -19.9457   23.3843 C   0  0  0  0  0  0  0  0  0  0  0  0
   17.1313  -19.6591   23.1548 N   0  0  0  0  0  0  0  0  0  0  0  0
   14.8757  -19.2169   22.7361 N   0  0  0  0  0  0  0  0  0  0  0  0
   13.4527  -19.6406   22.9234 C   0  0  0  0  0  0  0  0  0  0  0  0
   12.8954  -19.0081   24.1292 C   0  0  0  0  0  0  0  0  0  0  0  0
   11.8153  -18.0620   24.0076 C   0  0  0  0  0  0  0  0  0  0  0  0
   10.6941  -17.9195   24.9489 C   0  0  2  0  0  0  0  0  0  0  0  0
    9.9430  -16.6989   24.5601 N   0  0  0  0  0  0  0  0  0  0  0  0
   10.9016  -17.8352   26.3766 C   0  0  0  0  0  0  0  0  0  0  0  0
   11.2281  -18.7840   27.3060 O   0  0  0  0  0  0  0  0  0  0  0  0
   10.7552  -16.6560   26.9116 O   0  0  0  0  0  0  0  0  0  0  0  0
  2  1  1  0
  2 12  2  0
  3  2  1  0
  4  3  2  0
  4  5  1  0
  5 11  2  0
  6  7  1  0
  6  5  1  0
  7  8  1  1
  9  7  1  0
  9 13  1  0
 10  9  2  0
 11 12  1  0
 14 25  1  0
 14 13  1  0
 14 15  1  1
 16 15  1  0
 16 24  1  0
 17 18  1  0
 17 16  2  0
 18 19  1  0
 19 24  2  0
 19 20  1  0
 20 21  2  0
 21 22  1  0
 23 22  2  0
 24 23  1  0
 25 26  2  0
 27 28  1  0
 28 29  2  0
 30 28  1  0
 30 31  1  0
 32 33  1  0
 32 31  1  0
 34 33  1  6
 34 36  1  0
 35 34  1  0
 35 25  1  0
 36 37  1  0
 38 36  2  0
M  END
$$$$
