YWR.pdb
     RDKit          3D

 38 40  0  0  1  0  0  0  0  0999 V2000
   11.0896  -19.1712   16.1151 O   0  0  0  0  0  0  0  0  0  0  0  0
   10.1815  -18.8351   17.1410 C   0  0  0  0  0  0  0  0  0  0  0  0
    9.1214  -17.9972   16.8663 C   0  0  0  0  0  0  0  0  0  0  0  0
    8.2239  -17.6634   17.8736 C   0  0  0  0  0  0  0  0  0  0  0  0
    8.3373  -18.1344   19.1627 C   0  0  0  0  0  0  0  0  0  0  0  0
    7.3919  -17.7915   20.2474 C   0  0  0  0  0  0  0  0  0  0  0  0
    7.4261  -16.3797   20.7045 C   0  0  2  0  0  0  0  0  0  0  0  0
    7.6657  -15.4606   19.5872 N   0  0  0  0  0  0  0  0  0  0  0  0
    8.2910  -16.0498   21.8282 C   0  0  0  0  0  0  0  0  0  0  0  0
    9.3195  -15.3122   21.6262 O   0  0  0  0  0  0  0  0  0  0  0  0
    9.4219  -18.9837   19.4164 C   0  0  0  0  0  0  0  0  0  0  0  0
   10.3173  -19.3186   18.4168 C   0  0  0  0  0  0  0  0  0  0  0  0
    8.1039  -16.4750   23.1819 N   0  0  0  0  0  0  0  0  0  0  0  0
    9.0553  -16.1755   24.2038 C   0  0  1  0  0  0  0  0  0  0  0  0
    8.4057  -16.0519   25.5705 C   0  0  0  0  0  0  0  0  0  0  0  0
    7.3942  -14.9971   25.6510 C   0  0  0  0  0  0  0  0  0  0  0  0
    6.0629  -15.0943   25.3061 C   0  0  0  0  0  0  0  0  0  0  0  0
    5.4437  -13.9182   25.5140 N   0  0  0  0  0  0  0  0  0  0  0  0
    6.3543  -13.0255   25.9990 C   0  0  0  0  0  0  0  0  0  0  0  0
    6.2540  -11.7043   26.3762 C   0  0  0  0  0  0  0  0  0  0  0  0
    7.3514  -11.0095   26.8491 C   0  0  0  0  0  0  0  0  0  0  0  0
    8.5393  -11.6839   26.9280 C   0  0  0  0  0  0  0  0  0  0  0  0
    8.6715  -13.0096   26.5568 C   0  0  0  0  0  0  0  0  0  0  0  0
    7.5762  -13.7024   26.0849 C   0  0  0  0  0  0  0  0  0  0  0  0
   10.0917  -17.2250   24.3536 C   0  0  0  0  0  0  0  0  0  0  0  0
    9.7832  -18.4112   24.0927 O   0  0  0  0  0  0  0  0  0  0  0  0
   16.6138  -18.3640   19.0792 N   0  0  0  0  0  0  0  0  0  0  0  0
   16.6118  -18.2886   20.4931 C   0  0  0  0  0  0  0  0  0  0  0  0
   17.6562  -18.7569   21.1004 N   0  0  0  0  0  0  0  0  0  0  0  0
   15.5549  -17.7459   21.2453 N   0  0  0  0  0  0  0  0  0  0  0  0
   15.6458  -17.7758   22.7388 C   0  0  0  0  0  0  0  0  0  0  0  0
   14.4096  -18.3374   23.3055 C   0  0  0  0  0  0  0  0  0  0  0  0
   13.6514  -17.5760   24.2656 C   0  0  0  0  0  0  0  0  0  0  0  0
   12.4297  -18.0327   24.9455 C   0  0  2  0  0  0  0  0  0  0  0  0
   11.4041  -16.9730   24.7707 N   0  0  0  0  0  0  0  0  0  0  0  0
   12.4215  -18.3832   26.3475 C   0  0  0  0  0  0  0  0  0  0  0  0
   12.8261  -19.5120   27.0054 O   0  0  0  0  0  0  0  0  0  0  0  0
   11.9447  -17.4857   27.1631 O   0  0  0  0  0  0  0  0  0  0  0  0
  2  1  1  0
  2 12  2  0
  3  2  1  0
  4  3  2  0
  4  5  1  0
  5 11  2  0
  6  7  1  0
  6  5  1  0
  7  8  1  6
  9  7  1  0
  9 13  1  0
 10  9  2  0
 11 12  1  0
 14 25  1  0
 14 13  1  0
 14 15  1  1
 16 15  1  0
 16 24  1  0
 17 18  1  0
 17 16  2  0
 18 19  1  0
 19 24  2  0
 19 20  1  0
 20 21  2  0
 21 22  1  0
 23 22  2  0
 24 23  1  0
 25 26  2  0
 27 28  1  0
 28 29  2  0
 30 28  1  0
 30 31  1  0
 32 33  1  0
 32 31  1  0
 34 33  1  1
 34 36  1  0
 35 34  1  0
 35 25  1  0
 36 37  1  0
 38 36  2  0
M  END
$$$$
