TQR.pdb
     RDKit          3D

 28 27  0  0  1  0  0  0  0  0999 V2000
    8.4575  -18.9533   16.2999 C   0  0  0  0  0  0  0  0  0  0  0  0
    9.1085  -18.3502   15.1167 C   0  0  1  0  0  0  0  0  0  0  0  0
    8.6388  -18.8204   13.8948 O   0  0  0  0  0  0  0  0  0  0  0  0
    9.0950  -16.8350   15.0670 C   0  0  2  0  0  0  0  0  0  0  0  0
    9.8410  -16.5112   13.8355 N   0  0  0  0  0  0  0  0  0  0  0  0
    9.6625  -16.2108   16.2582 C   0  0  0  0  0  0  0  0  0  0  0  0
   10.9296  -16.3709   16.4397 O   0  0  0  0  0  0  0  0  0  0  0  0
    7.4892  -11.8566   20.5822 N   0  0  0  0  0  0  0  0  0  0  0  0
    6.8359  -13.0860   20.2380 C   0  0  0  0  0  0  0  0  0  0  0  0
    5.6571  -13.1944   20.6521 O   0  0  0  0  0  0  0  0  0  0  0  0
    7.5340  -14.0950   19.4621 C   0  0  0  0  0  0  0  0  0  0  0  0
    8.9002  -13.7791   19.0032 C   0  0  0  0  0  0  0  0  0  0  0  0
    9.7051  -14.9257   18.4288 C   0  0  2  0  0  0  0  0  0  0  0  0
    8.9935  -15.4453   17.2405 N   0  0  0  0  0  0  0  0  0  0  0  0
    9.8841  -15.9884   19.4349 C   0  0  0  0  0  0  0  0  0  0  0  0
    9.0645  -16.9609   19.4734 O   0  0  0  0  0  0  0  0  0  0  0  0
   14.7509  -20.7688   18.6075 N   0  0  0  0  0  0  0  0  0  0  0  0
   14.0244  -21.5309   19.5524 C   0  0  0  0  0  0  0  0  0  0  0  0
   13.6468  -22.7409   19.2533 N   0  0  0  0  0  0  0  0  0  0  0  0
   13.6610  -21.0856   20.8395 N   0  0  0  0  0  0  0  0  0  0  0  0
   13.8864  -19.7777   21.3482 C   0  0  0  0  0  0  0  0  0  0  0  0
   12.7733  -18.9946   21.8206 C   0  0  0  0  0  0  0  0  0  0  0  0
   12.2704  -17.8795   21.0115 C   0  0  0  0  0  0  0  0  0  0  0  0
   11.0553  -17.1065   21.4035 C   0  0  2  0  0  0  0  0  0  0  0  0
   10.9208  -16.0107   20.3747 N   0  0  0  0  0  0  0  0  0  0  0  0
   11.0326  -16.3916   22.6650 C   0  0  0  0  0  0  0  0  0  0  0  0
   10.9550  -15.0285   22.8770 O   0  0  0  0  0  0  0  0  0  0  0  0
   11.0955  -17.0675   23.7543 O   0  0  0  0  0  0  0  0  0  0  0  0
  2  1  1  1
  2  3  1  0
  4  5  1  6
  4  2  1  0
  6  4  1  0
  7  6  2  0
  9  8  1  0
  9 10  2  0
 11 12  1  0
 11  9  1  0
 13 12  1  1
 13 14  1  0
 14  6  1  0
 15 13  1  0
 15 16  2  0
 18 17  1  0
 19 18  2  0
 20 18  1  0
 21 20  1  0
 22 23  1  0
 22 21  1  0
 24 23  1  6
 24 25  1  0
 25 15  1  0
 26 24  1  0
 27 26  1  0
 28 26  2  0
M  END
$$$$
