TQR.pdb
     RDKit          3D

 28 27  0  0  1  0  0  0  0  0999 V2000
    9.4510  -15.8211   20.9110 C   0  0  0  0  0  0  0  0  0  0  0  0
    8.1391  -15.3557   20.4111 C   0  0  1  0  0  0  0  0  0  0  0  0
    8.1450  -14.9163   19.0914 O   0  0  0  0  0  0  0  0  0  0  0  0
    6.9959  -16.3391   20.5676 C   0  0  2  0  0  0  0  0  0  0  0  0
    5.8313  -15.6251   20.0092 N   0  0  0  0  0  0  0  0  0  0  0  0
    6.7906  -16.7750   21.9455 C   0  0  0  0  0  0  0  0  0  0  0  0
    6.3362  -15.8880   22.7646 O   0  0  0  0  0  0  0  0  0  0  0  0
    6.4785  -22.5982   24.6862 N   0  0  0  0  0  0  0  0  0  0  0  0
    6.6070  -21.6948   25.7925 C   0  0  0  0  0  0  0  0  0  0  0  0
    6.5810  -22.2348   26.9242 O   0  0  0  0  0  0  0  0  0  0  0  0
    6.7574  -20.2695   25.5616 C   0  0  0  0  0  0  0  0  0  0  0  0
    6.7700  -19.8023   24.1621 C   0  0  0  0  0  0  0  0  0  0  0  0
    6.8864  -18.3081   23.9468 C   0  0  2  0  0  0  0  0  0  0  0  0
    7.0252  -18.0559   22.4957 N   0  0  0  0  0  0  0  0  0  0  0  0
    8.0437  -17.7671   24.6826 C   0  0  0  0  0  0  0  0  0  0  0  0
    9.2143  -17.9114   24.2054 O   0  0  0  0  0  0  0  0  0  0  0  0
    7.1124  -10.0255   26.2804 N   0  0  0  0  0  0  0  0  0  0  0  0
    6.4215  -11.1979   26.6670 C   0  0  0  0  0  0  0  0  0  0  0  0
    5.2749  -11.1005   27.2771 N   0  0  0  0  0  0  0  0  0  0  0  0
    6.8751  -12.5131   26.4402 N   0  0  0  0  0  0  0  0  0  0  0  0
    8.0555  -12.8617   25.7293 C   0  0  0  0  0  0  0  0  0  0  0  0
    8.3989  -14.2498   25.5544 C   0  0  0  0  0  0  0  0  0  0  0  0
    8.8831  -15.0312   26.6972 C   0  0  0  0  0  0  0  0  0  0  0  0
    9.1523  -16.4955   26.5935 C   0  0  2  0  0  0  0  0  0  0  0  0
    7.9477  -17.0826   25.8995 N   0  0  0  0  0  0  0  0  0  0  0  0
    9.2710  -17.2930   27.7989 C   0  0  0  0  0  0  0  0  0  0  0  0
   10.3309  -17.3587   28.6828 O   0  0  0  0  0  0  0  0  0  0  0  0
    8.2936  -18.0571   28.1277 O   0  0  0  0  0  0  0  0  0  0  0  0
  2  1  1  6
  2  3  1  0
  4  5  1  1
  4  2  1  0
  6  4  1  0
  7  6  2  0
  9  8  1  0
  9 10  2  0
 11 12  1  0
 11  9  1  0
 13 12  1  6
 13 14  1  0
 14  6  1  0
 15 13  1  0
 15 16  2  0
 18 17  1  0
 19 18  2  0
 20 18  1  0
 21 20  1  0
 22 23  1  0
 22 21  1  0
 24 23  1  1
 24 25  1  0
 25 15  1  0
 26 24  1  0
 27 26  1  0
 28 26  2  0
M  END
$$$$
