TQR.pdb
     RDKit          3D

 28 27  0  0  1  0  0  0  0  0999 V2000
    6.6719  -13.5364   18.7008 C   0  0  0  0  0  0  0  0  0  0  0  0
    7.9783  -14.2252   18.6212 C   0  0  1  0  0  0  0  0  0  0  0  0
    8.5850  -14.1735   17.3706 O   0  0  0  0  0  0  0  0  0  0  0  0
    9.0042  -13.7980   19.6526 C   0  0  2  0  0  0  0  0  0  0  0  0
    9.1789  -12.3536   19.4059 N   0  0  0  0  0  0  0  0  0  0  0  0
   10.2549  -14.5460   19.5704 C   0  0  0  0  0  0  0  0  0  0  0  0
   10.1697  -15.8231   19.7315 O   0  0  0  0  0  0  0  0  0  0  0  0
   15.8374  -13.3322   16.7061 N   0  0  0  0  0  0  0  0  0  0  0  0
   14.5904  -13.7722   16.1511 C   0  0  0  0  0  0  0  0  0  0  0  0
   14.5058  -13.6868   14.9027 O   0  0  0  0  0  0  0  0  0  0  0  0
   13.5389  -14.2741   17.0170 C   0  0  0  0  0  0  0  0  0  0  0  0
   13.8071  -14.3084   18.4674 C   0  0  0  0  0  0  0  0  0  0  0  0
   12.7378  -14.9301   19.3406 C   0  0  2  0  0  0  0  0  0  0  0  0
   11.5541  -14.0428   19.3307 N   0  0  0  0  0  0  0  0  0  0  0  0
   13.2360  -15.1186   20.7152 C   0  0  0  0  0  0  0  0  0  0  0  0
   13.2106  -14.1430   21.5316 O   0  0  0  0  0  0  0  0  0  0  0  0
   10.9172  -21.1225   26.4590 N   0  0  0  0  0  0  0  0  0  0  0  0
   12.1437  -20.5690   26.8958 C   0  0  0  0  0  0  0  0  0  0  0  0
   12.3611  -20.4046   28.1693 N   0  0  0  0  0  0  0  0  0  0  0  0
   13.1950  -20.1675   26.0468 N   0  0  0  0  0  0  0  0  0  0  0  0
   13.0341  -19.6326   24.7398 C   0  0  0  0  0  0  0  0  0  0  0  0
   13.6848  -18.3958   24.3904 C   0  0  0  0  0  0  0  0  0  0  0  0
   13.5168  -17.8380   23.0444 C   0  0  0  0  0  0  0  0  0  0  0  0
   14.1053  -16.5221   22.6574 C   0  0  2  0  0  0  0  0  0  0  0  0
   13.7452  -16.3267   21.2050 N   0  0  0  0  0  0  0  0  0  0  0  0
   15.5442  -16.3432   22.6768 C   0  0  0  0  0  0  0  0  0  0  0  0
   16.4113  -16.2496   21.6052 O   0  0  0  0  0  0  0  0  0  0  0  0
   16.1369  -16.2606   23.8123 O   0  0  0  0  0  0  0  0  0  0  0  0
  2  1  1  6
  2  3  1  0
  4  5  1  6
  4  2  1  0
  6  4  1  0
  7  6  2  0
  9  8  1  0
  9 10  2  0
 11 12  1  0
 11  9  1  0
 13 12  1  6
 13 14  1  0
 14  6  1  0
 15 13  1  0
 15 16  2  0
 18 17  1  0
 19 18  2  0
 20 18  1  0
 21 20  1  0
 22 23  1  0
 22 21  1  0
 24 23  1  6
 24 25  1  0
 25 15  1  0
 26 24  1  0
 27 26  1  0
 28 26  2  0
M  END
$$$$
