TQR.pdb
     RDKit          3D

 28 27  0  0  1  0  0  0  0  0999 V2000
    7.6693  -19.6815   16.8841 C   0  0  0  0  0  0  0  0  0  0  0  0
    8.5571  -19.1946   15.8061 C   0  0  1  0  0  0  0  0  0  0  0  0
    8.3359  -19.7813   14.5644 O   0  0  0  0  0  0  0  0  0  0  0  0
    8.5816  -17.6912   15.6111 C   0  0  2  0  0  0  0  0  0  0  0  0
    9.4940  -17.4940   14.4681 N   0  0  0  0  0  0  0  0  0  0  0  0
    8.9951  -16.9587   16.8040 C   0  0  0  0  0  0  0  0  0  0  0  0
   10.2403  -17.0497   17.1286 O   0  0  0  0  0  0  0  0  0  0  0  0
    5.9935  -12.4956   20.3924 N   0  0  0  0  0  0  0  0  0  0  0  0
    7.1633  -12.8388   21.1475 C   0  0  0  0  0  0  0  0  0  0  0  0
    7.3264  -12.1797   22.2021 O   0  0  0  0  0  0  0  0  0  0  0  0
    8.0570  -13.8832   20.6808 C   0  0  0  0  0  0  0  0  0  0  0  0
    7.7454  -14.5205   19.3871 C   0  0  0  0  0  0  0  0  0  0  0  0
    8.7614  -15.5095   18.8559 C   0  0  2  0  0  0  0  0  0  0  0  0
    8.1975  -16.1543   17.6498 N   0  0  0  0  0  0  0  0  0  0  0  0
    9.0886  -16.5174   19.8808 C   0  0  0  0  0  0  0  0  0  0  0  0
    8.5862  -17.6835   19.7975 O   0  0  0  0  0  0  0  0  0  0  0  0
   15.1264  -21.2944   18.4896 N   0  0  0  0  0  0  0  0  0  0  0  0
   13.7435  -21.5111   18.6945 C   0  0  0  0  0  0  0  0  0  0  0  0
   13.1000  -22.3459   17.9293 N   0  0  0  0  0  0  0  0  0  0  0  0
   12.9684  -20.8859   19.6922 N   0  0  0  0  0  0  0  0  0  0  0  0
   13.3593  -19.7388   20.4348 C   0  0  0  0  0  0  0  0  0  0  0  0
   12.4263  -19.1275   21.3466 C   0  0  0  0  0  0  0  0  0  0  0  0
   11.5668  -18.0322   20.8854 C   0  0  0  0  0  0  0  0  0  0  0  0
   10.5467  -17.4029   21.7748 C   0  0  2  0  0  0  0  0  0  0  0  0
    9.9388  -16.2823   20.9673 N   0  0  0  0  0  0  0  0  0  0  0  0
   10.9647  -16.7495   23.0001 C   0  0  0  0  0  0  0  0  0  0  0  0
   11.2053  -17.3181   24.2361 O   0  0  0  0  0  0  0  0  0  0  0  0
   11.1428  -15.4785   22.9876 O   0  0  0  0  0  0  0  0  0  0  0  0
  2  1  1  1
  2  3  1  0
  4  5  1  6
  4  2  1  0
  6  4  1  0
  7  6  2  0
  9  8  1  0
  9 10  2  0
 11 12  1  0
 11  9  1  0
 13 12  1  1
 13 14  1  0
 14  6  1  0
 15 13  1  0
 15 16  2  0
 18 17  1  0
 19 18  2  0
 20 18  1  0
 21 20  1  0
 22 23  1  0
 22 21  1  0
 24 23  1  6
 24 25  1  0
 25 15  1  0
 26 24  1  0
 27 26  1  0
 28 26  2  0
M  END
$$$$
