TQR.pdb
     RDKit          3D

 28 27  0  0  1  0  0  0  0  0999 V2000
    7.1680  -21.5158   21.9146 C   0  0  0  0  0  0  0  0  0  0  0  0
    5.8714  -21.9915   22.4437 C   0  0  1  0  0  0  0  0  0  0  0  0
    5.4646  -23.2281   21.9539 O   0  0  0  0  0  0  0  0  0  0  0  0
    5.7594  -22.0315   23.9552 C   0  0  2  0  0  0  0  0  0  0  0  0
    4.3690  -22.4616   24.1992 N   0  0  0  0  0  0  0  0  0  0  0  0
    6.0835  -20.7598   24.5943 C   0  0  0  0  0  0  0  0  0  0  0  0
    5.3537  -19.7495   24.2612 O   0  0  0  0  0  0  0  0  0  0  0  0
    9.6280  -19.1108   29.7172 N   0  0  0  0  0  0  0  0  0  0  0  0
    9.5253  -17.8999   28.9558 C   0  0  0  0  0  0  0  0  0  0  0  0
   10.0633  -16.8958   29.4808 O   0  0  0  0  0  0  0  0  0  0  0  0
    8.8409  -17.8945   27.6756 C   0  0  0  0  0  0  0  0  0  0  0  0
    8.2481  -19.1640   27.2132 C   0  0  0  0  0  0  0  0  0  0  0  0
    7.4594  -19.1137   25.9217 C   0  0  2  0  0  0  0  0  0  0  0  0
    7.1001  -20.4973   25.5409 N   0  0  0  0  0  0  0  0  0  0  0  0
    8.2490  -18.4687   24.8569 C   0  0  0  0  0  0  0  0  0  0  0  0
    9.1299  -19.1423   24.2329 O   0  0  0  0  0  0  0  0  0  0  0  0
    8.7222  -11.8420   18.9953 N   0  0  0  0  0  0  0  0  0  0  0  0
    8.0432  -13.0235   18.6155 C   0  0  0  0  0  0  0  0  0  0  0  0
    8.0296  -13.3873   17.3650 N   0  0  0  0  0  0  0  0  0  0  0  0
    7.3569  -13.8792   19.5009 N   0  0  0  0  0  0  0  0  0  0  0  0
    7.4395  -13.8284   20.9189 C   0  0  0  0  0  0  0  0  0  0  0  0
    8.3973  -14.6552   21.6076 C   0  0  0  0  0  0  0  0  0  0  0  0
    7.9498  -15.5540   22.6767 C   0  0  0  0  0  0  0  0  0  0  0  0
    8.8745  -16.5305   23.3241 C   0  0  2  0  0  0  0  0  0  0  0  0
    8.0945  -17.1336   24.4664 N   0  0  0  0  0  0  0  0  0  0  0  0
   10.0916  -16.0593   23.9562 C   0  0  0  0  0  0  0  0  0  0  0  0
   10.3687  -15.9452   25.3050 O   0  0  0  0  0  0  0  0  0  0  0  0
   11.0652  -15.6835   23.2090 O   0  0  0  0  0  0  0  0  0  0  0  0
  2  1  1  1
  2  3  1  0
  4  5  1  6
  4  2  1  0
  6  4  1  0
  7  6  2  0
  9  8  1  0
  9 10  2  0
 11 12  1  0
 11  9  1  0
 13 12  1  1
 13 14  1  0
 14  6  1  0
 15 13  1  0
 15 16  2  0
 18 17  1  0
 19 18  2  0
 20 18  1  0
 21 20  1  0
 22 23  1  0
 22 21  1  0
 24 23  1  1
 24 25  1  0
 25 15  1  0
 26 24  1  0
 27 26  1  0
 28 26  2  0
M  END
$$$$
