TQR.pdb
     RDKit          3D

 28 27  0  0  1  0  0  0  0  0999 V2000
    7.2931  -12.2382   19.2926 C   0  0  0  0  0  0  0  0  0  0  0  0
    8.4776  -13.1027   19.4845 C   0  0  1  0  0  0  0  0  0  0  0  0
    8.2500  -14.2324   20.2636 O   0  0  0  0  0  0  0  0  0  0  0  0
    9.1721  -13.5486   18.2127 C   0  0  2  0  0  0  0  0  0  0  0  0
    8.1354  -14.3075   17.4866 N   0  0  0  0  0  0  0  0  0  0  0  0
   10.3832  -14.3263   18.4556 C   0  0  0  0  0  0  0  0  0  0  0  0
   10.2357  -15.6054   18.5347 O   0  0  0  0  0  0  0  0  0  0  0  0
   16.1640  -17.2289   18.2340 N   0  0  0  0  0  0  0  0  0  0  0  0
   15.7635  -15.9249   17.7916 C   0  0  0  0  0  0  0  0  0  0  0  0
   15.8097  -15.7482   16.5508 O   0  0  0  0  0  0  0  0  0  0  0  0
   15.3410  -14.9222   18.7527 C   0  0  0  0  0  0  0  0  0  0  0  0
   14.1061  -14.1709   18.4570 C   0  0  0  0  0  0  0  0  0  0  0  0
   12.8126  -14.7584   18.9807 C   0  0  2  0  0  0  0  0  0  0  0  0
   11.7050  -13.8500   18.6116 N   0  0  0  0  0  0  0  0  0  0  0  0
   12.8775  -14.9334   20.4431 C   0  0  0  0  0  0  0  0  0  0  0  0
   12.9576  -13.9100   21.1949 O   0  0  0  0  0  0  0  0  0  0  0  0
    7.6298  -18.3970   25.6348 N   0  0  0  0  0  0  0  0  0  0  0  0
    7.4923  -17.0782   25.1419 C   0  0  0  0  0  0  0  0  0  0  0  0
    6.3050  -16.5612   25.0023 N   0  0  0  0  0  0  0  0  0  0  0  0
    8.5636  -16.2375   24.7777 N   0  0  0  0  0  0  0  0  0  0  0  0
    9.8982  -16.6661   24.5425 C   0  0  0  0  0  0  0  0  0  0  0  0
   10.4087  -16.7025   23.1959 C   0  0  0  0  0  0  0  0  0  0  0  0
   11.7589  -17.2157   22.9412 C   0  0  0  0  0  0  0  0  0  0  0  0
   12.8922  -16.3111   22.5877 C   0  0  2  0  0  0  0  0  0  0  0  0
   12.8520  -16.1767   21.0852 N   0  0  0  0  0  0  0  0  0  0  0  0
   14.2556  -16.7270   22.8543 C   0  0  0  0  0  0  0  0  0  0  0  0
   14.9903  -16.5657   24.0133 O   0  0  0  0  0  0  0  0  0  0  0  0
   14.9088  -17.3218   21.9232 O   0  0  0  0  0  0  0  0  0  0  0  0
  2  1  1  6
  2  3  1  0
  4  5  1  6
  4  2  1  0
  6  4  1  0
  7  6  2  0
  9  8  1  0
  9 10  2  0
 11 12  1  0
 11  9  1  0
 13 12  1  1
 13 14  1  0
 14  6  1  0
 15 13  1  0
 15 16  2  0
 18 17  1  0
 19 18  2  0
 20 18  1  0
 21 20  1  0
 22 23  1  0
 22 21  1  0
 24 23  1  6
 24 25  1  0
 25 15  1  0
 26 24  1  0
 27 26  1  0
 28 26  2  0
M  END
$$$$
