TQR.pdb
     RDKit          3D

 28 27  0  0  1  0  0  0  0  0999 V2000
    9.2197  -19.0240   14.2645 C   0  0  0  0  0  0  0  0  0  0  0  0
    9.6938  -18.1910   15.3909 C   0  0  1  0  0  0  0  0  0  0  0  0
   10.8595  -18.6468   15.9977 O   0  0  0  0  0  0  0  0  0  0  0  0
    9.8777  -16.7185   15.0802 C   0  0  2  0  0  0  0  0  0  0  0  0
   10.9214  -16.7010   14.0370 N   0  0  0  0  0  0  0  0  0  0  0  0
   10.2272  -15.9185   16.2501 C   0  0  0  0  0  0  0  0  0  0  0  0
   11.4657  -15.9420   16.6103 O   0  0  0  0  0  0  0  0  0  0  0  0
    7.0040  -12.9968   21.5602 N   0  0  0  0  0  0  0  0  0  0  0  0
    7.9072  -12.2273   20.7549 C   0  0  0  0  0  0  0  0  0  0  0  0
    7.6546  -11.0000   20.6996 O   0  0  0  0  0  0  0  0  0  0  0  0
    9.0180  -12.8723   20.0786 C   0  0  0  0  0  0  0  0  0  0  0  0
    8.7152  -13.6629   18.8702 C   0  0  0  0  0  0  0  0  0  0  0  0
    9.8715  -14.4124   18.2425 C   0  0  2  0  0  0  0  0  0  0  0  0
    9.3736  -15.1138   17.0390 N   0  0  0  0  0  0  0  0  0  0  0  0
   10.4500  -15.3705   19.2020 C   0  0  0  0  0  0  0  0  0  0  0  0
   10.0256  -16.5699   19.2248 O   0  0  0  0  0  0  0  0  0  0  0  0
   11.4635  -22.1920   21.0032 N   0  0  0  0  0  0  0  0  0  0  0  0
   11.5461  -21.8333   19.6372 C   0  0  0  0  0  0  0  0  0  0  0  0
   11.3428  -22.7345   18.7192 N   0  0  0  0  0  0  0  0  0  0  0  0
   11.8350  -20.5390   19.1594 N   0  0  0  0  0  0  0  0  0  0  0  0
   12.7721  -19.6414   19.7395 C   0  0  0  0  0  0  0  0  0  0  0  0
   12.3088  -18.5901   20.6086 C   0  0  0  0  0  0  0  0  0  0  0  0
   12.5313  -17.1880   20.2404 C   0  0  0  0  0  0  0  0  0  0  0  0
   12.0270  -16.0627   21.0812 C   0  0  2  0  0  0  0  0  0  0  0  0
   11.4638  -15.0518   20.1126 N   0  0  0  0  0  0  0  0  0  0  0  0
   12.9572  -15.2865   21.8783 C   0  0  0  0  0  0  0  0  0  0  0  0
   13.5397  -14.0709   21.5751 O   0  0  0  0  0  0  0  0  0  0  0  0
   13.3212  -15.7483   23.0192 O   0  0  0  0  0  0  0  0  0  0  0  0
  2  1  1  6
  2  3  1  0
  4  5  1  6
  4  2  1  0
  6  4  1  0
  7  6  2  0
  9  8  1  0
  9 10  2  0
 11 12  1  0
 11  9  1  0
 13 12  1  1
 13 14  1  0
 14  6  1  0
 15 13  1  0
 15 16  2  0
 18 17  1  0
 19 18  2  0
 20 18  1  0
 21 20  1  0
 22 23  1  0
 22 21  1  0
 24 23  1  6
 24 25  1  0
 25 15  1  0
 26 24  1  0
 27 26  1  0
 28 26  2  0
M  END
$$$$
