GDN.pdb
     RDKit          3D

 21 20  0  0  1  0  0  0  0  0999 V2000
    7.1624  -12.7562   18.7826 N   0  0  0  0  0  0  0  0  0  0  0  0
    8.5218  -13.1914   19.0463 C   0  0  0  0  0  0  0  0  0  0  0  0
    8.4416  -14.1792   20.1643 C   0  0  0  0  0  0  0  0  0  0  0  0
    7.3943  -14.4014   20.8163 O   0  0  0  0  0  0  0  0  0  0  0  0
    9.5778  -14.9571   20.5778 N   0  0  0  0  0  0  0  0  0  0  0  0
    9.5062  -16.0049   21.5195 C   0  0  1  0  0  0  0  0  0  0  0  0
   10.4511  -17.1450   21.3138 C   0  0  0  0  0  0  0  0  0  0  0  0
   10.2317  -18.2695   22.2668 C   0  0  0  0  0  0  0  0  0  0  0  0
    9.6652  -19.3439   21.9144 O   0  0  0  0  0  0  0  0  0  0  0  0
    9.7359  -15.4697   22.8822 C   0  0  0  0  0  0  0  0  0  0  0  0
   10.8280  -14.9023   23.1366 O   0  0  0  0  0  0  0  0  0  0  0  0
   10.6361  -18.2034   23.5983 O   0  0  0  0  0  0  0  0  0  0  0  0
    5.7819  -13.5839   26.4800 N   0  0  0  0  0  0  0  0  0  0  0  0
    6.6870  -14.3210   25.6797 C   0  0  0  0  0  0  0  0  0  0  0  0
    6.3471  -15.4268   25.2200 O   0  0  0  0  0  0  0  0  0  0  0  0
    8.0257  -13.7849   25.3899 C   0  0  0  0  0  0  0  0  0  0  0  0
    9.0037  -14.8963   25.2258 C   0  0  2  0  0  0  0  0  0  0  0  0
    8.7875  -15.5602   23.9263 N   0  0  0  0  0  0  0  0  0  0  0  0
    8.9818  -15.8977   26.2927 C   0  0  0  0  0  0  0  0  0  0  0  0
    8.8732  -17.2563   25.9474 O   0  0  0  0  0  0  0  0  0  0  0  0
    9.0563  -15.5917   27.5088 O   0  0  0  0  0  0  0  0  0  0  0  0
  1  2  1  0
  2  3  1  0
  3  4  2  0
  5  6  1  0
  5  3  1  0
  7  8  1  0
  6  7  1  6
  8  9  2  0
 10  6  1  0
 11 10  2  0
 12  8  1  0
 13 14  1  0
 14 16  1  0
 14 15  2  0
 17 16  1  1
 17 18  1  0
 17 19  1  0
 18 10  1  0
 19 21  2  0
 19 20  1  0
M  END
$$$$
