GDN.pdb
     RDKit          3D

 21 20  0  0  1  0  0  0  0  0999 V2000
    9.4453  -18.5429   18.5349 N   0  0  0  0  0  0  0  0  0  0  0  0
    9.9268  -19.8567   18.9211 C   0  0  0  0  0  0  0  0  0  0  0  0
    9.7857  -19.9404   20.4061 C   0  0  0  0  0  0  0  0  0  0  0  0
    8.9896  -19.2316   21.0657 O   0  0  0  0  0  0  0  0  0  0  0  0
   10.5650  -20.8548   21.1959 N   0  0  0  0  0  0  0  0  0  0  0  0
   10.4302  -20.9907   22.5935 C   0  0  1  0  0  0  0  0  0  0  0  0
   10.7943  -22.3225   23.1668 C   0  0  0  0  0  0  0  0  0  0  0  0
   10.5529  -22.4165   24.6343 C   0  0  0  0  0  0  0  0  0  0  0  0
    9.4202  -22.1748   25.1426 O   0  0  0  0  0  0  0  0  0  0  0  0
   11.2531  -19.9655   23.2777 C   0  0  0  0  0  0  0  0  0  0  0  0
   12.5048  -20.0288   23.1845 O   0  0  0  0  0  0  0  0  0  0  0  0
   11.5578  -22.7746   25.5304 O   0  0  0  0  0  0  0  0  0  0  0  0
   10.3949  -15.9895   22.0418 N   0  0  0  0  0  0  0  0  0  0  0  0
   11.4503  -16.3249   22.9232 C   0  0  0  0  0  0  0  0  0  0  0  0
   12.6115  -16.4287   22.4865 O   0  0  0  0  0  0  0  0  0  0  0  0
   11.1796  -16.5504   24.3512 C   0  0  0  0  0  0  0  0  0  0  0  0
   11.5679  -17.9351   24.7391 C   0  0  2  0  0  0  0  0  0  0  0  0
   10.7070  -18.9068   24.0385 N   0  0  0  0  0  0  0  0  0  0  0  0
   11.5336  -18.2038   26.1772 C   0  0  0  0  0  0  0  0  0  0  0  0
   10.7394  -19.2624   26.6520 O   0  0  0  0  0  0  0  0  0  0  0  0
   12.1871  -17.5245   27.0077 O   0  0  0  0  0  0  0  0  0  0  0  0
  1  2  1  0
  2  3  1  0
  3  4  2  0
  5  6  1  0
  5  3  1  0
  7  8  1  0
  6  7  1  1
  8  9  2  0
 10  6  1  0
 11 10  2  0
 12  8  1  0
 13 14  1  0
 14 16  1  0
 14 15  2  0
 17 16  1  1
 17 18  1  0
 17 19  1  0
 18 10  1  0
 19 21  2  0
 19 20  1  0
M  END
$$$$
