GDN.pdb
     RDKit          3D

 21 20  0  0  1  0  0  0  0  0999 V2000
    5.5783  -19.6360   19.5374 N   0  0  0  0  0  0  0  0  0  0  0  0
    5.0090  -19.3576   20.8433 C   0  0  0  0  0  0  0  0  0  0  0  0
    6.0591  -18.6294   21.6172 C   0  0  0  0  0  0  0  0  0  0  0  0
    7.1392  -19.1531   21.9786 O   0  0  0  0  0  0  0  0  0  0  0  0
    5.9028  -17.2546   22.0082 N   0  0  0  0  0  0  0  0  0  0  0  0
    6.8703  -16.5361   22.7413 C   0  0  1  0  0  0  0  0  0  0  0  0
    6.8943  -15.0560   22.5320 C   0  0  0  0  0  0  0  0  0  0  0  0
    7.2608  -14.6650   21.1415 C   0  0  0  0  0  0  0  0  0  0  0  0
    8.0689  -15.3456   20.4463 O   0  0  0  0  0  0  0  0  0  0  0  0
    6.6852  -16.7832   24.1907 C   0  0  0  0  0  0  0  0  0  0  0  0
    5.5220  -16.7684   24.6665 O   0  0  0  0  0  0  0  0  0  0  0  0
    6.7367  -13.5296   20.5273 O   0  0  0  0  0  0  0  0  0  0  0  0
    6.4019  -19.8530   28.0376 N   0  0  0  0  0  0  0  0  0  0  0  0
    7.0022  -20.2501   26.8189 C   0  0  0  0  0  0  0  0  0  0  0  0
    7.4262  -21.4132   26.6884 O   0  0  0  0  0  0  0  0  0  0  0  0
    7.1261  -19.2940   25.7081 C   0  0  0  0  0  0  0  0  0  0  0  0
    7.6092  -17.9774   26.2100 C   0  0  2  0  0  0  0  0  0  0  0  0
    7.7526  -17.0382   25.0816 N   0  0  0  0  0  0  0  0  0  0  0  0
    8.8633  -18.0282   26.9623 C   0  0  0  0  0  0  0  0  0  0  0  0
    8.8117  -18.1351   28.3633 O   0  0  0  0  0  0  0  0  0  0  0  0
    9.9883  -17.9799   26.4052 O   0  0  0  0  0  0  0  0  0  0  0  0
  1  2  1  0
  2  3  1  0
  3  4  2  0
  5  6  1  0
  5  3  1  0
  7  8  1  0
  6  7  1  1
  8  9  2  0
 10  6  1  0
 11 10  2  0
 12  8  1  0
 13 14  1  0
 14 16  1  0
 14 15  2  0
 17 16  1  6
 17 18  1  0
 17 19  1  0
 18 10  1  0
 19 21  2  0
 19 20  1  0
M  END
$$$$
