GDN.pdb
     RDKit          3D

 21 20  0  0  1  0  0  0  0  0999 V2000
    6.0802  -20.2184   18.4391 N   0  0  0  0  0  0  0  0  0  0  0  0
    6.2345  -18.9988   19.2109 C   0  0  0  0  0  0  0  0  0  0  0  0
    7.6046  -18.4809   18.9161 C   0  0  0  0  0  0  0  0  0  0  0  0
    8.6541  -19.0303   19.3261 O   0  0  0  0  0  0  0  0  0  0  0  0
    7.8195  -17.2974   18.1285 N   0  0  0  0  0  0  0  0  0  0  0  0
    9.0955  -16.7600   17.8582 C   0  0  1  0  0  0  0  0  0  0  0  0
    9.2170  -15.9369   16.6161 C   0  0  0  0  0  0  0  0  0  0  0  0
    8.7729  -16.6560   15.3888 C   0  0  0  0  0  0  0  0  0  0  0  0
    9.0704  -17.8671   15.1787 O   0  0  0  0  0  0  0  0  0  0  0  0
    9.5378  -15.9231   18.9984 C   0  0  0  0  0  0  0  0  0  0  0  0
   10.6846  -15.4097   18.9671 O   0  0  0  0  0  0  0  0  0  0  0  0
    8.0064  -16.0380   14.4030 O   0  0  0  0  0  0  0  0  0  0  0  0
    7.6208  -12.3664   19.6270 N   0  0  0  0  0  0  0  0  0  0  0  0
    7.2912  -13.4953   20.4144 C   0  0  0  0  0  0  0  0  0  0  0  0
    6.3126  -14.2002   20.1060 O   0  0  0  0  0  0  0  0  0  0  0  0
    8.1005  -13.8375   21.5940 C   0  0  0  0  0  0  0  0  0  0  0  0
    9.1958  -14.7735   21.2162 C   0  0  2  0  0  0  0  0  0  0  0  0
    8.7365  -15.6640   20.1335 N   0  0  0  0  0  0  0  0  0  0  0  0
    9.7234  -15.5798   22.3176 C   0  0  0  0  0  0  0  0  0  0  0  0
   10.3637  -14.9316   23.3885 O   0  0  0  0  0  0  0  0  0  0  0  0
    9.6273  -16.8321   22.3452 O   0  0  0  0  0  0  0  0  0  0  0  0
  1  2  1  0
  2  3  1  0
  3  4  2  0
  5  6  1  0
  5  3  1  0
  7  8  1  0
  6  7  1  6
  8  9  2  0
 10  6  1  0
 11 10  2  0
 12  8  1  0
 13 14  1  0
 14 16  1  0
 14 15  2  0
 17 16  1  1
 17 18  1  0
 17 19  1  0
 18 10  1  0
 19 21  2  0
 19 20  1  0
M  END
$$$$
