GDN.pdb
     RDKit          3D

 21 20  0  0  1  0  0  0  0  0999 V2000
    8.4155  -19.6616   18.0748 N   0  0  0  0  0  0  0  0  0  0  0  0
    9.7404  -19.6911   17.4826 C   0  0  0  0  0  0  0  0  0  0  0  0
   10.7123  -19.5852   18.6124 C   0  0  0  0  0  0  0  0  0  0  0  0
   10.5695  -20.1825   19.7051 O   0  0  0  0  0  0  0  0  0  0  0  0
   11.8990  -18.7783   18.5244 N   0  0  0  0  0  0  0  0  0  0  0  0
   12.8942  -18.7413   19.5235 C   0  0  1  0  0  0  0  0  0  0  0  0
   14.2855  -18.4491   19.0608 C   0  0  0  0  0  0  0  0  0  0  0  0
   15.3082  -18.6165   20.1317 C   0  0  0  0  0  0  0  0  0  0  0  0
   15.3543  -19.6519   20.8565 O   0  0  0  0  0  0  0  0  0  0  0  0
   12.5383  -17.7306   20.5472 C   0  0  0  0  0  0  0  0  0  0  0  0
   12.6509  -16.5115   20.2631 O   0  0  0  0  0  0  0  0  0  0  0  0
   16.2708  -17.6449   20.3970 O   0  0  0  0  0  0  0  0  0  0  0  0
    8.4130  -18.4883   22.2080 N   0  0  0  0  0  0  0  0  0  0  0  0
    9.2862  -17.3834   22.3483 C   0  0  0  0  0  0  0  0  0  0  0  0
    9.1694  -16.4025   21.5907 O   0  0  0  0  0  0  0  0  0  0  0  0
   10.3296  -17.3907   23.3850 C   0  0  0  0  0  0  0  0  0  0  0  0
   11.6467  -17.0203   22.7962 C   0  0  2  0  0  0  0  0  0  0  0  0
   12.0734  -18.0601   21.8407 N   0  0  0  0  0  0  0  0  0  0  0  0
   12.7133  -16.7890   23.7710 C   0  0  0  0  0  0  0  0  0  0  0  0
   12.5903  -15.7160   24.6713 O   0  0  0  0  0  0  0  0  0  0  0  0
   13.7381  -17.5127   23.8364 O   0  0  0  0  0  0  0  0  0  0  0  0
  1  2  1  0
  2  3  1  0
  3  4  2  0
  5  6  1  0
  5  3  1  0
  7  8  1  0
  6  7  1  6
  8  9  2  0
 10  6  1  0
 11 10  2  0
 12  8  1  0
 13 14  1  0
 14 16  1  0
 14 15  2  0
 17 16  1  1
 17 18  1  0
 17 19  1  0
 18 10  1  0
 19 21  2  0
 19 20  1  0
M  END
$$$$
