GDN.pdb
     RDKit          3D

 21 20  0  0  1  0  0  0  0  0999 V2000
    7.2254  -13.3891   19.1886 N   0  0  0  0  0  0  0  0  0  0  0  0
    8.5149  -12.7246   19.1367 C   0  0  0  0  0  0  0  0  0  0  0  0
    9.5479  -13.8040   19.1231 C   0  0  0  0  0  0  0  0  0  0  0  0
    9.2703  -15.0264   19.1320 O   0  0  0  0  0  0  0  0  0  0  0  0
   10.9555  -13.5123   19.0981 N   0  0  0  0  0  0  0  0  0  0  0  0
   11.9592  -14.5030   19.1301 C   0  0  1  0  0  0  0  0  0  0  0  0
   13.2549  -14.1536   18.4711 C   0  0  0  0  0  0  0  0  0  0  0  0
   14.1205  -15.3385   18.2115 C   0  0  0  0  0  0  0  0  0  0  0  0
   13.8222  -16.4911   18.6382 O   0  0  0  0  0  0  0  0  0  0  0  0
   12.2535  -14.8722   20.5348 C   0  0  0  0  0  0  0  0  0  0  0  0
   13.0297  -14.1455   21.2048 O   0  0  0  0  0  0  0  0  0  0  0  0
   15.3064  -15.2466   17.4861 O   0  0  0  0  0  0  0  0  0  0  0  0
    9.7874  -14.7690   22.7865 N   0  0  0  0  0  0  0  0  0  0  0  0
    9.6839  -16.0894   23.2854 C   0  0  0  0  0  0  0  0  0  0  0  0
    8.6159  -16.4762   23.7948 O   0  0  0  0  0  0  0  0  0  0  0  0
   10.8326  -17.0044   23.2037 C   0  0  0  0  0  0  0  0  0  0  0  0
   12.0002  -16.3152   22.5869 C   0  0  2  0  0  0  0  0  0  0  0  0
   11.7058  -16.0074   21.1745 N   0  0  0  0  0  0  0  0  0  0  0  0
   13.2632  -17.0496   22.6711 C   0  0  0  0  0  0  0  0  0  0  0  0
   14.1047  -16.8299   23.7758 O   0  0  0  0  0  0  0  0  0  0  0  0
   13.6273  -17.8712   21.7933 O   0  0  0  0  0  0  0  0  0  0  0  0
  1  2  1  0
  2  3  1  0
  3  4  2  0
  5  6  1  0
  5  3  1  0
  7  8  1  0
  6  7  1  1
  8  9  2  0
 10  6  1  0
 11 10  2  0
 12  8  1  0
 13 14  1  0
 14 16  1  0
 14 15  2  0
 17 16  1  6
 17 18  1  0
 17 19  1  0
 18 10  1  0
 19 21  2  0
 19 20  1  0
M  END
$$$$
