IDL.pdb
     RDKit          3D

 25 24  0  0  1  0  0  0  0  0999 V2000
    7.4916  -12.2086   22.1872 C   0  0  0  0  0  0  0  0  0  0  0  0
    7.4504  -13.6805   22.0147 C   0  0  0  0  0  0  0  0  0  0  0  0
    8.2014  -14.1117   20.7877 C   0  0  2  0  0  0  0  0  0  0  0  0
    7.4095  -13.5653   19.6012 C   0  0  0  0  0  0  0  0  0  0  0  0
    8.2377  -15.6019   20.6961 C   0  0  2  0  0  0  0  0  0  0  0  0
    6.8524  -16.1066   20.7218 N   0  0  0  0  0  0  0  0  0  0  0  0
    8.9004  -16.2312   21.8720 C   0  0  0  0  0  0  0  0  0  0  0  0
    8.3168  -17.1636   22.5042 O   0  0  0  0  0  0  0  0  0  0  0  0
   10.1630  -15.8221   22.3049 N   0  0  0  0  0  0  0  0  0  0  0  0
   10.9791  -16.5911   23.2699 C   0  0  1  0  0  0  0  0  0  0  0  0
   12.4174  -16.1255   23.1789 C   0  0  0  0  0  0  0  0  0  0  0  0
   13.1101  -16.5542   21.9578 C   0  0  0  0  0  0  0  0  0  0  0  0
   14.0584  -15.8861   21.5059 O   0  0  0  0  0  0  0  0  0  0  0  0
   10.4561  -16.2886   24.6101 C   0  0  0  0  0  0  0  0  0  0  0  0
   11.1639  -16.6470   25.5990 O   0  0  0  0  0  0  0  0  0  0  0  0
   12.7281  -17.7052   21.2836 O   0  0  0  0  0  0  0  0  0  0  0  0
    6.5561  -12.4362   25.7674 C   0  0  0  0  0  0  0  0  0  0  0  0
    7.8210  -13.1922   25.9260 C   0  0  1  0  0  0  0  0  0  0  0  0
    8.7271  -12.4434   26.8991 C   0  0  0  0  0  0  0  0  0  0  0  0
    7.6517  -14.6013   26.2525 C   0  0  0  0  0  0  0  0  0  0  0  0
    8.7905  -15.5495   26.3300 C   0  0  2  0  0  0  0  0  0  0  0  0
    9.2530  -15.6367   24.9180 N   0  0  0  0  0  0  0  0  0  0  0  0
    8.5910  -16.8627   26.8987 C   0  0  0  0  0  0  0  0  0  0  0  0
    8.8244  -17.0012   28.2889 O   0  0  0  0  0  0  0  0  0  0  0  0
    8.2372  -17.9218   26.3427 O   0  0  0  0  0  0  0  0  0  0  0  0
  1  2  1  0
  2  3  1  0
  3  5  1  0
  3  4  1  6
  5  6  1  1
  5  7  1  0
  7  8  2  0
  9  7  1  0
  9 10  1  0
 10 11  1  1
 12 16  1  0
 12 11  1  0
 13 12  2  0
 14 10  1  0
 14 15  2  0
 18 17  1  1
 18 20  1  0
 19 18  1  0
 21 20  1  6
 21 23  1  0
 21 22  1  0
 22 14  1  0
 23 24  1  0
 25 23  2  0
M  END
$$$$
