IDL.pdb
     RDKit          3D

 25 24  0  0  1  0  0  0  0  0999 V2000
    7.0024  -11.7196   19.3274 C   0  0  0  0  0  0  0  0  0  0  0  0
    7.6381  -13.0278   19.0405 C   0  0  0  0  0  0  0  0  0  0  0  0
    7.7967  -13.8478   20.2888 C   0  0  2  0  0  0  0  0  0  0  0  0
    8.8261  -13.1105   21.1434 C   0  0  0  0  0  0  0  0  0  0  0  0
    8.3292  -15.2032   19.9575 C   0  0  2  0  0  0  0  0  0  0  0  0
    7.3564  -15.8886   19.0868 N   0  0  0  0  0  0  0  0  0  0  0  0
    8.4568  -16.0764   21.1572 C   0  0  0  0  0  0  0  0  0  0  0  0
    7.4311  -16.6502   21.6350 O   0  0  0  0  0  0  0  0  0  0  0  0
    9.6884  -16.2874   21.7798 N   0  0  0  0  0  0  0  0  0  0  0  0
    9.8643  -17.1716   22.9528 C   0  0  1  0  0  0  0  0  0  0  0  0
   11.2232  -17.8350   22.8694 C   0  0  0  0  0  0  0  0  0  0  0  0
   11.5153  -18.7454   23.9832 C   0  0  0  0  0  0  0  0  0  0  0  0
   12.6899  -18.9309   24.3516 O   0  0  0  0  0  0  0  0  0  0  0  0
    9.8160  -16.3149   24.1463 C   0  0  0  0  0  0  0  0  0  0  0  0
   10.8229  -15.5764   24.3663 O   0  0  0  0  0  0  0  0  0  0  0  0
   10.4976  -19.4154   24.6470 O   0  0  0  0  0  0  0  0  0  0  0  0
    6.6269  -12.4642   25.8934 C   0  0  0  0  0  0  0  0  0  0  0  0
    7.8655  -13.2646   25.7454 C   0  0  1  0  0  0  0  0  0  0  0  0
    9.0627  -12.4012   26.1332 C   0  0  0  0  0  0  0  0  0  0  0  0
    7.8381  -14.5585   26.4132 C   0  0  0  0  0  0  0  0  0  0  0  0
    8.9756  -15.5103   26.3656 C   0  0  2  0  0  0  0  0  0  0  0  0
    8.7679  -16.2190   25.0733 N   0  0  0  0  0  0  0  0  0  0  0  0
    9.1731  -16.4443   27.4501 C   0  0  0  0  0  0  0  0  0  0  0  0
    9.9479  -15.9966   28.5482 O   0  0  0  0  0  0  0  0  0  0  0  0
    8.7585  -17.6142   27.5741 O   0  0  0  0  0  0  0  0  0  0  0  0
  1  2  1  0
  2  3  1  0
  3  5  1  0
  3  4  1  1
  5  6  1  6
  5  7  1  0
  7  8  2  0
  9  7  1  0
  9 10  1  0
 10 11  1  6
 12 16  1  0
 12 11  1  0
 13 12  2  0
 14 10  1  0
 14 15  2  0
 18 17  1  1
 18 20  1  0
 19 18  1  0
 21 20  1  1
 21 23  1  0
 21 22  1  0
 22 14  1  0
 23 24  1  0
 25 23  2  0
M  END
$$$$
