IDL.pdb
     RDKit          3D

 25 24  0  0  1  0  0  0  0  0999 V2000
    7.1763  -11.6197   21.3665 C   0  0  0  0  0  0  0  0  0  0  0  0
    7.0672  -13.0979   21.3974 C   0  0  0  0  0  0  0  0  0  0  0  0
    7.9701  -13.7374   20.3818 C   0  0  2  0  0  0  0  0  0  0  0  0
    7.5256  -13.1906   19.0265 C   0  0  0  0  0  0  0  0  0  0  0  0
    7.7897  -15.2199   20.3846 C   0  0  2  0  0  0  0  0  0  0  0  0
    6.3545  -15.5174   20.2224 N   0  0  0  0  0  0  0  0  0  0  0  0
    8.1685  -15.8397   21.6848 C   0  0  0  0  0  0  0  0  0  0  0  0
    7.2685  -16.2842   22.4607 O   0  0  0  0  0  0  0  0  0  0  0  0
    9.5027  -15.9498   22.0806 N   0  0  0  0  0  0  0  0  0  0  0  0
    9.9542  -16.8362   23.1756 C   0  0  1  0  0  0  0  0  0  0  0  0
   11.3110  -17.4068   22.8189 C   0  0  0  0  0  0  0  0  0  0  0  0
   11.8792  -18.2888   23.8454 C   0  0  0  0  0  0  0  0  0  0  0  0
   12.8736  -17.9291   24.5025 O   0  0  0  0  0  0  0  0  0  0  0  0
   10.0812  -16.0008   24.3784 C   0  0  0  0  0  0  0  0  0  0  0  0
    9.8457  -14.7619   24.2468 O   0  0  0  0  0  0  0  0  0  0  0  0
   11.3262  -19.5343   24.1062 O   0  0  0  0  0  0  0  0  0  0  0  0
    6.7262  -13.7080   25.7377 C   0  0  0  0  0  0  0  0  0  0  0  0
    8.1507  -14.0125   26.0113 C   0  0  1  0  0  0  0  0  0  0  0  0
    8.6634  -13.0591   27.0869 C   0  0  0  0  0  0  0  0  0  0  0  0
    8.4313  -15.4138   26.2913 C   0  0  0  0  0  0  0  0  0  0  0  0
    9.7236  -15.8762   26.8554 C   0  0  2  0  0  0  0  0  0  0  0  0
   10.4316  -16.4272   25.6678 N   0  0  0  0  0  0  0  0  0  0  0  0
    9.7300  -16.8163   27.9526 C   0  0  0  0  0  0  0  0  0  0  0  0
    9.9894  -16.2930   29.2431 O   0  0  0  0  0  0  0  0  0  0  0  0
    9.5393  -18.0489   27.9415 O   0  0  0  0  0  0  0  0  0  0  0  0
  1  2  1  0
  2  3  1  0
  3  5  1  0
  3  4  1  6
  5  6  1  1
  5  7  1  0
  7  8  2  0
  9  7  1  0
  9 10  1  0
 10 11  1  6
 12 16  1  0
 12 11  1  0
 13 12  2  0
 14 10  1  0
 14 15  2  0
 18 17  1  1
 18 20  1  0
 19 18  1  0
 21 20  1  6
 21 23  1  0
 21 22  1  0
 22 14  1  0
 23 24  1  0
 25 23  2  0
M  END
$$$$
