IDL.pdb
     RDKit          3D

 25 24  0  0  1  0  0  0  0  0999 V2000
    7.4669  -12.0626   18.8440 C   0  0  0  0  0  0  0  0  0  0  0  0
    7.5752  -13.5412   18.8391 C   0  0  0  0  0  0  0  0  0  0  0  0
    7.8184  -14.0794   20.2199 C   0  0  2  0  0  0  0  0  0  0  0  0
    9.1579  -13.4949   20.6647 C   0  0  0  0  0  0  0  0  0  0  0  0
    7.9311  -15.5682   20.1864 C   0  0  2  0  0  0  0  0  0  0  0  0
    6.6130  -16.1298   19.8376 N   0  0  0  0  0  0  0  0  0  0  0  0
    8.2578  -16.1472   21.5190 C   0  0  0  0  0  0  0  0  0  0  0  0
    7.3326  -16.3636   22.3597 O   0  0  0  0  0  0  0  0  0  0  0  0
    9.5694  -16.4654   21.8759 N   0  0  0  0  0  0  0  0  0  0  0  0
    9.9250  -17.1411   23.1430 C   0  0  1  0  0  0  0  0  0  0  0  0
   11.3454  -17.6571   23.0436 C   0  0  0  0  0  0  0  0  0  0  0  0
   11.8355  -18.3033   24.2671 C   0  0  0  0  0  0  0  0  0  0  0  0
   11.0919  -19.0590   24.9197 O   0  0  0  0  0  0  0  0  0  0  0  0
    9.8512  -16.1271   24.2047 C   0  0  0  0  0  0  0  0  0  0  0  0
   10.4721  -15.0396   24.0067 O   0  0  0  0  0  0  0  0  0  0  0  0
   13.1288  -18.0894   24.7219 O   0  0  0  0  0  0  0  0  0  0  0  0
    6.2811  -12.6251   26.6922 C   0  0  0  0  0  0  0  0  0  0  0  0
    7.6561  -13.0314   26.3165 C   0  0  1  0  0  0  0  0  0  0  0  0
    8.6493  -12.3316   27.2398 C   0  0  0  0  0  0  0  0  0  0  0  0
    7.8615  -14.4700   26.2210 C   0  0  0  0  0  0  0  0  0  0  0  0
    9.1919  -15.1038   26.3949 C   0  0  2  0  0  0  0  0  0  0  0  0
    9.1594  -16.2284   25.4205 N   0  0  0  0  0  0  0  0  0  0  0  0
    9.6036  -15.5559   27.7040 C   0  0  0  0  0  0  0  0  0  0  0  0
    9.3289  -16.9064   28.0313 O   0  0  0  0  0  0  0  0  0  0  0  0
   10.1770  -14.9267   28.6158 O   0  0  0  0  0  0  0  0  0  0  0  0
  1  2  1  0
  2  3  1  0
  3  5  1  0
  3  4  1  6
  5  6  1  1
  5  7  1  0
  7  8  2  0
  9  7  1  0
  9 10  1  0
 10 11  1  6
 12 16  1  0
 12 11  1  0
 13 12  2  0
 14 10  1  0
 14 15  2  0
 18 17  1  1
 18 20  1  0
 19 18  1  0
 21 20  1  1
 21 23  1  0
 21 22  1  0
 22 14  1  0
 23 24  1  0
 25 23  2  0
M  END
$$$$
