IDL.pdb
     RDKit          3D

 25 24  0  0  1  0  0  0  0  0999 V2000
    7.0324  -11.9256   19.1493 C   0  0  0  0  0  0  0  0  0  0  0  0
    7.5343  -13.3020   18.9219 C   0  0  0  0  0  0  0  0  0  0  0  0
    7.8921  -13.9775   20.2147 C   0  0  2  0  0  0  0  0  0  0  0  0
    9.0635  -13.1830   20.7894 C   0  0  0  0  0  0  0  0  0  0  0  0
    8.3398  -15.3799   19.9631 C   0  0  2  0  0  0  0  0  0  0  0  0
    7.2223  -16.1266   19.3565 N   0  0  0  0  0  0  0  0  0  0  0  0
    8.6575  -16.1129   21.2200 C   0  0  0  0  0  0  0  0  0  0  0  0
    7.7243  -16.6386   21.9000 O   0  0  0  0  0  0  0  0  0  0  0  0
    9.9698  -16.2428   21.6784 N   0  0  0  0  0  0  0  0  0  0  0  0
   10.3341  -17.0065   22.8919 C   0  0  1  0  0  0  0  0  0  0  0  0
   11.8075  -17.3518   22.8320 C   0  0  0  0  0  0  0  0  0  0  0  0
   12.1401  -18.3916   21.8508 C   0  0  0  0  0  0  0  0  0  0  0  0
   11.4470  -19.4225   21.7684 O   0  0  0  0  0  0  0  0  0  0  0  0
   10.0897  -16.1248   24.0425 C   0  0  0  0  0  0  0  0  0  0  0  0
   10.4913  -14.9261   23.9451 O   0  0  0  0  0  0  0  0  0  0  0  0
   13.2258  -18.2517   20.9983 O   0  0  0  0  0  0  0  0  0  0  0  0
    8.2626  -12.4802   26.9074 C   0  0  0  0  0  0  0  0  0  0  0  0
    7.4831  -13.7405   26.8758 C   0  0  1  0  0  0  0  0  0  0  0  0
    6.0264  -13.4143   26.5588 C   0  0  0  0  0  0  0  0  0  0  0  0
    8.0455  -14.7835   26.0293 C   0  0  0  0  0  0  0  0  0  0  0  0
    9.3300  -15.4602   26.3360 C   0  0  2  0  0  0  0  0  0  0  0  0
    9.4510  -16.4644   25.2441 N   0  0  0  0  0  0  0  0  0  0  0  0
    9.5271  -16.0681   27.6319 C   0  0  0  0  0  0  0  0  0  0  0  0
    9.2079  -17.4431   27.7498 O   0  0  0  0  0  0  0  0  0  0  0  0
    9.9439  -15.5585   28.6913 O   0  0  0  0  0  0  0  0  0  0  0  0
  1  2  1  0
  2  3  1  0
  3  5  1  0
  3  4  1  6
  5  6  1  1
  5  7  1  0
  7  8  2  0
  9  7  1  0
  9 10  1  0
 10 11  1  6
 12 16  1  0
 12 11  1  0
 13 12  2  0
 14 10  1  0
 14 15  2  0
 18 17  1  6
 18 20  1  0
 19 18  1  0
 21 20  1  1
 21 23  1  0
 21 22  1  0
 22 14  1  0
 23 24  1  0
 25 23  2  0
M  END
$$$$
