IDL.pdb
     RDKit          3D

 25 24  0  0  1  0  0  0  0  0999 V2000
    7.4214  -11.8323   22.0482 C   0  0  0  0  0  0  0  0  0  0  0  0
    7.2691  -13.2928   21.8445 C   0  0  0  0  0  0  0  0  0  0  0  0
    8.1555  -13.7893   20.7385 C   0  0  2  0  0  0  0  0  0  0  0  0
    7.6274  -13.1424   19.4594 C   0  0  0  0  0  0  0  0  0  0  0  0
    8.0443  -15.2729   20.6081 C   0  0  2  0  0  0  0  0  0  0  0  0
    6.6158  -15.6306   20.5312 N   0  0  0  0  0  0  0  0  0  0  0  0
    8.5592  -15.9925   21.8060 C   0  0  0  0  0  0  0  0  0  0  0  0
    7.7500  -16.5687   22.5952 O   0  0  0  0  0  0  0  0  0  0  0  0
    9.9246  -16.0550   22.0901 N   0  0  0  0  0  0  0  0  0  0  0  0
   10.4922  -16.8951   23.1674 C   0  0  1  0  0  0  0  0  0  0  0  0
   11.9745  -17.0798   22.9180 C   0  0  0  0  0  0  0  0  0  0  0  0
   12.3184  -18.3450   22.2580 C   0  0  0  0  0  0  0  0  0  0  0  0
   11.6261  -19.3619   22.4492 O   0  0  0  0  0  0  0  0  0  0  0  0
   10.3006  -16.1630   24.4277 C   0  0  0  0  0  0  0  0  0  0  0  0
   10.4461  -14.9040   24.3903 O   0  0  0  0  0  0  0  0  0  0  0  0
   13.4141  -18.4373   21.4117 O   0  0  0  0  0  0  0  0  0  0  0  0
    6.9056  -13.3134   26.3435 C   0  0  0  0  0  0  0  0  0  0  0  0
    8.3150  -13.7632   26.4325 C   0  0  1  0  0  0  0  0  0  0  0  0
    9.0460  -12.9020   27.4586 C   0  0  0  0  0  0  0  0  0  0  0  0
    8.4857  -15.1940   26.6434 C   0  0  0  0  0  0  0  0  0  0  0  0
    9.8133  -15.8201   26.8615 C   0  0  2  0  0  0  0  0  0  0  0  0
    9.9663  -16.7073   25.6763 N   0  0  0  0  0  0  0  0  0  0  0  0
   10.0740  -16.5357   28.0894 C   0  0  0  0  0  0  0  0  0  0  0  0
    9.9700  -17.9475   28.0427 O   0  0  0  0  0  0  0  0  0  0  0  0
   10.3832  -16.0936   29.2141 O   0  0  0  0  0  0  0  0  0  0  0  0
  1  2  1  0
  2  3  1  0
  3  5  1  0
  3  4  1  6
  5  6  1  1
  5  7  1  0
  7  8  2  0
  9  7  1  0
  9 10  1  0
 10 11  1  6
 12 16  1  0
 12 11  1  0
 13 12  2  0
 14 10  1  0
 14 15  2  0
 18 17  1  1
 18 20  1  0
 19 18  1  0
 21 20  1  1
 21 23  1  0
 21 22  1  0
 22 14  1  0
 23 24  1  0
 25 23  2  0
M  END
$$$$
