IDL.pdb
     RDKit          3D

 25 24  0  0  1  0  0  0  0  0999 V2000
    5.9772  -11.4860   26.6020 C   0  0  0  0  0  0  0  0  0  0  0  0
    5.6706  -12.6863   25.7877 C   0  0  0  0  0  0  0  0  0  0  0  0
    6.8916  -13.5355   25.5784 C   0  0  2  0  0  0  0  0  0  0  0  0
    7.8722  -12.6681   24.7911 C   0  0  0  0  0  0  0  0  0  0  0  0
    6.5546  -14.7407   24.7635 C   0  0  2  0  0  0  0  0  0  0  0  0
    5.4434  -15.4541   25.4198 N   0  0  0  0  0  0  0  0  0  0  0  0
    7.6699  -15.7263   24.7118 C   0  0  0  0  0  0  0  0  0  0  0  0
    7.7131  -16.6785   25.5490 O   0  0  0  0  0  0  0  0  0  0  0  0
    8.6827  -15.6342   23.7554 N   0  0  0  0  0  0  0  0  0  0  0  0
    9.8265  -16.5704   23.6912 C   0  0  1  0  0  0  0  0  0  0  0  0
   10.7065  -16.1922   22.5182 C   0  0  0  0  0  0  0  0  0  0  0  0
   11.5863  -17.2725   22.0559 C   0  0  0  0  0  0  0  0  0  0  0  0
   11.5916  -18.3718   22.6400 O   0  0  0  0  0  0  0  0  0  0  0  0
   10.5857  -16.4055   24.9392 C   0  0  0  0  0  0  0  0  0  0  0  0
   11.6278  -15.6850   24.8885 O   0  0  0  0  0  0  0  0  0  0  0  0
   12.4260  -17.0960   20.9655 O   0  0  0  0  0  0  0  0  0  0  0  0
    9.7975  -13.7810   29.0843 C   0  0  0  0  0  0  0  0  0  0  0  0
   10.3904  -14.5579   27.9701 C   0  0  1  0  0  0  0  0  0  0  0  0
   11.6248  -13.8229   27.4554 C   0  0  0  0  0  0  0  0  0  0  0  0
   10.6295  -15.9635   28.2670 C   0  0  0  0  0  0  0  0  0  0  0  0
   11.2693  -16.8902   27.3006 C   0  0  2  0  0  0  0  0  0  0  0  0
   10.2788  -16.9570   26.1917 N   0  0  0  0  0  0  0  0  0  0  0  0
   11.6650  -18.2115   27.7308 C   0  0  0  0  0  0  0  0  0  0  0  0
   10.9107  -19.3010   27.2304 O   0  0  0  0  0  0  0  0  0  0  0  0
   12.5902  -18.5524   28.4949 O   0  0  0  0  0  0  0  0  0  0  0  0
  1  2  1  0
  2  3  1  0
  3  5  1  0
  3  4  1  6
  5  6  1  1
  5  7  1  0
  7  8  2  0
  9  7  1  0
  9 10  1  0
 10 11  1  6
 12 16  1  0
 12 11  1  0
 13 12  2  0
 14 10  1  0
 14 15  2  0
 18 17  1  1
 18 20  1  0
 19 18  1  0
 21 20  1  1
 21 23  1  0
 21 22  1  0
 22 14  1  0
 23 24  1  0
 25 23  2  0
M  END
$$$$
