IDL.pdb
     RDKit          3D

 25 24  0  0  1  0  0  0  0  0999 V2000
    7.3529  -11.7881   19.2394 C   0  0  0  0  0  0  0  0  0  0  0  0
    7.6717  -13.2252   19.0630 C   0  0  0  0  0  0  0  0  0  0  0  0
    7.7757  -13.9316   20.3843 C   0  0  2  0  0  0  0  0  0  0  0  0
    8.9126  -13.2424   21.1367 C   0  0  0  0  0  0  0  0  0  0  0  0
    8.1347  -15.3669   20.1807 C   0  0  2  0  0  0  0  0  0  0  0  0
    7.0194  -16.0344   19.4841 N   0  0  0  0  0  0  0  0  0  0  0  0
    8.2864  -16.1061   21.4646 C   0  0  0  0  0  0  0  0  0  0  0  0
    7.2579  -16.4496   22.1232 O   0  0  0  0  0  0  0  0  0  0  0  0
    9.5437  -16.4392   21.9719 N   0  0  0  0  0  0  0  0  0  0  0  0
    9.7383  -17.1841   23.2352 C   0  0  1  0  0  0  0  0  0  0  0  0
   11.0865  -17.8730   23.1974 C   0  0  0  0  0  0  0  0  0  0  0  0
   11.4068  -18.6308   24.4130 C   0  0  0  0  0  0  0  0  0  0  0  0
   12.5802  -18.6914   24.8247 O   0  0  0  0  0  0  0  0  0  0  0  0
    9.7305  -16.1942   24.3219 C   0  0  0  0  0  0  0  0  0  0  0  0
   10.5258  -15.2128   24.2128 O   0  0  0  0  0  0  0  0  0  0  0  0
   10.4178  -19.2921   25.1269 O   0  0  0  0  0  0  0  0  0  0  0  0
    6.0753  -12.7743   26.5245 C   0  0  0  0  0  0  0  0  0  0  0  0
    7.4828  -13.1906   26.3187 C   0  0  1  0  0  0  0  0  0  0  0  0
    8.4015  -12.1961   27.0229 C   0  0  0  0  0  0  0  0  0  0  0  0
    7.7620  -14.5805   26.6520 C   0  0  0  0  0  0  0  0  0  0  0  0
    9.1141  -15.1792   26.5284 C   0  0  2  0  0  0  0  0  0  0  0  0
    8.9297  -16.2126   25.4732 N   0  0  0  0  0  0  0  0  0  0  0  0
    9.7617  -15.7316   27.6960 C   0  0  0  0  0  0  0  0  0  0  0  0
    9.8601  -17.1429   27.7667 O   0  0  0  0  0  0  0  0  0  0  0  0
   10.2596  -15.1454   28.6779 O   0  0  0  0  0  0  0  0  0  0  0  0
  1  2  1  0
  2  3  1  0
  3  5  1  0
  3  4  1  1
  5  6  1  6
  5  7  1  0
  7  8  2  0
  9  7  1  0
  9 10  1  0
 10 11  1  6
 12 16  1  0
 12 11  1  0
 13 12  2  0
 14 10  1  0
 14 15  2  0
 18 17  1  1
 18 20  1  0
 19 18  1  0
 21 20  1  1
 21 23  1  0
 21 22  1  0
 22 14  1  0
 23 24  1  0
 25 23  2  0
M  END
$$$$
