IDL.pdb
     RDKit          3D

 25 24  0  0  1  0  0  0  0  0999 V2000
    7.5748  -11.8048   19.0899 C   0  0  0  0  0  0  0  0  0  0  0  0
    7.8135  -13.2533   18.8835 C   0  0  0  0  0  0  0  0  0  0  0  0
    7.8728  -13.9925   20.1896 C   0  0  2  0  0  0  0  0  0  0  0  0
    9.0940  -13.4424   20.9243 C   0  0  0  0  0  0  0  0  0  0  0  0
    8.0721  -15.4535   19.9527 C   0  0  2  0  0  0  0  0  0  0  0  0
    6.8871  -15.9801   19.2506 N   0  0  0  0  0  0  0  0  0  0  0  0
    8.1492  -16.2329   21.2194 C   0  0  0  0  0  0  0  0  0  0  0  0
    7.0912  -16.4887   21.8711 O   0  0  0  0  0  0  0  0  0  0  0  0
    9.3671  -16.6990   21.7177 N   0  0  0  0  0  0  0  0  0  0  0  0
    9.5013  -17.3885   23.0197 C   0  0  1  0  0  0  0  0  0  0  0  0
   10.7976  -18.1716   23.0304 C   0  0  0  0  0  0  0  0  0  0  0  0
   11.0523  -18.8923   24.2835 C   0  0  0  0  0  0  0  0  0  0  0  0
   12.1561  -18.7954   24.8509 O   0  0  0  0  0  0  0  0  0  0  0  0
    9.5574  -16.3449   24.0535 C   0  0  0  0  0  0  0  0  0  0  0  0
   10.4615  -15.4641   23.9343 O   0  0  0  0  0  0  0  0  0  0  0  0
   10.0768  -19.6923   24.8612 O   0  0  0  0  0  0  0  0  0  0  0  0
    8.3437  -12.0009   26.4646 C   0  0  0  0  0  0  0  0  0  0  0  0
    7.4118  -13.1076   26.7860 C   0  0  1  0  0  0  0  0  0  0  0  0
    5.9784  -12.5940   26.6831 C   0  0  0  0  0  0  0  0  0  0  0  0
    7.6463  -14.3371   26.0415 C   0  0  0  0  0  0  0  0  0  0  0  0
    8.9162  -15.0996   26.1311 C   0  0  2  0  0  0  0  0  0  0  0  0
    8.7105  -16.2116   25.1635 N   0  0  0  0  0  0  0  0  0  0  0  0
    9.3644  -15.5952   27.4122 C   0  0  0  0  0  0  0  0  0  0  0  0
   10.2079  -14.7452   28.1687 O   0  0  0  0  0  0  0  0  0  0  0  0
    9.1198  -16.6834   27.9707 O   0  0  0  0  0  0  0  0  0  0  0  0
  1  2  1  0
  2  3  1  0
  3  5  1  0
  3  4  1  1
  5  6  1  6
  5  7  1  0
  7  8  2  0
  9  7  1  0
  9 10  1  0
 10 11  1  6
 12 16  1  0
 12 11  1  0
 13 12  2  0
 14 10  1  0
 14 15  2  0
 18 17  1  6
 18 20  1  0
 19 18  1  0
 21 20  1  1
 21 23  1  0
 21 22  1  0
 22 14  1  0
 23 24  1  0
 25 23  2  0
M  END
$$$$
