IDL.pdb
     RDKit          3D

 25 24  0  0  1  0  0  0  0  0999 V2000
    7.5753  -11.7345   18.9115 C   0  0  0  0  0  0  0  0  0  0  0  0
    7.9222  -13.1567   18.6774 C   0  0  0  0  0  0  0  0  0  0  0  0
    7.9873  -13.9262   19.9655 C   0  0  2  0  0  0  0  0  0  0  0  0
    9.1343  -13.3077   20.7626 C   0  0  0  0  0  0  0  0  0  0  0  0
    8.3056  -15.3609   19.6997 C   0  0  2  0  0  0  0  0  0  0  0  0
    7.1669  -15.9689   18.9867 N   0  0  0  0  0  0  0  0  0  0  0  0
    8.4478  -16.1565   20.9507 C   0  0  0  0  0  0  0  0  0  0  0  0
    7.4142  -16.5614   21.5649 O   0  0  0  0  0  0  0  0  0  0  0  0
    9.7016  -16.4765   21.4746 N   0  0  0  0  0  0  0  0  0  0  0  0
    9.8876  -17.1937   22.7550 C   0  0  1  0  0  0  0  0  0  0  0  0
   11.2849  -17.7767   22.7939 C   0  0  0  0  0  0  0  0  0  0  0  0
   11.5688  -18.5736   23.9935 C   0  0  0  0  0  0  0  0  0  0  0  0
   10.6947  -18.7286   24.8662 O   0  0  0  0  0  0  0  0  0  0  0  0
    9.7481  -16.1985   23.8278 C   0  0  0  0  0  0  0  0  0  0  0  0
   10.6226  -15.2820   23.8806 O   0  0  0  0  0  0  0  0  0  0  0  0
   12.8081  -19.1685   24.1819 O   0  0  0  0  0  0  0  0  0  0  0  0
    7.9236  -12.1796   26.6170 C   0  0  0  0  0  0  0  0  0  0  0  0
    7.1104  -13.4110   26.7554 C   0  0  1  0  0  0  0  0  0  0  0  0
    5.6322  -13.0398   26.6786 C   0  0  0  0  0  0  0  0  0  0  0  0
    7.4877  -14.4942   25.8581 C   0  0  0  0  0  0  0  0  0  0  0  0
    8.8195  -15.1472   25.9042 C   0  0  2  0  0  0  0  0  0  0  0  0
    8.7427  -16.1471   24.8044 N   0  0  0  0  0  0  0  0  0  0  0  0
    9.2770  -15.7535   27.1333 C   0  0  0  0  0  0  0  0  0  0  0  0
   10.1457  -14.9821   27.9437 O   0  0  0  0  0  0  0  0  0  0  0  0
    9.0215  -16.8798   27.6046 O   0  0  0  0  0  0  0  0  0  0  0  0
  1  2  1  0
  2  3  1  0
  3  5  1  0
  3  4  1  1
  5  6  1  6
  5  7  1  0
  7  8  2  0
  9  7  1  0
  9 10  1  0
 10 11  1  6
 12 16  1  0
 12 11  1  0
 13 12  2  0
 14 10  1  0
 14 15  2  0
 18 17  1  6
 18 20  1  0
 19 18  1  0
 21 20  1  1
 21 23  1  0
 21 22  1  0
 22 14  1  0
 23 24  1  0
 25 23  2  0
M  END
$$$$
