IDL.pdb
     RDKit          3D

 25 24  0  0  1  0  0  0  0  0999 V2000
    7.4714  -12.0087   23.5240 C   0  0  0  0  0  0  0  0  0  0  0  0
    7.2927  -13.3366   22.8896 C   0  0  0  0  0  0  0  0  0  0  0  0
    8.1425  -13.4772   21.6593 C   0  0  2  0  0  0  0  0  0  0  0  0
    7.5493  -12.5155   20.6313 C   0  0  0  0  0  0  0  0  0  0  0  0
    8.0557  -14.8681   21.1224 C   0  0  2  0  0  0  0  0  0  0  0  0
    6.6367  -15.1899   20.8826 N   0  0  0  0  0  0  0  0  0  0  0  0
    8.5237  -15.8890   22.1006 C   0  0  0  0  0  0  0  0  0  0  0  0
    7.6818  -16.6253   22.6994 O   0  0  0  0  0  0  0  0  0  0  0  0
    9.8799  -16.0643   22.3813 N   0  0  0  0  0  0  0  0  0  0  0  0
   10.3889  -17.0861   23.3223 C   0  0  1  0  0  0  0  0  0  0  0  0
   11.6746  -17.6661   22.7706 C   0  0  0  0  0  0  0  0  0  0  0  0
   12.2684  -18.7137   23.6100 C   0  0  0  0  0  0  0  0  0  0  0  0
   11.5471  -19.5816   24.1357 O   0  0  0  0  0  0  0  0  0  0  0  0
   10.6727  -16.3979   24.5898 C   0  0  0  0  0  0  0  0  0  0  0  0
   11.7430  -15.7209   24.6506 O   0  0  0  0  0  0  0  0  0  0  0  0
   13.6366  -18.7617   23.8356 O   0  0  0  0  0  0  0  0  0  0  0  0
    8.4643  -14.0356   25.6015 C   0  0  0  0  0  0  0  0  0  0  0  0
    9.2760  -13.8006   26.8191 C   0  0  1  0  0  0  0  0  0  0  0  0
    8.6171  -12.7027   27.6495 C   0  0  0  0  0  0  0  0  0  0  0  0
    9.5910  -15.0002   27.5822 C   0  0  0  0  0  0  0  0  0  0  0  0
   10.4833  -16.0679   27.0665 C   0  0  2  0  0  0  0  0  0  0  0  0
    9.8808  -16.4027   25.7474 N   0  0  0  0  0  0  0  0  0  0  0  0
   10.7084  -17.2562   27.8571 C   0  0  0  0  0  0  0  0  0  0  0  0
   11.5743  -17.1303   28.9710 O   0  0  0  0  0  0  0  0  0  0  0  0
   10.2489  -18.4062   27.7080 O   0  0  0  0  0  0  0  0  0  0  0  0
  1  2  1  0
  2  3  1  0
  3  5  1  0
  3  4  1  6
  5  6  1  1
  5  7  1  0
  7  8  2  0
  9  7  1  0
  9 10  1  0
 10 11  1  6
 12 16  1  0
 12 11  1  0
 13 12  2  0
 14 10  1  0
 14 15  2  0
 18 17  1  6
 18 20  1  0
 19 18  1  0
 21 20  1  1
 21 23  1  0
 21 22  1  0
 22 14  1  0
 23 24  1  0
 25 23  2  0
M  END
$$$$
