IDL.pdb
     RDKit          3D

 25 24  0  0  1  0  0  0  0  0999 V2000
    6.9018  -11.9157   20.4945 C   0  0  0  0  0  0  0  0  0  0  0  0
    6.9819  -13.3958   20.4654 C   0  0  0  0  0  0  0  0  0  0  0  0
    8.2812  -13.8648   19.8760 C   0  0  2  0  0  0  0  0  0  0  0  0
    8.2997  -13.3428   18.4404 C   0  0  0  0  0  0  0  0  0  0  0  0
    8.3309  -15.3571   19.8455 C   0  0  2  0  0  0  0  0  0  0  0  0
    7.0856  -15.8547   19.2323 N   0  0  0  0  0  0  0  0  0  0  0  0
    8.3569  -15.9564   21.2086 C   0  0  0  0  0  0  0  0  0  0  0  0
    7.3031  -16.4679   21.6960 O   0  0  0  0  0  0  0  0  0  0  0  0
    9.5225  -15.9746   21.9767 N   0  0  0  0  0  0  0  0  0  0  0  0
    9.6872  -16.8156   23.1826 C   0  0  1  0  0  0  0  0  0  0  0  0
   11.0125  -17.5438   23.0973 C   0  0  0  0  0  0  0  0  0  0  0  0
   11.2547  -18.4793   24.2022 C   0  0  0  0  0  0  0  0  0  0  0  0
   12.4158  -18.7082   24.5886 O   0  0  0  0  0  0  0  0  0  0  0  0
    9.7070  -15.9078   24.3387 C   0  0  0  0  0  0  0  0  0  0  0  0
   10.6273  -15.0363   24.3710 O   0  0  0  0  0  0  0  0  0  0  0  0
   10.2040  -19.1256   24.8376 O   0  0  0  0  0  0  0  0  0  0  0  0
    5.8919  -12.9837   26.8732 C   0  0  0  0  0  0  0  0  0  0  0  0
    7.2516  -13.3479   26.4092 C   0  0  1  0  0  0  0  0  0  0  0  0
    8.1585  -12.1261   26.5251 C   0  0  0  0  0  0  0  0  0  0  0  0
    7.8048  -14.5462   27.0248 C   0  0  0  0  0  0  0  0  0  0  0  0
    9.1226  -15.1101   26.6410 C   0  0  2  0  0  0  0  0  0  0  0  0
    8.8093  -15.8954   25.4162 N   0  0  0  0  0  0  0  0  0  0  0  0
    9.8680  -15.8999   27.5941 C   0  0  0  0  0  0  0  0  0  0  0  0
    9.8297  -17.3063   27.4300 O   0  0  0  0  0  0  0  0  0  0  0  0
   10.5570  -15.5280   28.5651 O   0  0  0  0  0  0  0  0  0  0  0  0
  1  2  1  0
  2  3  1  0
  3  5  1  0
  3  4  1  6
  5  6  1  1
  5  7  1  0
  7  8  2  0
  9  7  1  0
  9 10  1  0
 10 11  1  6
 12 16  1  0
 12 11  1  0
 13 12  2  0
 14 10  1  0
 14 15  2  0
 18 17  1  1
 18 20  1  0
 19 18  1  0
 21 20  1  1
 21 23  1  0
 21 22  1  0
 22 14  1  0
 23 24  1  0
 25 23  2  0
M  END
$$$$
