GCE.pdb
     RDKit          3D

 20 19  0  0  1  0  0  0  0  0999 V2000
   18.9439  -15.6274  -16.6139 N   0  0  0  0  0  0  0  0  0  0  0  0
   18.7791  -14.6210  -15.5906 C   0  0  0  0  0  0  0  0  0  0  0  0
   18.7784  -13.2502  -16.1492 C   0  0  0  0  0  0  0  0  0  0  0  0
   19.2769  -13.0460  -17.2573 O   0  0  0  0  0  0  0  0  0  0  0  0
   18.2133  -12.1937  -15.4186 N   0  0  0  0  0  0  0  0  0  0  0  0
   18.1242  -10.8320  -15.8744 C   0  0  1  0  0  0  0  0  0  0  0  0
   16.7482  -10.2354  -15.7101 C   0  0  0  0  0  0  0  0  0  0  0  0
   15.4762  -11.2871  -16.4513 S   0  0  0  0  0  0  0  0  0  0  0  0
   19.0768   -9.9341  -15.1863 C   0  0  0  0  0  0  0  0  0  0  0  0
   19.0030   -9.8618  -13.9348 O   0  0  0  0  0  0  0  0  0  0  0  0
   20.0135   -9.2097  -15.9619 N   0  0  0  0  0  0  0  0  0  0  0  0
   21.0665   -8.4071  -15.3514 C   0  0  1  0  0  0  0  0  0  0  0  0
   22.1451   -8.1440  -16.3485 C   0  0  0  0  0  0  0  0  0  0  0  0
   21.7817   -7.0722  -17.3121 C   0  0  0  0  0  0  0  0  0  0  0  0
   22.8514   -6.7697  -18.2794 C   0  0  0  0  0  0  0  0  0  0  0  0
   23.3784   -5.6090  -18.3176 O   0  0  0  0  0  0  0  0  0  0  0  0
   20.5266   -7.2266  -14.6611 C   0  0  0  0  0  0  0  0  0  0  0  0
   21.1407   -6.5635  -13.6149 O   0  0  0  0  0  0  0  0  0  0  0  0
   23.3014   -7.7270  -19.1599 O   0  0  0  0  0  0  0  0  0  0  0  0
   19.4199   -6.7481  -15.0155 O   0  0  0  0  0  0  0  0  0  0  0  0
  2  1  1  0
  3  2  1  0
  4  3  2  0
  5  3  1  0
  6  9  1  0
  6  5  1  0
  6  7  1  1
  7  8  1  0
  9 10  2  0
 11 12  1  0
 11  9  1  0
 13 14  1  0
 12 13  1  6
 15 14  1  0
 15 19  1  0
 16 15  2  0
 17 18  1  0
 17 12  1  0
 20 17  2  0
M  END
$$$$
