GCE.pdb
     RDKit          3D

 20 19  0  0  1  0  0  0  0  0999 V2000
   19.0747  -11.4908  -19.2053 N   0  0  0  0  0  0  0  0  0  0  0  0
   18.2333  -10.7868  -18.2653 C   0  0  0  0  0  0  0  0  0  0  0  0
   19.0037  -10.2399  -17.1256 C   0  0  0  0  0  0  0  0  0  0  0  0
   18.4071   -9.6954  -16.1953 O   0  0  0  0  0  0  0  0  0  0  0  0
   20.4030  -10.3430  -17.1091 N   0  0  0  0  0  0  0  0  0  0  0  0
   21.2529   -9.8515  -16.0574 C   0  0  1  0  0  0  0  0  0  0  0  0
   22.5774  -10.5691  -15.9744 C   0  0  0  0  0  0  0  0  0  0  0  0
   23.6028   -9.9163  -14.6342 S   0  0  0  0  0  0  0  0  0  0  0  0
   21.5435   -8.4069  -16.1837 C   0  0  0  0  0  0  0  0  0  0  0  0
   22.0666   -8.0135  -17.2554 O   0  0  0  0  0  0  0  0  0  0  0  0
   21.2219   -7.5493  -15.1046 N   0  0  0  0  0  0  0  0  0  0  0  0
   21.4816   -6.1154  -15.1528 C   0  0  1  0  0  0  0  0  0  0  0  0
   20.2922   -5.4037  -15.7056 C   0  0  0  0  0  0  0  0  0  0  0  0
   20.5358   -3.9499  -15.8972 C   0  0  0  0  0  0  0  0  0  0  0  0
   19.3739   -3.2312  -16.4494 C   0  0  0  0  0  0  0  0  0  0  0  0
   19.4900   -2.5356  -17.5119 O   0  0  0  0  0  0  0  0  0  0  0  0
   21.9979   -5.6077  -13.8732 C   0  0  0  0  0  0  0  0  0  0  0  0
   22.0064   -6.3086  -12.6815 O   0  0  0  0  0  0  0  0  0  0  0  0
   18.1450   -3.2923  -15.8327 O   0  0  0  0  0  0  0  0  0  0  0  0
   22.4779   -4.4481  -13.8098 O   0  0  0  0  0  0  0  0  0  0  0  0
  2  1  1  0
  3  2  1  0
  4  3  2  0
  5  3  1  0
  6  9  1  0
  6  5  1  0
  6  7  1  6
  7  8  1  0
  9 10  2  0
 11 12  1  0
 11  9  1  0
 13 14  1  0
 12 13  1  1
 15 14  1  0
 15 19  1  0
 16 15  2  0
 17 18  1  0
 17 12  1  0
 20 17  2  0
M  END
$$$$
