GCE.pdb
     RDKit          3D

 20 19  0  0  1  0  0  0  0  0999 V2000
   25.5323  -14.4121  -18.4841 N   0  0  0  0  0  0  0  0  0  0  0  0
   24.8096  -13.2663  -18.9862 C   0  0  0  0  0  0  0  0  0  0  0  0
   24.4872  -12.2955  -17.9163 C   0  0  0  0  0  0  0  0  0  0  0  0
   23.4740  -12.4579  -17.2344 O   0  0  0  0  0  0  0  0  0  0  0  0
   25.3321  -11.1994  -17.6838 N   0  0  0  0  0  0  0  0  0  0  0  0
   25.1052  -10.1796  -16.6946 C   0  0  1  0  0  0  0  0  0  0  0  0
   26.3447   -9.3891  -16.3556 C   0  0  0  0  0  0  0  0  0  0  0  0
   27.3749  -10.2563  -15.1473 S   0  0  0  0  0  0  0  0  0  0  0  0
   24.0637   -9.2107  -17.0991 C   0  0  0  0  0  0  0  0  0  0  0  0
   24.1270   -8.7459  -18.2640 O   0  0  0  0  0  0  0  0  0  0  0  0
   23.0592   -8.8593  -16.1659 N   0  0  0  0  0  0  0  0  0  0  0  0
   21.9678   -7.9553  -16.5085 C   0  0  1  0  0  0  0  0  0  0  0  0
   20.6582   -8.6125  -16.2258 C   0  0  0  0  0  0  0  0  0  0  0  0
   19.4999   -7.7459  -16.5673 C   0  0  0  0  0  0  0  0  0  0  0  0
   18.1995   -8.3465  -16.2213 C   0  0  0  0  0  0  0  0  0  0  0  0
   17.4176   -8.7659  -17.1372 O   0  0  0  0  0  0  0  0  0  0  0  0
   22.1570   -6.6198  -15.9235 C   0  0  0  0  0  0  0  0  0  0  0  0
   21.6478   -5.4427  -16.4399 O   0  0  0  0  0  0  0  0  0  0  0  0
   17.8011   -8.4652  -14.9093 O   0  0  0  0  0  0  0  0  0  0  0  0
   22.8302   -6.4893  -14.8704 O   0  0  0  0  0  0  0  0  0  0  0  0
  2  1  1  0
  3  2  1  0
  4  3  2  0
  5  3  1  0
  6  9  1  0
  6  5  1  0
  6  7  1  6
  7  8  1  0
  9 10  2  0
 11 12  1  0
 11  9  1  0
 13 14  1  0
 12 13  1  1
 15 14  1  0
 15 19  1  0
 16 15  2  0
 17 18  1  0
 17 12  1  0
 20 17  2  0
M  END
$$$$
