GCE.pdb
     RDKit          3D

 20 19  0  0  1  0  0  0  0  0999 V2000
   28.5317  -21.6707  -16.1113 N   0  0  0  0  0  0  0  0  0  0  0  0
   28.0172  -20.6792  -15.1952 C   0  0  0  0  0  0  0  0  0  0  0  0
   26.9902  -21.2366  -14.2864 C   0  0  0  0  0  0  0  0  0  0  0  0
   26.3718  -22.2494  -14.6178 O   0  0  0  0  0  0  0  0  0  0  0  0
   26.7261  -20.6129  -13.0574 N   0  0  0  0  0  0  0  0  0  0  0  0
   25.7170  -21.0317  -12.1212 C   0  0  1  0  0  0  0  0  0  0  0  0
   25.9568  -20.5290  -10.7191 C   0  0  0  0  0  0  0  0  0  0  0  0
   24.6882  -21.1244   -9.5748 S   0  0  0  0  0  0  0  0  0  0  0  0
   24.3573  -20.6028  -12.5146 C   0  0  0  0  0  0  0  0  0  0  0  0
   24.1459  -19.3690  -12.6139 O   0  0  0  0  0  0  0  0  0  0  0  0
   23.3736  -21.5912  -12.7571 N   0  0  0  0  0  0  0  0  0  0  0  0
   22.0093  -21.2468  -13.1390 C   0  0  1  0  0  0  0  0  0  0  0  0
   21.3066  -22.4582  -13.6543 C   0  0  0  0  0  0  0  0  0  0  0  0
   19.9547  -22.1488  -14.1891 C   0  0  0  0  0  0  0  0  0  0  0  0
   19.2340  -23.3378  -14.6774 C   0  0  0  0  0  0  0  0  0  0  0  0
   18.9481  -24.2920  -13.8812 O   0  0  0  0  0  0  0  0  0  0  0  0
   21.3141  -20.5016  -12.0793 C   0  0  0  0  0  0  0  0  0  0  0  0
   21.2628  -20.8689  -10.7474 O   0  0  0  0  0  0  0  0  0  0  0  0
   18.8577  -23.4453  -15.9969 O   0  0  0  0  0  0  0  0  0  0  0  0
   20.7025  -19.4405  -12.3607 O   0  0  0  0  0  0  0  0  0  0  0  0
  2  1  1  0
  3  2  1  0
  4  3  2  0
  5  3  1  0
  6  9  1  0
  6  5  1  0
  6  7  1  1
  7  8  1  0
  9 10  2  0
 11 12  1  0
 11  9  1  0
 13 14  1  0
 12 13  1  1
 15 14  1  0
 15 19  1  0
 16 15  2  0
 17 18  1  0
 17 12  1  0
 20 17  2  0
M  END
$$$$
