GCE.pdb
     RDKit          3D

 20 19  0  0  1  0  0  0  0  0999 V2000
   15.2205  -11.3701  -13.7556 N   0  0  0  0  0  0  0  0  0  0  0  0
   16.3992  -10.8274  -14.3907 C   0  0  0  0  0  0  0  0  0  0  0  0
   16.7523   -9.4895  -13.8646 C   0  0  0  0  0  0  0  0  0  0  0  0
   16.3812   -8.4822  -14.4692 O   0  0  0  0  0  0  0  0  0  0  0  0
   17.5044   -9.3740  -12.6855 N   0  0  0  0  0  0  0  0  0  0  0  0
   17.9290   -8.1313  -12.0978 C   0  0  1  0  0  0  0  0  0  0  0  0
   18.2224   -8.2375  -10.6217 C   0  0  0  0  0  0  0  0  0  0  0  0
   16.7953   -8.8676   -9.7052 S   0  0  0  0  0  0  0  0  0  0  0  0
   19.1358   -7.5738  -12.7460 C   0  0  0  0  0  0  0  0  0  0  0  0
   20.0715   -8.3692  -13.0081 O   0  0  0  0  0  0  0  0  0  0  0  0
   19.1764   -6.1890  -13.0361 N   0  0  0  0  0  0  0  0  0  0  0  0
   20.2953   -5.5803  -13.7456 C   0  0  1  0  0  0  0  0  0  0  0  0
   19.8257   -4.3790  -14.4960 C   0  0  0  0  0  0  0  0  0  0  0  0
   20.9302   -3.6827  -15.2063 C   0  0  0  0  0  0  0  0  0  0  0  0
   20.4817   -2.5059  -15.9716 C   0  0  0  0  0  0  0  0  0  0  0  0
   19.2453   -2.1970  -16.0157 O   0  0  0  0  0  0  0  0  0  0  0  0
   21.4568   -5.3770  -12.8675 C   0  0  0  0  0  0  0  0  0  0  0  0
   21.4471   -5.4979  -11.4903 O   0  0  0  0  0  0  0  0  0  0  0  0
   21.3822   -1.7199  -16.6540 O   0  0  0  0  0  0  0  0  0  0  0  0
   22.5682   -5.0654  -13.3646 O   0  0  0  0  0  0  0  0  0  0  0  0
  2  1  1  0
  3  2  1  0
  4  3  2  0
  5  3  1  0
  6  9  1  0
  6  5  1  0
  6  7  1  1
  7  8  1  0
  9 10  2  0
 11 12  1  0
 11  9  1  0
 13 14  1  0
 12 13  1  1
 15 14  1  0
 15 19  1  0
 16 15  2  0
 17 18  1  0
 17 12  1  0
 20 17  2  0
M  END
$$$$
