GCE.pdb
     RDKit          3D

 20 19  0  0  1  0  0  0  0  0999 V2000
   18.6353  -25.4884   -8.6407 N   0  0  0  0  0  0  0  0  0  0  0  0
   18.6502  -24.8783   -7.3312 C   0  0  0  0  0  0  0  0  0  0  0  0
   17.9337  -25.6947   -6.3255 C   0  0  0  0  0  0  0  0  0  0  0  0
   17.0620  -26.4837   -6.6936 O   0  0  0  0  0  0  0  0  0  0  0  0
   18.2481  -25.5676   -4.9638 N   0  0  0  0  0  0  0  0  0  0  0  0
   17.7216  -26.4006   -3.9156 C   0  0  1  0  0  0  0  0  0  0  0  0
   18.7469  -26.7675   -2.8715 C   0  0  0  0  0  0  0  0  0  0  0  0
   19.2438  -28.5017   -3.0102 S   0  0  0  0  0  0  0  0  0  0  0  0
   16.5794  -25.7801   -3.2100 C   0  0  0  0  0  0  0  0  0  0  0  0
   16.6688  -24.5603   -2.9253 O   0  0  0  0  0  0  0  0  0  0  0  0
   15.4557  -26.5809   -2.8945 N   0  0  0  0  0  0  0  0  0  0  0  0
   14.2749  -26.0320   -2.2387 C   0  0  1  0  0  0  0  0  0  0  0  0
   13.0415  -26.5823   -2.8734 C   0  0  0  0  0  0  0  0  0  0  0  0
   12.8304  -28.0194   -2.5577 C   0  0  0  0  0  0  0  0  0  0  0  0
   11.5952  -28.5702   -3.1427 C   0  0  0  0  0  0  0  0  0  0  0  0
   10.4581  -28.0929   -2.8181 O   0  0  0  0  0  0  0  0  0  0  0  0
   14.3539  -26.1518   -0.7755 C   0  0  0  0  0  0  0  0  0  0  0  0
   13.6301  -25.3955    0.1275 O   0  0  0  0  0  0  0  0  0  0  0  0
   11.6409  -29.6080   -4.0455 O   0  0  0  0  0  0  0  0  0  0  0  0
   15.1297  -26.9950   -0.2593 O   0  0  0  0  0  0  0  0  0  0  0  0
  2  1  1  0
  3  2  1  0
  4  3  2  0
  5  3  1  0
  6  9  1  0
  6  5  1  0
  6  7  1  1
  7  8  1  0
  9 10  2  0
 11 12  1  0
 11  9  1  0
 13 14  1  0
 12 13  1  6
 15 14  1  0
 15 19  1  0
 16 15  2  0
 17 18  1  0
 17 12  1  0
 20 17  2  0
M  END
$$$$
