GCE.pdb
     RDKit          3D

 20 19  0  0  1  0  0  0  0  0999 V2000
   20.4920  -13.2935  -18.2532 N   0  0  0  0  0  0  0  0  0  0  0  0
   20.5168  -11.8625  -18.4507 C   0  0  0  0  0  0  0  0  0  0  0  0
   21.1929  -11.1561  -17.3394 C   0  0  0  0  0  0  0  0  0  0  0  0
   20.5433  -10.8249  -16.3463 O   0  0  0  0  0  0  0  0  0  0  0  0
   22.5638  -10.8676  -17.4206 N   0  0  0  0  0  0  0  0  0  0  0  0
   23.3141  -10.1466  -16.4270 C   0  0  1  0  0  0  0  0  0  0  0  0
   24.7772  -10.5138  -16.3998 C   0  0  0  0  0  0  0  0  0  0  0  0
   25.6890   -9.5174  -15.1959 S   0  0  0  0  0  0  0  0  0  0  0  0
   23.2328   -8.6801  -16.6003 C   0  0  0  0  0  0  0  0  0  0  0  0
   23.6587   -8.2006  -17.6800 O   0  0  0  0  0  0  0  0  0  0  0  0
   22.6858   -7.8988  -15.5545 N   0  0  0  0  0  0  0  0  0  0  0  0
   22.5003   -6.4582  -15.6814 C   0  0  1  0  0  0  0  0  0  0  0  0
   21.2872   -6.1744  -16.5028 C   0  0  0  0  0  0  0  0  0  0  0  0
   20.0251   -6.4894  -15.7835 C   0  0  0  0  0  0  0  0  0  0  0  0
   18.8147   -6.1452  -16.5503 C   0  0  0  0  0  0  0  0  0  0  0  0
   18.3460   -4.9597  -16.5194 O   0  0  0  0  0  0  0  0  0  0  0  0
   22.5691   -5.7790  -14.3793 C   0  0  0  0  0  0  0  0  0  0  0  0
   22.5927   -4.4092  -14.1939 O   0  0  0  0  0  0  0  0  0  0  0  0
   18.1654   -7.0910  -17.3106 O   0  0  0  0  0  0  0  0  0  0  0  0
   22.6134   -6.4580  -13.3227 O   0  0  0  0  0  0  0  0  0  0  0  0
  2  1  1  0
  3  2  1  0
  4  3  2  0
  5  3  1  0
  6  9  1  0
  6  5  1  0
  6  7  1  6
  7  8  1  0
  9 10  2  0
 11 12  1  0
 11  9  1  0
 13 14  1  0
 12 13  1  1
 15 14  1  0
 15 19  1  0
 16 15  2  0
 17 18  1  0
 17 12  1  0
 20 17  2  0
M  END
$$$$
