GCE.pdb
     RDKit          3D

 20 19  0  0  1  0  0  0  0  0999 V2000
   18.7879  -14.1735  -16.1199 N   0  0  0  0  0  0  0  0  0  0  0  0
   19.6688  -13.3649  -16.9307 C   0  0  0  0  0  0  0  0  0  0  0  0
   20.4761  -12.4286  -16.1165 C   0  0  0  0  0  0  0  0  0  0  0  0
   19.9413  -11.8081  -15.1962 O   0  0  0  0  0  0  0  0  0  0  0  0
   21.8402  -12.2521  -16.3943 N   0  0  0  0  0  0  0  0  0  0  0  0
   22.6976  -11.2998  -15.7399 C   0  0  1  0  0  0  0  0  0  0  0  0
   24.1597  -11.6652  -15.8093 C   0  0  0  0  0  0  0  0  0  0  0  0
   24.5475  -13.0593  -14.7232 S   0  0  0  0  0  0  0  0  0  0  0  0
   22.5602   -9.9334  -16.2889 C   0  0  0  0  0  0  0  0  0  0  0  0
   22.4585   -9.8182  -17.5353 O   0  0  0  0  0  0  0  0  0  0  0  0
   22.5499   -8.8365  -15.3944 N   0  0  0  0  0  0  0  0  0  0  0  0
   22.3306   -7.4691  -15.8504 C   0  0  1  0  0  0  0  0  0  0  0  0
   22.1561   -6.5655  -14.6757 C   0  0  0  0  0  0  0  0  0  0  0  0
   21.9065   -5.1552  -15.0734 C   0  0  0  0  0  0  0  0  0  0  0  0
   21.7789   -4.2391  -13.9263 C   0  0  0  0  0  0  0  0  0  0  0  0
   21.5201   -3.0043  -14.1115 O   0  0  0  0  0  0  0  0  0  0  0  0
   23.3357   -7.0523  -16.8392 C   0  0  0  0  0  0  0  0  0  0  0  0
   23.0632   -6.4057  -18.0304 O   0  0  0  0  0  0  0  0  0  0  0  0
   21.9379   -4.6929  -12.6367 O   0  0  0  0  0  0  0  0  0  0  0  0
   24.5527   -7.2832  -16.6274 O   0  0  0  0  0  0  0  0  0  0  0  0
  2  1  1  0
  3  2  1  0
  4  3  2  0
  5  3  1  0
  6  9  1  0
  6  5  1  0
  6  7  1  6
  7  8  1  0
  9 10  2  0
 11 12  1  0
 11  9  1  0
 13 14  1  0
 12 13  1  1
 15 14  1  0
 15 19  1  0
 16 15  2  0
 17 18  1  0
 17 12  1  0
 20 17  2  0
M  END
$$$$
