GCE.pdb
     RDKit          3D

 20 19  0  0  1  0  0  0  0  0999 V2000
   19.2000  -12.4322  -16.8574 N   0  0  0  0  0  0  0  0  0  0  0  0
   19.2525  -11.1000  -17.4138 C   0  0  0  0  0  0  0  0  0  0  0  0
   19.3206  -10.0579  -16.3647 C   0  0  0  0  0  0  0  0  0  0  0  0
   18.4747  -10.0420  -15.4691 O   0  0  0  0  0  0  0  0  0  0  0  0
   20.3428   -9.0969  -16.3939 N   0  0  0  0  0  0  0  0  0  0  0  0
   20.4778   -8.0093  -15.4618 C   0  0  1  0  0  0  0  0  0  0  0  0
   21.9036   -7.7602  -15.0361 C   0  0  0  0  0  0  0  0  0  0  0  0
   22.5616   -9.1464  -14.0774 S   0  0  0  0  0  0  0  0  0  0  0  0
   19.9482   -6.7333  -15.9898 C   0  0  0  0  0  0  0  0  0  0  0  0
   20.1981   -6.4550  -17.1886 O   0  0  0  0  0  0  0  0  0  0  0  0
   19.1951   -5.8990  -15.1295 N   0  0  0  0  0  0  0  0  0  0  0  0
   18.6265   -4.6348  -15.5813 C   0  0  1  0  0  0  0  0  0  0  0  0
   17.5001   -4.2377  -14.6866 C   0  0  0  0  0  0  0  0  0  0  0  0
   16.8709   -2.9551  -15.0970 C   0  0  0  0  0  0  0  0  0  0  0  0
   15.3995   -2.9758  -15.0201 C   0  0  0  0  0  0  0  0  0  0  0  0
   14.8052   -2.6730  -13.9332 O   0  0  0  0  0  0  0  0  0  0  0  0
   19.6622   -3.6152  -15.8032 C   0  0  0  0  0  0  0  0  0  0  0  0
   19.6024   -2.6096  -16.7501 O   0  0  0  0  0  0  0  0  0  0  0  0
   14.6382   -3.3231  -16.1128 O   0  0  0  0  0  0  0  0  0  0  0  0
   20.7037   -3.6202  -15.1000 O   0  0  0  0  0  0  0  0  0  0  0  0
  2  1  1  0
  3  2  1  0
  4  3  2  0
  5  3  1  0
  6  9  1  0
  6  5  1  0
  6  7  1  6
  7  8  1  0
  9 10  2  0
 11 12  1  0
 11  9  1  0
 13 14  1  0
 12 13  1  1
 15 14  1  0
 15 19  1  0
 16 15  2  0
 17 18  1  0
 17 12  1  0
 20 17  2  0
M  END
$$$$
