GCE.pdb
     RDKit          3D

 20 19  0  0  1  0  0  0  0  0999 V2000
   28.2965  -22.7140  -16.1654 N   0  0  0  0  0  0  0  0  0  0  0  0
   27.9432  -21.5791  -15.3443 C   0  0  0  0  0  0  0  0  0  0  0  0
   26.8023  -21.8711  -14.4473 C   0  0  0  0  0  0  0  0  0  0  0  0
   26.1133  -22.8725  -14.6480 O   0  0  0  0  0  0  0  0  0  0  0  0
   26.5112  -21.0108  -13.3776 N   0  0  0  0  0  0  0  0  0  0  0  0
   25.4553  -21.2133  -12.4216 C   0  0  1  0  0  0  0  0  0  0  0  0
   25.7205  -20.5562  -11.0896 C   0  0  0  0  0  0  0  0  0  0  0  0
   24.3980  -20.9017   -9.9042 S   0  0  0  0  0  0  0  0  0  0  0  0
   24.1460  -20.7203  -12.9011 C   0  0  0  0  0  0  0  0  0  0  0  0
   24.0459  -19.4938  -13.1512 O   0  0  0  0  0  0  0  0  0  0  0  0
   23.0835  -21.6431  -13.0533 N   0  0  0  0  0  0  0  0  0  0  0  0
   21.7593  -21.2302  -13.5025 C   0  0  1  0  0  0  0  0  0  0  0  0
   20.9537  -22.4301  -13.8740 C   0  0  0  0  0  0  0  0  0  0  0  0
   19.6305  -22.0727  -14.4492 C   0  0  0  0  0  0  0  0  0  0  0  0
   18.8389  -23.2442  -14.8643 C   0  0  0  0  0  0  0  0  0  0  0  0
   19.4020  -24.2335  -15.4391 O   0  0  0  0  0  0  0  0  0  0  0  0
   21.1260  -20.2967  -12.5596 C   0  0  0  0  0  0  0  0  0  0  0  0
   21.1301  -20.4271  -11.1832 O   0  0  0  0  0  0  0  0  0  0  0  0
   17.4812  -23.2953  -14.6444 O   0  0  0  0  0  0  0  0  0  0  0  0
   20.5196  -19.2856  -12.9946 O   0  0  0  0  0  0  0  0  0  0  0  0
  2  1  1  0
  3  2  1  0
  4  3  2  0
  5  3  1  0
  6  9  1  0
  6  5  1  0
  6  7  1  1
  7  8  1  0
  9 10  2  0
 11 12  1  0
 11  9  1  0
 13 14  1  0
 12 13  1  1
 15 14  1  0
 15 19  1  0
 16 15  2  0
 17 18  1  0
 17 12  1  0
 20 17  2  0
M  END
$$$$
