GCE.pdb
     RDKit          3D

 20 19  0  0  1  0  0  0  0  0999 V2000
   21.2241  -12.4291  -19.8129 N   0  0  0  0  0  0  0  0  0  0  0  0
   21.6644  -11.0585  -19.9341 C   0  0  0  0  0  0  0  0  0  0  0  0
   21.9882  -10.4567  -18.6210 C   0  0  0  0  0  0  0  0  0  0  0  0
   21.1528  -10.4891  -17.7160 O   0  0  0  0  0  0  0  0  0  0  0  0
   23.2386   -9.8547  -18.4129 N   0  0  0  0  0  0  0  0  0  0  0  0
   23.6551   -9.2227  -17.1893 C   0  0  1  0  0  0  0  0  0  0  0  0
   25.1067   -9.4632  -16.8562 C   0  0  0  0  0  0  0  0  0  0  0  0
   25.5342   -8.7937  -15.2306 S   0  0  0  0  0  0  0  0  0  0  0  0
   23.4440   -7.7589  -17.1999 C   0  0  0  0  0  0  0  0  0  0  0  0
   23.8940   -7.1165  -18.1807 O   0  0  0  0  0  0  0  0  0  0  0  0
   22.7538   -7.1612  -16.1184 N   0  0  0  0  0  0  0  0  0  0  0  0
   22.4183   -5.7423  -16.1048 C   0  0  1  0  0  0  0  0  0  0  0  0
   20.9384   -5.5728  -16.0165 C   0  0  0  0  0  0  0  0  0  0  0  0
   20.2753   -5.6514  -17.3444 C   0  0  0  0  0  0  0  0  0  0  0  0
   19.1850   -6.6414  -17.3947 C   0  0  0  0  0  0  0  0  0  0  0  0
   18.0749   -6.4099  -16.8113 O   0  0  0  0  0  0  0  0  0  0  0  0
   23.2113   -5.0003  -15.1138 C   0  0  0  0  0  0  0  0  0  0  0  0
   23.4096   -3.6320  -15.1129 O   0  0  0  0  0  0  0  0  0  0  0  0
   19.3405   -7.8324  -18.0667 O   0  0  0  0  0  0  0  0  0  0  0  0
   23.7739   -5.6182  -14.1751 O   0  0  0  0  0  0  0  0  0  0  0  0
  2  1  1  0
  3  2  1  0
  4  3  2  0
  5  3  1  0
  6  9  1  0
  6  5  1  0
  6  7  1  6
  7  8  1  0
  9 10  2  0
 11 12  1  0
 11  9  1  0
 13 14  1  0
 12 13  1  1
 15 14  1  0
 15 19  1  0
 16 15  2  0
 17 18  1  0
 17 12  1  0
 20 17  2  0
M  END
$$$$
