GCE.pdb
     RDKit          3D

 20 19  0  0  1  0  0  0  0  0999 V2000
   24.4302  -20.9612   -9.1187 N   0  0  0  0  0  0  0  0  0  0  0  0
   25.3831  -21.3126  -10.1462 C   0  0  0  0  0  0  0  0  0  0  0  0
   25.3719  -20.3513  -11.2719 C   0  0  0  0  0  0  0  0  0  0  0  0
   24.4939  -19.4886  -11.3246 O   0  0  0  0  0  0  0  0  0  0  0  0
   26.3558  -20.4259  -12.2696 N   0  0  0  0  0  0  0  0  0  0  0  0
   26.4560  -19.5362  -13.3958 C   0  0  1  0  0  0  0  0  0  0  0  0
   27.8735  -19.3265  -13.8678 C   0  0  0  0  0  0  0  0  0  0  0  0
   27.9483  -18.1522  -15.2423 S   0  0  0  0  0  0  0  0  0  0  0  0
   25.6691  -19.9958  -14.5607 C   0  0  0  0  0  0  0  0  0  0  0  0
   25.8509  -21.1748  -14.9529 O   0  0  0  0  0  0  0  0  0  0  0  0
   24.7610  -19.0961  -15.1685 N   0  0  0  0  0  0  0  0  0  0  0  0
   23.8676  -19.5085  -16.2445 C   0  0  1  0  0  0  0  0  0  0  0  0
   22.5582  -18.8050  -16.1129 C   0  0  0  0  0  0  0  0  0  0  0  0
   21.5732  -19.2372  -17.1387 C   0  0  0  0  0  0  0  0  0  0  0  0
   20.3248  -18.4546  -17.1155 C   0  0  0  0  0  0  0  0  0  0  0  0
   19.9804  -17.7579  -18.1265 O   0  0  0  0  0  0  0  0  0  0  0  0
   24.5163  -19.4199  -17.5609 C   0  0  0  0  0  0  0  0  0  0  0  0
   24.5570  -20.4333  -18.5005 O   0  0  0  0  0  0  0  0  0  0  0  0
   19.5086  -18.4562  -16.0073 O   0  0  0  0  0  0  0  0  0  0  0  0
   25.0942  -18.3572  -17.9018 O   0  0  0  0  0  0  0  0  0  0  0  0
  2  1  1  0
  3  2  1  0
  4  3  2  0
  5  3  1  0
  6  9  1  0
  6  5  1  0
  6  7  1  6
  7  8  1  0
  9 10  2  0
 11 12  1  0
 11  9  1  0
 13 14  1  0
 12 13  1  6
 15 14  1  0
 15 19  1  0
 16 15  2  0
 17 18  1  0
 17 12  1  0
 20 17  2  0
M  END
$$$$
