YDF.pdb
     RDKit          3D

 32 33  0  0  1  0  0  0  0  0999 V2000
   30.3923  -15.9334  -18.6744 O   0  0  0  0  0  0  0  0  0  0  0  0
   29.6652  -16.3404  -17.5562 C   0  0  0  0  0  0  0  0  0  0  0  0
   28.6211  -15.5815  -17.0608 C   0  0  0  0  0  0  0  0  0  0  0  0
   27.9219  -16.0106  -15.9542 C   0  0  0  0  0  0  0  0  0  0  0  0
   28.2088  -17.1853  -15.2917 C   0  0  0  0  0  0  0  0  0  0  0  0
   27.4426  -17.6354  -14.0957 C   0  0  0  0  0  0  0  0  0  0  0  0
   26.5293  -18.7541  -14.5355 C   0  0  2  0  0  0  0  0  0  0  0  0
   25.5751  -18.1848  -15.4697 N   0  0  0  0  0  0  0  0  0  0  0  0
   25.7839  -19.2460  -13.3400 C   0  0  0  0  0  0  0  0  0  0  0  0
   24.8961  -18.5382  -12.7979 O   0  0  0  0  0  0  0  0  0  0  0  0
   29.2573  -17.9482  -15.7886 C   0  0  0  0  0  0  0  0  0  0  0  0
   29.9560  -17.5163  -16.8968 C   0  0  0  0  0  0  0  0  0  0  0  0
   26.0385  -20.5203  -12.7652 N   0  0  0  0  0  0  0  0  0  0  0  0
   25.3335  -21.0018  -11.5707 C   0  0  1  0  0  0  0  0  0  0  0  0
   24.5382  -22.2335  -11.8793 C   0  0  0  0  0  0  0  0  0  0  0  0
   23.5046  -21.9026  -12.8825 C   0  0  0  0  0  0  0  0  0  0  0  0
   22.5499  -21.1292  -12.6583 O   0  0  0  0  0  0  0  0  0  0  0  0
   26.2311  -21.0897  -10.4196 C   0  0  0  0  0  0  0  0  0  0  0  0
   27.2512  -21.8217  -10.4321 O   0  0  0  0  0  0  0  0  0  0  0  0
   23.5497  -22.4599  -14.1745 O   0  0  0  0  0  0  0  0  0  0  0  0
   26.0296  -20.3627   -9.1997 N   0  0  0  0  0  0  0  0  0  0  0  0
   26.6834  -20.7063   -7.9510 C   0  0  1  0  0  0  0  0  0  0  0  0
   27.5793  -19.5249   -7.6214 C   0  0  0  0  0  0  0  0  0  0  0  0
   28.1847  -19.5761   -6.2993 C   0  0  0  0  0  0  0  0  0  0  0  0
   27.6770  -18.8224   -5.2729 C   0  0  0  0  0  0  0  0  0  0  0  0
   28.2210  -18.8440   -4.0007 C   0  0  0  0  0  0  0  0  0  0  0  0
   29.3088  -19.6547   -3.7735 C   0  0  0  0  0  0  0  0  0  0  0  0
   29.8121  -20.4039   -4.7973 C   0  0  0  0  0  0  0  0  0  0  0  0
   29.2685  -20.3802   -6.0617 C   0  0  0  0  0  0  0  0  0  0  0  0
   25.7263  -21.0338   -6.8875 C   0  0  0  0  0  0  0  0  0  0  0  0
   26.0585  -21.6997   -5.7138 O   0  0  0  0  0  0  0  0  0  0  0  0
   24.5249  -20.6964   -7.0342 O   0  0  0  0  0  0  0  0  0  0  0  0
  2  1  1  0
  3  2  2  0
  4  3  1  0
  5 11  1  0
  5  4  2  0
  6  5  1  0
  6  7  1  0
  7  8  1  6
  9 10  2  0
  9  7  1  0
 11 12  2  0
 12  2  1  0
 13  9  1  0
 14 15  1  6
 14 13  1  0
 16 15  1  0
 16 20  1  0
 17 16  2  0
 18 14  1  0
 19 18  2  0
 21 18  1  0
 22 21  1  0
 22 23  1  1
 24 23  1  0
 25 24  2  0
 26 25  1  0
 27 26  2  0
 27 28  1  0
 28 29  2  0
 29 24  1  0
 30 31  1  0
 30 22  1  0
 32 30  2  0
M  END
$$$$
