YDF.pdb
     RDKit          3D

 32 33  0  0  1  0  0  0  0  0999 V2000
   23.9291  -24.6914  -15.9304 O   0  0  0  0  0  0  0  0  0  0  0  0
   25.1025  -25.3687  -16.2608 C   0  0  0  0  0  0  0  0  0  0  0  0
   26.2924  -24.6934  -16.4588 C   0  0  0  0  0  0  0  0  0  0  0  0
   27.4347  -25.3910  -16.7843 C   0  0  0  0  0  0  0  0  0  0  0  0
   27.4637  -26.7619  -16.9287 C   0  0  0  0  0  0  0  0  0  0  0  0
   28.7081  -27.5018  -17.2812 C   0  0  0  0  0  0  0  0  0  0  0  0
   29.1393  -27.0387  -18.6519 C   0  0  2  0  0  0  0  0  0  0  0  0
   28.1575  -27.5343  -19.5993 N   0  0  0  0  0  0  0  0  0  0  0  0
   30.4563  -27.6670  -18.9643 C   0  0  0  0  0  0  0  0  0  0  0  0
   30.5174  -28.8097  -19.4874 O   0  0  0  0  0  0  0  0  0  0  0  0
   26.2690  -27.4412  -16.7300 C   0  0  0  0  0  0  0  0  0  0  0  0
   25.1264  -26.7403  -16.4041 C   0  0  0  0  0  0  0  0  0  0  0  0
   31.6874  -27.0127  -18.6893 N   0  0  0  0  0  0  0  0  0  0  0  0
   32.9889  -27.6516  -18.9203 C   0  0  1  0  0  0  0  0  0  0  0  0
   34.1013  -26.6536  -18.8123 C   0  0  0  0  0  0  0  0  0  0  0  0
   35.2987  -27.1892  -19.4931 C   0  0  0  0  0  0  0  0  0  0  0  0
   36.2910  -26.4920  -19.7913 O   0  0  0  0  0  0  0  0  0  0  0  0
   33.1374  -28.8664  -18.1200 C   0  0  0  0  0  0  0  0  0  0  0  0
   32.5512  -29.0073  -17.0185 O   0  0  0  0  0  0  0  0  0  0  0  0
   35.3785  -28.5495  -19.8470 O   0  0  0  0  0  0  0  0  0  0  0  0
   33.9491  -29.9814  -18.5143 N   0  0  0  0  0  0  0  0  0  0  0  0
   33.9272  -31.2622  -17.8331 C   0  0  1  0  0  0  0  0  0  0  0  0
   32.4797  -31.7204  -17.8729 C   0  0  0  0  0  0  0  0  0  0  0  0
   32.2546  -33.0575  -17.3452 C   0  0  0  0  0  0  0  0  0  0  0  0
   32.1742  -33.2664  -15.9928 C   0  0  0  0  0  0  0  0  0  0  0  0
   31.9585  -34.5210  -15.4501 C   0  0  0  0  0  0  0  0  0  0  0  0
   31.8221  -35.5856  -16.3103 C   0  0  0  0  0  0  0  0  0  0  0  0
   31.9026  -35.3747  -17.6564 C   0  0  0  0  0  0  0  0  0  0  0  0
   32.1172  -34.1254  -18.1929 C   0  0  0  0  0  0  0  0  0  0  0  0
   34.8660  -32.2261  -18.4194 C   0  0  0  0  0  0  0  0  0  0  0  0
   35.5314  -32.0363  -19.6246 O   0  0  0  0  0  0  0  0  0  0  0  0
   35.0927  -33.2971  -17.8025 O   0  0  0  0  0  0  0  0  0  0  0  0
  2  1  1  0
  3  2  2  0
  4  3  1  0
  5 11  1  0
  5  4  2  0
  6  5  1  0
  6  7  1  0
  7  8  1  6
  9 10  2  0
  9  7  1  0
 11 12  2  0
 12  2  1  0
 13  9  1  0
 14 15  1  1
 14 13  1  0
 16 15  1  0
 16 20  1  0
 17 16  2  0
 18 14  1  0
 19 18  2  0
 21 18  1  0
 22 21  1  0
 22 23  1  6
 24 23  1  0
 25 24  2  0
 26 25  1  0
 27 26  2  0
 27 28  1  0
 28 29  2  0
 29 24  1  0
 30 31  1  0
 30 22  1  0
 32 30  2  0
M  END
$$$$
