YDF.pdb
     RDKit          3D

 32 33  0  0  1  0  0  0  0  0999 V2000
   33.4401  -25.4047  -22.1915 O   0  0  0  0  0  0  0  0  0  0  0  0
   32.5992  -26.3864  -21.6683 C   0  0  0  0  0  0  0  0  0  0  0  0
   31.7863  -26.1326  -20.5792 C   0  0  0  0  0  0  0  0  0  0  0  0
   30.9666  -27.1234  -20.0855 C   0  0  0  0  0  0  0  0  0  0  0  0
   30.9062  -28.3897  -20.6276 C   0  0  0  0  0  0  0  0  0  0  0  0
   30.0138  -29.4507  -20.0815 C   0  0  0  0  0  0  0  0  0  0  0  0
   30.6626  -29.9903  -18.8297 C   0  0  2  0  0  0  0  0  0  0  0  0
   31.8113  -30.7737  -19.2469 N   0  0  0  0  0  0  0  0  0  0  0  0
   29.6908  -30.8996  -18.1547 C   0  0  0  0  0  0  0  0  0  0  0  0
   29.8927  -32.1407  -18.1111 O   0  0  0  0  0  0  0  0  0  0  0  0
   31.7223  -28.6456  -21.7215 C   0  0  0  0  0  0  0  0  0  0  0  0
   32.5423  -27.6517  -22.2141 C   0  0  0  0  0  0  0  0  0  0  0  0
   28.5071  -30.4127  -17.5374 N   0  0  0  0  0  0  0  0  0  0  0  0
   27.5425  -31.2981  -16.8732 C   0  0  1  0  0  0  0  0  0  0  0  0
   28.2240  -32.1692  -15.8624 C   0  0  0  0  0  0  0  0  0  0  0  0
   27.2812  -33.2139  -15.4108 C   0  0  0  0  0  0  0  0  0  0  0  0
   26.4887  -33.8034  -16.1751 O   0  0  0  0  0  0  0  0  0  0  0  0
   26.3756  -30.5561  -16.3975 C   0  0  0  0  0  0  0  0  0  0  0  0
   26.4491  -29.7595  -15.4297 O   0  0  0  0  0  0  0  0  0  0  0  0
   27.2314  -33.6040  -14.0589 O   0  0  0  0  0  0  0  0  0  0  0  0
   25.0709  -30.6704  -16.9824 N   0  0  0  0  0  0  0  0  0  0  0  0
   23.9026  -29.9850  -16.4625 C   0  0  1  0  0  0  0  0  0  0  0  0
   23.3027  -29.2467  -17.6465 C   0  0  0  0  0  0  0  0  0  0  0  0
   22.8320  -30.1083  -18.7203 C   0  0  0  0  0  0  0  0  0  0  0  0
   21.5290  -30.5333  -18.7497 C   0  0  0  0  0  0  0  0  0  0  0  0
   21.0404  -31.3507  -19.7537 C   0  0  0  0  0  0  0  0  0  0  0  0
   21.9044  -31.7420  -20.7500 C   0  0  0  0  0  0  0  0  0  0  0  0
   23.2011  -31.3174  -20.7182 C   0  0  0  0  0  0  0  0  0  0  0  0
   23.6838  -30.5043  -19.7179 C   0  0  0  0  0  0  0  0  0  0  0  0
   22.9634  -30.8987  -15.8013 C   0  0  0  0  0  0  0  0  0  0  0  0
   23.0936  -32.2823  -15.7916 O   0  0  0  0  0  0  0  0  0  0  0  0
   21.9724  -30.4124  -15.2010 O   0  0  0  0  0  0  0  0  0  0  0  0
  2  1  1  0
  3  2  2  0
  4  3  1  0
  5 11  1  0
  5  4  2  0
  6  5  1  0
  6  7  1  0
  7  8  1  6
  9 10  2  0
  9  7  1  0
 11 12  2  0
 12  2  1  0
 13  9  1  0
 14 15  1  1
 14 13  1  0
 16 15  1  0
 16 20  1  0
 17 16  2  0
 18 14  1  0
 19 18  2  0
 21 18  1  0
 22 21  1  0
 22 23  1  6
 24 23  1  0
 25 24  2  0
 26 25  1  0
 27 26  2  0
 27 28  1  0
 28 29  2  0
 29 24  1  0
 30 31  1  0
 30 22  1  0
 32 30  2  0
M  END
$$$$
