YDF.pdb
     RDKit          3D

 32 33  0  0  1  0  0  0  0  0999 V2000
   25.5176  -32.1783   -9.1986 O   0  0  0  0  0  0  0  0  0  0  0  0
   26.0369  -32.5337   -7.9541 C   0  0  0  0  0  0  0  0  0  0  0  0
   27.1269  -33.3767   -7.8427 C   0  0  0  0  0  0  0  0  0  0  0  0
   27.6166  -33.7090   -6.5988 C   0  0  0  0  0  0  0  0  0  0  0  0
   27.0693  -33.2380   -5.4242 C   0  0  0  0  0  0  0  0  0  0  0  0
   27.6111  -33.6073   -4.0861 C   0  0  0  0  0  0  0  0  0  0  0  0
   27.1023  -34.9897   -3.7555 C   0  0  2  0  0  0  0  0  0  0  0  0
   25.6932  -34.8606   -3.4315 N   0  0  0  0  0  0  0  0  0  0  0  0
   27.8234  -35.4751   -2.5425 C   0  0  0  0  0  0  0  0  0  0  0  0
   27.5126  -35.0565   -1.3974 O   0  0  0  0  0  0  0  0  0  0  0  0
   25.9744  -32.3912   -5.5351 C   0  0  0  0  0  0  0  0  0  0  0  0
   25.4859  -32.0599   -6.7818 C   0  0  0  0  0  0  0  0  0  0  0  0
   28.8812  -36.4205   -2.6228 N   0  0  0  0  0  0  0  0  0  0  0  0
   29.5731  -36.9327   -1.4335 C   0  0  1  0  0  0  0  0  0  0  0  0
   29.1814  -38.3522   -1.1567 C   0  0  0  0  0  0  0  0  0  0  0  0
   28.0947  -38.3671   -0.1552 C   0  0  0  0  0  0  0  0  0  0  0  0
   27.8862  -37.4343    0.6486 O   0  0  0  0  0  0  0  0  0  0  0  0
   31.0092  -36.6638   -1.4936 C   0  0  0  0  0  0  0  0  0  0  0  0
   31.7756  -36.9532   -0.5419 O   0  0  0  0  0  0  0  0  0  0  0  0
   27.2190  -39.4652   -0.0584 O   0  0  0  0  0  0  0  0  0  0  0  0
   31.6560  -36.0583   -2.6216 N   0  0  0  0  0  0  0  0  0  0  0  0
   33.0660  -35.7170   -2.6421 C   0  0  1  0  0  0  0  0  0  0  0  0
   33.1222  -34.2367   -2.9769 C   0  0  0  0  0  0  0  0  0  0  0  0
   32.4434  -33.8701   -4.2106 C   0  0  0  0  0  0  0  0  0  0  0  0
   31.2375  -33.2192   -4.1733 C   0  0  0  0  0  0  0  0  0  0  0  0
   30.5605  -32.8506   -5.3225 C   0  0  0  0  0  0  0  0  0  0  0  0
   31.1301  -33.1547   -6.5371 C   0  0  0  0  0  0  0  0  0  0  0  0
   32.3308  -33.8027   -6.5712 C   0  0  0  0  0  0  0  0  0  0  0  0
   33.0015  -34.1680   -5.4261 C   0  0  0  0  0  0  0  0  0  0  0  0
   33.7459  -36.0631   -1.3882 C   0  0  0  0  0  0  0  0  0  0  0  0
   35.1254  -36.1521   -1.2449 O   0  0  0  0  0  0  0  0  0  0  0  0
   33.0480  -36.2967   -0.3697 O   0  0  0  0  0  0  0  0  0  0  0  0
  2  1  1  0
  3  2  2  0
  4  3  1  0
  5 11  1  0
  5  4  2  0
  6  5  1  0
  6  7  1  0
  7  8  1  1
  9 10  2  0
  9  7  1  0
 11 12  2  0
 12  2  1  0
 13  9  1  0
 14 15  1  6
 14 13  1  0
 16 15  1  0
 16 20  1  0
 17 16  2  0
 18 14  1  0
 19 18  2  0
 21 18  1  0
 22 21  1  0
 22 23  1  1
 24 23  1  0
 25 24  2  0
 26 25  1  0
 27 26  2  0
 27 28  1  0
 28 29  2  0
 29 24  1  0
 30 31  1  0
 30 22  1  0
 32 30  2  0
M  END
$$$$
