YDF.pdb
     RDKit          3D

 32 33  0  0  1  0  0  0  0  0999 V2000
   19.0014  -18.6940    2.3326 O   0  0  0  0  0  0  0  0  0  0  0  0
   17.9117  -17.8801    2.6405 C   0  0  0  0  0  0  0  0  0  0  0  0
   18.0458  -16.5086    2.7514 C   0  0  0  0  0  0  0  0  0  0  0  0
   16.9502  -15.7316    3.0568 C   0  0  0  0  0  0  0  0  0  0  0  0
   15.6914  -16.2543    3.2646 C   0  0  0  0  0  0  0  0  0  0  0  0
   14.5161  -15.3998    3.5944 C   0  0  0  0  0  0  0  0  0  0  0  0
   13.7159  -16.1171    4.6548 C   0  0  2  0  0  0  0  0  0  0  0  0
   12.5034  -15.3481    4.8688 N   0  0  0  0  0  0  0  0  0  0  0  0
   14.5073  -16.1130    5.9198 C   0  0  0  0  0  0  0  0  0  0  0  0
   14.1416  -15.4232    6.9066 O   0  0  0  0  0  0  0  0  0  0  0  0
   15.5556  -17.6318    3.1534 C   0  0  0  0  0  0  0  0  0  0  0  0
   16.6543  -18.4077    2.8475 C   0  0  0  0  0  0  0  0  0  0  0  0
   15.6957  -16.8779    6.0676 N   0  0  0  0  0  0  0  0  0  0  0  0
   16.4554  -16.9202    7.3232 C   0  0  1  0  0  0  0  0  0  0  0  0
   15.7326  -17.7267    8.3587 C   0  0  0  0  0  0  0  0  0  0  0  0
   16.1241  -17.2506    9.7019 C   0  0  0  0  0  0  0  0  0  0  0  0
   17.2920  -17.3101   10.1404 O   0  0  0  0  0  0  0  0  0  0  0  0
   17.8532  -17.2808    7.0902 C   0  0  0  0  0  0  0  0  0  0  0  0
   18.1709  -18.3043    6.4358 O   0  0  0  0  0  0  0  0  0  0  0  0
   15.1709  -16.6919   10.5746 O   0  0  0  0  0  0  0  0  0  0  0  0
   18.9621  -16.5132    7.5785 N   0  0  0  0  0  0  0  0  0  0  0  0
   20.3395  -16.7805    7.2092 C   0  0  1  0  0  0  0  0  0  0  0  0
   20.9980  -15.4182    7.0777 C   0  0  0  0  0  0  0  0  0  0  0  0
   20.3742  -14.5374    6.1019 C   0  0  0  0  0  0  0  0  0  0  0  0
   19.9686  -15.0236    4.8860 C   0  0  0  0  0  0  0  0  0  0  0  0
   19.3693  -14.2208    3.9314 C   0  0  0  0  0  0  0  0  0  0  0  0
   19.1807  -12.8908    4.2275 C   0  0  0  0  0  0  0  0  0  0  0  0
   19.5855  -12.4095    5.4388 C   0  0  0  0  0  0  0  0  0  0  0  0
   20.1814  -13.2108    6.3861 C   0  0  0  0  0  0  0  0  0  0  0  0
   21.0136  -17.6706    8.1618 C   0  0  0  0  0  0  0  0  0  0  0  0
   22.2159  -18.3203    7.9092 O   0  0  0  0  0  0  0  0  0  0  0  0
   20.4807  -17.8674    9.2825 O   0  0  0  0  0  0  0  0  0  0  0  0
  2  1  1  0
  3  2  2  0
  4  3  1  0
  5 11  1  0
  5  4  2  0
  6  5  1  0
  6  7  1  0
  7  8  1  1
  9 10  2  0
  9  7  1  0
 11 12  2  0
 12  2  1  0
 13  9  1  0
 14 15  1  1
 14 13  1  0
 16 15  1  0
 16 20  1  0
 17 16  2  0
 18 14  1  0
 19 18  2  0
 21 18  1  0
 22 21  1  0
 22 23  1  1
 24 23  1  0
 25 24  2  0
 26 25  1  0
 27 26  2  0
 27 28  1  0
 28 29  2  0
 29 24  1  0
 30 31  1  0
 30 22  1  0
 32 30  2  0
M  END
$$$$
