YDF.pdb
     RDKit          3D

 32 33  0  0  1  0  0  0  0  0999 V2000
   30.0207  -16.0108  -19.3089 O   0  0  0  0  0  0  0  0  0  0  0  0
   29.2314  -16.3975  -18.2263 C   0  0  0  0  0  0  0  0  0  0  0  0
   28.1252  -17.2093  -18.3951 C   0  0  0  0  0  0  0  0  0  0  0  0
   27.3654  -17.5738  -17.3055 C   0  0  0  0  0  0  0  0  0  0  0  0
   27.6498  -17.1661  -16.0194 C   0  0  0  0  0  0  0  0  0  0  0  0
   26.8175  -17.5694  -14.8512 C   0  0  0  0  0  0  0  0  0  0  0  0
   27.6269  -18.5454  -14.0317 C   0  0  2  0  0  0  0  0  0  0  0  0
   27.9361  -19.6729  -14.8921 N   0  0  0  0  0  0  0  0  0  0  0  0
   26.7750  -19.0297  -12.9063 C   0  0  0  0  0  0  0  0  0  0  0  0
   26.1401  -18.2188  -12.1834 O   0  0  0  0  0  0  0  0  0  0  0  0
   28.7607  -16.3507  -15.8489 C   0  0  0  0  0  0  0  0  0  0  0  0
   29.5200  -15.9870  -16.9416 C   0  0  0  0  0  0  0  0  0  0  0  0
   26.6425  -20.4114  -12.6022 N   0  0  0  0  0  0  0  0  0  0  0  0
   25.7681  -20.9027  -11.5300 C   0  0  1  0  0  0  0  0  0  0  0  0
   24.9756  -22.0891  -11.9875 C   0  0  0  0  0  0  0  0  0  0  0  0
   23.9094  -21.6337  -12.9040 C   0  0  0  0  0  0  0  0  0  0  0  0
   23.5268  -20.4473  -12.9800 O   0  0  0  0  0  0  0  0  0  0  0  0
   26.5012  -21.0664  -10.2754 C   0  0  0  0  0  0  0  0  0  0  0  0
   27.7109  -21.4025  -10.2564 O   0  0  0  0  0  0  0  0  0  0  0  0
   23.2569  -22.5426  -13.7587 O   0  0  0  0  0  0  0  0  0  0  0  0
   25.9154  -20.8617   -8.9822 N   0  0  0  0  0  0  0  0  0  0  0  0
   26.6334  -21.0769   -7.7400 C   0  0  1  0  0  0  0  0  0  0  0  0
   27.6278  -19.9333   -7.6404 C   0  0  0  0  0  0  0  0  0  0  0  0
   28.3108  -19.8363   -6.3593 C   0  0  0  0  0  0  0  0  0  0  0  0
   29.2528  -20.7659   -6.0020 C   0  0  0  0  0  0  0  0  0  0  0  0
   29.9270  -20.7088   -4.7948 C   0  0  0  0  0  0  0  0  0  0  0  0
   29.6308  -19.6775   -3.9341 C   0  0  0  0  0  0  0  0  0  0  0  0
   28.6925  -18.7535   -4.2926 C   0  0  0  0  0  0  0  0  0  0  0  0
   28.0237  -18.8132   -5.4941 C   0  0  0  0  0  0  0  0  0  0  0  0
   25.7359  -21.1790   -6.5831 C   0  0  0  0  0  0  0  0  0  0  0  0
   26.1400  -21.5669   -5.3112 O   0  0  0  0  0  0  0  0  0  0  0  0
   24.5204  -20.9004   -6.7378 O   0  0  0  0  0  0  0  0  0  0  0  0
  2  1  1  0
  3  2  2  0
  4  3  1  0
  5 11  1  0
  5  4  2  0
  6  5  1  0
  6  7  1  0
  7  8  1  6
  9 10  2  0
  9  7  1  0
 11 12  2  0
 12  2  1  0
 13  9  1  0
 14 15  1  6
 14 13  1  0
 16 15  1  0
 16 20  1  0
 17 16  2  0
 18 14  1  0
 19 18  2  0
 21 18  1  0
 22 21  1  0
 22 23  1  1
 24 23  1  0
 25 24  2  0
 26 25  1  0
 27 26  2  0
 27 28  1  0
 28 29  2  0
 29 24  1  0
 30 31  1  0
 30 22  1  0
 32 30  2  0
M  END
$$$$
