ELK.pdb
     RDKit          3D

 27 26  0  0  1  0  0  0  0  0999 V2000
   28.1516  -21.6127  -15.6885 N   0  0  0  0  0  0  0  0  0  0  0  0
   27.3946  -20.4643  -15.1449 C   0  0  1  0  0  0  0  0  0  0  0  0
   26.9304  -19.6867  -16.3500 C   0  0  0  0  0  0  0  0  0  0  0  0
   27.7023  -18.4321  -16.5574 C   0  0  0  0  0  0  0  0  0  0  0  0
   27.1113  -17.7855  -17.7938 C   0  0  0  0  0  0  0  0  0  0  0  0
   25.8697  -17.6779  -17.9271 O   0  0  0  0  0  0  0  0  0  0  0  0
   26.2109  -20.9514  -14.4021 C   0  0  0  0  0  0  0  0  0  0  0  0
   25.6104  -21.9713  -14.8031 O   0  0  0  0  0  0  0  0  0  0  0  0
   27.9367  -17.3077  -18.7873 O   0  0  0  0  0  0  0  0  0  0  0  0
   25.9740  -22.3996  -10.3205 C   0  0  0  0  0  0  0  0  0  0  0  0
   26.0563  -20.8641  -10.3648 C   0  0  2  0  0  0  0  0  0  0  0  0
   26.2355  -20.4468   -8.9283 C   0  0  0  0  0  0  0  0  0  0  0  0
   24.7925  -20.3985  -10.9971 C   0  0  0  0  0  0  0  0  0  0  0  0
   24.6511  -20.6535  -12.4578 C   0  0  2  0  0  0  0  0  0  0  0  0
   25.7794  -20.2405  -13.2373 N   0  0  0  0  0  0  0  0  0  0  0  0
   23.3660  -20.1410  -12.9975 C   0  0  0  0  0  0  0  0  0  0  0  0
   23.3111  -19.0054  -13.5319 O   0  0  0  0  0  0  0  0  0  0  0  0
   22.1615  -20.8974  -12.9351 N   0  0  0  0  0  0  0  0  0  0  0  0
   21.0106  -20.6268  -13.7718 C   0  0  1  0  0  0  0  0  0  0  0  0
   21.3118  -20.9048  -15.2335 C   0  0  0  0  0  0  0  0  0  0  0  0
   20.1775  -20.5617  -16.1299 C   0  0  0  0  0  0  0  0  0  0  0  0
   20.5523  -20.8188  -17.5596 C   0  0  0  0  0  0  0  0  0  0  0  0
   19.4632  -20.4276  -18.5029 C   0  0  0  0  0  0  0  0  0  0  0  0
   19.8978  -20.5065  -19.8944 N   0  0  0  0  0  0  0  0  0  0  0  0
   19.8948  -21.5214  -13.3785 C   0  0  0  0  0  0  0  0  0  0  0  0
   20.1395  -22.5812  -12.7552 O   0  0  0  0  0  0  0  0  0  0  0  0
   18.5773  -21.2357  -13.6722 O   0  0  0  0  0  0  0  0  0  0  0  0
  2  1  1  6
  2  3  1  0
  3  4  1  0
  4  5  1  0
  5  6  2  0
  7  2  1  0
  7  8  2  0
  9  5  1  0
 11 10  1  1
 11 13  1  0
 12 11  1  0
 14 13  1  1
 14 15  1  0
 15  7  1  0
 16 18  1  0
 16 14  1  0
 17 16  2  0
 19 18  1  0
 19 25  1  0
 19 20  1  6
 21 20  1  0
 22 21  1  0
 23 22  1  0
 24 23  1  0
 25 26  2  0
 25 27  1  0
M  END
$$$$
