ELK.pdb
     RDKit          3D

 27 26  0  0  1  0  0  0  0  0999 V2000
   22.0083  -12.1685  -18.3850 N   0  0  0  0  0  0  0  0  0  0  0  0
   21.0841  -11.6360  -17.3604 C   0  0  1  0  0  0  0  0  0  0  0  0
   20.5630  -12.8454  -16.6269 C   0  0  0  0  0  0  0  0  0  0  0  0
   19.9909  -13.8703  -17.5408 C   0  0  0  0  0  0  0  0  0  0  0  0
   19.4567  -14.9686  -16.6439 C   0  0  0  0  0  0  0  0  0  0  0  0
   19.3611  -16.1460  -17.0630 O   0  0  0  0  0  0  0  0  0  0  0  0
   21.8294  -10.7814  -16.4095 C   0  0  0  0  0  0  0  0  0  0  0  0
   21.2642  -10.3817  -15.3692 O   0  0  0  0  0  0  0  0  0  0  0  0
   19.0692  -14.6821  -15.3538 O   0  0  0  0  0  0  0  0  0  0  0  0
   25.5246  -11.8302  -14.4529 C   0  0  0  0  0  0  0  0  0  0  0  0
   25.8251  -11.3149  -15.8709 C   0  0  2  0  0  0  0  0  0  0  0  0
   27.2971  -11.5674  -16.0681 C   0  0  0  0  0  0  0  0  0  0  0  0
   25.4306   -9.8803  -15.8838 C   0  0  0  0  0  0  0  0  0  0  0  0
   23.9689   -9.5963  -15.8438 C   0  0  2  0  0  0  0  0  0  0  0  0
   23.1853  -10.4310  -16.7043 N   0  0  0  0  0  0  0  0  0  0  0  0
   23.6703   -8.1525  -16.0222 C   0  0  0  0  0  0  0  0  0  0  0  0
   24.0002   -7.5635  -17.0816 O   0  0  0  0  0  0  0  0  0  0  0  0
   23.0102   -7.3850  -15.0213 N   0  0  0  0  0  0  0  0  0  0  0  0
   22.6687   -5.9875  -15.1896 C   0  0  1  0  0  0  0  0  0  0  0  0
   21.6014   -5.8033  -16.2534 C   0  0  0  0  0  0  0  0  0  0  0  0
   20.2975   -6.4041  -15.8700 C   0  0  0  0  0  0  0  0  0  0  0  0
   19.2840   -6.1733  -16.9516 C   0  0  0  0  0  0  0  0  0  0  0  0
   17.9630   -6.7851  -16.6207 C   0  0  0  0  0  0  0  0  0  0  0  0
   17.9997   -8.2410  -16.7223 N   0  0  0  0  0  0  0  0  0  0  0  0
   22.1143   -5.4597  -13.9192 C   0  0  0  0  0  0  0  0  0  0  0  0
   21.8964   -4.2309  -13.8006 O   0  0  0  0  0  0  0  0  0  0  0  0
   21.8226   -6.2730  -12.8436 O   0  0  0  0  0  0  0  0  0  0  0  0
  2  1  1  6
  2  3  1  0
  3  4  1  0
  4  5  1  0
  5  6  2  0
  7  2  1  0
  7  8  2  0
  9  5  1  0
 11 10  1  1
 11 13  1  0
 12 11  1  0
 14 13  1  6
 14 15  1  0
 15  7  1  0
 16 18  1  0
 16 14  1  0
 17 16  2  0
 19 18  1  0
 19 25  1  0
 19 20  1  6
 21 20  1  0
 22 21  1  0
 23 22  1  0
 24 23  1  0
 25 26  2  0
 25 27  1  0
M  END
$$$$
