ELK.pdb
     RDKit          3D

 27 26  0  0  1  0  0  0  0  0999 V2000
   26.2565  -23.6907  -16.4467 N   0  0  0  0  0  0  0  0  0  0  0  0
   25.7428  -22.3386  -16.1380 C   0  0  1  0  0  0  0  0  0  0  0  0
   25.0553  -21.8764  -17.3973 C   0  0  0  0  0  0  0  0  0  0  0  0
   25.9242  -21.0158  -18.2444 C   0  0  0  0  0  0  0  0  0  0  0  0
   26.1558  -19.7506  -17.4433 C   0  0  0  0  0  0  0  0  0  0  0  0
   27.2057  -19.6005  -16.7753 O   0  0  0  0  0  0  0  0  0  0  0  0
   24.7453  -22.4188  -15.0477 C   0  0  0  0  0  0  0  0  0  0  0  0
   24.0086  -23.4245  -14.9614 O   0  0  0  0  0  0  0  0  0  0  0  0
   25.2106  -18.7492  -17.4416 O   0  0  0  0  0  0  0  0  0  0  0  0
   25.1040  -22.4602  -10.4774 C   0  0  0  0  0  0  0  0  0  0  0  0
   25.5045  -21.1276  -11.1336 C   0  0  2  0  0  0  0  0  0  0  0  0
   26.0144  -20.2779   -9.9989 C   0  0  0  0  0  0  0  0  0  0  0  0
   24.2800  -20.6087  -11.8007 C   0  0  0  0  0  0  0  0  0  0  0  0
   23.7849  -21.3860  -12.9709 C   0  0  2  0  0  0  0  0  0  0  0  0
   24.6470  -21.3389  -14.1137 N   0  0  0  0  0  0  0  0  0  0  0  0
   22.3746  -21.0630  -13.3061 C   0  0  0  0  0  0  0  0  0  0  0  0
   22.0800  -19.9443  -13.7959 O   0  0  0  0  0  0  0  0  0  0  0  0
   21.3132  -21.9873  -13.0918 N   0  0  0  0  0  0  0  0  0  0  0  0
   19.9540  -21.7506  -13.5327 C   0  0  1  0  0  0  0  0  0  0  0  0
   19.0665  -22.9513  -13.2582 C   0  0  0  0  0  0  0  0  0  0  0  0
   17.6799  -22.7684  -13.7602 C   0  0  0  0  0  0  0  0  0  0  0  0
   16.8752  -24.0115  -13.5206 C   0  0  0  0  0  0  0  0  0  0  0  0
   15.4813  -23.8849  -14.0400 C   0  0  0  0  0  0  0  0  0  0  0  0
   15.0539  -25.0907  -14.7435 N   0  0  0  0  0  0  0  0  0  0  0  0
   19.3846  -20.6061  -12.7805 C   0  0  0  0  0  0  0  0  0  0  0  0
   19.6516  -20.4693  -11.5633 O   0  0  0  0  0  0  0  0  0  0  0  0
   18.5605  -19.6691  -13.3690 O   0  0  0  0  0  0  0  0  0  0  0  0
  2  1  1  6
  2  3  1  0
  3  4  1  0
  4  5  1  0
  5  6  2  0
  7  2  1  0
  7  8  2  0
  9  5  1  0
 11 10  1  1
 11 13  1  0
 12 11  1  0
 14 13  1  1
 14 15  1  0
 15  7  1  0
 16 18  1  0
 16 14  1  0
 17 16  2  0
 19 18  1  0
 19 25  1  0
 19 20  1  1
 21 20  1  0
 22 21  1  0
 23 22  1  0
 24 23  1  0
 25 26  2  0
 25 27  1  0
M  END
$$$$
