ELK.pdb
     RDKit          3D

 27 26  0  0  1  0  0  0  0  0999 V2000
   20.1407  -12.7740  -16.4148 N   0  0  0  0  0  0  0  0  0  0  0  0
   20.9422  -11.8616  -17.2590 C   0  0  1  0  0  0  0  0  0  0  0  0
   19.9478  -11.1773  -18.1618 C   0  0  0  0  0  0  0  0  0  0  0  0
   18.5444  -11.3306  -17.6926 C   0  0  0  0  0  0  0  0  0  0  0  0
   17.6901  -10.5935  -18.7040 C   0  0  0  0  0  0  0  0  0  0  0  0
   18.1836  -10.1873  -19.7822 O   0  0  0  0  0  0  0  0  0  0  0  0
   21.6009  -10.8436  -16.4105 C   0  0  0  0  0  0  0  0  0  0  0  0
   21.0492  -10.4760  -15.3512 O   0  0  0  0  0  0  0  0  0  0  0  0
   16.3572  -10.3618  -18.4469 O   0  0  0  0  0  0  0  0  0  0  0  0
   25.6267  -10.8313  -14.4801 C   0  0  0  0  0  0  0  0  0  0  0  0
   25.6886  -10.5891  -15.9980 C   0  0  2  0  0  0  0  0  0  0  0  0
   27.1576  -10.6113  -16.3317 C   0  0  0  0  0  0  0  0  0  0  0  0
   25.0135   -9.2851  -16.2383 C   0  0  0  0  0  0  0  0  0  0  0  0
   23.5314   -9.2709  -16.0910 C   0  0  2  0  0  0  0  0  0  0  0  0
   22.8591  -10.3014  -16.8242 N   0  0  0  0  0  0  0  0  0  0  0  0
   22.9534   -7.9253  -16.3370 C   0  0  0  0  0  0  0  0  0  0  0  0
   22.5509   -7.6087  -17.4842 O   0  0  0  0  0  0  0  0  0  0  0  0
   22.8316   -6.9517  -15.3054 N   0  0  0  0  0  0  0  0  0  0  0  0
   22.1594   -5.6819  -15.4883 C   0  0  1  0  0  0  0  0  0  0  0  0
   20.6783   -5.8743  -15.7604 C   0  0  0  0  0  0  0  0  0  0  0  0
   19.9480   -4.5882  -15.9037 C   0  0  0  0  0  0  0  0  0  0  0  0
   18.4923   -4.8459  -16.1585 C   0  0  0  0  0  0  0  0  0  0  0  0
   17.7307   -3.5815  -16.3824 C   0  0  0  0  0  0  0  0  0  0  0  0
   16.3391   -3.8432  -16.7381 N   0  0  0  0  0  0  0  0  0  0  0  0
   22.2742   -4.8805  -14.2455 C   0  0  0  0  0  0  0  0  0  0  0  0
   22.4447   -5.4603  -13.1471 O   0  0  0  0  0  0  0  0  0  0  0  0
   22.2008   -3.5028  -14.2428 O   0  0  0  0  0  0  0  0  0  0  0  0
  2  1  1  1
  2  3  1  0
  3  4  1  0
  4  5  1  0
  5  6  2  0
  7  2  1  0
  7  8  2  0
  9  5  1  0
 11 10  1  1
 11 13  1  0
 12 11  1  0
 14 13  1  6
 14 15  1  0
 15  7  1  0
 16 18  1  0
 16 14  1  0
 17 16  2  0
 19 18  1  0
 19 25  1  0
 19 20  1  1
 21 20  1  0
 22 21  1  0
 23 22  1  0
 24 23  1  0
 25 26  2  0
 25 27  1  0
M  END
$$$$
