ELK.pdb
     RDKit          3D

 27 26  0  0  1  0  0  0  0  0999 V2000
   20.1809  -19.1909  -15.3502 N   0  0  0  0  0  0  0  0  0  0  0  0
   20.2384  -20.5504  -15.9297 C   0  0  1  0  0  0  0  0  0  0  0  0
   21.3621  -20.5084  -16.9335 C   0  0  0  0  0  0  0  0  0  0  0  0
   21.0793  -19.5985  -18.0760 C   0  0  0  0  0  0  0  0  0  0  0  0
   20.4098  -20.4575  -19.1296 C   0  0  0  0  0  0  0  0  0  0  0  0
   19.1773  -20.3670  -19.3392 O   0  0  0  0  0  0  0  0  0  0  0  0
   20.5741  -21.5311  -14.8734 C   0  0  0  0  0  0  0  0  0  0  0  0
   20.7831  -22.7230  -15.1852 O   0  0  0  0  0  0  0  0  0  0  0  0
   21.1526  -21.3498  -19.8701 O   0  0  0  0  0  0  0  0  0  0  0  0
   21.2462  -19.1900  -11.3558 C   0  0  0  0  0  0  0  0  0  0  0  0
   21.7906  -20.4052  -10.5855 C   0  0  2  0  0  0  0  0  0  0  0  0
   22.9414  -19.8646   -9.7774 C   0  0  0  0  0  0  0  0  0  0  0  0
   22.1683  -21.4130  -11.6130 C   0  0  0  0  0  0  0  0  0  0  0  0
   21.0593  -21.9544  -12.4470 C   0  0  2  0  0  0  0  0  0  0  0  0
   20.6519  -21.0903  -13.5140 N   0  0  0  0  0  0  0  0  0  0  0  0
   19.9152  -22.4261  -11.6259 C   0  0  0  0  0  0  0  0  0  0  0  0
   20.0509  -22.5965  -10.3887 O   0  0  0  0  0  0  0  0  0  0  0  0
   18.6382  -22.7018  -12.1916 N   0  0  0  0  0  0  0  0  0  0  0  0
   17.7167  -23.6711  -11.6355 C   0  0  1  0  0  0  0  0  0  0  0  0
   17.4997  -23.4396  -10.1509 C   0  0  0  0  0  0  0  0  0  0  0  0
   17.8608  -24.6213   -9.3257 C   0  0  0  0  0  0  0  0  0  0  0  0
   16.9634  -24.7083   -8.1267 C   0  0  0  0  0  0  0  0  0  0  0  0
   17.2801  -25.8930   -7.2752 C   0  0  0  0  0  0  0  0  0  0  0  0
   16.4524  -25.9328   -6.0732 N   0  0  0  0  0  0  0  0  0  0  0  0
   16.3964  -23.5309  -12.2966 C   0  0  0  0  0  0  0  0  0  0  0  0
   15.4663  -24.3164  -11.9976 O   0  0  0  0  0  0  0  0  0  0  0  0
   16.1406  -22.5589  -13.2417 O   0  0  0  0  0  0  0  0  0  0  0  0
  2  1  1  1
  2  3  1  0
  3  4  1  0
  4  5  1  0
  5  6  2  0
  7  2  1  0
  7  8  2  0
  9  5  1  0
 11 10  1  6
 11 13  1  0
 12 11  1  0
 14 13  1  1
 14 15  1  0
 15  7  1  0
 16 18  1  0
 16 14  1  0
 17 16  2  0
 19 18  1  0
 19 25  1  0
 19 20  1  1
 21 20  1  0
 22 21  1  0
 23 22  1  0
 24 23  1  0
 25 26  2  0
 25 27  1  0
M  END
$$$$
