ELK.pdb
     RDKit          3D

 27 26  0  0  1  0  0  0  0  0999 V2000
   22.4435  -20.1398  -14.1718 N   0  0  0  0  0  0  0  0  0  0  0  0
   22.2381  -19.3796  -15.4237 C   0  0  1  0  0  0  0  0  0  0  0  0
   20.7605  -19.4708  -15.7074 C   0  0  0  0  0  0  0  0  0  0  0  0
   20.3501  -20.8153  -16.1942 C   0  0  0  0  0  0  0  0  0  0  0  0
   20.7692  -20.8712  -17.6493 C   0  0  0  0  0  0  0  0  0  0  0  0
   20.9389  -19.8173  -18.3063 O   0  0  0  0  0  0  0  0  0  0  0  0
   22.6002  -17.9603  -15.2127 C   0  0  0  0  0  0  0  0  0  0  0  0
   22.3261  -17.4113  -14.1241 O   0  0  0  0  0  0  0  0  0  0  0  0
   20.9686  -22.0859  -18.2665 O   0  0  0  0  0  0  0  0  0  0  0  0
   26.1025  -15.3319  -14.4537 C   0  0  0  0  0  0  0  0  0  0  0  0
   26.0723  -16.1169  -15.7763 C   0  0  2  0  0  0  0  0  0  0  0  0
   27.4514  -15.9443  -16.3578 C   0  0  0  0  0  0  0  0  0  0  0  0
   24.9745  -15.5235  -16.5865 C   0  0  0  0  0  0  0  0  0  0  0  0
   23.5858  -15.8558  -16.1624 C   0  0  2  0  0  0  0  0  0  0  0  0
   23.2584  -17.2464  -16.2641 N   0  0  0  0  0  0  0  0  0  0  0  0
   22.5744  -14.9823  -16.8100 C   0  0  0  0  0  0  0  0  0  0  0  0
   22.1844  -15.2237  -17.9795 O   0  0  0  0  0  0  0  0  0  0  0  0
   22.0120  -13.8537  -16.1490 N   0  0  0  0  0  0  0  0  0  0  0  0
   21.0778  -12.9468  -16.7836 C   0  0  1  0  0  0  0  0  0  0  0  0
   20.5139  -11.9484  -15.7888 C   0  0  0  0  0  0  0  0  0  0  0  0
   19.5359  -11.0137  -16.4035 C   0  0  0  0  0  0  0  0  0  0  0  0
   19.0335  -10.0422  -15.3768 C   0  0  0  0  0  0  0  0  0  0  0  0
   18.1436   -9.0042  -15.9765 C   0  0  0  0  0  0  0  0  0  0  0  0
   17.6830   -8.0435  -14.9783 N   0  0  0  0  0  0  0  0  0  0  0  0
   21.7821  -12.1684  -17.8315 C   0  0  0  0  0  0  0  0  0  0  0  0
   21.2276  -11.9758  -18.9392 O   0  0  0  0  0  0  0  0  0  0  0  0
   23.0410  -11.6375  -17.6397 O   0  0  0  0  0  0  0  0  0  0  0  0
  2  1  1  1
  2  3  1  0
  3  4  1  0
  4  5  1  0
  5  6  2  0
  7  2  1  0
  7  8  2  0
  9  5  1  0
 11 10  1  1
 11 13  1  0
 12 11  1  0
 14 13  1  6
 14 15  1  0
 15  7  1  0
 16 18  1  0
 16 14  1  0
 17 16  2  0
 19 18  1  0
 19 25  1  0
 19 20  1  1
 21 20  1  0
 22 21  1  0
 23 22  1  0
 24 23  1  0
 25 26  2  0
 25 27  1  0
M  END
$$$$
