ELK.pdb
     RDKit          3D

 27 26  0  0  1  0  0  0  0  0999 V2000
   26.3271  -19.6284  -15.0542 N   0  0  0  0  0  0  0  0  0  0  0  0
   25.6288  -20.8434  -15.5269 C   0  0  1  0  0  0  0  0  0  0  0  0
   26.7168  -21.8560  -15.7782 C   0  0  0  0  0  0  0  0  0  0  0  0
   27.5313  -21.5385  -16.9819 C   0  0  0  0  0  0  0  0  0  0  0  0
   28.9514  -21.9365  -16.6340 C   0  0  0  0  0  0  0  0  0  0  0  0
   29.1749  -22.8150  -15.7683 O   0  0  0  0  0  0  0  0  0  0  0  0
   24.7346  -21.3528  -14.4633 C   0  0  0  0  0  0  0  0  0  0  0  0
   24.1822  -22.4647  -14.6049 O   0  0  0  0  0  0  0  0  0  0  0  0
   30.0147  -21.3340  -17.2686 O   0  0  0  0  0  0  0  0  0  0  0  0
   25.9127  -22.2435  -10.7750 C   0  0  0  0  0  0  0  0  0  0  0  0
   25.5390  -20.7545  -10.6754 C   0  0  2  0  0  0  0  0  0  0  0  0
   26.0042  -20.3318   -9.3062 C   0  0  0  0  0  0  0  0  0  0  0  0
   24.0679  -20.6806  -10.8852 C   0  0  0  0  0  0  0  0  0  0  0  0
   23.5851  -20.9231  -12.2733 C   0  0  2  0  0  0  0  0  0  0  0  0
   24.5223  -20.5573  -13.2927 N   0  0  0  0  0  0  0  0  0  0  0  0
   22.2344  -20.3521  -12.5081 C   0  0  0  0  0  0  0  0  0  0  0  0
   21.6030  -19.8109  -11.5665 O   0  0  0  0  0  0  0  0  0  0  0  0
   21.6056  -20.3912  -13.7847 N   0  0  0  0  0  0  0  0  0  0  0  0
   20.2896  -19.8420  -14.0381 C   0  0  1  0  0  0  0  0  0  0  0  0
   20.2034  -19.2297  -15.4246 C   0  0  0  0  0  0  0  0  0  0  0  0
   18.8408  -18.7352  -15.7513 C   0  0  0  0  0  0  0  0  0  0  0  0
   18.8023  -18.2175  -17.1587 C   0  0  0  0  0  0  0  0  0  0  0  0
   17.4790  -17.6151  -17.4977 C   0  0  0  0  0  0  0  0  0  0  0  0
   17.3913  -17.2609  -18.9113 N   0  0  0  0  0  0  0  0  0  0  0  0
   19.2824  -20.9291  -13.9778 C   0  0  0  0  0  0  0  0  0  0  0  0
   18.1525  -20.7013  -13.4849 O   0  0  0  0  0  0  0  0  0  0  0  0
   19.5365  -22.2013  -14.4472 O   0  0  0  0  0  0  0  0  0  0  0  0
  2  1  1  1
  2  3  1  0
  3  4  1  0
  4  5  1  0
  5  6  2  0
  7  2  1  0
  7  8  2  0
  9  5  1  0
 11 10  1  1
 11 13  1  0
 12 11  1  0
 14 13  1  1
 14 15  1  0
 15  7  1  0
 16 18  1  0
 16 14  1  0
 17 16  2  0
 19 18  1  0
 19 25  1  0
 19 20  1  6
 21 20  1  0
 22 21  1  0
 23 22  1  0
 24 23  1  0
 25 26  2  0
 25 27  1  0
M  END
$$$$
