ELK.pdb
     RDKit          3D

 27 26  0  0  1  0  0  0  0  0999 V2000
   26.9077  -18.2319  -14.5787 N   0  0  0  0  0  0  0  0  0  0  0  0
   26.3688  -19.2428  -15.5140 C   0  0  1  0  0  0  0  0  0  0  0  0
   27.5615  -20.0508  -15.9578 C   0  0  0  0  0  0  0  0  0  0  0  0
   28.6132  -19.2183  -16.6012 C   0  0  0  0  0  0  0  0  0  0  0  0
   28.1447  -18.9917  -18.0243 C   0  0  0  0  0  0  0  0  0  0  0  0
   27.4588  -19.8575  -18.6167 O   0  0  0  0  0  0  0  0  0  0  0  0
   25.4246  -20.1317  -14.8010 C   0  0  0  0  0  0  0  0  0  0  0  0
   24.9691  -21.1388  -15.3839 O   0  0  0  0  0  0  0  0  0  0  0  0
   28.4696  -17.8269  -18.6832 O   0  0  0  0  0  0  0  0  0  0  0  0
   26.1865  -22.1961  -11.0711 C   0  0  0  0  0  0  0  0  0  0  0  0
   25.7809  -20.7356  -10.8080 C   0  0  2  0  0  0  0  0  0  0  0  0
   26.0114  -20.5320   -9.3332 C   0  0  0  0  0  0  0  0  0  0  0  0
   24.3625  -20.6141  -11.2408 C   0  0  0  0  0  0  0  0  0  0  0  0
   24.1182  -20.6046  -12.7101 C   0  0  2  0  0  0  0  0  0  0  0  0
   25.0534  -19.8163  -13.4553 N   0  0  0  0  0  0  0  0  0  0  0  0
   22.7072  -20.2843  -13.0447 C   0  0  0  0  0  0  0  0  0  0  0  0
   22.2629  -19.1222  -12.8707 O   0  0  0  0  0  0  0  0  0  0  0  0
   21.8112  -21.2595  -13.5671 N   0  0  0  0  0  0  0  0  0  0  0  0
   20.4211  -20.9814  -13.8642 C   0  0  1  0  0  0  0  0  0  0  0  0
   19.7773  -22.1286  -14.6219 C   0  0  0  0  0  0  0  0  0  0  0  0
   18.3916  -21.8215  -15.0619 C   0  0  0  0  0  0  0  0  0  0  0  0
   17.7882  -23.0154  -15.7407 C   0  0  0  0  0  0  0  0  0  0  0  0
   18.3704  -23.2422  -17.0966 C   0  0  0  0  0  0  0  0  0  0  0  0
   17.6368  -24.2645  -17.8370 N   0  0  0  0  0  0  0  0  0  0  0  0
   19.6694  -20.8199  -12.5958 C   0  0  0  0  0  0  0  0  0  0  0  0
   19.9590  -21.5349  -11.6077 O   0  0  0  0  0  0  0  0  0  0  0  0
   18.6485  -19.9032  -12.4512 O   0  0  0  0  0  0  0  0  0  0  0  0
  2  1  1  1
  2  3  1  0
  3  4  1  0
  4  5  1  0
  5  6  2  0
  7  2  1  0
  7  8  2  0
  9  5  1  0
 11 10  1  1
 11 13  1  0
 12 11  1  0
 14 13  1  1
 14 15  1  0
 15  7  1  0
 16 18  1  0
 16 14  1  0
 17 16  2  0
 19 18  1  0
 19 25  1  0
 19 20  1  1
 21 20  1  0
 22 21  1  0
 23 22  1  0
 24 23  1  0
 25 26  2  0
 25 27  1  0
M  END
$$$$
