ELK.pdb
     RDKit          3D

 27 26  0  0  1  0  0  0  0  0999 V2000
   21.8693  -33.4113  -12.0081 N   0  0  0  0  0  0  0  0  0  0  0  0
   22.6434  -34.6008  -12.4243 C   0  0  1  0  0  0  0  0  0  0  0  0
   23.4896  -34.1399  -13.5835 C   0  0  0  0  0  0  0  0  0  0  0  0
   22.7044  -33.9639  -14.8348 C   0  0  0  0  0  0  0  0  0  0  0  0
   23.2530  -34.9846  -15.8112 C   0  0  0  0  0  0  0  0  0  0  0  0
   22.7911  -36.1493  -15.8448 O   0  0  0  0  0  0  0  0  0  0  0  0
   23.5319  -35.0309  -11.3218 C   0  0  0  0  0  0  0  0  0  0  0  0
   24.3114  -35.9912  -11.4995 O   0  0  0  0  0  0  0  0  0  0  0  0
   24.2689  -34.6405  -16.6749 O   0  0  0  0  0  0  0  0  0  0  0  0
   26.7896  -33.0256   -9.0366 C   0  0  0  0  0  0  0  0  0  0  0  0
   25.4054  -32.4567   -8.6804 C   0  0  2  0  0  0  0  0  0  0  0  0
   25.6909  -31.2949   -7.7648 C   0  0  0  0  0  0  0  0  0  0  0  0
   24.6462  -33.5728   -8.0545 C   0  0  0  0  0  0  0  0  0  0  0  0
   24.2825  -34.7078   -8.9481 C   0  0  2  0  0  0  0  0  0  0  0  0
   23.4779  -34.3345  -10.0726 N   0  0  0  0  0  0  0  0  0  0  0  0
   23.7161  -35.8571   -8.1972 C   0  0  0  0  0  0  0  0  0  0  0  0
   22.4785  -35.9343   -7.9958 O   0  0  0  0  0  0  0  0  0  0  0  0
   24.5328  -36.9028   -7.6812 N   0  0  0  0  0  0  0  0  0  0  0  0
   23.9955  -38.1036   -7.0754 C   0  0  1  0  0  0  0  0  0  0  0  0
   25.0698  -39.1613   -6.8967 C   0  0  0  0  0  0  0  0  0  0  0  0
   24.5365  -40.4362   -6.3506 C   0  0  0  0  0  0  0  0  0  0  0  0
   25.6629  -41.3779   -6.0426 C   0  0  0  0  0  0  0  0  0  0  0  0
   25.1729  -42.6739   -5.4865 C   0  0  0  0  0  0  0  0  0  0  0  0
   26.2703  -43.5012   -4.9936 N   0  0  0  0  0  0  0  0  0  0  0  0
   23.4712  -37.7818   -5.7257 C   0  0  0  0  0  0  0  0  0  0  0  0
   24.1134  -37.0057   -4.9795 O   0  0  0  0  0  0  0  0  0  0  0  0
   22.2889  -38.3065   -5.2457 O   0  0  0  0  0  0  0  0  0  0  0  0
  2  1  1  1
  2  3  1  0
  3  4  1  0
  4  5  1  0
  5  6  2  0
  7  2  1  0
  7  8  2  0
  9  5  1  0
 11 10  1  1
 11 13  1  0
 12 11  1  0
 14 13  1  1
 14 15  1  0
 15  7  1  0
 16 18  1  0
 16 14  1  0
 17 16  2  0
 19 18  1  0
 19 25  1  0
 19 20  1  1
 21 20  1  0
 22 21  1  0
 23 22  1  0
 24 23  1  0
 25 26  2  0
 25 27  1  0
M  END
$$$$
