ELK.pdb
     RDKit          3D

 27 26  0  0  1  0  0  0  0  0999 V2000
   20.0493  -12.9959  -17.2103 N   0  0  0  0  0  0  0  0  0  0  0  0
   20.8982  -11.9832  -17.8744 C   0  0  1  0  0  0  0  0  0  0  0  0
   19.9505  -11.1424  -18.6911 C   0  0  0  0  0  0  0  0  0  0  0  0
   19.4132  -11.8662  -19.8746 C   0  0  0  0  0  0  0  0  0  0  0  0
   20.1787  -11.3294  -21.0670 C   0  0  0  0  0  0  0  0  0  0  0  0
   21.3218  -11.7645  -21.3411 O   0  0  0  0  0  0  0  0  0  0  0  0
   21.5450  -11.1263  -16.8558 C   0  0  0  0  0  0  0  0  0  0  0  0
   20.8985  -10.7790  -15.8444 O   0  0  0  0  0  0  0  0  0  0  0  0
   19.6231  -10.3539  -21.8646 O   0  0  0  0  0  0  0  0  0  0  0  0
   27.0492  -11.2946  -15.4185 C   0  0  0  0  0  0  0  0  0  0  0  0
   25.5304  -11.1879  -15.1983 C   0  0  2  0  0  0  0  0  0  0  0  0
   24.9932  -12.5494  -15.5552 C   0  0  0  0  0  0  0  0  0  0  0  0
   25.0603  -10.0818  -16.0754 C   0  0  0  0  0  0  0  0  0  0  0  0
   23.5882   -9.8612  -16.1298 C   0  0  2  0  0  0  0  0  0  0  0  0
   22.9011  -10.7134  -17.0533 N   0  0  0  0  0  0  0  0  0  0  0  0
   23.2391   -8.4286  -16.3066 C   0  0  0  0  0  0  0  0  0  0  0  0
   23.2559   -7.9089  -17.4502 O   0  0  0  0  0  0  0  0  0  0  0  0
   22.8772   -7.5951  -15.2107 N   0  0  0  0  0  0  0  0  0  0  0  0
   22.4283   -6.2272  -15.3688 C   0  0  1  0  0  0  0  0  0  0  0  0
   21.1236   -6.1591  -16.1420 C   0  0  0  0  0  0  0  0  0  0  0  0
   20.6173   -4.7705  -16.2948 C   0  0  0  0  0  0  0  0  0  0  0  0
   19.2862   -4.7787  -16.9865 C   0  0  0  0  0  0  0  0  0  0  0  0
   18.7144   -3.4057  -17.1166 C   0  0  0  0  0  0  0  0  0  0  0  0
   17.3901   -3.4265  -17.7307 N   0  0  0  0  0  0  0  0  0  0  0  0
   22.1752   -5.6346  -14.0328 C   0  0  0  0  0  0  0  0  0  0  0  0
   21.8098   -6.3712  -13.0865 O   0  0  0  0  0  0  0  0  0  0  0  0
   22.3260   -4.2868  -13.7796 O   0  0  0  0  0  0  0  0  0  0  0  0
  2  1  1  1
  2  3  1  0
  3  4  1  0
  4  5  1  0
  5  6  2  0
  7  2  1  0
  7  8  2  0
  9  5  1  0
 11 10  1  6
 11 13  1  0
 12 11  1  0
 14 13  1  6
 14 15  1  0
 15  7  1  0
 16 18  1  0
 16 14  1  0
 17 16  2  0
 19 18  1  0
 19 25  1  0
 19 20  1  6
 21 20  1  0
 22 21  1  0
 23 22  1  0
 24 23  1  0
 25 26  2  0
 25 27  1  0
M  END
$$$$
