CWH.pdb
     RDKit          3D

 31 33  0  0  1  0  0  0  0  0999 V2000
   11.3478  -16.1737   18.5741 N   0  0  0  0  0  0  0  0  0  0  0  0
    9.9824  -16.5402   18.9658 C   0  0  1  0  0  0  0  0  0  0  0  0
    9.8031  -18.0350   18.7694 C   0  0  0  0  0  0  0  0  0  0  0  0
   10.8837  -18.9265   19.8967 S   0  0  0  0  0  0  0  0  0  0  0  0
    9.6942  -16.0847   20.3363 C   0  0  0  0  0  0  0  0  0  0  0  0
   10.6935  -15.8282   21.0829 O   0  0  0  0  0  0  0  0  0  0  0  0
    8.4180  -15.8998   20.9123 N   0  0  0  0  0  0  0  0  0  0  0  0
    8.2776  -15.5469   22.2905 C   0  0  1  0  0  0  0  0  0  0  0  0
    6.8942  -15.0730   22.6816 C   0  0  0  0  0  0  0  0  0  0  0  0
    6.7752  -14.8325   24.1517 C   0  0  0  0  0  0  0  0  0  0  0  0
    6.4135  -15.8283   25.0628 C   0  0  0  0  0  0  0  0  0  0  0  0
    6.4346  -15.2605   26.2658 N   0  0  0  0  0  0  0  0  0  0  0  0
    6.7835  -13.9738   26.1859 C   0  0  0  0  0  0  0  0  0  0  0  0
    6.9394  -12.9798   27.1194 C   0  0  0  0  0  0  0  0  0  0  0  0
    7.3065  -11.7096   26.7567 C   0  0  0  0  0  0  0  0  0  0  0  0
    7.5174  -11.4533   25.4139 C   0  0  0  0  0  0  0  0  0  0  0  0
    7.3708  -12.4273   24.4447 C   0  0  0  0  0  0  0  0  0  0  0  0
    7.0007  -13.6909   24.8583 C   0  0  0  0  0  0  0  0  0  0  0  0
    8.7566  -16.6046   23.2090 C   0  0  0  0  0  0  0  0  0  0  0  0
    8.4827  -17.8249   23.0729 O   0  0  0  0  0  0  0  0  0  0  0  0
    9.5726  -16.2471   24.3132 N   0  0  0  0  0  0  0  0  0  0  0  0
   10.2982  -17.2810   25.0437 C   0  0  1  0  0  0  0  0  0  0  0  0
   11.6974  -17.3454   24.4704 C   0  0  0  0  0  0  0  0  0  0  0  0
   12.5591  -18.3153   25.1537 C   0  0  0  0  0  0  0  0  0  0  0  0
   12.1881  -19.1678   26.1808 C   0  0  0  0  0  0  0  0  0  0  0  0
   13.2657  -19.8792   26.5134 N   0  0  0  0  0  0  0  0  0  0  0  0
   14.2839  -19.5042   25.7384 C   0  0  0  0  0  0  0  0  0  0  0  0
   13.8658  -18.5375   24.8908 N   0  0  0  0  0  0  0  0  0  0  0  0
   10.3049  -16.9414   26.4773 C   0  0  0  0  0  0  0  0  0  0  0  0
   10.6679  -17.9285   27.3853 O   0  0  0  0  0  0  0  0  0  0  0  0
   10.0020  -15.8120   26.9301 O   0  0  0  0  0  0  0  0  0  0  0  0
  2  1  1  1
  3  2  1  0
  4  3  1  0
  5  6  2  0
  5  2  1  0
  7  5  1  0
  8  9  1  1
  8  7  1  0
 10 18  1  0
 10  9  1  0
 11 10  2  0
 12 11  1  0
 12 13  1  0
 13 14  1  0
 13 18  2  0
 14 15  2  0
 15 16  1  0
 17 16  2  0
 18 17  1  0
 19  8  1  0
 20 19  2  0
 21 19  1  0
 22 29  1  0
 22 21  1  0
 22 23  1  6
 24 23  1  0
 25 24  2  0
 26 27  1  0
 26 25  1  0
 27 28  2  0
 28 24  1  0
 29 30  1  0
 31 29  2  0
M  END
$$$$
