CWH.pdb
     RDKit          3D

 31 33  0  0  1  0  0  0  0  0999 V2000
   10.7635  -19.2984   25.6809 N   0  0  0  0  0  0  0  0  0  0  0  0
   10.3620  -17.8877   25.7082 C   0  0  1  0  0  0  0  0  0  0  0  0
   11.6075  -17.0283   25.8330 C   0  0  0  0  0  0  0  0  0  0  0  0
   12.9692  -17.8063   24.9534 S   0  0  0  0  0  0  0  0  0  0  0  0
    9.5321  -17.5601   24.5365 C   0  0  0  0  0  0  0  0  0  0  0  0
    9.3454  -18.4863   23.6825 O   0  0  0  0  0  0  0  0  0  0  0  0
    8.9164  -16.3195   24.2600 N   0  0  0  0  0  0  0  0  0  0  0  0
    8.1020  -16.1459   23.0980 C   0  0  1  0  0  0  0  0  0  0  0  0
    7.0433  -15.0715   23.2256 C   0  0  0  0  0  0  0  0  0  0  0  0
    6.7626  -14.7229   24.6514 C   0  0  0  0  0  0  0  0  0  0  0  0
    6.1632  -15.6081   25.5514 C   0  0  0  0  0  0  0  0  0  0  0  0
    6.0962  -14.9689   26.7164 N   0  0  0  0  0  0  0  0  0  0  0  0
    6.6097  -13.7396   26.6225 C   0  0  0  0  0  0  0  0  0  0  0  0
    6.7635  -12.7116   27.5187 C   0  0  0  0  0  0  0  0  0  0  0  0
    7.3301  -11.5192   27.1484 C   0  0  0  0  0  0  0  0  0  0  0  0
    7.7462  -11.3778   25.8369 C   0  0  0  0  0  0  0  0  0  0  0  0
    7.6086  -12.3895   24.9057 C   0  0  0  0  0  0  0  0  0  0  0  0
    7.0332  -13.5715   25.3256 C   0  0  0  0  0  0  0  0  0  0  0  0
    8.8934  -15.9677   21.8595 C   0  0  0  0  0  0  0  0  0  0  0  0
    8.3828  -15.8072   20.7210 O   0  0  0  0  0  0  0  0  0  0  0  0
   10.3101  -15.9745   21.9347 N   0  0  0  0  0  0  0  0  0  0  0  0
   11.1017  -15.7984   20.7217 C   0  0  1  0  0  0  0  0  0  0  0  0
   10.9128  -14.3698   20.2591 C   0  0  0  0  0  0  0  0  0  0  0  0
    9.7455  -14.1923   19.3895 C   0  0  0  0  0  0  0  0  0  0  0  0
    8.8542  -15.1766   18.9947 C   0  0  0  0  0  0  0  0  0  0  0  0
    7.9450  -14.5959   18.2111 N   0  0  0  0  0  0  0  0  0  0  0  0
    8.2351  -13.2989   18.1048 C   0  0  0  0  0  0  0  0  0  0  0  0
    9.3460  -13.0303   18.8272 N   0  0  0  0  0  0  0  0  0  0  0  0
   12.5127  -16.0991   21.0209 C   0  0  0  0  0  0  0  0  0  0  0  0
   12.8439  -16.4790   22.3157 O   0  0  0  0  0  0  0  0  0  0  0  0
   13.4364  -16.0328   20.1756 O   0  0  0  0  0  0  0  0  0  0  0  0
  2  1  1  6
  3  2  1  0
  4  3  1  0
  5  6  2  0
  5  2  1  0
  7  5  1  0
  8  9  1  1
  8  7  1  0
 10 18  1  0
 10  9  1  0
 11 10  2  0
 12 11  1  0
 12 13  1  0
 13 14  1  0
 13 18  2  0
 14 15  2  0
 15 16  1  0
 17 16  2  0
 18 17  1  0
 19  8  1  0
 20 19  2  0
 21 19  1  0
 22 29  1  0
 22 21  1  0
 22 23  1  1
 24 23  1  0
 25 24  2  0
 26 27  1  0
 26 25  1  0
 27 28  2  0
 28 24  1  0
 29 30  1  0
 31 29  2  0
M  END
$$$$
