CWH.pdb
     RDKit          3D

 31 33  0  0  1  0  0  0  0  0999 V2000
    7.1018  -15.2937   20.3259 N   0  0  0  0  0  0  0  0  0  0  0  0
    7.3040  -16.3539   21.3195 C   0  0  1  0  0  0  0  0  0  0  0  0
    7.7061  -17.6280   20.5983 C   0  0  0  0  0  0  0  0  0  0  0  0
    7.8902  -18.9635   21.7882 S   0  0  0  0  0  0  0  0  0  0  0  0
    8.2680  -15.9265   22.3477 C   0  0  0  0  0  0  0  0  0  0  0  0
    9.1609  -15.0911   21.9920 O   0  0  0  0  0  0  0  0  0  0  0  0
    8.3050  -16.3474   23.6953 N   0  0  0  0  0  0  0  0  0  0  0  0
    9.2572  -15.8002   24.6105 C   0  0  1  0  0  0  0  0  0  0  0  0
    8.7089  -15.5097   25.9912 C   0  0  0  0  0  0  0  0  0  0  0  0
    7.5060  -14.6242   25.9454 C   0  0  0  0  0  0  0  0  0  0  0  0
    6.2011  -15.1118   25.8355 C   0  0  0  0  0  0  0  0  0  0  0  0
    5.4018  -14.0482   25.8491 N   0  0  0  0  0  0  0  0  0  0  0  0
    6.1046  -12.9180   25.9595 C   0  0  0  0  0  0  0  0  0  0  0  0
    5.7547  -11.5918   26.0098 C   0  0  0  0  0  0  0  0  0  0  0  0
    6.7016  -10.6063   26.1192 C   0  0  0  0  0  0  0  0  0  0  0  0
    8.0303  -10.9864   26.1778 C   0  0  0  0  0  0  0  0  0  0  0  0
    8.4219  -12.3107   26.1303 C   0  0  0  0  0  0  0  0  0  0  0  0
    7.4328  -13.2668   26.0207 C   0  0  0  0  0  0  0  0  0  0  0  0
   10.5040  -16.5944   24.6900 C   0  0  0  0  0  0  0  0  0  0  0  0
   11.4889  -16.2790   25.4063 O   0  0  0  0  0  0  0  0  0  0  0  0
   10.6193  -17.7833   23.9243 N   0  0  0  0  0  0  0  0  0  0  0  0
   11.8595  -18.5510   23.9589 C   0  0  1  0  0  0  0  0  0  0  0  0
   12.9558  -17.6688   23.4018 C   0  0  0  0  0  0  0  0  0  0  0  0
   14.2749  -18.3096   23.4097 C   0  0  0  0  0  0  0  0  0  0  0  0
   14.6558  -19.4029   24.1705 C   0  0  0  0  0  0  0  0  0  0  0  0
   15.9304  -19.6634   23.8784 N   0  0  0  0  0  0  0  0  0  0  0  0
   16.3526  -18.7808   22.9725 C   0  0  0  0  0  0  0  0  0  0  0  0
   15.3420  -17.9350   22.6702 N   0  0  0  0  0  0  0  0  0  0  0  0
   12.1330  -18.9596   25.3478 C   0  0  0  0  0  0  0  0  0  0  0  0
   12.3979  -20.3003   25.5988 O   0  0  0  0  0  0  0  0  0  0  0  0
   12.1413  -18.1688   26.3208 O   0  0  0  0  0  0  0  0  0  0  0  0
  2  1  1  6
  3  2  1  0
  4  3  1  0
  5  6  2  0
  5  2  1  0
  7  5  1  0
  8  9  1  1
  8  7  1  0
 10 18  1  0
 10  9  1  0
 11 10  2  0
 12 11  1  0
 12 13  1  0
 13 14  1  0
 13 18  2  0
 14 15  2  0
 15 16  1  0
 17 16  2  0
 18 17  1  0
 19  8  1  0
 20 19  2  0
 21 19  1  0
 22 29  1  0
 22 21  1  0
 22 23  1  1
 24 23  1  0
 25 24  2  0
 26 27  1  0
 26 25  1  0
 27 28  2  0
 28 24  1  0
 29 30  1  0
 31 29  2  0
M  END
$$$$
