CWH.pdb
     RDKit          3D

 31 33  0  0  1  0  0  0  0  0999 V2000
    9.5940  -16.0531   20.7899 N   0  0  0  0  0  0  0  0  0  0  0  0
    9.1329  -17.1624   21.6319 C   0  0  1  0  0  0  0  0  0  0  0  0
    9.7709  -18.4483   21.1371 C   0  0  0  0  0  0  0  0  0  0  0  0
   11.4947  -18.5024   21.6460 S   0  0  0  0  0  0  0  0  0  0  0  0
    9.3952  -16.8806   23.0534 C   0  0  0  0  0  0  0  0  0  0  0  0
   10.2554  -15.9789   23.3154 O   0  0  0  0  0  0  0  0  0  0  0  0
    8.7876  -17.5084   24.1632 N   0  0  0  0  0  0  0  0  0  0  0  0
    9.2118  -17.2155   25.4966 C   0  0  1  0  0  0  0  0  0  0  0  0
    8.1095  -16.7386   26.4179 C   0  0  0  0  0  0  0  0  0  0  0  0
    7.3946  -15.5455   25.8714 C   0  0  0  0  0  0  0  0  0  0  0  0
    6.2901  -15.6391   25.0206 C   0  0  0  0  0  0  0  0  0  0  0  0
    5.9098  -14.3905   24.7623 N   0  0  0  0  0  0  0  0  0  0  0  0
    6.6936  -13.5084   25.3877 C   0  0  0  0  0  0  0  0  0  0  0  0
    6.7180  -12.1369   25.4351 C   0  0  0  0  0  0  0  0  0  0  0  0
    7.6613  -11.4636   26.1677 C   0  0  0  0  0  0  0  0  0  0  0  0
    8.5960  -12.2087   26.8638 C   0  0  0  0  0  0  0  0  0  0  0  0
    8.6039  -13.5903   26.8411 C   0  0  0  0  0  0  0  0  0  0  0  0
    7.6343  -14.2233   26.0902 C   0  0  0  0  0  0  0  0  0  0  0  0
    9.9796  -18.3206   26.1140 C   0  0  0  0  0  0  0  0  0  0  0  0
    9.5852  -19.5148   26.1425 O   0  0  0  0  0  0  0  0  0  0  0  0
   11.2348  -18.0425   26.7142 N   0  0  0  0  0  0  0  0  0  0  0  0
   11.9448  -19.0958   27.4320 C   0  0  1  0  0  0  0  0  0  0  0  0
   13.4134  -18.7304   27.4394 C   0  0  0  0  0  0  0  0  0  0  0  0
   14.0548  -18.8835   26.1296 C   0  0  0  0  0  0  0  0  0  0  0  0
   13.4752  -19.4025   24.9834 C   0  0  0  0  0  0  0  0  0  0  0  0
   14.3972  -19.3628   24.0209 N   0  0  0  0  0  0  0  0  0  0  0  0
   15.5184  -18.8430   24.5214 C   0  0  0  0  0  0  0  0  0  0  0  0
   15.3258  -18.5403   25.8249 N   0  0  0  0  0  0  0  0  0  0  0  0
   11.3962  -19.2020   28.7953 C   0  0  0  0  0  0  0  0  0  0  0  0
   10.4018  -18.3092   29.1754 O   0  0  0  0  0  0  0  0  0  0  0  0
   11.7732  -20.0518   29.6367 O   0  0  0  0  0  0  0  0  0  0  0  0
  2  1  1  6
  3  2  1  0
  4  3  1  0
  5  6  2  0
  5  2  1  0
  7  5  1  0
  8  9  1  1
  8  7  1  0
 10 18  1  0
 10  9  1  0
 11 10  2  0
 12 11  1  0
 12 13  1  0
 13 14  1  0
 13 18  2  0
 14 15  2  0
 15 16  1  0
 17 16  2  0
 18 17  1  0
 19  8  1  0
 20 19  2  0
 21 19  1  0
 22 29  1  0
 22 21  1  0
 22 23  1  1
 24 23  1  0
 25 24  2  0
 26 27  1  0
 26 25  1  0
 27 28  2  0
 28 24  1  0
 29 30  1  0
 31 29  2  0
M  END
$$$$
