CWH.pdb
     RDKit          3D

 31 33  0  0  1  0  0  0  0  0999 V2000
    7.4094  -16.7275   20.5272 N   0  0  0  0  0  0  0  0  0  0  0  0
    8.4253  -15.6729   20.6166 C   0  0  1  0  0  0  0  0  0  0  0  0
    7.7982  -14.3549   20.1984 C   0  0  0  0  0  0  0  0  0  0  0  0
    7.0161  -14.5412   18.5900 S   0  0  0  0  0  0  0  0  0  0  0  0
    9.0265  -15.6421   21.9606 C   0  0  0  0  0  0  0  0  0  0  0  0
   10.0429  -14.8922   22.1228 O   0  0  0  0  0  0  0  0  0  0  0  0
    8.5901  -16.3602   23.0958 N   0  0  0  0  0  0  0  0  0  0  0  0
    9.3610  -16.3713   24.2997 C   0  0  1  0  0  0  0  0  0  0  0  0
    8.5419  -16.4174   25.5718 C   0  0  0  0  0  0  0  0  0  0  0  0
    7.5238  -15.3249   25.6268 C   0  0  0  0  0  0  0  0  0  0  0  0
    6.1769  -15.5179   25.3088 C   0  0  0  0  0  0  0  0  0  0  0  0
    5.5770  -14.3447   25.4929 N   0  0  0  0  0  0  0  0  0  0  0  0
    6.4460  -13.4180   25.9051 C   0  0  0  0  0  0  0  0  0  0  0  0
    6.3265  -12.0871   26.2184 C   0  0  0  0  0  0  0  0  0  0  0  0
    7.4093  -11.3466   26.6171 C   0  0  0  0  0  0  0  0  0  0  0  0
    8.6360  -11.9808   26.6960 C   0  0  0  0  0  0  0  0  0  0  0  0
    8.7963  -13.3186   26.3891 C   0  0  0  0  0  0  0  0  0  0  0  0
    7.6773  -14.0228   25.9933 C   0  0  0  0  0  0  0  0  0  0  0  0
   10.4094  -17.4166   24.3044 C   0  0  0  0  0  0  0  0  0  0  0  0
   10.2756  -18.5429   23.7602 O   0  0  0  0  0  0  0  0  0  0  0  0
   11.6445  -17.1575   24.9528 N   0  0  0  0  0  0  0  0  0  0  0  0
   12.6884  -18.1768   24.9588 C   0  0  1  0  0  0  0  0  0  0  0  0
   14.0123  -17.4726   24.7535 C   0  0  0  0  0  0  0  0  0  0  0  0
   15.1637  -18.3796   24.7984 C   0  0  0  0  0  0  0  0  0  0  0  0
   15.1257  -19.7635   24.7459 C   0  0  0  0  0  0  0  0  0  0  0  0
   16.3848  -20.1967   24.8151 N   0  0  0  0  0  0  0  0  0  0  0  0
   17.1971  -19.1434   24.9079 C   0  0  0  0  0  0  0  0  0  0  0  0
   16.4596  -18.0103   24.8991 N   0  0  0  0  0  0  0  0  0  0  0  0
   12.6433  -18.9033   26.2397 C   0  0  0  0  0  0  0  0  0  0  0  0
   13.3584  -20.0896   26.3485 O   0  0  0  0  0  0  0  0  0  0  0  0
   11.9966  -18.5153   27.2415 O   0  0  0  0  0  0  0  0  0  0  0  0
  2  1  1  1
  3  2  1  0
  4  3  1  0
  5  6  2  0
  5  2  1  0
  7  5  1  0
  8  9  1  1
  8  7  1  0
 10 18  1  0
 10  9  1  0
 11 10  2  0
 12 11  1  0
 12 13  1  0
 13 14  1  0
 13 18  2  0
 14 15  2  0
 15 16  1  0
 17 16  2  0
 18 17  1  0
 19  8  1  0
 20 19  2  0
 21 19  1  0
 22 29  1  0
 22 21  1  0
 22 23  1  1
 24 23  1  0
 25 24  2  0
 26 27  1  0
 26 25  1  0
 27 28  2  0
 28 24  1  0
 29 30  1  0
 31 29  2  0
M  END
$$$$
