CWH.pdb
     RDKit          3D

 31 33  0  0  1  0  0  0  0  0999 V2000
    9.7038  -18.6061   21.2251 N   0  0  0  0  0  0  0  0  0  0  0  0
   10.2951  -17.2707   21.3638 C   0  0  1  0  0  0  0  0  0  0  0  0
    9.7710  -16.3866   20.2461 C   0  0  0  0  0  0  0  0  0  0  0  0
    8.0163  -16.0795   20.4908 S   0  0  0  0  0  0  0  0  0  0  0  0
   10.0484  -16.7297   22.7111 C   0  0  0  0  0  0  0  0  0  0  0  0
   10.6779  -15.6707   23.0336 O   0  0  0  0  0  0  0  0  0  0  0  0
    9.1804  -17.2648   23.6883 N   0  0  0  0  0  0  0  0  0  0  0  0
    9.0210  -16.6275   24.9580 C   0  0  1  0  0  0  0  0  0  0  0  0
    7.6093  -16.1735   25.2621 C   0  0  0  0  0  0  0  0  0  0  0  0
    7.3375  -14.7959   24.7509 C   0  0  0  0  0  0  0  0  0  0  0  0
    7.0807  -14.5160   23.4061 C   0  0  0  0  0  0  0  0  0  0  0  0
    6.8643  -13.2053   23.3314 N   0  0  0  0  0  0  0  0  0  0  0  0
    6.9655  -12.6304   24.5326 C   0  0  0  0  0  0  0  0  0  0  0  0
    6.8400  -11.3360   24.9714 C   0  0  0  0  0  0  0  0  0  0  0  0
    7.0068  -11.0098   26.2926 C   0  0  0  0  0  0  0  0  0  0  0  0
    7.3074  -12.0277   27.1797 C   0  0  0  0  0  0  0  0  0  0  0  0
    7.4416  -13.3426   26.7763 C   0  0  0  0  0  0  0  0  0  0  0  0
    7.2640  -13.6221   25.4366 C   0  0  0  0  0  0  0  0  0  0  0  0
    9.5763  -17.4224   26.0768 C   0  0  0  0  0  0  0  0  0  0  0  0
    9.4911  -17.0828   27.2851 O   0  0  0  0  0  0  0  0  0  0  0  0
   10.2472  -18.6407   25.7962 N   0  0  0  0  0  0  0  0  0  0  0  0
   10.8406  -19.4095   26.8851 C   0  0  1  0  0  0  0  0  0  0  0  0
   10.1587  -20.7604   26.9118 C   0  0  0  0  0  0  0  0  0  0  0  0
    8.7244  -20.6794   27.2062 C   0  0  0  0  0  0  0  0  0  0  0  0
    8.1493  -20.2731   28.3993 C   0  0  0  0  0  0  0  0  0  0  0  0
    6.8268  -20.3460   28.2461 N   0  0  0  0  0  0  0  0  0  0  0  0
    6.5604  -20.7784   27.0133 C   0  0  0  0  0  0  0  0  0  0  0  0
    7.7221  -20.9901   26.3549 N   0  0  0  0  0  0  0  0  0  0  0  0
   12.2909  -19.5284   26.6546 C   0  0  0  0  0  0  0  0  0  0  0  0
   12.8294  -18.9221   25.5263 O   0  0  0  0  0  0  0  0  0  0  0  0
   13.0720  -20.1455   27.4170 O   0  0  0  0  0  0  0  0  0  0  0  0
  2  1  1  1
  3  2  1  0
  4  3  1  0
  5  6  2  0
  5  2  1  0
  7  5  1  0
  8  9  1  1
  8  7  1  0
 10 18  1  0
 10  9  1  0
 11 10  2  0
 12 11  1  0
 12 13  1  0
 13 14  1  0
 13 18  2  0
 14 15  2  0
 15 16  1  0
 17 16  2  0
 18 17  1  0
 19  8  1  0
 20 19  2  0
 21 19  1  0
 22 29  1  0
 22 21  1  0
 22 23  1  6
 24 23  1  0
 25 24  2  0
 26 27  1  0
 26 25  1  0
 27 28  2  0
 28 24  1  0
 29 30  1  0
 31 29  2  0
M  END
$$$$
