CWH.pdb
     RDKit          3D

 31 33  0  0  1  0  0  0  0  0999 V2000
    8.9672  -16.1807   19.2397 N   0  0  0  0  0  0  0  0  0  0  0  0
    8.9328  -17.0674   20.4079 C   0  0  1  0  0  0  0  0  0  0  0  0
    9.6707  -18.3503   20.0686 C   0  0  0  0  0  0  0  0  0  0  0  0
    9.6221  -19.4661   21.4777 S   0  0  0  0  0  0  0  0  0  0  0  0
    9.4591  -16.3794   21.5990 C   0  0  0  0  0  0  0  0  0  0  0  0
   10.4860  -15.6441   21.4359 O   0  0  0  0  0  0  0  0  0  0  0  0
    8.9400  -16.4488   22.9106 N   0  0  0  0  0  0  0  0  0  0  0  0
    9.6737  -15.9251   24.0202 C   0  0  1  0  0  0  0  0  0  0  0  0
    8.9128  -15.9119   25.3287 C   0  0  0  0  0  0  0  0  0  0  0  0
    7.6516  -15.1153   25.2396 C   0  0  0  0  0  0  0  0  0  0  0  0
    6.4126  -15.6777   24.9213 C   0  0  0  0  0  0  0  0  0  0  0  0
    5.5295  -14.6833   24.9588 N   0  0  0  0  0  0  0  0  0  0  0  0
    6.1178  -13.5275   25.2778 C   0  0  0  0  0  0  0  0  0  0  0  0
    5.6534  -12.2454   25.4343 C   0  0  0  0  0  0  0  0  0  0  0  0
    6.4958  -11.2155   25.7651 C   0  0  0  0  0  0  0  0  0  0  0  0
    7.8374  -11.5043   25.9385 C   0  0  0  0  0  0  0  0  0  0  0  0
    8.3426  -12.7818   25.7899 C   0  0  0  0  0  0  0  0  0  0  0  0
    7.4559  -13.7857   25.4572 C   0  0  0  0  0  0  0  0  0  0  0  0
   11.0022  -16.5576   24.1842 C   0  0  0  0  0  0  0  0  0  0  0  0
   12.0428  -16.1589   23.6004 O   0  0  0  0  0  0  0  0  0  0  0  0
   11.1354  -17.6787   25.0434 N   0  0  0  0  0  0  0  0  0  0  0  0
   11.5281  -17.4835   26.4351 C   0  0  1  0  0  0  0  0  0  0  0  0
   10.6783  -16.3629   26.9941 C   0  0  0  0  0  0  0  0  0  0  0  0
   10.9451  -16.0843   28.4089 C   0  0  0  0  0  0  0  0  0  0  0  0
   11.8551  -16.7411   29.2212 C   0  0  0  0  0  0  0  0  0  0  0  0
   11.7841  -16.1805   30.4289 N   0  0  0  0  0  0  0  0  0  0  0  0
   10.8720  -15.2084   30.3983 C   0  0  0  0  0  0  0  0  0  0  0  0
   10.3421  -15.1339   29.1566 N   0  0  0  0  0  0  0  0  0  0  0  0
   11.3314  -18.7445   27.1712 C   0  0  0  0  0  0  0  0  0  0  0  0
   12.2684  -19.0964   28.1350 O   0  0  0  0  0  0  0  0  0  0  0  0
   10.3668  -19.5226   26.9806 O   0  0  0  0  0  0  0  0  0  0  0  0
  2  1  1  6
  3  2  1  0
  4  3  1  0
  5  6  2  0
  5  2  1  0
  7  5  1  0
  8  9  1  1
  8  7  1  0
 10 18  1  0
 10  9  1  0
 11 10  2  0
 12 11  1  0
 12 13  1  0
 13 14  1  0
 13 18  2  0
 14 15  2  0
 15 16  1  0
 17 16  2  0
 18 17  1  0
 19  8  1  0
 20 19  2  0
 21 19  1  0
 22 29  1  0
 22 21  1  0
 22 23  1  1
 24 23  1  0
 25 24  2  0
 26 27  1  0
 26 25  1  0
 27 28  2  0
 28 24  1  0
 29 30  1  0
 31 29  2  0
M  END
$$$$
