HFG.pdb
     RDKit          3D

 26 27  0  0  1  0  0  0  0  0999 V2000
   10.0911  -14.0730   21.0937 N   0  0  0  0  0  0  0  0  0  0  0  0
    8.7554  -14.4172   21.6269 C   0  0  1  0  0  0  0  0  0  0  0  0
    8.0757  -15.3305   20.6660 C   0  0  0  0  0  0  0  0  0  0  0  0
    8.0678  -14.7555   19.3115 C   0  0  0  0  0  0  0  0  0  0  0  0
    7.7054  -13.4791   18.9760 C   0  0  0  0  0  0  0  0  0  0  0  0
    7.8327  -13.3937   17.6197 N   0  0  0  0  0  0  0  0  0  0  0  0
    8.2534  -14.5557   17.1245 C   0  0  0  0  0  0  0  0  0  0  0  0
    8.3927  -15.3792   18.1718 N   0  0  0  0  0  0  0  0  0  0  0  0
    8.8988  -15.0618   22.9541 C   0  0  0  0  0  0  0  0  0  0  0  0
    9.9827  -15.5226   23.3809 O   0  0  0  0  0  0  0  0  0  0  0  0
    7.7874  -15.2080   23.8638 N   0  0  0  0  0  0  0  0  0  0  0  0
    7.9726  -15.6602   25.2287 C   0  0  1  0  0  0  0  0  0  0  0  0
    6.8128  -15.1731   26.0698 C   0  0  0  0  0  0  0  0  0  0  0  0
    6.8312  -13.7156   26.2594 C   0  0  0  0  0  0  0  0  0  0  0  0
    7.8295  -13.1237   26.9939 C   0  0  0  0  0  0  0  0  0  0  0  0
    7.8684  -11.7398   27.1882 C   0  0  0  0  0  0  0  0  0  0  0  0
    6.8886  -10.9581   26.6331 C   0  0  0  0  0  0  0  0  0  0  0  0
    5.8740  -11.5464   25.8881 C   0  0  0  0  0  0  0  0  0  0  0  0
    5.8449  -12.9336   25.7000 C   0  0  0  0  0  0  0  0  0  0  0  0
    7.9845  -17.1469   25.3081 C   0  0  0  0  0  0  0  0  0  0  0  0
    6.9415  -17.8401   25.1518 O   0  0  0  0  0  0  0  0  0  0  0  0
    9.1925  -17.8152   25.5654 N   0  0  0  0  0  0  0  0  0  0  0  0
    9.2493  -19.2443   25.6050 C   0  0  0  0  0  0  0  0  0  0  0  0
    9.8302  -19.7285   26.8728 C   0  0  0  0  0  0  0  0  0  0  0  0
   10.1387  -21.0606   27.0890 O   0  0  0  0  0  0  0  0  0  0  0  0
   10.0502  -18.8957   27.7853 O   0  0  0  0  0  0  0  0  0  0  0  0
  2  9  1  0
  2  1  1  6
  3  2  1  0
  4  3  1  0
  5  4  2  0
  6  5  1  0
  6  7  1  0
  7  8  2  0
  8  4  1  0
  9 11  1  0
 10  9  2  0
 11 12  1  0
 12 13  1  1
 13 14  1  0
 14 19  1  0
 15 14  2  0
 15 16  1  0
 16 17  2  0
 17 18  1  0
 19 18  2  0
 20 21  2  0
 20 12  1  0
 22 20  1  0
 23 22  1  0
 24 23  1  0
 25 24  1  0
 26 24  2  0
M  END
$$$$
