HFG.pdb
     RDKit          3D

 26 27  0  0  1  0  0  0  0  0999 V2000
    7.5888  -16.1758   21.1617 N   0  0  0  0  0  0  0  0  0  0  0  0
    8.8635  -15.4500   21.3489 C   0  0  1  0  0  0  0  0  0  0  0  0
    8.7339  -14.0908   20.7531 C   0  0  0  0  0  0  0  0  0  0  0  0
    8.3204  -14.1730   19.3433 C   0  0  0  0  0  0  0  0  0  0  0  0
    8.1043  -15.3199   18.6287 C   0  0  0  0  0  0  0  0  0  0  0  0
    7.7580  -14.9219   17.3697 N   0  0  0  0  0  0  0  0  0  0  0  0
    7.7557  -13.5928   17.2935 C   0  0  0  0  0  0  0  0  0  0  0  0
    8.1018  -13.1486   18.5089 N   0  0  0  0  0  0  0  0  0  0  0  0
    9.1806  -15.3630   22.7944 C   0  0  0  0  0  0  0  0  0  0  0  0
   10.2075  -14.8010   23.2402 O   0  0  0  0  0  0  0  0  0  0  0  0
    8.3195  -15.9259   23.8073 N   0  0  0  0  0  0  0  0  0  0  0  0
    8.6913  -15.9305   25.2086 C   0  0  1  0  0  0  0  0  0  0  0  0
    7.4768  -15.5804   26.0407 C   0  0  0  0  0  0  0  0  0  0  0  0
    7.2631  -14.1294   26.1376 C   0  0  0  0  0  0  0  0  0  0  0  0
    6.0171  -13.5950   25.9173 C   0  0  0  0  0  0  0  0  0  0  0  0
    5.7890  -12.2185   26.0036 C   0  0  0  0  0  0  0  0  0  0  0  0
    6.8322  -11.3854   26.3149 C   0  0  0  0  0  0  0  0  0  0  0  0
    8.0968  -11.9153   26.5398 C   0  0  0  0  0  0  0  0  0  0  0  0
    8.3138  -13.2956   26.4506 C   0  0  0  0  0  0  0  0  0  0  0  0
    9.1514  -17.2788   25.6407 C   0  0  0  0  0  0  0  0  0  0  0  0
    8.4393  -18.3117   25.5036 O   0  0  0  0  0  0  0  0  0  0  0  0
   10.4212  -17.4215   26.2234 N   0  0  0  0  0  0  0  0  0  0  0  0
   10.9461  -18.7149   26.5374 C   0  0  0  0  0  0  0  0  0  0  0  0
   10.9052  -18.9783   27.9893 C   0  0  0  0  0  0  0  0  0  0  0  0
   11.5376  -20.0663   28.5662 O   0  0  0  0  0  0  0  0  0  0  0  0
   10.2713  -18.1818   28.7230 O   0  0  0  0  0  0  0  0  0  0  0  0
  2  9  1  0
  2  1  1  1
  3  2  1  0
  4  3  1  0
  5  4  2  0
  6  5  1  0
  6  7  1  0
  7  8  2  0
  8  4  1  0
  9 11  1  0
 10  9  2  0
 11 12  1  0
 12 13  1  1
 13 14  1  0
 14 19  1  0
 15 14  2  0
 15 16  1  0
 16 17  2  0
 17 18  1  0
 19 18  2  0
 20 21  2  0
 20 12  1  0
 22 20  1  0
 23 22  1  0
 24 23  1  0
 25 24  1  0
 26 24  2  0
M  END
$$$$
