HFG.pdb
     RDKit          3D

 26 27  0  0  1  0  0  0  0  0999 V2000
    7.5990  -15.9632   21.1934 N   0  0  0  0  0  0  0  0  0  0  0  0
    8.8271  -15.1479   21.3098 C   0  0  1  0  0  0  0  0  0  0  0  0
    8.5822  -13.8189   20.6828 C   0  0  0  0  0  0  0  0  0  0  0  0
    8.4167  -13.9482   19.2263 C   0  0  0  0  0  0  0  0  0  0  0  0
    8.5177  -15.1035   18.4996 C   0  0  0  0  0  0  0  0  0  0  0  0
    8.3108  -14.7507   17.1973 N   0  0  0  0  0  0  0  0  0  0  0  0
    8.0906  -13.4408   17.1066 C   0  0  0  0  0  0  0  0  0  0  0  0
    8.1586  -12.9634   18.3562 N   0  0  0  0  0  0  0  0  0  0  0  0
    9.1922  -14.9964   22.7386 C   0  0  0  0  0  0  0  0  0  0  0  0
   10.2033  -14.3669   23.1267 O   0  0  0  0  0  0  0  0  0  0  0  0
    8.4004  -15.5697   23.8010 N   0  0  0  0  0  0  0  0  0  0  0  0
    8.7708  -15.4204   25.1947 C   0  0  1  0  0  0  0  0  0  0  0  0
    7.5188  -15.1987   26.0152 C   0  0  0  0  0  0  0  0  0  0  0  0
    7.1345  -13.7814   26.0795 C   0  0  0  0  0  0  0  0  0  0  0  0
    8.0892  -12.8109   26.2622 C   0  0  0  0  0  0  0  0  0  0  0  0
    7.7483  -11.4567   26.3267 C   0  0  0  0  0  0  0  0  0  0  0  0
    6.4328  -11.0909   26.2049 C   0  0  0  0  0  0  0  0  0  0  0  0
    5.4588  -12.0645   26.0198 C   0  0  0  0  0  0  0  0  0  0  0  0
    5.8116  -13.4180   25.9567 C   0  0  0  0  0  0  0  0  0  0  0  0
    9.4289  -16.6510   25.7133 C   0  0  0  0  0  0  0  0  0  0  0  0
    9.6934  -16.8112   26.9369 O   0  0  0  0  0  0  0  0  0  0  0  0
    9.7734  -17.6787   24.8204 N   0  0  0  0  0  0  0  0  0  0  0  0
   10.2884  -18.9258   25.2966 C   0  0  0  0  0  0  0  0  0  0  0  0
   11.7621  -18.9674   25.2222 C   0  0  0  0  0  0  0  0  0  0  0  0
   12.4939  -20.0863   25.5809 O   0  0  0  0  0  0  0  0  0  0  0  0
   12.3685  -17.9460   24.8175 O   0  0  0  0  0  0  0  0  0  0  0  0
  2  9  1  0
  2  1  1  1
  3  2  1  0
  4  3  1  0
  5  4  2  0
  6  5  1  0
  6  7  1  0
  7  8  2  0
  8  4  1  0
  9 11  1  0
 10  9  2  0
 11 12  1  0
 12 13  1  1
 13 14  1  0
 14 19  1  0
 15 14  2  0
 15 16  1  0
 16 17  2  0
 17 18  1  0
 19 18  2  0
 20 21  2  0
 20 12  1  0
 22 20  1  0
 23 22  1  0
 24 23  1  0
 25 24  1  0
 26 24  2  0
M  END
$$$$
