HFG.pdb
     RDKit          3D

 26 27  0  0  1  0  0  0  0  0999 V2000
   10.7538  -16.5988   20.1094 N   0  0  0  0  0  0  0  0  0  0  0  0
    9.4870  -16.8135   20.8414 C   0  0  1  0  0  0  0  0  0  0  0  0
    9.3272  -18.2707   21.1071 C   0  0  0  0  0  0  0  0  0  0  0  0
    8.7970  -18.9649   19.9229 C   0  0  0  0  0  0  0  0  0  0  0  0
    8.5177  -18.3974   18.7093 C   0  0  0  0  0  0  0  0  0  0  0  0
    8.0326  -19.4028   17.9238 N   0  0  0  0  0  0  0  0  0  0  0  0
    8.0069  -20.5458   18.6062 C   0  0  0  0  0  0  0  0  0  0  0  0
    8.4775  -20.2620   19.8277 N   0  0  0  0  0  0  0  0  0  0  0  0
    9.5073  -16.0465   22.1098 C   0  0  0  0  0  0  0  0  0  0  0  0
   10.5575  -15.5987   22.6255 O   0  0  0  0  0  0  0  0  0  0  0  0
    8.3047  -15.7553   22.8535 N   0  0  0  0  0  0  0  0  0  0  0  0
    8.3184  -14.8953   24.0205 C   0  0  1  0  0  0  0  0  0  0  0  0
    7.0919  -14.0093   23.9929 C   0  0  0  0  0  0  0  0  0  0  0  0
    7.0059  -13.1344   25.1709 C   0  0  0  0  0  0  0  0  0  0  0  0
    5.9817  -13.2844   26.0738 C   0  0  0  0  0  0  0  0  0  0  0  0
    5.8787  -12.4646   27.2015 C   0  0  0  0  0  0  0  0  0  0  0  0
    6.8206  -11.4905   27.4093 C   0  0  0  0  0  0  0  0  0  0  0  0
    7.8608  -11.3300   26.5023 C   0  0  0  0  0  0  0  0  0  0  0  0
    7.9543  -12.1568   25.3762 C   0  0  0  0  0  0  0  0  0  0  0  0
    8.2630  -15.6905   25.2779 C   0  0  0  0  0  0  0  0  0  0  0  0
    8.4429  -15.1713   26.4141 O   0  0  0  0  0  0  0  0  0  0  0  0
    8.0020  -17.0688   25.2127 N   0  0  0  0  0  0  0  0  0  0  0  0
    9.0139  -18.0260   25.5398 C   0  0  0  0  0  0  0  0  0  0  0  0
    9.5209  -17.8309   26.9124 C   0  0  0  0  0  0  0  0  0  0  0  0
    8.8437  -18.2919   28.0283 O   0  0  0  0  0  0  0  0  0  0  0  0
   10.6078  -17.2231   27.0665 O   0  0  0  0  0  0  0  0  0  0  0  0
  2  9  1  0
  2  1  1  1
  3  2  1  0
  4  3  1  0
  5  4  2  0
  6  5  1  0
  6  7  1  0
  7  8  2  0
  8  4  1  0
  9 11  1  0
 10  9  2  0
 11 12  1  0
 12 13  1  6
 13 14  1  0
 14 19  1  0
 15 14  2  0
 15 16  1  0
 16 17  2  0
 17 18  1  0
 19 18  2  0
 20 21  2  0
 20 12  1  0
 22 20  1  0
 23 22  1  0
 24 23  1  0
 25 24  1  0
 26 24  2  0
M  END
$$$$
