HFG.pdb
     RDKit          3D

 26 27  0  0  1  0  0  0  0  0999 V2000
    7.6788  -15.7254   21.4792 N   0  0  0  0  0  0  0  0  0  0  0  0
    9.0278  -15.1256   21.5641 C   0  0  1  0  0  0  0  0  0  0  0  0
    9.0066  -13.7988   20.8870 C   0  0  0  0  0  0  0  0  0  0  0  0
    8.6875  -13.9440   19.4579 C   0  0  0  0  0  0  0  0  0  0  0  0
    7.7104  -13.2724   18.7743 C   0  0  0  0  0  0  0  0  0  0  0  0
    7.7615  -13.7334   17.4906 N   0  0  0  0  0  0  0  0  0  0  0  0
    8.7209  -14.6485   17.3699 C   0  0  0  0  0  0  0  0  0  0  0  0
    9.2786  -14.7666   18.5820 N   0  0  0  0  0  0  0  0  0  0  0  0
    9.4227  -14.9846   22.9860 C   0  0  0  0  0  0  0  0  0  0  0  0
   10.4560  -14.3805   23.3557 O   0  0  0  0  0  0  0  0  0  0  0  0
    8.6368  -15.5391   24.0626 N   0  0  0  0  0  0  0  0  0  0  0  0
    9.0116  -15.3608   25.4516 C   0  0  1  0  0  0  0  0  0  0  0  0
    7.7568  -15.2184   26.2852 C   0  0  0  0  0  0  0  0  0  0  0  0
    7.2984  -13.8246   26.3746 C   0  0  0  0  0  0  0  0  0  0  0  0
    6.0447  -13.4765   25.9345 C   0  0  0  0  0  0  0  0  0  0  0  0
    5.5865  -12.1579   26.0090 C   0  0  0  0  0  0  0  0  0  0  0  0
    6.4070  -11.1927   26.5328 C   0  0  0  0  0  0  0  0  0  0  0  0
    7.6772  -11.5337   26.9810 C   0  0  0  0  0  0  0  0  0  0  0  0
    8.1259  -12.8576   26.9015 C   0  0  0  0  0  0  0  0  0  0  0  0
    9.7544  -16.5438   25.9666 C   0  0  0  0  0  0  0  0  0  0  0  0
   10.3130  -16.5506   27.0983 O   0  0  0  0  0  0  0  0  0  0  0  0
    9.8449  -17.7007   25.1756 N   0  0  0  0  0  0  0  0  0  0  0  0
   10.6738  -18.7986   25.5688 C   0  0  0  0  0  0  0  0  0  0  0  0
   10.0207  -19.6283   26.6003 C   0  0  0  0  0  0  0  0  0  0  0  0
   10.5839  -20.7981   27.0808 O   0  0  0  0  0  0  0  0  0  0  0  0
    8.9128  -19.2533   27.0550 O   0  0  0  0  0  0  0  0  0  0  0  0
  2  9  1  0
  2  1  1  1
  3  2  1  0
  4  3  1  0
  5  4  2  0
  6  5  1  0
  6  7  1  0
  7  8  2  0
  8  4  1  0
  9 11  1  0
 10  9  2  0
 11 12  1  0
 12 13  1  1
 13 14  1  0
 14 19  1  0
 15 14  2  0
 15 16  1  0
 16 17  2  0
 17 18  1  0
 19 18  2  0
 20 21  2  0
 20 12  1  0
 22 20  1  0
 23 22  1  0
 24 23  1  0
 25 24  1  0
 26 24  2  0
M  END
$$$$
