HFG.pdb
     RDKit          3D

 26 27  0  0  1  0  0  0  0  0999 V2000
    7.3059  -17.8953   20.4056 N   0  0  0  0  0  0  0  0  0  0  0  0
    6.7604  -18.1984   21.7462 C   0  0  1  0  0  0  0  0  0  0  0  0
    7.0213  -19.6316   22.0579 C   0  0  0  0  0  0  0  0  0  0  0  0
    6.2055  -20.5109   21.2054 C   0  0  0  0  0  0  0  0  0  0  0  0
    5.3393  -20.1108   20.2243 C   0  0  0  0  0  0  0  0  0  0  0  0
    4.7924  -21.2524   19.7135 N   0  0  0  0  0  0  0  0  0  0  0  0
    5.2875  -22.3179   20.3398 C   0  0  0  0  0  0  0  0  0  0  0  0
    6.1508  -21.8483   21.2499 N   0  0  0  0  0  0  0  0  0  0  0  0
    7.3957  -17.3166   22.7545 C   0  0  0  0  0  0  0  0  0  0  0  0
    8.6036  -16.9870   22.7157 O   0  0  0  0  0  0  0  0  0  0  0  0
    6.6610  -16.7658   23.8685 N   0  0  0  0  0  0  0  0  0  0  0  0
    7.2940  -15.9079   24.8509 C   0  0  1  0  0  0  0  0  0  0  0  0
    6.2220  -15.2431   25.6868 C   0  0  0  0  0  0  0  0  0  0  0  0
    6.5367  -13.8393   25.9885 C   0  0  0  0  0  0  0  0  0  0  0  0
    5.5686  -13.0028   26.4881 C   0  0  0  0  0  0  0  0  0  0  0  0
    5.8436  -11.6641   26.7827 C   0  0  0  0  0  0  0  0  0  0  0  0
    7.1070  -11.1774   26.5680 C   0  0  0  0  0  0  0  0  0  0  0  0
    8.0940  -12.0149   26.0629 C   0  0  0  0  0  0  0  0  0  0  0  0
    7.8074  -13.3540   25.7714 C   0  0  0  0  0  0  0  0  0  0  0  0
    8.1561  -16.6922   25.7772 C   0  0  0  0  0  0  0  0  0  0  0  0
    7.6972  -17.6075   26.5151 O   0  0  0  0  0  0  0  0  0  0  0  0
    9.5311  -16.4146   25.8428 N   0  0  0  0  0  0  0  0  0  0  0  0
   10.3653  -17.0513   26.8154 C   0  0  0  0  0  0  0  0  0  0  0  0
   11.4422  -17.8333   26.1770 C   0  0  0  0  0  0  0  0  0  0  0  0
   12.5921  -18.2054   26.8520 O   0  0  0  0  0  0  0  0  0  0  0  0
   11.3037  -18.1706   24.9762 O   0  0  0  0  0  0  0  0  0  0  0  0
  2  9  1  0
  2  1  1  6
  3  2  1  0
  4  3  1  0
  5  4  2  0
  6  5  1  0
  6  7  1  0
  7  8  2  0
  8  4  1  0
  9 11  1  0
 10  9  2  0
 11 12  1  0
 12 13  1  1
 13 14  1  0
 14 19  1  0
 15 14  2  0
 15 16  1  0
 16 17  2  0
 17 18  1  0
 19 18  2  0
 20 21  2  0
 20 12  1  0
 22 20  1  0
 23 22  1  0
 24 23  1  0
 25 24  1  0
 26 24  2  0
M  END
$$$$
