AGA.pdb
     RDKit          3D

 15 14  0  0  1  0  0  0  0  0999 V2000
    5.5220  -23.4259   24.1485 C   0  0  0  0  0  0  0  0  0  0  0  0
    5.3893  -22.8103   25.5423 C   0  0  2  0  0  0  0  0  0  0  0  0
    6.3043  -21.7300   25.7016 N   0  0  0  0  0  0  0  0  0  0  0  0
    5.7330  -23.8865   26.5018 C   0  0  0  0  0  0  0  0  0  0  0  0
    5.0971  -24.9880   26.5216 O   0  0  0  0  0  0  0  0  0  0  0  0
    6.8034  -23.6513   27.4083 N   0  0  0  0  0  0  0  0  0  0  0  0
    7.1928  -24.6934   28.3342 C   0  0  0  0  0  0  0  0  0  0  0  0
    7.8759  -24.0442   29.4985 C   0  0  0  0  0  0  0  0  0  0  0  0
    8.0332  -22.7904   29.5685 O   0  0  0  0  0  0  0  0  0  0  0  0
    9.3356  -25.2478   32.7261 C   0  0  0  0  0  0  0  0  0  0  0  0
    9.0904  -24.1529   31.6793 C   0  0  2  0  0  0  0  0  0  0  0  0
    8.3859  -24.7966   30.5898 N   0  0  0  0  0  0  0  0  0  0  0  0
   10.3901  -23.6079   31.2496 C   0  0  0  0  0  0  0  0  0  0  0  0
   10.9345  -24.0758   30.2285 O   0  0  0  0  0  0  0  0  0  0  0  0
   11.0113  -22.6007   31.9465 O   0  0  0  0  0  0  0  0  0  0  0  0
  2  1  1  6
  2  3  1  0
  4  2  1  0
  5  4  2  0
  6  4  1  0
  7  6  1  0
  8  7  1  0
  9  8  2  0
 11 10  1  1
 11 13  1  0
 11 12  1  0
 12  8  1  0
 13 15  1  0
 14 13  2  0
M  END
$$$$
