AGA.pdb
     RDKit          3D

 15 14  0  0  1  0  0  0  0  0999 V2000
    7.7103  -13.0751   18.7811 C   0  0  0  0  0  0  0  0  0  0  0  0
    8.6390  -13.5727   19.8899 C   0  0  2  0  0  0  0  0  0  0  0  0
    9.1091  -14.8853   19.5975 N   0  0  0  0  0  0  0  0  0  0  0  0
    7.8208  -13.6112   21.1253 C   0  0  0  0  0  0  0  0  0  0  0  0
    7.3036  -12.5568   21.6137 O   0  0  0  0  0  0  0  0  0  0  0  0
    7.6282  -14.8717   21.7554 N   0  0  0  0  0  0  0  0  0  0  0  0
    6.7963  -14.9561   22.9368 C   0  0  0  0  0  0  0  0  0  0  0  0
    7.4434  -14.1430   24.0156 C   0  0  0  0  0  0  0  0  0  0  0  0
    8.6877  -13.9121   24.0249 O   0  0  0  0  0  0  0  0  0  0  0  0
    6.2587  -12.0972   26.8951 C   0  0  0  0  0  0  0  0  0  0  0  0
    7.3585  -12.8886   26.1747 C   0  0  2  0  0  0  0  0  0  0  0  0
    6.6996  -13.5848   25.0890 N   0  0  0  0  0  0  0  0  0  0  0  0
    7.9766  -13.8215   27.1331 C   0  0  0  0  0  0  0  0  0  0  0  0
    7.6820  -15.0330   27.0738 O   0  0  0  0  0  0  0  0  0  0  0  0
    8.8656  -13.3871   28.0854 O   0  0  0  0  0  0  0  0  0  0  0  0
  2  1  1  6
  2  3  1  0
  4  2  1  0
  5  4  2  0
  6  4  1  0
  7  6  1  0
  8  7  1  0
  9  8  2  0
 11 10  1  1
 11 13  1  0
 11 12  1  0
 12  8  1  0
 13 15  1  0
 14 13  2  0
M  END
$$$$
