AGA.pdb
     RDKit          3D

 15 14  0  0  1  0  0  0  0  0999 V2000
    3.7505  -28.6156   30.3533 C   0  0  0  0  0  0  0  0  0  0  0  0
    2.8148  -27.6156   31.0344 C   0  0  2  0  0  0  0  0  0  0  0  0
    2.2491  -28.1819   32.2128 N   0  0  0  0  0  0  0  0  0  0  0  0
    1.7336  -27.3346   30.0602 C   0  0  0  0  0  0  0  0  0  0  0  0
    1.9728  -26.7711   28.9453 O   0  0  0  0  0  0  0  0  0  0  0  0
    0.4089  -27.7162   30.4100 N   0  0  0  0  0  0  0  0  0  0  0  0
   -0.6750  -27.4465   29.4894 C   0  0  0  0  0  0  0  0  0  0  0  0
   -1.6635  -26.5633   30.1869 C   0  0  0  0  0  0  0  0  0  0  0  0
   -1.6412  -26.3931   31.4408 O   0  0  0  0  0  0  0  0  0  0  0  0
   -4.3818  -24.2476   29.0870 C   0  0  0  0  0  0  0  0  0  0  0  0
   -3.6267  -25.0179   30.1785 C   0  0  2  0  0  0  0  0  0  0  0  0
   -2.6816  -25.8667   29.4830 N   0  0  0  0  0  0  0  0  0  0  0  0
   -4.5969  -25.8010   30.9636 C   0  0  0  0  0  0  0  0  0  0  0  0
   -5.2501  -25.2302   31.8610 O   0  0  0  0  0  0  0  0  0  0  0  0
   -4.7957  -27.1394   30.7290 O   0  0  0  0  0  0  0  0  0  0  0  0
  2  1  1  6
  2  3  1  0
  4  2  1  0
  5  4  2  0
  6  4  1  0
  7  6  1  0
  8  7  1  0
  9  8  2  0
 11 10  1  6
 11 13  1  0
 11 12  1  0
 12  8  1  0
 13 15  1  0
 14 13  2  0
M  END
$$$$
