AGA.pdb
     RDKit          3D

 15 14  0  0  1  0  0  0  0  0999 V2000
    7.7606  -18.1419   17.4627 C   0  0  0  0  0  0  0  0  0  0  0  0
    8.4189  -17.9068   18.8232 C   0  0  2  0  0  0  0  0  0  0  0  0
    7.8439  -18.7569   19.8112 N   0  0  0  0  0  0  0  0  0  0  0  0
    8.1431  -16.4935   19.1749 C   0  0  0  0  0  0  0  0  0  0  0  0
    8.6632  -15.5324   18.5240 O   0  0  0  0  0  0  0  0  0  0  0  0
    7.2726  -16.2395   20.2705 N   0  0  0  0  0  0  0  0  0  0  0  0
    7.0668  -14.8772   20.7139 C   0  0  0  0  0  0  0  0  0  0  0  0
    7.8461  -14.6809   21.9780 C   0  0  0  0  0  0  0  0  0  0  0  0
    9.1056  -14.8001   22.0135 O   0  0  0  0  0  0  0  0  0  0  0  0
    7.0047  -13.5232   25.4308 C   0  0  0  0  0  0  0  0  0  0  0  0
    7.9982  -14.0661   24.3949 C   0  0  2  0  0  0  0  0  0  0  0  0
    7.2181  -14.3501   23.2082 N   0  0  0  0  0  0  0  0  0  0  0  0
    8.6355  -15.2781   24.9388 C   0  0  0  0  0  0  0  0  0  0  0  0
    8.1770  -16.3956   24.6244 O   0  0  0  0  0  0  0  0  0  0  0  0
    9.7181  -15.2032   25.7804 O   0  0  0  0  0  0  0  0  0  0  0  0
  2  1  1  6
  2  3  1  0
  4  2  1  0
  5  4  2  0
  6  4  1  0
  7  6  1  0
  8  7  1  0
  9  8  2  0
 11 10  1  1
 11 13  1  0
 11 12  1  0
 12  8  1  0
 13 15  1  0
 14 13  2  0
M  END
$$$$
