AGA.pdb
     RDKit          3D

 15 14  0  0  1  0  0  0  0  0999 V2000
    8.8692  -17.8742   20.1489 C   0  0  0  0  0  0  0  0  0  0  0  0
    9.4475  -17.1732   21.3792 C   0  0  2  0  0  0  0  0  0  0  0  0
    9.8431  -18.1281   22.3597 N   0  0  0  0  0  0  0  0  0  0  0  0
    8.3544  -16.3353   21.9270 C   0  0  0  0  0  0  0  0  0  0  0  0
    7.8812  -15.3504   21.2759 O   0  0  0  0  0  0  0  0  0  0  0  0
    7.8445  -16.6662   23.2128 N   0  0  0  0  0  0  0  0  0  0  0  0
    6.7645  -15.8820   23.7726 C   0  0  0  0  0  0  0  0  0  0  0  0
    7.3685  -14.7921   24.6038 C   0  0  0  0  0  0  0  0  0  0  0  0
    8.6214  -14.6479   24.7108 O   0  0  0  0  0  0  0  0  0  0  0  0
    6.0089  -11.9428   26.6157 C   0  0  0  0  0  0  0  0  0  0  0  0
    7.1755  -12.7610   26.0460 C   0  0  2  0  0  0  0  0  0  0  0  0
    6.5721  -13.8587   25.3191 N   0  0  0  0  0  0  0  0  0  0  0  0
    8.0131  -13.2335   27.1623 C   0  0  0  0  0  0  0  0  0  0  0  0
    7.8513  -14.3946   27.5908 O   0  0  0  0  0  0  0  0  0  0  0  0
    8.9633  -12.4261   27.7378 O   0  0  0  0  0  0  0  0  0  0  0  0
  2  1  1  6
  2  3  1  0
  4  2  1  0
  5  4  2  0
  6  4  1  0
  7  6  1  0
  8  7  1  0
  9  8  2  0
 11 10  1  1
 11 13  1  0
 11 12  1  0
 12  8  1  0
 13 15  1  0
 14 13  2  0
M  END
$$$$
