AGA.pdb
     RDKit          3D

 15 14  0  0  1  0  0  0  0  0999 V2000
    7.8847  -12.3584   19.3032 C   0  0  0  0  0  0  0  0  0  0  0  0
    8.3479  -13.4719   18.3624 C   0  0  2  0  0  0  0  0  0  0  0  0
    7.4822  -13.5669   17.2349 N   0  0  0  0  0  0  0  0  0  0  0  0
    8.2714  -14.7290   19.1438 C   0  0  0  0  0  0  0  0  0  0  0  0
    7.3945  -15.6157   18.8932 O   0  0  0  0  0  0  0  0  0  0  0  0
    9.2145  -14.9183   20.1914 N   0  0  0  0  0  0  0  0  0  0  0  0
    9.3982  -16.2399   20.7523 C   0  0  0  0  0  0  0  0  0  0  0  0
   10.4001  -16.1352   21.8608 C   0  0  0  0  0  0  0  0  0  0  0  0
   11.5028  -15.5320   21.7121 O   0  0  0  0  0  0  0  0  0  0  0  0
   10.5196  -17.2224   25.4393 C   0  0  0  0  0  0  0  0  0  0  0  0
   11.1770  -16.6387   24.1816 C   0  0  2  0  0  0  0  0  0  0  0  0
   10.1716  -16.7058   23.1412 N   0  0  0  0  0  0  0  0  0  0  0  0
   12.3664  -17.4430   23.8514 C   0  0  0  0  0  0  0  0  0  0  0  0
   12.2644  -18.3544   23.0047 O   0  0  0  0  0  0  0  0  0  0  0  0
   13.5788  -17.2112   24.4533 O   0  0  0  0  0  0  0  0  0  0  0  0
  2  1  1  1
  2  3  1  0
  4  2  1  0
  5  4  2  0
  6  4  1  0
  7  6  1  0
  8  7  1  0
  9  8  2  0
 11 10  1  1
 11 13  1  0
 11 12  1  0
 12  8  1  0
 13 15  1  0
 14 13  2  0
M  END
$$$$
