VIM.pdb
     RDKit          3D

 24 23  0  0  1  0  0  0  0  0999 V2000
   20.2658  -23.1232  -15.3400 C   0  0  0  0  0  0  0  0  0  0  0  0
   21.5252  -22.2888  -15.2421 C   0  0  2  0  0  0  0  0  0  0  0  0
   22.7242  -23.0791  -15.7013 C   0  0  0  0  0  0  0  0  0  0  0  0
   21.6536  -21.8370  -13.7992 C   0  0  2  0  0  0  0  0  0  0  0  0
   20.5004  -21.0493  -13.4221 N   0  0  0  0  0  0  0  0  0  0  0  0
   22.9275  -21.1368  -13.5435 C   0  0  0  0  0  0  0  0  0  0  0  0
   22.9996  -19.9246  -13.8650 O   0  0  0  0  0  0  0  0  0  0  0  0
   25.3519  -20.8393   -8.9656 C   0  0  0  0  0  0  0  0  0  0  0  0
   24.8025  -20.6186  -10.3587 C   0  0  0  0  0  0  0  0  0  0  0  0
   25.8134  -21.1314  -11.3472 C   0  0  2  0  0  0  0  0  0  0  0  0
   27.1038  -20.3656  -11.1527 C   0  0  0  0  0  0  0  0  0  0  0  0
   25.3272  -21.0094  -12.7774 C   0  0  2  0  0  0  0  0  0  0  0  0
   24.0756  -21.7371  -12.9598 N   0  0  0  0  0  0  0  0  0  0  0  0
   26.3180  -21.5100  -13.7456 C   0  0  0  0  0  0  0  0  0  0  0  0
   27.0333  -22.4897  -13.4561 O   0  0  0  0  0  0  0  0  0  0  0  0
   27.3315  -26.4335  -16.2137 C   0  0  0  0  0  0  0  0  0  0  0  0
   26.7241  -25.3456  -17.5100 S   0  0  0  0  0  0  0  0  0  0  0  0
   27.4021  -23.6633  -17.3791 C   0  0  0  0  0  0  0  0  0  0  0  0
   26.7342  -22.8911  -16.2901 C   0  0  0  0  0  0  0  0  0  0  0  0
   27.2364  -21.4979  -16.0938 C   0  0  2  0  0  0  0  0  0  0  0  0
   26.4659  -20.8885  -15.0027 N   0  0  0  0  0  0  0  0  0  0  0  0
   27.1059  -20.6526  -17.2810 C   0  0  0  0  0  0  0  0  0  0  0  0
   28.0708  -20.6890  -18.2803 O   0  0  0  0  0  0  0  0  0  0  0  0
   26.1113  -19.8896  -17.3929 O   0  0  0  0  0  0  0  0  0  0  0  0
  2  1  1  1
  3  2  1  0
  4  2  1  0
  4  6  1  0
  4  5  1  6
  6  7  2  0
  8  9  1  0
 10  9  1  0
 10 12  1  0
 10 11  1  6
 12 13  1  1
 13  6  1  0
 14 12  1  0
 14 15  2  0
 16 17  1  0
 17 18  1  0
 18 19  1  0
 20 19  1  6
 20 21  1  0
 20 22  1  0
 21 14  1  0
 22 24  2  0
 22 23  1  0
M  END
$$$$
