VIM.pdb
     RDKit          3D

 24 23  0  0  1  0  0  0  0  0999 V2000
   25.9729  -19.1260  -16.2565 C   0  0  0  0  0  0  0  0  0  0  0  0
   27.3923  -18.9460  -15.7617 C   0  0  2  0  0  0  0  0  0  0  0  0
   28.3797  -19.2116  -16.8696 C   0  0  0  0  0  0  0  0  0  0  0  0
   27.5811  -19.8871  -14.5865 C   0  0  2  0  0  0  0  0  0  0  0  0
   27.4990  -21.2605  -15.0332 N   0  0  0  0  0  0  0  0  0  0  0  0
   26.6499  -19.5937  -13.4795 C   0  0  0  0  0  0  0  0  0  0  0  0
   26.5418  -18.3972  -13.1122 O   0  0  0  0  0  0  0  0  0  0  0  0
   21.5770  -20.2420  -13.3230 C   0  0  0  0  0  0  0  0  0  0  0  0
   22.9963  -19.7752  -13.0802 C   0  0  0  0  0  0  0  0  0  0  0  0
   23.5723  -20.5932  -11.9571 C   0  0  2  0  0  0  0  0  0  0  0  0
   22.7123  -20.3916  -10.7286 C   0  0  0  0  0  0  0  0  0  0  0  0
   25.0151  -20.2306  -11.6675 C   0  0  2  0  0  0  0  0  0  0  0  0
   25.8686  -20.5682  -12.8019 N   0  0  0  0  0  0  0  0  0  0  0  0
   25.5274  -20.9082  -10.4641 C   0  0  0  0  0  0  0  0  0  0  0  0
   25.6597  -22.1482  -10.4551 O   0  0  0  0  0  0  0  0  0  0  0  0
   30.0043  -19.2837   -4.9707 C   0  0  0  0  0  0  0  0  0  0  0  0
   28.2362  -18.9589   -4.9380 S   0  0  0  0  0  0  0  0  0  0  0  0
   27.2805  -20.2282   -5.8225 C   0  0  0  0  0  0  0  0  0  0  0  0
   26.9598  -19.7956   -7.2147 C   0  0  0  0  0  0  0  0  0  0  0  0
   26.2362  -20.8035   -8.0467 C   0  0  2  0  0  0  0  0  0  0  0  0
   25.8710  -20.1639   -9.3167 N   0  0  0  0  0  0  0  0  0  0  0  0
   25.0181  -21.3180   -7.4203 C   0  0  0  0  0  0  0  0  0  0  0  0
   25.0899  -22.3183   -6.4583 O   0  0  0  0  0  0  0  0  0  0  0  0
   23.9006  -20.8481   -7.7586 O   0  0  0  0  0  0  0  0  0  0  0  0
  2  1  1  6
  3  2  1  0
  4  2  1  0
  4  6  1  0
  4  5  1  6
  6  7  2  0
  8  9  1  0
 10  9  1  0
 10 12  1  0
 10 11  1  1
 12 13  1  6
 13  6  1  0
 14 12  1  0
 14 15  2  0
 16 17  1  0
 17 18  1  0
 18 19  1  0
 20 19  1  1
 20 21  1  0
 20 22  1  0
 21 14  1  0
 22 24  2  0
 22 23  1  0
M  END
$$$$
