VIM.pdb
     RDKit          3D

 24 23  0  0  1  0  0  0  0  0999 V2000
   23.2157  -19.1621  -18.6418 C   0  0  0  0  0  0  0  0  0  0  0  0
   21.9935  -18.8384  -17.8093 C   0  0  2  0  0  0  0  0  0  0  0  0
   21.1153  -17.8397  -18.5194 C   0  0  0  0  0  0  0  0  0  0  0  0
   22.4859  -18.3205  -16.4708 C   0  0  2  0  0  0  0  0  0  0  0  0
   22.9472  -16.9562  -16.6066 N   0  0  0  0  0  0  0  0  0  0  0  0
   23.5014  -19.2057  -15.8676 C   0  0  0  0  0  0  0  0  0  0  0  0
   23.1983  -20.4144  -15.7082 O   0  0  0  0  0  0  0  0  0  0  0  0
   28.7170  -19.4346  -17.0682 C   0  0  0  0  0  0  0  0  0  0  0  0
   27.3067  -19.8049  -16.6619 C   0  0  0  0  0  0  0  0  0  0  0  0
   27.1336  -19.4633  -15.2074 C   0  0  2  0  0  0  0  0  0  0  0  0
   28.0925  -20.3105  -14.3998 C   0  0  0  0  0  0  0  0  0  0  0  0
   25.7078  -19.6704  -14.7374 C   0  0  2  0  0  0  0  0  0  0  0  0
   24.7952  -18.7869  -15.4557 N   0  0  0  0  0  0  0  0  0  0  0  0
   25.5605  -19.4375  -13.2904 C   0  0  0  0  0  0  0  0  0  0  0  0
   25.3722  -18.2821  -12.8605 O   0  0  0  0  0  0  0  0  0  0  0  0
   20.9423  -18.7479  -11.4652 C   0  0  0  0  0  0  0  0  0  0  0  0
   21.3098  -19.4504   -9.8514 S   0  0  0  0  0  0  0  0  0  0  0  0
   23.0519  -19.9461   -9.6901 C   0  0  0  0  0  0  0  0  0  0  0  0
   23.7029  -20.0876  -11.0260 C   0  0  0  0  0  0  0  0  0  0  0  0
   25.1627  -20.4033  -10.9955 C   0  0  2  0  0  0  0  0  0  0  0  0
   25.6310  -20.5142  -12.3825 N   0  0  0  0  0  0  0  0  0  0  0  0
   25.4807  -21.6499  -10.2985 C   0  0  0  0  0  0  0  0  0  0  0  0
   25.6474  -21.6620   -8.9189 O   0  0  0  0  0  0  0  0  0  0  0  0
   25.6028  -22.7152  -10.9573 O   0  0  0  0  0  0  0  0  0  0  0  0
  2  1  1  6
  3  2  1  0
  4  2  1  0
  4  6  1  0
  4  5  1  6
  6  7  2  0
  8  9  1  0
 10  9  1  0
 10 12  1  0
 10 11  1  1
 12 13  1  6
 13  6  1  0
 14 12  1  0
 14 15  2  0
 16 17  1  0
 17 18  1  0
 18 19  1  0
 20 19  1  6
 20 21  1  0
 20 22  1  0
 21 14  1  0
 22 24  2  0
 22 23  1  0
M  END
$$$$
