VIM.pdb
     RDKit          3D

 24 23  0  0  1  0  0  0  0  0999 V2000
   20.9332  -18.8583  -15.3298 C   0  0  0  0  0  0  0  0  0  0  0  0
   20.8739  -19.8738  -14.2087 C   0  0  2  0  0  0  0  0  0  0  0  0
   19.7885  -19.5177  -13.2248 C   0  0  0  0  0  0  0  0  0  0  0  0
   22.2461  -19.9095  -13.5618 C   0  0  2  0  0  0  0  0  0  0  0  0
   23.2458  -20.2776  -14.5403 N   0  0  0  0  0  0  0  0  0  0  0  0
   22.2783  -20.7729  -12.3651 C   0  0  0  0  0  0  0  0  0  0  0  0
   22.1789  -22.0129  -12.5398 O   0  0  0  0  0  0  0  0  0  0  0  0
   25.8030  -20.0255   -8.4184 C   0  0  0  0  0  0  0  0  0  0  0  0
   24.9040  -20.7237   -9.4161 C   0  0  0  0  0  0  0  0  0  0  0  0
   23.5002  -20.7017   -8.8765 C   0  0  2  0  0  0  0  0  0  0  0  0
   23.4586  -21.5396   -7.6173 C   0  0  0  0  0  0  0  0  0  0  0  0
   22.4907  -21.2042   -9.8891 C   0  0  2  0  0  0  0  0  0  0  0  0
   22.4138  -20.3001  -11.0319 N   0  0  0  0  0  0  0  0  0  0  0  0
   21.1465  -21.3547   -9.3058 C   0  0  0  0  0  0  0  0  0  0  0  0
   20.4450  -20.3470   -9.0874 O   0  0  0  0  0  0  0  0  0  0  0  0
   16.1720  -24.7674  -11.7158 C   0  0  0  0  0  0  0  0  0  0  0  0
   16.5057  -25.4444  -10.0839 S   0  0  0  0  0  0  0  0  0  0  0  0
   17.2185  -24.2115   -8.9530 C   0  0  0  0  0  0  0  0  0  0  0  0
   18.6080  -23.8434   -9.3557 C   0  0  0  0  0  0  0  0  0  0  0  0
   19.2820  -22.8378   -8.4805 C   0  0  2  0  0  0  0  0  0  0  0  0
   20.6434  -22.6337   -8.9907 N   0  0  0  0  0  0  0  0  0  0  0  0
   19.3695  -23.2436   -7.0774 C   0  0  0  0  0  0  0  0  0  0  0  0
   18.2708  -23.1113   -6.2367 O   0  0  0  0  0  0  0  0  0  0  0  0
   20.4489  -23.7149   -6.6341 O   0  0  0  0  0  0  0  0  0  0  0  0
  2  1  1  6
  3  2  1  0
  4  2  1  0
  4  6  1  0
  4  5  1  6
  6  7  2  0
  8  9  1  0
 10  9  1  0
 10 12  1  0
 10 11  1  1
 12 13  1  6
 13  6  1  0
 14 12  1  0
 14 15  2  0
 16 17  1  0
 17 18  1  0
 18 19  1  0
 20 19  1  6
 20 21  1  0
 20 22  1  0
 21 14  1  0
 22 24  2  0
 22 23  1  0
M  END
$$$$
