VIM.pdb
     RDKit          3D

 24 23  0  0  1  0  0  0  0  0999 V2000
   19.9514  -14.6532  -16.8392 C   0  0  0  0  0  0  0  0  0  0  0  0
   21.0186  -15.4984  -17.5014 C   0  0  2  0  0  0  0  0  0  0  0  0
   20.4109  -16.7268  -18.1295 C   0  0  0  0  0  0  0  0  0  0  0  0
   22.0425  -15.8446  -16.4364 C   0  0  2  0  0  0  0  0  0  0  0  0
   21.4703  -16.7670  -15.4802 N   0  0  0  0  0  0  0  0  0  0  0  0
   22.6115  -14.6429  -15.7955 C   0  0  0  0  0  0  0  0  0  0  0  0
   22.0273  -14.1950  -14.7775 O   0  0  0  0  0  0  0  0  0  0  0  0
   27.9705  -13.5411  -15.8419 C   0  0  0  0  0  0  0  0  0  0  0  0
   26.5422  -13.7253  -15.3757 C   0  0  0  0  0  0  0  0  0  0  0  0
   25.7362  -12.5523  -15.8621 C   0  0  2  0  0  0  0  0  0  0  0  0
   26.2441  -11.3044  -15.1735 C   0  0  0  0  0  0  0  0  0  0  0  0
   24.2524  -12.7362  -15.6139 C   0  0  2  0  0  0  0  0  0  0  0  0
   23.7717  -13.9590  -16.2485 N   0  0  0  0  0  0  0  0  0  0  0  0
   23.4611  -11.5965  -16.1086 C   0  0  0  0  0  0  0  0  0  0  0  0
   23.1620  -11.5225  -17.3171 O   0  0  0  0  0  0  0  0  0  0  0  0
   17.1386   -8.6613  -17.7490 C   0  0  0  0  0  0  0  0  0  0  0  0
   18.3048   -9.8212  -17.0227 S   0  0  0  0  0  0  0  0  0  0  0  0
   19.8609   -9.0223  -16.5259 C   0  0  0  0  0  0  0  0  0  0  0  0
   20.8817  -10.0299  -16.1124 C   0  0  0  0  0  0  0  0  0  0  0  0
   22.1888   -9.4667  -15.6587 C   0  0  2  0  0  0  0  0  0  0  0  0
   23.0367  -10.5837  -15.2241 N   0  0  0  0  0  0  0  0  0  0  0  0
   22.0681   -8.5187  -14.5507 C   0  0  0  0  0  0  0  0  0  0  0  0
   22.4909   -8.8702  -13.2745 O   0  0  0  0  0  0  0  0  0  0  0  0
   21.5776   -7.3788  -14.7604 O   0  0  0  0  0  0  0  0  0  0  0  0
  2  1  1  1
  3  2  1  0
  4  2  1  0
  4  6  1  0
  4  5  1  1
  6  7  2  0
  8  9  1  0
 10  9  1  0
 10 12  1  0
 10 11  1  1
 12 13  1  6
 13  6  1  0
 14 12  1  0
 14 15  2  0
 16 17  1  0
 17 18  1  0
 18 19  1  0
 20 19  1  1
 20 21  1  0
 20 22  1  0
 21 14  1  0
 22 24  2  0
 22 23  1  0
M  END
$$$$
