VIM.pdb
     RDKit          3D

 24 23  0  0  1  0  0  0  0  0999 V2000
   23.9366  -19.8255  -16.8451 C   0  0  0  0  0  0  0  0  0  0  0  0
   22.7104  -20.4075  -16.1746 C   0  0  2  0  0  0  0  0  0  0  0  0
   21.4555  -19.7695  -16.7143 C   0  0  0  0  0  0  0  0  0  0  0  0
   22.8688  -20.1896  -14.6814 C   0  0  2  0  0  0  0  0  0  0  0  0
   22.6544  -18.7960  -14.3584 N   0  0  0  0  0  0  0  0  0  0  0  0
   24.1591  -20.6975  -14.1756 C   0  0  0  0  0  0  0  0  0  0  0  0
   24.4601  -21.8877  -14.4417 O   0  0  0  0  0  0  0  0  0  0  0  0
   28.9335  -19.4387  -15.2137 C   0  0  0  0  0  0  0  0  0  0  0  0
   27.6572  -20.1221  -14.7719 C   0  0  0  0  0  0  0  0  0  0  0  0
   27.5262  -19.9518  -13.2832 C   0  0  2  0  0  0  0  0  0  0  0  0
   28.7231  -20.5981  -12.6206 C   0  0  0  0  0  0  0  0  0  0  0  0
   26.2351  -20.5414  -12.7519 C   0  0  2  0  0  0  0  0  0  0  0  0
   25.0827  -19.9354  -13.4106 N   0  0  0  0  0  0  0  0  0  0  0  0
   26.1021  -20.3653  -11.2955 C   0  0  0  0  0  0  0  0  0  0  0  0
   25.8911  -19.2314  -10.8210 O   0  0  0  0  0  0  0  0  0  0  0  0
   29.6425  -19.9938   -6.1704 C   0  0  0  0  0  0  0  0  0  0  0  0
   28.1200  -19.0522   -6.3384 S   0  0  0  0  0  0  0  0  0  0  0  0
   26.7472  -20.0596   -6.9765 C   0  0  0  0  0  0  0  0  0  0  0  0
   26.9468  -20.4014   -8.4159 C   0  0  0  0  0  0  0  0  0  0  0  0
   25.9604  -21.3675   -8.9862 C   0  0  2  0  0  0  0  0  0  0  0  0
   26.2116  -21.4722  -10.4289 N   0  0  0  0  0  0  0  0  0  0  0  0
   24.5660  -20.9715   -8.7866 C   0  0  0  0  0  0  0  0  0  0  0  0
   23.8887  -20.2605   -9.7699 O   0  0  0  0  0  0  0  0  0  0  0  0
   23.9811  -21.2794   -7.7157 O   0  0  0  0  0  0  0  0  0  0  0  0
  2  1  1  6
  3  2  1  0
  4  2  1  0
  4  6  1  0
  4  5  1  6
  6  7  2  0
  8  9  1  0
 10  9  1  0
 10 12  1  0
 10 11  1  1
 12 13  1  6
 13  6  1  0
 14 12  1  0
 14 15  2  0
 16 17  1  0
 17 18  1  0
 18 19  1  0
 20 19  1  6
 20 21  1  0
 20 22  1  0
 21 14  1  0
 22 24  2  0
 22 23  1  0
M  END
$$$$
