VIM.pdb
     RDKit          3D

 24 23  0  0  1  0  0  0  0  0999 V2000
   25.3917  -39.7038   -7.3586 C   0  0  0  0  0  0  0  0  0  0  0  0
   26.3873  -38.7165   -6.7878 C   0  0  2  0  0  0  0  0  0  0  0  0
   26.6949  -39.0429   -5.3484 C   0  0  0  0  0  0  0  0  0  0  0  0
   25.7882  -37.3315   -6.9471 C   0  0  2  0  0  0  0  0  0  0  0  0
   25.6800  -36.9968   -8.3503 N   0  0  0  0  0  0  0  0  0  0  0  0
   26.5245  -36.3113   -6.1754 C   0  0  0  0  0  0  0  0  0  0  0  0
   27.5024  -35.7538   -6.7331 O   0  0  0  0  0  0  0  0  0  0  0  0
   24.2802  -32.0912   -4.0383 C   0  0  0  0  0  0  0  0  0  0  0  0
   25.1802  -33.1196   -4.6893 C   0  0  0  0  0  0  0  0  0  0  0  0
   25.9457  -33.8255   -3.6040 C   0  0  2  0  0  0  0  0  0  0  0  0
   26.6725  -32.7868   -2.7781 C   0  0  0  0  0  0  0  0  0  0  0  0
   26.9186  -34.8451   -4.1613 C   0  0  2  0  0  0  0  0  0  0  0  0
   26.2047  -35.9163   -4.8484 N   0  0  0  0  0  0  0  0  0  0  0  0
   27.7696  -35.4324   -3.1121 C   0  0  0  0  0  0  0  0  0  0  0  0
   27.2929  -36.2659   -2.3164 O   0  0  0  0  0  0  0  0  0  0  0  0
   34.5685  -34.6841   -2.5673 C   0  0  0  0  0  0  0  0  0  0  0  0
   33.9139  -36.0477   -3.5395 S   0  0  0  0  0  0  0  0  0  0  0  0
   32.2698  -36.5786   -2.9723 C   0  0  0  0  0  0  0  0  0  0  0  0
   31.4462  -35.4157   -2.5277 C   0  0  0  0  0  0  0  0  0  0  0  0
   30.0551  -35.7458   -2.0947 C   0  0  2  0  0  0  0  0  0  0  0  0
   29.1245  -35.0587   -2.9987 N   0  0  0  0  0  0  0  0  0  0  0  0
   29.7536  -35.3376   -0.7223 C   0  0  0  0  0  0  0  0  0  0  0  0
   29.9908  -36.2041    0.3379 O   0  0  0  0  0  0  0  0  0  0  0  0
   29.2766  -34.1932   -0.5062 O   0  0  0  0  0  0  0  0  0  0  0  0
  2  1  1  1
  3  2  1  0
  4  2  1  0
  4  6  1  0
  4  5  1  6
  6  7  2  0
  8  9  1  0
 10  9  1  0
 10 12  1  0
 10 11  1  6
 12 13  1  1
 13  6  1  0
 14 12  1  0
 14 15  2  0
 16 17  1  0
 17 18  1  0
 18 19  1  0
 20 19  1  6
 20 21  1  0
 20 22  1  0
 21 14  1  0
 22 24  2  0
 22 23  1  0
M  END
$$$$
