VIM.pdb
     RDKit          3D

 24 23  0  0  1  0  0  0  0  0999 V2000
   21.0099  -27.9561  -11.4719 C   0  0  0  0  0  0  0  0  0  0  0  0
   20.4368  -29.2586  -10.9554 C   0  0  2  0  0  0  0  0  0  0  0  0
   20.3164  -30.2663  -12.0703 C   0  0  0  0  0  0  0  0  0  0  0  0
   19.0952  -28.9394  -10.3225 C   0  0  2  0  0  0  0  0  0  0  0  0
   18.1320  -28.6002  -11.3470 N   0  0  0  0  0  0  0  0  0  0  0  0
   19.2019  -27.9020   -9.2780 C   0  0  0  0  0  0  0  0  0  0  0  0
   20.0973  -28.0425   -8.4081 O   0  0  0  0  0  0  0  0  0  0  0  0
   18.6031  -22.5772  -10.2359 C   0  0  0  0  0  0  0  0  0  0  0  0
   19.1069  -23.9060   -9.7147 C   0  0  0  0  0  0  0  0  0  0  0  0
   18.1589  -24.3801   -8.6476 C   0  0  2  0  0  0  0  0  0  0  0  0
   18.1645  -23.3710   -7.5202 C   0  0  0  0  0  0  0  0  0  0  0  0
   18.5195  -25.7599   -8.1347 C   0  0  2  0  0  0  0  0  0  0  0  0
   18.3643  -26.7576   -9.1881 N   0  0  0  0  0  0  0  0  0  0  0  0
   17.6989  -26.1540   -6.9767 C   0  0  0  0  0  0  0  0  0  0  0  0
   16.5409  -26.5832   -7.1500 O   0  0  0  0  0  0  0  0  0  0  0  0
   20.4897  -27.4890   -1.0395 C   0  0  0  0  0  0  0  0  0  0  0  0
   18.9245  -26.6984   -0.6421 S   0  0  0  0  0  0  0  0  0  0  0  0
   17.7263  -26.8057   -2.0058 C   0  0  0  0  0  0  0  0  0  0  0  0
   18.3637  -26.4826   -3.3164 C   0  0  0  0  0  0  0  0  0  0  0  0
   17.4348  -26.4388   -4.4855 C   0  0  2  0  0  0  0  0  0  0  0  0
   18.2132  -26.0498   -5.6679 N   0  0  0  0  0  0  0  0  0  0  0  0
   16.3315  -25.4911   -4.3251 C   0  0  0  0  0  0  0  0  0  0  0  0
   16.5290  -24.1353   -4.5577 O   0  0  0  0  0  0  0  0  0  0  0  0
   15.1985  -25.9118   -3.9743 O   0  0  0  0  0  0  0  0  0  0  0  0
  2  1  1  6
  3  2  1  0
  4  2  1  0
  4  6  1  0
  4  5  1  6
  6  7  2  0
  8  9  1  0
 10  9  1  0
 10 12  1  0
 10 11  1  1
 12 13  1  6
 13  6  1  0
 14 12  1  0
 14 15  2  0
 16 17  1  0
 17 18  1  0
 18 19  1  0
 20 19  1  1
 20 21  1  0
 20 22  1  0
 21 14  1  0
 22 24  2  0
 22 23  1  0
M  END
$$$$
