RQP.pdb
     RDKit          3D

 28 28  0  0  1  0  0  0  0  0999 V2000
    9.3438  -13.3174   17.9239 N   0  0  0  0  0  0  0  0  0  0  0  0
    8.6686  -12.9603   19.1256 C   0  0  0  0  0  0  0  0  0  0  0  0
    8.0806  -11.8113   19.1669 N   0  0  0  0  0  0  0  0  0  0  0  0
    8.6282  -13.8176   20.2502 N   0  0  0  0  0  0  0  0  0  0  0  0
    8.0287  -15.1697   20.1358 C   0  0  0  0  0  0  0  0  0  0  0  0
    6.6064  -15.1256   20.5741 C   0  0  0  0  0  0  0  0  0  0  0  0
    5.8519  -16.3820   20.6424 C   0  0  0  0  0  0  0  0  0  0  0  0
    6.2900  -17.4968   21.4937 C   0  0  2  0  0  0  0  0  0  0  0  0
    5.1714  -18.5242   21.2666 N   0  0  0  0  0  0  0  0  0  0  0  0
    6.2018  -17.2241   22.9538 C   0  0  0  0  0  0  0  0  0  0  0  0
    5.1031  -17.0505   23.5334 O   0  0  0  0  0  0  0  0  0  0  0  0
    7.5865  -11.3993   19.9623 N   0  0  0  0  0  0  0  0  0  0  0  0
    8.3851  -20.4971   27.1557 C   0  0  0  0  0  0  0  0  0  0  0  0
    7.8913  -19.4550   27.9514 O   0  0  0  0  0  0  0  0  0  0  0  0
    7.8528  -19.5928   29.1892 C   0  0  0  0  0  0  0  0  0  0  0  0
    7.4149  -18.1966   27.3507 C   0  0  0  0  0  0  0  0  0  0  0  0
    7.5312  -18.0777   25.8924 C   0  0  2  0  0  0  0  0  0  0  0  0
    7.2080  -16.7847   25.2180 N   0  0  0  0  0  0  0  0  0  0  0  0
    7.3487  -17.1439   23.7746 C   0  0  0  0  0  0  0  0  0  0  0  0
    8.1900  -15.6903   25.5040 O   0  0  0  0  0  0  0  0  0  0  0  0
    9.3806  -16.0158   25.2672 N   0  0  0  0  0  0  0  0  0  0  0  0
    7.9180  -14.4134   25.9774 C   0  0  0  0  0  0  0  0  0  0  0  0
    6.8041  -13.5199   25.5194 C   0  0  0  0  0  0  0  0  0  0  0  0
    6.1896  -13.1521   26.8400 C   0  0  0  0  0  0  0  0  0  0  0  0
    7.2978  -13.3649   27.8816 C   0  0  2  0  0  0  0  0  0  0  0  0
    8.5110  -13.5615   26.9587 C   0  0  0  0  0  0  0  0  0  0  0  0
    9.7002  -13.9063   27.6637 O   0  0  0  0  0  0  0  0  0  0  0  0
   10.3381  -12.9496   28.2565 O   0  0  0  0  0  0  0  0  0  0  0  0
  2  1  1  0
  3  2  2  0
  4  2  1  0
  5  4  1  0
  6  5  1  0
  7  6  1  0
  8  7  1  0
  8  9  1  1
 10 18  1  0
 10  8  1  0
 11 10  2  0
 13 14  2  0
 13 12  1  0
 15 13  1  0
 16 15  1  0
 17 16  1  6
 17 18  1  0
 19 17  1  0
 20 19  2  0
 21 22  1  0
 21 19  1  0
 23 22  1  0
 24 23  1  0
 24 25  1  0
 25 21  1  0
 26 28  1  0
 25 26  1  1
 27 26  2  0
M  END
$$$$
