RQP.pdb
     RDKit          3D

 28 28  0  0  1  0  0  0  0  0999 V2000
    8.9262  -13.4951   17.9611 N   0  0  0  0  0  0  0  0  0  0  0  0
    9.1495  -12.8464   19.2088 C   0  0  0  0  0  0  0  0  0  0  0  0
    9.6151  -11.6421   19.1862 N   0  0  0  0  0  0  0  0  0  0  0  0
    8.8779  -13.4777   20.4454 N   0  0  0  0  0  0  0  0  0  0  0  0
    7.4793  -13.7787   20.8374 C   0  0  0  0  0  0  0  0  0  0  0  0
    6.8681  -14.7026   19.8425 C   0  0  0  0  0  0  0  0  0  0  0  0
    6.2611  -15.9499   20.3204 C   0  0  0  0  0  0  0  0  0  0  0  0
    6.9846  -16.8635   21.2156 C   0  0  2  0  0  0  0  0  0  0  0  0
    6.4380  -18.2304   20.7782 N   0  0  0  0  0  0  0  0  0  0  0  0
    6.5706  -16.7790   22.6422 C   0  0  0  0  0  0  0  0  0  0  0  0
    5.4908  -17.2681   23.0522 O   0  0  0  0  0  0  0  0  0  0  0  0
    9.8718  -11.0646   19.9905 N   0  0  0  0  0  0  0  0  0  0  0  0
    8.8542  -19.1078   27.7110 C   0  0  0  0  0  0  0  0  0  0  0  0
    7.5913  -19.3030   27.1364 O   0  0  0  0  0  0  0  0  0  0  0  0
    7.1544  -20.4611   26.9929 C   0  0  0  0  0  0  0  0  0  0  0  0
    6.7687  -18.1622   26.6971 C   0  0  0  0  0  0  0  0  0  0  0  0
    7.0061  -17.6643   25.3369 C   0  0  1  0  0  0  0  0  0  0  0  0
    6.9658  -16.1973   25.0583 N   0  0  0  0  0  0  0  0  0  0  0  0
    7.3675  -16.1434   23.6203 C   0  0  0  0  0  0  0  0  0  0  0  0
    7.9735  -15.4056   25.8339 O   0  0  0  0  0  0  0  0  0  0  0  0
    9.0730  -15.9988   25.9718 N   0  0  0  0  0  0  0  0  0  0  0  0
    7.8135  -14.1395   26.3814 C   0  0  0  0  0  0  0  0  0  0  0  0
    6.9596  -13.0385   25.8266 C   0  0  0  0  0  0  0  0  0  0  0  0
    6.1642  -12.6698   27.0466 C   0  0  0  0  0  0  0  0  0  0  0  0
    7.0034  -13.1438   28.2421 C   0  0  2  0  0  0  0  0  0  0  0  0
    8.3280  -13.4752   27.5365 C   0  0  0  0  0  0  0  0  0  0  0  0
    9.2908  -14.0679   28.4035 O   0  0  0  0  0  0  0  0  0  0  0  0
    9.2601  -15.3546   28.5345 O   0  0  0  0  0  0  0  0  0  0  0  0
  2  1  1  0
  3  2  2  0
  4  2  1  0
  5  4  1  0
  6  5  1  0
  7  6  1  0
  8  7  1  0
  8  9  1  6
 10 18  1  0
 10  8  1  0
 11 10  2  0
 13 14  2  0
 13 12  1  0
 15 13  1  0
 16 15  1  0
 17 16  1  6
 17 18  1  0
 19 17  1  0
 20 19  2  0
 21 22  1  0
 21 19  1  0
 23 22  1  0
 24 23  1  0
 24 25  1  0
 25 21  1  0
 26 28  1  0
 25 26  1  1
 27 26  2  0
M  END
$$$$
