RQP.pdb
     RDKit          3D

 28 28  0  0  1  0  0  0  0  0999 V2000
    9.1132  -14.8579   15.4458 N   0  0  0  0  0  0  0  0  0  0  0  0
    9.4347  -16.1708   15.8935 C   0  0  0  0  0  0  0  0  0  0  0  0
   10.4379  -16.7667   15.3402 N   0  0  0  0  0  0  0  0  0  0  0  0
    8.6961  -16.8224   16.9091 N   0  0  0  0  0  0  0  0  0  0  0  0
    8.9976  -16.5569   18.3372 C   0  0  0  0  0  0  0  0  0  0  0  0
    8.9200  -15.0937   18.6017 C   0  0  0  0  0  0  0  0  0  0  0  0
    9.0967  -14.6171   19.9781 C   0  0  0  0  0  0  0  0  0  0  0  0
    7.9985  -13.9801   20.7182 C   0  0  2  0  0  0  0  0  0  0  0  0
    8.0121  -12.5581   20.1385 N   0  0  0  0  0  0  0  0  0  0  0  0
    8.2818  -13.7554   22.1615 C   0  0  0  0  0  0  0  0  0  0  0  0
    9.0277  -12.8277   22.5570 O   0  0  0  0  0  0  0  0  0  0  0  0
   10.8306  -17.6770   15.5923 N   0  0  0  0  0  0  0  0  0  0  0  0
    6.0607  -11.4561   26.0573 C   0  0  0  0  0  0  0  0  0  0  0  0
    6.0686  -12.5574   26.9235 O   0  0  0  0  0  0  0  0  0  0  0  0
    6.1409  -12.3707   28.1534 C   0  0  0  0  0  0  0  0  0  0  0  0
    5.9936  -13.9351   26.4063 C   0  0  0  0  0  0  0  0  0  0  0  0
    6.3666  -14.1319   25.0005 C   0  0  1  0  0  0  0  0  0  0  0  0
    7.8061  -14.1436   24.6018 N   0  0  0  0  0  0  0  0  0  0  0  0
    7.7288  -14.5723   23.1727 C   0  0  0  0  0  0  0  0  0  0  0  0
    8.6281  -15.1623   25.3301 O   0  0  0  0  0  0  0  0  0  0  0  0
    8.2988  -16.3466   25.0685 N   0  0  0  0  0  0  0  0  0  0  0  0
    9.6701  -14.9292   26.2181 C   0  0  0  0  0  0  0  0  0  0  0  0
   10.4095  -13.6362   26.3927 C   0  0  0  0  0  0  0  0  0  0  0  0
   10.3134  -13.4667   27.8823 C   0  0  0  0  0  0  0  0  0  0  0  0
   10.0760  -14.8773   28.4412 C   0  0  2  0  0  0  0  0  0  0  0  0
   10.3558  -15.7222   27.1883 C   0  0  0  0  0  0  0  0  0  0  0  0
   10.0916  -17.1093   27.3783 O   0  0  0  0  0  0  0  0  0  0  0  0
    8.8549  -17.4664   27.5076 O   0  0  0  0  0  0  0  0  0  0  0  0
  2  1  1  0
  3  2  2  0
  4  2  1  0
  5  4  1  0
  6  5  1  0
  7  6  1  0
  8  7  1  0
  8  9  1  6
 10 18  1  0
 10  8  1  0
 11 10  2  0
 13 14  2  0
 13 12  1  0
 15 13  1  0
 16 15  1  0
 17 16  1  6
 17 18  1  0
 19 17  1  0
 20 19  2  0
 21 22  1  0
 21 19  1  0
 23 22  1  0
 24 23  1  0
 24 25  1  0
 25 21  1  0
 26 28  1  0
 25 26  1  1
 27 26  2  0
M  END
$$$$
