RQP.pdb
     RDKit          3D

 28 28  0  0  1  0  0  0  0  0999 V2000
   13.9590  -14.9160   18.2936 N   0  0  0  0  0  0  0  0  0  0  0  0
   13.6565  -14.6873   19.6661 C   0  0  0  0  0  0  0  0  0  0  0  0
   14.5673  -14.1400   20.4000 N   0  0  0  0  0  0  0  0  0  0  0  0
   12.4077  -15.0379   20.2308 N   0  0  0  0  0  0  0  0  0  0  0  0
   11.2495  -15.3352   19.3528 C   0  0  0  0  0  0  0  0  0  0  0  0
   10.5075  -14.0781   19.0599 C   0  0  0  0  0  0  0  0  0  0  0  0
    9.5082  -13.6092   20.0265 C   0  0  0  0  0  0  0  0  0  0  0  0
    8.1842  -14.2385   20.1301 C   0  0  2  0  0  0  0  0  0  0  0  0
    7.2801  -13.1758   19.4884 N   0  0  0  0  0  0  0  0  0  0  0  0
    7.6571  -14.3315   21.5184 C   0  0  0  0  0  0  0  0  0  0  0  0
    7.0680  -13.3727   22.0725 O   0  0  0  0  0  0  0  0  0  0  0  0
   14.5527  -14.0224   21.4160 N   0  0  0  0  0  0  0  0  0  0  0  0
    6.6357  -19.8068   24.2491 C   0  0  0  0  0  0  0  0  0  0  0  0
    6.2581  -18.9375   25.2810 O   0  0  0  0  0  0  0  0  0  0  0  0
    5.8091  -19.4058   26.3448 C   0  0  0  0  0  0  0  0  0  0  0  0
    6.3815  -17.4769   25.1313 C   0  0  0  0  0  0  0  0  0  0  0  0
    6.9301  -16.9893   23.8602 C   0  0  1  0  0  0  0  0  0  0  0  0
    7.2449  -15.5394   23.6871 N   0  0  0  0  0  0  0  0  0  0  0  0
    7.7880  -15.5038   22.2957 C   0  0  0  0  0  0  0  0  0  0  0  0
    8.3224  -15.0403   24.6003 O   0  0  0  0  0  0  0  0  0  0  0  0
    9.3503  -15.7634   24.5987 N   0  0  0  0  0  0  0  0  0  0  0  0
    8.2922  -13.9074   25.4028 C   0  0  0  0  0  0  0  0  0  0  0  0
    7.7401  -12.5670   25.0187 C   0  0  0  0  0  0  0  0  0  0  0  0
    6.8300  -12.3031   26.1846 C   0  0  0  0  0  0  0  0  0  0  0  0
    7.3695  -13.1713   27.3307 C   0  0  2  0  0  0  0  0  0  0  0  0
    8.7159  -13.6115   26.7345 C   0  0  0  0  0  0  0  0  0  0  0  0
    9.4091  -14.5509   27.5511 O   0  0  0  0  0  0  0  0  0  0  0  0
    9.2451  -15.8059   27.2833 O   0  0  0  0  0  0  0  0  0  0  0  0
  2  1  1  0
  3  2  2  0
  4  2  1  0
  5  4  1  0
  6  5  1  0
  7  6  1  0
  8  7  1  0
  8  9  1  6
 10 18  1  0
 10  8  1  0
 11 10  2  0
 13 14  2  0
 13 12  1  0
 15 13  1  0
 16 15  1  0
 17 16  1  6
 17 18  1  0
 19 17  1  0
 20 19  2  0
 21 22  1  0
 21 19  1  0
 23 22  1  0
 24 23  1  0
 24 25  1  0
 25 21  1  0
 26 28  1  0
 25 26  1  6
 27 26  2  0
M  END
$$$$
