RQP.pdb
     RDKit          3D

 28 28  0  0  1  0  0  0  0  0999 V2000
    9.3292  -15.5670   15.7897 N   0  0  0  0  0  0  0  0  0  0  0  0
    8.8824  -14.2320   16.0036 C   0  0  0  0  0  0  0  0  0  0  0  0
    8.0023  -13.7540   15.1883 N   0  0  0  0  0  0  0  0  0  0  0  0
    9.3699  -13.4356   17.0663 N   0  0  0  0  0  0  0  0  0  0  0  0
    9.0925  -13.8179   18.4725 C   0  0  0  0  0  0  0  0  0  0  0  0
    7.6251  -13.7790   18.7220 C   0  0  0  0  0  0  0  0  0  0  0  0
    7.1281  -14.1392   20.0546 C   0  0  0  0  0  0  0  0  0  0  0  0
    7.9258  -14.9590   20.9772 C   0  0  2  0  0  0  0  0  0  0  0  0
    7.7414  -16.3651   20.3878 N   0  0  0  0  0  0  0  0  0  0  0  0
    7.3440  -15.0891   22.3404 C   0  0  0  0  0  0  0  0  0  0  0  0
    6.4459  -14.3191   22.7573 O   0  0  0  0  0  0  0  0  0  0  0  0
    7.5465  -12.8396   15.2391 N   0  0  0  0  0  0  0  0  0  0  0  0
    7.7577  -20.2521   25.7642 C   0  0  0  0  0  0  0  0  0  0  0  0
    7.2064  -19.3711   26.7038 O   0  0  0  0  0  0  0  0  0  0  0  0
    6.9242  -19.7872   27.8439 C   0  0  0  0  0  0  0  0  0  0  0  0
    6.9528  -17.9589   26.3682 C   0  0  0  0  0  0  0  0  0  0  0  0
    7.3517  -17.5192   25.0259 C   0  0  1  0  0  0  0  0  0  0  0  0
    7.2665  -16.0749   24.6544 N   0  0  0  0  0  0  0  0  0  0  0  0
    7.7674  -16.0864   23.2469 C   0  0  0  0  0  0  0  0  0  0  0  0
    8.1800  -15.1908   25.4467 O   0  0  0  0  0  0  0  0  0  0  0  0
    9.3680  -15.6000   25.4742 N   0  0  0  0  0  0  0  0  0  0  0  0
    7.8517  -14.0183   26.1144 C   0  0  0  0  0  0  0  0  0  0  0  0
    6.8721  -12.9819   25.6504 C   0  0  0  0  0  0  0  0  0  0  0  0
    6.0188  -12.8442   26.8792 C   0  0  0  0  0  0  0  0  0  0  0  0
    6.8947  -13.3302   28.0433 C   0  0  2  0  0  0  0  0  0  0  0  0
    8.2606  -13.4176   27.3442 C   0  0  0  0  0  0  0  0  0  0  0  0
    9.2788  -13.9711   28.1730 O   0  0  0  0  0  0  0  0  0  0  0  0
   10.0871  -13.1445   28.7535 O   0  0  0  0  0  0  0  0  0  0  0  0
  2  1  1  0
  3  2  2  0
  4  2  1  0
  5  4  1  0
  6  5  1  0
  7  6  1  0
  8  7  1  0
  8  9  1  6
 10 18  1  0
 10  8  1  0
 11 10  2  0
 13 14  2  0
 13 12  1  0
 15 13  1  0
 16 15  1  0
 17 16  1  6
 17 18  1  0
 19 17  1  0
 20 19  2  0
 21 22  1  0
 21 19  1  0
 23 22  1  0
 24 23  1  0
 24 25  1  0
 25 21  1  0
 26 28  1  0
 25 26  1  1
 27 26  2  0
M  END
$$$$
