RQP.pdb
     RDKit          3D

 28 28  0  0  1  0  0  0  0  0999 V2000
    7.8454  -12.6145   18.4324 N   0  0  0  0  0  0  0  0  0  0  0  0
    8.9728  -13.2361   19.0408 C   0  0  0  0  0  0  0  0  0  0  0  0
    9.8863  -12.4709   19.5385 N   0  0  0  0  0  0  0  0  0  0  0  0
    9.1109  -14.6423   19.1113 N   0  0  0  0  0  0  0  0  0  0  0  0
    8.5354  -15.3915   20.2551 C   0  0  0  0  0  0  0  0  0  0  0  0
    7.0566  -15.2197   20.2730 C   0  0  0  0  0  0  0  0  0  0  0  0
    6.2118  -16.4090   20.4297 C   0  0  0  0  0  0  0  0  0  0  0  0
    6.5754  -17.4944   21.3512 C   0  0  2  0  0  0  0  0  0  0  0  0
    5.4716  -18.5254   21.0735 N   0  0  0  0  0  0  0  0  0  0  0  0
    6.3752  -17.1698   22.7894 C   0  0  0  0  0  0  0  0  0  0  0  0
    5.2745  -17.3454   23.3647 O   0  0  0  0  0  0  0  0  0  0  0  0
   10.7599  -12.7622   19.9839 N   0  0  0  0  0  0  0  0  0  0  0  0
    7.4397  -20.5104   26.5392 C   0  0  0  0  0  0  0  0  0  0  0  0
    7.2595  -19.4733   27.4639 O   0  0  0  0  0  0  0  0  0  0  0  0
    7.2201  -19.7360   28.6813 C   0  0  0  0  0  0  0  0  0  0  0  0
    7.1146  -18.0748   27.0228 C   0  0  0  0  0  0  0  0  0  0  0  0
    7.1888  -17.8291   25.5777 C   0  0  1  0  0  0  0  0  0  0  0  0
    7.1847  -16.4301   25.0543 N   0  0  0  0  0  0  0  0  0  0  0  0
    7.4114  -16.6447   23.5933 C   0  0  0  0  0  0  0  0  0  0  0  0
    8.3153  -15.5897   25.5634 O   0  0  0  0  0  0  0  0  0  0  0  0
    9.4045  -16.2125   25.6365 N   0  0  0  0  0  0  0  0  0  0  0  0
    8.2728  -14.2530   25.9374 C   0  0  0  0  0  0  0  0  0  0  0  0
    7.5516  -13.1554   25.2134 C   0  0  0  0  0  0  0  0  0  0  0  0
    6.7675  -12.5526   26.3443 C   0  0  0  0  0  0  0  0  0  0  0  0
    7.5224  -12.9461   27.6224 C   0  0  2  0  0  0  0  0  0  0  0  0
    8.8233  -13.4968   27.0170 C   0  0  0  0  0  0  0  0  0  0  0  0
    9.6973  -14.0628   27.9896 O   0  0  0  0  0  0  0  0  0  0  0  0
    9.5499  -15.3189   28.2617 O   0  0  0  0  0  0  0  0  0  0  0  0
  2  1  1  0
  3  2  2  0
  4  2  1  0
  5  4  1  0
  6  5  1  0
  7  6  1  0
  8  7  1  0
  8  9  1  6
 10 18  1  0
 10  8  1  0
 11 10  2  0
 13 14  2  0
 13 12  1  0
 15 13  1  0
 16 15  1  0
 17 16  1  6
 17 18  1  0
 19 17  1  0
 20 19  2  0
 21 22  1  0
 21 19  1  0
 23 22  1  0
 24 23  1  0
 24 25  1  0
 25 21  1  0
 26 28  1  0
 25 26  1  1
 27 26  2  0
M  END
$$$$
