RQP.pdb
     RDKit          3D

 28 28  0  0  1  0  0  0  0  0999 V2000
    8.3688  -12.1909   19.9604 N   0  0  0  0  0  0  0  0  0  0  0  0
    8.3746  -13.0143   18.7987 C   0  0  0  0  0  0  0  0  0  0  0  0
    9.0542  -12.6099   17.7777 N   0  0  0  0  0  0  0  0  0  0  0  0
    7.6688  -14.2389   18.7398 N   0  0  0  0  0  0  0  0  0  0  0  0
    7.1503  -14.8612   19.9826 C   0  0  0  0  0  0  0  0  0  0  0  0
    6.3938  -16.0984   19.6452 C   0  0  0  0  0  0  0  0  0  0  0  0
    5.7748  -16.8635   20.7335 C   0  0  0  0  0  0  0  0  0  0  0  0
    6.5833  -17.6369   21.6863 C   0  0  2  0  0  0  0  0  0  0  0  0
    5.9494  -19.0314   21.5770 N   0  0  0  0  0  0  0  0  0  0  0  0
    6.3585  -17.2785   23.1128 C   0  0  0  0  0  0  0  0  0  0  0  0
    5.2780  -17.5269   23.6994 O   0  0  0  0  0  0  0  0  0  0  0  0
    9.1975  -13.1075   16.8956 N   0  0  0  0  0  0  0  0  0  0  0  0
    7.6644  -20.7118   26.5261 C   0  0  0  0  0  0  0  0  0  0  0  0
    7.4379  -19.7623   27.5312 O   0  0  0  0  0  0  0  0  0  0  0  0
    7.4471  -20.1181   28.7254 C   0  0  0  0  0  0  0  0  0  0  0  0
    7.1876  -18.3480   27.2019 C   0  0  0  0  0  0  0  0  0  0  0  0
    7.2447  -17.9825   25.7816 C   0  0  1  0  0  0  0  0  0  0  0  0
    7.1841  -16.5466   25.3744 N   0  0  0  0  0  0  0  0  0  0  0  0
    7.3471  -16.6374   23.8920 C   0  0  0  0  0  0  0  0  0  0  0  0
    8.3178  -15.7200   25.8989 O   0  0  0  0  0  0  0  0  0  0  0  0
    9.4046  -16.3481   25.9609 N   0  0  0  0  0  0  0  0  0  0  0  0
    8.2803  -14.3901   26.2972 C   0  0  0  0  0  0  0  0  0  0  0  0
    7.4364  -13.3093   25.6899 C   0  0  0  0  0  0  0  0  0  0  0  0
    6.7853  -12.7477   26.9217 C   0  0  0  0  0  0  0  0  0  0  0  0
    7.7109  -13.1304   28.0858 C   0  0  2  0  0  0  0  0  0  0  0  0
    8.9403  -13.6286   27.3096 C   0  0  0  0  0  0  0  0  0  0  0  0
    9.9502  -14.1759   28.1525 O   0  0  0  0  0  0  0  0  0  0  0  0
    9.8816  -15.4401   28.4184 O   0  0  0  0  0  0  0  0  0  0  0  0
  2  1  1  0
  3  2  2  0
  4  2  1  0
  5  4  1  0
  6  5  1  0
  7  6  1  0
  8  7  1  0
  8  9  1  1
 10 18  1  0
 10  8  1  0
 11 10  2  0
 13 14  2  0
 13 12  1  0
 15 13  1  0
 16 15  1  0
 17 16  1  6
 17 18  1  0
 19 17  1  0
 20 19  2  0
 21 22  1  0
 21 19  1  0
 23 22  1  0
 24 23  1  0
 24 25  1  0
 25 21  1  0
 26 28  1  0
 25 26  1  1
 27 26  2  0
M  END
$$$$
