RQP.pdb
     RDKit          3D

 28 28  0  0  1  0  0  0  0  0999 V2000
    8.2831  -13.1344   17.3549 N   0  0  0  0  0  0  0  0  0  0  0  0
    8.6186  -13.1134   18.7386 C   0  0  0  0  0  0  0  0  0  0  0  0
    8.8775  -11.9688   19.2777 N   0  0  0  0  0  0  0  0  0  0  0  0
    8.6729  -14.2923   19.5186 N   0  0  0  0  0  0  0  0  0  0  0  0
    8.1282  -14.2991   20.8984 C   0  0  0  0  0  0  0  0  0  0  0  0
    6.6466  -14.4389   20.8512 C   0  0  0  0  0  0  0  0  0  0  0  0
    6.0684  -15.7862   20.7944 C   0  0  0  0  0  0  0  0  0  0  0  0
    6.6947  -16.9215   21.4860 C   0  0  2  0  0  0  0  0  0  0  0  0
    5.6980  -18.0537   21.1977 N   0  0  0  0  0  0  0  0  0  0  0  0
    6.6696  -16.8241   22.9705 C   0  0  0  0  0  0  0  0  0  0  0  0
    5.5972  -16.8418   23.6208 O   0  0  0  0  0  0  0  0  0  0  0  0
    9.0071  -11.7708   20.2729 N   0  0  0  0  0  0  0  0  0  0  0  0
    5.4211  -20.7012   25.5087 C   0  0  0  0  0  0  0  0  0  0  0  0
    6.6132  -20.0771   25.8992 O   0  0  0  0  0  0  0  0  0  0  0  0
    7.0652  -20.2777   27.0429 C   0  0  0  0  0  0  0  0  0  0  0  0
    7.3435  -19.1854   24.9813 C   0  0  0  0  0  0  0  0  0  0  0  0
    8.0904  -18.0797   25.5927 C   0  0  2  0  0  0  0  0  0  0  0  0
    7.7701  -16.6670   25.2280 N   0  0  0  0  0  0  0  0  0  0  0  0
    7.8505  -16.7057   23.7366 C   0  0  0  0  0  0  0  0  0  0  0  0
    8.7847  -15.6735   25.7047 O   0  0  0  0  0  0  0  0  0  0  0  0
    9.9691  -16.0159   25.4610 N   0  0  0  0  0  0  0  0  0  0  0  0
    8.5476  -14.4685   26.3530 C   0  0  0  0  0  0  0  0  0  0  0  0
    7.5735  -13.4116   25.9250 C   0  0  0  0  0  0  0  0  0  0  0  0
    6.8181  -13.2024   27.2066 C   0  0  0  0  0  0  0  0  0  0  0  0
    7.7595  -13.6830   28.3207 C   0  0  2  0  0  0  0  0  0  0  0  0
    9.0665  -13.8442   27.5284 C   0  0  0  0  0  0  0  0  0  0  0  0
   10.1228  -14.4085   28.3002 O   0  0  0  0  0  0  0  0  0  0  0  0
   10.7617  -13.6180   29.1006 O   0  0  0  0  0  0  0  0  0  0  0  0
  2  1  1  0
  3  2  2  0
  4  2  1  0
  5  4  1  0
  6  5  1  0
  7  6  1  0
  8  7  1  0
  8  9  1  1
 10 18  1  0
 10  8  1  0
 11 10  2  0
 13 14  2  0
 13 12  1  0
 15 13  1  0
 16 15  1  0
 17 16  1  6
 17 18  1  0
 19 17  1  0
 20 19  2  0
 21 22  1  0
 21 19  1  0
 23 22  1  0
 24 23  1  0
 24 25  1  0
 25 21  1  0
 26 28  1  0
 25 26  1  1
 27 26  2  0
M  END
$$$$
