RQP.pdb
     RDKit          3D

 28 28  0  0  1  0  0  0  0  0999 V2000
   10.0681  -12.1113   19.3430 N   0  0  0  0  0  0  0  0  0  0  0  0
   10.4135  -13.3883   18.8162 C   0  0  0  0  0  0  0  0  0  0  0  0
   11.5989  -13.8392   19.0595 N   0  0  0  0  0  0  0  0  0  0  0  0
    9.5066  -14.1574   18.0497 N   0  0  0  0  0  0  0  0  0  0  0  0
    8.1148  -13.6857   17.8472 C   0  0  0  0  0  0  0  0  0  0  0  0
    7.4014  -13.6548   19.1537 C   0  0  0  0  0  0  0  0  0  0  0  0
    7.2816  -14.9004   19.9197 C   0  0  0  0  0  0  0  0  0  0  0  0
    6.5522  -14.9521   21.1945 C   0  0  2  0  0  0  0  0  0  0  0  0
    6.8091  -13.5479   21.7607 N   0  0  0  0  0  0  0  0  0  0  0  0
    7.1668  -15.8420   22.2163 C   0  0  0  0  0  0  0  0  0  0  0  0
    6.9457  -17.0764   22.2438 O   0  0  0  0  0  0  0  0  0  0  0  0
   12.0219  -14.6939   18.6896 N   0  0  0  0  0  0  0  0  0  0  0  0
   12.5707  -16.9407   22.2731 C   0  0  0  0  0  0  0  0  0  0  0  0
   12.4117  -17.2847   23.6219 O   0  0  0  0  0  0  0  0  0  0  0  0
   13.3951  -17.6872   24.2729 C   0  0  0  0  0  0  0  0  0  0  0  0
   11.1007  -17.1802   24.2864 C   0  0  0  0  0  0  0  0  0  0  0  0
   10.0573  -16.4362   23.5709 C   0  0  1  0  0  0  0  0  0  0  0  0
    8.6929  -16.3014   24.1637 N   0  0  0  0  0  0  0  0  0  0  0  0
    8.0355  -15.3513   23.2164 C   0  0  0  0  0  0  0  0  0  0  0  0
    8.6814  -15.6618   25.5181 O   0  0  0  0  0  0  0  0  0  0  0  0
    9.0161  -16.4459   26.4415 N   0  0  0  0  0  0  0  0  0  0  0  0
    8.3566  -14.3479   25.8294 C   0  0  0  0  0  0  0  0  0  0  0  0
    7.6723  -13.3685   24.9230 C   0  0  0  0  0  0  0  0  0  0  0  0
    6.5651  -12.8943   25.8209 C   0  0  0  0  0  0  0  0  0  0  0  0
    7.0485  -13.1746   27.2513 C   0  0  2  0  0  0  0  0  0  0  0  0
    8.5214  -13.5216   26.9828 C   0  0  0  0  0  0  0  0  0  0  0  0
    9.2163  -13.9534   28.1493 O   0  0  0  0  0  0  0  0  0  0  0  0
    9.4981  -15.2127   28.2411 O   0  0  0  0  0  0  0  0  0  0  0  0
  2  1  1  0
  3  2  2  0
  4  2  1  0
  5  4  1  0
  6  5  1  0
  7  6  1  0
  8  7  1  0
  8  9  1  1
 10 18  1  0
 10  8  1  0
 11 10  2  0
 13 14  2  0
 13 12  1  0
 15 13  1  0
 16 15  1  0
 17 16  1  6
 17 18  1  0
 19 17  1  0
 20 19  2  0
 21 22  1  0
 21 19  1  0
 23 22  1  0
 24 23  1  0
 24 25  1  0
 25 21  1  0
 26 28  1  0
 25 26  1  1
 27 26  2  0
M  END
$$$$
