QKS.pdb
     RDKit          3D

 25 24  0  0  1  0  0  0  0  0999 V2000
   18.6256  -12.7588  -14.9167 N   0  0  0  0  0  0  0  0  0  0  0  0
   18.4351  -11.3558  -15.0613 C   0  0  0  0  0  0  0  0  0  0  0  0
   18.3828  -10.9206  -16.2279 O   0  0  0  0  0  0  0  0  0  0  0  0
   18.3058  -10.4732  -13.9151 C   0  0  0  0  0  0  0  0  0  0  0  0
   18.3312  -11.0712  -12.5629 C   0  0  0  0  0  0  0  0  0  0  0  0
   17.0468  -11.5555  -12.0000 C   0  0  2  0  0  0  0  0  0  0  0  0
   16.3933  -12.6064  -12.7038 N   0  0  0  0  0  0  0  0  0  0  0  0
   16.1217  -10.4354  -11.6852 C   0  0  0  0  0  0  0  0  0  0  0  0
   15.0979  -10.2016  -12.3992 O   0  0  0  0  0  0  0  0  0  0  0  0
   16.3252   -9.5772  -10.5874 N   0  0  0  0  0  0  0  0  0  0  0  0
   15.3964   -8.5277  -10.2139 C   0  0  1  0  0  0  0  0  0  0  0  0
   14.3235   -9.0482   -9.3067 C   0  0  0  0  0  0  0  0  0  0  0  0
   13.3142   -7.9728   -8.9734 C   0  0  0  0  0  0  0  0  0  0  0  0
   12.2313   -8.4975   -8.0535 C   0  0  0  0  0  0  0  0  0  0  0  0
   11.3100   -7.3449   -7.6780 C   0  0  0  0  0  0  0  0  0  0  0  0
   10.3025   -7.8185   -6.7407 N   0  0  0  0  0  0  0  0  0  0  0  0
   16.0802   -7.3289   -9.7232 C   0  0  0  0  0  0  0  0  0  0  0  0
   16.9192   -7.4681   -8.7872 O   0  0  0  0  0  0  0  0  0  0  0  0
   16.6935   -4.0939  -11.9990 O   0  0  0  0  0  0  0  0  0  0  0  0
   17.4522   -4.2723  -10.8464 C   0  0  0  0  0  0  0  0  0  0  0  0
   16.5973   -4.8642   -9.7307 C   0  0  2  0  0  0  0  0  0  0  0  0
   15.8661   -6.0255  -10.2249 N   0  0  0  0  0  0  0  0  0  0  0  0
   15.6206   -3.8553   -9.2611 C   0  0  0  0  0  0  0  0  0  0  0  0
   14.4007   -4.0527   -9.3950 O   0  0  0  0  0  0  0  0  0  0  0  0
   16.0388   -2.6769   -8.6661 O   0  0  0  0  0  0  0  0  0  0  0  0
  2  1  1  0
  3  2  2  0
  4  2  1  0
  5  4  1  0
  6  8  1  0
  6  5  1  0
  6  7  1  6
  8  9  2  0
 10  8  1  0
 10 11  1  0
 11 12  1  1
 13 12  1  0
 14 13  1  0
 15 14  1  0
 16 15  1  0
 17 22  1  0
 17 11  1  0
 18 17  2  0
 20 19  1  0
 21 23  1  0
 21 20  1  6
 21 22  1  0
 23 25  1  0
 24 23  2  0
M  END
$$$$
