QKS.pdb
     RDKit          3D

 25 24  0  0  1  0  0  0  0  0999 V2000
   24.9618  -12.0020  -20.9435 N   0  0  0  0  0  0  0  0  0  0  0  0
   23.8840  -12.5239  -20.1742 C   0  0  0  0  0  0  0  0  0  0  0  0
   23.0710  -13.2491  -20.7794 O   0  0  0  0  0  0  0  0  0  0  0  0
   23.7349  -12.2326  -18.7593 C   0  0  0  0  0  0  0  0  0  0  0  0
   24.7117  -11.3222  -18.1237 C   0  0  0  0  0  0  0  0  0  0  0  0
   24.4704  -10.9294  -16.7136 C   0  0  2  0  0  0  0  0  0  0  0  0
   24.2343  -11.9828  -15.7855 N   0  0  0  0  0  0  0  0  0  0  0  0
   23.4531   -9.8512  -16.6043 C   0  0  0  0  0  0  0  0  0  0  0  0
   23.6239   -8.7210  -17.1576 O   0  0  0  0  0  0  0  0  0  0  0  0
   22.2525  -10.0192  -15.8879 N   0  0  0  0  0  0  0  0  0  0  0  0
   21.1961   -9.0258  -15.8593 C   0  0  1  0  0  0  0  0  0  0  0  0
   19.8656   -9.6544  -15.5771 C   0  0  0  0  0  0  0  0  0  0  0  0
   18.7452   -8.6448  -15.6850 C   0  0  0  0  0  0  0  0  0  0  0  0
   17.3907   -9.3035  -15.5254 C   0  0  0  0  0  0  0  0  0  0  0  0
   16.3104   -8.2442  -15.6958 C   0  0  0  0  0  0  0  0  0  0  0  0
   15.0016   -8.8795  -15.6574 N   0  0  0  0  0  0  0  0  0  0  0  0
   21.5265   -7.8875  -14.9988 C   0  0  0  0  0  0  0  0  0  0  0  0
   21.7915   -8.1214  -13.7846 O   0  0  0  0  0  0  0  0  0  0  0  0
   22.9016   -4.2598  -16.3965 O   0  0  0  0  0  0  0  0  0  0  0  0
   23.1532   -4.7109  -15.1046 C   0  0  0  0  0  0  0  0  0  0  0  0
   21.9368   -5.4439  -14.5486 C   0  0  2  0  0  0  0  0  0  0  0  0
   21.5695   -6.5436  -15.4334 N   0  0  0  0  0  0  0  0  0  0  0  0
   20.7914   -4.5105  -14.4538 C   0  0  0  0  0  0  0  0  0  0  0  0
   20.8317   -3.5447  -13.6723 O   0  0  0  0  0  0  0  0  0  0  0  0
   19.6566   -4.6891  -15.2270 O   0  0  0  0  0  0  0  0  0  0  0  0
  2  1  1  0
  3  2  2  0
  4  2  1  0
  5  4  1  0
  6  8  1  0
  6  5  1  0
  6  7  1  1
  8  9  2  0
 10  8  1  0
 10 11  1  0
 11 12  1  1
 13 12  1  0
 14 13  1  0
 15 14  1  0
 16 15  1  0
 17 22  1  0
 17 11  1  0
 18 17  2  0
 20 19  1  0
 21 23  1  0
 21 20  1  6
 21 22  1  0
 23 25  1  0
 24 23  2  0
M  END
$$$$
