QKS.pdb
     RDKit          3D

 25 24  0  0  1  0  0  0  0  0999 V2000
   14.2398  -13.7144  -12.7544 N   0  0  0  0  0  0  0  0  0  0  0  0
   14.9975  -14.6243  -13.5441 C   0  0  0  0  0  0  0  0  0  0  0  0
   15.2321  -15.7376  -13.0355 O   0  0  0  0  0  0  0  0  0  0  0  0
   15.4732  -14.2809  -14.8726 C   0  0  0  0  0  0  0  0  0  0  0  0
   15.1752  -12.9308  -15.3972 C   0  0  0  0  0  0  0  0  0  0  0  0
   15.7287  -12.5708  -16.7257 C   0  0  2  0  0  0  0  0  0  0  0  0
   16.2885  -13.6291  -17.4960 N   0  0  0  0  0  0  0  0  0  0  0  0
   16.6366  -11.3963  -16.6487 C   0  0  0  0  0  0  0  0  0  0  0  0
   17.8788  -11.5027  -16.8900 O   0  0  0  0  0  0  0  0  0  0  0  0
   16.1759  -10.1102  -16.3072 N   0  0  0  0  0  0  0  0  0  0  0  0
   16.9908   -8.9158  -16.4213 C   0  0  1  0  0  0  0  0  0  0  0  0
   16.1538   -7.6760  -16.3350 C   0  0  0  0  0  0  0  0  0  0  0  0
   17.0022   -6.4295  -16.4488 C   0  0  0  0  0  0  0  0  0  0  0  0
   16.1458   -5.1922  -16.6221 C   0  0  0  0  0  0  0  0  0  0  0  0
   17.0587   -3.9967  -16.8577 C   0  0  0  0  0  0  0  0  0  0  0  0
   16.2666   -2.7759  -16.8484 N   0  0  0  0  0  0  0  0  0  0  0  0
   18.1407   -8.9385  -15.5145 C   0  0  0  0  0  0  0  0  0  0  0  0
   17.9504   -9.3319  -14.3279 O   0  0  0  0  0  0  0  0  0  0  0  0
   21.7200  -10.4253  -15.9213 O   0  0  0  0  0  0  0  0  0  0  0  0
   21.8265   -9.0692  -15.6291 C   0  0  0  0  0  0  0  0  0  0  0  0
   20.5636   -8.5721  -14.9334 C   0  0  2  0  0  0  0  0  0  0  0  0
   19.4505   -8.5503  -15.8756 N   0  0  0  0  0  0  0  0  0  0  0  0
   20.7807   -7.1981  -14.4261 C   0  0  0  0  0  0  0  0  0  0  0  0
   20.1630   -6.2407  -14.9230 O   0  0  0  0  0  0  0  0  0  0  0  0
   21.6698   -6.9481  -13.3944 O   0  0  0  0  0  0  0  0  0  0  0  0
  2  1  1  0
  3  2  2  0
  4  2  1  0
  5  4  1  0
  6  8  1  0
  6  5  1  0
  6  7  1  1
  8  9  2  0
 10  8  1  0
 10 11  1  0
 11 12  1  1
 13 12  1  0
 14 13  1  0
 15 14  1  0
 16 15  1  0
 17 22  1  0
 17 11  1  0
 18 17  2  0
 20 19  1  0
 21 23  1  0
 21 20  1  6
 21 22  1  0
 23 25  1  0
 24 23  2  0
M  END
$$$$
