QKS.pdb
     RDKit          3D

 25 24  0  0  1  0  0  0  0  0999 V2000
   23.3432  -31.8295   -7.6105 N   0  0  0  0  0  0  0  0  0  0  0  0
   23.7926  -32.5676   -6.4796 C   0  0  0  0  0  0  0  0  0  0  0  0
   24.9587  -33.0044   -6.5304 O   0  0  0  0  0  0  0  0  0  0  0  0
   22.9439  -32.8012   -5.3245 C   0  0  0  0  0  0  0  0  0  0  0  0
   21.6115  -32.1605   -5.2920 C   0  0  0  0  0  0  0  0  0  0  0  0
   20.7914  -32.3390   -4.0687 C   0  0  2  0  0  0  0  0  0  0  0  0
   20.1657  -33.6059   -3.8949 N   0  0  0  0  0  0  0  0  0  0  0  0
   19.8395  -31.2148   -3.8701 C   0  0  0  0  0  0  0  0  0  0  0  0
   18.7199  -31.1815   -4.4684 O   0  0  0  0  0  0  0  0  0  0  0  0
   20.1215  -30.1322   -3.0148 N   0  0  0  0  0  0  0  0  0  0  0  0
   19.1485  -29.1122   -2.6735 C   0  0  1  0  0  0  0  0  0  0  0  0
   19.3566  -28.6070   -1.2783 C   0  0  0  0  0  0  0  0  0  0  0  0
   18.2633  -27.6448   -0.8718 C   0  0  0  0  0  0  0  0  0  0  0  0
   18.4248  -27.2011    0.5673 C   0  0  0  0  0  0  0  0  0  0  0  0
   17.2420  -26.3180    0.9408 C   0  0  0  0  0  0  0  0  0  0  0  0
   17.3351  -25.9566    2.3474 N   0  0  0  0  0  0  0  0  0  0  0  0
   19.0598  -28.0648   -3.6935 C   0  0  0  0  0  0  0  0  0  0  0  0
   20.1244  -27.4654   -4.0196 O   0  0  0  0  0  0  0  0  0  0  0  0
   15.9846  -27.4649   -6.6806 O   0  0  0  0  0  0  0  0  0  0  0  0
   17.3618  -27.2681   -6.6961 C   0  0  0  0  0  0  0  0  0  0  0  0
   17.8287  -26.6562   -5.3794 C   0  0  2  0  0  0  0  0  0  0  0  0
   17.8639  -27.6778   -4.3391 N   0  0  0  0  0  0  0  0  0  0  0  0
   16.8893  -25.5900   -4.9634 C   0  0  0  0  0  0  0  0  0  0  0  0
   16.2588  -25.6900   -3.8968 O   0  0  0  0  0  0  0  0  0  0  0  0
   16.6918  -24.4646   -5.7457 O   0  0  0  0  0  0  0  0  0  0  0  0
  2  1  1  0
  3  2  2  0
  4  2  1  0
  5  4  1  0
  6  8  1  0
  6  5  1  0
  6  7  1  6
  8  9  2  0
 10  8  1  0
 10 11  1  0
 11 12  1  1
 13 12  1  0
 14 13  1  0
 15 14  1  0
 16 15  1  0
 17 22  1  0
 17 11  1  0
 18 17  2  0
 20 19  1  0
 21 23  1  0
 21 20  1  6
 21 22  1  0
 23 25  1  0
 24 23  2  0
M  END
$$$$
