QKS.pdb
     RDKit          3D

 25 24  0  0  1  0  0  0  0  0999 V2000
   22.0198  -14.5377  -19.6136 N   0  0  0  0  0  0  0  0  0  0  0  0
   22.4740  -15.8446  -19.2799 C   0  0  0  0  0  0  0  0  0  0  0  0
   22.0193  -16.7813  -19.9647 O   0  0  0  0  0  0  0  0  0  0  0  0
   23.4180  -16.0807  -18.2017 C   0  0  0  0  0  0  0  0  0  0  0  0
   23.9461  -14.9133  -17.4634 C   0  0  0  0  0  0  0  0  0  0  0  0
   25.2559  -14.3633  -17.8910 C   0  0  2  0  0  0  0  0  0  0  0  0
   26.3963  -15.1912  -17.6894 N   0  0  0  0  0  0  0  0  0  0  0  0
   25.4711  -12.9835  -17.3815 C   0  0  0  0  0  0  0  0  0  0  0  0
   24.9940  -12.6075  -16.2664 O   0  0  0  0  0  0  0  0  0  0  0  0
   26.2097  -12.0231  -18.0991 N   0  0  0  0  0  0  0  0  0  0  0  0
   26.4420  -10.6745  -17.6183 C   0  0  1  0  0  0  0  0  0  0  0  0
   27.7297  -10.1220  -18.1491 C   0  0  0  0  0  0  0  0  0  0  0  0
   28.9193  -10.8878  -17.6154 C   0  0  0  0  0  0  0  0  0  0  0  0
   30.2184  -10.3595  -18.1878 C   0  0  0  0  0  0  0  0  0  0  0  0
   31.3645  -11.2157  -17.6667 C   0  0  0  0  0  0  0  0  0  0  0  0
   32.6090  -10.7839  -18.2853 N   0  0  0  0  0  0  0  0  0  0  0  0
   25.2794   -9.8059  -17.8158 C   0  0  0  0  0  0  0  0  0  0  0  0
   24.7420   -9.7882  -18.9604 O   0  0  0  0  0  0  0  0  0  0  0  0
   22.6139   -9.0362  -14.9525 O   0  0  0  0  0  0  0  0  0  0  0  0
   22.3276   -8.8776  -16.3048 C   0  0  0  0  0  0  0  0  0  0  0  0
   23.4968   -8.2129  -17.0238 C   0  0  2  0  0  0  0  0  0  0  0  0
   24.7162   -8.9849  -16.8130 N   0  0  0  0  0  0  0  0  0  0  0  0
   23.7025   -6.8483  -16.4872 C   0  0  0  0  0  0  0  0  0  0  0  0
   24.7711   -6.5483  -15.9276 O   0  0  0  0  0  0  0  0  0  0  0  0
   22.7176   -5.8808  -16.5948 O   0  0  0  0  0  0  0  0  0  0  0  0
  2  1  1  0
  3  2  2  0
  4  2  1  0
  5  4  1  0
  6  8  1  0
  6  5  1  0
  6  7  1  1
  8  9  2  0
 10  8  1  0
 10 11  1  0
 11 12  1  6
 13 12  1  0
 14 13  1  0
 15 14  1  0
 16 15  1  0
 17 22  1  0
 17 11  1  0
 18 17  2  0
 20 19  1  0
 21 23  1  0
 21 20  1  1
 21 22  1  0
 23 25  1  0
 24 23  2  0
M  END
$$$$
