QKS.pdb
     RDKit          3D

 25 24  0  0  1  0  0  0  0  0999 V2000
   22.5121  -25.3949  -13.7799 N   0  0  0  0  0  0  0  0  0  0  0  0
   22.5955  -26.5526  -14.6036 C   0  0  0  0  0  0  0  0  0  0  0  0
   23.7419  -26.9357  -14.9072 O   0  0  0  0  0  0  0  0  0  0  0  0
   21.4123  -27.2556  -15.0672 C   0  0  0  0  0  0  0  0  0  0  0  0
   20.0951  -26.8324  -14.5450 C   0  0  0  0  0  0  0  0  0  0  0  0
   19.6675  -27.3768  -13.2328 C   0  0  2  0  0  0  0  0  0  0  0  0
   19.4520  -28.7822  -13.1606 N   0  0  0  0  0  0  0  0  0  0  0  0
   18.5334  -26.6082  -12.6563 C   0  0  0  0  0  0  0  0  0  0  0  0
   17.3490  -26.7482  -13.0924 O   0  0  0  0  0  0  0  0  0  0  0  0
   18.7052  -25.6893  -11.6031 N   0  0  0  0  0  0  0  0  0  0  0  0
   17.6134  -24.9344  -11.0185 C   0  0  1  0  0  0  0  0  0  0  0  0
   17.9397  -24.4986   -9.6225 C   0  0  0  0  0  0  0  0  0  0  0  0
   17.7152  -25.6167   -8.6296 C   0  0  0  0  0  0  0  0  0  0  0  0
   18.0812  -25.1885   -7.2235 C   0  0  0  0  0  0  0  0  0  0  0  0
   17.7683  -26.3326   -6.2687 C   0  0  0  0  0  0  0  0  0  0  0  0
   18.1852  -25.9657   -4.9236 N   0  0  0  0  0  0  0  0  0  0  0  0
   17.1462  -23.8606  -11.8981 C   0  0  0  0  0  0  0  0  0  0  0  0
   17.9822  -22.9804  -12.2523 O   0  0  0  0  0  0  0  0  0  0  0  0
   13.9486  -22.0823  -15.0605 O   0  0  0  0  0  0  0  0  0  0  0  0
   14.3433  -23.1212  -14.2234 C   0  0  0  0  0  0  0  0  0  0  0  0
   15.3938  -22.6365  -13.2296 C   0  0  2  0  0  0  0  0  0  0  0  0
   15.8229  -23.7408  -12.3789 N   0  0  0  0  0  0  0  0  0  0  0  0
   14.8183  -21.5753  -12.3724 C   0  0  0  0  0  0  0  0  0  0  0  0
   14.3539  -20.5405  -12.8810 O   0  0  0  0  0  0  0  0  0  0  0  0
   14.7836  -21.7084  -10.9945 O   0  0  0  0  0  0  0  0  0  0  0  0
  2  1  1  0
  3  2  2  0
  4  2  1  0
  5  4  1  0
  6  8  1  0
  6  5  1  0
  6  7  1  6
  8  9  2  0
 10  8  1  0
 10 11  1  0
 11 12  1  1
 13 12  1  0
 14 13  1  0
 15 14  1  0
 16 15  1  0
 17 22  1  0
 17 11  1  0
 18 17  2  0
 20 19  1  0
 21 23  1  0
 21 20  1  6
 21 22  1  0
 23 25  1  0
 24 23  2  0
M  END
$$$$
