AMC.pdb
     RDKit          3D

 20 19  0  0  1  0  0  0  0  0999 V2000
    7.0663  -16.8260   20.3504 C   0  0  0  0  0  0  0  0  0  0  0  0
    7.5364  -15.3827   20.3672 C   0  0  2  0  0  0  0  0  0  0  0  0
    8.4760  -15.2146   19.2965 N   0  0  0  0  0  0  0  0  0  0  0  0
    8.1918  -15.1612   21.6779 C   0  0  0  0  0  0  0  0  0  0  0  0
    9.4276  -15.3877   21.8076 O   0  0  0  0  0  0  0  0  0  0  0  0
    6.3885  -10.6291   26.2154 C   0  0  0  0  0  0  0  0  0  0  0  0
    6.2662  -12.2562   26.9629 S   0  0  0  0  0  0  0  0  0  0  0  0
    7.5381  -13.3911   26.2846 C   0  0  0  0  0  0  0  0  0  0  0  0
    7.1128  -13.6900   24.8814 C   0  0  0  0  0  0  0  0  0  0  0  0
    8.1087  -14.5036   24.0702 C   0  0  2  0  0  0  0  0  0  0  0  0
    7.4234  -14.6958   22.7775 N   0  0  0  0  0  0  0  0  0  0  0  0
    8.3674  -15.8251   24.6948 C   0  0  0  0  0  0  0  0  0  0  0  0
    7.7608  -16.8548   24.2276 O   0  0  0  0  0  0  0  0  0  0  0  0
    9.2310  -16.0743   25.7679 N   0  0  0  0  0  0  0  0  0  0  0  0
   10.0571  -17.2463   25.8323 C   0  0  1  0  0  0  0  0  0  0  0  0
   11.0821  -17.2798   24.7004 C   0  0  0  0  0  0  0  0  0  0  0  0
   12.0224  -18.8160   24.8756 S   0  0  0  0  0  0  0  0  0  0  0  0
   10.7384  -17.4207   27.1329 C   0  0  0  0  0  0  0  0  0  0  0  0
   11.4098  -16.4085   27.7822 O   0  0  0  0  0  0  0  0  0  0  0  0
   10.7255  -18.5479   27.7123 O   0  0  0  0  0  0  0  0  0  0  0  0
  2  4  1  0
  2  1  1  1
  3  2  1  0
  4  5  2  0
  7  6  1  0
  8  9  1  0
  8  7  1  0
 10  9  1  1
 10 12  1  0
 11 10  1  0
 11  4  1  0
 12 13  2  0
 14 12  1  0
 14 15  1  0
 15 18  1  0
 16 17  1  0
 15 16  1  6
 18 20  2  0
 18 19  1  0
M  END
$$$$
