AMC.pdb
     RDKit          3D

 20 19  0  0  1  0  0  0  0  0999 V2000
    8.9738  -15.1675   19.9623 C   0  0  0  0  0  0  0  0  0  0  0  0
    9.3805  -16.2497   20.9461 C   0  0  2  0  0  0  0  0  0  0  0  0
    8.3430  -17.2401   20.9628 N   0  0  0  0  0  0  0  0  0  0  0  0
    9.5037  -15.5986   22.2718 C   0  0  0  0  0  0  0  0  0  0  0  0
   10.3960  -14.7251   22.4612 O   0  0  0  0  0  0  0  0  0  0  0  0
    5.9132  -11.3986   25.8152 C   0  0  0  0  0  0  0  0  0  0  0  0
    6.8992  -12.8802   26.0471 S   0  0  0  0  0  0  0  0  0  0  0  0
    6.3545  -14.2187   24.9169 C   0  0  0  0  0  0  0  0  0  0  0  0
    7.2840  -15.3653   25.1630 C   0  0  0  0  0  0  0  0  0  0  0  0
    8.6772  -15.1968   24.5779 C   0  0  2  0  0  0  0  0  0  0  0  0
    8.6160  -15.9633   23.3183 N   0  0  0  0  0  0  0  0  0  0  0  0
    9.7135  -15.7829   25.4644 C   0  0  0  0  0  0  0  0  0  0  0  0
   10.1226  -16.9756   25.2263 O   0  0  0  0  0  0  0  0  0  0  0  0
   10.3115  -15.1525   26.5618 N   0  0  0  0  0  0  0  0  0  0  0  0
   11.2616  -15.8190   27.4062 C   0  0  1  0  0  0  0  0  0  0  0  0
   11.8816  -14.8646   28.4248 C   0  0  0  0  0  0  0  0  0  0  0  0
   10.5218  -13.9730   29.2191 S   0  0  0  0  0  0  0  0  0  0  0  0
   10.7111  -17.0042   28.0979 C   0  0  0  0  0  0  0  0  0  0  0  0
   11.4824  -17.8980   28.8074 O   0  0  0  0  0  0  0  0  0  0  0  0
    9.4672  -17.2438   28.0583 O   0  0  0  0  0  0  0  0  0  0  0  0
  2  4  1  0
  2  1  1  6
  3  2  1  0
  4  5  2  0
  7  6  1  0
  8  9  1  0
  8  7  1  0
 10  9  1  1
 10 12  1  0
 11 10  1  0
 11  4  1  0
 12 13  2  0
 14 12  1  0
 14 15  1  0
 15 18  1  0
 16 17  1  0
 15 16  1  1
 18 20  2  0
 18 19  1  0
M  END
$$$$
