AMC.pdb
     RDKit          3D

 20 19  0  0  1  0  0  0  0  0999 V2000
    8.2865  -18.1953   20.6481 C   0  0  0  0  0  0  0  0  0  0  0  0
    8.4857  -16.7063   20.4295 C   0  0  2  0  0  0  0  0  0  0  0  0
    9.4699  -16.5417   19.3990 N   0  0  0  0  0  0  0  0  0  0  0  0
    8.9730  -16.1468   21.7125 C   0  0  0  0  0  0  0  0  0  0  0  0
   10.2055  -16.1850   21.9858 O   0  0  0  0  0  0  0  0  0  0  0  0
    6.3661  -11.5798   27.5955 C   0  0  0  0  0  0  0  0  0  0  0  0
    6.1408  -12.5957   26.1332 S   0  0  0  0  0  0  0  0  0  0  0  0
    7.6636  -13.5432   25.7472 C   0  0  0  0  0  0  0  0  0  0  0  0
    7.4072  -14.2117   24.4332 C   0  0  0  0  0  0  0  0  0  0  0  0
    8.5728  -15.0222   23.8891 C   0  0  2  0  0  0  0  0  0  0  0  0
    8.0485  -15.5719   22.6240 N   0  0  0  0  0  0  0  0  0  0  0  0
    8.9330  -16.1363   24.8015 C   0  0  0  0  0  0  0  0  0  0  0  0
    8.1425  -17.1438   24.8829 O   0  0  0  0  0  0  0  0  0  0  0  0
   10.0786  -16.2076   25.6026 N   0  0  0  0  0  0  0  0  0  0  0  0
   10.4657  -17.4105   26.2834 C   0  0  1  0  0  0  0  0  0  0  0  0
   11.6914  -18.0561   25.6401 C   0  0  0  0  0  0  0  0  0  0  0  0
   12.0625  -19.5558   26.5824 S   0  0  0  0  0  0  0  0  0  0  0  0
   10.6976  -17.2237   27.7316 C   0  0  0  0  0  0  0  0  0  0  0  0
   10.5289  -16.0206   28.3806 O   0  0  0  0  0  0  0  0  0  0  0  0
   11.0724  -18.2001   28.4475 O   0  0  0  0  0  0  0  0  0  0  0  0
  2  4  1  0
  2  1  1  1
  3  2  1  0
  4  5  2  0
  7  6  1  0
  8  9  1  0
  8  7  1  0
 10  9  1  1
 10 12  1  0
 11 10  1  0
 11  4  1  0
 12 13  2  0
 14 12  1  0
 14 15  1  0
 15 18  1  0
 16 17  1  0
 15 16  1  6
 18 20  2  0
 18 19  1  0
M  END
$$$$
