AMC.pdb
     RDKit          3D

 20 19  0  0  1  0  0  0  0  0999 V2000
    7.4750  -17.1754   20.3065 C   0  0  0  0  0  0  0  0  0  0  0  0
    7.6419  -15.6688   20.3897 C   0  0  2  0  0  0  0  0  0  0  0  0
    8.5127  -15.2642   19.3241 N   0  0  0  0  0  0  0  0  0  0  0  0
    8.2568  -15.3785   21.7066 C   0  0  0  0  0  0  0  0  0  0  0  0
    9.5103  -15.4509   21.8434 O   0  0  0  0  0  0  0  0  0  0  0  0
    7.4013  -10.7676   26.9553 C   0  0  0  0  0  0  0  0  0  0  0  0
    6.3410  -12.1971   26.7243 S   0  0  0  0  0  0  0  0  0  0  0  0
    7.3244  -13.6858   26.2974 C   0  0  0  0  0  0  0  0  0  0  0  0
    6.9706  -14.0175   24.8818 C   0  0  0  0  0  0  0  0  0  0  0  0
    8.0838  -14.6737   24.0806 C   0  0  2  0  0  0  0  0  0  0  0  0
    7.4299  -15.0208   22.8040 N   0  0  0  0  0  0  0  0  0  0  0  0
    8.5712  -15.9110   24.7399 C   0  0  0  0  0  0  0  0  0  0  0  0
    7.7742  -16.9124   24.8330 O   0  0  0  0  0  0  0  0  0  0  0  0
    9.8463  -16.1078   25.2829 N   0  0  0  0  0  0  0  0  0  0  0  0
   10.2348  -17.3432   25.9018 C   0  0  1  0  0  0  0  0  0  0  0  0
   11.6162  -17.7998   25.4370 C   0  0  0  0  0  0  0  0  0  0  0  0
   11.5573  -17.9303   23.6330 S   0  0  0  0  0  0  0  0  0  0  0  0
   10.1881  -17.3065   27.3792 C   0  0  0  0  0  0  0  0  0  0  0  0
   10.4686  -18.3938   28.1769 O   0  0  0  0  0  0  0  0  0  0  0  0
    9.8772  -16.2347   27.9800 O   0  0  0  0  0  0  0  0  0  0  0  0
  2  4  1  0
  2  1  1  1
  3  2  1  0
  4  5  2  0
  7  6  1  0
  8  9  1  0
  8  7  1  0
 10  9  1  1
 10 12  1  0
 11 10  1  0
 11  4  1  0
 12 13  2  0
 14 12  1  0
 14 15  1  0
 15 18  1  0
 16 17  1  0
 15 16  1  1
 18 20  2  0
 18 19  1  0
M  END
$$$$
