AMC.pdb
     RDKit          3D

 20 19  0  0  1  0  0  0  0  0999 V2000
    7.6081  -13.1172   19.7696 C   0  0  0  0  0  0  0  0  0  0  0  0
    7.8877  -14.5170   20.2863 C   0  0  2  0  0  0  0  0  0  0  0  0
    6.6382  -15.2186   20.3514 N   0  0  0  0  0  0  0  0  0  0  0  0
    8.4733  -14.3648   21.6392 C   0  0  0  0  0  0  0  0  0  0  0  0
    9.6274  -13.8690   21.7711 O   0  0  0  0  0  0  0  0  0  0  0  0
    7.0696  -11.5380   27.6246 C   0  0  0  0  0  0  0  0  0  0  0  0
    5.9939  -12.5208   26.5766 S   0  0  0  0  0  0  0  0  0  0  0  0
    6.7900  -12.8753   24.9622 C   0  0  0  0  0  0  0  0  0  0  0  0
    7.2203  -14.3072   25.0242 C   0  0  0  0  0  0  0  0  0  0  0  0
    8.3724  -14.6699   24.1007 C   0  0  2  0  0  0  0  0  0  0  0  0
    7.7305  -14.7783   22.7764 N   0  0  0  0  0  0  0  0  0  0  0  0
    8.9729  -15.9766   24.4684 C   0  0  0  0  0  0  0  0  0  0  0  0
    8.2629  -17.0375   24.3380 O   0  0  0  0  0  0  0  0  0  0  0  0
   10.2704  -16.1801   24.9527 N   0  0  0  0  0  0  0  0  0  0  0  0
   10.7914  -17.4893   25.2258 C   0  0  1  0  0  0  0  0  0  0  0  0
   12.2328  -17.6375   24.7426 C   0  0  0  0  0  0  0  0  0  0  0  0
   12.2761  -17.0979   23.0159 S   0  0  0  0  0  0  0  0  0  0  0  0
   10.6951  -17.8809   26.6483 C   0  0  0  0  0  0  0  0  0  0  0  0
   10.1206  -17.0897   27.6184 O   0  0  0  0  0  0  0  0  0  0  0  0
   11.1548  -18.9973   27.0338 O   0  0  0  0  0  0  0  0  0  0  0  0
  2  4  1  0
  2  1  1  1
  3  2  1  0
  4  5  2  0
  7  6  1  0
  8  9  1  0
  8  7  1  0
 10  9  1  1
 10 12  1  0
 11 10  1  0
 11  4  1  0
 12 13  2  0
 14 12  1  0
 14 15  1  0
 15 18  1  0
 16 17  1  0
 15 16  1  1
 18 20  2  0
 18 19  1  0
M  END
$$$$
