VMF.pdb
     RDKit          3D

 27 27  0  0  1  0  0  0  0  0999 V2000
   23.4241  -18.7936  -12.3206 C   0  0  0  0  0  0  0  0  0  0  0  0
   22.9236  -20.1002  -12.8991 C   0  0  1  0  0  0  0  0  0  0  0  0
   22.1853  -19.7737  -14.1808 C   0  0  0  0  0  0  0  0  0  0  0  0
   24.0448  -21.0411  -13.2565 C   0  0  2  0  0  0  0  0  0  0  0  0
   23.4628  -22.1889  -13.9081 N   0  0  0  0  0  0  0  0  0  0  0  0
   24.8564  -21.4259  -12.0663 C   0  0  0  0  0  0  0  0  0  0  0  0
   24.3191  -22.1472  -11.1939 O   0  0  0  0  0  0  0  0  0  0  0  0
   31.4933  -22.6681  -11.7003 C   0  0  0  0  0  0  0  0  0  0  0  0
   31.1636  -21.4519  -10.3815 S   0  0  0  0  0  0  0  0  0  0  0  0
   29.4103  -21.5418   -9.9365 C   0  0  0  0  0  0  0  0  0  0  0  0
   28.5526  -21.1925  -11.1252 C   0  0  0  0  0  0  0  0  0  0  0  0
   27.0643  -21.2137  -10.8052 C   0  0  2  0  0  0  0  0  0  0  0  0
   26.1947  -21.0049  -11.8988 N   0  0  0  0  0  0  0  0  0  0  0  0
   26.8208  -20.4743   -9.5781 C   0  0  0  0  0  0  0  0  0  0  0  0
   26.5882  -19.2212   -9.7321 O   0  0  0  0  0  0  0  0  0  0  0  0
   26.8226  -21.0171   -8.2858 N   0  0  0  0  0  0  0  0  0  0  0  0
   26.9742  -20.1851   -7.1154 C   0  0  1  0  0  0  0  0  0  0  0  0
   27.2878  -21.0926   -5.9575 C   0  0  0  0  0  0  0  0  0  0  0  0
   27.6669  -20.3965   -4.7125 C   0  0  0  0  0  0  0  0  0  0  0  0
   26.8246  -19.5275   -4.0200 C   0  0  0  0  0  0  0  0  0  0  0  0
   27.2556  -18.9188   -2.8631 C   0  0  0  0  0  0  0  0  0  0  0  0
   28.5222  -19.1693   -2.3895 C   0  0  0  0  0  0  0  0  0  0  0  0
   29.3912  -20.0338   -3.0581 C   0  0  0  0  0  0  0  0  0  0  0  0
   28.9405  -20.6249   -4.2025 C   0  0  0  0  0  0  0  0  0  0  0  0
   28.0186  -19.1662   -7.2680 C   0  0  0  0  0  0  0  0  0  0  0  0
   29.2743  -19.5462   -7.7173 O   0  0  0  0  0  0  0  0  0  0  0  0
   27.8846  -17.9343   -7.0206 O   0  0  0  0  0  0  0  0  0  0  0  0
  2  4  1  0
  2  1  1  6
  3  2  1  0
  4  5  1  1
  6  4  1  0
  7  6  2  0
  9  8  1  0
 10  9  1  0
 10 11  1  0
 12 11  1  6
 12 13  1  0
 13  6  1  0
 14 16  1  0
 14 12  1  0
 15 14  2  0
 17 18  1  1
 17 16  1  0
 18 19  1  0
 19 24  2  0
 20 19  1  0
 20 21  2  0
 21 22  1  0
 22 23  2  0
 24 23  1  0
 25 17  1  0
 25 26  1  0
 27 25  2  0
M  END
$$$$
