VMF.pdb
     RDKit          3D

 27 27  0  0  1  0  0  0  0  0999 V2000
   26.9825  -15.7240  -15.3430 C   0  0  0  0  0  0  0  0  0  0  0  0
   26.0134  -16.8332  -14.9924 C   0  0  1  0  0  0  0  0  0  0  0  0
   24.9136  -16.8187  -16.0338 C   0  0  0  0  0  0  0  0  0  0  0  0
   26.6542  -18.1962  -15.0379 C   0  0  2  0  0  0  0  0  0  0  0  0
   27.2619  -18.3515  -16.3369 N   0  0  0  0  0  0  0  0  0  0  0  0
   25.6796  -19.2854  -14.7428 C   0  0  0  0  0  0  0  0  0  0  0  0
   25.0995  -19.8355  -15.7077 O   0  0  0  0  0  0  0  0  0  0  0  0
   25.8166  -20.6306   -8.9910 C   0  0  0  0  0  0  0  0  0  0  0  0
   27.0501  -21.3917  -10.0983 S   0  0  0  0  0  0  0  0  0  0  0  0
   26.2205  -21.9015  -11.6254 C   0  0  0  0  0  0  0  0  0  0  0  0
   24.8140  -21.3618  -11.6593 C   0  0  0  0  0  0  0  0  0  0  0  0
   24.4755  -20.6801  -12.9778 C   0  0  2  0  0  0  0  0  0  0  0  0
   25.3973  -19.7070  -13.4242 N   0  0  0  0  0  0  0  0  0  0  0  0
   23.0595  -20.3550  -13.0071 C   0  0  0  0  0  0  0  0  0  0  0  0
   22.7433  -19.2397  -12.4555 O   0  0  0  0  0  0  0  0  0  0  0  0
   22.0531  -21.1477  -13.5758 N   0  0  0  0  0  0  0  0  0  0  0  0
   20.6994  -20.6657  -13.7180 C   0  0  1  0  0  0  0  0  0  0  0  0
   20.7563  -19.4026  -14.5329 C   0  0  0  0  0  0  0  0  0  0  0  0
   21.2029  -19.5871  -15.9274 C   0  0  0  0  0  0  0  0  0  0  0  0
   20.4536  -20.2424  -16.9037 C   0  0  0  0  0  0  0  0  0  0  0  0
   20.9430  -20.3706  -18.1839 C   0  0  0  0  0  0  0  0  0  0  0  0
   22.1760  -19.8500  -18.4999 C   0  0  0  0  0  0  0  0  0  0  0  0
   22.9524  -19.1881  -17.5466 C   0  0  0  0  0  0  0  0  0  0  0  0
   22.4451  -19.0740  -16.2850 C   0  0  0  0  0  0  0  0  0  0  0  0
   19.8057  -21.6442  -14.3473 C   0  0  0  0  0  0  0  0  0  0  0  0
   18.4642  -21.3309  -14.5068 O   0  0  0  0  0  0  0  0  0  0  0  0
   20.1472  -22.7844  -14.7716 O   0  0  0  0  0  0  0  0  0  0  0  0
  2  4  1  0
  2  1  1  6
  3  2  1  0
  4  5  1  6
  6  4  1  0
  7  6  2  0
  9  8  1  0
 10  9  1  0
 10 11  1  0
 12 11  1  1
 12 13  1  0
 13  6  1  0
 14 16  1  0
 14 12  1  0
 15 14  2  0
 17 18  1  6
 17 16  1  0
 18 19  1  0
 19 24  2  0
 20 19  1  0
 20 21  2  0
 21 22  1  0
 22 23  2  0
 24 23  1  0
 25 17  1  0
 25 26  1  0
 27 25  2  0
M  END
$$$$
