VMF.pdb
     RDKit          3D

 27 27  0  0  1  0  0  0  0  0999 V2000
   28.1514  -35.6652  -11.9289 C   0  0  0  0  0  0  0  0  0  0  0  0
   28.1491  -35.6145  -10.4157 C   0  0  1  0  0  0  0  0  0  0  0  0
   26.7029  -35.5832   -9.9665 C   0  0  0  0  0  0  0  0  0  0  0  0
   28.7834  -36.8325   -9.7957 C   0  0  2  0  0  0  0  0  0  0  0  0
   28.0406  -37.9869  -10.2387 N   0  0  0  0  0  0  0  0  0  0  0  0
   28.8400  -36.7412   -8.3085 C   0  0  0  0  0  0  0  0  0  0  0  0
   27.9173  -37.2739   -7.6491 O   0  0  0  0  0  0  0  0  0  0  0  0
   34.3117  -36.0337   -4.7962 C   0  0  0  0  0  0  0  0  0  0  0  0
   33.1914  -35.0733   -3.7241 S   0  0  0  0  0  0  0  0  0  0  0  0
   31.4853  -35.3745   -4.2523 C   0  0  0  0  0  0  0  0  0  0  0  0
   31.4286  -35.5658   -5.7459 C   0  0  0  0  0  0  0  0  0  0  0  0
   30.0102  -35.7664   -6.2613 C   0  0  2  0  0  0  0  0  0  0  0  0
   29.8905  -36.0799   -7.6337 N   0  0  0  0  0  0  0  0  0  0  0  0
   29.1429  -34.7393   -5.7092 C   0  0  0  0  0  0  0  0  0  0  0  0
   29.0947  -33.6460   -6.3805 O   0  0  0  0  0  0  0  0  0  0  0  0
   28.3839  -34.8577   -4.5369 N   0  0  0  0  0  0  0  0  0  0  0  0
   27.2494  -34.0020   -4.2800 C   0  0  1  0  0  0  0  0  0  0  0  0
   26.1861  -34.3533   -5.2842 C   0  0  0  0  0  0  0  0  0  0  0  0
   26.1082  -33.4446   -6.4445 C   0  0  0  0  0  0  0  0  0  0  0  0
   25.7022  -32.1131   -6.3636 C   0  0  0  0  0  0  0  0  0  0  0  0
   25.6588  -31.3312   -7.4956 C   0  0  0  0  0  0  0  0  0  0  0  0
   26.0173  -31.8664   -8.7107 C   0  0  0  0  0  0  0  0  0  0  0  0
   26.4284  -33.1958   -8.8273 C   0  0  0  0  0  0  0  0  0  0  0  0
   26.4631  -33.9501   -7.6906 C   0  0  0  0  0  0  0  0  0  0  0  0
   26.7305  -34.1329   -2.9140 C   0  0  0  0  0  0  0  0  0  0  0  0
   27.3248  -35.0387   -2.0483 O   0  0  0  0  0  0  0  0  0  0  0  0
   25.7612  -33.4819   -2.4311 O   0  0  0  0  0  0  0  0  0  0  0  0
  2  4  1  0
  2  1  1  6
  3  2  1  0
  4  5  1  1
  6  4  1  0
  7  6  2  0
  9  8  1  0
 10  9  1  0
 10 11  1  0
 12 11  1  6
 12 13  1  0
 13  6  1  0
 14 16  1  0
 14 12  1  0
 15 14  2  0
 17 18  1  6
 17 16  1  0
 18 19  1  0
 19 24  2  0
 20 19  1  0
 20 21  2  0
 21 22  1  0
 22 23  2  0
 24 23  1  0
 25 17  1  0
 25 26  1  0
 27 25  2  0
M  END
$$$$
