VMF.pdb
     RDKit          3D

 27 27  0  0  1  0  0  0  0  0999 V2000
   43.4342  -16.3393  -11.1623 C   0  0  0  0  0  0  0  0  0  0  0  0
   42.9996  -15.4507  -10.0160 C   0  0  1  0  0  0  0  0  0  0  0  0
   44.1371  -15.4132   -9.0165 C   0  0  0  0  0  0  0  0  0  0  0  0
   42.7398  -14.0317  -10.4511 C   0  0  2  0  0  0  0  0  0  0  0  0
   43.9423  -13.5381  -11.0765 N   0  0  0  0  0  0  0  0  0  0  0  0
   42.3041  -13.1671   -9.3171 C   0  0  0  0  0  0  0  0  0  0  0  0
   41.1869  -13.3943   -8.7973 O   0  0  0  0  0  0  0  0  0  0  0  0
   46.5186  -11.0724   -4.9619 C   0  0  0  0  0  0  0  0  0  0  0  0
   45.2820   -9.7541   -4.7166 S   0  0  0  0  0  0  0  0  0  0  0  0
   43.7693  -10.2073   -5.6034 C   0  0  0  0  0  0  0  0  0  0  0  0
   44.1117  -10.8885   -6.9032 C   0  0  0  0  0  0  0  0  0  0  0  0
   42.8793  -11.2687   -7.7123 C   0  0  2  0  0  0  0  0  0  0  0  0
   43.1055  -12.1145   -8.8210 N   0  0  0  0  0  0  0  0  0  0  0  0
   42.0393  -10.0975   -7.8971 C   0  0  0  0  0  0  0  0  0  0  0  0
   42.2975   -9.3992   -8.9430 O   0  0  0  0  0  0  0  0  0  0  0  0
   41.0045   -9.6939   -7.0421 N   0  0  0  0  0  0  0  0  0  0  0  0
   40.1793   -8.5472   -7.3410 C   0  0  1  0  0  0  0  0  0  0  0  0
   38.7821   -8.8693   -6.8862 C   0  0  0  0  0  0  0  0  0  0  0  0
   38.1679  -10.0330   -7.5548 C   0  0  0  0  0  0  0  0  0  0  0  0
   37.8125  -11.2098   -6.8968 C   0  0  0  0  0  0  0  0  0  0  0  0
   37.2419  -12.2497   -7.5951 C   0  0  0  0  0  0  0  0  0  0  0  0
   37.0220  -12.1264   -8.9471 C   0  0  0  0  0  0  0  0  0  0  0  0
   37.3660  -10.9621   -9.6369 C   0  0  0  0  0  0  0  0  0  0  0  0
   37.9301   -9.9457   -8.9223 C   0  0  0  0  0  0  0  0  0  0  0  0
   40.6568   -7.3155   -6.7032 C   0  0  0  0  0  0  0  0  0  0  0  0
   40.2724   -6.0898   -7.2259 O   0  0  0  0  0  0  0  0  0  0  0  0
   41.4112   -7.2573   -5.6912 O   0  0  0  0  0  0  0  0  0  0  0  0
  2  4  1  0
  2  1  1  6
  3  2  1  0
  4  5  1  1
  6  4  1  0
  7  6  2  0
  9  8  1  0
 10  9  1  0
 10 11  1  0
 12 11  1  6
 12 13  1  0
 13  6  1  0
 14 16  1  0
 14 12  1  0
 15 14  2  0
 17 18  1  1
 17 16  1  0
 18 19  1  0
 19 24  2  0
 20 19  1  0
 20 21  2  0
 21 22  1  0
 22 23  2  0
 24 23  1  0
 25 17  1  0
 25 26  1  0
 27 25  2  0
M  END
$$$$
