VMF.pdb
     RDKit          3D

 27 27  0  0  1  0  0  0  0  0999 V2000
   28.7917  -19.4703  -17.4474 C   0  0  0  0  0  0  0  0  0  0  0  0
   27.9298  -19.1968  -16.2331 C   0  0  1  0  0  0  0  0  0  0  0  0
   26.5382  -19.7093  -16.5417 C   0  0  0  0  0  0  0  0  0  0  0  0
   28.4125  -19.9253  -15.0057 C   0  0  2  0  0  0  0  0  0  0  0  0
   28.3787  -21.3385  -15.2934 N   0  0  0  0  0  0  0  0  0  0  0  0
   27.6106  -19.5817  -13.7965 C   0  0  0  0  0  0  0  0  0  0  0  0
   27.7787  -18.4534  -13.2781 O   0  0  0  0  0  0  0  0  0  0  0  0
   21.4725  -20.9562  -12.4196 C   0  0  0  0  0  0  0  0  0  0  0  0
   22.0640  -19.7038  -13.6064 S   0  0  0  0  0  0  0  0  0  0  0  0
   23.8591  -19.5407  -13.4290 C   0  0  0  0  0  0  0  0  0  0  0  0
   24.3587  -20.4466  -12.3335 C   0  0  0  0  0  0  0  0  0  0  0  0
   25.8562  -20.3119  -12.0939 C   0  0  2  0  0  0  0  0  0  0  0  0
   26.6806  -20.4810  -13.2286 N   0  0  0  0  0  0  0  0  0  0  0  0
   26.2164  -21.0054  -10.8688 C   0  0  0  0  0  0  0  0  0  0  0  0
   27.2563  -21.7539  -10.9501 O   0  0  0  0  0  0  0  0  0  0  0  0
   25.5305  -20.9156   -9.6498 N   0  0  0  0  0  0  0  0  0  0  0  0
   26.2055  -21.0967   -8.3862 C   0  0  1  0  0  0  0  0  0  0  0  0
   27.3131  -20.0811   -8.3197 C   0  0  0  0  0  0  0  0  0  0  0  0
   28.0385  -20.0418   -7.0350 C   0  0  0  0  0  0  0  0  0  0  0  0
   27.7676  -19.1289   -6.0165 C   0  0  0  0  0  0  0  0  0  0  0  0
   28.4911  -19.1607   -4.8459 C   0  0  0  0  0  0  0  0  0  0  0  0
   29.4849  -20.0969   -4.6815 C   0  0  0  0  0  0  0  0  0  0  0  0
   29.7823  -21.0255   -5.6810 C   0  0  0  0  0  0  0  0  0  0  0  0
   29.0510  -20.9735   -6.8319 C   0  0  0  0  0  0  0  0  0  0  0  0
   25.3098  -20.9573   -7.2327 C   0  0  0  0  0  0  0  0  0  0  0  0
   25.5203  -21.7479   -6.1130 O   0  0  0  0  0  0  0  0  0  0  0  0
   24.3304  -20.1627   -7.1552 O   0  0  0  0  0  0  0  0  0  0  0  0
  2  4  1  0
  2  1  1  6
  3  2  1  0
  4  5  1  6
  6  4  1  0
  7  6  2  0
  9  8  1  0
 10  9  1  0
 10 11  1  0
 12 11  1  6
 12 13  1  0
 13  6  1  0
 14 16  1  0
 14 12  1  0
 15 14  2  0
 17 18  1  1
 17 16  1  0
 18 19  1  0
 19 24  2  0
 20 19  1  0
 20 21  2  0
 21 22  1  0
 22 23  2  0
 24 23  1  0
 25 17  1  0
 25 26  1  0
 27 25  2  0
M  END
$$$$
