VMF.pdb
     RDKit          3D

 27 27  0  0  1  0  0  0  0  0999 V2000
   27.2079  -17.7951  -14.5320 C   0  0  0  0  0  0  0  0  0  0  0  0
   27.6026  -18.8350  -15.5592 C   0  0  1  0  0  0  0  0  0  0  0  0
   28.8106  -18.3017  -16.3013 C   0  0  0  0  0  0  0  0  0  0  0  0
   28.0059  -20.1439  -14.9311 C   0  0  2  0  0  0  0  0  0  0  0  0
   28.4903  -21.0039  -15.9830 N   0  0  0  0  0  0  0  0  0  0  0  0
   26.8877  -20.7691  -14.1682 C   0  0  0  0  0  0  0  0  0  0  0  0
   25.9216  -21.2371  -14.8145 O   0  0  0  0  0  0  0  0  0  0  0  0
   26.9056  -18.6871   -7.3672 C   0  0  0  0  0  0  0  0  0  0  0  0
   26.1377  -20.1452   -8.1491 S   0  0  0  0  0  0  0  0  0  0  0  0
   26.9214  -20.4186   -9.7589 C   0  0  0  0  0  0  0  0  0  0  0  0
   26.2757  -21.5849  -10.4612 C   0  0  0  0  0  0  0  0  0  0  0  0
   25.8542  -21.2552  -11.8865 C   0  0  2  0  0  0  0  0  0  0  0  0
   26.8888  -20.8466  -12.7574 N   0  0  0  0  0  0  0  0  0  0  0  0
   24.6251  -20.4803  -11.8627 C   0  0  0  0  0  0  0  0  0  0  0  0
   24.7824  -19.2061  -11.8586 O   0  0  0  0  0  0  0  0  0  0  0  0
   23.3278  -21.0106  -11.8446 N   0  0  0  0  0  0  0  0  0  0  0  0
   22.2494  -20.3987  -12.5847 C   0  0  1  0  0  0  0  0  0  0  0  0
   22.6938  -20.2900  -14.0176 C   0  0  0  0  0  0  0  0  0  0  0  0
   21.7329  -19.6164  -14.9127 C   0  0  0  0  0  0  0  0  0  0  0  0
   21.6901  -18.2370  -15.1109 C   0  0  0  0  0  0  0  0  0  0  0  0
   20.7617  -17.6875  -15.9659 C   0  0  0  0  0  0  0  0  0  0  0  0
   19.8734  -18.5034  -16.6266 C   0  0  0  0  0  0  0  0  0  0  0  0
   19.8887  -19.8886  -16.4511 C   0  0  0  0  0  0  0  0  0  0  0  0
   20.8185  -20.4088  -15.5984 C   0  0  0  0  0  0  0  0  0  0  0  0
   20.9922  -21.1490  -12.4914 C   0  0  0  0  0  0  0  0  0  0  0  0
   19.8182  -20.4692  -12.2036 O   0  0  0  0  0  0  0  0  0  0  0  0
   20.8678  -22.3963  -12.6507 O   0  0  0  0  0  0  0  0  0  0  0  0
  2  4  1  0
  2  1  1  1
  3  2  1  0
  4  5  1  6
  6  4  1  0
  7  6  2  0
  9  8  1  0
 10  9  1  0
 10 11  1  0
 12 11  1  1
 12 13  1  0
 13  6  1  0
 14 16  1  0
 14 12  1  0
 15 14  2  0
 17 18  1  6
 17 16  1  0
 18 19  1  0
 19 24  2  0
 20 19  1  0
 20 21  2  0
 21 22  1  0
 22 23  2  0
 24 23  1  0
 25 17  1  0
 25 26  1  0
 27 25  2  0
M  END
$$$$
