VMF.pdb
     RDKit          3D

 27 27  0  0  1  0  0  0  0  0999 V2000
   20.8078  -15.5405  -17.3453 C   0  0  0  0  0  0  0  0  0  0  0  0
   20.2190  -14.1461  -17.3855 C   0  0  1  0  0  0  0  0  0  0  0  0
   19.6923  -13.9179  -18.7872 C   0  0  0  0  0  0  0  0  0  0  0  0
   19.0579  -13.9816  -16.4395 C   0  0  2  0  0  0  0  0  0  0  0  0
   18.0752  -14.9835  -16.7735 N   0  0  0  0  0  0  0  0  0  0  0  0
   18.4888  -12.6042  -16.4825 C   0  0  0  0  0  0  0  0  0  0  0  0
   18.0529  -12.1797  -17.5779 O   0  0  0  0  0  0  0  0  0  0  0  0
   12.5756  -11.0571  -15.6433 C   0  0  0  0  0  0  0  0  0  0  0  0
   13.9210  -10.4116  -14.5944 S   0  0  0  0  0  0  0  0  0  0  0  0
   15.4994  -10.7015  -15.4341 C   0  0  0  0  0  0  0  0  0  0  0  0
   16.6416  -10.2226  -14.5759 C   0  0  0  0  0  0  0  0  0  0  0  0
   18.0000  -10.4359  -15.2294 C   0  0  2  0  0  0  0  0  0  0  0  0
   18.4290  -11.7775  -15.3382 N   0  0  0  0  0  0  0  0  0  0  0  0
   18.9408   -9.4484  -14.7279 C   0  0  0  0  0  0  0  0  0  0  0  0
   19.5847   -9.7938  -13.6723 O   0  0  0  0  0  0  0  0  0  0  0  0
   19.1834   -8.1911  -15.2978 N   0  0  0  0  0  0  0  0  0  0  0  0
   20.1752   -7.2926  -14.7553 C   0  0  1  0  0  0  0  0  0  0  0  0
   21.4895   -7.6308  -15.4041 C   0  0  0  0  0  0  0  0  0  0  0  0
   21.5010   -7.5104  -16.8751 C   0  0  0  0  0  0  0  0  0  0  0  0
   21.2447   -8.5703  -17.7441 C   0  0  0  0  0  0  0  0  0  0  0  0
   21.2737   -8.3731  -19.1061 C   0  0  0  0  0  0  0  0  0  0  0  0
   21.5568   -7.1254  -19.6105 C   0  0  0  0  0  0  0  0  0  0  0  0
   21.8182   -6.0424  -18.7688 C   0  0  0  0  0  0  0  0  0  0  0  0
   21.7833   -6.2635  -17.4227 C   0  0  0  0  0  0  0  0  0  0  0  0
   19.8452   -5.8790  -14.9677 C   0  0  0  0  0  0  0  0  0  0  0  0
   20.6769   -4.9033  -14.4392 O   0  0  0  0  0  0  0  0  0  0  0  0
   18.8432   -5.4463  -15.6043 O   0  0  0  0  0  0  0  0  0  0  0  0
  2  4  1  0
  2  1  1  6
  3  2  1  0
  4  5  1  6
  6  4  1  0
  7  6  2  0
  9  8  1  0
 10  9  1  0
 10 11  1  0
 12 11  1  1
 12 13  1  0
 13  6  1  0
 14 16  1  0
 14 12  1  0
 15 14  2  0
 17 18  1  6
 17 16  1  0
 18 19  1  0
 19 24  2  0
 20 19  1  0
 20 21  2  0
 21 22  1  0
 22 23  2  0
 24 23  1  0
 25 17  1  0
 25 26  1  0
 27 25  2  0
M  END
$$$$
