VMF.pdb
     RDKit          3D

 27 27  0  0  1  0  0  0  0  0999 V2000
   28.3119  -17.9687  -15.7385 C   0  0  0  0  0  0  0  0  0  0  0  0
   27.1796  -18.6797  -15.0280 C   0  0  1  0  0  0  0  0  0  0  0  0
   26.1113  -18.9735  -16.0608 C   0  0  0  0  0  0  0  0  0  0  0  0
   27.6055  -19.9990  -14.4378 C   0  0  2  0  0  0  0  0  0  0  0  0
   28.1420  -20.8046  -15.5073 N   0  0  0  0  0  0  0  0  0  0  0  0
   26.4874  -20.6844  -13.7284 C   0  0  0  0  0  0  0  0  0  0  0  0
   25.8884  -21.6089  -14.3255 O   0  0  0  0  0  0  0  0  0  0  0  0
   28.0201  -20.6019   -7.1277 C   0  0  0  0  0  0  0  0  0  0  0  0
   26.3343  -20.3913   -7.7916 S   0  0  0  0  0  0  0  0  0  0  0  0
   26.3523  -20.7977   -9.5565 C   0  0  0  0  0  0  0  0  0  0  0  0
   25.0195  -20.4723  -10.1796 C   0  0  0  0  0  0  0  0  0  0  0  0
   24.9785  -20.7683  -11.6725 C   0  0  2  0  0  0  0  0  0  0  0  0
   26.0917  -20.3244  -12.4207 N   0  0  0  0  0  0  0  0  0  0  0  0
   23.6472  -20.4933  -12.1858 C   0  0  0  0  0  0  0  0  0  0  0  0
   23.4033  -19.2584  -12.4386 O   0  0  0  0  0  0  0  0  0  0  0  0
   22.6486  -21.4498  -12.4150 N   0  0  0  0  0  0  0  0  0  0  0  0
   21.3271  -21.0732  -12.8588 C   0  0  1  0  0  0  0  0  0  0  0  0
   21.1638  -21.5831  -14.2645 C   0  0  0  0  0  0  0  0  0  0  0  0
   21.8139  -20.7570  -15.3004 C   0  0  0  0  0  0  0  0  0  0  0  0
   21.2344  -19.6226  -15.8674 C   0  0  0  0  0  0  0  0  0  0  0  0
   21.9098  -18.9056  -16.8289 C   0  0  0  0  0  0  0  0  0  0  0  0
   23.1609  -19.3108  -17.2312 C   0  0  0  0  0  0  0  0  0  0  0  0
   23.7703  -20.4418  -16.6842 C   0  0  0  0  0  0  0  0  0  0  0  0
   23.0804  -21.1354  -15.7328 C   0  0  0  0  0  0  0  0  0  0  0  0
   20.2622  -21.5950  -11.9952 C   0  0  0  0  0  0  0  0  0  0  0  0
   18.9432  -21.2734  -12.2779 O   0  0  0  0  0  0  0  0  0  0  0  0
   20.4323  -22.3322  -10.9832 O   0  0  0  0  0  0  0  0  0  0  0  0
  2  4  1  0
  2  1  1  6
  3  2  1  0
  4  5  1  6
  6  4  1  0
  7  6  2  0
  9  8  1  0
 10  9  1  0
 10 11  1  0
 12 11  1  1
 12 13  1  0
 13  6  1  0
 14 16  1  0
 14 12  1  0
 15 14  2  0
 17 18  1  6
 17 16  1  0
 18 19  1  0
 19 24  2  0
 20 19  1  0
 20 21  2  0
 21 22  1  0
 22 23  2  0
 24 23  1  0
 25 17  1  0
 25 26  1  0
 27 25  2  0
M  END
$$$$
