CRD.pdb
     RDKit          3D

 26 25  0  0  1  0  0  0  0  0999 V2000
    8.2557  -14.5482   17.6634 N   0  0  0  0  0  0  0  0  0  0  0  0
    9.1052  -13.7696   18.5476 C   0  0  1  0  0  0  0  0  0  0  0  0
    8.3829  -13.6798   19.8863 C   0  0  0  0  0  0  0  0  0  0  0  0
    7.2695  -12.2425   19.8328 S   0  0  0  0  0  0  0  0  0  0  0  0
   10.3802  -14.5113   18.7518 C   0  0  0  0  0  0  0  0  0  0  0  0
   10.4030  -15.7711   18.8140 O   0  0  0  0  0  0  0  0  0  0  0  0
   15.9567  -13.3931   15.1352 N   0  0  0  0  0  0  0  0  0  0  0  0
   16.1969  -14.7775   15.3763 C   0  0  0  0  0  0  0  0  0  0  0  0
   16.0660  -15.6793   14.4700 N   0  0  0  0  0  0  0  0  0  0  0  0
   16.5969  -15.1883   16.6757 N   0  0  0  0  0  0  0  0  0  0  0  0
   15.6097  -15.4949   17.6692 C   0  0  0  0  0  0  0  0  0  0  0  0
   15.3410  -14.3332   18.6075 C   0  0  0  0  0  0  0  0  0  0  0  0
   13.9451  -13.8260   18.4123 C   0  0  0  0  0  0  0  0  0  0  0  0
   12.8723  -14.6305   19.0622 C   0  0  2  0  0  0  0  0  0  0  0  0
   11.6315  -13.8479   18.8867 N   0  0  0  0  0  0  0  0  0  0  0  0
   13.0773  -14.8457   20.5012 C   0  0  0  0  0  0  0  0  0  0  0  0
   12.9701  -13.8956   21.3132 O   0  0  0  0  0  0  0  0  0  0  0  0
   16.3053  -16.6748   14.7166 N   0  0  0  0  0  0  0  0  0  0  0  0
   13.3985  -16.1153   21.0179 C   0  0  2  0  0  0  0  0  0  0  0  0
   13.6360  -16.2631   22.4393 C   0  0  0  0  0  0  0  0  0  0  0  0
   13.1513  -17.6395   22.8470 C   0  0  0  0  0  0  0  0  0  0  0  0
   13.5110  -18.0155   24.2296 O   0  0  0  0  0  0  0  0  0  0  0  0
   13.1651  -17.2542   25.1843 C   0  0  0  0  0  0  0  0  0  0  0  0
   15.0947  -16.1208   22.6367 O   0  0  0  0  0  0  0  0  0  0  0  0
   15.6764  -15.6979   23.8073 O   0  0  0  0  0  0  0  0  0  0  0  0
   14.2108  -19.1507   24.5958 O   0  0  0  0  0  0  0  0  0  0  0  0
  2  1  1  6
  3  2  1  0
  4  3  1  0
  5  2  1  0
  5  6  2  0
  7  8  1  0
  8  9  2  0
  8 10  1  0
 10 11  1  0
 11 12  1  0
 12 13  1  0
 14 13  1  1
 14 15  1  0
 15  5  1  0
 16 14  1  0
 17 16  2  0
 18 16  1  0
 19 18  1  0
 19 20  1  6
 20 21  1  0
 21 25  1  0
 22 21  2  0
 23 19  1  0
 24 23  1  0
 26 23  2  0
M  END
$$$$
