CRD.pdb
     RDKit          3D

 26 25  0  0  1  0  0  0  0  0999 V2000
    7.3107  -18.2891   27.5187 N   0  0  0  0  0  0  0  0  0  0  0  0
    7.5289  -16.9064   27.1308 C   0  0  1  0  0  0  0  0  0  0  0  0
    8.6470  -16.3714   28.0170 C   0  0  0  0  0  0  0  0  0  0  0  0
    8.7817  -14.5792   27.7372 S   0  0  0  0  0  0  0  0  0  0  0  0
    7.9977  -16.8806   25.7177 C   0  0  0  0  0  0  0  0  0  0  0  0
    8.6908  -17.8201   25.2396 O   0  0  0  0  0  0  0  0  0  0  0  0
    8.5733  -12.1349   19.3231 N   0  0  0  0  0  0  0  0  0  0  0  0
    8.1861  -13.2629   18.5419 C   0  0  0  0  0  0  0  0  0  0  0  0
    8.6616  -13.5011   17.3719 N   0  0  0  0  0  0  0  0  0  0  0  0
    7.2293  -14.1688   19.0722 N   0  0  0  0  0  0  0  0  0  0  0  0
    6.8499  -14.0884   20.4525 C   0  0  0  0  0  0  0  0  0  0  0  0
    8.0083  -14.3544   21.3958 C   0  0  0  0  0  0  0  0  0  0  0  0
    7.4930  -14.6994   22.7594 C   0  0  0  0  0  0  0  0  0  0  0  0
    8.1925  -15.8220   23.4455 C   0  0  2  0  0  0  0  0  0  0  0  0
    7.6936  -15.8062   24.8361 N   0  0  0  0  0  0  0  0  0  0  0  0
    9.6545  -15.6796   23.4828 C   0  0  0  0  0  0  0  0  0  0  0  0
   10.1963  -14.8182   24.2162 O   0  0  0  0  0  0  0  0  0  0  0  0
    8.3887  -14.3993   16.8944 N   0  0  0  0  0  0  0  0  0  0  0  0
   10.4945  -16.4980   22.7038 C   0  0  2  0  0  0  0  0  0  0  0  0
   11.9296  -16.3134   22.7756 C   0  0  0  0  0  0  0  0  0  0  0  0
   12.5403  -17.6219   23.2342 C   0  0  0  0  0  0  0  0  0  0  0  0
   14.0175  -17.6260   23.2326 O   0  0  0  0  0  0  0  0  0  0  0  0
   14.6359  -16.5450   22.9881 C   0  0  0  0  0  0  0  0  0  0  0  0
   12.3741  -15.9555   21.4113 O   0  0  0  0  0  0  0  0  0  0  0  0
   13.4393  -15.1316   21.1391 O   0  0  0  0  0  0  0  0  0  0  0  0
   14.8168  -18.7276   23.4778 O   0  0  0  0  0  0  0  0  0  0  0  0
  2  1  1  1
  3  2  1  0
  4  3  1  0
  5  2  1  0
  5  6  2  0
  7  8  1  0
  8  9  2  0
  8 10  1  0
 10 11  1  0
 11 12  1  0
 12 13  1  0
 14 13  1  6
 14 15  1  0
 15  5  1  0
 16 14  1  0
 17 16  2  0
 18 16  1  0
 19 18  1  0
 19 20  1  6
 20 21  1  0
 21 25  1  0
 22 21  2  0
 23 19  1  0
 24 23  1  0
 26 23  2  0
M  END
$$$$
