CRD.pdb
     RDKit          3D

 26 25  0  0  1  0  0  0  0  0999 V2000
    7.7603  -17.2211   27.3655 N   0  0  0  0  0  0  0  0  0  0  0  0
    7.9952  -15.9253   26.7528 C   0  0  1  0  0  0  0  0  0  0  0  0
    9.2966  -15.3907   27.3380 C   0  0  0  0  0  0  0  0  0  0  0  0
    8.9690  -13.7418   28.0323 S   0  0  0  0  0  0  0  0  0  0  0  0
    8.1856  -16.1223   25.2892 C   0  0  0  0  0  0  0  0  0  0  0  0
    8.4653  -17.2557   24.8111 O   0  0  0  0  0  0  0  0  0  0  0  0
    9.2636  -14.3211   17.8695 N   0  0  0  0  0  0  0  0  0  0  0  0
    7.9636  -13.7938   17.6159 C   0  0  0  0  0  0  0  0  0  0  0  0
    7.5846  -13.3928   16.4552 N   0  0  0  0  0  0  0  0  0  0  0  0
    7.0393  -13.7010   18.6903 N   0  0  0  0  0  0  0  0  0  0  0  0
    7.2274  -14.4913   19.8717 C   0  0  0  0  0  0  0  0  0  0  0  0
    8.2895  -13.9235   20.7945 C   0  0  0  0  0  0  0  0  0  0  0  0
    7.8595  -14.0643   22.2225 C   0  0  0  0  0  0  0  0  0  0  0  0
    8.3566  -15.2799   22.9264 C   0  0  2  0  0  0  0  0  0  0  0  0
    8.0637  -15.0545   24.3569 N   0  0  0  0  0  0  0  0  0  0  0  0
    9.8023  -15.5013   22.7852 C   0  0  0  0  0  0  0  0  0  0  0  0
   10.6253  -14.7501   23.3614 O   0  0  0  0  0  0  0  0  0  0  0  0
    6.5943  -13.0525   16.3422 N   0  0  0  0  0  0  0  0  0  0  0  0
   10.3134  -16.5558   22.0050 C   0  0  2  0  0  0  0  0  0  0  0  0
   11.7287  -16.5893   21.6977 C   0  0  0  0  0  0  0  0  0  0  0  0
   12.1663  -15.1728   21.3855 C   0  0  0  0  0  0  0  0  0  0  0  0
   13.4249  -15.0909   20.6164 O   0  0  0  0  0  0  0  0  0  0  0  0
   13.9925  -16.1647   20.2486 C   0  0  0  0  0  0  0  0  0  0  0  0
   12.4062  -17.1135   22.9032 O   0  0  0  0  0  0  0  0  0  0  0  0
   13.5477  -17.8776   22.8749 O   0  0  0  0  0  0  0  0  0  0  0  0
   14.0652  -13.9217   20.2483 O   0  0  0  0  0  0  0  0  0  0  0  0
  2  1  1  1
  3  2  1  0
  4  3  1  0
  5  2  1  0
  5  6  2  0
  7  8  1  0
  8  9  2  0
  8 10  1  0
 10 11  1  0
 11 12  1  0
 12 13  1  0
 14 13  1  6
 14 15  1  0
 15  5  1  0
 16 14  1  0
 17 16  2  0
 18 16  1  0
 19 18  1  0
 19 20  1  6
 20 21  1  0
 21 25  1  0
 22 21  2  0
 23 19  1  0
 24 23  1  0
 26 23  2  0
M  END
$$$$
