CRD.pdb
     RDKit          3D

 26 25  0  0  1  0  0  0  0  0999 V2000
    7.5419  -14.2061   16.9424 N   0  0  0  0  0  0  0  0  0  0  0  0
    8.7998  -14.0002   17.6387 C   0  0  1  0  0  0  0  0  0  0  0  0
    8.7067  -12.6427   18.3246 C   0  0  0  0  0  0  0  0  0  0  0  0
   10.2514  -12.3668   19.2444 S   0  0  0  0  0  0  0  0  0  0  0  0
    8.9357  -15.0474   18.6885 C   0  0  0  0  0  0  0  0  0  0  0  0
    8.0170  -15.2582   19.5270 O   0  0  0  0  0  0  0  0  0  0  0  0
    9.3041  -21.3261   16.6613 N   0  0  0  0  0  0  0  0  0  0  0  0
    8.6084  -20.2036   16.1242 C   0  0  0  0  0  0  0  0  0  0  0  0
    8.6794  -19.8618   14.8873 N   0  0  0  0  0  0  0  0  0  0  0  0
    7.7995  -19.4197   16.9893 N   0  0  0  0  0  0  0  0  0  0  0  0
    7.9497  -19.5298   18.4109 C   0  0  0  0  0  0  0  0  0  0  0  0
    8.2786  -18.2036   19.0707 C   0  0  0  0  0  0  0  0  0  0  0  0
    9.7444  -18.1268   19.3696 C   0  0  0  0  0  0  0  0  0  0  0  0
   10.2213  -16.8253   19.9164 C   0  0  2  0  0  0  0  0  0  0  0  0
   10.0970  -15.8611   18.8039 N   0  0  0  0  0  0  0  0  0  0  0  0
   11.6240  -16.8403   20.3537 C   0  0  0  0  0  0  0  0  0  0  0  0
   12.4074  -17.7394   19.9643 O   0  0  0  0  0  0  0  0  0  0  0  0
    8.1900  -18.9803   14.5830 N   0  0  0  0  0  0  0  0  0  0  0  0
   12.1367  -15.8546   21.2182 C   0  0  1  0  0  0  0  0  0  0  0  0
   13.5409  -15.8838   21.5736 C   0  0  0  0  0  0  0  0  0  0  0  0
   14.1585  -14.5768   21.1202 C   0  0  0  0  0  0  0  0  0  0  0  0
   14.4261  -14.5130   19.6688 O   0  0  0  0  0  0  0  0  0  0  0  0
   14.5492  -15.5951   19.0173 C   0  0  0  0  0  0  0  0  0  0  0  0
   13.5972  -16.0295   23.0443 O   0  0  0  0  0  0  0  0  0  0  0  0
   12.4901  -16.1237   23.8524 O   0  0  0  0  0  0  0  0  0  0  0  0
   14.5611  -13.3528   18.9283 O   0  0  0  0  0  0  0  0  0  0  0  0
  2  1  1  1
  3  2  1  0
  4  3  1  0
  5  2  1  0
  5  6  2  0
  7  8  1  0
  8  9  2  0
  8 10  1  0
 10 11  1  0
 11 12  1  0
 12 13  1  0
 14 13  1  6
 14 15  1  0
 15  5  1  0
 16 14  1  0
 17 16  2  0
 18 16  1  0
 19 18  1  0
 19 20  1  1
 20 21  1  0
 21 25  1  0
 22 21  2  0
 23 19  1  0
 24 23  1  0
 26 23  2  0
M  END
$$$$
