CRD.pdb
     RDKit          3D

 26 25  0  0  1  0  0  0  0  0999 V2000
    5.2231  -12.9235   26.6991 N   0  0  0  0  0  0  0  0  0  0  0  0
    6.3987  -12.7031   25.8749 C   0  0  1  0  0  0  0  0  0  0  0  0
    7.4842  -12.1555   26.7933 C   0  0  0  0  0  0  0  0  0  0  0  0
    7.0014  -10.4771   27.3015 S   0  0  0  0  0  0  0  0  0  0  0  0
    6.8546  -14.0165   25.3415 C   0  0  0  0  0  0  0  0  0  0  0  0
    6.8009  -15.0635   26.0433 O   0  0  0  0  0  0  0  0  0  0  0  0
    7.9488  -12.6275   19.3461 N   0  0  0  0  0  0  0  0  0  0  0  0
    8.3044  -13.6203   18.3867 C   0  0  0  0  0  0  0  0  0  0  0  0
    9.0167  -13.3667   17.3475 N   0  0  0  0  0  0  0  0  0  0  0  0
    7.8524  -14.9530   18.5788 N   0  0  0  0  0  0  0  0  0  0  0  0
    7.0891  -15.2931   19.7439 C   0  0  0  0  0  0  0  0  0  0  0  0
    7.8500  -15.0534   21.0345 C   0  0  0  0  0  0  0  0  0  0  0  0
    7.0935  -15.6284   22.1925 C   0  0  0  0  0  0  0  0  0  0  0  0
    7.7558  -15.4981   23.5210 C   0  0  2  0  0  0  0  0  0  0  0  0
    7.3710  -14.1632   24.0240 N   0  0  0  0  0  0  0  0  0  0  0  0
    9.2227  -15.5599   23.4646 C   0  0  0  0  0  0  0  0  0  0  0  0
    9.9013  -14.5224   23.2729 O   0  0  0  0  0  0  0  0  0  0  0  0
    9.2217  -14.1529   16.6775 N   0  0  0  0  0  0  0  0  0  0  0  0
    9.9155  -16.7753   23.6226 C   0  0  2  0  0  0  0  0  0  0  0  0
   11.3628  -16.7799   23.5600 C   0  0  0  0  0  0  0  0  0  0  0  0
   11.8747  -17.5163   24.7811 C   0  0  0  0  0  0  0  0  0  0  0  0
   13.3327  -17.7541   24.7691 O   0  0  0  0  0  0  0  0  0  0  0  0
   13.8428  -18.4959   25.6636 C   0  0  0  0  0  0  0  0  0  0  0  0
   11.7253  -17.4831   22.3105 O   0  0  0  0  0  0  0  0  0  0  0  0
   12.9617  -17.4103   21.7159 O   0  0  0  0  0  0  0  0  0  0  0  0
   14.2233  -17.2295   23.8504 O   0  0  0  0  0  0  0  0  0  0  0  0
  2  1  1  1
  3  2  1  0
  4  3  1  0
  5  2  1  0
  5  6  2  0
  7  8  1  0
  8  9  2  0
  8 10  1  0
 10 11  1  0
 11 12  1  0
 12 13  1  0
 14 13  1  6
 14 15  1  0
 15  5  1  0
 16 14  1  0
 17 16  2  0
 18 16  1  0
 19 18  1  0
 19 20  1  6
 20 21  1  0
 21 25  1  0
 22 21  2  0
 23 19  1  0
 24 23  1  0
 26 23  2  0
M  END
$$$$
