CRD.pdb
     RDKit          3D

 26 25  0  0  1  0  0  0  0  0999 V2000
    4.8125  -13.0933   26.4740 N   0  0  0  0  0  0  0  0  0  0  0  0
    6.1388  -12.7806   25.9713 C   0  0  1  0  0  0  0  0  0  0  0  0
    7.0233  -12.5316   27.1868 C   0  0  0  0  0  0  0  0  0  0  0  0
    8.7298  -12.2922   26.6048 S   0  0  0  0  0  0  0  0  0  0  0  0
    6.6624  -13.9715   25.2468 C   0  0  0  0  0  0  0  0  0  0  0  0
    6.6032  -15.1254   25.7533 O   0  0  0  0  0  0  0  0  0  0  0  0
    8.4388  -14.0167   16.8131 N   0  0  0  0  0  0  0  0  0  0  0  0
    8.4534  -13.3682   18.0826 C   0  0  0  0  0  0  0  0  0  0  0  0
    8.8428  -12.1542   18.2445 N   0  0  0  0  0  0  0  0  0  0  0  0
    8.0222  -14.0906   19.2270 N   0  0  0  0  0  0  0  0  0  0  0  0
    8.7026  -15.2900   19.6194 C   0  0  0  0  0  0  0  0  0  0  0  0
    8.1609  -15.8766   20.9096 C   0  0  0  0  0  0  0  0  0  0  0  0
    7.7000  -14.7799   21.8200 C   0  0  0  0  0  0  0  0  0  0  0  0
    7.7542  -15.0888   23.2767 C   0  0  2  0  0  0  0  0  0  0  0  0
    7.2525  -13.8763   23.9557 N   0  0  0  0  0  0  0  0  0  0  0  0
    9.1074  -15.3663   23.7775 C   0  0  0  0  0  0  0  0  0  0  0  0
    9.9220  -14.4330   23.9745 O   0  0  0  0  0  0  0  0  0  0  0  0
    8.8759  -11.7657   19.2229 N   0  0  0  0  0  0  0  0  0  0  0  0
    9.5363  -16.6786   24.0528 C   0  0  1  0  0  0  0  0  0  0  0  0
   10.9124  -16.9076   24.4437 C   0  0  0  0  0  0  0  0  0  0  0  0
   10.9487  -18.1652   25.2879 C   0  0  0  0  0  0  0  0  0  0  0  0
   10.3177  -18.0136   26.6150 O   0  0  0  0  0  0  0  0  0  0  0  0
   10.6545  -17.0343   27.3485 C   0  0  0  0  0  0  0  0  0  0  0  0
   11.6812  -17.0723   23.1911 O   0  0  0  0  0  0  0  0  0  0  0  0
   13.0489  -17.1909   23.1362 O   0  0  0  0  0  0  0  0  0  0  0  0
    9.3674  -18.8623   27.1528 O   0  0  0  0  0  0  0  0  0  0  0  0
  2  1  1  1
  3  2  1  0
  4  3  1  0
  5  2  1  0
  5  6  2  0
  7  8  1  0
  8  9  2  0
  8 10  1  0
 10 11  1  0
 11 12  1  0
 12 13  1  0
 14 13  1  6
 14 15  1  0
 15  5  1  0
 16 14  1  0
 17 16  2  0
 18 16  1  0
 19 18  1  0
 19 20  1  6
 20 21  1  0
 21 25  1  0
 22 21  2  0
 23 19  1  0
 24 23  1  0
 26 23  2  0
M  END
$$$$
