CRD.pdb
     RDKit          3D

 26 25  0  0  1  0  0  0  0  0999 V2000
   11.9631  -18.8128   16.7271 N   0  0  0  0  0  0  0  0  0  0  0  0
   11.3986  -19.1926   18.0104 C   0  0  1  0  0  0  0  0  0  0  0  0
   12.0503  -20.5121   18.4053 C   0  0  0  0  0  0  0  0  0  0  0  0
   11.3575  -21.0282   20.0059 S   0  0  0  0  0  0  0  0  0  0  0  0
   11.7781  -18.1627   19.0167 C   0  0  0  0  0  0  0  0  0  0  0  0
   12.9042  -17.5952   18.9813 O   0  0  0  0  0  0  0  0  0  0  0  0
    5.8055  -13.5378   21.3601 N   0  0  0  0  0  0  0  0  0  0  0  0
    6.9298  -13.3758   20.4985 C   0  0  0  0  0  0  0  0  0  0  0  0
    7.1216  -12.3223   19.7879 N   0  0  0  0  0  0  0  0  0  0  0  0
    7.8852  -14.4233   20.4133 N   0  0  0  0  0  0  0  0  0  0  0  0
    7.6084  -15.6997   21.0047 C   0  0  0  0  0  0  0  0  0  0  0  0
    8.7668  -16.6709   20.8732 C   0  0  0  0  0  0  0  0  0  0  0  0
   10.0129  -16.0662   21.4438 C   0  0  0  0  0  0  0  0  0  0  0  0
   11.2918  -16.6805   20.9886 C   0  0  2  0  0  0  0  0  0  0  0  0
   10.9012  -17.7647   20.0640 N   0  0  0  0  0  0  0  0  0  0  0  0
   12.0895  -17.2696   22.0728 C   0  0  0  0  0  0  0  0  0  0  0  0
   11.9030  -18.4563   22.4341 O   0  0  0  0  0  0  0  0  0  0  0  0
    7.9552  -12.2978   19.1446 N   0  0  0  0  0  0  0  0  0  0  0  0
   13.0845  -16.5306   22.7407 C   0  0  2  0  0  0  0  0  0  0  0  0
   13.9456  -17.2005   23.6938 C   0  0  0  0  0  0  0  0  0  0  0  0
   15.2874  -16.4971   23.6766 C   0  0  0  0  0  0  0  0  0  0  0  0
   16.2716  -17.0621   24.6223 O   0  0  0  0  0  0  0  0  0  0  0  0
   17.0978  -16.2834   25.1893 C   0  0  0  0  0  0  0  0  0  0  0  0
   13.2856  -17.0785   25.0116 O   0  0  0  0  0  0  0  0  0  0  0  0
   13.5678  -17.8791   26.0919 O   0  0  0  0  0  0  0  0  0  0  0  0
   16.3845  -18.3987   24.9590 O   0  0  0  0  0  0  0  0  0  0  0  0
  2  1  1  6
  3  2  1  0
  4  3  1  0
  5  2  1  0
  5  6  2  0
  7  8  1  0
  8  9  2  0
  8 10  1  0
 10 11  1  0
 11 12  1  0
 12 13  1  0
 14 13  1  1
 14 15  1  0
 15  5  1  0
 16 14  1  0
 17 16  2  0
 18 16  1  0
 19 18  1  0
 19 20  1  6
 20 21  1  0
 21 25  1  0
 22 21  2  0
 23 19  1  0
 24 23  1  0
 26 23  2  0
M  END
$$$$
