CRD.pdb
     RDKit          3D

 26 25  0  0  1  0  0  0  0  0999 V2000
    8.3538  -16.6006   28.4636 N   0  0  0  0  0  0  0  0  0  0  0  0
    8.3837  -15.6066   27.4049 C   0  0  1  0  0  0  0  0  0  0  0  0
    9.4523  -14.5894   27.7856 C   0  0  0  0  0  0  0  0  0  0  0  0
    9.1824  -13.0880   26.7950 S   0  0  0  0  0  0  0  0  0  0  0  0
    8.8015  -16.2747   26.1414 C   0  0  0  0  0  0  0  0  0  0  0  0
    9.5480  -17.2916   26.1532 O   0  0  0  0  0  0  0  0  0  0  0  0
    8.5250  -14.0093   18.3849 N   0  0  0  0  0  0  0  0  0  0  0  0
    8.1518  -12.9250   19.2320 C   0  0  0  0  0  0  0  0  0  0  0  0
    8.6102  -11.7332   19.0872 N   0  0  0  0  0  0  0  0  0  0  0  0
    7.2339  -13.1648   20.2891 N   0  0  0  0  0  0  0  0  0  0  0  0
    7.1225  -14.4743   20.8623 C   0  0  0  0  0  0  0  0  0  0  0  0
    8.1526  -14.7296   21.9467 C   0  0  0  0  0  0  0  0  0  0  0  0
    7.9298  -16.0775   22.5612 C   0  0  0  0  0  0  0  0  0  0  0  0
    8.8888  -16.4603   23.6355 C   0  0  2  0  0  0  0  0  0  0  0  0
    8.3866  -15.8087   24.8627 N   0  0  0  0  0  0  0  0  0  0  0  0
   10.2631  -15.9962   23.4011 C   0  0  0  0  0  0  0  0  0  0  0  0
   10.5990  -14.8202   23.6801 O   0  0  0  0  0  0  0  0  0  0  0  0
    8.2889  -10.9885   19.7591 N   0  0  0  0  0  0  0  0  0  0  0  0
   11.2457  -16.8467   22.8597 C   0  0  1  0  0  0  0  0  0  0  0  0
   12.5949  -16.3495   22.6833 C   0  0  0  0  0  0  0  0  0  0  0  0
   13.5496  -17.4418   23.1205 C   0  0  0  0  0  0  0  0  0  0  0  0
   14.8424  -16.9388   23.6282 O   0  0  0  0  0  0  0  0  0  0  0  0
   15.0724  -15.6911   23.5978 C   0  0  0  0  0  0  0  0  0  0  0  0
   12.7430  -16.0431   21.2441 O   0  0  0  0  0  0  0  0  0  0  0  0
   13.7057  -15.2094   20.7287 O   0  0  0  0  0  0  0  0  0  0  0  0
   15.8584  -17.7198   24.1483 O   0  0  0  0  0  0  0  0  0  0  0  0
  2  1  1  1
  3  2  1  0
  4  3  1  0
  5  2  1  0
  5  6  2  0
  7  8  1  0
  8  9  2  0
  8 10  1  0
 10 11  1  0
 11 12  1  0
 12 13  1  0
 14 13  1  6
 14 15  1  0
 15  5  1  0
 16 14  1  0
 17 16  2  0
 18 16  1  0
 19 18  1  0
 19 20  1  6
 20 21  1  0
 21 25  1  0
 22 21  2  0
 23 19  1  0
 24 23  1  0
 26 23  2  0
M  END
$$$$
