QRK.pdb
     RDKit          3D

 30 29  0  0  1  0  0  0  0  0999 V2000
   26.7353  -21.9385  -19.2948 N   0  0  0  0  0  0  0  0  0  0  0  0
   27.8402  -21.0780  -19.0686 C   0  0  0  0  0  0  0  0  0  0  0  0
   28.6745  -20.8787  -19.9806 O   0  0  0  0  0  0  0  0  0  0  0  0
   27.9954  -20.4298  -17.7689 C   0  0  0  0  0  0  0  0  0  0  0  0
   26.9032  -20.7084  -16.7816 C   0  0  0  0  0  0  0  0  0  0  0  0
   27.2968  -21.6357  -15.6662 C   0  0  2  0  0  0  0  0  0  0  0  0
   27.6447  -22.9570  -16.1449 N   0  0  0  0  0  0  0  0  0  0  0  0
   26.1337  -21.7816  -14.7418 C   0  0  0  0  0  0  0  0  0  0  0  0
   25.2305  -22.6126  -14.9488 O   0  0  0  0  0  0  0  0  0  0  0  0
   29.8683  -20.3879   -8.5274 N   0  0  0  0  0  0  0  0  0  0  0  0
   28.5537  -20.2729   -7.9910 C   0  0  0  0  0  0  0  0  0  0  0  0
   28.3008  -19.5767   -6.9519 N   0  0  0  0  0  0  0  0  0  0  0  0
   27.4848  -20.9564   -8.6334 N   0  0  0  0  0  0  0  0  0  0  0  0
   27.4522  -21.0058  -10.0624 C   0  0  0  0  0  0  0  0  0  0  0  0
   26.2450  -21.7502  -10.5937 C   0  0  0  0  0  0  0  0  0  0  0  0
   25.2657  -20.7846  -11.2253 C   0  0  0  0  0  0  0  0  0  0  0  0
   24.9720  -21.1341  -12.6360 C   0  0  2  0  0  0  0  0  0  0  0  0
   25.9945  -20.9868  -13.5849 N   0  0  0  0  0  0  0  0  0  0  0  0
   23.7769  -20.3685  -13.0716 C   0  0  0  0  0  0  0  0  0  0  0  0
   23.8523  -19.1205  -13.1592 O   0  0  0  0  0  0  0  0  0  0  0  0
   27.3452  -19.5367   -6.5478 N   0  0  0  0  0  0  0  0  0  0  0  0
   22.5784  -21.0460  -13.3797 C   0  0  1  0  0  0  0  0  0  0  0  0
   21.3545  -20.2553  -13.7355 C   0  0  0  0  0  0  0  0  0  0  0  0
   21.0734  -20.6030  -15.1261 C   0  0  0  0  0  0  0  0  0  0  0  0
   20.4679  -19.6877  -16.1068 C   0  0  0  0  0  0  0  0  0  0  0  0
   21.1565  -18.3916  -16.3592 C   0  0  0  0  0  0  0  0  0  0  0  0
   20.3472  -17.5381  -17.3522 N   0  0  0  0  0  0  0  0  0  0  0  0
   20.9668  -16.2683  -17.5682 C   0  0  0  0  0  0  0  0  0  0  0  0
   20.3831  -20.3815  -12.6695 O   0  0  0  0  0  0  0  0  0  0  0  0
   19.5785  -19.4813  -12.3250 O   0  0  0  0  0  0  0  0  0  0  0  0
  1  2  1  0
  2  3  2  0
  4  5  1  0
  4  2  1  0
  6  5  1  0
  6  7  1  6
  8  6  1  0
  9  8  2  0
 10 11  1  0
 11 13  1  0
 11 12  2  0
 13 14  1  0
 14 15  1  0
 17 16  1  1
 16 15  1  0
 17 18  1  0
 18  8  1  0
 19 17  1  0
 19 20  2  0
 21 19  1  0
 22 21  1  0
 22 23  1  1
 24 23  1  0
 25 24  1  0
 26 25  1  0
 27 26  1  0
 28 22  1  0
 29 28  2  0
 30 28  1  0
M  END
$$$$
