QRK.pdb
     RDKit          3D

 30 29  0  0  1  0  0  0  0  0999 V2000
   20.4910  -30.7975  -17.2854 N   0  0  0  0  0  0  0  0  0  0  0  0
   21.6500  -30.5206  -16.5157 C   0  0  0  0  0  0  0  0  0  0  0  0
   22.6654  -31.2438  -16.6320 O   0  0  0  0  0  0  0  0  0  0  0  0
   21.6486  -29.3900  -15.5909 C   0  0  0  0  0  0  0  0  0  0  0  0
   20.3732  -28.6050  -15.5436 C   0  0  0  0  0  0  0  0  0  0  0  0
   20.3531  -27.3994  -16.4409 C   0  0  2  0  0  0  0  0  0  0  0  0
   21.3976  -27.4404  -17.4425 N   0  0  0  0  0  0  0  0  0  0  0  0
   20.5775  -26.1844  -15.6031 C   0  0  0  0  0  0  0  0  0  0  0  0
   19.7961  -25.8634  -14.6890 O   0  0  0  0  0  0  0  0  0  0  0  0
   26.7619  -23.6337  -15.6164 N   0  0  0  0  0  0  0  0  0  0  0  0
   26.2241  -22.4474  -16.1929 C   0  0  0  0  0  0  0  0  0  0  0  0
   26.4908  -22.0900  -17.3885 N   0  0  0  0  0  0  0  0  0  0  0  0
   25.3604  -21.6314  -15.4115 N   0  0  0  0  0  0  0  0  0  0  0  0
   25.0023  -22.0617  -14.0953 C   0  0  0  0  0  0  0  0  0  0  0  0
   23.5840  -22.5871  -14.0183 C   0  0  0  0  0  0  0  0  0  0  0  0
   23.3971  -23.7435  -14.9766 C   0  0  0  0  0  0  0  0  0  0  0  0
   21.9968  -24.2305  -14.9935 C   0  0  2  0  0  0  0  0  0  0  0  0
   21.6857  -25.3345  -15.8011 N   0  0  0  0  0  0  0  0  0  0  0  0
   21.1074  -23.0942  -15.3427 C   0  0  0  0  0  0  0  0  0  0  0  0
   21.2639  -22.5147  -16.4430 O   0  0  0  0  0  0  0  0  0  0  0  0
   26.0931  -21.2208  -17.7940 N   0  0  0  0  0  0  0  0  0  0  0  0
   20.1039  -22.6805  -14.4415 C   0  0  2  0  0  0  0  0  0  0  0  0
   19.1174  -21.6334  -14.8657 C   0  0  0  0  0  0  0  0  0  0  0  0
   17.8939  -21.9508  -14.1336 C   0  0  0  0  0  0  0  0  0  0  0  0
   16.6503  -21.1676  -14.2119 C   0  0  0  0  0  0  0  0  0  0  0  0
   15.5516  -21.5196  -13.2701 C   0  0  0  0  0  0  0  0  0  0  0  0
   14.3129  -20.6466  -13.5398 N   0  0  0  0  0  0  0  0  0  0  0  0
   13.3014  -20.8646  -12.5538 C   0  0  0  0  0  0  0  0  0  0  0  0
   19.7578  -20.3356  -14.8248 O   0  0  0  0  0  0  0  0  0  0  0  0
   20.6597  -20.0085  -14.0149 O   0  0  0  0  0  0  0  0  0  0  0  0
  1  2  1  0
  2  3  2  0
  4  5  1  0
  4  2  1  0
  6  5  1  0
  6  7  1  6
  8  6  1  0
  9  8  2  0
 10 11  1  0
 11 13  1  0
 11 12  2  0
 13 14  1  0
 14 15  1  0
 17 16  1  6
 16 15  1  0
 17 18  1  0
 18  8  1  0
 19 17  1  0
 19 20  2  0
 21 19  1  0
 22 21  1  0
 22 23  1  1
 24 23  1  0
 25 24  1  0
 26 25  1  0
 27 26  1  0
 28 22  1  0
 29 28  2  0
 30 28  1  0
M  END
$$$$
