QRK.pdb
     RDKit          3D

 30 29  0  0  1  0  0  0  0  0999 V2000
   23.8220  -20.5618   -9.8606 N   0  0  0  0  0  0  0  0  0  0  0  0
   24.6425  -20.4873   -8.7058 C   0  0  0  0  0  0  0  0  0  0  0  0
   24.1660  -20.7631   -7.5814 O   0  0  0  0  0  0  0  0  0  0  0  0
   26.0412  -20.0880   -8.8392 C   0  0  0  0  0  0  0  0  0  0  0  0
   26.4555  -19.6619  -10.2147 C   0  0  0  0  0  0  0  0  0  0  0  0
   26.7255  -20.7979  -11.1611 C   0  0  2  0  0  0  0  0  0  0  0  0
   28.1410  -21.0530  -11.3262 N   0  0  0  0  0  0  0  0  0  0  0  0
   26.1719  -20.4378  -12.4999 C   0  0  0  0  0  0  0  0  0  0  0  0
   26.8420  -19.8109  -13.3408 O   0  0  0  0  0  0  0  0  0  0  0  0
   22.6056  -26.1990  -16.1976 N   0  0  0  0  0  0  0  0  0  0  0  0
   23.5061  -25.6924  -17.1782 C   0  0  0  0  0  0  0  0  0  0  0  0
   23.3014  -25.8364  -18.4296 N   0  0  0  0  0  0  0  0  0  0  0  0
   24.6739  -25.0025  -16.7510 N   0  0  0  0  0  0  0  0  0  0  0  0
   24.8846  -24.7959  -15.3515 C   0  0  0  0  0  0  0  0  0  0  0  0
   24.1739  -23.5646  -14.8294 C   0  0  0  0  0  0  0  0  0  0  0  0
   25.1325  -22.3961  -14.7500 C   0  0  0  0  0  0  0  0  0  0  0  0
   24.4906  -21.1886  -14.1771 C   0  0  2  0  0  0  0  0  0  0  0  0
   24.8608  -20.7876  -12.8849 N   0  0  0  0  0  0  0  0  0  0  0  0
   23.0177  -21.3643  -14.2391 C   0  0  0  0  0  0  0  0  0  0  0  0
   22.4604  -22.1259  -13.4143 O   0  0  0  0  0  0  0  0  0  0  0  0
   23.9570  -25.4446  -19.1329 N   0  0  0  0  0  0  0  0  0  0  0  0
   22.2656  -20.6791  -15.2165 C   0  0  2  0  0  0  0  0  0  0  0  0
   20.7685  -20.6722  -15.1246 C   0  0  0  0  0  0  0  0  0  0  0  0
   20.3430  -19.5854  -16.0030 C   0  0  0  0  0  0  0  0  0  0  0  0
   20.7270  -18.1754  -15.8286 C   0  0  0  0  0  0  0  0  0  0  0  0
   21.5647  -17.5510  -16.8898 C   0  0  0  0  0  0  0  0  0  0  0  0
   21.8613  -16.0807  -16.5442 N   0  0  0  0  0  0  0  0  0  0  0  0
   22.6462  -15.4575  -17.5633 C   0  0  0  0  0  0  0  0  0  0  0  0
   20.2809  -22.0303  -15.2418 O   0  0  0  0  0  0  0  0  0  0  0  0
   20.9019  -22.9672  -15.8010 O   0  0  0  0  0  0  0  0  0  0  0  0
  1  2  1  0
  2  3  2  0
  4  5  1  0
  4  2  1  0
  6  5  1  0
  6  7  1  6
  8  6  1  0
  9  8  2  0
 10 11  1  0
 11 13  1  0
 11 12  2  0
 13 14  1  0
 14 15  1  0
 17 16  1  1
 16 15  1  0
 17 18  1  0
 18  8  1  0
 19 17  1  0
 19 20  2  0
 21 19  1  0
 22 21  1  0
 22 23  1  1
 24 23  1  0
 25 24  1  0
 26 25  1  0
 27 26  1  0
 28 22  1  0
 29 28  2  0
 30 28  1  0
M  END
$$$$
