QRK.pdb
     RDKit          3D

 30 29  0  0  1  0  0  0  0  0999 V2000
   11.9153  -10.3765  -14.5710 N   0  0  0  0  0  0  0  0  0  0  0  0
   11.6718  -11.1726  -13.4224 C   0  0  0  0  0  0  0  0  0  0  0  0
   10.6657  -11.9165  -13.3791 O   0  0  0  0  0  0  0  0  0  0  0  0
   12.6004  -11.1173  -12.2963 C   0  0  0  0  0  0  0  0  0  0  0  0
   13.7167  -10.1277  -12.4367 C   0  0  0  0  0  0  0  0  0  0  0  0
   15.0307  -10.5904  -11.8727 C   0  0  2  0  0  0  0  0  0  0  0  0
   14.8646  -11.5782  -10.8274 N   0  0  0  0  0  0  0  0  0  0  0  0
   15.7281   -9.4133  -11.2756 C   0  0  0  0  0  0  0  0  0  0  0  0
   15.5748   -9.0949  -10.0822 O   0  0  0  0  0  0  0  0  0  0  0  0
   22.3407   -5.7884  -15.0279 N   0  0  0  0  0  0  0  0  0  0  0  0
   20.9809   -5.8573  -15.4466 C   0  0  0  0  0  0  0  0  0  0  0  0
   20.5751   -5.3241  -16.5326 N   0  0  0  0  0  0  0  0  0  0  0  0
   20.0414   -6.5429  -14.6282 N   0  0  0  0  0  0  0  0  0  0  0  0
   20.5154   -7.2906  -13.5049 C   0  0  0  0  0  0  0  0  0  0  0  0
   19.3931   -7.9237  -12.7091 C   0  0  0  0  0  0  0  0  0  0  0  0
   18.3599   -6.8832  -12.3345 C   0  0  0  0  0  0  0  0  0  0  0  0
   17.2535   -7.4614  -11.5348 C   0  0  2  0  0  0  0  0  0  0  0  0
   16.5977   -8.5982  -12.0300 N   0  0  0  0  0  0  0  0  0  0  0  0
   16.2587   -6.3927  -11.2657 C   0  0  0  0  0  0  0  0  0  0  0  0
   15.3885   -6.1392  -12.1314 O   0  0  0  0  0  0  0  0  0  0  0  0
   19.5798   -5.3799  -16.8229 N   0  0  0  0  0  0  0  0  0  0  0  0
   16.3013   -5.6786  -10.0497 C   0  0  1  0  0  0  0  0  0  0  0  0
   15.1916   -4.7272   -9.7136 C   0  0  0  0  0  0  0  0  0  0  0  0
   14.7712   -5.1011   -8.3656 C   0  0  0  0  0  0  0  0  0  0  0  0
   13.6877   -4.4418   -7.6188 C   0  0  0  0  0  0  0  0  0  0  0  0
   13.4634   -4.8651   -6.2087 C   0  0  0  0  0  0  0  0  0  0  0  0
   12.2312   -4.1520   -5.6236 N   0  0  0  0  0  0  0  0  0  0  0  0
   11.0894   -5.0118   -5.6184 C   0  0  0  0  0  0  0  0  0  0  0  0
   15.5912   -3.3851  -10.0813 O   0  0  0  0  0  0  0  0  0  0  0  0
   16.7700   -3.0335  -10.3324 O   0  0  0  0  0  0  0  0  0  0  0  0
  1  2  1  0
  2  3  2  0
  4  5  1  0
  4  2  1  0
  6  5  1  0
  6  7  1  1
  8  6  1  0
  9  8  2  0
 10 11  1  0
 11 13  1  0
 11 12  2  0
 13 14  1  0
 14 15  1  0
 17 16  1  6
 16 15  1  0
 17 18  1  0
 18  8  1  0
 19 17  1  0
 19 20  2  0
 21 19  1  0
 22 21  1  0
 22 23  1  1
 24 23  1  0
 25 24  1  0
 26 25  1  0
 27 26  1  0
 28 22  1  0
 29 28  2  0
 30 28  1  0
M  END
$$$$
