QRK.pdb
     RDKit          3D

 30 29  0  0  1  0  0  0  0  0999 V2000
   23.6412  -19.5287  -21.2010 N   0  0  0  0  0  0  0  0  0  0  0  0
   23.6546  -18.1102  -21.1896 C   0  0  0  0  0  0  0  0  0  0  0  0
   24.1085  -17.4813  -22.1724 O   0  0  0  0  0  0  0  0  0  0  0  0
   23.1367  -17.3933  -20.0272 C   0  0  0  0  0  0  0  0  0  0  0  0
   22.6761  -18.2600  -18.8951 C   0  0  0  0  0  0  0  0  0  0  0  0
   22.9961  -17.7193  -17.5298 C   0  0  2  0  0  0  0  0  0  0  0  0
   23.9226  -16.6081  -17.5803 N   0  0  0  0  0  0  0  0  0  0  0  0
   23.6363  -18.8057  -16.7307 C   0  0  0  0  0  0  0  0  0  0  0  0
   23.0567  -19.8839  -16.5052 O   0  0  0  0  0  0  0  0  0  0  0  0
   29.1650  -22.5498  -18.3211 N   0  0  0  0  0  0  0  0  0  0  0  0
   28.9998  -23.2808  -17.1097 C   0  0  0  0  0  0  0  0  0  0  0  0
   29.7113  -24.3021  -16.8284 N   0  0  0  0  0  0  0  0  0  0  0  0
   28.0086  -22.8605  -16.1806 N   0  0  0  0  0  0  0  0  0  0  0  0
   27.0467  -21.8832  -16.5870 C   0  0  0  0  0  0  0  0  0  0  0  0
   27.6111  -20.4778  -16.5986 C   0  0  0  0  0  0  0  0  0  0  0  0
   27.0646  -19.6802  -15.4342 C   0  0  0  0  0  0  0  0  0  0  0  0
   25.5822  -19.6523  -15.4268 C   0  0  2  0  0  0  0  0  0  0  0  0
   24.9311  -18.6702  -16.1879 N   0  0  0  0  0  0  0  0  0  0  0  0
   25.1200  -19.5754  -14.0180 C   0  0  0  0  0  0  0  0  0  0  0  0
   25.3619  -18.5404  -13.3538 O   0  0  0  0  0  0  0  0  0  0  0  0
   29.5470  -24.8535  -15.9642 N   0  0  0  0  0  0  0  0  0  0  0  0
   24.4195  -20.6576  -13.4448 C   0  0  2  0  0  0  0  0  0  0  0  0
   23.9041  -20.5423  -12.0410 C   0  0  0  0  0  0  0  0  0  0  0  0
   22.4730  -20.8171  -12.1422 C   0  0  0  0  0  0  0  0  0  0  0  0
   21.5297  -20.7435  -11.0148 C   0  0  0  0  0  0  0  0  0  0  0  0
   20.1174  -21.1415  -11.2685 C   0  0  0  0  0  0  0  0  0  0  0  0
   19.3009  -21.0846   -9.9649 N   0  0  0  0  0  0  0  0  0  0  0  0
   17.9353  -21.4394  -10.1934 C   0  0  0  0  0  0  0  0  0  0  0  0
   24.7930  -21.2581  -11.1503 O   0  0  0  0  0  0  0  0  0  0  0  0
   25.5773  -22.1720  -11.5051 O   0  0  0  0  0  0  0  0  0  0  0  0
  1  2  1  0
  2  3  2  0
  4  5  1  0
  4  2  1  0
  6  5  1  0
  6  7  1  6
  8  6  1  0
  9  8  2  0
 10 11  1  0
 11 13  1  0
 11 12  2  0
 13 14  1  0
 14 15  1  0
 17 16  1  1
 16 15  1  0
 17 18  1  0
 18  8  1  0
 19 17  1  0
 19 20  2  0
 21 19  1  0
 22 21  1  0
 22 23  1  6
 24 23  1  0
 25 24  1  0
 26 25  1  0
 27 26  1  0
 28 22  1  0
 29 28  2  0
 30 28  1  0
M  END
$$$$
