LMG.pdb
     RDKit          3D

 21 20  0  0  1  0  0  0  0  0999 V2000
   18.1632  -13.6612  -20.1036 C   0  0  0  0  0  0  0  0  0  0  0  0
   19.4276  -14.3422  -19.5656 C   0  0  2  0  0  0  0  0  0  0  0  0
   19.0776  -15.7565  -19.1609 C   0  0  0  0  0  0  0  0  0  0  0  0
   19.8771  -13.5285  -18.3946 C   0  0  0  0  0  0  0  0  0  0  0  0
   20.1508  -12.1195  -18.8073 C   0  0  2  0  0  0  0  0  0  0  0  0
   21.1059  -12.0990  -19.8791 N   0  0  0  0  0  0  0  0  0  0  0  0
   20.6357  -11.3460  -17.6241 C   0  0  0  0  0  0  0  0  0  0  0  0
   19.9122  -11.3057  -16.6051 O   0  0  0  0  0  0  0  0  0  0  0  0
   26.8918   -9.7845  -15.8008 C   0  0  0  0  0  0  0  0  0  0  0  0
   25.7940  -10.3395  -14.4641 S   0  0  0  0  0  0  0  0  0  0  0  0
   24.1085   -9.7267  -14.8266 C   0  0  0  0  0  0  0  0  0  0  0  0
   23.6276  -10.4331  -16.0593 C   0  0  0  0  0  0  0  0  0  0  0  0
   22.2910   -9.9064  -16.4779 C   0  0  2  0  0  0  0  0  0  0  0  0
   21.8745  -10.6817  -17.6594 N   0  0  0  0  0  0  0  0  0  0  0  0
   22.2807   -8.4679  -16.8202 C   0  0  0  0  0  0  0  0  0  0  0  0
   22.9869   -7.9825  -17.7261 O   0  0  0  0  0  0  0  0  0  0  0  0
   21.4380   -7.5581  -16.1052 N   0  0  0  0  0  0  0  0  0  0  0  0
   21.3966   -6.1568  -16.4832 C   0  0  0  0  0  0  0  0  0  0  0  0
   21.9697   -5.3502  -15.3811 C   0  0  0  0  0  0  0  0  0  0  0  0
   22.0709   -3.9627  -15.5280 O   0  0  0  0  0  0  0  0  0  0  0  0
   22.3635   -5.8863  -14.3249 O   0  0  0  0  0  0  0  0  0  0  0  0
  2  3  1  1
  2  1  1  0
  4  5  1  0
  4  2  1  0
  5  6  1  6
  5  7  1  0
  7  8  2  0
  9 10  1  0
 10 11  1  0
 11 12  1  0
 13 12  1  6
 14  7  1  0
 14 13  1  0
 15 13  1  0
 15 16  2  0
 17 18  1  0
 17 15  1  0
 19 18  1  0
 20 19  1  0
 21 19  2  0
M  END
$$$$
