LMG.pdb
     RDKit          3D

 21 20  0  0  1  0  0  0  0  0999 V2000
   19.8017  -21.5080  -14.5900 C   0  0  0  0  0  0  0  0  0  0  0  0
   20.0045  -21.8150  -13.1012 C   0  0  2  0  0  0  0  0  0  0  0  0
   18.6698  -21.6994  -12.3997 C   0  0  0  0  0  0  0  0  0  0  0  0
   20.9837  -20.8055  -12.5937 C   0  0  0  0  0  0  0  0  0  0  0  0
   22.2479  -20.8539  -13.3874 C   0  0  2  0  0  0  0  0  0  0  0  0
   22.5296  -22.2062  -13.7792 N   0  0  0  0  0  0  0  0  0  0  0  0
   23.3605  -20.2737  -12.5758 C   0  0  0  0  0  0  0  0  0  0  0  0
   23.3128  -19.0577  -12.2880 O   0  0  0  0  0  0  0  0  0  0  0  0
   26.5731  -19.7219   -6.1988 C   0  0  0  0  0  0  0  0  0  0  0  0
   26.4281  -20.9461   -7.5329 S   0  0  0  0  0  0  0  0  0  0  0  0
   25.7868  -20.0899   -9.0175 C   0  0  0  0  0  0  0  0  0  0  0  0
   25.6781  -21.1084  -10.1132 C   0  0  0  0  0  0  0  0  0  0  0  0
   25.5559  -20.4357  -11.4442 C   0  0  2  0  0  0  0  0  0  0  0  0
   24.4321  -21.0775  -12.1484 N   0  0  0  0  0  0  0  0  0  0  0  0
   26.7661  -20.5273  -12.2889 C   0  0  0  0  0  0  0  0  0  0  0  0
   27.8969  -20.1836  -11.8911 O   0  0  0  0  0  0  0  0  0  0  0  0
   26.6804  -21.0265  -13.6277 N   0  0  0  0  0  0  0  0  0  0  0  0
   27.8797  -21.1421  -14.4380 C   0  0  0  0  0  0  0  0  0  0  0  0
   27.5228  -21.7783  -15.7270 C   0  0  0  0  0  0  0  0  0  0  0  0
   28.5411  -22.2051  -16.5859 O   0  0  0  0  0  0  0  0  0  0  0  0
   26.3307  -21.9402  -16.0597 O   0  0  0  0  0  0  0  0  0  0  0  0
  2  3  1  1
  2  1  1  0
  4  5  1  0
  4  2  1  0
  5  6  1  1
  5  7  1  0
  7  8  2  0
  9 10  1  0
 10 11  1  0
 11 12  1  0
 13 12  1  1
 14  7  1  0
 14 13  1  0
 15 13  1  0
 15 16  2  0
 17 18  1  0
 17 15  1  0
 19 18  1  0
 20 19  1  0
 21 19  2  0
M  END
$$$$
