LMG.pdb
     RDKit          3D

 21 20  0  0  1  0  0  0  0  0999 V2000
   19.1025  -11.4115  -21.2268 C   0  0  0  0  0  0  0  0  0  0  0  0
   18.2492  -12.1596  -20.1953 C   0  0  2  0  0  0  0  0  0  0  0  0
   16.7987  -11.7917  -20.4126 C   0  0  0  0  0  0  0  0  0  0  0  0
   18.7343  -11.7206  -18.8509 C   0  0  0  0  0  0  0  0  0  0  0  0
   20.1979  -11.9816  -18.7089 C   0  0  2  0  0  0  0  0  0  0  0  0
   20.4338  -13.3914  -18.5730 N   0  0  0  0  0  0  0  0  0  0  0  0
   20.7213  -11.2211  -17.5338 C   0  0  0  0  0  0  0  0  0  0  0  0
   20.5330  -11.6924  -16.3910 O   0  0  0  0  0  0  0  0  0  0  0  0
   26.0631  -11.0383  -14.8652 C   0  0  0  0  0  0  0  0  0  0  0  0
   25.9015   -9.3323  -15.4677 S   0  0  0  0  0  0  0  0  0  0  0  0
   24.1286   -8.8822  -15.4196 C   0  0  0  0  0  0  0  0  0  0  0  0
   23.4562   -9.5765  -16.5666 C   0  0  0  0  0  0  0  0  0  0  0  0
   21.9789   -9.3410  -16.5288 C   0  0  2  0  0  0  0  0  0  0  0  0
   21.4074  -10.0068  -17.7124 N   0  0  0  0  0  0  0  0  0  0  0  0
   21.5866   -7.9154  -16.5444 C   0  0  0  0  0  0  0  0  0  0  0  0
   21.7085   -7.1906  -17.5518 O   0  0  0  0  0  0  0  0  0  0  0  0
   21.0391   -7.3008  -15.3732 N   0  0  0  0  0  0  0  0  0  0  0  0
   20.6853   -5.8927  -15.3899 C   0  0  0  0  0  0  0  0  0  0  0  0
   21.9137   -5.0916  -15.1825 C   0  0  0  0  0  0  0  0  0  0  0  0
   21.8171   -3.6988  -15.0949 O   0  0  0  0  0  0  0  0  0  0  0  0
   23.0322   -5.6370  -15.0847 O   0  0  0  0  0  0  0  0  0  0  0  0
  2  3  1  6
  2  1  1  0
  4  5  1  0
  4  2  1  0
  5  6  1  1
  5  7  1  0
  7  8  2  0
  9 10  1  0
 10 11  1  0
 11 12  1  0
 13 12  1  6
 14  7  1  0
 14 13  1  0
 15 13  1  0
 15 16  2  0
 17 18  1  0
 17 15  1  0
 19 18  1  0
 20 19  1  0
 21 19  2  0
M  END
$$$$
