LMG.pdb
     RDKit          3D

 21 20  0  0  1  0  0  0  0  0999 V2000
   29.0443  -18.2654  -15.7609 C   0  0  0  0  0  0  0  0  0  0  0  0
   27.9829  -18.9387  -16.6395 C   0  0  2  0  0  0  0  0  0  0  0  0
   27.3711  -17.8919  -17.5431 C   0  0  0  0  0  0  0  0  0  0  0  0
   26.9711  -19.5201  -15.7048 C   0  0  0  0  0  0  0  0  0  0  0  0
   27.5929  -20.5696  -14.8431 C   0  0  2  0  0  0  0  0  0  0  0  0
   28.0236  -21.6757  -15.6509 N   0  0  0  0  0  0  0  0  0  0  0  0
   26.6091  -20.9985  -13.8033 C   0  0  0  0  0  0  0  0  0  0  0  0
   25.8884  -21.9920  -14.0430 O   0  0  0  0  0  0  0  0  0  0  0  0
   27.5347  -20.3432   -7.6897 C   0  0  0  0  0  0  0  0  0  0  0  0
   25.7242  -20.2447   -7.5802 S   0  0  0  0  0  0  0  0  0  0  0  0
   25.0317  -20.7735   -9.1892 C   0  0  0  0  0  0  0  0  0  0  0  0
   25.9719  -20.3055  -10.2601 C   0  0  0  0  0  0  0  0  0  0  0  0
   25.4949  -20.7490  -11.6073 C   0  0  2  0  0  0  0  0  0  0  0  0
   26.4991  -20.3006  -12.5876 N   0  0  0  0  0  0  0  0  0  0  0  0
   24.1729  -20.2117  -11.9950 C   0  0  0  0  0  0  0  0  0  0  0  0
   23.9674  -18.9980  -12.1942 O   0  0  0  0  0  0  0  0  0  0  0  0
   23.0534  -21.0884  -12.1595 N   0  0  0  0  0  0  0  0  0  0  0  0
   21.7672  -20.5547  -12.5707 C   0  0  0  0  0  0  0  0  0  0  0  0
   20.7023  -21.4786  -12.1169 C   0  0  0  0  0  0  0  0  0  0  0  0
   19.8451  -21.0824  -11.0848 O   0  0  0  0  0  0  0  0  0  0  0  0
   20.5566  -22.6031  -12.6386 O   0  0  0  0  0  0  0  0  0  0  0  0
  2  3  1  6
  2  1  1  0
  4  5  1  0
  4  2  1  0
  5  6  1  6
  5  7  1  0
  7  8  2  0
  9 10  1  0
 10 11  1  0
 11 12  1  0
 13 12  1  1
 14  7  1  0
 14 13  1  0
 15 13  1  0
 15 16  2  0
 17 18  1  0
 17 15  1  0
 19 18  1  0
 20 19  1  0
 21 19  2  0
M  END
$$$$
