GKT.pdb
     RDKit          3D

 21 20  0  0  1  0  0  0  0  0999 V2000
   20.5073  -13.4549  -17.0043 N   0  0  0  0  0  0  0  0  0  0  0  0
   19.4576  -13.1816  -16.0462 C   0  0  0  0  0  0  0  0  0  0  0  0
   19.0249  -11.7755  -16.0779 C   0  0  0  0  0  0  0  0  0  0  0  0
   19.4425  -11.0423  -16.9983 O   0  0  0  0  0  0  0  0  0  0  0  0
   18.1636  -11.2297  -15.1160 N   0  0  0  0  0  0  0  0  0  0  0  0
   17.6739   -9.8849  -15.0816 C   0  0  1  0  0  0  0  0  0  0  0  0
   16.3278   -9.7329  -14.4312 C   0  0  0  0  0  0  0  0  0  0  0  0
   15.1942  -10.3322  -15.1956 C   0  0  0  0  0  0  0  0  0  0  0  0
   13.8690  -10.2521  -14.5381 C   0  0  0  0  0  0  0  0  0  0  0  0
   12.7156  -10.8625  -15.2463 C   0  0  0  0  0  0  0  0  0  0  0  0
   11.4629  -10.8402  -14.5728 N   0  0  0  0  0  0  0  0  0  0  0  0
   18.6085   -8.9821  -14.3217 C   0  0  0  0  0  0  0  0  0  0  0  0
   18.6936   -9.0840  -13.0728 O   0  0  0  0  0  0  0  0  0  0  0  0
   22.1757   -9.0005  -14.4103 C   0  0  0  0  0  0  0  0  0  0  0  0
   21.8159   -7.5718  -14.7301 C   0  0  1  0  0  0  0  0  0  0  0  0
   21.8540   -7.4346  -16.1189 O   0  0  0  0  0  0  0  0  0  0  0  0
   20.4126   -7.2260  -14.2793 C   0  0  2  0  0  0  0  0  0  0  0  0
   19.4140   -8.0013  -14.9663 N   0  0  0  0  0  0  0  0  0  0  0  0
   20.1133   -5.7899  -14.4669 C   0  0  0  0  0  0  0  0  0  0  0  0
   20.7958   -4.9414  -13.8468 O   0  0  0  0  0  0  0  0  0  0  0  0
   19.1095   -5.3309  -15.2994 O   0  0  0  0  0  0  0  0  0  0  0  0
  2  1  1  0
  3  4  2  0
  3  2  1  0
  5  3  1  0
  6  5  1  0
  6 12  1  0
  6  7  1  1
  8  7  1  0
  9 10  1  0
  9  8  1  0
 10 11  1  0
 12 13  2  0
 15 14  1  6
 15 16  1  0
 17 19  1  0
 17 15  1  0
 18 12  1  0
 17 18  1  6
 19 21  1  0
 20 19  2  0
M  END
$$$$
