GKT.pdb
     RDKit          3D

 21 20  0  0  1  0  0  0  0  0999 V2000
   15.2496  -22.2978   -0.5867 N   0  0  0  0  0  0  0  0  0  0  0  0
   14.5861  -22.3545    0.6983 C   0  0  0  0  0  0  0  0  0  0  0  0
   15.2855  -21.5637    1.7233 C   0  0  0  0  0  0  0  0  0  0  0  0
   16.3807  -21.0405    1.4302 O   0  0  0  0  0  0  0  0  0  0  0  0
   14.7698  -21.3762    3.0131 N   0  0  0  0  0  0  0  0  0  0  0  0
   15.2529  -20.4518    3.9937 C   0  0  1  0  0  0  0  0  0  0  0  0
   14.1858  -19.5970    4.6171 C   0  0  0  0  0  0  0  0  0  0  0  0
   13.8581  -18.3547    3.8570 C   0  0  0  0  0  0  0  0  0  0  0  0
   12.8460  -17.4724    4.4831 C   0  0  0  0  0  0  0  0  0  0  0  0
   12.3921  -16.2919    3.7054 C   0  0  0  0  0  0  0  0  0  0  0  0
   11.3337  -15.5228    4.2636 N   0  0  0  0  0  0  0  0  0  0  0  0
   15.9319  -21.1668    5.1311 C   0  0  0  0  0  0  0  0  0  0  0  0
   15.4770  -22.2654    5.5356 O   0  0  0  0  0  0  0  0  0  0  0  0
   19.5852  -22.2046    5.2335 C   0  0  0  0  0  0  0  0  0  0  0  0
   19.2969  -21.4280    6.4930 C   0  0  1  0  0  0  0  0  0  0  0  0
   19.7388  -20.1201    6.2851 O   0  0  0  0  0  0  0  0  0  0  0  0
   17.8142  -21.3629    6.7920 C   0  0  2  0  0  0  0  0  0  0  0  0
   17.0862  -20.6446    5.7800 N   0  0  0  0  0  0  0  0  0  0  0  0
   17.5454  -20.7389    8.1057 C   0  0  0  0  0  0  0  0  0  0  0  0
   16.8627  -19.6890    8.1509 O   0  0  0  0  0  0  0  0  0  0  0  0
   18.0131  -21.2594    9.2980 O   0  0  0  0  0  0  0  0  0  0  0  0
  2  1  1  0
  3  4  2  0
  3  2  1  0
  5  3  1  0
  6  5  1  0
  6 12  1  0
  6  7  1  1
  8  7  1  0
  9 10  1  0
  9  8  1  0
 10 11  1  0
 12 13  2  0
 15 14  1  6
 15 16  1  0
 17 19  1  0
 17 15  1  0
 18 12  1  0
 17 18  1  6
 19 21  1  0
 20 19  2  0
M  END
$$$$
