GKT.pdb
     RDKit          3D

 21 20  0  0  1  0  0  0  0  0999 V2000
   19.2001  -12.7889  -15.3147 N   0  0  0  0  0  0  0  0  0  0  0  0
   19.6823  -12.3884  -16.6191 C   0  0  0  0  0  0  0  0  0  0  0  0
   19.6564  -10.9283  -16.8000 C   0  0  0  0  0  0  0  0  0  0  0  0
   20.0427  -10.4540  -17.8885 O   0  0  0  0  0  0  0  0  0  0  0  0
   19.2155  -10.0521  -15.7986 N   0  0  0  0  0  0  0  0  0  0  0  0
   19.0752   -8.6322  -15.9156 C   0  0  1  0  0  0  0  0  0  0  0  0
   17.7935   -8.0883  -15.3504 C   0  0  0  0  0  0  0  0  0  0  0  0
   16.5590   -8.5356  -16.0606 C   0  0  0  0  0  0  0  0  0  0  0  0
   15.2822   -8.0493  -15.4877 C   0  0  0  0  0  0  0  0  0  0  0  0
   14.0283   -8.4416  -16.1792 C   0  0  0  0  0  0  0  0  0  0  0  0
   12.8060   -8.0684  -15.5545 N   0  0  0  0  0  0  0  0  0  0  0  0
   20.1858   -7.9124  -15.1983 C   0  0  0  0  0  0  0  0  0  0  0  0
   20.5106   -8.2680  -14.0383 O   0  0  0  0  0  0  0  0  0  0  0  0
   24.2571   -5.1220  -15.4343 C   0  0  0  0  0  0  0  0  0  0  0  0
   23.0838   -5.7731  -16.1214 C   0  0  1  0  0  0  0  0  0  0  0  0
   23.5507   -6.9448  -16.7200 O   0  0  0  0  0  0  0  0  0  0  0  0
   21.9996   -6.1668  -15.1407 C   0  0  2  0  0  0  0  0  0  0  0  0
   20.8965   -6.8280  -15.7859 N   0  0  0  0  0  0  0  0  0  0  0  0
   21.4842   -4.9992  -14.3934 C   0  0  0  0  0  0  0  0  0  0  0  0
   20.5633   -4.3144  -14.8968 O   0  0  0  0  0  0  0  0  0  0  0  0
   21.9710   -4.6208  -13.1560 O   0  0  0  0  0  0  0  0  0  0  0  0
  2  1  1  0
  3  4  2  0
  3  2  1  0
  5  3  1  0
  6  5  1  0
  6 12  1  0
  6  7  1  1
  8  7  1  0
  9 10  1  0
  9  8  1  0
 10 11  1  0
 12 13  2  0
 15 14  1  1
 15 16  1  0
 17 19  1  0
 17 15  1  0
 18 12  1  0
 17 18  1  6
 19 21  1  0
 20 19  2  0
M  END
$$$$
