GKT.pdb
     RDKit          3D

 21 20  0  0  1  0  0  0  0  0999 V2000
   26.2554  -19.4419   -7.7363 N   0  0  0  0  0  0  0  0  0  0  0  0
   25.6046  -20.5171   -8.4538 C   0  0  0  0  0  0  0  0  0  0  0  0
   25.6773  -20.3394   -9.9127 C   0  0  0  0  0  0  0  0  0  0  0  0
   26.2010  -19.2989  -10.3625 O   0  0  0  0  0  0  0  0  0  0  0  0
   25.1820  -21.2918  -10.8140 N   0  0  0  0  0  0  0  0  0  0  0  0
   25.1337  -21.1661  -12.2393 C   0  0  1  0  0  0  0  0  0  0  0  0
   25.5467  -22.4042  -12.9840 C   0  0  0  0  0  0  0  0  0  0  0  0
   25.5838  -22.2559  -14.4689 C   0  0  0  0  0  0  0  0  0  0  0  0
   26.8891  -21.8443  -15.0362 C   0  0  0  0  0  0  0  0  0  0  0  0
   26.9842  -21.7166  -16.5123 C   0  0  0  0  0  0  0  0  0  0  0  0
   28.2323  -21.2851  -17.0410 N   0  0  0  0  0  0  0  0  0  0  0  0
   23.7425  -20.8395  -12.7123 C   0  0  0  0  0  0  0  0  0  0  0  0
   22.7507  -21.2838  -12.0826 O   0  0  0  0  0  0  0  0  0  0  0  0
   20.8315  -18.1912  -15.8141 C   0  0  0  0  0  0  0  0  0  0  0  0
   22.2097  -18.6791  -15.4464 C   0  0  1  0  0  0  0  0  0  0  0  0
   22.9501  -17.5667  -15.0422 O   0  0  0  0  0  0  0  0  0  0  0  0
   22.1767  -19.6479  -14.2835 C   0  0  2  0  0  0  0  0  0  0  0  0
   23.4963  -20.0359  -13.8611 N   0  0  0  0  0  0  0  0  0  0  0  0
   21.4017  -20.8659  -14.6048 C   0  0  0  0  0  0  0  0  0  0  0  0
   21.9313  -21.7530  -15.3141 O   0  0  0  0  0  0  0  0  0  0  0  0
   20.1106  -21.0782  -14.1585 O   0  0  0  0  0  0  0  0  0  0  0  0
  2  1  1  0
  3  4  2  0
  3  2  1  0
  5  3  1  0
  6  5  1  0
  6 12  1  0
  6  7  1  6
  8  7  1  0
  9 10  1  0
  9  8  1  0
 10 11  1  0
 12 13  2  0
 15 14  1  1
 15 16  1  0
 17 19  1  0
 17 15  1  0
 18 12  1  0
 17 18  1  6
 19 21  1  0
 20 19  2  0
M  END
$$$$
