GKT.pdb
     RDKit          3D

 21 20  0  0  1  0  0  0  0  0999 V2000
   21.1093  -14.3116  -18.1220 N   0  0  0  0  0  0  0  0  0  0  0  0
   20.3747  -13.5261  -19.0905 C   0  0  0  0  0  0  0  0  0  0  0  0
   19.9492  -12.2261  -18.5480 C   0  0  0  0  0  0  0  0  0  0  0  0
   19.8956  -11.2455  -19.3191 O   0  0  0  0  0  0  0  0  0  0  0  0
   19.6028  -12.0478  -17.2016 N   0  0  0  0  0  0  0  0  0  0  0  0
   19.0688  -10.8567  -16.6138 C   0  0  1  0  0  0  0  0  0  0  0  0
   18.0481  -11.1013  -15.5383 C   0  0  0  0  0  0  0  0  0  0  0  0
   16.6827  -11.4383  -16.0389 C   0  0  0  0  0  0  0  0  0  0  0  0
   15.6934  -11.8010  -14.9974 C   0  0  0  0  0  0  0  0  0  0  0  0
   14.3527  -12.2476  -15.4529 C   0  0  0  0  0  0  0  0  0  0  0  0
   13.5012  -12.8281  -14.4724 N   0  0  0  0  0  0  0  0  0  0  0  0
   20.1526  -10.0271  -15.9791 C   0  0  0  0  0  0  0  0  0  0  0  0
   20.8847  -10.5326  -15.0925 O   0  0  0  0  0  0  0  0  0  0  0  0
   22.8307   -8.0159  -17.9742 C   0  0  0  0  0  0  0  0  0  0  0  0
   22.1846   -7.1168  -16.9510 C   0  0  1  0  0  0  0  0  0  0  0  0
   21.1986   -6.3795  -17.6092 O   0  0  0  0  0  0  0  0  0  0  0  0
   21.5030   -7.9056  -15.8531 C   0  0  2  0  0  0  0  0  0  0  0  0
   20.3891   -8.6719  -16.3450 N   0  0  0  0  0  0  0  0  0  0  0  0
   21.0325   -7.0297  -14.7582 C   0  0  0  0  0  0  0  0  0  0  0  0
   19.8007   -6.8569  -14.6056 O   0  0  0  0  0  0  0  0  0  0  0  0
   21.8901   -6.3855  -13.8859 O   0  0  0  0  0  0  0  0  0  0  0  0
  2  1  1  0
  3  4  2  0
  3  2  1  0
  5  3  1  0
  6  5  1  0
  6 12  1  0
  6  7  1  1
  8  7  1  0
  9 10  1  0
  9  8  1  0
 10 11  1  0
 12 13  2  0
 15 14  1  6
 15 16  1  0
 17 19  1  0
 17 15  1  0
 18 12  1  0
 17 18  1  6
 19 21  1  0
 20 19  2  0
M  END
$$$$
