GKT.pdb
     RDKit          3D

 21 20  0  0  1  0  0  0  0  0999 V2000
   25.4909  -15.5706  -16.5736 N   0  0  0  0  0  0  0  0  0  0  0  0
   24.6086  -16.6590  -16.9362 C   0  0  0  0  0  0  0  0  0  0  0  0
   24.9383  -17.9052  -16.2265 C   0  0  0  0  0  0  0  0  0  0  0  0
   25.9759  -17.9412  -15.5327 O   0  0  0  0  0  0  0  0  0  0  0  0
   24.1335  -19.0505  -16.3000 N   0  0  0  0  0  0  0  0  0  0  0  0
   24.4250  -20.3301  -15.7282 C   0  0  1  0  0  0  0  0  0  0  0  0
   23.2117  -21.1625  -15.4230 C   0  0  0  0  0  0  0  0  0  0  0  0
   22.2237  -20.5144  -14.5108 C   0  0  0  0  0  0  0  0  0  0  0  0
   21.0640  -21.3530  -14.1275 C   0  0  0  0  0  0  0  0  0  0  0  0
   20.1183  -20.7973  -13.1270 C   0  0  0  0  0  0  0  0  0  0  0  0
   19.0255  -21.6247  -12.7466 N   0  0  0  0  0  0  0  0  0  0  0  0
   25.2784  -21.1592  -16.6502 C   0  0  0  0  0  0  0  0  0  0  0  0
   24.9943  -21.2226  -17.8720 O   0  0  0  0  0  0  0  0  0  0  0  0
   29.6840  -23.3011  -17.4655 C   0  0  0  0  0  0  0  0  0  0  0  0
   28.7471  -22.5318  -16.5694 C   0  0  1  0  0  0  0  0  0  0  0  0
   29.1596  -21.1981  -16.5840 O   0  0  0  0  0  0  0  0  0  0  0  0
   27.3204  -22.5700  -17.0745 C   0  0  2  0  0  0  0  0  0  0  0  0
   26.4123  -21.8872  -16.1916 N   0  0  0  0  0  0  0  0  0  0  0  0
   26.8434  -23.9563  -17.2696 C   0  0  0  0  0  0  0  0  0  0  0  0
   26.0820  -24.4627  -16.4128 O   0  0  0  0  0  0  0  0  0  0  0  0
   27.1979  -24.7297  -18.3593 O   0  0  0  0  0  0  0  0  0  0  0  0
  2  1  1  0
  3  4  2  0
  3  2  1  0
  5  3  1  0
  6  5  1  0
  6 12  1  0
  6  7  1  6
  8  7  1  0
  9 10  1  0
  9  8  1  0
 10 11  1  0
 12 13  2  0
 15 14  1  6
 15 16  1  0
 17 19  1  0
 17 15  1  0
 18 12  1  0
 17 18  1  1
 19 21  1  0
 20 19  2  0
M  END
$$$$
