GKT.pdb
     RDKit          3D

 21 20  0  0  1  0  0  0  0  0999 V2000
   15.4183  -11.1149  -11.9277 N   0  0  0  0  0  0  0  0  0  0  0  0
   16.3686  -10.2392  -11.2762 C   0  0  0  0  0  0  0  0  0  0  0  0
   15.7559   -8.9730  -10.8439 C   0  0  0  0  0  0  0  0  0  0  0  0
   15.0240   -8.3584  -11.6474 O   0  0  0  0  0  0  0  0  0  0  0  0
   15.9626   -8.4325   -9.5673 N   0  0  0  0  0  0  0  0  0  0  0  0
   15.3986   -7.2189   -9.0586 C   0  0  1  0  0  0  0  0  0  0  0  0
   15.3042   -7.1610   -7.5600 C   0  0  0  0  0  0  0  0  0  0  0  0
   14.5615   -5.9810   -7.0267 C   0  0  0  0  0  0  0  0  0  0  0  0
   13.0843   -6.0856   -7.0677 C   0  0  0  0  0  0  0  0  0  0  0  0
   12.3019   -4.9205   -6.5832 C   0  0  0  0  0  0  0  0  0  0  0  0
   10.8866   -5.0621   -6.5587 N   0  0  0  0  0  0  0  0  0  0  0  0
   16.2133   -6.0224   -9.4717 C   0  0  0  0  0  0  0  0  0  0  0  0
   17.3838   -5.8865   -9.0371 O   0  0  0  0  0  0  0  0  0  0  0  0
   17.4552   -4.9880  -12.8644 C   0  0  0  0  0  0  0  0  0  0  0  0
   16.5922   -3.8752  -12.3262 C   0  0  1  0  0  0  0  0  0  0  0  0
   15.3048   -4.0664  -12.8312 O   0  0  0  0  0  0  0  0  0  0  0  0
   16.4962   -3.9121  -10.8158 C   0  0  2  0  0  0  0  0  0  0  0  0
   15.7077   -5.0209  -10.3477 N   0  0  0  0  0  0  0  0  0  0  0  0
   15.9287   -2.6599  -10.2704 C   0  0  0  0  0  0  0  0  0  0  0  0
   14.7716   -2.6766   -9.7896 O   0  0  0  0  0  0  0  0  0  0  0  0
   16.6158   -1.4603  -10.2638 O   0  0  0  0  0  0  0  0  0  0  0  0
  2  1  1  0
  3  4  2  0
  3  2  1  0
  5  3  1  0
  6  5  1  0
  6 12  1  0
  6  7  1  1
  8  7  1  0
  9 10  1  0
  9  8  1  0
 10 11  1  0
 12 13  2  0
 15 14  1  6
 15 16  1  0
 17 19  1  0
 17 15  1  0
 18 12  1  0
 17 18  1  6
 19 21  1  0
 20 19  2  0
M  END
$$$$
