GKT.pdb
     RDKit          3D

 21 20  0  0  1  0  0  0  0  0999 V2000
   15.6688   -7.6312   -8.0602 N   0  0  0  0  0  0  0  0  0  0  0  0
   15.5672   -7.1885   -9.4343 C   0  0  0  0  0  0  0  0  0  0  0  0
   16.6699   -7.6946  -10.2670 C   0  0  0  0  0  0  0  0  0  0  0  0
   17.6775   -8.1676   -9.7013 O   0  0  0  0  0  0  0  0  0  0  0  0
   16.6315   -7.6657  -11.6679 N   0  0  0  0  0  0  0  0  0  0  0  0
   17.6427   -8.1569  -12.5543 C   0  0  1  0  0  0  0  0  0  0  0  0
   17.1218   -9.0153  -13.6723 C   0  0  0  0  0  0  0  0  0  0  0  0
   18.1757   -9.6007  -14.5526 C   0  0  0  0  0  0  0  0  0  0  0  0
   17.6831  -10.4778  -15.6403 C   0  0  0  0  0  0  0  0  0  0  0  0
   18.6942  -11.0759  -16.5482 C   0  0  0  0  0  0  0  0  0  0  0  0
   18.2251  -12.0303  -17.4929 N   0  0  0  0  0  0  0  0  0  0  0  0
   18.3906   -7.0269  -13.2100 C   0  0  0  0  0  0  0  0  0  0  0  0
   17.7530   -6.0960  -13.7616 O   0  0  0  0  0  0  0  0  0  0  0  0
   20.7990   -4.5352  -11.7716 C   0  0  0  0  0  0  0  0  0  0  0  0
   21.5121   -5.2295  -12.9039 C   0  0  1  0  0  0  0  0  0  0  0  0
   22.3040   -6.2332  -12.3430 O   0  0  0  0  0  0  0  0  0  0  0  0
   20.5449   -5.8964  -13.8588 C   0  0  2  0  0  0  0  0  0  0  0  0
   19.8125   -6.9652  -13.2331 N   0  0  0  0  0  0  0  0  0  0  0  0
   21.2325   -6.4269  -15.0560 C   0  0  0  0  0  0  0  0  0  0  0  0
   21.2227   -7.6626  -15.2641 O   0  0  0  0  0  0  0  0  0  0  0  0
   21.8918   -5.6218  -15.9661 O   0  0  0  0  0  0  0  0  0  0  0  0
  2  1  1  0
  3  4  2  0
  3  2  1  0
  5  3  1  0
  6  5  1  0
  6 12  1  0
  6  7  1  6
  8  7  1  0
  9 10  1  0
  9  8  1  0
 10 11  1  0
 12 13  2  0
 15 14  1  1
 15 16  1  0
 17 19  1  0
 17 15  1  0
 18 12  1  0
 17 18  1  1
 19 21  1  0
 20 19  2  0
M  END
$$$$
