MRS.pdb
     RDKit          3D

 26 25  0  0  1  0  0  0  0  0999 V2000
   28.3930  -22.2775  -18.7349 C   0  0  0  0  0  0  0  0  0  0  0  0
   28.9754  -23.3121  -17.3912 S   0  0  0  0  0  0  0  0  0  0  0  0
   27.7682  -23.5032  -16.0649 C   0  0  0  0  0  0  0  0  0  0  0  0
   26.4281  -22.8630  -16.4380 C   0  0  0  0  0  0  0  0  0  0  0  0
   26.1588  -21.8125  -15.3882 C   0  0  2  0  0  0  0  0  0  0  0  0
   26.0846  -22.4311  -14.1156 N   0  0  0  0  0  0  0  0  0  0  0  0
   24.9449  -21.0152  -15.6699 C   0  0  0  0  0  0  0  0  0  0  0  0
   24.7365  -20.3867  -16.7265 O   0  0  0  0  0  0  0  0  0  0  0  0
   17.1214  -20.9179  -11.1961 N   0  0  0  0  0  0  0  0  0  0  0  0
   16.9491  -20.2807  -12.4599 C   0  0  0  0  0  0  0  0  0  0  0  0
   15.7960  -19.8817  -12.8588 N   0  0  0  0  0  0  0  0  0  0  0  0
   18.0730  -20.0828  -13.3015 N   0  0  0  0  0  0  0  0  0  0  0  0
   19.3898  -20.6061  -13.0052 C   0  0  0  0  0  0  0  0  0  0  0  0
   20.3627  -20.1572  -14.0699 C   0  0  0  0  0  0  0  0  0  0  0  0
   21.7168  -20.7248  -13.7855 C   0  0  0  0  0  0  0  0  0  0  0  0
   22.6782  -20.3138  -14.8707 C   0  0  2  0  0  0  0  0  0  0  0  0
   23.9385  -20.9591  -14.6612 N   0  0  0  0  0  0  0  0  0  0  0  0
   22.8404  -18.8334  -14.9241 C   0  0  0  0  0  0  0  0  0  0  0  0
   22.9867  -18.1554  -13.8802 O   0  0  0  0  0  0  0  0  0  0  0  0
   15.7159  -19.5077  -13.8369 O   0  0  0  0  0  0  0  0  0  0  0  0
   23.5721  -17.1062  -18.5979 C   0  0  0  0  0  0  0  0  0  0  0  0
   23.9459  -16.4502  -17.4149 C   0  0  1  0  0  0  0  0  0  0  0  0
   22.9437  -16.7766  -16.3191 N   0  0  0  0  0  0  0  0  0  0  0  0
   22.8257  -18.1958  -16.1982 C   0  0  0  0  0  0  0  0  0  0  0  0
   21.6384  -16.1850  -16.6595 O   0  0  0  0  0  0  0  0  0  0  0  0
   21.5094  -14.8107  -16.7067 O   0  0  0  0  0  0  0  0  0  0  0  0
  2  1  1  0
  3  4  1  0
  3  2  1  0
  4  5  1  0
  5  6  1  1
  7  5  1  0
  7  8  2  0
 10  9  1  0
 11 10  2  0
 12 10  1  0
 13 14  1  0
 13 12  1  0
 14 15  1  0
 16 15  1  1
 16 17  1  0
 17  7  1  0
 18 16  1  0
 19 18  2  0
 21 20  1  0
 22 21  1  1
 22 24  1  0
 22 23  1  0
 23 18  1  0
 24 25  1  0
 26 24  2  0
M  END
$$$$
