MRS.pdb
     RDKit          3D

 26 25  0  0  1  0  0  0  0  0999 V2000
   31.3487  -22.6207   -9.8597 C   0  0  0  0  0  0  0  0  0  0  0  0
   32.5950  -22.7282  -11.1443 S   0  0  0  0  0  0  0  0  0  0  0  0
   31.9599  -22.3394  -12.7869 C   0  0  0  0  0  0  0  0  0  0  0  0
   30.4456  -22.5553  -12.8617 C   0  0  0  0  0  0  0  0  0  0  0  0
   30.0449  -22.2258  -14.2791 C   0  0  2  0  0  0  0  0  0  0  0  0
   30.2165  -20.8372  -14.5030 N   0  0  0  0  0  0  0  0  0  0  0  0
   28.6669  -22.6562  -14.6025 C   0  0  0  0  0  0  0  0  0  0  0  0
   28.3125  -23.8400  -14.7690 O   0  0  0  0  0  0  0  0  0  0  0  0
   25.1822  -21.6781   -9.0914 N   0  0  0  0  0  0  0  0  0  0  0  0
   25.3470  -20.5016   -9.8799 C   0  0  0  0  0  0  0  0  0  0  0  0
   25.9077  -19.4487   -9.4057 N   0  0  0  0  0  0  0  0  0  0  0  0
   24.8803  -20.4870  -11.2189 N   0  0  0  0  0  0  0  0  0  0  0  0
   24.1457  -21.5818  -11.8165 C   0  0  0  0  0  0  0  0  0  0  0  0
   25.0099  -22.2650  -12.8499 C   0  0  0  0  0  0  0  0  0  0  0  0
   25.4656  -21.2655  -13.8648 C   0  0  0  0  0  0  0  0  0  0  0  0
   26.2851  -21.9552  -14.9249 C   0  0  2  0  0  0  0  0  0  0  0  0
   27.6694  -21.6457  -14.7344 N   0  0  0  0  0  0  0  0  0  0  0  0
   25.8378  -21.5741  -16.2944 C   0  0  0  0  0  0  0  0  0  0  0  0
   26.1341  -20.4624  -16.7913 O   0  0  0  0  0  0  0  0  0  0  0  0
   26.0401  -18.6294  -10.0491 O   0  0  0  0  0  0  0  0  0  0  0  0
   23.6381  -23.1889  -20.3065 C   0  0  0  0  0  0  0  0  0  0  0  0
   24.0309  -23.4661  -18.9881 C   0  0  2  0  0  0  0  0  0  0  0  0
   24.5917  -22.2036  -18.3530 N   0  0  0  0  0  0  0  0  0  0  0  0
   25.0579  -22.5074  -17.0365 C   0  0  0  0  0  0  0  0  0  0  0  0
   23.5371  -21.1768  -18.2946 O   0  0  0  0  0  0  0  0  0  0  0  0
   23.3942  -20.2923  -19.3457 O   0  0  0  0  0  0  0  0  0  0  0  0
  2  1  1  0
  3  4  1  0
  3  2  1  0
  4  5  1  0
  5  6  1  1
  7  5  1  0
  7  8  2  0
 10  9  1  0
 11 10  2  0
 12 10  1  0
 13 14  1  0
 13 12  1  0
 14 15  1  0
 16 15  1  1
 16 17  1  0
 17  7  1  0
 18 16  1  0
 19 18  2  0
 21 20  1  0
 22 21  1  6
 22 24  1  0
 22 23  1  0
 23 18  1  0
 24 25  1  0
 26 24  2  0
M  END
$$$$
