MRS.pdb
     RDKit          3D

 26 25  0  0  1  0  0  0  0  0999 V2000
   27.8608  -18.4453   -6.8200 C   0  0  0  0  0  0  0  0  0  0  0  0
   28.8694  -19.8109   -7.3968 S   0  0  0  0  0  0  0  0  0  0  0  0
   28.0039  -20.9006   -8.5440 C   0  0  0  0  0  0  0  0  0  0  0  0
   26.8433  -20.1745   -9.2303 C   0  0  0  0  0  0  0  0  0  0  0  0
   26.2509  -21.1608  -10.2073 C   0  0  2  0  0  0  0  0  0  0  0  0
   27.2664  -21.6195  -11.0825 N   0  0  0  0  0  0  0  0  0  0  0  0
   25.1030  -20.6077  -10.9588 C   0  0  0  0  0  0  0  0  0  0  0  0
   24.1470  -19.9931  -10.4458 O   0  0  0  0  0  0  0  0  0  0  0  0
   24.7317  -16.4915  -16.4799 N   0  0  0  0  0  0  0  0  0  0  0  0
   23.4863  -17.0044  -16.9480 C   0  0  0  0  0  0  0  0  0  0  0  0
   22.3997  -16.3291  -16.8417 N   0  0  0  0  0  0  0  0  0  0  0  0
   23.4398  -18.2906  -17.5430 N   0  0  0  0  0  0  0  0  0  0  0  0
   23.9874  -19.4758  -16.9177 C   0  0  0  0  0  0  0  0  0  0  0  0
   23.4848  -19.5750  -15.4968 C   0  0  0  0  0  0  0  0  0  0  0  0
   24.5505  -20.1605  -14.6260 C   0  0  0  0  0  0  0  0  0  0  0  0
   24.0577  -20.2405  -13.2041 C   0  0  2  0  0  0  0  0  0  0  0  0
   25.0855  -20.7897  -12.3731 N   0  0  0  0  0  0  0  0  0  0  0  0
   22.8065  -21.0439  -13.1045 C   0  0  0  0  0  0  0  0  0  0  0  0
   22.7603  -22.2309  -13.5038 O   0  0  0  0  0  0  0  0  0  0  0  0
   21.5443  -16.6933  -17.3300 O   0  0  0  0  0  0  0  0  0  0  0  0
   19.5404  -19.1733  -11.3918 C   0  0  0  0  0  0  0  0  0  0  0  0
   19.6458  -20.5621  -11.2196 C   0  0  1  0  0  0  0  0  0  0  0  0
   20.4300  -21.1558  -12.3791 N   0  0  0  0  0  0  0  0  0  0  0  0
   21.6507  -20.4304  -12.5408 C   0  0  0  0  0  0  0  0  0  0  0  0
   19.6222  -21.0724  -13.6080 O   0  0  0  0  0  0  0  0  0  0  0  0
   18.5006  -21.8681  -13.7366 O   0  0  0  0  0  0  0  0  0  0  0  0
  2  1  1  0
  3  4  1  0
  3  2  1  0
  4  5  1  0
  5  6  1  6
  7  5  1  0
  7  8  2  0
 10  9  1  0
 11 10  2  0
 12 10  1  0
 13 14  1  0
 13 12  1  0
 14 15  1  0
 16 15  1  6
 16 17  1  0
 17  7  1  0
 18 16  1  0
 19 18  2  0
 21 20  1  0
 22 21  1  1
 22 24  1  0
 22 23  1  0
 23 18  1  0
 24 25  1  0
 26 24  2  0
M  END
$$$$
