MRS.pdb
     RDKit          3D

 26 25  0  0  1  0  0  0  0  0999 V2000
   29.7798  -21.9116   -9.8330 C   0  0  0  0  0  0  0  0  0  0  0  0
   30.2110  -20.7391  -11.1191 S   0  0  0  0  0  0  0  0  0  0  0  0
   29.0077  -20.6797  -12.4613 C   0  0  0  0  0  0  0  0  0  0  0  0
   27.6351  -21.1764  -11.9981 C   0  0  0  0  0  0  0  0  0  0  0  0
   26.7152  -21.0343  -13.1863 C   0  0  2  0  0  0  0  0  0  0  0  0
   26.7835  -19.7058  -13.6745 N   0  0  0  0  0  0  0  0  0  0  0  0
   25.3206  -21.4249  -12.8844 C   0  0  0  0  0  0  0  0  0  0  0  0
   24.9567  -22.5755  -12.5705 O   0  0  0  0  0  0  0  0  0  0  0  0
   21.4273  -22.1370   -8.7880 N   0  0  0  0  0  0  0  0  0  0  0  0
   21.1441  -20.9425   -8.0628 C   0  0  0  0  0  0  0  0  0  0  0  0
   20.8567  -20.9688   -6.8119 N   0  0  0  0  0  0  0  0  0  0  0  0
   21.1763  -19.6936   -8.7337 N   0  0  0  0  0  0  0  0  0  0  0  0
   20.6019  -19.4810  -10.0453 C   0  0  0  0  0  0  0  0  0  0  0  0
   21.2245  -20.4415  -11.0308 C   0  0  0  0  0  0  0  0  0  0  0  0
   22.3466  -19.7652  -11.7520 C   0  0  0  0  0  0  0  0  0  0  0  0
   22.9261  -20.7008  -12.7815 C   0  0  2  0  0  0  0  0  0  0  0  0
   24.3173  -20.4142  -12.9575 N   0  0  0  0  0  0  0  0  0  0  0  0
   22.1952  -20.6071  -14.0769 C   0  0  0  0  0  0  0  0  0  0  0  0
   22.2004  -19.5523  -14.7536 O   0  0  0  0  0  0  0  0  0  0  0  0
   20.7224  -20.0516   -6.3185 O   0  0  0  0  0  0  0  0  0  0  0  0
   20.0659  -23.9455  -15.2169 C   0  0  0  0  0  0  0  0  0  0  0  0
   20.5703  -23.1565  -16.2622 C   0  0  1  0  0  0  0  0  0  0  0  0
   20.7613  -21.7305  -15.7706 N   0  0  0  0  0  0  0  0  0  0  0  0
   21.4821  -21.7517  -14.5366 C   0  0  0  0  0  0  0  0  0  0  0  0
   19.4439  -21.0997  -15.5791 O   0  0  0  0  0  0  0  0  0  0  0  0
   18.8258  -20.4843  -16.6499 O   0  0  0  0  0  0  0  0  0  0  0  0
  2  1  1  0
  3  4  1  0
  3  2  1  0
  4  5  1  0
  5  6  1  1
  7  5  1  0
  7  8  2  0
 10  9  1  0
 11 10  2  0
 12 10  1  0
 13 14  1  0
 13 12  1  0
 14 15  1  0
 16 15  1  1
 16 17  1  0
 17  7  1  0
 18 16  1  0
 19 18  2  0
 21 20  1  0
 22 21  1  6
 22 24  1  0
 22 23  1  0
 23 18  1  0
 24 25  1  0
 26 24  2  0
M  END
$$$$
