MRS.pdb
     RDKit          3D

 26 25  0  0  1  0  0  0  0  0999 V2000
   16.3081  -25.6912    5.1718 C   0  0  0  0  0  0  0  0  0  0  0  0
   15.8649  -23.9873    5.5114 S   0  0  0  0  0  0  0  0  0  0  0  0
   16.3976  -22.8427    4.2233 C   0  0  0  0  0  0  0  0  0  0  0  0
   15.3233  -22.6836    3.1436 C   0  0  0  0  0  0  0  0  0  0  0  0
   15.8753  -21.6946    2.1458 C   0  0  2  0  0  0  0  0  0  0  0  0
   15.9710  -20.4191    2.7554 N   0  0  0  0  0  0  0  0  0  0  0  0
   15.0850  -21.6355    0.8966 C   0  0  0  0  0  0  0  0  0  0  0  0
   14.4740  -20.6280    0.4889 O   0  0  0  0  0  0  0  0  0  0  0  0
   16.6899  -26.2795   -6.2009 N   0  0  0  0  0  0  0  0  0  0  0  0
   17.1957  -25.1220   -5.5395 C   0  0  0  0  0  0  0  0  0  0  0  0
   18.3749  -24.6742   -5.7780 N   0  0  0  0  0  0  0  0  0  0  0  0
   16.3834  -24.4471   -4.5933 N   0  0  0  0  0  0  0  0  0  0  0  0
   15.0063  -24.8064   -4.3282 C   0  0  0  0  0  0  0  0  0  0  0  0
   14.3759  -23.7646   -3.4344 C   0  0  0  0  0  0  0  0  0  0  0  0
   15.0692  -23.7526   -2.1093 C   0  0  0  0  0  0  0  0  0  0  0  0
   14.3263  -22.8532   -1.1553 C   0  0  2  0  0  0  0  0  0  0  0  0
   15.0147  -22.8156    0.0990 N   0  0  0  0  0  0  0  0  0  0  0  0
   12.9149  -23.2961   -0.9749 C   0  0  0  0  0  0  0  0  0  0  0  0
   12.6367  -24.3556   -0.3660 O   0  0  0  0  0  0  0  0  0  0  0  0
   18.7490  -23.9166   -5.1543 O   0  0  0  0  0  0  0  0  0  0  0  0
   10.1459  -20.7621   -2.4909 C   0  0  0  0  0  0  0  0  0  0  0  0
    9.6763  -21.5180   -1.4056 C   0  0  1  0  0  0  0  0  0  0  0  0
   10.4991  -22.7908   -1.2840 N   0  0  0  0  0  0  0  0  0  0  0  0
   11.8759  -22.4836   -1.5139 C   0  0  0  0  0  0  0  0  0  0  0  0
   10.0255  -23.7743   -2.2731 O   0  0  0  0  0  0  0  0  0  0  0  0
    8.7297  -24.2455   -2.1927 O   0  0  0  0  0  0  0  0  0  0  0  0
  2  1  1  0
  3  4  1  0
  3  2  1  0
  4  5  1  0
  5  6  1  1
  7  5  1  0
  7  8  2  0
 10  9  1  0
 11 10  2  0
 12 10  1  0
 13 14  1  0
 13 12  1  0
 14 15  1  0
 16 15  1  6
 16 17  1  0
 17  7  1  0
 18 16  1  0
 19 18  2  0
 21 20  1  0
 22 21  1  1
 22 24  1  0
 22 23  1  0
 23 18  1  0
 24 25  1  0
 26 24  2  0
M  END
$$$$
