MRS.pdb
     RDKit          3D

 26 25  0  0  1  0  0  0  0  0999 V2000
   23.3541  -12.2992  -19.5132 C   0  0  0  0  0  0  0  0  0  0  0  0
   25.0695  -12.2473  -18.9942 S   0  0  0  0  0  0  0  0  0  0  0  0
   25.5129  -13.5829  -17.8661 C   0  0  0  0  0  0  0  0  0  0  0  0
   24.7486  -14.8674  -18.1996 C   0  0  0  0  0  0  0  0  0  0  0  0
   25.2069  -15.8996  -17.1981 C   0  0  2  0  0  0  0  0  0  0  0  0
   26.6053  -16.0881  -17.3273 N   0  0  0  0  0  0  0  0  0  0  0  0
   24.4782  -17.1814  -17.3185 C   0  0  0  0  0  0  0  0  0  0  0  0
   24.5878  -17.9744  -18.2745 O   0  0  0  0  0  0  0  0  0  0  0  0
   25.0720  -22.9015  -11.8995 N   0  0  0  0  0  0  0  0  0  0  0  0
   24.4596  -23.0611  -13.1772 C   0  0  0  0  0  0  0  0  0  0  0  0
   24.4563  -24.1927  -13.7833 N   0  0  0  0  0  0  0  0  0  0  0  0
   23.8405  -21.9473  -13.7992 N   0  0  0  0  0  0  0  0  0  0  0  0
   23.7219  -20.6495  -13.1691 C   0  0  0  0  0  0  0  0  0  0  0  0
   22.9243  -19.7267  -14.0602 C   0  0  0  0  0  0  0  0  0  0  0  0
   23.4547  -19.7936  -15.4569 C   0  0  0  0  0  0  0  0  0  0  0  0
   22.7969  -18.7330  -16.3016 C   0  0  2  0  0  0  0  0  0  0  0  0
   23.5844  -17.5384  -16.2662 N   0  0  0  0  0  0  0  0  0  0  0  0
   21.4018  -18.4646  -15.8516 C   0  0  0  0  0  0  0  0  0  0  0  0
   21.1540  -17.6068  -14.9722 O   0  0  0  0  0  0  0  0  0  0  0  0
   23.9657  -24.2532  -14.7098 O   0  0  0  0  0  0  0  0  0  0  0  0
   16.7330  -19.4352  -16.7123 C   0  0  0  0  0  0  0  0  0  0  0  0
   18.0683  -19.7409  -17.0174 C   0  0  2  0  0  0  0  0  0  0  0  0
   18.9857  -19.0252  -16.0386 N   0  0  0  0  0  0  0  0  0  0  0  0
   20.3430  -19.2099  -16.4463 C   0  0  0  0  0  0  0  0  0  0  0  0
   18.7814  -19.5747  -14.6872 O   0  0  0  0  0  0  0  0  0  0  0  0
   17.8562  -18.9841  -13.8488 O   0  0  0  0  0  0  0  0  0  0  0  0
  2  1  1  0
  3  4  1  0
  3  2  1  0
  4  5  1  0
  5  6  1  6
  7  5  1  0
  7  8  2  0
 10  9  1  0
 11 10  2  0
 12 10  1  0
 13 14  1  0
 13 12  1  0
 14 15  1  0
 16 15  1  1
 16 17  1  0
 17  7  1  0
 18 16  1  0
 19 18  2  0
 21 20  1  0
 22 21  1  6
 22 24  1  0
 22 23  1  0
 23 18  1  0
 24 25  1  0
 26 24  2  0
M  END
$$$$
