MRS.pdb
     RDKit          3D

 26 25  0  0  1  0  0  0  0  0999 V2000
   27.4937  -17.8489  -16.5365 C   0  0  0  0  0  0  0  0  0  0  0  0
   28.1610  -18.4334  -14.9783 S   0  0  0  0  0  0  0  0  0  0  0  0
   27.4089  -19.9725  -14.4141 C   0  0  0  0  0  0  0  0  0  0  0  0
   25.8965  -19.9716  -14.6545 C   0  0  0  0  0  0  0  0  0  0  0  0
   25.4135  -21.3544  -14.2899 C   0  0  2  0  0  0  0  0  0  0  0  0
   26.0549  -22.3077  -15.1191 N   0  0  0  0  0  0  0  0  0  0  0  0
   23.9416  -21.4864  -14.3581 C   0  0  0  0  0  0  0  0  0  0  0  0
   23.3013  -21.7837  -15.3860 O   0  0  0  0  0  0  0  0  0  0  0  0
   19.6437  -24.6203   -7.8531 N   0  0  0  0  0  0  0  0  0  0  0  0
   19.1162  -25.0502   -9.1061 C   0  0  0  0  0  0  0  0  0  0  0  0
   18.2610  -26.0046   -9.1825 N   0  0  0  0  0  0  0  0  0  0  0  0
   19.5441  -24.4147  -10.2993 N   0  0  0  0  0  0  0  0  0  0  0  0
   20.1960  -23.1224  -10.3218 C   0  0  0  0  0  0  0  0  0  0  0  0
   20.5828  -22.7767  -11.7404 C   0  0  0  0  0  0  0  0  0  0  0  0
   21.2551  -21.4411  -11.7672 C   0  0  0  0  0  0  0  0  0  0  0  0
   21.7704  -21.1593  -13.1551 C   0  0  2  0  0  0  0  0  0  0  0  0
   23.1982  -21.2571  -13.1629 N   0  0  0  0  0  0  0  0  0  0  0  0
   21.3255  -19.8227  -13.6413 C   0  0  0  0  0  0  0  0  0  0  0  0
   21.7684  -18.7647  -13.1364 O   0  0  0  0  0  0  0  0  0  0  0  0
   17.9125  -26.2779  -10.1347 O   0  0  0  0  0  0  0  0  0  0  0  0
   20.0809  -17.2537  -17.3029 C   0  0  0  0  0  0  0  0  0  0  0  0
   20.4942  -18.4596  -16.7159 C   0  0  1  0  0  0  0  0  0  0  0  0
   19.9838  -18.5248  -15.2851 N   0  0  0  0  0  0  0  0  0  0  0  0
   20.3765  -19.7695  -14.7028 C   0  0  0  0  0  0  0  0  0  0  0  0
   18.5157  -18.4039  -15.2848 O   0  0  0  0  0  0  0  0  0  0  0  0
   17.9372  -17.1767  -15.5433 O   0  0  0  0  0  0  0  0  0  0  0  0
  2  1  1  0
  3  4  1  0
  3  2  1  0
  4  5  1  0
  5  6  1  6
  7  5  1  0
  7  8  2  0
 10  9  1  0
 11 10  2  0
 12 10  1  0
 13 14  1  0
 13 12  1  0
 14 15  1  0
 16 15  1  1
 16 17  1  0
 17  7  1  0
 18 16  1  0
 19 18  2  0
 21 20  1  0
 22 21  1  1
 22 24  1  0
 22 23  1  0
 23 18  1  0
 24 25  1  0
 26 24  2  0
M  END
$$$$
