MRS.pdb
     RDKit          3D

 26 25  0  0  1  0  0  0  0  0999 V2000
   27.9201  -19.5104   -3.6270 C   0  0  0  0  0  0  0  0  0  0  0  0
   29.0819  -19.1522   -4.9449 S   0  0  0  0  0  0  0  0  0  0  0  0
   28.7943  -20.1299   -6.4330 C   0  0  0  0  0  0  0  0  0  0  0  0
   27.4349  -19.8029   -7.0576 C   0  0  0  0  0  0  0  0  0  0  0  0
   27.3216  -20.6665   -8.2903 C   0  0  2  0  0  0  0  0  0  0  0  0
   28.6066  -20.8354   -8.8630 N   0  0  0  0  0  0  0  0  0  0  0  0
   26.3581  -20.1346   -9.2790 C   0  0  0  0  0  0  0  0  0  0  0  0
   25.8929  -18.9778   -9.2671 O   0  0  0  0  0  0  0  0  0  0  0  0
   28.2620  -22.8688  -15.9730 N   0  0  0  0  0  0  0  0  0  0  0  0
   26.9070  -22.4518  -15.8210 C   0  0  0  0  0  0  0  0  0  0  0  0
   25.9509  -23.0341  -16.4493 N   0  0  0  0  0  0  0  0  0  0  0  0
   26.6022  -21.3675  -14.9595 N   0  0  0  0  0  0  0  0  0  0  0  0
   27.5941  -20.6936  -14.1485 C   0  0  0  0  0  0  0  0  0  0  0  0
   26.9891  -20.3239  -12.8148 C   0  0  0  0  0  0  0  0  0  0  0  0
   25.6215  -20.9185  -12.7007 C   0  0  0  0  0  0  0  0  0  0  0  0
   25.0321  -20.5826  -11.3550 C   0  0  2  0  0  0  0  0  0  0  0  0
   25.9280  -21.0064  -10.3224 N   0  0  0  0  0  0  0  0  0  0  0  0
   23.6870  -21.1994  -11.1791 C   0  0  0  0  0  0  0  0  0  0  0  0
   23.3819  -21.8097  -10.1279 O   0  0  0  0  0  0  0  0  0  0  0  0
   24.9665  -22.7465  -16.2233 O   0  0  0  0  0  0  0  0  0  0  0  0
   19.8139  -19.3993  -10.9167 C   0  0  0  0  0  0  0  0  0  0  0  0
   21.1624  -19.5480  -11.2758 C   0  0  2  0  0  0  0  0  0  0  0  0
   21.3528  -20.8830  -11.9781 N   0  0  0  0  0  0  0  0  0  0  0  0
   22.7437  -21.0814  -12.2404 C   0  0  0  0  0  0  0  0  0  0  0  0
   20.5923  -20.8837  -13.2397 O   0  0  0  0  0  0  0  0  0  0  0  0
   19.3067  -21.3884  -13.2552 O   0  0  0  0  0  0  0  0  0  0  0  0
  2  1  1  0
  3  4  1  0
  3  2  1  0
  4  5  1  0
  5  6  1  6
  7  5  1  0
  7  8  2  0
 10  9  1  0
 11 10  2  0
 12 10  1  0
 13 14  1  0
 13 12  1  0
 14 15  1  0
 16 15  1  6
 16 17  1  0
 17  7  1  0
 18 16  1  0
 19 18  2  0
 21 20  1  0
 22 21  1  1
 22 24  1  0
 22 23  1  0
 23 18  1  0
 24 25  1  0
 26 24  2  0
M  END
$$$$
