MRS.pdb
     RDKit          3D

 26 25  0  0  1  0  0  0  0  0999 V2000
   26.8190  -18.7113   -5.9865 C   0  0  0  0  0  0  0  0  0  0  0  0
   28.4259  -19.4149   -6.3578 S   0  0  0  0  0  0  0  0  0  0  0  0
   28.3995  -20.5506   -7.7587 C   0  0  0  0  0  0  0  0  0  0  0  0
   27.4938  -20.0295   -8.8782 C   0  0  0  0  0  0  0  0  0  0  0  0
   27.5171  -21.0819   -9.9600 C   0  0  2  0  0  0  0  0  0  0  0  0
   28.8583  -21.3260  -10.3464 N   0  0  0  0  0  0  0  0  0  0  0  0
   26.6778  -20.7278  -11.1256 C   0  0  0  0  0  0  0  0  0  0  0  0
   27.0199  -19.9495  -12.0378 O   0  0  0  0  0  0  0  0  0  0  0  0
   24.2065  -25.8058  -15.0234 N   0  0  0  0  0  0  0  0  0  0  0  0
   23.9846  -24.6611  -15.8441 C   0  0  0  0  0  0  0  0  0  0  0  0
   22.9760  -24.5875  -16.6348 N   0  0  0  0  0  0  0  0  0  0  0  0
   24.8969  -23.5768  -15.7922 N   0  0  0  0  0  0  0  0  0  0  0  0
   26.0388  -23.5407  -14.9032 C   0  0  0  0  0  0  0  0  0  0  0  0
   25.9404  -22.3310  -14.0040 C   0  0  0  0  0  0  0  0  0  0  0  0
   24.6540  -22.3737  -13.2424 C   0  0  0  0  0  0  0  0  0  0  0  0
   24.5435  -21.1549  -12.3629 C   0  0  2  0  0  0  0  0  0  0  0  0
   25.3824  -21.3175  -11.2147 N   0  0  0  0  0  0  0  0  0  0  0  0
   23.1319  -20.8996  -11.9591 C   0  0  0  0  0  0  0  0  0  0  0  0
   22.6826  -21.3105  -10.8637 O   0  0  0  0  0  0  0  0  0  0  0  0
   22.8957  -23.7420  -17.2525 O   0  0  0  0  0  0  0  0  0  0  0  0
   20.8405  -17.7234  -13.4316 C   0  0  0  0  0  0  0  0  0  0  0  0
   20.3231  -19.0165  -13.6046 C   0  0  2  0  0  0  0  0  0  0  0  0
   20.9147  -19.9412  -12.5526 N   0  0  0  0  0  0  0  0  0  0  0  0
   22.2931  -20.1717  -12.8517 C   0  0  0  0  0  0  0  0  0  0  0  0
   20.1748  -21.2150  -12.5510 O   0  0  0  0  0  0  0  0  0  0  0  0
   19.0688  -21.3547  -11.7356 O   0  0  0  0  0  0  0  0  0  0  0  0
  2  1  1  0
  3  4  1  0
  3  2  1  0
  4  5  1  0
  5  6  1  6
  7  5  1  0
  7  8  2  0
 10  9  1  0
 11 10  2  0
 12 10  1  0
 13 14  1  0
 13 12  1  0
 14 15  1  0
 16 15  1  6
 16 17  1  0
 17  7  1  0
 18 16  1  0
 19 18  2  0
 21 20  1  0
 22 21  1  1
 22 24  1  0
 22 23  1  0
 23 18  1  0
 24 25  1  0
 26 24  2  0
M  END
$$$$
