CLH.pdb
     RDKit          3D

 25 25  0  0  1  0  0  0  0  0999 V2000
   28.3350  -19.3480  -15.5268 N   0  0  0  0  0  0  0  0  0  0  0  0
   27.3122  -18.7720  -14.7165 C   0  0  1  0  0  0  0  0  0  0  0  0
   26.5263  -17.7738  -15.5306 C   0  0  0  0  0  0  0  0  0  0  0  0
   27.4714  -16.2323  -15.6014 S   0  0  0  0  0  0  0  0  0  0  0  0
   26.3728  -19.7608  -14.1506 C   0  0  0  0  0  0  0  0  0  0  0  0
   26.1759  -20.8142  -14.8144 O   0  0  0  0  0  0  0  0  0  0  0  0
   25.9982  -20.4059   -8.7642 C   0  0  0  0  0  0  0  0  0  0  0  0
   26.1277  -20.5786  -10.2756 C   0  0  1  0  0  0  0  0  0  0  0  0
   26.7616  -21.9378  -10.4925 C   0  0  0  0  0  0  0  0  0  0  0  0
   24.7892  -20.5203  -10.9338 C   0  0  0  0  0  0  0  0  0  0  0  0
   24.7754  -20.6314  -12.4013 C   0  0  2  0  0  0  0  0  0  0  0  0
   25.6862  -19.6157  -12.9344 N   0  0  0  0  0  0  0  0  0  0  0  0
   23.4749  -20.5585  -13.0541 C   0  0  0  0  0  0  0  0  0  0  0  0
   22.8737  -19.4712  -13.1525 O   0  0  0  0  0  0  0  0  0  0  0  0
   22.8692  -21.7085  -13.5865 N   0  0  0  0  0  0  0  0  0  0  0  0
   21.6075  -21.7326  -14.3370 C   0  0  1  0  0  0  0  0  0  0  0  0
   21.3858  -23.0547  -14.9915 C   0  0  0  0  0  0  0  0  0  0  0  0
   20.1372  -23.0394  -15.7744 C   0  0  0  0  0  0  0  0  0  0  0  0
   19.2810  -22.0415  -16.1416 C   0  0  0  0  0  0  0  0  0  0  0  0
   18.3034  -22.5480  -16.9222 N   0  0  0  0  0  0  0  0  0  0  0  0
   18.5240  -23.8592  -17.0607 C   0  0  0  0  0  0  0  0  0  0  0  0
   19.6183  -24.1580  -16.3774 N   0  0  0  0  0  0  0  0  0  0  0  0
   20.5624  -21.6250  -13.2457 C   0  0  0  0  0  0  0  0  0  0  0  0
   19.3950  -20.9283  -13.3405 O   0  0  0  0  0  0  0  0  0  0  0  0
   20.8190  -22.2480  -12.1613 O   0  0  0  0  0  0  0  0  0  0  0  0
  2  1  1  6
  3  2  1  0
  3  4  1  0
  5  6  2  0
  5  2  1  0
  8  7  1  1
  8 10  1  0
  9  8  1  0
 11 10  1  1
 11 13  1  0
 11 12  1  0
 12  5  1  0
 13 14  2  0
 15 13  1  0
 15 16  1  0
 16 17  1  1
 17 18  1  0
 18 22  1  0
 19 18  2  0
 19 20  1  0
 20 21  1  0
 22 21  2  0
 23 16  1  0
 24 23  1  0
 25 23  2  0
M  END
$$$$
