CLH.pdb
     RDKit          3D

 25 25  0  0  1  0  0  0  0  0999 V2000
   29.1824  -21.6999  -14.5216 N   0  0  0  0  0  0  0  0  0  0  0  0
   28.5231  -20.5328  -14.0340 C   0  0  1  0  0  0  0  0  0  0  0  0
   28.1403  -19.6480  -15.1947 C   0  0  0  0  0  0  0  0  0  0  0  0
   27.4010  -18.1348  -14.5327 S   0  0  0  0  0  0  0  0  0  0  0  0
   27.3106  -20.8205  -13.2420 C   0  0  0  0  0  0  0  0  0  0  0  0
   26.5404  -21.7204  -13.6735 O   0  0  0  0  0  0  0  0  0  0  0  0
   26.8037  -19.6373   -7.7395 C   0  0  0  0  0  0  0  0  0  0  0  0
   26.7034  -20.4629   -9.0198 C   0  0  1  0  0  0  0  0  0  0  0  0
   26.1385  -21.8085   -8.6114 C   0  0  0  0  0  0  0  0  0  0  0  0
   25.8023  -19.8017  -10.0094 C   0  0  0  0  0  0  0  0  0  0  0  0
   25.7045  -20.4372  -11.3333 C   0  0  2  0  0  0  0  0  0  0  0  0
   26.9534  -20.1696  -12.0502 N   0  0  0  0  0  0  0  0  0  0  0  0
   24.5500  -20.0837  -12.1487 C   0  0  0  0  0  0  0  0  0  0  0  0
   24.4409  -18.9407  -12.6336 O   0  0  0  0  0  0  0  0  0  0  0  0
   23.5352  -21.0198  -12.4071 N   0  0  0  0  0  0  0  0  0  0  0  0
   22.4564  -20.8519  -13.3887 C   0  0  1  0  0  0  0  0  0  0  0  0
   22.2655  -22.0843  -14.2075 C   0  0  0  0  0  0  0  0  0  0  0  0
   21.1868  -21.8870  -15.1922 C   0  0  0  0  0  0  0  0  0  0  0  0
   20.3853  -20.8240  -15.4943 C   0  0  0  0  0  0  0  0  0  0  0  0
   19.5879  -21.1398  -16.5364 N   0  0  0  0  0  0  0  0  0  0  0  0
   19.8701  -22.3929  -16.9068 C   0  0  0  0  0  0  0  0  0  0  0  0
   20.8248  -22.8439  -16.1073 N   0  0  0  0  0  0  0  0  0  0  0  0
   21.2223  -20.7322  -12.5183 C   0  0  0  0  0  0  0  0  0  0  0  0
   20.1109  -20.0057  -12.8250 O   0  0  0  0  0  0  0  0  0  0  0  0
   21.2504  -21.3748  -11.4156 O   0  0  0  0  0  0  0  0  0  0  0  0
  2  1  1  6
  3  2  1  0
  3  4  1  0
  5  6  2  0
  5  2  1  0
  8  7  1  1
  8 10  1  0
  9  8  1  0
 11 10  1  1
 11 13  1  0
 11 12  1  0
 12  5  1  0
 13 14  2  0
 15 13  1  0
 15 16  1  0
 16 17  1  6
 17 18  1  0
 18 22  1  0
 19 18  2  0
 19 20  1  0
 20 21  1  0
 22 21  2  0
 23 16  1  0
 24 23  1  0
 25 23  2  0
M  END
$$$$
