CLH.pdb
     RDKit          3D

 25 25  0  0  1  0  0  0  0  0999 V2000
   21.1949  -33.1704  -15.4013 N   0  0  0  0  0  0  0  0  0  0  0  0
   22.1616  -32.2294  -14.9380 C   0  0  1  0  0  0  0  0  0  0  0  0
   21.5186  -31.2944  -13.9435 C   0  0  0  0  0  0  0  0  0  0  0  0
   20.8532  -29.8760  -14.8489 S   0  0  0  0  0  0  0  0  0  0  0  0
   23.3417  -32.8506  -14.3043 C   0  0  0  0  0  0  0  0  0  0  0  0
   23.1393  -33.8521  -13.5660 O   0  0  0  0  0  0  0  0  0  0  0  0
   28.3767  -32.7500  -16.6211 C   0  0  0  0  0  0  0  0  0  0  0  0
   27.1227  -33.2608  -15.9159 C   0  0  1  0  0  0  0  0  0  0  0  0
   27.2568  -34.7690  -15.8555 C   0  0  0  0  0  0  0  0  0  0  0  0
   27.0195  -32.6945  -14.5386 C   0  0  0  0  0  0  0  0  0  0  0  0
   25.8040  -33.0322  -13.7806 C   0  0  2  0  0  0  0  0  0  0  0  0
   24.6660  -32.4110  -14.4621 N   0  0  0  0  0  0  0  0  0  0  0  0
   25.8023  -32.7053  -12.3609 C   0  0  0  0  0  0  0  0  0  0  0  0
   25.5776  -31.5408  -11.9775 O   0  0  0  0  0  0  0  0  0  0  0  0
   26.0530  -33.6917  -11.3929 N   0  0  0  0  0  0  0  0  0  0  0  0
   26.1597  -33.4544   -9.9479 C   0  0  1  0  0  0  0  0  0  0  0  0
   24.8335  -33.1271   -9.3482 C   0  0  0  0  0  0  0  0  0  0  0  0
   24.9388  -33.0393   -7.8808 C   0  0  0  0  0  0  0  0  0  0  0  0
   25.3517  -32.0506   -7.0348 C   0  0  0  0  0  0  0  0  0  0  0  0
   25.1935  -32.4532   -5.7563 N   0  0  0  0  0  0  0  0  0  0  0  0
   24.6824  -33.6883   -5.7731 C   0  0  0  0  0  0  0  0  0  0  0  0
   24.5280  -34.0432   -7.0397 N   0  0  0  0  0  0  0  0  0  0  0  0
   26.5383  -34.8182   -9.4079 C   0  0  0  0  0  0  0  0  0  0  0  0
   27.1437  -35.0491   -8.2091 O   0  0  0  0  0  0  0  0  0  0  0  0
   26.2545  -35.8144  -10.1541 O   0  0  0  0  0  0  0  0  0  0  0  0
  2  1  1  1
  3  2  1  0
  3  4  1  0
  5  6  2  0
  5  2  1  0
  8  7  1  1
  8 10  1  0
  9  8  1  0
 11 10  1  6
 11 13  1  0
 11 12  1  0
 12  5  1  0
 13 14  2  0
 15 13  1  0
 15 16  1  0
 16 17  1  1
 17 18  1  0
 18 22  1  0
 19 18  2  0
 19 20  1  0
 20 21  1  0
 22 21  2  0
 23 16  1  0
 24 23  1  0
 25 23  2  0
M  END
$$$$
