CLH.pdb
     RDKit          3D

 25 25  0  0  1  0  0  0  0  0999 V2000
   27.5749  -18.3112  -16.1809 N   0  0  0  0  0  0  0  0  0  0  0  0
   26.7993  -17.9215  -15.0492 C   0  0  1  0  0  0  0  0  0  0  0  0
   26.1207  -16.6039  -15.3326 C   0  0  0  0  0  0  0  0  0  0  0  0
   27.3613  -15.2918  -15.2150 S   0  0  0  0  0  0  0  0  0  0  0  0
   25.7697  -18.9075  -14.6643 C   0  0  0  0  0  0  0  0  0  0  0  0
   25.3152  -19.6513  -15.5749 O   0  0  0  0  0  0  0  0  0  0  0  0
   26.0612  -20.9383   -9.6269 C   0  0  0  0  0  0  0  0  0  0  0  0
   25.9724  -20.7750  -11.1422 C   0  0  1  0  0  0  0  0  0  0  0  0
   26.4089  -22.0992  -11.7359 C   0  0  0  0  0  0  0  0  0  0  0  0
   24.5760  -20.4547  -11.5614 C   0  0  0  0  0  0  0  0  0  0  0  0
   24.3688  -20.1761  -12.9916 C   0  0  2  0  0  0  0  0  0  0  0  0
   25.2619  -19.0772  -13.3662 N   0  0  0  0  0  0  0  0  0  0  0  0
   23.0022  -19.9044  -13.4174 C   0  0  0  0  0  0  0  0  0  0  0  0
   22.3494  -18.9757  -12.9030 O   0  0  0  0  0  0  0  0  0  0  0  0
   22.3895  -20.6805  -14.4150 N   0  0  0  0  0  0  0  0  0  0  0  0
   21.0059  -20.5246  -14.8807 C   0  0  1  0  0  0  0  0  0  0  0  0
   20.7613  -21.2937  -16.1354 C   0  0  0  0  0  0  0  0  0  0  0  0
   21.0148  -20.4485  -17.3159 C   0  0  0  0  0  0  0  0  0  0  0  0
   21.3254  -19.1276  -17.4654 C   0  0  0  0  0  0  0  0  0  0  0  0
   21.5216  -18.8536  -18.7724 N   0  0  0  0  0  0  0  0  0  0  0  0
   21.3415  -19.9844  -19.4623 C   0  0  0  0  0  0  0  0  0  0  0  0
   21.0389  -20.9403  -18.5971 N   0  0  0  0  0  0  0  0  0  0  0  0
   20.2043  -21.2205  -13.8000 C   0  0  0  0  0  0  0  0  0  0  0  0
   20.6541  -22.2473  -13.0251 O   0  0  0  0  0  0  0  0  0  0  0  0
   19.0161  -20.7900  -13.6192 O   0  0  0  0  0  0  0  0  0  0  0  0
  2  1  1  6
  3  2  1  0
  3  4  1  0
  5  6  2  0
  5  2  1  0
  8  7  1  1
  8 10  1  0
  9  8  1  0
 11 10  1  1
 11 13  1  0
 11 12  1  0
 12  5  1  0
 13 14  2  0
 15 13  1  0
 15 16  1  0
 16 17  1  6
 17 18  1  0
 18 22  1  0
 19 18  2  0
 19 20  1  0
 20 21  1  0
 22 21  2  0
 23 16  1  0
 24 23  1  0
 25 23  2  0
M  END
$$$$
