CLH.pdb
     RDKit          3D

 25 25  0  0  1  0  0  0  0  0999 V2000
   21.4835  -15.0061  -19.1362 N   0  0  0  0  0  0  0  0  0  0  0  0
   22.3238  -13.9386  -19.5708 C   0  0  1  0  0  0  0  0  0  0  0  0
   21.6879  -13.2444  -20.7500 C   0  0  0  0  0  0  0  0  0  0  0  0
   21.8245  -14.3334  -22.1887 S   0  0  0  0  0  0  0  0  0  0  0  0
   22.5983  -12.9329  -18.5251 C   0  0  0  0  0  0  0  0  0  0  0  0
   21.6914  -12.7231  -17.6750 O   0  0  0  0  0  0  0  0  0  0  0  0
   25.3754  -10.4758  -14.6798 C   0  0  0  0  0  0  0  0  0  0  0  0
   25.9444  -10.1973  -16.0688 C   0  0  1  0  0  0  0  0  0  0  0  0
   27.4518  -10.2663  -15.9292 C   0  0  0  0  0  0  0  0  0  0  0  0
   25.4683  -11.2145  -17.0520 C   0  0  0  0  0  0  0  0  0  0  0  0
   24.0254  -11.2199  -17.3424 C   0  0  2  0  0  0  0  0  0  0  0  0
   23.7882  -12.1967  -18.4078 N   0  0  0  0  0  0  0  0  0  0  0  0
   23.4151   -9.9374  -17.6666 C   0  0  0  0  0  0  0  0  0  0  0  0
   23.7527   -9.3143  -18.6919 O   0  0  0  0  0  0  0  0  0  0  0  0
   22.4344   -9.3738  -16.8338 N   0  0  0  0  0  0  0  0  0  0  0  0
   21.7347   -8.1076  -17.0840 C   0  0  1  0  0  0  0  0  0  0  0  0
   20.2546   -8.2747  -16.9991 C   0  0  0  0  0  0  0  0  0  0  0  0
   19.5774   -6.9816  -17.2025 C   0  0  0  0  0  0  0  0  0  0  0  0
   20.0324   -5.7290  -17.4987 C   0  0  0  0  0  0  0  0  0  0  0  0
   18.9856   -4.8895  -17.6437 N   0  0  0  0  0  0  0  0  0  0  0  0
   17.8645   -5.5900  -17.4452 C   0  0  0  0  0  0  0  0  0  0  0  0
   18.2122   -6.8404  -17.1815 N   0  0  0  0  0  0  0  0  0  0  0  0
   22.1296   -7.2611  -15.8914 C   0  0  0  0  0  0  0  0  0  0  0  0
   22.2588   -5.9045  -15.8980 O   0  0  0  0  0  0  0  0  0  0  0  0
   22.3513   -7.8935  -14.8048 O   0  0  0  0  0  0  0  0  0  0  0  0
  2  1  1  1
  3  2  1  0
  3  4  1  0
  5  6  2  0
  5  2  1  0
  8  7  1  1
  8 10  1  0
  9  8  1  0
 11 10  1  6
 11 13  1  0
 11 12  1  0
 12  5  1  0
 13 14  2  0
 15 13  1  0
 15 16  1  0
 16 17  1  1
 17 18  1  0
 18 22  1  0
 19 18  2  0
 19 20  1  0
 20 21  1  0
 22 21  2  0
 23 16  1  0
 24 23  1  0
 25 23  2  0
M  END
$$$$
