CLH.pdb
     RDKit          3D

 25 25  0  0  1  0  0  0  0  0999 V2000
   28.6878  -32.4915  -15.4207 N   0  0  0  0  0  0  0  0  0  0  0  0
   28.3391  -31.8824  -16.6624 C   0  0  1  0  0  0  0  0  0  0  0  0
   27.4809  -32.8291  -17.4649 C   0  0  0  0  0  0  0  0  0  0  0  0
   27.2093  -32.0996  -19.0985 S   0  0  0  0  0  0  0  0  0  0  0  0
   27.6174  -30.6025  -16.5164 C   0  0  0  0  0  0  0  0  0  0  0  0
   26.7347  -30.5378  -15.6187 O   0  0  0  0  0  0  0  0  0  0  0  0
   26.9531  -25.3319  -16.0108 C   0  0  0  0  0  0  0  0  0  0  0  0
   27.4006  -25.7283  -17.4156 C   0  0  1  0  0  0  0  0  0  0  0  0
   28.4316  -24.7003  -17.8361 C   0  0  0  0  0  0  0  0  0  0  0  0
   28.0017  -27.0947  -17.4161 C   0  0  0  0  0  0  0  0  0  0  0  0
   27.0878  -28.2126  -17.1309 C   0  0  2  0  0  0  0  0  0  0  0  0
   27.8401  -29.4581  -17.2989 N   0  0  0  0  0  0  0  0  0  0  0  0
   25.8413  -28.2515  -17.8841 C   0  0  0  0  0  0  0  0  0  0  0  0
   25.8472  -28.4714  -19.1109 O   0  0  0  0  0  0  0  0  0  0  0  0
   24.6067  -28.0429  -17.2477 N   0  0  0  0  0  0  0  0  0  0  0  0
   23.2988  -28.0376  -17.9147 C   0  0  1  0  0  0  0  0  0  0  0  0
   22.1829  -28.1487  -16.9308 C   0  0  0  0  0  0  0  0  0  0  0  0
   20.8837  -28.1791  -17.6261 C   0  0  0  0  0  0  0  0  0  0  0  0
   20.3627  -28.9934  -18.5899 C   0  0  0  0  0  0  0  0  0  0  0  0
   19.0876  -28.6332  -18.8465 N   0  0  0  0  0  0  0  0  0  0  0  0
   18.7847  -27.5977  -18.0570 C   0  0  0  0  0  0  0  0  0  0  0  0
   19.8540  -27.3225  -17.3257 N   0  0  0  0  0  0  0  0  0  0  0  0
   23.2156  -26.6371  -18.4859 C   0  0  0  0  0  0  0  0  0  0  0  0
   22.6051  -26.3002  -19.6567 O   0  0  0  0  0  0  0  0  0  0  0  0
   23.7676  -25.7167  -17.7945 O   0  0  0  0  0  0  0  0  0  0  0  0
  2  1  1  1
  3  2  1  0
  3  4  1  0
  5  6  2  0
  5  2  1  0
  8  7  1  1
  8 10  1  0
  9  8  1  0
 11 10  1  6
 11 13  1  0
 11 12  1  0
 12  5  1  0
 13 14  2  0
 15 13  1  0
 15 16  1  0
 16 17  1  1
 17 18  1  0
 18 22  1  0
 19 18  2  0
 19 20  1  0
 20 21  1  0
 22 21  2  0
 23 16  1  0
 24 23  1  0
 25 23  2  0
M  END
$$$$
