CLH.pdb
     RDKit          3D

 25 25  0  0  1  0  0  0  0  0999 V2000
   26.3969  -34.2808  -14.4180 N   0  0  0  0  0  0  0  0  0  0  0  0
   26.0875  -35.0118  -13.2330 C   0  0  1  0  0  0  0  0  0  0  0  0
   26.8461  -36.3161  -13.2328 C   0  0  0  0  0  0  0  0  0  0  0  0
   25.9632  -37.4843  -14.2960 S   0  0  0  0  0  0  0  0  0  0  0  0
   26.4005  -34.2855  -11.9861 C   0  0  0  0  0  0  0  0  0  0  0  0
   27.4475  -33.5836  -11.9753 O   0  0  0  0  0  0  0  0  0  0  0  0
   24.7376  -32.6429   -6.7263 C   0  0  0  0  0  0  0  0  0  0  0  0
   24.7238  -31.9180   -8.0699 C   0  0  1  0  0  0  0  0  0  0  0  0
   26.0221  -31.1400   -8.1434 C   0  0  0  0  0  0  0  0  0  0  0  0
   24.6389  -32.8917   -9.1982 C   0  0  0  0  0  0  0  0  0  0  0  0
   25.9070  -33.4934   -9.6412 C   0  0  2  0  0  0  0  0  0  0  0  0
   25.6226  -34.3184  -10.8175 N   0  0  0  0  0  0  0  0  0  0  0  0
   26.6602  -34.2463   -8.6470 C   0  0  0  0  0  0  0  0  0  0  0  0
   26.2285  -35.3310   -8.2105 O   0  0  0  0  0  0  0  0  0  0  0  0
   27.8875  -33.7692   -8.1580 N   0  0  0  0  0  0  0  0  0  0  0  0
   28.8112  -34.5248   -7.3028 C   0  0  1  0  0  0  0  0  0  0  0  0
   30.0877  -33.7832   -7.0877 C   0  0  0  0  0  0  0  0  0  0  0  0
   31.0540  -34.6217   -6.3560 C   0  0  0  0  0  0  0  0  0  0  0  0
   31.0335  -35.9237   -5.9461 C   0  0  0  0  0  0  0  0  0  0  0  0
   32.2096  -36.2328   -5.3607 N   0  0  0  0  0  0  0  0  0  0  0  0
   32.9846  -35.1439   -5.3919 C   0  0  0  0  0  0  0  0  0  0  0  0
   32.2993  -34.1786   -5.9856 N   0  0  0  0  0  0  0  0  0  0  0  0
   28.1020  -34.5348   -5.9642 C   0  0  0  0  0  0  0  0  0  0  0  0
   27.9379  -35.6293   -5.1691 O   0  0  0  0  0  0  0  0  0  0  0  0
   27.6316  -33.4148   -5.5715 O   0  0  0  0  0  0  0  0  0  0  0  0
  2  1  1  6
  3  2  1  0
  3  4  1  0
  5  6  2  0
  5  2  1  0
  8  7  1  1
  8 10  1  0
  9  8  1  0
 11 10  1  1
 11 13  1  0
 11 12  1  0
 12  5  1  0
 13 14  2  0
 15 13  1  0
 15 16  1  0
 16 17  1  1
 17 18  1  0
 18 22  1  0
 19 18  2  0
 19 20  1  0
 20 21  1  0
 22 21  2  0
 23 16  1  0
 24 23  1  0
 25 23  2  0
M  END
$$$$
