QVF.pdb
     RDKit          3D

 28 28  0  0  1  0  0  0  0  0999 V2000
   18.9914  -13.7342  -15.6673 N   0  0  0  0  0  0  0  0  0  0  0  0
   17.6918  -13.2712  -15.3402 C   0  0  0  0  0  0  0  0  0  0  0  0
   16.9690  -14.0028  -14.6283 O   0  0  0  0  0  0  0  0  0  0  0  0
   17.2349  -11.9738  -15.8317 C   0  0  0  0  0  0  0  0  0  0  0  0
   18.2806  -11.2403  -16.6154 C   0  0  0  0  0  0  0  0  0  0  0  0
   17.7847  -10.6479  -17.9040 C   0  0  2  0  0  0  0  0  0  0  0  0
   17.9222  -11.6072  -18.9815 N   0  0  0  0  0  0  0  0  0  0  0  0
   18.5999   -9.4267  -18.1556 C   0  0  0  0  0  0  0  0  0  0  0  0
   19.6583   -9.5130  -18.8274 O   0  0  0  0  0  0  0  0  0  0  0  0
   18.7561   -4.6374  -18.7934 C   0  0  0  0  0  0  0  0  0  0  0  0
   18.0667   -5.9954  -18.8012 C   0  0  1  0  0  0  0  0  0  0  0  0
   17.9237   -6.4318  -20.2230 C   0  0  0  0  0  0  0  0  0  0  0  0
   18.9581   -6.9295  -18.0004 C   0  0  2  0  0  0  0  0  0  0  0  0
   18.2268   -8.1560  -17.6627 N   0  0  0  0  0  0  0  0  0  0  0  0
   19.3647   -6.2727  -16.7300 C   0  0  0  0  0  0  0  0  0  0  0  0
   18.5313   -6.0573  -15.8172 O   0  0  0  0  0  0  0  0  0  0  0  0
   20.6844   -5.8697  -16.4996 N   0  0  0  0  0  0  0  0  0  0  0  0
   21.1806   -5.2666  -15.2868 C   0  0  1  0  0  0  0  0  0  0  0  0
   22.1566   -6.0728  -14.5468 C   0  0  0  0  0  0  0  0  0  0  0  0
   21.5264   -7.3136  -14.0622 C   0  0  0  0  0  0  0  0  0  0  0  0
   20.7757   -7.2459  -12.9091 C   0  0  0  0  0  0  0  0  0  0  0  0
   20.1242   -8.3334  -12.3887 C   0  0  0  0  0  0  0  0  0  0  0  0
   20.2405   -9.5340  -13.0661 C   0  0  0  0  0  0  0  0  0  0  0  0
   20.9769   -9.6480  -14.2172 C   0  0  0  0  0  0  0  0  0  0  0  0
   21.6210   -8.5266  -14.7125 C   0  0  0  0  0  0  0  0  0  0  0  0
   21.7020   -3.9356  -15.6175 C   0  0  0  0  0  0  0  0  0  0  0  0
   22.1096   -2.9621  -14.7229 O   0  0  0  0  0  0  0  0  0  0  0  0
   21.8081   -3.5888  -16.8470 O   0  0  0  0  0  0  0  0  0  0  0  0
  2  1  1  0
  2  3  2  0
  4  2  1  0
  5  4  1  0
  5  6  1  0
  6  8  1  0
  6  7  1  6
  8  9  2  0
 11 13  1  0
 11 10  1  6
 12 11  1  0
 13 14  1  1
 14  8  1  0
 15 17  1  0
 15 13  1  0
 16 15  2  0
 18 26  1  0
 18 17  1  0
 18 19  1  6
 20 19  1  0
 21 20  2  0
 22 21  1  0
 23 24  1  0
 23 22  2  0
 24 25  2  0
 25 20  1  0
 26 27  1  0
 28 26  2  0
M  END
$$$$
