QVF.pdb
     RDKit          3D

 28 28  0  0  1  0  0  0  0  0999 V2000
   28.7382  -25.9704  -18.2299 N   0  0  0  0  0  0  0  0  0  0  0  0
   27.3899  -25.8217  -18.6425 C   0  0  0  0  0  0  0  0  0  0  0  0
   26.9943  -26.5018  -19.6149 O   0  0  0  0  0  0  0  0  0  0  0  0
   26.5089  -24.8958  -17.9354 C   0  0  0  0  0  0  0  0  0  0  0  0
   27.1540  -24.2702  -16.7362 C   0  0  0  0  0  0  0  0  0  0  0  0
   27.8450  -22.9657  -17.0164 C   0  0  2  0  0  0  0  0  0  0  0  0
   29.1968  -23.2051  -17.4807 N   0  0  0  0  0  0  0  0  0  0  0  0
   27.8362  -22.1941  -15.7422 C   0  0  0  0  0  0  0  0  0  0  0  0
   28.7000  -22.4364  -14.8623 O   0  0  0  0  0  0  0  0  0  0  0  0
   26.6826  -18.0390  -13.4577 C   0  0  0  0  0  0  0  0  0  0  0  0
   26.7926  -18.8538  -14.7398 C   0  0  1  0  0  0  0  0  0  0  0  0
   27.9684  -18.3461  -15.5093 C   0  0  0  0  0  0  0  0  0  0  0  0
   26.9682  -20.3006  -14.3104 C   0  0  2  0  0  0  0  0  0  0  0  0
   26.8824  -21.1856  -15.4777 N   0  0  0  0  0  0  0  0  0  0  0  0
   25.8857  -20.6811  -13.3649 C   0  0  0  0  0  0  0  0  0  0  0  0
   24.7039  -20.8286  -13.7597 O   0  0  0  0  0  0  0  0  0  0  0  0
   26.1366  -20.8895  -12.0045 N   0  0  0  0  0  0  0  0  0  0  0  0
   25.1612  -21.2919  -11.0209 C   0  0  1  0  0  0  0  0  0  0  0  0
   25.7063  -22.0071   -9.8626 C   0  0  0  0  0  0  0  0  0  0  0  0
   26.6124  -21.1272   -9.1034 C   0  0  0  0  0  0  0  0  0  0  0  0
   26.0480  -20.1414   -8.3239 C   0  0  0  0  0  0  0  0  0  0  0  0
   26.7978  -19.2887   -7.5567 C   0  0  0  0  0  0  0  0  0  0  0  0
   28.1721  -19.4444   -7.5832 C   0  0  0  0  0  0  0  0  0  0  0  0
   28.7772  -20.4116   -8.3440 C   0  0  0  0  0  0  0  0  0  0  0  0
   27.9860  -21.2547   -9.1062 C   0  0  0  0  0  0  0  0  0  0  0  0
   24.3934  -20.1058  -10.6256 C   0  0  0  0  0  0  0  0  0  0  0  0
   23.1153  -20.0874  -10.0960 O   0  0  0  0  0  0  0  0  0  0  0  0
   24.9138  -18.9430  -10.7677 O   0  0  0  0  0  0  0  0  0  0  0  0
  2  1  1  0
  2  3  2  0
  4  2  1  0
  5  4  1  0
  5  6  1  0
  6  8  1  0
  6  7  1  1
  8  9  2  0
 11 13  1  0
 11 10  1  1
 12 11  1  0
 13 14  1  6
 14  8  1  0
 15 17  1  0
 15 13  1  0
 16 15  2  0
 18 26  1  0
 18 17  1  0
 18 19  1  1
 20 19  1  0
 21 20  2  0
 22 21  1  0
 23 24  1  0
 23 22  2  0
 24 25  2  0
 25 20  1  0
 26 27  1  0
 28 26  2  0
M  END
$$$$
