QVF.pdb
     RDKit          3D

 28 28  0  0  1  0  0  0  0  0999 V2000
   24.9335  -16.8793  -16.7022 N   0  0  0  0  0  0  0  0  0  0  0  0
   24.0678  -17.3736  -17.7104 C   0  0  0  0  0  0  0  0  0  0  0  0
   23.6877  -16.5802  -18.5996 O   0  0  0  0  0  0  0  0  0  0  0  0
   23.6479  -18.7724  -17.6894 C   0  0  0  0  0  0  0  0  0  0  0  0
   24.2621  -19.5540  -16.5681 C   0  0  0  0  0  0  0  0  0  0  0  0
   25.6625  -20.0265  -16.8389 C   0  0  2  0  0  0  0  0  0  0  0  0
   25.6611  -21.0144  -17.8993 N   0  0  0  0  0  0  0  0  0  0  0  0
   26.1756  -20.5990  -15.5629 C   0  0  0  0  0  0  0  0  0  0  0  0
   25.8638  -21.7720  -15.2376 O   0  0  0  0  0  0  0  0  0  0  0  0
   29.3687  -20.5443  -11.8531 C   0  0  0  0  0  0  0  0  0  0  0  0
   28.9342  -19.9302  -13.1773 C   0  0  1  0  0  0  0  0  0  0  0  0
   29.8866  -20.3893  -14.2331 C   0  0  0  0  0  0  0  0  0  0  0  0
   27.5181  -20.4199  -13.4288 C   0  0  2  0  0  0  0  0  0  0  0  0
   27.0110  -19.8665  -14.6898 N   0  0  0  0  0  0  0  0  0  0  0  0
   26.6237  -19.9610  -12.3333 C   0  0  0  0  0  0  0  0  0  0  0  0
   26.2992  -18.7538  -12.2255 O   0  0  0  0  0  0  0  0  0  0  0  0
   26.1094  -20.8491  -11.3826 N   0  0  0  0  0  0  0  0  0  0  0  0
   25.2382  -20.4982  -10.2877 C   0  0  1  0  0  0  0  0  0  0  0  0
   23.9228  -21.1457  -10.3089 C   0  0  0  0  0  0  0  0  0  0  0  0
   23.1512  -20.6887  -11.4783 C   0  0  0  0  0  0  0  0  0  0  0  0
   22.9912  -21.5678  -12.5268 C   0  0  0  0  0  0  0  0  0  0  0  0
   22.2684  -21.2542  -13.6480 C   0  0  0  0  0  0  0  0  0  0  0  0
   21.6868  -20.0002  -13.7048 C   0  0  0  0  0  0  0  0  0  0  0  0
   21.8195  -19.0932  -12.6850 C   0  0  0  0  0  0  0  0  0  0  0  0
   22.5576  -19.4467  -11.5678 C   0  0  0  0  0  0  0  0  0  0  0  0
   25.9563  -20.7487   -9.0329 C   0  0  0  0  0  0  0  0  0  0  0  0
   25.6863  -20.1834   -7.7993 O   0  0  0  0  0  0  0  0  0  0  0  0
   26.9448  -21.5648   -9.0256 O   0  0  0  0  0  0  0  0  0  0  0  0
  2  1  1  0
  2  3  2  0
  4  2  1  0
  5  4  1  0
  5  6  1  0
  6  8  1  0
  6  7  1  6
  8  9  2  0
 11 13  1  0
 11 10  1  1
 12 11  1  0
 13 14  1  6
 14  8  1  0
 15 17  1  0
 15 13  1  0
 16 15  2  0
 18 26  1  0
 18 17  1  0
 18 19  1  1
 20 19  1  0
 21 20  2  0
 22 21  1  0
 23 24  1  0
 23 22  2  0
 24 25  2  0
 25 20  1  0
 26 27  1  0
 28 26  2  0
M  END
$$$$
