QVF.pdb
     RDKit          3D

 28 28  0  0  1  0  0  0  0  0999 V2000
   16.1572  -13.5572  -11.4004 N   0  0  0  0  0  0  0  0  0  0  0  0
   15.7564  -14.2584  -12.5657 C   0  0  0  0  0  0  0  0  0  0  0  0
   15.9720  -15.4895  -12.6143 O   0  0  0  0  0  0  0  0  0  0  0  0
   15.1116  -13.5411  -13.6627 C   0  0  0  0  0  0  0  0  0  0  0  0
   14.9210  -12.0820  -13.3796 C   0  0  0  0  0  0  0  0  0  0  0  0
   13.6876  -11.7632  -12.5829 C   0  0  2  0  0  0  0  0  0  0  0  0
   12.5125  -11.8398  -13.4276 N   0  0  0  0  0  0  0  0  0  0  0  0
   13.8748  -10.3909  -12.0344 C   0  0  0  0  0  0  0  0  0  0  0  0
   13.5981   -9.3933  -12.7467 O   0  0  0  0  0  0  0  0  0  0  0  0
   14.3888   -7.3885   -8.2042 C   0  0  0  0  0  0  0  0  0  0  0  0
   14.0526   -8.7775   -8.7308 C   0  0  1  0  0  0  0  0  0  0  0  0
   12.5745   -8.9667   -8.6220 C   0  0  0  0  0  0  0  0  0  0  0  0
   14.5319   -8.8133  -10.1721 C   0  0  2  0  0  0  0  0  0  0  0  0
   14.3580  -10.1607  -10.7266 N   0  0  0  0  0  0  0  0  0  0  0  0
   15.9786   -8.4754  -10.2312 C   0  0  0  0  0  0  0  0  0  0  0  0
   16.8395   -9.2222   -9.7064 O   0  0  0  0  0  0  0  0  0  0  0  0
   16.4386   -7.3188  -10.8697 N   0  0  0  0  0  0  0  0  0  0  0  0
   17.8202   -6.9290  -11.0121 C   0  0  1  0  0  0  0  0  0  0  0  0
   18.3085   -6.8666  -12.3933 C   0  0  0  0  0  0  0  0  0  0  0  0
   19.7197   -6.4427  -12.4138 C   0  0  0  0  0  0  0  0  0  0  0  0
   20.6805   -7.3919  -12.1422 C   0  0  0  0  0  0  0  0  0  0  0  0
   22.0214   -7.1105  -12.1634 C   0  0  0  0  0  0  0  0  0  0  0  0
   22.3992   -5.8160  -12.4723 C   0  0  0  0  0  0  0  0  0  0  0  0
   21.4777   -4.8390  -12.7495 C   0  0  0  0  0  0  0  0  0  0  0  0
   20.1314   -5.1617  -12.7183 C   0  0  0  0  0  0  0  0  0  0  0  0
   18.0135   -5.6604  -10.3008 C   0  0  0  0  0  0  0  0  0  0  0  0
   17.3362   -4.4751  -10.5261 O   0  0  0  0  0  0  0  0  0  0  0  0
   18.8896   -5.5891   -9.3678 O   0  0  0  0  0  0  0  0  0  0  0  0
  2  1  1  0
  2  3  2  0
  4  2  1  0
  5  4  1  0
  5  6  1  0
  6  8  1  0
  6  7  1  6
  8  9  2  0
 11 13  1  0
 11 10  1  6
 12 11  1  0
 13 14  1  1
 14  8  1  0
 15 17  1  0
 15 13  1  0
 16 15  2  0
 18 26  1  0
 18 17  1  0
 18 19  1  6
 20 19  1  0
 21 20  2  0
 22 21  1  0
 23 24  1  0
 23 22  2  0
 24 25  2  0
 25 20  1  0
 26 27  1  0
 28 26  2  0
M  END
$$$$
