QVF.pdb
     RDKit          3D

 28 28  0  0  1  0  0  0  0  0999 V2000
   22.5380  -23.8924  -13.8122 N   0  0  0  0  0  0  0  0  0  0  0  0
   22.6452  -24.9507  -14.7496 C   0  0  0  0  0  0  0  0  0  0  0  0
   21.5891  -25.4731  -15.1696 O   0  0  0  0  0  0  0  0  0  0  0  0
   23.9618  -25.3982  -15.1967 C   0  0  0  0  0  0  0  0  0  0  0  0
   25.0853  -24.5999  -14.6085 C   0  0  0  0  0  0  0  0  0  0  0  0
   25.4096  -23.3412  -15.3623 C   0  0  2  0  0  0  0  0  0  0  0  0
   26.1156  -23.6593  -16.5873 N   0  0  0  0  0  0  0  0  0  0  0  0
   26.2429  -22.5022  -14.4563 C   0  0  0  0  0  0  0  0  0  0  0  0
   27.4938  -22.6206  -14.4745 O   0  0  0  0  0  0  0  0  0  0  0  0
   26.9567  -18.2753  -12.2993 C   0  0  0  0  0  0  0  0  0  0  0  0
   26.1457  -19.1886  -13.2091 C   0  0  1  0  0  0  0  0  0  0  0  0
   26.5384  -18.8995  -14.6214 C   0  0  0  0  0  0  0  0  0  0  0  0
   26.4871  -20.6108  -12.7975 C   0  0  2  0  0  0  0  0  0  0  0  0
   25.6767  -21.5644  -13.5638 N   0  0  0  0  0  0  0  0  0  0  0  0
   26.1835  -20.8051  -11.3551 C   0  0  0  0  0  0  0  0  0  0  0  0
   25.0165  -21.0535  -10.9670 O   0  0  0  0  0  0  0  0  0  0  0  0
   27.1789  -20.7198  -10.3757 N   0  0  0  0  0  0  0  0  0  0  0  0
   27.0244  -21.0733   -8.9858 C   0  0  1  0  0  0  0  0  0  0  0  0
   28.2724  -21.1344   -8.2183 C   0  0  0  0  0  0  0  0  0  0  0  0
   28.1078  -20.4448   -6.9264 C   0  0  0  0  0  0  0  0  0  0  0  0
   28.2058  -19.0707   -6.9137 C   0  0  0  0  0  0  0  0  0  0  0  0
   28.0406  -18.3304   -5.7725 C   0  0  0  0  0  0  0  0  0  0  0  0
   27.7654  -19.0128   -4.6010 C   0  0  0  0  0  0  0  0  0  0  0  0
   27.6587  -20.3794   -4.5665 C   0  0  0  0  0  0  0  0  0  0  0  0
   27.8321  -21.0933   -5.7405 C   0  0  0  0  0  0  0  0  0  0  0  0
   26.0517  -20.1538   -8.3849 C   0  0  0  0  0  0  0  0  0  0  0  0
   25.9101  -18.8053   -8.6599 O   0  0  0  0  0  0  0  0  0  0  0  0
   25.2275  -20.5947   -7.5076 O   0  0  0  0  0  0  0  0  0  0  0  0
  2  1  1  0
  2  3  2  0
  4  2  1  0
  5  4  1  0
  5  6  1  0
  6  8  1  0
  6  7  1  6
  8  9  2  0
 11 13  1  0
 11 10  1  1
 12 11  1  0
 13 14  1  6
 14  8  1  0
 15 17  1  0
 15 13  1  0
 16 15  2  0
 18 26  1  0
 18 17  1  0
 18 19  1  1
 20 19  1  0
 21 20  2  0
 22 21  1  0
 23 24  1  0
 23 22  2  0
 24 25  2  0
 25 20  1  0
 26 27  1  0
 28 26  2  0
M  END
$$$$
