QVF.pdb
     RDKit          3D

 28 28  0  0  1  0  0  0  0  0999 V2000
   28.4391  -23.2993  -17.7320 N   0  0  0  0  0  0  0  0  0  0  0  0
   29.1368  -22.7188  -16.6428 C   0  0  0  0  0  0  0  0  0  0  0  0
   29.6390  -23.4848  -15.7909 O   0  0  0  0  0  0  0  0  0  0  0  0
   29.2526  -21.2662  -16.5421 C   0  0  0  0  0  0  0  0  0  0  0  0
   28.4186  -20.6847  -15.4413 C   0  0  0  0  0  0  0  0  0  0  0  0
   26.9450  -20.9431  -15.5802 C   0  0  2  0  0  0  0  0  0  0  0  0
   26.4403  -20.3248  -16.7899 N   0  0  0  0  0  0  0  0  0  0  0  0
   26.2943  -20.3748  -14.3666 C   0  0  0  0  0  0  0  0  0  0  0  0
   26.1658  -19.1297  -14.2551 O   0  0  0  0  0  0  0  0  0  0  0  0
   22.8616  -20.6136  -11.0725 C   0  0  0  0  0  0  0  0  0  0  0  0
   23.6111  -21.2378  -12.2422 C   0  0  1  0  0  0  0  0  0  0  0  0
   22.8855  -20.8802  -13.4984 C   0  0  0  0  0  0  0  0  0  0  0  0
   25.0153  -20.6586  -12.2051 C   0  0  2  0  0  0  0  0  0  0  0  0
   25.8081  -21.1899  -13.3198 N   0  0  0  0  0  0  0  0  0  0  0  0
   25.6877  -21.0470  -10.9371 C   0  0  0  0  0  0  0  0  0  0  0  0
   25.8286  -22.2533  -10.6224 O   0  0  0  0  0  0  0  0  0  0  0  0
   26.1885  -20.0909  -10.0471 N   0  0  0  0  0  0  0  0  0  0  0  0
   26.7239  -20.3612   -8.7352 C   0  0  1  0  0  0  0  0  0  0  0  0
   27.4522  -19.2469   -8.1202 C   0  0  0  0  0  0  0  0  0  0  0  0
   28.1016  -19.6914   -6.8743 C   0  0  0  0  0  0  0  0  0  0  0  0
   27.5055  -19.3487   -5.6805 C   0  0  0  0  0  0  0  0  0  0  0  0
   28.0104  -19.7353   -4.4667 C   0  0  0  0  0  0  0  0  0  0  0  0
   29.1642  -20.4987   -4.4670 C   0  0  0  0  0  0  0  0  0  0  0  0
   29.7913  -20.8633   -5.6307 C   0  0  0  0  0  0  0  0  0  0  0  0
   29.2509  -20.4535   -6.8380 C   0  0  0  0  0  0  0  0  0  0  0  0
   25.6296  -20.8417   -7.8842 C   0  0  0  0  0  0  0  0  0  0  0  0
   25.6501  -21.9533   -7.0607 O   0  0  0  0  0  0  0  0  0  0  0  0
   24.5182  -20.2031   -7.8678 O   0  0  0  0  0  0  0  0  0  0  0  0
  2  1  1  0
  2  3  2  0
  4  2  1  0
  5  4  1  0
  5  6  1  0
  6  8  1  0
  6  7  1  6
  8  9  2  0
 11 13  1  0
 11 10  1  1
 12 11  1  0
 13 14  1  6
 14  8  1  0
 15 17  1  0
 15 13  1  0
 16 15  2  0
 18 26  1  0
 18 17  1  0
 18 19  1  1
 20 19  1  0
 21 20  2  0
 22 21  1  0
 23 24  1  0
 23 22  2  0
 24 25  2  0
 25 20  1  0
 26 27  1  0
 28 26  2  0
M  END
$$$$
