QVF.pdb
     RDKit          3D

 28 28  0  0  1  0  0  0  0  0999 V2000
   19.2419  -22.0025  -13.3452 N   0  0  0  0  0  0  0  0  0  0  0  0
   19.1897  -20.5866  -13.2937 C   0  0  0  0  0  0  0  0  0  0  0  0
   18.1264  -20.0247  -13.6377 O   0  0  0  0  0  0  0  0  0  0  0  0
   20.3565  -19.8297  -12.8473 C   0  0  0  0  0  0  0  0  0  0  0  0
   21.4882  -20.7037  -12.3993 C   0  0  0  0  0  0  0  0  0  0  0  0
   22.6018  -20.8338  -13.3996 C   0  0  2  0  0  0  0  0  0  0  0  0
   22.2433  -21.7926  -14.4256 N   0  0  0  0  0  0  0  0  0  0  0  0
   23.8080  -21.2720  -12.6431 C   0  0  0  0  0  0  0  0  0  0  0  0
   23.8156  -22.3962  -12.0817 O   0  0  0  0  0  0  0  0  0  0  0  0
   28.5960  -20.7894  -11.6665 C   0  0  0  0  0  0  0  0  0  0  0  0
   27.4059  -20.3443  -12.5062 C   0  0  1  0  0  0  0  0  0  0  0  0
   27.5843  -20.8910  -13.8853 C   0  0  0  0  0  0  0  0  0  0  0  0
   26.1699  -20.9035  -11.8220 C   0  0  2  0  0  0  0  0  0  0  0  0
   24.9614  -20.4639  -12.5289 N   0  0  0  0  0  0  0  0  0  0  0  0
   26.0945  -20.3987  -10.4256 C   0  0  0  0  0  0  0  0  0  0  0  0
   25.6313  -19.2602  -10.1731 O   0  0  0  0  0  0  0  0  0  0  0  0
   26.5334  -21.1657   -9.3412 N   0  0  0  0  0  0  0  0  0  0  0  0
   26.7530  -20.6800   -8.0008 C   0  0  1  0  0  0  0  0  0  0  0  0
   27.5157  -21.5811   -7.1310 C   0  0  0  0  0  0  0  0  0  0  0  0
   28.0364  -20.8424   -5.9671 C   0  0  0  0  0  0  0  0  0  0  0  0
   27.3216  -20.9081   -4.7913 C   0  0  0  0  0  0  0  0  0  0  0  0
   27.7321  -20.2828   -3.6431 C   0  0  0  0  0  0  0  0  0  0  0  0
   28.9133  -19.5644   -3.6926 C   0  0  0  0  0  0  0  0  0  0  0  0
   29.6574  -19.4718   -4.8407 C   0  0  0  0  0  0  0  0  0  0  0  0
   29.2100  -20.1175   -5.9811 C   0  0  0  0  0  0  0  0  0  0  0  0
   27.3661  -19.3500   -8.0905 C   0  0  0  0  0  0  0  0  0  0  0  0
   26.9680  -18.2094   -7.4162 O   0  0  0  0  0  0  0  0  0  0  0  0
   28.3753  -19.1729   -8.8607 O   0  0  0  0  0  0  0  0  0  0  0  0
  2  1  1  0
  2  3  2  0
  4  2  1  0
  5  4  1  0
  5  6  1  0
  6  8  1  0
  6  7  1  6
  8  9  2  0
 11 13  1  0
 11 10  1  1
 12 11  1  0
 13 14  1  6
 14  8  1  0
 15 17  1  0
 15 13  1  0
 16 15  2  0
 18 26  1  0
 18 17  1  0
 18 19  1  1
 20 19  1  0
 21 20  2  0
 22 21  1  0
 23 24  1  0
 23 22  2  0
 24 25  2  0
 25 20  1  0
 26 27  1  0
 28 26  2  0
M  END
$$$$
