QVF.pdb
     RDKit          3D

 28 28  0  0  1  0  0  0  0  0999 V2000
   21.0759  -22.4301  -13.2881 N   0  0  0  0  0  0  0  0  0  0  0  0
   21.0199  -23.3752  -14.3435 C   0  0  0  0  0  0  0  0  0  0  0  0
   20.1928  -23.1825  -15.2619 O   0  0  0  0  0  0  0  0  0  0  0  0
   21.9133  -24.5307  -14.3358 C   0  0  0  0  0  0  0  0  0  0  0  0
   23.3174  -24.1857  -13.9420 C   0  0  0  0  0  0  0  0  0  0  0  0
   23.9865  -23.1911  -14.8479 C   0  0  2  0  0  0  0  0  0  0  0  0
   24.3875  -23.8313  -16.0847 N   0  0  0  0  0  0  0  0  0  0  0  0
   25.1627  -22.6586  -14.1049 C   0  0  0  0  0  0  0  0  0  0  0  0
   26.1204  -23.4228  -13.8262 O   0  0  0  0  0  0  0  0  0  0  0  0
   27.8482  -18.8717  -12.5298 C   0  0  0  0  0  0  0  0  0  0  0  0
   26.6916  -19.3561  -13.3942 C   0  0  1  0  0  0  0  0  0  0  0  0
   27.1241  -19.2894  -14.8228 C   0  0  0  0  0  0  0  0  0  0  0  0
   26.3951  -20.7784  -12.9496 C   0  0  2  0  0  0  0  0  0  0  0  0
   25.2474  -21.3092  -13.6941 N   0  0  0  0  0  0  0  0  0  0  0  0
   26.0510  -20.7933  -11.5032 C   0  0  0  0  0  0  0  0  0  0  0  0
   24.9087  -20.4587  -11.1063 O   0  0  0  0  0  0  0  0  0  0  0  0
   26.9792  -21.1783  -10.5300 N   0  0  0  0  0  0  0  0  0  0  0  0
   26.8697  -20.9223   -9.1146 C   0  0  1  0  0  0  0  0  0  0  0  0
   28.1462  -20.8438   -8.3973 C   0  0  0  0  0  0  0  0  0  0  0  0
   27.9383  -20.2795   -7.0519 C   0  0  0  0  0  0  0  0  0  0  0  0
   27.3556  -21.0861   -6.0992 C   0  0  0  0  0  0  0  0  0  0  0  0
   27.1436  -20.6701   -4.8108 C   0  0  0  0  0  0  0  0  0  0  0  0
   27.5388  -19.3865   -4.4793 C   0  0  0  0  0  0  0  0  0  0  0  0
   28.1227  -18.5490   -5.3947 C   0  0  0  0  0  0  0  0  0  0  0  0
   28.3206  -19.0052   -6.6872 C   0  0  0  0  0  0  0  0  0  0  0  0
   26.0576  -19.7145   -8.9293 C   0  0  0  0  0  0  0  0  0  0  0  0
   24.8657  -19.6188   -8.2332 O   0  0  0  0  0  0  0  0  0  0  0  0
   26.4469  -18.6087   -9.4478 O   0  0  0  0  0  0  0  0  0  0  0  0
  2  1  1  0
  2  3  2  0
  4  2  1  0
  5  4  1  0
  5  6  1  0
  6  8  1  0
  6  7  1  6
  8  9  2  0
 11 13  1  0
 11 10  1  1
 12 11  1  0
 13 14  1  6
 14  8  1  0
 15 17  1  0
 15 13  1  0
 16 15  2  0
 18 26  1  0
 18 17  1  0
 18 19  1  6
 20 19  1  0
 21 20  2  0
 22 21  1  0
 23 24  1  0
 23 22  2  0
 24 25  2  0
 25 20  1  0
 26 27  1  0
 28 26  2  0
M  END
$$$$
