PVY.pdb
     RDKit          3D

 27 28  0  0  1  0  0  0  0  0999 V2000
   25.1940  -11.8750  -15.8862 N   0  0  0  0  0  0  0  0  0  0  0  0
   26.4124  -12.6680  -15.9174 C   0  0  0  0  0  0  0  0  0  0  0  0
   26.1056  -13.7451  -16.9441 C   0  0  0  0  0  0  0  0  0  0  0  0
   24.9107  -13.2162  -17.7292 C   0  0  0  0  0  0  0  0  0  0  0  0
   24.8627  -11.7843  -17.2832 C   0  0  1  0  0  0  0  0  0  0  0  0
   23.5633  -11.1412  -17.4481 C   0  0  0  0  0  0  0  0  0  0  0  0
   23.0539  -10.8395  -18.5595 O   0  0  0  0  0  0  0  0  0  0  0  0
   19.6591  -10.5495  -14.7155 C   0  0  0  0  0  0  0  0  0  0  0  0
   20.4238  -11.0541  -15.8969 C   0  0  2  0  0  0  0  0  0  0  0  0
   20.9534  -12.4283  -15.5341 C   0  0  0  0  0  0  0  0  0  0  0  0
   21.4854  -10.1415  -16.4103 C   0  0  2  0  0  0  0  0  0  0  0  0
   22.7969  -10.8206  -16.3022 N   0  0  0  0  0  0  0  0  0  0  0  0
   21.5969   -8.8326  -15.7546 C   0  0  0  0  0  0  0  0  0  0  0  0
   22.1579   -8.7613  -14.6356 O   0  0  0  0  0  0  0  0  0  0  0  0
   21.6327   -0.1742  -14.2674 O   0  0  0  0  0  0  0  0  0  0  0  0
   21.5717   -1.4353  -14.8453 C   0  0  0  0  0  0  0  0  0  0  0  0
   22.7129   -2.2096  -14.9071 C   0  0  0  0  0  0  0  0  0  0  0  0
   22.6586   -3.4579  -15.4775 C   0  0  0  0  0  0  0  0  0  0  0  0
   21.4613   -3.9512  -15.9951 C   0  0  0  0  0  0  0  0  0  0  0  0
   21.4717   -5.2851  -16.5984 C   0  0  0  0  0  0  0  0  0  0  0  0
   21.2680   -6.4008  -15.5814 C   0  0  2  0  0  0  0  0  0  0  0  0
   21.1021   -7.6575  -16.3385 N   0  0  0  0  0  0  0  0  0  0  0  0
   20.0294   -6.1644  -14.8291 C   0  0  0  0  0  0  0  0  0  0  0  0
   20.0656   -5.5188  -13.6119 O   0  0  0  0  0  0  0  0  0  0  0  0
   20.3266   -3.1672  -15.9275 C   0  0  0  0  0  0  0  0  0  0  0  0
   20.3917   -1.9222  -15.3558 C   0  0  0  0  0  0  0  0  0  0  0  0
   18.9045   -6.5327  -15.2527 O   0  0  0  0  0  0  0  0  0  0  0  0
  1  2  1  0
  2  3  1  0
  4  3  1  0
  5  1  1  0
  5  4  1  0
  5  6  1  1
  7  6  2  0
  9 11  1  0
  9  8  1  1
 10  9  1  0
 11 12  1  1
 12  6  1  0
 13 11  1  0
 14 13  2  0
 16 15  1  0
 17 16  2  0
 18 17  1  0
 19 25  1  0
 19 18  2  0
 21 20  1  6
 20 19  1  0
 21 23  1  0
 21 22  1  0
 22 13  1  0
 23 24  1  0
 25 26  2  0
 26 16  1  0
 27 23  2  0
M  END
$$$$
