PVY.pdb
     RDKit          3D

 27 28  0  0  1  0  0  0  0  0999 V2000
   21.6701  -19.4889  -14.4480 N   0  0  0  0  0  0  0  0  0  0  0  0
   20.4811  -19.0188  -15.1406 C   0  0  0  0  0  0  0  0  0  0  0  0
   19.8647  -20.2950  -15.6880 C   0  0  0  0  0  0  0  0  0  0  0  0
   20.5112  -21.4218  -14.8906 C   0  0  0  0  0  0  0  0  0  0  0  0
   21.1796  -20.6651  -13.7807 C   0  0  1  0  0  0  0  0  0  0  0  0
   22.2835  -21.3745  -13.1421 C   0  0  0  0  0  0  0  0  0  0  0  0
   22.1766  -22.4917  -12.5710 O   0  0  0  0  0  0  0  0  0  0  0  0
   26.4159  -20.2914  -14.0091 C   0  0  0  0  0  0  0  0  0  0  0  0
   25.8185  -21.5919  -13.5771 C   0  0  2  0  0  0  0  0  0  0  0  0
   25.3741  -22.3194  -14.8316 C   0  0  0  0  0  0  0  0  0  0  0  0
   24.7396  -21.4925  -12.5527 C   0  0  2  0  0  0  0  0  0  0  0  0
   23.5753  -20.7963  -13.1464 N   0  0  0  0  0  0  0  0  0  0  0  0
   25.0867  -20.8092  -11.3005 C   0  0  0  0  0  0  0  0  0  0  0  0
   24.6985  -19.6298  -11.1260 O   0  0  0  0  0  0  0  0  0  0  0  0
   28.9081  -18.7339   -3.6835 O   0  0  0  0  0  0  0  0  0  0  0  0
   28.4075  -19.4341   -4.7730 C   0  0  0  0  0  0  0  0  0  0  0  0
   29.0257  -19.3115   -6.0011 C   0  0  0  0  0  0  0  0  0  0  0  0
   28.5351  -20.0019   -7.0824 C   0  0  0  0  0  0  0  0  0  0  0  0
   27.4178  -20.8261   -6.9518 C   0  0  0  0  0  0  0  0  0  0  0  0
   26.9384  -21.5273   -8.1442 C   0  0  0  0  0  0  0  0  0  0  0  0
   26.1901  -20.6176   -9.1101 C   0  0  2  0  0  0  0  0  0  0  0  0
   25.8335  -21.4312  -10.2895 N   0  0  0  0  0  0  0  0  0  0  0  0
   27.0779  -19.5389   -9.5621 C   0  0  0  0  0  0  0  0  0  0  0  0
   28.0521  -19.7870  -10.5051 O   0  0  0  0  0  0  0  0  0  0  0  0
   26.8079  -20.9404   -5.7181 C   0  0  0  0  0  0  0  0  0  0  0  0
   27.3060  -20.2467   -4.6449 C   0  0  0  0  0  0  0  0  0  0  0  0
   26.9911  -18.3659   -9.1183 O   0  0  0  0  0  0  0  0  0  0  0  0
  1  2  1  0
  2  3  1  0
  4  3  1  0
  5  1  1  0
  5  4  1  0
  5  6  1  6
  7  6  2  0
  9 11  1  0
  9  8  1  6
 10  9  1  0
 11 12  1  6
 12  6  1  0
 13 11  1  0
 14 13  2  0
 16 15  1  0
 17 16  2  0
 18 17  1  0
 19 25  1  0
 19 18  2  0
 21 20  1  1
 20 19  1  0
 21 23  1  0
 21 22  1  0
 22 13  1  0
 23 24  1  0
 25 26  2  0
 26 16  1  0
 27 23  2  0
M  END
$$$$
