PVY.pdb
     RDKit          3D

 27 28  0  0  1  0  0  0  0  0999 V2000
   27.7366  -20.0758  -15.9150 N   0  0  0  0  0  0  0  0  0  0  0  0
   28.4993  -19.7828  -17.1178 C   0  0  0  0  0  0  0  0  0  0  0  0
   28.1150  -18.3482  -17.4380 C   0  0  0  0  0  0  0  0  0  0  0  0
   27.5110  -17.8021  -16.1493 C   0  0  0  0  0  0  0  0  0  0  0  0
   27.8956  -18.8620  -15.1593 C   0  0  1  0  0  0  0  0  0  0  0  0
   27.0618  -18.9053  -13.9626 C   0  0  0  0  0  0  0  0  0  0  0  0
   26.8207  -17.9126  -13.2263 O   0  0  0  0  0  0  0  0  0  0  0  0
   23.1357  -21.2058  -12.1121 C   0  0  0  0  0  0  0  0  0  0  0  0
   24.3062  -21.0698  -13.0321 C   0  0  2  0  0  0  0  0  0  0  0  0
   24.7822  -22.4717  -13.3616 C   0  0  0  0  0  0  0  0  0  0  0  0
   25.4037  -20.1851  -12.5460 C   0  0  2  0  0  0  0  0  0  0  0  0
   26.4680  -20.1299  -13.5741 N   0  0  0  0  0  0  0  0  0  0  0  0
   26.0257  -20.5550  -11.2686 C   0  0  0  0  0  0  0  0  0  0  0  0
   26.6903  -21.6161  -11.2030 O   0  0  0  0  0  0  0  0  0  0  0  0
   29.6861  -20.4280   -3.3476 O   0  0  0  0  0  0  0  0  0  0  0  0
   29.0886  -20.0948   -4.5559 C   0  0  0  0  0  0  0  0  0  0  0  0
   27.7879  -19.6327   -4.5655 C   0  0  0  0  0  0  0  0  0  0  0  0
   27.1917  -19.3014   -5.7577 C   0  0  0  0  0  0  0  0  0  0  0  0
   27.8879  -19.4273   -6.9594 C   0  0  0  0  0  0  0  0  0  0  0  0
   27.1932  -19.0668   -8.1967 C   0  0  0  0  0  0  0  0  0  0  0  0
   26.5361  -20.2590   -8.8803 C   0  0  2  0  0  0  0  0  0  0  0  0
   25.9067  -19.7602  -10.1193 N   0  0  0  0  0  0  0  0  0  0  0  0
   25.4723  -20.7965   -8.0227 C   0  0  0  0  0  0  0  0  0  0  0  0
   25.7601  -21.7499   -7.0698 O   0  0  0  0  0  0  0  0  0  0  0  0
   29.1885  -19.8908   -6.9369 C   0  0  0  0  0  0  0  0  0  0  0  0
   29.7744  -20.2188   -5.7410 C   0  0  0  0  0  0  0  0  0  0  0  0
   24.2768  -20.4194   -8.1176 O   0  0  0  0  0  0  0  0  0  0  0  0
  1  2  1  0
  2  3  1  0
  4  3  1  0
  5  1  1  0
  5  4  1  0
  5  6  1  1
  7  6  2  0
  9 11  1  0
  9  8  1  1
 10  9  1  0
 11 12  1  6
 12  6  1  0
 13 11  1  0
 14 13  2  0
 16 15  1  0
 17 16  2  0
 18 17  1  0
 19 25  1  0
 19 18  2  0
 21 20  1  1
 20 19  1  0
 21 23  1  0
 21 22  1  0
 22 13  1  0
 23 24  1  0
 25 26  2  0
 26 16  1  0
 27 23  2  0
M  END
$$$$
