PVY.pdb
     RDKit          3D

 27 28  0  0  1  0  0  0  0  0999 V2000
   19.9228  -12.3155  -17.9905 N   0  0  0  0  0  0  0  0  0  0  0  0
   19.1134  -13.2786  -18.7198 C   0  0  0  0  0  0  0  0  0  0  0  0
   18.8338  -14.3574  -17.6872 C   0  0  0  0  0  0  0  0  0  0  0  0
   19.1335  -13.7063  -16.3418 C   0  0  0  0  0  0  0  0  0  0  0  0
   19.2465  -12.2592  -16.7220 C   0  0  1  0  0  0  0  0  0  0  0  0
   20.0108  -11.4437  -15.7839 C   0  0  0  0  0  0  0  0  0  0  0  0
   19.7143  -11.2879  -14.5699 O   0  0  0  0  0  0  0  0  0  0  0  0
   23.9809  -10.2280  -16.8570 C   0  0  0  0  0  0  0  0  0  0  0  0
   23.4263  -10.3468  -15.4738 C   0  0  2  0  0  0  0  0  0  0  0  0
   23.6979  -11.7626  -15.0025 C   0  0  0  0  0  0  0  0  0  0  0  0
   21.9974   -9.9496  -15.3201 C   0  0  2  0  0  0  0  0  0  0  0  0
   21.1696  -10.7680  -16.2354 N   0  0  0  0  0  0  0  0  0  0  0  0
   21.6808   -8.5367  -15.5631 C   0  0  0  0  0  0  0  0  0  0  0  0
   21.3721   -8.1758  -16.7234 O   0  0  0  0  0  0  0  0  0  0  0  0
   18.9596   -0.3067  -14.9035 O   0  0  0  0  0  0  0  0  0  0  0  0
   19.3096   -1.6276  -14.6572 C   0  0  0  0  0  0  0  0  0  0  0  0
   20.4519   -1.9034  -13.9329 C   0  0  0  0  0  0  0  0  0  0  0  0
   20.8032   -3.2082  -13.6860 C   0  0  0  0  0  0  0  0  0  0  0  0
   20.0167   -4.2576  -14.1601 C   0  0  0  0  0  0  0  0  0  0  0  0
   20.4505   -5.6258  -13.8714 C   0  0  0  0  0  0  0  0  0  0  0  0
   21.4125   -6.1787  -14.9150 C   0  0  2  0  0  0  0  0  0  0  0  0
   21.7067   -7.5765  -14.5413 N   0  0  0  0  0  0  0  0  0  0  0  0
   22.6740   -5.4286  -14.8717 C   0  0  0  0  0  0  0  0  0  0  0  0
   22.9161   -4.4187  -15.7779 O   0  0  0  0  0  0  0  0  0  0  0  0
   18.8765   -3.9689  -14.8836 C   0  0  0  0  0  0  0  0  0  0  0  0
   18.5348   -2.6627  -15.1244 C   0  0  0  0  0  0  0  0  0  0  0  0
   23.5709   -5.6692  -14.0241 O   0  0  0  0  0  0  0  0  0  0  0  0
  1  2  1  0
  2  3  1  0
  4  3  1  0
  5  1  1  0
  5  4  1  0
  5  6  1  1
  7  6  2  0
  9 11  1  0
  9  8  1  6
 10  9  1  0
 11 12  1  6
 12  6  1  0
 13 11  1  0
 14 13  2  0
 16 15  1  0
 17 16  2  0
 18 17  1  0
 19 25  1  0
 19 18  2  0
 21 20  1  1
 20 19  1  0
 21 23  1  0
 21 22  1  0
 22 13  1  0
 23 24  1  0
 25 26  2  0
 26 16  1  0
 27 23  2  0
M  END
$$$$
