PVY.pdb
     RDKit          3D

 27 28  0  0  1  0  0  0  0  0999 V2000
   20.6354  -14.9662  -18.3951 N   0  0  0  0  0  0  0  0  0  0  0  0
   19.9681  -15.9916  -19.1809 C   0  0  0  0  0  0  0  0  0  0  0  0
   19.2883  -16.8537  -18.1307 C   0  0  0  0  0  0  0  0  0  0  0  0
   19.2601  -15.9959  -16.8708 C   0  0  0  0  0  0  0  0  0  0  0  0
   19.6349  -14.6475  -17.4117 C   0  0  1  0  0  0  0  0  0  0  0  0
   20.1834  -13.7276  -16.4206 C   0  0  0  0  0  0  0  0  0  0  0  0
   19.5828  -13.3674  -15.3741 O   0  0  0  0  0  0  0  0  0  0  0  0
   24.2790  -11.5174  -14.6782 C   0  0  0  0  0  0  0  0  0  0  0  0
   23.5340  -12.4402  -15.5884 C   0  0  2  0  0  0  0  0  0  0  0  0
   24.2125  -12.3771  -16.9434 C   0  0  0  0  0  0  0  0  0  0  0  0
   22.0624  -12.2128  -15.6667 C   0  0  2  0  0  0  0  0  0  0  0  0
   21.4755  -13.1846  -16.6174 N   0  0  0  0  0  0  0  0  0  0  0  0
   21.6280  -10.8684  -16.0662 C   0  0  0  0  0  0  0  0  0  0  0  0
   21.6883  -10.5468  -17.2765 O   0  0  0  0  0  0  0  0  0  0  0  0
   17.2829   -3.4467  -17.0486 O   0  0  0  0  0  0  0  0  0  0  0  0
   17.7714   -4.7062  -16.7275 C   0  0  0  0  0  0  0  0  0  0  0  0
   17.7665   -5.1209  -15.4109 C   0  0  0  0  0  0  0  0  0  0  0  0
   18.2484   -6.3657  -15.0873 C   0  0  0  0  0  0  0  0  0  0  0  0
   18.7428   -7.2154  -16.0763 C   0  0  0  0  0  0  0  0  0  0  0  0
   19.2509   -8.5255  -15.6652 C   0  0  0  0  0  0  0  0  0  0  0  0
   20.7723   -8.5986  -15.6561 C   0  0  2  0  0  0  0  0  0  0  0  0
   21.1429   -9.9321  -15.1417 N   0  0  0  0  0  0  0  0  0  0  0  0
   21.3103   -7.5955  -14.7285 C   0  0  0  0  0  0  0  0  0  0  0  0
   21.6076   -6.3247  -15.1717 O   0  0  0  0  0  0  0  0  0  0  0  0
   18.7427   -6.7891  -17.3898 C   0  0  0  0  0  0  0  0  0  0  0  0
   18.2591   -5.5442  -17.7021 C   0  0  0  0  0  0  0  0  0  0  0  0
   21.5197   -7.8460  -13.5144 O   0  0  0  0  0  0  0  0  0  0  0  0
  1  2  1  0
  2  3  1  0
  4  3  1  0
  5  1  1  0
  5  4  1  0
  5  6  1  1
  7  6  2  0
  9 11  1  0
  9  8  1  1
 10  9  1  0
 11 12  1  6
 12  6  1  0
 13 11  1  0
 14 13  2  0
 16 15  1  0
 17 16  2  0
 18 17  1  0
 19 25  1  0
 19 18  2  0
 21 20  1  1
 20 19  1  0
 21 23  1  0
 21 22  1  0
 22 13  1  0
 23 24  1  0
 25 26  2  0
 26 16  1  0
 27 23  2  0
M  END
$$$$
