PVY.pdb
     RDKit          3D

 27 28  0  0  1  0  0  0  0  0999 V2000
   18.0542  -19.6714  -18.4041 N   0  0  0  0  0  0  0  0  0  0  0  0
   18.0483  -20.8786  -19.2148 C   0  0  0  0  0  0  0  0  0  0  0  0
   19.0679  -20.5788  -20.3005 C   0  0  0  0  0  0  0  0  0  0  0  0
   19.8859  -19.4093  -19.7647 C   0  0  0  0  0  0  0  0  0  0  0  0
   19.4592  -19.3724  -18.3267 C   0  0  1  0  0  0  0  0  0  0  0  0
   19.6610  -18.0865  -17.6672 C   0  0  0  0  0  0  0  0  0  0  0  0
   20.7216  -17.7459  -17.0799 O   0  0  0  0  0  0  0  0  0  0  0  0
   20.3460  -14.1557  -18.3562 C   0  0  0  0  0  0  0  0  0  0  0  0
   19.0149  -14.8342  -18.3027 C   0  0  2  0  0  0  0  0  0  0  0  0
   17.9564  -13.7505  -18.3783 C   0  0  0  0  0  0  0  0  0  0  0  0
   18.8138  -15.7605  -17.1516 C   0  0  2  0  0  0  0  0  0  0  0  0
   18.6143  -17.1337  -17.6686 N   0  0  0  0  0  0  0  0  0  0  0  0
   17.6992  -15.4495  -16.2480 C   0  0  0  0  0  0  0  0  0  0  0  0
   17.6950  -14.3491  -15.6472 O   0  0  0  0  0  0  0  0  0  0  0  0
   13.1282  -20.7544  -18.3852 O   0  0  0  0  0  0  0  0  0  0  0  0
   13.4008  -19.5753  -17.7044 C   0  0  0  0  0  0  0  0  0  0  0  0
   14.0345  -18.5414  -18.3641 C   0  0  0  0  0  0  0  0  0  0  0  0
   14.3066  -17.3727  -17.6958 C   0  0  0  0  0  0  0  0  0  0  0  0
   13.9488  -17.2201  -16.3566 C   0  0  0  0  0  0  0  0  0  0  0  0
   14.2753  -15.9537  -15.6985 C   0  0  0  0  0  0  0  0  0  0  0  0
   15.6360  -15.9713  -15.0139 C   0  0  2  0  0  0  0  0  0  0  0  0
   16.6353  -16.3386  -16.0368 N   0  0  0  0  0  0  0  0  0  0  0  0
   15.6545  -17.0104  -13.9765 C   0  0  0  0  0  0  0  0  0  0  0  0
   14.7457  -16.9776  -12.9408 O   0  0  0  0  0  0  0  0  0  0  0  0
   13.3156  -18.2616  -15.7076 C   0  0  0  0  0  0  0  0  0  0  0  0
   13.0484  -19.4243  -16.3842 C   0  0  0  0  0  0  0  0  0  0  0  0
   16.4827  -17.9561  -13.9865 O   0  0  0  0  0  0  0  0  0  0  0  0
  1  2  1  0
  2  3  1  0
  4  3  1  0
  5  1  1  0
  5  4  1  0
  5  6  1  6
  7  6  2  0
  9 11  1  0
  9  8  1  1
 10  9  1  0
 11 12  1  6
 12  6  1  0
 13 11  1  0
 14 13  2  0
 16 15  1  0
 17 16  2  0
 18 17  1  0
 19 25  1  0
 19 18  2  0
 21 20  1  6
 20 19  1  0
 21 23  1  0
 21 22  1  0
 22 13  1  0
 23 24  1  0
 25 26  2  0
 26 16  1  0
 27 23  2  0
M  END
$$$$
