PVY.pdb
     RDKit          3D

 27 28  0  0  1  0  0  0  0  0999 V2000
   24.2741  -19.9215  -18.2395 N   0  0  0  0  0  0  0  0  0  0  0  0
   23.6334  -18.9374  -19.0971 C   0  0  0  0  0  0  0  0  0  0  0  0
   22.8402  -18.0837  -18.1222 C   0  0  0  0  0  0  0  0  0  0  0  0
   23.4439  -18.3790  -16.7539 C   0  0  0  0  0  0  0  0  0  0  0  0
   24.6975  -19.1146  -17.1263 C   0  0  1  0  0  0  0  0  0  0  0  0
   25.2384  -19.9642  -16.0703 C   0  0  0  0  0  0  0  0  0  0  0  0
   24.8645  -21.1454  -15.8449 O   0  0  0  0  0  0  0  0  0  0  0  0
   28.9044  -20.7248  -12.8247 C   0  0  0  0  0  0  0  0  0  0  0  0
   28.2460  -20.0826  -14.0033 C   0  0  2  0  0  0  0  0  0  0  0  0
   28.6884  -18.6320  -14.0281 C   0  0  0  0  0  0  0  0  0  0  0  0
   26.7646  -20.2373  -14.0728 C   0  0  2  0  0  0  0  0  0  0  0  0
   26.2531  -19.4579  -15.2234 N   0  0  0  0  0  0  0  0  0  0  0  0
   26.0078  -19.8358  -12.8805 C   0  0  0  0  0  0  0  0  0  0  0  0
   25.7213  -18.6253  -12.7239 O   0  0  0  0  0  0  0  0  0  0  0  0
   19.9503  -18.6553  -14.4674 O   0  0  0  0  0  0  0  0  0  0  0  0
   20.8308  -19.2233  -13.5563 C   0  0  0  0  0  0  0  0  0  0  0  0
   20.8743  -18.7415  -12.2634 C   0  0  0  0  0  0  0  0  0  0  0  0
   21.7432  -19.2995  -11.3577 C   0  0  0  0  0  0  0  0  0  0  0  0
   22.5823  -20.3486  -11.7315 C   0  0  0  0  0  0  0  0  0  0  0  0
   23.4922  -20.8934  -10.7222 C   0  0  0  0  0  0  0  0  0  0  0  0
   24.8648  -20.2330  -10.7386 C   0  0  2  0  0  0  0  0  0  0  0  0
   25.5894  -20.7599  -11.9122 N   0  0  0  0  0  0  0  0  0  0  0  0
   25.6151  -20.6214   -9.5376 C   0  0  0  0  0  0  0  0  0  0  0  0
   26.6627  -21.5125   -9.6281 O   0  0  0  0  0  0  0  0  0  0  0  0
   22.5297  -20.8217  -13.0277 C   0  0  0  0  0  0  0  0  0  0  0  0
   21.6584  -20.2575  -13.9242 C   0  0  0  0  0  0  0  0  0  0  0  0
   25.3410  -20.1682   -8.3974 O   0  0  0  0  0  0  0  0  0  0  0  0
  1  2  1  0
  2  3  1  0
  4  3  1  0
  5  1  1  0
  5  4  1  0
  5  6  1  1
  7  6  2  0
  9 11  1  0
  9  8  1  1
 10  9  1  0
 11 12  1  6
 12  6  1  0
 13 11  1  0
 14 13  2  0
 16 15  1  0
 17 16  2  0
 18 17  1  0
 19 25  1  0
 19 18  2  0
 21 20  1  1
 20 19  1  0
 21 23  1  0
 21 22  1  0
 22 13  1  0
 23 24  1  0
 25 26  2  0
 26 16  1  0
 27 23  2  0
M  END
$$$$
