PVY.pdb
     RDKit          3D

 27 28  0  0  1  0  0  0  0  0999 V2000
   18.3709  -13.8000    5.1266 N   0  0  0  0  0  0  0  0  0  0  0  0
   17.5783  -12.9920    4.2138 C   0  0  0  0  0  0  0  0  0  0  0  0
   17.0491  -14.0064    3.2142 C   0  0  0  0  0  0  0  0  0  0  0  0
   17.2219  -15.3601    3.8933 C   0  0  0  0  0  0  0  0  0  0  0  0
   17.5330  -14.9557    5.3044 C   0  0  1  0  0  0  0  0  0  0  0  0
   18.2370  -15.9684    6.0842 C   0  0  0  0  0  0  0  0  0  0  0  0
   19.4855  -16.0026    6.2453 O   0  0  0  0  0  0  0  0  0  0  0  0
   16.2268  -18.3444    9.0328 C   0  0  0  0  0  0  0  0  0  0  0  0
   17.6934  -18.1209    8.8485 C   0  0  2  0  0  0  0  0  0  0  0  0
   18.0520  -16.8551    9.6034 C   0  0  0  0  0  0  0  0  0  0  0  0
   18.1664  -18.1052    7.4345 C   0  0  2  0  0  0  0  0  0  0  0  0
   17.4974  -16.9967    6.7158 N   0  0  0  0  0  0  0  0  0  0  0  0
   17.9606  -19.3364    6.6616 C   0  0  0  0  0  0  0  0  0  0  0  0
   16.8941  -19.4765    6.0176 O   0  0  0  0  0  0  0  0  0  0  0  0
   18.4726  -26.3762    1.6922 O   0  0  0  0  0  0  0  0  0  0  0  0
   18.6482  -25.1939    2.3986 C   0  0  0  0  0  0  0  0  0  0  0  0
   19.8276  -24.9810    3.0836 C   0  0  0  0  0  0  0  0  0  0  0  0
   20.0070  -23.8133    3.7841 C   0  0  0  0  0  0  0  0  0  0  0  0
   19.0087  -22.8399    3.8103 C   0  0  0  0  0  0  0  0  0  0  0  0
   19.2575  -21.6215    4.5830 C   0  0  0  0  0  0  0  0  0  0  0  0
   18.5409  -21.6115    5.9271 C   0  0  2  0  0  0  0  0  0  0  0  0
   18.9179  -20.3602    6.6142 N   0  0  0  0  0  0  0  0  0  0  0  0
   19.0138  -22.7332    6.7483 C   0  0  0  0  0  0  0  0  0  0  0  0
   19.9913  -22.5369    7.6999 O   0  0  0  0  0  0  0  0  0  0  0  0
   17.8332  -23.0645    3.1213 C   0  0  0  0  0  0  0  0  0  0  0  0
   17.6644  -24.2339    2.4249 C   0  0  0  0  0  0  0  0  0  0  0  0
   18.5579  -23.8980    6.6223 O   0  0  0  0  0  0  0  0  0  0  0  0
  1  2  1  0
  2  3  1  0
  4  3  1  0
  5  1  1  0
  5  4  1  0
  5  6  1  6
  7  6  2  0
  9 11  1  0
  9  8  1  6
 10  9  1  0
 11 12  1  6
 12  6  1  0
 13 11  1  0
 14 13  2  0
 16 15  1  0
 17 16  2  0
 18 17  1  0
 19 25  1  0
 19 18  2  0
 21 20  1  6
 20 19  1  0
 21 23  1  0
 21 22  1  0
 22 13  1  0
 23 24  1  0
 25 26  2  0
 26 16  1  0
 27 23  2  0
M  END
$$$$
