PVY.pdb
     RDKit          3D

 27 28  0  0  1  0  0  0  0  0999 V2000
   23.0338  -11.8630  -19.4894 N   0  0  0  0  0  0  0  0  0  0  0  0
   23.1694  -12.5918  -20.7402 C   0  0  0  0  0  0  0  0  0  0  0  0
   21.9731  -13.5283  -20.7337 C   0  0  0  0  0  0  0  0  0  0  0  0
   21.0194  -12.9467  -19.6964 C   0  0  0  0  0  0  0  0  0  0  0  0
   21.6211  -11.5937  -19.4540 C   0  0  1  0  0  0  0  0  0  0  0  0
   21.2592  -10.9893  -18.1761 C   0  0  0  0  0  0  0  0  0  0  0  0
   20.0817  -10.7084  -17.8291 O   0  0  0  0  0  0  0  0  0  0  0  0
   22.7226  -10.1406  -13.5106 C   0  0  0  0  0  0  0  0  0  0  0  0
   22.9145  -10.6389  -14.9070 C   0  0  2  0  0  0  0  0  0  0  0  0
   24.3657  -10.3948  -15.2741 C   0  0  0  0  0  0  0  0  0  0  0  0
   21.9623  -10.0955  -15.9176 C   0  0  2  0  0  0  0  0  0  0  0  0
   22.2757  -10.6851  -17.2394 N   0  0  0  0  0  0  0  0  0  0  0  0
   21.9303   -8.6354  -16.0683 C   0  0  0  0  0  0  0  0  0  0  0  0
   22.8482   -8.0722  -16.7102 O   0  0  0  0  0  0  0  0  0  0  0  0
   20.0587   -0.6031  -18.2228 O   0  0  0  0  0  0  0  0  0  0  0  0
   20.1137   -1.9615  -17.9405 C   0  0  0  0  0  0  0  0  0  0  0  0
   21.3322   -2.6100  -17.9595 C   0  0  0  0  0  0  0  0  0  0  0  0
   21.3928   -3.9537  -17.6809 C   0  0  0  0  0  0  0  0  0  0  0  0
   20.2349   -4.6697  -17.3789 C   0  0  0  0  0  0  0  0  0  0  0  0
   20.3654   -6.1011  -17.1006 C   0  0  0  0  0  0  0  0  0  0  0  0
   20.9823   -6.3894  -15.7380 C   0  0  2  0  0  0  0  0  0  0  0  0
   20.9056   -7.8482  -15.5233 N   0  0  0  0  0  0  0  0  0  0  0  0
   20.1878   -5.7399  -14.6878 C   0  0  0  0  0  0  0  0  0  0  0  0
   20.4526   -4.4389  -14.3175 O   0  0  0  0  0  0  0  0  0  0  0  0
   19.0220   -4.0098  -17.3633 C   0  0  0  0  0  0  0  0  0  0  0  0
   18.9726   -2.6680  -17.6428 C   0  0  0  0  0  0  0  0  0  0  0  0
   19.2506   -6.3291  -14.0919 O   0  0  0  0  0  0  0  0  0  0  0  0
  1  2  1  0
  2  3  1  0
  4  3  1  0
  5  1  1  0
  5  4  1  0
  5  6  1  1
  7  6  2  0
  9 11  1  0
  9  8  1  1
 10  9  1  0
 11 12  1  6
 12  6  1  0
 13 11  1  0
 14 13  2  0
 16 15  1  0
 17 16  2  0
 18 17  1  0
 19 25  1  0
 19 18  2  0
 21 20  1  6
 20 19  1  0
 21 23  1  0
 21 22  1  0
 22 13  1  0
 23 24  1  0
 25 26  2  0
 26 16  1  0
 27 23  2  0
M  END
$$$$
