TAT.pdb
     RDKit          3D

 20 19  0  0  1  0  0  0  0  0999 V2000
   18.0793   -9.1176  -18.4845 C   0  0  0  0  0  0  0  0  0  0  0  0
   17.6297  -10.3399  -17.7043 C   0  0  1  0  0  0  0  0  0  0  0  0
   16.7048  -11.0975  -18.3792 O   0  0  0  0  0  0  0  0  0  0  0  0
   18.8991  -11.1288  -17.3880 C   0  0  2  0  0  0  0  0  0  0  0  0
   18.5856  -12.4115  -16.8398 N   0  0  0  0  0  0  0  0  0  0  0  0
   19.8244  -10.3471  -16.5276 C   0  0  0  0  0  0  0  0  0  0  0  0
   19.4658  -10.0094  -15.3702 O   0  0  0  0  0  0  0  0  0  0  0  0
   23.3852   -9.2584  -16.5763 C   0  0  0  0  0  0  0  0  0  0  0  0
   21.9169   -9.1071  -16.1605 C   0  0  2  0  0  0  0  0  0  0  0  0
   21.1178   -9.9609  -16.9688 N   0  0  0  0  0  0  0  0  0  0  0  0
   21.5398   -7.6742  -16.2563 C   0  0  0  0  0  0  0  0  0  0  0  0
   21.2962   -7.0809  -17.3277 O   0  0  0  0  0  0  0  0  0  0  0  0
   18.7212   -5.8874  -15.5710 C   0  0  0  0  0  0  0  0  0  0  0  0
   19.7090   -5.2769  -14.6482 C   0  0  1  0  0  0  0  0  0  0  0  0
   19.4766   -5.7261  -13.3555 O   0  0  0  0  0  0  0  0  0  0  0  0
   21.1456   -5.4975  -15.0443 C   0  0  2  0  0  0  0  0  0  0  0  0
   21.4457   -6.9153  -15.0597 N   0  0  0  0  0  0  0  0  0  0  0  0
   22.0992   -4.7306  -14.2251 C   0  0  0  0  0  0  0  0  0  0  0  0
   22.2537   -3.3735  -14.2575 O   0  0  0  0  0  0  0  0  0  0  0  0
   22.8408   -5.3796  -13.4210 O   0  0  0  0  0  0  0  0  0  0  0  0
  2  1  1  6
  2  3  1  0
  4  2  1  0
  4  5  1  1
  6 10  1  0
  6  4  1  0
  7  6  2  0
  9  8  1  6
  9 11  1  0
  9 10  1  0
 11 12  2  0
 14 13  1  6
 15 14  1  0
 16 18  1  0
 16 14  1  0
 17 11  1  0
 16 17  1  1
 18 19  1  0
 20 18  2  0
M  END
$$$$
