TAT.pdb
     RDKit          3D

 20 19  0  0  1  0  0  0  0  0999 V2000
   18.2067   -9.0592  -11.1447 C   0  0  0  0  0  0  0  0  0  0  0  0
   17.0647   -9.8845  -11.7102 C   0  0  1  0  0  0  0  0  0  0  0  0
   17.4706  -11.1046  -12.1912 O   0  0  0  0  0  0  0  0  0  0  0  0
   16.0442  -10.0214  -10.5816 C   0  0  2  0  0  0  0  0  0  0  0  0
   15.0201  -10.9586  -10.9237 N   0  0  0  0  0  0  0  0  0  0  0  0
   15.5008   -8.6991  -10.1770 C   0  0  0  0  0  0  0  0  0  0  0  0
   14.8695   -8.0013  -11.0117 O   0  0  0  0  0  0  0  0  0  0  0  0
   14.9491   -6.8109   -7.0253 C   0  0  0  0  0  0  0  0  0  0  0  0
   15.1754   -6.8924   -8.5398 C   0  0  2  0  0  0  0  0  0  0  0  0
   15.6694   -8.1853   -8.8639 N   0  0  0  0  0  0  0  0  0  0  0  0
   16.0839   -5.7903   -8.9457 C   0  0  0  0  0  0  0  0  0  0  0  0
   17.3125   -5.7733   -8.7237 O   0  0  0  0  0  0  0  0  0  0  0  0
   15.6544   -4.4953  -12.5044 C   0  0  0  0  0  0  0  0  0  0  0  0
   16.7726   -4.0734  -11.6259 C   0  0  1  0  0  0  0  0  0  0  0  0
   17.5038   -3.0735  -12.2525 O   0  0  0  0  0  0  0  0  0  0  0  0
   16.3482   -3.6447  -10.2455 C   0  0  2  0  0  0  0  0  0  0  0  0
   15.5342   -4.6753   -9.6324 N   0  0  0  0  0  0  0  0  0  0  0  0
   15.6953   -2.3251  -10.2212 C   0  0  0  0  0  0  0  0  0  0  0  0
   16.3371   -1.1252  -10.3440 O   0  0  0  0  0  0  0  0  0  0  0  0
   14.4323   -2.2947  -10.0742 O   0  0  0  0  0  0  0  0  0  0  0  0
  2  1  1  1
  2  3  1  0
  4  2  1  0
  4  5  1  6
  6 10  1  0
  6  4  1  0
  7  6  2  0
  9  8  1  1
  9 11  1  0
  9 10  1  0
 11 12  2  0
 14 13  1  6
 15 14  1  0
 16 18  1  0
 16 14  1  0
 17 11  1  0
 16 17  1  6
 18 19  1  0
 20 18  2  0
M  END
$$$$
