TAT.pdb
     RDKit          3D

 20 19  0  0  1  0  0  0  0  0999 V2000
   29.1422  -27.0022  -16.0544 C   0  0  0  0  0  0  0  0  0  0  0  0
   28.0976  -26.2969  -16.9005 C   0  0  1  0  0  0  0  0  0  0  0  0
   27.6160  -25.1521  -16.3153 O   0  0  0  0  0  0  0  0  0  0  0  0
   28.7633  -26.0185  -18.2471 C   0  0  2  0  0  0  0  0  0  0  0  0
   27.9539  -25.1599  -19.0545 N   0  0  0  0  0  0  0  0  0  0  0  0
   29.1333  -27.2789  -18.9412 C   0  0  0  0  0  0  0  0  0  0  0  0
   28.2359  -27.9978  -19.4511 O   0  0  0  0  0  0  0  0  0  0  0  0
   32.3008  -28.9057  -20.0770 C   0  0  0  0  0  0  0  0  0  0  0  0
   30.7933  -28.8796  -19.7974 C   0  0  2  0  0  0  0  0  0  0  0  0
   30.4820  -27.7094  -19.0527 N   0  0  0  0  0  0  0  0  0  0  0  0
   30.4143  -30.1398  -19.1097 C   0  0  0  0  0  0  0  0  0  0  0  0
   30.4669  -30.3101  -17.8738 O   0  0  0  0  0  0  0  0  0  0  0  0
   27.6290  -34.1427  -19.3581 C   0  0  0  0  0  0  0  0  0  0  0  0
   28.1733  -32.8680  -19.8863 C   0  0  1  0  0  0  0  0  0  0  0  0
   27.2485  -31.8514  -19.6907 O   0  0  0  0  0  0  0  0  0  0  0  0
   29.5177  -32.4878  -19.3230 C   0  0  2  0  0  0  0  0  0  0  0  0
   29.9604  -31.2322  -19.8955 N   0  0  0  0  0  0  0  0  0  0  0  0
   30.5264  -33.5523  -19.4564 C   0  0  0  0  0  0  0  0  0  0  0  0
   30.7065  -34.5829  -18.5777 O   0  0  0  0  0  0  0  0  0  0  0  0
   31.2942  -33.5134  -20.4697 O   0  0  0  0  0  0  0  0  0  0  0  0
  2  1  1  1
  2  3  1  0
  4  2  1  0
  4  5  1  6
  6 10  1  0
  6  4  1  0
  7  6  2  0
  9  8  1  1
  9 11  1  0
  9 10  1  0
 11 12  2  0
 14 13  1  1
 15 14  1  0
 16 18  1  0
 16 14  1  0
 17 11  1  0
 16 17  1  6
 18 19  1  0
 20 18  2  0
M  END
$$$$
