TAT.pdb
     RDKit          3D

 20 19  0  0  1  0  0  0  0  0999 V2000
   22.6767   -9.0938  -18.1436 C   0  0  0  0  0  0  0  0  0  0  0  0
   21.3868   -9.8200  -18.4805 C   0  0  1  0  0  0  0  0  0  0  0  0
   21.5671  -10.8500  -19.3703 O   0  0  0  0  0  0  0  0  0  0  0  0
   20.8147  -10.3034  -17.1490 C   0  0  2  0  0  0  0  0  0  0  0  0
   19.7256  -11.2069  -17.3536 N   0  0  0  0  0  0  0  0  0  0  0  0
   20.4573   -9.1637  -16.2654 C   0  0  0  0  0  0  0  0  0  0  0  0
   19.6596   -8.2818  -16.6754 O   0  0  0  0  0  0  0  0  0  0  0  0
   20.9295   -8.1774  -12.7069 C   0  0  0  0  0  0  0  0  0  0  0  0
   20.7094   -7.8645  -14.1919 C   0  0  2  0  0  0  0  0  0  0  0  0
   20.9900   -9.0301  -14.9558 N   0  0  0  0  0  0  0  0  0  0  0  0
   21.5472   -6.6958  -14.5619 C   0  0  0  0  0  0  0  0  0  0  0  0
   22.7633   -6.7610  -14.8379 O   0  0  0  0  0  0  0  0  0  0  0  0
   21.1669   -4.6061  -17.4493 C   0  0  0  0  0  0  0  0  0  0  0  0
   21.0669   -3.6785  -16.2962 C   0  0  1  0  0  0  0  0  0  0  0  0
   19.7432   -3.3004  -16.1175 O   0  0  0  0  0  0  0  0  0  0  0  0
   21.6502   -4.2167  -15.0158 C   0  0  2  0  0  0  0  0  0  0  0  0
   20.9400   -5.4129  -14.6093 N   0  0  0  0  0  0  0  0  0  0  0  0
   21.7197   -3.2125  -13.9410 C   0  0  0  0  0  0  0  0  0  0  0  0
   21.0270   -3.2671  -12.7646 O   0  0  0  0  0  0  0  0  0  0  0  0
   22.4848   -2.2119  -14.1175 O   0  0  0  0  0  0  0  0  0  0  0  0
  2  1  1  1
  2  3  1  0
  4  2  1  0
  4  5  1  6
  6 10  1  0
  6  4  1  0
  7  6  2  0
  9  8  1  1
  9 11  1  0
  9 10  1  0
 11 12  2  0
 14 13  1  6
 15 14  1  0
 16 18  1  0
 16 14  1  0
 17 11  1  0
 16 17  1  1
 18 19  1  0
 20 18  2  0
M  END
$$$$
