TAT.pdb
     RDKit          3D

 20 19  0  0  1  0  0  0  0  0999 V2000
   16.9681  -13.2354  -15.9477 C   0  0  0  0  0  0  0  0  0  0  0  0
   18.1039  -14.2021  -16.2309 C   0  0  1  0  0  0  0  0  0  0  0  0
   17.7234  -15.5183  -16.1431 O   0  0  0  0  0  0  0  0  0  0  0  0
   18.6245  -13.8453  -17.6222 C   0  0  2  0  0  0  0  0  0  0  0  0
   19.5215  -14.8465  -18.1092 N   0  0  0  0  0  0  0  0  0  0  0  0
   19.2160  -12.4826  -17.6481 C   0  0  0  0  0  0  0  0  0  0  0  0
   20.3259  -12.2729  -17.0947 O   0  0  0  0  0  0  0  0  0  0  0  0
   18.3589   -9.1628  -19.1658 C   0  0  0  0  0  0  0  0  0  0  0  0
   19.1522  -10.0969  -18.2440 C   0  0  2  0  0  0  0  0  0  0  0  0
   18.5660  -11.3914  -18.2833 N   0  0  0  0  0  0  0  0  0  0  0  0
   19.1912   -9.5034  -16.8835 C   0  0  0  0  0  0  0  0  0  0  0  0
   18.2913   -9.6427  -16.0291 O   0  0  0  0  0  0  0  0  0  0  0  0
   22.3213   -9.7248  -14.5375 C   0  0  0  0  0  0  0  0  0  0  0  0
   21.9063   -8.3140  -14.7307 C   0  0  1  0  0  0  0  0  0  0  0  0
   22.7896   -7.6842  -15.5968 O   0  0  0  0  0  0  0  0  0  0  0  0
   20.4837   -8.1448  -15.1964 C   0  0  2  0  0  0  0  0  0  0  0  0
   20.3194   -8.7236  -16.5150 N   0  0  0  0  0  0  0  0  0  0  0  0
   20.0124   -6.7512  -15.1323 C   0  0  0  0  0  0  0  0  0  0  0  0
   19.6672   -5.9850  -16.2095 O   0  0  0  0  0  0  0  0  0  0  0  0
   19.9174   -6.2132  -13.9837 O   0  0  0  0  0  0  0  0  0  0  0  0
  2  1  1  6
  2  3  1  0
  4  2  1  0
  4  5  1  1
  6 10  1  0
  6  4  1  0
  7  6  2  0
  9  8  1  6
  9 11  1  0
  9 10  1  0
 11 12  2  0
 14 13  1  6
 15 14  1  0
 16 18  1  0
 16 14  1  0
 17 11  1  0
 16 17  1  6
 18 19  1  0
 20 18  2  0
M  END
$$$$
