TAT.pdb
     RDKit          3D

 20 19  0  0  1  0  0  0  0  0999 V2000
   25.5594  -22.6922  -12.4995 C   0  0  0  0  0  0  0  0  0  0  0  0
   25.4258  -21.8807  -11.2233 C   0  0  1  0  0  0  0  0  0  0  0  0
   25.9703  -22.5067  -10.1295 O   0  0  0  0  0  0  0  0  0  0  0  0
   26.0919  -20.5355  -11.5073 C   0  0  2  0  0  0  0  0  0  0  0  0
   26.1822  -19.7443  -10.3198 N   0  0  0  0  0  0  0  0  0  0  0  0
   25.4199  -19.8213  -12.6236 C   0  0  0  0  0  0  0  0  0  0  0  0
   24.4053  -19.1149  -12.3921 O   0  0  0  0  0  0  0  0  0  0  0  0
   26.0116  -19.3342  -16.2953 C   0  0  0  0  0  0  0  0  0  0  0  0
   25.2071  -19.2075  -14.9960 C   0  0  2  0  0  0  0  0  0  0  0  0
   25.8867  -19.9073  -13.9620 N   0  0  0  0  0  0  0  0  0  0  0  0
   23.8278  -19.7002  -15.2397 C   0  0  0  0  0  0  0  0  0  0  0  0
   23.4662  -20.8853  -15.0841 O   0  0  0  0  0  0  0  0  0  0  0  0
   19.1466  -18.1972  -16.1141 C   0  0  0  0  0  0  0  0  0  0  0  0
   20.5898  -17.9188  -15.9151 C   0  0  1  0  0  0  0  0  0  0  0  0
   20.7660  -17.1938  -14.7445 O   0  0  0  0  0  0  0  0  0  0  0  0
   21.4644  -19.1453  -15.9249 C   0  0  2  0  0  0  0  0  0  0  0  0
   22.8439  -18.7751  -15.6789 N   0  0  0  0  0  0  0  0  0  0  0  0
   21.3102  -19.9601  -17.1418 C   0  0  0  0  0  0  0  0  0  0  0  0
   20.4313  -20.9953  -17.2917 O   0  0  0  0  0  0  0  0  0  0  0  0
   22.0529  -19.6813  -18.1360 O   0  0  0  0  0  0  0  0  0  0  0  0
  2  1  1  6
  2  3  1  0
  4  2  1  0
  4  5  1  1
  6 10  1  0
  6  4  1  0
  7  6  2  0
  9  8  1  6
  9 11  1  0
  9 10  1  0
 11 12  2  0
 14 13  1  1
 15 14  1  0
 16 18  1  0
 16 14  1  0
 17 11  1  0
 16 17  1  6
 18 19  1  0
 20 18  2  0
M  END
$$$$
