TAT.pdb
     RDKit          3D

 20 19  0  0  1  0  0  0  0  0999 V2000
   20.5116  -13.7048  -17.5728 C   0  0  0  0  0  0  0  0  0  0  0  0
   20.5604  -12.2304  -17.2144 C   0  0  1  0  0  0  0  0  0  0  0  0
   21.2297  -11.4736  -18.1440 O   0  0  0  0  0  0  0  0  0  0  0  0
   19.1074  -11.7878  -17.0506 C   0  0  2  0  0  0  0  0  0  0  0  0
   18.3801  -11.9445  -18.2716 N   0  0  0  0  0  0  0  0  0  0  0  0
   19.0176  -10.4102  -16.5013 C   0  0  0  0  0  0  0  0  0  0  0  0
   19.0693   -9.4231  -17.2791 O   0  0  0  0  0  0  0  0  0  0  0  0
   18.3780   -8.8017  -13.1889 C   0  0  0  0  0  0  0  0  0  0  0  0
   18.9313   -8.8293  -14.6187 C   0  0  2  0  0  0  0  0  0  0  0  0
   18.8735  -10.1619  -15.1105 N   0  0  0  0  0  0  0  0  0  0  0  0
   20.3018   -8.2581  -14.6104 C   0  0  0  0  0  0  0  0  0  0  0  0
   21.3431   -8.9297  -14.4553 O   0  0  0  0  0  0  0  0  0  0  0  0
   20.8546   -4.3539  -16.2555 C   0  0  0  0  0  0  0  0  0  0  0  0
   21.8998   -5.3888  -16.0639 C   0  0  1  0  0  0  0  0  0  0  0  0
   23.1547   -4.7983  -16.1234 O   0  0  0  0  0  0  0  0  0  0  0  0
   21.7457   -6.1989  -14.8031 C   0  0  2  0  0  0  0  0  0  0  0  0
   20.4549   -6.8576  -14.7892 N   0  0  0  0  0  0  0  0  0  0  0  0
   21.9920   -5.4203  -13.5777 C   0  0  0  0  0  0  0  0  0  0  0  0
   23.2170   -4.9984  -13.1441 O   0  0  0  0  0  0  0  0  0  0  0  0
   20.9863   -5.1136  -12.8620 O   0  0  0  0  0  0  0  0  0  0  0  0
  2  1  1  6
  2  3  1  0
  4  2  1  0
  4  5  1  6
  6 10  1  0
  6  4  1  0
  7  6  2  0
  9  8  1  1
  9 11  1  0
  9 10  1  0
 11 12  2  0
 14 13  1  1
 15 14  1  0
 16 18  1  0
 16 14  1  0
 17 11  1  0
 16 17  1  1
 18 19  1  0
 20 18  2  0
M  END
$$$$
