TAT.pdb
     RDKit          3D

 20 19  0  0  1  0  0  0  0  0999 V2000
   17.6090   -8.8644  -18.1840 C   0  0  0  0  0  0  0  0  0  0  0  0
   16.9199   -9.8206  -17.2271 C   0  0  1  0  0  0  0  0  0  0  0  0
   15.8483  -10.4665  -17.7921 O   0  0  0  0  0  0  0  0  0  0  0  0
   17.9974  -10.7963  -16.7571 C   0  0  2  0  0  0  0  0  0  0  0  0
   17.4224  -11.8969  -16.0484 N   0  0  0  0  0  0  0  0  0  0  0  0
   19.0566  -10.1028  -15.9794 C   0  0  0  0  0  0  0  0  0  0  0  0
   18.7520   -9.4691  -14.9364 O   0  0  0  0  0  0  0  0  0  0  0  0
   22.7874   -9.8005  -16.0965 C   0  0  0  0  0  0  0  0  0  0  0  0
   21.3835   -9.3777  -15.6472 C   0  0  2  0  0  0  0  0  0  0  0  0
   20.4203  -10.1285  -16.3747 N   0  0  0  0  0  0  0  0  0  0  0  0
   21.2489   -7.9095  -15.8234 C   0  0  0  0  0  0  0  0  0  0  0  0
   20.7751   -7.3636  -16.8416 O   0  0  0  0  0  0  0  0  0  0  0  0
   19.2553   -5.8266  -13.8369 C   0  0  0  0  0  0  0  0  0  0  0  0
   20.1015   -5.2257  -14.8966 C   0  0  1  0  0  0  0  0  0  0  0  0
   19.9560   -3.8452  -14.8804 O   0  0  0  0  0  0  0  0  0  0  0  0
   21.5552   -5.6142  -14.8232 C   0  0  2  0  0  0  0  0  0  0  0  0
   21.6830   -7.0570  -14.7738 N   0  0  0  0  0  0  0  0  0  0  0  0
   22.2807   -4.9485  -13.7283 C   0  0  0  0  0  0  0  0  0  0  0  0
   22.6791   -3.6416  -13.7262 O   0  0  0  0  0  0  0  0  0  0  0  0
   22.5613   -5.6419  -12.6997 O   0  0  0  0  0  0  0  0  0  0  0  0
  2  1  1  6
  2  3  1  0
  4  2  1  0
  4  5  1  1
  6 10  1  0
  6  4  1  0
  7  6  2  0
  9  8  1  6
  9 11  1  0
  9 10  1  0
 11 12  2  0
 14 13  1  1
 15 14  1  0
 16 18  1  0
 16 14  1  0
 17 11  1  0
 16 17  1  1
 18 19  1  0
 20 18  2  0
M  END
$$$$
