MRS.pdb
     RDKit          3D

 26 25  0  0  1  0  0  0  0  0999 V2000
    7.8553  -11.5272   20.1829 C   0  0  0  0  0  0  0  0  0  0  0  0
    8.0771  -12.8119   18.9520 S   0  0  0  0  0  0  0  0  0  0  0  0
    7.1158  -14.2992   19.2937 C   0  0  0  0  0  0  0  0  0  0  0  0
    6.7790  -14.4119   20.7834 C   0  0  0  0  0  0  0  0  0  0  0  0
    7.9077  -15.1940   21.4101 C   0  0  2  0  0  0  0  0  0  0  0  0
    7.9566  -16.4877   20.8342 N   0  0  0  0  0  0  0  0  0  0  0  0
    7.8092  -15.2653   22.8845 C   0  0  0  0  0  0  0  0  0  0  0  0
    7.6014  -14.2885   23.6312 O   0  0  0  0  0  0  0  0  0  0  0  0
   11.6839  -19.8193   24.7901 N   0  0  0  0  0  0  0  0  0  0  0  0
   11.1783  -20.7795   23.8652 C   0  0  0  0  0  0  0  0  0  0  0  0
   11.9503  -21.3868   23.0388 N   0  0  0  0  0  0  0  0  0  0  0  0
    9.7910  -21.0727   23.8511 N   0  0  0  0  0  0  0  0  0  0  0  0
    8.8257  -20.3896   24.6860 C   0  0  0  0  0  0  0  0  0  0  0  0
    8.8188  -18.9173   24.3487 C   0  0  0  0  0  0  0  0  0  0  0  0
    7.8384  -18.2050   25.2252 C   0  0  0  0  0  0  0  0  0  0  0  0
    7.8563  -16.7306   24.9140 C   0  0  2  0  0  0  0  0  0  0  0  0
    7.9635  -16.5428   23.4993 N   0  0  0  0  0  0  0  0  0  0  0  0
    8.9638  -16.0354   25.6289 C   0  0  0  0  0  0  0  0  0  0  0  0
   10.1629  -16.2342   25.3236 O   0  0  0  0  0  0  0  0  0  0  0  0
   11.5105  -22.0377   22.3419 O   0  0  0  0  0  0  0  0  0  0  0  0
    8.5601  -12.5360   26.6363 C   0  0  0  0  0  0  0  0  0  0  0  0
    9.2259  -13.0639   27.7532 C   0  0  2  0  0  0  0  0  0  0  0  0
    9.6439  -14.4962   27.4605 N   0  0  0  0  0  0  0  0  0  0  0  0
    8.6303  -15.1306   26.6778 C   0  0  0  0  0  0  0  0  0  0  0  0
    9.8325  -15.2187   28.7303 O   0  0  0  0  0  0  0  0  0  0  0  0
   10.7608  -14.7550   29.6419 O   0  0  0  0  0  0  0  0  0  0  0  0
  2  1  1  0
  3  4  1  0
  3  2  1  0
  4  5  1  0
  5  6  1  6
  7  5  1  0
  7  8  2  0
 10  9  1  0
 11 10  2  0
 12 10  1  0
 13 14  1  0
 13 12  1  0
 14 15  1  0
 16 15  1  6
 16 17  1  0
 17  7  1  0
 18 16  1  0
 19 18  2  0
 21 20  1  0
 22 21  1  6
 22 24  1  0
 22 23  1  0
 23 18  1  0
 24 25  1  0
 26 24  2  0
M  END
$$$$
