MRS.pdb
     RDKit          3D

 26 25  0  0  1  0  0  0  0  0999 V2000
    8.4137  -11.6894   27.7608 C   0  0  0  0  0  0  0  0  0  0  0  0
    6.6682  -12.0783   27.8904 S   0  0  0  0  0  0  0  0  0  0  0  0
    6.2725  -13.7590   27.3691 C   0  0  0  0  0  0  0  0  0  0  0  0
    6.0363  -13.8299   25.8577 C   0  0  0  0  0  0  0  0  0  0  0  0
    6.5678  -15.1708   25.4131 C   0  0  2  0  0  0  0  0  0  0  0  0
    7.5974  -15.5819   26.2956 N   0  0  0  0  0  0  0  0  0  0  0  0
    7.0327  -15.1687   24.0086 C   0  0  0  0  0  0  0  0  0  0  0  0
    6.3470  -14.8034   23.0334 O   0  0  0  0  0  0  0  0  0  0  0  0
    7.2592  -15.2467   18.2157 N   0  0  0  0  0  0  0  0  0  0  0  0
    8.0911  -14.2555   17.6171 C   0  0  0  0  0  0  0  0  0  0  0  0
    8.5971  -14.4201   16.4488 N   0  0  0  0  0  0  0  0  0  0  0  0
    8.3721  -13.0591   18.3245 N   0  0  0  0  0  0  0  0  0  0  0  0
    8.3846  -12.9745   19.7696 C   0  0  0  0  0  0  0  0  0  0  0  0
    8.7403  -14.3224   20.3511 C   0  0  0  0  0  0  0  0  0  0  0  0
    8.8002  -14.2269   21.8424 C   0  0  0  0  0  0  0  0  0  0  0  0
    8.9303  -15.6063   22.4351 C   0  0  2  0  0  0  0  0  0  0  0  0
    8.3612  -15.6171   23.7483 N   0  0  0  0  0  0  0  0  0  0  0  0
   10.3512  -16.0547   22.4669 C   0  0  0  0  0  0  0  0  0  0  0  0
   11.1954  -15.4941   23.2041 O   0  0  0  0  0  0  0  0  0  0  0  0
    9.1644  -13.6350   16.0431 O   0  0  0  0  0  0  0  0  0  0  0  0
   11.4853  -18.7637   19.6591 C   0  0  0  0  0  0  0  0  0  0  0  0
   12.0644  -19.0150   20.9125 C   0  0  1  0  0  0  0  0  0  0  0  0
   12.0281  -17.7454   21.7484 N   0  0  0  0  0  0  0  0  0  0  0  0
   10.7363  -17.1447   21.6340 C   0  0  0  0  0  0  0  0  0  0  0  0
   13.0654  -16.8158   21.2691 O   0  0  0  0  0  0  0  0  0  0  0  0
   12.6916  -15.6911   20.5600 O   0  0  0  0  0  0  0  0  0  0  0  0
  2  1  1  0
  3  4  1  0
  3  2  1  0
  4  5  1  0
  5  6  1  1
  7  5  1  0
  7  8  2  0
 10  9  1  0
 11 10  2  0
 12 10  1  0
 13 14  1  0
 13 12  1  0
 14 15  1  0
 16 15  1  1
 16 17  1  0
 17  7  1  0
 18 16  1  0
 19 18  2  0
 21 20  1  0
 22 21  1  1
 22 24  1  0
 22 23  1  0
 23 18  1  0
 24 25  1  0
 26 24  2  0
M  END
$$$$
