MRS.pdb
     RDKit          3D

 26 25  0  0  1  0  0  0  0  0999 V2000
    7.3629  -10.8927   26.2323 C   0  0  0  0  0  0  0  0  0  0  0  0
    5.7466  -11.5801   26.5927 S   0  0  0  0  0  0  0  0  0  0  0  0
    5.5367  -13.2641   25.9819 C   0  0  0  0  0  0  0  0  0  0  0  0
    6.8824  -13.8876   25.6005 C   0  0  0  0  0  0  0  0  0  0  0  0
    6.5597  -15.1906   24.9101 C   0  0  2  0  0  0  0  0  0  0  0  0
    5.8886  -16.0472   25.8176 N   0  0  0  0  0  0  0  0  0  0  0  0
    7.7534  -15.8473   24.3336 C   0  0  0  0  0  0  0  0  0  0  0  0
    8.2317  -16.9281   24.7308 O   0  0  0  0  0  0  0  0  0  0  0  0
    8.9095  -13.8425   16.7532 N   0  0  0  0  0  0  0  0  0  0  0  0
    7.7167  -13.7782   17.5317 C   0  0  0  0  0  0  0  0  0  0  0  0
    6.8040  -12.9081   17.2908 N   0  0  0  0  0  0  0  0  0  0  0  0
    7.5294  -14.6919   18.5997 N   0  0  0  0  0  0  0  0  0  0  0  0
    8.6183  -15.2200   19.3941 C   0  0  0  0  0  0  0  0  0  0  0  0
    8.7453  -14.4221   20.6704 C   0  0  0  0  0  0  0  0  0  0  0  0
    9.9476  -14.8804   21.4326 C   0  0  0  0  0  0  0  0  0  0  0  0
    9.5202  -15.7836   22.5607 C   0  0  2  0  0  0  0  0  0  0  0  0
    8.4069  -15.1991   23.2444 N   0  0  0  0  0  0  0  0  0  0  0  0
   10.6439  -16.0492   23.5028 C   0  0  0  0  0  0  0  0  0  0  0  0
   10.9627  -15.2206   24.3874 O   0  0  0  0  0  0  0  0  0  0  0  0
    6.0112  -12.8245   17.9744 O   0  0  0  0  0  0  0  0  0  0  0  0
   13.3568  -19.4223   25.5114 C   0  0  0  0  0  0  0  0  0  0  0  0
   12.2415  -19.0425   24.7489 C   0  0  1  0  0  0  0  0  0  0  0  0
   12.4213  -17.6102   24.2714 N   0  0  0  0  0  0  0  0  0  0  0  0
   11.3572  -17.2762   23.3776 C   0  0  0  0  0  0  0  0  0  0  0  0
   13.7193  -17.4834   23.5865 O   0  0  0  0  0  0  0  0  0  0  0  0
   14.8838  -17.6986   24.2973 O   0  0  0  0  0  0  0  0  0  0  0  0
  2  1  1  0
  3  4  1  0
  3  2  1  0
  4  5  1  0
  5  6  1  1
  7  5  1  0
  7  8  2  0
 10  9  1  0
 11 10  2  0
 12 10  1  0
 13 14  1  0
 13 12  1  0
 14 15  1  0
 16 15  1  6
 16 17  1  0
 17  7  1  0
 18 16  1  0
 19 18  2  0
 21 20  1  0
 22 21  1  1
 22 24  1  0
 22 23  1  0
 23 18  1  0
 24 25  1  0
 26 24  2  0
M  END
$$$$
