MRS.pdb
     RDKit          3D

 26 25  0  0  1  0  0  0  0  0999 V2000
   10.0952  -17.1649   15.6303 C   0  0  0  0  0  0  0  0  0  0  0  0
    8.4552  -16.6109   15.1629 S   0  0  0  0  0  0  0  0  0  0  0  0
    7.7552  -15.4093   16.3114 C   0  0  0  0  0  0  0  0  0  0  0  0
    8.7374  -15.0834   17.4402 C   0  0  0  0  0  0  0  0  0  0  0  0
    8.0788  -14.0095   18.2716 C   0  0  2  0  0  0  0  0  0  0  0  0
    8.1117  -12.7831   17.5627 N   0  0  0  0  0  0  0  0  0  0  0  0
    8.6826  -13.8703   19.6150 C   0  0  0  0  0  0  0  0  0  0  0  0
    9.6871  -13.1788   19.8747 O   0  0  0  0  0  0  0  0  0  0  0  0
    5.6053  -12.9471   27.5358 N   0  0  0  0  0  0  0  0  0  0  0  0
    6.3954  -12.1518   26.6547 C   0  0  0  0  0  0  0  0  0  0  0  0
    6.4464  -10.8740   26.7675 N   0  0  0  0  0  0  0  0  0  0  0  0
    7.1422  -12.7805   25.6263 N   0  0  0  0  0  0  0  0  0  0  0  0
    7.2103  -14.2166   25.4578 C   0  0  0  0  0  0  0  0  0  0  0  0
    8.2367  -14.5530   24.4019 C   0  0  0  0  0  0  0  0  0  0  0  0
    7.6448  -14.3528   23.0432 C   0  0  0  0  0  0  0  0  0  0  0  0
    8.6752  -14.6658   21.9889 C   0  0  2  0  0  0  0  0  0  0  0  0
    8.0738  -14.5779   20.6931 N   0  0  0  0  0  0  0  0  0  0  0  0
    9.2845  -16.0088   22.2032 C   0  0  0  0  0  0  0  0  0  0  0  0
    8.6388  -17.0603   21.9836 O   0  0  0  0  0  0  0  0  0  0  0  0
    7.0384  -10.3427   26.0820 O   0  0  0  0  0  0  0  0  0  0  0  0
   13.2664  -16.0714   23.2205 C   0  0  0  0  0  0  0  0  0  0  0  0
   12.7402  -17.2276   22.6240 C   0  0  1  0  0  0  0  0  0  0  0  0
   11.2574  -17.3299   22.9442 N   0  0  0  0  0  0  0  0  0  0  0  0
   10.6297  -16.0760   22.6679 C   0  0  0  0  0  0  0  0  0  0  0  0
   11.0880  -17.6812   24.3647 O   0  0  0  0  0  0  0  0  0  0  0  0
   11.5817  -18.8850   24.8282 O   0  0  0  0  0  0  0  0  0  0  0  0
  2  1  1  0
  3  4  1  0
  3  2  1  0
  4  5  1  0
  5  6  1  6
  7  5  1  0
  7  8  2  0
 10  9  1  0
 11 10  2  0
 12 10  1  0
 13 14  1  0
 13 12  1  0
 14 15  1  0
 16 15  1  1
 16 17  1  0
 17  7  1  0
 18 16  1  0
 19 18  2  0
 21 20  1  0
 22 21  1  6
 22 24  1  0
 22 23  1  0
 23 18  1  0
 24 25  1  0
 26 24  2  0
M  END
$$$$
