MRS.pdb
     RDKit          3D

 26 25  0  0  1  0  0  0  0  0999 V2000
    6.0051  -11.1755   25.9062 C   0  0  0  0  0  0  0  0  0  0  0  0
    6.3186  -11.9806   27.4773 S   0  0  0  0  0  0  0  0  0  0  0  0
    6.6856  -13.7390   27.3157 C   0  0  0  0  0  0  0  0  0  0  0  0
    6.0914  -14.3135   26.0265 C   0  0  0  0  0  0  0  0  0  0  0  0
    6.5191  -15.7602   25.9763 C   0  0  2  0  0  0  0  0  0  0  0  0
    7.3610  -16.0377   27.0818 N   0  0  0  0  0  0  0  0  0  0  0  0
    7.1716  -16.1234   24.6992 C   0  0  0  0  0  0  0  0  0  0  0  0
    6.5984  -16.6769   23.7402 O   0  0  0  0  0  0  0  0  0  0  0  0
    8.0998  -12.0435   18.4335 N   0  0  0  0  0  0  0  0  0  0  0  0
    7.9621  -13.4037   18.0286 C   0  0  0  0  0  0  0  0  0  0  0  0
    7.5385  -13.7159   16.8577 N   0  0  0  0  0  0  0  0  0  0  0  0
    8.2967  -14.4402   18.9366 N   0  0  0  0  0  0  0  0  0  0  0  0
    9.0849  -14.2261   20.1317 C   0  0  0  0  0  0  0  0  0  0  0  0
    8.4339  -14.9304   21.2987 C   0  0  0  0  0  0  0  0  0  0  0  0
    9.2791  -14.7647   22.5213 C   0  0  0  0  0  0  0  0  0  0  0  0
    9.2636  -16.0386   23.3263 C   0  0  2  0  0  0  0  0  0  0  0  0
    8.5573  -15.8201   24.5518 N   0  0  0  0  0  0  0  0  0  0  0  0
   10.6440  -16.5351   23.5886 C   0  0  0  0  0  0  0  0  0  0  0  0
   11.4303  -15.9100   24.3380 O   0  0  0  0  0  0  0  0  0  0  0  0
    7.4820  -14.7349   16.6103 O   0  0  0  0  0  0  0  0  0  0  0  0
   11.7532  -19.8015   21.4334 C   0  0  0  0  0  0  0  0  0  0  0  0
   12.4247  -19.7024   22.6617 C   0  0  1  0  0  0  0  0  0  0  0  0
   12.3787  -18.2621   23.1467 N   0  0  0  0  0  0  0  0  0  0  0  0
   11.0580  -17.7471   22.9643 C   0  0  0  0  0  0  0  0  0  0  0  0
   13.3479  -17.4585   22.3820 O   0  0  0  0  0  0  0  0  0  0  0  0
   12.8872  -16.4972   21.5037 O   0  0  0  0  0  0  0  0  0  0  0  0
  2  1  1  0
  3  4  1  0
  3  2  1  0
  4  5  1  0
  5  6  1  1
  7  5  1  0
  7  8  2  0
 10  9  1  0
 11 10  2  0
 12 10  1  0
 13 14  1  0
 13 12  1  0
 14 15  1  0
 16 15  1  1
 16 17  1  0
 17  7  1  0
 18 16  1  0
 19 18  2  0
 21 20  1  0
 22 21  1  1
 22 24  1  0
 22 23  1  0
 23 18  1  0
 24 25  1  0
 26 24  2  0
M  END
$$$$
