MRS.pdb
     RDKit          3D

 26 25  0  0  1  0  0  0  0  0999 V2000
    7.7664  -11.3131   26.7072 C   0  0  0  0  0  0  0  0  0  0  0  0
    6.5395  -12.5550   27.1162 S   0  0  0  0  0  0  0  0  0  0  0  0
    6.0220  -13.5396   25.6965 C   0  0  0  0  0  0  0  0  0  0  0  0
    5.7270  -14.9863   26.1026 C   0  0  0  0  0  0  0  0  0  0  0  0
    6.9938  -15.7628   25.8366 C   0  0  2  0  0  0  0  0  0  0  0  0
    8.0920  -15.0779   26.4131 N   0  0  0  0  0  0  0  0  0  0  0  0
    7.2178  -16.0230   24.3976 C   0  0  0  0  0  0  0  0  0  0  0  0
    6.7391  -16.9858   23.7662 O   0  0  0  0  0  0  0  0  0  0  0  0
    9.1812  -15.2900   17.8597 N   0  0  0  0  0  0  0  0  0  0  0  0
    8.3815  -14.2492   17.3025 C   0  0  0  0  0  0  0  0  0  0  0  0
    7.9774  -14.2921   16.0849 N   0  0  0  0  0  0  0  0  0  0  0  0
    8.0233  -13.1372   18.1061 N   0  0  0  0  0  0  0  0  0  0  0  0
    8.6078  -12.8732   19.4038 C   0  0  0  0  0  0  0  0  0  0  0  0
    8.7661  -14.1713   20.1597 C   0  0  0  0  0  0  0  0  0  0  0  0
    8.2820  -13.9979   21.5641 C   0  0  0  0  0  0  0  0  0  0  0  0
    8.3886  -15.3067   22.3036 C   0  0  2  0  0  0  0  0  0  0  0  0
    8.0414  -15.1079   23.6777 N   0  0  0  0  0  0  0  0  0  0  0  0
    9.7523  -15.8945   22.1786 C   0  0  0  0  0  0  0  0  0  0  0  0
   10.7373  -15.3868   22.7639 O   0  0  0  0  0  0  0  0  0  0  0  0
    7.4805  -13.4501   15.7014 O   0  0  0  0  0  0  0  0  0  0  0  0
    9.8876  -19.2947   20.0372 C   0  0  0  0  0  0  0  0  0  0  0  0
   10.9706  -19.1716   20.9212 C   0  0  1  0  0  0  0  0  0  0  0  0
   11.1865  -17.7035   21.2528 N   0  0  0  0  0  0  0  0  0  0  0  0
    9.9173  -17.0574   21.3720 C   0  0  0  0  0  0  0  0  0  0  0  0
   11.9794  -17.0733   20.1832 O   0  0  0  0  0  0  0  0  0  0  0  0
   13.2940  -17.4553   20.0000 O   0  0  0  0  0  0  0  0  0  0  0  0
  2  1  1  0
  3  4  1  0
  3  2  1  0
  4  5  1  0
  5  6  1  6
  7  5  1  0
  7  8  2  0
 10  9  1  0
 11 10  2  0
 12 10  1  0
 13 14  1  0
 13 12  1  0
 14 15  1  0
 16 15  1  6
 16 17  1  0
 17  7  1  0
 18 16  1  0
 19 18  2  0
 21 20  1  0
 22 21  1  1
 22 24  1  0
 22 23  1  0
 23 18  1  0
 24 25  1  0
 26 24  2  0
M  END
$$$$
