MRS.pdb
     RDKit          3D

 26 25  0  0  1  0  0  0  0  0999 V2000
    6.7721  -11.1492   27.0525 C   0  0  0  0  0  0  0  0  0  0  0  0
    6.6781  -12.4370   28.2966 S   0  0  0  0  0  0  0  0  0  0  0  0
    6.2579  -14.0540   27.6173 C   0  0  0  0  0  0  0  0  0  0  0  0
    7.0551  -14.3443   26.3424 C   0  0  0  0  0  0  0  0  0  0  0  0
    6.6207  -15.7137   25.8793 C   0  0  2  0  0  0  0  0  0  0  0  0
    6.9394  -16.6678   26.8771 N   0  0  0  0  0  0  0  0  0  0  0  0
    7.2006  -16.0896   24.5712 C   0  0  0  0  0  0  0  0  0  0  0  0
    7.7832  -17.1664   24.3350 O   0  0  0  0  0  0  0  0  0  0  0  0
    9.9894  -13.7016   17.3925 N   0  0  0  0  0  0  0  0  0  0  0  0
    8.6431  -13.9637   17.0028 C   0  0  0  0  0  0  0  0  0  0  0  0
    8.1065  -13.3682   16.0002 N   0  0  0  0  0  0  0  0  0  0  0  0
    7.8731  -14.9008   17.7374 N   0  0  0  0  0  0  0  0  0  0  0  0
    7.1890  -14.5745   18.9707 C   0  0  0  0  0  0  0  0  0  0  0  0
    8.2047  -14.3277   20.0612 C   0  0  0  0  0  0  0  0  0  0  0  0
    7.5032  -14.1366   21.3681 C   0  0  0  0  0  0  0  0  0  0  0  0
    7.8861  -15.2430   22.3169 C   0  0  2  0  0  0  0  0  0  0  0  0
    7.0870  -15.1540   23.5010 N   0  0  0  0  0  0  0  0  0  0  0  0
    9.3380  -15.1983   22.6498 C   0  0  0  0  0  0  0  0  0  0  0  0
    9.8121  -14.2965   23.3795 O   0  0  0  0  0  0  0  0  0  0  0  0
    7.1038  -13.5865   15.7771 O   0  0  0  0  0  0  0  0  0  0  0  0
   11.0646  -17.7658   24.1908 C   0  0  0  0  0  0  0  0  0  0  0  0
   11.9131  -17.5733   23.0896 C   0  0  2  0  0  0  0  0  0  0  0  0
   11.5820  -16.2471   22.4237 N   0  0  0  0  0  0  0  0  0  0  0  0
   10.1866  -16.2111   22.1168 C   0  0  0  0  0  0  0  0  0  0  0  0
   12.3774  -16.1077   21.1917 O   0  0  0  0  0  0  0  0  0  0  0  0
   11.7305  -16.0124   19.9751 O   0  0  0  0  0  0  0  0  0  0  0  0
  2  1  1  0
  3  4  1  0
  3  2  1  0
  4  5  1  0
  5  6  1  1
  7  5  1  0
  7  8  2  0
 10  9  1  0
 11 10  2  0
 12 10  1  0
 13 14  1  0
 13 12  1  0
 14 15  1  0
 16 15  1  6
 16 17  1  0
 17  7  1  0
 18 16  1  0
 19 18  2  0
 21 20  1  0
 22 21  1  1
 22 24  1  0
 22 23  1  0
 23 18  1  0
 24 25  1  0
 26 24  2  0
M  END
$$$$
