MRS.pdb
     RDKit          3D

 26 25  0  0  1  0  0  0  0  0999 V2000
    7.4567  -13.0201   21.3322 C   0  0  0  0  0  0  0  0  0  0  0  0
    6.8001  -12.2641   19.8449 S   0  0  0  0  0  0  0  0  0  0  0  0
    7.3143  -13.1027   18.3332 C   0  0  0  0  0  0  0  0  0  0  0  0
    7.9083  -14.4809   18.6379 C   0  0  0  0  0  0  0  0  0  0  0  0
    9.4047  -14.2900   18.6897 C   0  0  2  0  0  0  0  0  0  0  0  0
    9.8999  -14.1154   17.3737 N   0  0  0  0  0  0  0  0  0  0  0  0
   10.1020  -15.3946   19.3843 C   0  0  0  0  0  0  0  0  0  0  0  0
    9.7195  -15.9188   20.4490 O   0  0  0  0  0  0  0  0  0  0  0  0
   12.3196  -16.3023   14.4320 N   0  0  0  0  0  0  0  0  0  0  0  0
   12.4153  -17.6760   14.0621 C   0  0  0  0  0  0  0  0  0  0  0  0
   11.9075  -18.1133   12.9672 N   0  0  0  0  0  0  0  0  0  0  0  0
   13.0830  -18.5857   14.9207 N   0  0  0  0  0  0  0  0  0  0  0  0
   13.6618  -18.2013   16.1906 C   0  0  0  0  0  0  0  0  0  0  0  0
   12.5685  -17.7376   17.1240 C   0  0  0  0  0  0  0  0  0  0  0  0
   13.1589  -17.3746   18.4492 C   0  0  0  0  0  0  0  0  0  0  0  0
   12.0643  -16.9496   19.3939 C   0  0  2  0  0  0  0  0  0  0  0  0
   11.2996  -15.8979   18.7959 N   0  0  0  0  0  0  0  0  0  0  0  0
   12.6153  -16.5242   20.7115 C   0  0  0  0  0  0  0  0  0  0  0  0
   13.4937  -15.6342   20.7943 O   0  0  0  0  0  0  0  0  0  0  0  0
   12.1188  -19.1032   12.6877 O   0  0  0  0  0  0  0  0  0  0  0  0
   10.6253  -17.7539   24.0865 C   0  0  0  0  0  0  0  0  0  0  0  0
   11.4588  -16.6261   24.1394 C   0  0  1  0  0  0  0  0  0  0  0  0
   12.6246  -16.8153   23.1818 N   0  0  0  0  0  0  0  0  0  0  0  0
   12.1197  -17.1556   21.8887 C   0  0  0  0  0  0  0  0  0  0  0  0
   13.4998  -17.8883   23.6844 O   0  0  0  0  0  0  0  0  0  0  0  0
   14.2550  -17.6701   24.8201 O   0  0  0  0  0  0  0  0  0  0  0  0
  2  1  1  0
  3  4  1  0
  3  2  1  0
  4  5  1  0
  5  6  1  6
  7  5  1  0
  7  8  2  0
 10  9  1  0
 11 10  2  0
 12 10  1  0
 13 14  1  0
 13 12  1  0
 14 15  1  0
 16 15  1  6
 16 17  1  0
 17  7  1  0
 18 16  1  0
 19 18  2  0
 21 20  1  0
 22 21  1  6
 22 24  1  0
 22 23  1  0
 23 18  1  0
 24 25  1  0
 26 24  2  0
M  END
$$$$
