RGN.pdb
     RDKit          3D

 24 23  0  0  1  0  0  0  0  0999 V2000
    7.6614  -13.4589   17.8547 N   0  0  0  0  0  0  0  0  0  0  0  0
    7.5863  -13.2978   19.2798 C   0  0  0  0  0  0  0  0  0  0  0  0
    7.9494  -12.1859   19.7767 N   0  0  0  0  0  0  0  0  0  0  0  0
    7.1148  -14.3738   20.0820 N   0  0  0  0  0  0  0  0  0  0  0  0
    7.3391  -15.7558   19.7323 C   0  0  0  0  0  0  0  0  0  0  0  0
    8.3767  -15.8372   18.6725 C   0  0  0  0  0  0  0  0  0  0  0  0
    9.5076  -16.7663   18.9035 C   0  0  0  0  0  0  0  0  0  0  0  0
    9.2628  -17.9039   19.8319 C   0  0  2  0  0  0  0  0  0  0  0  0
    8.3806  -17.5471   20.9179 N   0  0  0  0  0  0  0  0  0  0  0  0
   10.5936  -18.2490   20.4472 C   0  0  0  0  0  0  0  0  0  0  0  0
   11.5652  -18.5405   19.7334 O   0  0  0  0  0  0  0  0  0  0  0  0
    7.9395  -12.0278   20.7877 N   0  0  0  0  0  0  0  0  0  0  0  0
   10.7634  -18.2478   21.8617 C   0  0  0  0  0  0  0  0  0  0  0  0
   12.0213  -17.9879   22.4650 C   0  0  0  0  0  0  0  0  0  0  0  0
   12.0291  -18.0037   23.9487 O   0  0  0  0  0  0  0  0  0  0  0  0
   13.1171  -17.7683   24.5840 N   0  0  0  0  0  0  0  0  0  0  0  0
    8.1881  -15.4276   25.3373 C   0  0  0  0  0  0  0  0  0  0  0  0
    9.4275  -15.9497   25.7393 O   0  0  0  0  0  0  0  0  0  0  0  0
   10.4555  -15.2940   25.3359 C   0  0  0  0  0  0  0  0  0  0  0  0
    9.6947  -17.1253   26.5474 C   0  0  2  0  0  0  0  0  0  0  0  0
   10.9094  -17.9251   26.2039 N   0  0  0  0  0  0  0  0  0  0  0  0
   10.8991  -18.2628   24.7648 C   0  0  0  0  0  0  0  0  0  0  0  0
   11.0220  -19.1786   26.9557 O   0  0  0  0  0  0  0  0  0  0  0  0
   10.9641  -20.2822   26.3840 O   0  0  0  0  0  0  0  0  0  0  0  0
  1  2  1  0
  2  3  2  0
  4  5  1  0
  4  2  1  0
  6  5  1  0
  7  6  1  0
  7  8  1  0
  8  9  1  1
 10  8  1  0
 10 12  1  0
 11 10  2  0
 13 12  1  0
 13 14  1  0
 14 21  1  0
 15 14  2  0
 17 16  1  0
 18 17  2  0
 19 17  1  0
 20 19  1  6
 20 22  1  0
 21 20  1  0
 22 23  2  0
 22 24  1  0
M  END
$$$$
