RGN.pdb
     RDKit          3D

 24 23  0  0  1  0  0  0  0  0999 V2000
   10.4810  -12.6143   19.7960 N   0  0  0  0  0  0  0  0  0  0  0  0
    9.0452  -12.6069   19.7669 C   0  0  0  0  0  0  0  0  0  0  0  0
    8.4295  -12.0528   20.7307 N   0  0  0  0  0  0  0  0  0  0  0  0
    8.3640  -13.2129   18.6748 N   0  0  0  0  0  0  0  0  0  0  0  0
    7.2642  -14.1285   18.8610 C   0  0  0  0  0  0  0  0  0  0  0  0
    7.7913  -15.5025   19.0625 C   0  0  0  0  0  0  0  0  0  0  0  0
    7.7433  -16.4219   17.9014 C   0  0  0  0  0  0  0  0  0  0  0  0
    8.1388  -17.8357   18.1479 C   0  0  2  0  0  0  0  0  0  0  0  0
    7.3091  -18.4731   19.1430 N   0  0  0  0  0  0  0  0  0  0  0  0
    9.5374  -17.7985   18.7058 C   0  0  0  0  0  0  0  0  0  0  0  0
   10.4837  -17.3878   18.0171 O   0  0  0  0  0  0  0  0  0  0  0  0
    7.4077  -12.0643   20.7846 N   0  0  0  0  0  0  0  0  0  0  0  0
    9.8019  -18.2343   20.0361 C   0  0  0  0  0  0  0  0  0  0  0  0
   11.0546  -18.0084   20.6634 C   0  0  0  0  0  0  0  0  0  0  0  0
   11.1406  -18.4355   22.0818 O   0  0  0  0  0  0  0  0  0  0  0  0
   10.1439  -19.0231   22.6332 N   0  0  0  0  0  0  0  0  0  0  0  0
   14.5429  -20.2266   23.1019 C   0  0  0  0  0  0  0  0  0  0  0  0
   14.6632  -19.3924   24.2245 O   0  0  0  0  0  0  0  0  0  0  0  0
   15.8483  -19.2930   24.7093 C   0  0  0  0  0  0  0  0  0  0  0  0
   13.6287  -18.6322   24.9015 C   0  0  2  0  0  0  0  0  0  0  0  0
   12.2503  -18.6987   24.3280 N   0  0  0  0  0  0  0  0  0  0  0  0
   12.2691  -18.2497   22.9196 C   0  0  0  0  0  0  0  0  0  0  0  0
   11.2726  -17.8753   25.0458 O   0  0  0  0  0  0  0  0  0  0  0  0
   10.9519  -16.7462   24.6331 O   0  0  0  0  0  0  0  0  0  0  0  0
  1  2  1  0
  2  3  2  0
  4  5  1  0
  4  2  1  0
  6  5  1  0
  7  6  1  0
  7  8  1  0
  8  9  1  1
 10  8  1  0
 10 12  1  0
 11 10  2  0
 13 12  1  0
 13 14  1  0
 14 21  1  0
 15 14  2  0
 17 16  1  0
 18 17  2  0
 19 17  1  0
 20 19  1  6
 20 22  1  0
 21 20  1  0
 22 23  2  0
 22 24  1  0
M  END
$$$$
