RGN.pdb
     RDKit          3D

 24 23  0  0  1  0  0  0  0  0999 V2000
    7.2978  -14.0068   16.3635 N   0  0  0  0  0  0  0  0  0  0  0  0
    7.6344  -13.3123   17.5745 C   0  0  0  0  0  0  0  0  0  0  0  0
    8.5140  -12.3969   17.5153 N   0  0  0  0  0  0  0  0  0  0  0  0
    6.9823  -13.6656   18.7885 N   0  0  0  0  0  0  0  0  0  0  0  0
    7.7102  -13.9905   19.9916 C   0  0  0  0  0  0  0  0  0  0  0  0
    8.7020  -15.0567   19.6987 C   0  0  0  0  0  0  0  0  0  0  0  0
    9.5849  -15.4824   20.8100 C   0  0  0  0  0  0  0  0  0  0  0  0
    9.1264  -16.6400   21.6259 C   0  0  2  0  0  0  0  0  0  0  0  0
    7.7009  -16.8490   21.5312 N   0  0  0  0  0  0  0  0  0  0  0  0
    9.4218  -16.2957   23.0622 C   0  0  0  0  0  0  0  0  0  0  0  0
   10.5715  -15.9966   23.4186 O   0  0  0  0  0  0  0  0  0  0  0  0
    8.7974  -11.8782   18.3506 N   0  0  0  0  0  0  0  0  0  0  0  0
    8.3864  -16.3068   24.0407 C   0  0  0  0  0  0  0  0  0  0  0  0
    8.6409  -16.0072   25.4043 C   0  0  0  0  0  0  0  0  0  0  0  0
    9.3827  -17.0497   26.1556 O   0  0  0  0  0  0  0  0  0  0  0  0
    8.8546  -18.2033   26.3371 N   0  0  0  0  0  0  0  0  0  0  0  0
   12.9505  -20.4652   28.0600 C   0  0  0  0  0  0  0  0  0  0  0  0
   13.4164  -19.4030   27.2694 O   0  0  0  0  0  0  0  0  0  0  0  0
   14.6099  -19.5399   26.8153 C   0  0  0  0  0  0  0  0  0  0  0  0
   12.7274  -18.1801   26.9004 C   0  0  2  0  0  0  0  0  0  0  0  0
   11.3412  -17.9950   27.4270 N   0  0  0  0  0  0  0  0  0  0  0  0
   10.6758  -16.8847   26.7131 C   0  0  0  0  0  0  0  0  0  0  0  0
   11.2903  -17.6971   28.8616 O   0  0  0  0  0  0  0  0  0  0  0  0
   11.2060  -16.5269   29.2758 O   0  0  0  0  0  0  0  0  0  0  0  0
  1  2  1  0
  2  3  2  0
  4  5  1  0
  4  2  1  0
  6  5  1  0
  7  6  1  0
  7  8  1  0
  8  9  1  1
 10  8  1  0
 10 12  1  0
 11 10  2  0
 13 12  1  0
 13 14  1  0
 14 21  1  0
 15 14  2  0
 17 16  1  0
 18 17  2  0
 19 17  1  0
 20 19  1  6
 20 22  1  0
 21 20  1  0
 22 23  2  0
 22 24  1  0
M  END
$$$$
