RGN.pdb
     RDKit          3D

 24 23  0  0  1  0  0  0  0  0999 V2000
   10.5224  -13.7275   19.6716 N   0  0  0  0  0  0  0  0  0  0  0  0
    9.2738  -13.3415   19.0765 C   0  0  0  0  0  0  0  0  0  0  0  0
    9.3066  -12.6557   18.0071 N   0  0  0  0  0  0  0  0  0  0  0  0
    8.0534  -13.7323   19.6944 N   0  0  0  0  0  0  0  0  0  0  0  0
    7.7592  -13.4438   21.0774 C   0  0  0  0  0  0  0  0  0  0  0  0
    6.9631  -14.5555   21.6577 C   0  0  0  0  0  0  0  0  0  0  0  0
    6.6824  -14.4989   23.1115 C   0  0  0  0  0  0  0  0  0  0  0  0
    7.6552  -15.1789   24.0099 C   0  0  2  0  0  0  0  0  0  0  0  0
    8.5395  -16.0661   23.2918 N   0  0  0  0  0  0  0  0  0  0  0  0
    6.8459  -16.0358   24.9478 C   0  0  0  0  0  0  0  0  0  0  0  0
    5.6069  -16.0432   24.8896 O   0  0  0  0  0  0  0  0  0  0  0  0
    8.4473  -12.3988   17.5146 N   0  0  0  0  0  0  0  0  0  0  0  0
    7.4871  -16.8552   25.9210 C   0  0  0  0  0  0  0  0  0  0  0  0
    7.5569  -18.2659   25.7841 C   0  0  0  0  0  0  0  0  0  0  0  0
    8.9205  -18.8450   25.8666 O   0  0  0  0  0  0  0  0  0  0  0  0
    9.0724  -20.1169   25.9108 N   0  0  0  0  0  0  0  0  0  0  0  0
   11.3715  -17.8860   23.3721 C   0  0  0  0  0  0  0  0  0  0  0  0
   12.4249  -17.6145   24.2594 O   0  0  0  0  0  0  0  0  0  0  0  0
   13.4112  -16.9636   23.7567 C   0  0  0  0  0  0  0  0  0  0  0  0
   12.5409  -17.9706   25.6616 C   0  0  2  0  0  0  0  0  0  0  0  0
   11.4050  -18.7299   26.2667 N   0  0  0  0  0  0  0  0  0  0  0  0
   10.1222  -18.0934   25.8999 C   0  0  0  0  0  0  0  0  0  0  0  0
   11.4616  -18.8092   27.7295 O   0  0  0  0  0  0  0  0  0  0  0  0
   10.6391  -18.2054   28.4415 O   0  0  0  0  0  0  0  0  0  0  0  0
  1  2  1  0
  2  3  2  0
  4  5  1  0
  4  2  1  0
  6  5  1  0
  7  6  1  0
  7  8  1  0
  8  9  1  6
 10  8  1  0
 10 12  1  0
 11 10  2  0
 13 12  1  0
 13 14  1  0
 14 21  1  0
 15 14  2  0
 17 16  1  0
 18 17  2  0
 19 17  1  0
 20 19  1  6
 20 22  1  0
 21 20  1  0
 22 23  2  0
 22 24  1  0
M  END
$$$$
