RGN.pdb
     RDKit          3D

 24 23  0  0  1  0  0  0  0  0999 V2000
    8.7258  -14.0189   16.5510 N   0  0  0  0  0  0  0  0  0  0  0  0
    7.8035  -13.3912   17.4552 C   0  0  0  0  0  0  0  0  0  0  0  0
    6.9631  -12.5667   16.9768 N   0  0  0  0  0  0  0  0  0  0  0  0
    7.8579  -13.7065   18.8414 N   0  0  0  0  0  0  0  0  0  0  0  0
    8.6467  -14.8001   19.3558 C   0  0  0  0  0  0  0  0  0  0  0  0
    7.8631  -16.0592   19.2724 C   0  0  0  0  0  0  0  0  0  0  0  0
    8.5967  -17.2878   18.8878 C   0  0  0  0  0  0  0  0  0  0  0  0
    8.9927  -18.2061   19.9905 C   0  0  2  0  0  0  0  0  0  0  0  0
    7.9368  -18.3907   20.9579 N   0  0  0  0  0  0  0  0  0  0  0  0
   10.1343  -17.5406   20.7132 C   0  0  0  0  0  0  0  0  0  0  0  0
   11.0658  -17.0187   20.0821 O   0  0  0  0  0  0  0  0  0  0  0  0
    6.3491  -12.0206   17.5866 N   0  0  0  0  0  0  0  0  0  0  0  0
   10.1676  -17.4972   22.1369 C   0  0  0  0  0  0  0  0  0  0  0  0
   10.9876  -16.5764   22.8394 C   0  0  0  0  0  0  0  0  0  0  0  0
   10.9187  -16.6653   24.3189 O   0  0  0  0  0  0  0  0  0  0  0  0
   11.6808  -15.9283   25.0391 N   0  0  0  0  0  0  0  0  0  0  0  0
    6.4030  -16.9959   25.4447 C   0  0  0  0  0  0  0  0  0  0  0  0
    7.5505  -16.6257   26.1635 O   0  0  0  0  0  0  0  0  0  0  0  0
    7.8101  -15.3679   26.1719 C   0  0  0  0  0  0  0  0  0  0  0  0
    8.4732  -17.4748   26.8942 C   0  0  2  0  0  0  0  0  0  0  0  0
    9.9153  -17.4015   26.5092 N   0  0  0  0  0  0  0  0  0  0  0  0
   10.0512  -17.5224   25.0421 C   0  0  0  0  0  0  0  0  0  0  0  0
   10.7429  -18.4452   27.1215 O   0  0  0  0  0  0  0  0  0  0  0  0
   10.8024  -18.5807   28.3569 O   0  0  0  0  0  0  0  0  0  0  0  0
  1  2  1  0
  2  3  2  0
  4  5  1  0
  4  2  1  0
  6  5  1  0
  7  6  1  0
  7  8  1  0
  8  9  1  1
 10  8  1  0
 10 12  1  0
 11 10  2  0
 13 12  1  0
 13 14  1  0
 14 21  1  0
 15 14  2  0
 17 16  1  0
 18 17  2  0
 19 17  1  0
 20 19  1  6
 20 22  1  0
 21 20  1  0
 22 23  2  0
 22 24  1  0
M  END
$$$$
