RGN.pdb
     RDKit          3D

 24 23  0  0  1  0  0  0  0  0999 V2000
    7.2697  -13.4524   16.8867 N   0  0  0  0  0  0  0  0  0  0  0  0
    7.9123  -13.3833   18.1691 C   0  0  0  0  0  0  0  0  0  0  0  0
    7.9303  -12.2638   18.7704 N   0  0  0  0  0  0  0  0  0  0  0  0
    8.5025  -14.5544   18.7204 N   0  0  0  0  0  0  0  0  0  0  0  0
    8.5032  -14.8267   20.1376 C   0  0  0  0  0  0  0  0  0  0  0  0
    7.1071  -15.0211   20.6061 C   0  0  0  0  0  0  0  0  0  0  0  0
    6.9066  -15.2521   22.0560 C   0  0  0  0  0  0  0  0  0  0  0  0
    8.0856  -15.7302   22.8289 C   0  0  2  0  0  0  0  0  0  0  0  0
    8.6415  -16.9476   22.2867 N   0  0  0  0  0  0  0  0  0  0  0  0
    7.5872  -16.0572   24.2122 C   0  0  0  0  0  0  0  0  0  0  0  0
    6.8677  -15.2590   24.8317 O   0  0  0  0  0  0  0  0  0  0  0  0
    8.3194  -12.1735   19.7125 N   0  0  0  0  0  0  0  0  0  0  0  0
    7.9323  -17.2900   24.8374 C   0  0  0  0  0  0  0  0  0  0  0  0
    7.5364  -17.5928   26.1660 C   0  0  0  0  0  0  0  0  0  0  0  0
    8.4741  -17.1456   27.2254 O   0  0  0  0  0  0  0  0  0  0  0  0
    8.2400  -17.4393   28.4509 N   0  0  0  0  0  0  0  0  0  0  0  0
    7.7192  -13.2715   27.8178 C   0  0  0  0  0  0  0  0  0  0  0  0
    9.0296  -13.7723   27.7673 O   0  0  0  0  0  0  0  0  0  0  0  0
    9.7235  -13.3911   26.7561 C   0  0  0  0  0  0  0  0  0  0  0  0
    9.6965  -14.6573   28.7045 C   0  0  2  0  0  0  0  0  0  0  0  0
   10.4225  -15.8314   28.1324 N   0  0  0  0  0  0  0  0  0  0  0  0
    9.6556  -16.3948   27.0011 C   0  0  0  0  0  0  0  0  0  0  0  0
   10.6515  -16.9107   29.0978 O   0  0  0  0  0  0  0  0  0  0  0  0
   10.9484  -16.6667   30.2811 O   0  0  0  0  0  0  0  0  0  0  0  0
  1  2  1  0
  2  3  2  0
  4  5  1  0
  4  2  1  0
  6  5  1  0
  7  6  1  0
  7  8  1  0
  8  9  1  6
 10  8  1  0
 10 12  1  0
 11 10  2  0
 13 12  1  0
 13 14  1  0
 14 21  1  0
 15 14  2  0
 17 16  1  0
 18 17  2  0
 19 17  1  0
 20 19  1  6
 20 22  1  0
 21 20  1  0
 22 23  2  0
 22 24  1  0
M  END
$$$$
