TAL.pdb
     RDKit          3D

 21 20  0  0  1  0  0  0  0  0999 V2000
   13.7965   -9.9419  -14.8819 C   0  0  0  0  0  0  0  0  0  0  0  0
   14.3237  -11.1618  -14.1327 C   0  0  1  0  0  0  0  0  0  0  0  0
   13.8823  -12.2688  -14.8730 O   0  0  0  0  0  0  0  0  0  0  0  0
   15.8330  -11.1135  -14.0898 C   0  0  2  0  0  0  0  0  0  0  0  0
   16.2816  -12.3895  -13.5150 N   0  0  0  0  0  0  0  0  0  0  0  0
   16.2828   -9.9863  -13.2230 C   0  0  0  0  0  0  0  0  0  0  0  0
   15.9773  -10.0018  -12.0158 O   0  0  0  0  0  0  0  0  0  0  0  0
   18.3200   -6.8957  -13.9313 C   0  0  0  0  0  0  0  0  0  0  0  0
   17.3952   -7.7179  -13.1060 C   0  0  2  0  0  0  0  0  0  0  0  0
   17.0322   -8.9376  -13.7665 N   0  0  0  0  0  0  0  0  0  0  0  0
   16.1731   -6.9627  -12.6589 C   0  0  0  0  0  0  0  0  0  0  0  0
   15.1709   -7.0089  -13.4106 O   0  0  0  0  0  0  0  0  0  0  0  0
   15.6514   -7.8319   -8.6992 C   0  0  0  0  0  0  0  0  0  0  0  0
   15.1762   -6.4104   -8.6439 C   0  0  2  0  0  0  0  0  0  0  0  0
   14.5689   -6.0664   -7.2937 C   0  0  0  0  0  0  0  0  0  0  0  0
   14.3348   -5.9726   -9.7820 C   0  0  0  0  0  0  0  0  0  0  0  0
   15.0115   -5.4647  -10.9945 C   0  0  2  0  0  0  0  0  0  0  0  0
   16.1413   -6.2304  -11.4449 N   0  0  0  0  0  0  0  0  0  0  0  0
   15.4664   -4.0571  -10.6606 C   0  0  0  0  0  0  0  0  0  0  0  0
   16.7760   -3.7018  -10.5191 O   0  0  0  0  0  0  0  0  0  0  0  0
   14.5604   -3.1761  -10.5072 O   0  0  0  0  0  0  0  0  0  0  0  0
  2  1  1  6
  3  2  1  0
  4  2  1  0
  4  6  1  0
  4  5  1  1
  6 10  1  0
  7  6  2  0
  9  8  1  6
 10  9  1  0
 11  9  1  0
 11 12  2  0
 14 15  1  1
 14 13  1  0
 16 14  1  0
 17 18  1  0
 17 16  1  1
 18 11  1  0
 19 17  1  0
 20 19  1  0
 21 19  2  0
M  END
$$$$
