TAL.pdb
     RDKit          3D

 21 20  0  0  1  0  0  0  0  0999 V2000
   28.5505  -21.5926  -13.4885 C   0  0  0  0  0  0  0  0  0  0  0  0
   28.6388  -20.2823  -14.2651 C   0  0  1  0  0  0  0  0  0  0  0  0
   29.2733  -20.6109  -15.4725 O   0  0  0  0  0  0  0  0  0  0  0  0
   27.2472  -19.7518  -14.5183 C   0  0  2  0  0  0  0  0  0  0  0  0
   27.3982  -18.5379  -15.3329 N   0  0  0  0  0  0  0  0  0  0  0  0
   26.5883  -19.4100  -13.2247 C   0  0  0  0  0  0  0  0  0  0  0  0
   26.9013  -18.3466  -12.6572 O   0  0  0  0  0  0  0  0  0  0  0  0
   23.4465  -20.4148  -11.6563 C   0  0  0  0  0  0  0  0  0  0  0  0
   24.8773  -20.0505  -11.4758 C   0  0  2  0  0  0  0  0  0  0  0  0
   25.6394  -20.2748  -12.6693 N   0  0  0  0  0  0  0  0  0  0  0  0
   25.5147  -20.7287  -10.2937 C   0  0  0  0  0  0  0  0  0  0  0  0
   25.8325  -21.9333  -10.4339 O   0  0  0  0  0  0  0  0  0  0  0  0
   29.0488  -20.4729   -6.8859 C   0  0  0  0  0  0  0  0  0  0  0  0
   28.0346  -19.3710   -6.8040 C   0  0  2  0  0  0  0  0  0  0  0  0
   28.3694  -18.3708   -5.7096 C   0  0  0  0  0  0  0  0  0  0  0  0
   26.6187  -19.8060   -6.7729 C   0  0  0  0  0  0  0  0  0  0  0  0
   26.1398  -20.6984   -7.8500 C   0  0  2  0  0  0  0  0  0  0  0  0
   25.7533  -20.0487   -9.0723 N   0  0  0  0  0  0  0  0  0  0  0  0
   24.9441  -21.4369   -7.2801 C   0  0  0  0  0  0  0  0  0  0  0  0
   25.0482  -22.5474   -6.4945 O   0  0  0  0  0  0  0  0  0  0  0  0
   23.7907  -20.9791   -7.5643 O   0  0  0  0  0  0  0  0  0  0  0  0
  2  1  1  1
  3  2  1  0
  4  2  1  0
  4  6  1  0
  4  5  1  6
  6 10  1  0
  7  6  2  0
  9  8  1  6
 10  9  1  0
 11  9  1  0
 11 12  2  0
 14 15  1  1
 14 13  1  0
 16 14  1  0
 17 18  1  0
 17 16  1  1
 18 11  1  0
 19 17  1  0
 20 19  1  0
 21 19  2  0
M  END
$$$$
