TAL.pdb
     RDKit          3D

 21 20  0  0  1  0  0  0  0  0999 V2000
   18.0443  -13.4001  -15.2841 C   0  0  0  0  0  0  0  0  0  0  0  0
   18.8026  -14.5218  -15.9871 C   0  0  1  0  0  0  0  0  0  0  0  0
   18.0041  -15.6642  -15.8266 O   0  0  0  0  0  0  0  0  0  0  0  0
   18.9631  -14.1818  -17.4503 C   0  0  2  0  0  0  0  0  0  0  0  0
   19.5604  -15.3592  -18.0959 N   0  0  0  0  0  0  0  0  0  0  0  0
   19.8714  -13.0091  -17.6048 C   0  0  0  0  0  0  0  0  0  0  0  0
   21.0932  -13.1720  -17.4274 O   0  0  0  0  0  0  0  0  0  0  0  0
   19.2814   -9.4567  -18.6934 C   0  0  0  0  0  0  0  0  0  0  0  0
   20.0809  -10.5262  -18.0381 C   0  0  2  0  0  0  0  0  0  0  0  0
   19.3498  -11.7557  -17.9422 N   0  0  0  0  0  0  0  0  0  0  0  0
   20.6269  -10.1175  -16.6970 C   0  0  0  0  0  0  0  0  0  0  0  0
   19.8822  -10.2927  -15.7038 O   0  0  0  0  0  0  0  0  0  0  0  0
   24.1898  -11.4438  -14.3978 C   0  0  0  0  0  0  0  0  0  0  0  0
   24.6430  -10.3548  -15.3242 C   0  0  2  0  0  0  0  0  0  0  0  0
   26.1544  -10.1943  -15.3161 C   0  0  0  0  0  0  0  0  0  0  0  0
   23.9264   -9.0647  -15.1937 C   0  0  0  0  0  0  0  0  0  0  0  0
   22.4521   -9.0719  -15.3046 C   0  0  2  0  0  0  0  0  0  0  0  0
   21.9227   -9.5610  -16.5481 N   0  0  0  0  0  0  0  0  0  0  0  0
   22.0112   -7.6342  -15.1082 C   0  0  0  0  0  0  0  0  0  0  0  0
   21.8451   -7.0574  -13.8831 O   0  0  0  0  0  0  0  0  0  0  0  0
   21.7883   -6.9478  -16.1569 O   0  0  0  0  0  0  0  0  0  0  0  0
  2  1  1  1
  3  2  1  0
  4  2  1  0
  4  6  1  0
  4  5  1  6
  6 10  1  0
  7  6  2  0
  9  8  1  1
 10  9  1  0
 11  9  1  0
 11 12  2  0
 14 15  1  1
 14 13  1  0
 16 14  1  0
 17 18  1  0
 17 16  1  6
 18 11  1  0
 19 17  1  0
 20 19  1  0
 21 19  2  0
M  END
$$$$
