TAL.pdb
     RDKit          3D

 21 20  0  0  1  0  0  0  0  0999 V2000
   44.0974   -6.7216  -11.1671 C   0  0  0  0  0  0  0  0  0  0  0  0
   44.9331   -7.7482  -10.4088 C   0  0  1  0  0  0  0  0  0  0  0  0
   45.9112   -8.1738  -11.3202 O   0  0  0  0  0  0  0  0  0  0  0  0
   45.5706   -7.0908   -9.2072 C   0  0  2  0  0  0  0  0  0  0  0  0
   46.3098   -8.1407   -8.4922 N   0  0  0  0  0  0  0  0  0  0  0  0
   44.5169   -6.5234   -8.3173 C   0  0  0  0  0  0  0  0  0  0  0  0
   43.7932   -7.3062   -7.6735 O   0  0  0  0  0  0  0  0  0  0  0  0
   43.7019   -3.0226   -7.2386 C   0  0  0  0  0  0  0  0  0  0  0  0
   43.3499   -4.4511   -7.4570 C   0  0  2  0  0  0  0  0  0  0  0  0
   44.3536   -5.1378   -8.2162 N   0  0  0  0  0  0  0  0  0  0  0  0
   41.9888   -4.6366   -8.0707 C   0  0  0  0  0  0  0  0  0  0  0  0
   41.9291   -4.6590   -9.3228 O   0  0  0  0  0  0  0  0  0  0  0  0
   36.2344   -6.3845   -6.3632 C   0  0  0  0  0  0  0  0  0  0  0  0
   37.2095   -6.0221   -7.4437 C   0  0  2  0  0  0  0  0  0  0  0  0
   37.0649   -6.9177   -8.6632 C   0  0  0  0  0  0  0  0  0  0  0  0
   38.6170   -5.8648   -7.0086 C   0  0  0  0  0  0  0  0  0  0  0  0
   39.5061   -5.0073   -7.8210 C   0  0  2  0  0  0  0  0  0  0  0  0
   40.8194   -4.7832   -7.2819 N   0  0  0  0  0  0  0  0  0  0  0  0
   38.7918   -3.6766   -7.9588 C   0  0  0  0  0  0  0  0  0  0  0  0
   38.0341   -3.3363   -9.0411 O   0  0  0  0  0  0  0  0  0  0  0  0
   38.9213   -2.8474   -7.0016 O   0  0  0  0  0  0  0  0  0  0  0  0
  2  1  1  6
  3  2  1  0
  4  2  1  0
  4  6  1  0
  4  5  1  1
  6 10  1  0
  7  6  2  0
  9  8  1  6
 10  9  1  0
 11  9  1  0
 11 12  2  0
 14 15  1  6
 14 13  1  0
 16 14  1  0
 17 18  1  0
 17 16  1  1
 18 11  1  0
 19 17  1  0
 20 19  1  0
 21 19  2  0
M  END
$$$$
