TAL.pdb
     RDKit          3D

 21 20  0  0  1  0  0  0  0  0999 V2000
   28.4386  -22.3090  -16.4796 C   0  0  0  0  0  0  0  0  0  0  0  0
   27.6878  -21.8570  -15.2308 C   0  0  1  0  0  0  0  0  0  0  0  0
   28.6409  -21.8716  -14.2015 O   0  0  0  0  0  0  0  0  0  0  0  0
   27.1503  -20.4613  -15.4434 C   0  0  2  0  0  0  0  0  0  0  0  0
   28.3001  -19.6119  -15.7846 N   0  0  0  0  0  0  0  0  0  0  0  0
   26.5125  -19.9639  -14.1903 C   0  0  0  0  0  0  0  0  0  0  0  0
   27.1882  -19.2638  -13.4130 O   0  0  0  0  0  0  0  0  0  0  0  0
   22.9734  -19.9528  -12.9715 C   0  0  0  0  0  0  0  0  0  0  0  0
   24.4415  -19.8920  -12.7405 C   0  0  2  0  0  0  0  0  0  0  0  0
   25.1813  -20.2843  -13.9043 N   0  0  0  0  0  0  0  0  0  0  0  0
   24.8821  -20.6738  -11.5328 C   0  0  0  0  0  0  0  0  0  0  0  0
   25.0333  -21.9095  -11.6809 O   0  0  0  0  0  0  0  0  0  0  0  0
   28.3917  -20.6132   -8.5111 C   0  0  0  0  0  0  0  0  0  0  0  0
   27.4015  -19.5395   -8.1703 C   0  0  2  0  0  0  0  0  0  0  0  0
   27.8951  -18.6489   -7.0418 C   0  0  0  0  0  0  0  0  0  0  0  0
   26.0054  -19.9954   -7.9753 C   0  0  0  0  0  0  0  0  0  0  0  0
   25.3681  -20.7728   -9.0594 C   0  0  2  0  0  0  0  0  0  0  0  0
   25.1212  -20.0545  -10.2796 N   0  0  0  0  0  0  0  0  0  0  0  0
   24.0489  -21.2681   -8.4988 C   0  0  0  0  0  0  0  0  0  0  0  0
   23.9508  -22.2578   -7.5650 O   0  0  0  0  0  0  0  0  0  0  0  0
   22.9888  -20.7173   -8.9386 O   0  0  0  0  0  0  0  0  0  0  0  0
  2  1  1  6
  3  2  1  0
  4  2  1  0
  4  6  1  0
  4  5  1  1
  6 10  1  0
  7  6  2  0
  9  8  1  6
 10  9  1  0
 11  9  1  0
 11 12  2  0
 14 15  1  1
 14 13  1  0
 16 14  1  0
 17 18  1  0
 17 16  1  1
 18 11  1  0
 19 17  1  0
 20 19  1  0
 21 19  2  0
M  END
$$$$
