TAL.pdb
     RDKit          3D

 21 20  0  0  1  0  0  0  0  0999 V2000
   16.1937  -22.5248    4.1775 C   0  0  0  0  0  0  0  0  0  0  0  0
   15.8599  -22.2422    2.7159 C   0  0  1  0  0  0  0  0  0  0  0  0
   15.8404  -23.4988    2.0921 O   0  0  0  0  0  0  0  0  0  0  0  0
   14.5052  -21.5793    2.6274 C   0  0  2  0  0  0  0  0  0  0  0  0
   14.1283  -21.5735    1.2070 N   0  0  0  0  0  0  0  0  0  0  0  0
   14.5893  -20.1779    3.1306 C   0  0  0  0  0  0  0  0  0  0  0  0
   15.0495  -19.2991    2.3777 O   0  0  0  0  0  0  0  0  0  0  0  0
   13.5078  -18.5978    6.3786 C   0  0  0  0  0  0  0  0  0  0  0  0
   14.1040  -18.5638    5.0163 C   0  0  2  0  0  0  0  0  0  0  0  0
   14.1573  -19.8687    4.4247 N   0  0  0  0  0  0  0  0  0  0  0  0
   15.4535  -17.8995    4.9789 C   0  0  0  0  0  0  0  0  0  0  0  0
   16.4540  -18.6375    5.1395 O   0  0  0  0  0  0  0  0  0  0  0  0
   18.1109  -12.4177    3.4374 C   0  0  0  0  0  0  0  0  0  0  0  0
   18.1928  -13.8741    3.7860 C   0  0  2  0  0  0  0  0  0  0  0  0
   19.1492  -14.6239    2.8731 C   0  0  0  0  0  0  0  0  0  0  0  0
   16.8933  -14.5662    3.9516 C   0  0  0  0  0  0  0  0  0  0  0  0
   16.8682  -15.8265    4.7242 C   0  0  2  0  0  0  0  0  0  0  0  0
   15.6018  -16.5047    4.7700 N   0  0  0  0  0  0  0  0  0  0  0  0
   17.2869  -15.4602    6.1351 C   0  0  0  0  0  0  0  0  0  0  0  0
   16.4508  -14.8783    7.0424 O   0  0  0  0  0  0  0  0  0  0  0  0
   18.4883  -15.7175    6.4684 O   0  0  0  0  0  0  0  0  0  0  0  0
  2  1  1  1
  3  2  1  0
  4  2  1  0
  4  6  1  0
  4  5  1  6
  6 10  1  0
  7  6  2  0
  9  8  1  1
 10  9  1  0
 11  9  1  0
 11 12  2  0
 14 15  1  6
 14 13  1  0
 16 14  1  0
 17 18  1  0
 17 16  1  6
 18 11  1  0
 19 17  1  0
 20 19  1  0
 21 19  2  0
M  END
$$$$
