TAL.pdb
     RDKit          3D

 21 20  0  0  1  0  0  0  0  0999 V2000
   21.1848  -10.4084  -19.9877 C   0  0  0  0  0  0  0  0  0  0  0  0
   20.0124  -11.1943  -19.4085 C   0  0  1  0  0  0  0  0  0  0  0  0
   19.5087  -11.9482  -20.4790 O   0  0  0  0  0  0  0  0  0  0  0  0
   20.5079  -12.0976  -18.3036 C   0  0  2  0  0  0  0  0  0  0  0  0
   19.3811  -12.9621  -17.9257 N   0  0  0  0  0  0  0  0  0  0  0  0
   20.9311  -11.2818  -17.1290 C   0  0  0  0  0  0  0  0  0  0  0  0
   20.0959  -10.5314  -16.5903 O   0  0  0  0  0  0  0  0  0  0  0  0
   24.2080  -10.9880  -15.2904 C   0  0  0  0  0  0  0  0  0  0  0  0
   22.8450  -10.5216  -15.6608 C   0  0  2  0  0  0  0  0  0  0  0  0
   22.2431  -11.3658  -16.6510 N   0  0  0  0  0  0  0  0  0  0  0  0
   22.8104   -9.0795  -16.0886 C   0  0  0  0  0  0  0  0  0  0  0  0
   23.1386   -8.8309  -17.2727 O   0  0  0  0  0  0  0  0  0  0  0  0
   20.7663   -3.8935  -15.5438 C   0  0  0  0  0  0  0  0  0  0  0  0
   20.7585   -4.9142  -16.6427 C   0  0  2  0  0  0  0  0  0  0  0  0
   19.5562   -4.7539  -17.5587 C   0  0  0  0  0  0  0  0  0  0  0  0
   20.9733   -6.3163  -16.2148 C   0  0  0  0  0  0  0  0  0  0  0  0
   22.2698   -6.6653  -15.5957 C   0  0  2  0  0  0  0  0  0  0  0  0
   22.4242   -8.0398  -15.2049 N   0  0  0  0  0  0  0  0  0  0  0  0
   22.3984   -5.7826  -14.3693 C   0  0  0  0  0  0  0  0  0  0  0  0
   21.9272   -6.1307  -13.1373 O   0  0  0  0  0  0  0  0  0  0  0  0
   22.9797   -4.6603  -14.5213 O   0  0  0  0  0  0  0  0  0  0  0  0
  2  1  1  6
  3  2  1  0
  4  2  1  0
  4  6  1  0
  4  5  1  1
  6 10  1  0
  7  6  2  0
  9  8  1  6
 10  9  1  0
 11  9  1  0
 11 12  2  0
 14 15  1  1
 14 13  1  0
 16 14  1  0
 17 18  1  0
 17 16  1  1
 18 11  1  0
 19 17  1  0
 20 19  1  0
 21 19  2  0
M  END
$$$$
