TAL.pdb
     RDKit          3D

 21 20  0  0  1  0  0  0  0  0999 V2000
   26.1525  -23.7327  -17.2317 C   0  0  0  0  0  0  0  0  0  0  0  0
   27.6387  -23.7630  -16.8880 C   0  0  1  0  0  0  0  0  0  0  0  0
   28.2378  -24.5190  -17.9067 O   0  0  0  0  0  0  0  0  0  0  0  0
   28.1822  -22.3535  -16.8768 C   0  0  2  0  0  0  0  0  0  0  0  0
   29.6259  -22.4581  -16.6226 N   0  0  0  0  0  0  0  0  0  0  0  0
   27.5360  -21.5662  -15.7873 C   0  0  0  0  0  0  0  0  0  0  0  0
   27.9771  -21.6763  -14.6280 O   0  0  0  0  0  0  0  0  0  0  0  0
   24.9821  -18.8151  -15.8840 C   0  0  0  0  0  0  0  0  0  0  0  0
   25.8242  -19.8105  -15.1681 C   0  0  2  0  0  0  0  0  0  0  0  0
   26.4561  -20.7245  -16.0740 N   0  0  0  0  0  0  0  0  0  0  0  0
   25.0779  -20.5489  -14.0904 C   0  0  0  0  0  0  0  0  0  0  0  0
   24.4633  -21.5861  -14.4344 O   0  0  0  0  0  0  0  0  0  0  0  0
   26.6504  -21.7410   -9.9749 C   0  0  0  0  0  0  0  0  0  0  0  0
   26.0232  -20.3834   -9.8613 C   0  0  2  0  0  0  0  0  0  0  0  0
   26.2371  -19.7720   -8.4862 C   0  0  0  0  0  0  0  0  0  0  0  0
   24.6184  -20.2873  -10.3219 C   0  0  0  0  0  0  0  0  0  0  0  0
   24.3036  -20.7314  -11.6965 C   0  0  2  0  0  0  0  0  0  0  0  0
   25.0635  -20.1053  -12.7435 N   0  0  0  0  0  0  0  0  0  0  0  0
   22.8312  -20.4337  -11.9051 C   0  0  0  0  0  0  0  0  0  0  0  0
   21.8271  -21.1634  -11.3391 O   0  0  0  0  0  0  0  0  0  0  0  0
   22.5399  -19.4459  -12.6534 O   0  0  0  0  0  0  0  0  0  0  0  0
  2  1  1  6
  3  2  1  0
  4  2  1  0
  4  6  1  0
  4  5  1  1
  6 10  1  0
  7  6  2  0
  9  8  1  6
 10  9  1  0
 11  9  1  0
 11 12  2  0
 14 15  1  1
 14 13  1  0
 16 14  1  0
 17 18  1  0
 17 16  1  1
 18 11  1  0
 19 17  1  0
 20 19  1  0
 21 19  2  0
M  END
$$$$
