TAL.pdb
     RDKit          3D

 21 20  0  0  1  0  0  0  0  0999 V2000
   18.5036  -13.7250  -14.7138 C   0  0  0  0  0  0  0  0  0  0  0  0
   19.1761  -14.6518  -15.7220 C   0  0  1  0  0  0  0  0  0  0  0  0
   18.5504  -15.8962  -15.5540 O   0  0  0  0  0  0  0  0  0  0  0  0
   18.9517  -14.1238  -17.1196 C   0  0  2  0  0  0  0  0  0  0  0  0
   19.4895  -15.1313  -18.0446 N   0  0  0  0  0  0  0  0  0  0  0  0
   19.6803  -12.8352  -17.3012 C   0  0  0  0  0  0  0  0  0  0  0  0
   20.9252  -12.8429  -17.2693 O   0  0  0  0  0  0  0  0  0  0  0  0
   18.5175   -9.3652  -18.1663 C   0  0  0  0  0  0  0  0  0  0  0  0
   19.5266  -10.3375  -17.6677 C   0  0  2  0  0  0  0  0  0  0  0  0
   18.9686  -11.6477  -17.5022 N   0  0  0  0  0  0  0  0  0  0  0  0
   20.2144   -9.8816  -16.4096 C   0  0  0  0  0  0  0  0  0  0  0  0
   19.6270  -10.1120  -15.3263 O   0  0  0  0  0  0  0  0  0  0  0  0
   24.0907  -10.7866  -14.0299 C   0  0  0  0  0  0  0  0  0  0  0  0
   24.3389   -9.9657  -15.2603 C   0  0  2  0  0  0  0  0  0  0  0  0
   25.8226   -9.8204  -15.5566 C   0  0  0  0  0  0  0  0  0  0  0  0
   23.6096   -8.6778  -15.3278 C   0  0  0  0  0  0  0  0  0  0  0  0
   22.1327   -8.7090  -15.2655 C   0  0  2  0  0  0  0  0  0  0  0  0
   21.4701   -9.2230  -16.4328 N   0  0  0  0  0  0  0  0  0  0  0  0
   21.6937   -7.2758  -15.0356 C   0  0  0  0  0  0  0  0  0  0  0  0
   21.7230   -6.6649  -13.8161 O   0  0  0  0  0  0  0  0  0  0  0  0
   21.2779   -6.6272  -16.0490 O   0  0  0  0  0  0  0  0  0  0  0  0
  2  1  1  1
  3  2  1  0
  4  2  1  0
  4  6  1  0
  4  5  1  6
  6 10  1  0
  7  6  2  0
  9  8  1  1
 10  9  1  0
 11  9  1  0
 11 12  2  0
 14 15  1  1
 14 13  1  0
 16 14  1  0
 17 18  1  0
 17 16  1  6
 18 11  1  0
 19 17  1  0
 20 19  1  0
 21 19  2  0
M  END
$$$$
