SWH.pdb
     RDKit          3D

 31 33  0  0  1  0  0  0  0  0999 V2000
    9.7328  -18.7315   20.3074 O   0  0  0  0  0  0  0  0  0  0  0  0
    8.4259  -18.4263   20.6479 C   0  0  0  0  0  0  0  0  0  0  0  0
    8.2556  -16.9175   20.8616 C   0  0  2  0  0  0  0  0  0  0  0  0
    8.6342  -16.1618   19.7094 N   0  0  0  0  0  0  0  0  0  0  0  0
    9.0426  -16.4766   22.0326 C   0  0  0  0  0  0  0  0  0  0  0  0
   10.1491  -15.9231   21.8354 O   0  0  0  0  0  0  0  0  0  0  0  0
    8.6067  -16.6492   23.3722 N   0  0  0  0  0  0  0  0  0  0  0  0
    9.3968  -16.3287   24.5429 C   0  0  1  0  0  0  0  0  0  0  0  0
    8.6080  -16.1597   25.7834 C   0  0  0  0  0  0  0  0  0  0  0  0
    7.4301  -15.2953   25.7150 C   0  0  0  0  0  0  0  0  0  0  0  0
    6.1326  -15.5099   25.3750 C   0  0  0  0  0  0  0  0  0  0  0  0
    5.4549  -14.3342   25.4807 N   0  0  0  0  0  0  0  0  0  0  0  0
    6.2967  -13.3739   25.8820 C   0  0  0  0  0  0  0  0  0  0  0  0
    6.1489  -12.0151   26.1473 C   0  0  0  0  0  0  0  0  0  0  0  0
    7.2038  -11.2209   26.5597 C   0  0  0  0  0  0  0  0  0  0  0  0
    8.4468  -11.7944   26.7141 C   0  0  0  0  0  0  0  0  0  0  0  0
    8.5855  -13.1412   26.4494 C   0  0  0  0  0  0  0  0  0  0  0  0
    7.5275  -13.9343   26.0364 C   0  0  0  0  0  0  0  0  0  0  0  0
   10.4282  -17.3679   24.8019 C   0  0  0  0  0  0  0  0  0  0  0  0
   10.2119  -18.5862   24.6407 O   0  0  0  0  0  0  0  0  0  0  0  0
   11.6958  -16.9496   25.2459 N   0  0  0  0  0  0  0  0  0  0  0  0
   12.6757  -17.9894   25.5914 C   0  0  1  0  0  0  0  0  0  0  0  0
   14.0295  -17.3285   25.2947 C   0  0  0  0  0  0  0  0  0  0  0  0
   14.1309  -17.1174   23.8316 C   0  0  0  0  0  0  0  0  0  0  0  0
   13.8210  -15.9304   23.2055 C   0  0  0  0  0  0  0  0  0  0  0  0
   14.0355  -16.1244   21.8910 N   0  0  0  0  0  0  0  0  0  0  0  0
   14.4661  -17.3776   21.6579 C   0  0  0  0  0  0  0  0  0  0  0  0
   14.5167  -17.9698   22.8684 N   0  0  0  0  0  0  0  0  0  0  0  0
   12.5420  -18.4153   26.9792 C   0  0  0  0  0  0  0  0  0  0  0  0
   11.6468  -17.9301   27.7045 O   0  0  0  0  0  0  0  0  0  0  0  0
   13.3984  -19.3558   27.5064 O   0  0  0  0  0  0  0  0  0  0  0  0
  2  1  1  0
  3  2  1  0
  3  4  1  6
  5  6  2  0
  5  3  1  0
  7  5  1  0
  8  7  1  0
  8  9  1  1
 10 11  2  0
 10  9  1  0
 12 11  1  0
 13 18  2  0
 13 12  1  0
 14 13  1  0
 15 16  1  0
 15 14  2  0
 16 17  2  0
 17 18  1  0
 18 10  1  0
 19 21  1  0
 19  8  1  0
 20 19  2  0
 22 21  1  0
 22 29  1  0
 22 23  1  1
 24 23  1  0
 25 24  2  0
 26 27  1  0
 26 25  1  0
 27 28  2  0
 28 24  1  0
 29 31  1  0
 30 29  2  0
M  END
$$$$
