SWH.pdb
     RDKit          3D

 31 33  0  0  1  0  0  0  0  0999 V2000
   12.7649  -17.9295   15.1521 O   0  0  0  0  0  0  0  0  0  0  0  0
   11.5104  -18.2033   15.6700 C   0  0  0  0  0  0  0  0  0  0  0  0
   10.7129  -16.9108   15.8811 C   0  0  2  0  0  0  0  0  0  0  0  0
   10.7069  -16.0826   14.7165 N   0  0  0  0  0  0  0  0  0  0  0  0
   11.2576  -16.1576   17.0304 C   0  0  0  0  0  0  0  0  0  0  0  0
   11.9960  -15.1712   16.8031 O   0  0  0  0  0  0  0  0  0  0  0  0
   10.9857  -16.4965   18.3815 N   0  0  0  0  0  0  0  0  0  0  0  0
   11.4667  -15.7552   19.5290 C   0  0  1  0  0  0  0  0  0  0  0  0
   10.5660  -15.7959   20.7023 C   0  0  0  0  0  0  0  0  0  0  0  0
    9.1672  -15.4272   20.4855 C   0  0  0  0  0  0  0  0  0  0  0  0
    7.9975  -16.1133   20.5648 C   0  0  0  0  0  0  0  0  0  0  0  0
    6.9766  -15.2708   20.2475 N   0  0  0  0  0  0  0  0  0  0  0  0
    7.4742  -14.0601   19.9675 C   0  0  0  0  0  0  0  0  0  0  0  0
    6.9006  -12.8485   19.5910 C   0  0  0  0  0  0  0  0  0  0  0  0
    7.6544  -11.7131   19.3536 C   0  0  0  0  0  0  0  0  0  0  0  0
    9.0229  -11.7823   19.4947 C   0  0  0  0  0  0  0  0  0  0  0  0
    9.5840  -12.9860   19.8680 C   0  0  0  0  0  0  0  0  0  0  0  0
    8.8269  -14.1217   20.1050 C   0  0  0  0  0  0  0  0  0  0  0  0
   12.8016  -16.2412   19.9677 C   0  0  0  0  0  0  0  0  0  0  0  0
   13.1664  -17.4262   19.8271 O   0  0  0  0  0  0  0  0  0  0  0  0
   13.6812  -15.3193   20.5637 N   0  0  0  0  0  0  0  0  0  0  0  0
   15.0327  -15.7868   20.9040 C   0  0  1  0  0  0  0  0  0  0  0  0
   15.8965  -14.5228   20.7876 C   0  0  0  0  0  0  0  0  0  0  0  0
   16.0795  -14.2179   19.3492 C   0  0  0  0  0  0  0  0  0  0  0  0
   16.2009  -15.1803   18.3715 C   0  0  0  0  0  0  0  0  0  0  0  0
   16.3503  -14.5241   17.2059 N   0  0  0  0  0  0  0  0  0  0  0  0
   16.3289  -13.1931   17.4018 C   0  0  0  0  0  0  0  0  0  0  0  0
   16.1611  -13.0292   18.7298 N   0  0  0  0  0  0  0  0  0  0  0  0
   15.0764  -16.3861   22.2323 C   0  0  0  0  0  0  0  0  0  0  0  0
   14.0529  -16.4051   22.9499 O   0  0  0  0  0  0  0  0  0  0  0  0
   16.2436  -16.9378   22.7111 O   0  0  0  0  0  0  0  0  0  0  0  0
  2  1  1  0
  3  2  1  0
  3  4  1  6
  5  6  2  0
  5  3  1  0
  7  5  1  0
  8  7  1  0
  8  9  1  1
 10 11  2  0
 10  9  1  0
 12 11  1  0
 13 18  2  0
 13 12  1  0
 14 13  1  0
 15 16  1  0
 15 14  2  0
 16 17  2  0
 17 18  1  0
 18 10  1  0
 19 21  1  0
 19  8  1  0
 20 19  2  0
 22 21  1  0
 22 29  1  0
 22 23  1  1
 24 23  1  0
 25 24  2  0
 26 27  1  0
 26 25  1  0
 27 28  2  0
 28 24  1  0
 29 31  1  0
 30 29  2  0
M  END
$$$$
