SWH.pdb
     RDKit          3D

 31 33  0  0  1  0  0  0  0  0999 V2000
   11.4334  -18.8003   20.5711 O   0  0  0  0  0  0  0  0  0  0  0  0
   10.3887  -18.4047   19.7533 C   0  0  0  0  0  0  0  0  0  0  0  0
   10.3574  -16.8786   19.6071 C   0  0  2  0  0  0  0  0  0  0  0  0
   11.5399  -16.3703   18.9865 N   0  0  0  0  0  0  0  0  0  0  0  0
   10.1709  -16.2437   20.9289 C   0  0  0  0  0  0  0  0  0  0  0  0
   11.1865  -15.8825   21.5674 O   0  0  0  0  0  0  0  0  0  0  0  0
    8.8962  -16.0224   21.5124 N   0  0  0  0  0  0  0  0  0  0  0  0
    8.6797  -15.5885   22.8771 C   0  0  1  0  0  0  0  0  0  0  0  0
    7.2730  -15.2580   23.1959 C   0  0  0  0  0  0  0  0  0  0  0  0
    6.9762  -14.8478   24.5682 C   0  0  0  0  0  0  0  0  0  0  0  0
    6.5160  -15.5091   25.6618 C   0  0  0  0  0  0  0  0  0  0  0  0
    6.4139  -14.6265   26.6930 N   0  0  0  0  0  0  0  0  0  0  0  0
    6.8008  -13.4145   26.2766 C   0  0  0  0  0  0  0  0  0  0  0  0
    6.8966  -12.1709   26.8952 C   0  0  0  0  0  0  0  0  0  0  0  0
    7.3370  -11.0423   26.2273 C   0  0  0  0  0  0  0  0  0  0  0  0
    7.6942  -11.1516   24.9014 C   0  0  0  0  0  0  0  0  0  0  0  0
    7.5966  -12.3871   24.2953 C   0  0  0  0  0  0  0  0  0  0  0  0
    7.1552  -13.5157   24.9664 C   0  0  0  0  0  0  0  0  0  0  0  0
    9.1338  -16.6161   23.8512 C   0  0  0  0  0  0  0  0  0  0  0  0
    9.0083  -17.8405   23.6459 O   0  0  0  0  0  0  0  0  0  0  0  0
    9.7278  -16.1791   25.0492 N   0  0  0  0  0  0  0  0  0  0  0  0
   10.2510  -17.2029   25.9650 C   0  0  1  0  0  0  0  0  0  0  0  0
    9.5979  -18.5021   25.4719 C   0  0  0  0  0  0  0  0  0  0  0  0
    8.7969  -19.0682   26.5825 C   0  0  0  0  0  0  0  0  0  0  0  0
    8.5976  -18.4296   27.7864 C   0  0  0  0  0  0  0  0  0  0  0  0
    7.8280  -19.2464   28.5294 N   0  0  0  0  0  0  0  0  0  0  0  0
    7.5321  -20.3702   27.8513 C   0  0  0  0  0  0  0  0  0  0  0  0
    8.1402  -20.2372   26.6549 N   0  0  0  0  0  0  0  0  0  0  0  0
   11.7078  -17.2530   25.9408 C   0  0  0  0  0  0  0  0  0  0  0  0
   12.3572  -16.4104   25.2842 O   0  0  0  0  0  0  0  0  0  0  0  0
   12.3845  -18.2272   26.6402 O   0  0  0  0  0  0  0  0  0  0  0  0
  2  1  1  0
  3  2  1  0
  3  4  1  1
  5  6  2  0
  5  3  1  0
  7  5  1  0
  8  7  1  0
  8  9  1  6
 10 11  2  0
 10  9  1  0
 12 11  1  0
 13 18  2  0
 13 12  1  0
 14 13  1  0
 15 16  1  0
 15 14  2  0
 16 17  2  0
 17 18  1  0
 18 10  1  0
 19 21  1  0
 19  8  1  0
 20 19  2  0
 22 21  1  0
 22 29  1  0
 22 23  1  6
 24 23  1  0
 25 24  2  0
 26 27  1  0
 26 25  1  0
 27 28  2  0
 28 24  1  0
 29 31  1  0
 30 29  2  0
M  END
$$$$
