SWH.pdb
     RDKit          3D

 31 33  0  0  1  0  0  0  0  0999 V2000
    9.5848  -15.2072   19.5732 O   0  0  0  0  0  0  0  0  0  0  0  0
    9.5646  -16.5796   19.7549 C   0  0  0  0  0  0  0  0  0  0  0  0
    8.6320  -16.9638   20.9098 C   0  0  2  0  0  0  0  0  0  0  0  0
    7.3575  -16.3250   20.8112 N   0  0  0  0  0  0  0  0  0  0  0  0
    9.2615  -16.6320   22.2054 C   0  0  0  0  0  0  0  0  0  0  0  0
   10.3626  -16.0343   22.1996 O   0  0  0  0  0  0  0  0  0  0  0  0
    8.6800  -16.9574   23.4585 N   0  0  0  0  0  0  0  0  0  0  0  0
    9.3368  -16.7920   24.7387 C   0  0  1  0  0  0  0  0  0  0  0  0
    8.4379  -16.3674   25.8347 C   0  0  0  0  0  0  0  0  0  0  0  0
    7.3485  -15.4538   25.4911 C   0  0  0  0  0  0  0  0  0  0  0  0
    6.1474  -15.6211   24.8792 C   0  0  0  0  0  0  0  0  0  0  0  0
    5.5232  -14.4136   24.8085 N   0  0  0  0  0  0  0  0  0  0  0  0
    6.3046  -13.4795   25.3643 C   0  0  0  0  0  0  0  0  0  0  0  0
    6.1712  -12.1077   25.5616 C   0  0  0  0  0  0  0  0  0  0  0  0
    7.1495  -11.3487   26.1786 C   0  0  0  0  0  0  0  0  0  0  0  0
    8.2982  -11.9718   26.6142 C   0  0  0  0  0  0  0  0  0  0  0  0
    8.4231  -13.3312   26.4152 C   0  0  0  0  0  0  0  0  0  0  0  0
    7.4420  -14.0890   25.7970 C   0  0  0  0  0  0  0  0  0  0  0  0
   10.0111  -18.0457   25.1680 C   0  0  0  0  0  0  0  0  0  0  0  0
   10.1095  -19.0450   24.4272 O   0  0  0  0  0  0  0  0  0  0  0  0
   10.5571  -18.0961   26.4635 N   0  0  0  0  0  0  0  0  0  0  0  0
   11.4780  -19.1990   26.7739 C   0  0  1  0  0  0  0  0  0  0  0  0
   12.6152  -19.0222   25.7575 C   0  0  0  0  0  0  0  0  0  0  0  0
   13.6384  -20.0607   26.0223 C   0  0  0  0  0  0  0  0  0  0  0  0
   13.5143  -21.0282   26.9947 C   0  0  0  0  0  0  0  0  0  0  0  0
   14.6301  -21.7781   26.9321 N   0  0  0  0  0  0  0  0  0  0  0  0
   15.4525  -21.3298   25.9662 C   0  0  0  0  0  0  0  0  0  0  0  0
   14.8200  -20.2714   25.4200 N   0  0  0  0  0  0  0  0  0  0  0  0
   11.9365  -19.1444   28.1567 C   0  0  0  0  0  0  0  0  0  0  0  0
   12.1452  -18.0425   28.7091 O   0  0  0  0  0  0  0  0  0  0  0  0
   12.1443  -20.3040   28.8695 O   0  0  0  0  0  0  0  0  0  0  0  0
  2  1  1  0
  3  2  1  0
  3  4  1  6
  5  6  2  0
  5  3  1  0
  7  5  1  0
  8  7  1  0
  8  9  1  1
 10 11  2  0
 10  9  1  0
 12 11  1  0
 13 18  2  0
 13 12  1  0
 14 13  1  0
 15 16  1  0
 15 14  2  0
 16 17  2  0
 17 18  1  0
 18 10  1  0
 19 21  1  0
 19  8  1  0
 20 19  2  0
 22 21  1  0
 22 29  1  0
 22 23  1  6
 24 23  1  0
 25 24  2  0
 26 27  1  0
 26 25  1  0
 27 28  2  0
 28 24  1  0
 29 31  1  0
 30 29  2  0
M  END
$$$$
