SWH.pdb
     RDKit          3D

 31 33  0  0  1  0  0  0  0  0999 V2000
    8.0303  -17.1117   19.2621 O   0  0  0  0  0  0  0  0  0  0  0  0
    6.8816  -16.6695   19.8961 C   0  0  0  0  0  0  0  0  0  0  0  0
    7.0460  -15.2229   20.3773 C   0  0  2  0  0  0  0  0  0  0  0  0
    7.3389  -14.3258   19.3042 N   0  0  0  0  0  0  0  0  0  0  0  0
    8.1084  -15.1442   21.4021 C   0  0  0  0  0  0  0  0  0  0  0  0
    9.2545  -14.7818   21.0487 O   0  0  0  0  0  0  0  0  0  0  0  0
    7.8950  -15.4594   22.7693 N   0  0  0  0  0  0  0  0  0  0  0  0
    8.9379  -15.5220   23.7723 C   0  0  1  0  0  0  0  0  0  0  0  0
    8.4447  -15.7230   25.1529 C   0  0  0  0  0  0  0  0  0  0  0  0
    7.2614  -14.9647   25.5580 C   0  0  0  0  0  0  0  0  0  0  0  0
    5.9515  -15.2896   25.7119 C   0  0  0  0  0  0  0  0  0  0  0  0
    5.2711  -14.1788   26.1067 N   0  0  0  0  0  0  0  0  0  0  0  0
    6.1234  -13.1516   26.2073 C   0  0  0  0  0  0  0  0  0  0  0  0
    5.9782  -11.8131   26.5622 C   0  0  0  0  0  0  0  0  0  0  0  0
    7.0449  -10.9327   26.5880 C   0  0  0  0  0  0  0  0  0  0  0  0
    8.2975  -11.3960   26.2504 C   0  0  0  0  0  0  0  0  0  0  0  0
    8.4336  -12.7233   25.8998 C   0  0  0  0  0  0  0  0  0  0  0  0
    7.3637  -13.6030   25.8747 C   0  0  0  0  0  0  0  0  0  0  0  0
    9.9092  -16.6084   23.4773 C   0  0  0  0  0  0  0  0  0  0  0  0
    9.9374  -17.2077   22.3832 O   0  0  0  0  0  0  0  0  0  0  0  0
   10.8293  -16.9669   24.4793 N   0  0  0  0  0  0  0  0  0  0  0  0
   12.2364  -17.1311   24.0870 C   0  0  1  0  0  0  0  0  0  0  0  0
   12.6185  -15.7587   23.5145 C   0  0  0  0  0  0  0  0  0  0  0  0
   12.7706  -15.8953   22.0469 C   0  0  0  0  0  0  0  0  0  0  0  0
   12.4176  -17.0247   21.3420 C   0  0  0  0  0  0  0  0  0  0  0  0
   12.7006  -16.7729   20.0504 N   0  0  0  0  0  0  0  0  0  0  0  0
   13.2153  -15.5381   19.9069 C   0  0  0  0  0  0  0  0  0  0  0  0
   13.2487  -15.0173   21.1504 N   0  0  0  0  0  0  0  0  0  0  0  0
   13.0674  -17.5281   25.2172 C   0  0  0  0  0  0  0  0  0  0  0  0
   14.2695  -17.8242   25.0430 O   0  0  0  0  0  0  0  0  0  0  0  0
   12.5391  -17.5810   26.4876 O   0  0  0  0  0  0  0  0  0  0  0  0
  2  1  1  0
  3  2  1  0
  3  4  1  6
  5  6  2  0
  5  3  1  0
  7  5  1  0
  8  7  1  0
  8  9  1  1
 10 11  2  0
 10  9  1  0
 12 11  1  0
 13 18  2  0
 13 12  1  0
 14 13  1  0
 15 16  1  0
 15 14  2  0
 16 17  2  0
 17 18  1  0
 18 10  1  0
 19 21  1  0
 19  8  1  0
 20 19  2  0
 22 21  1  0
 22 29  1  0
 22 23  1  1
 24 23  1  0
 25 24  2  0
 26 27  1  0
 26 25  1  0
 27 28  2  0
 28 24  1  0
 29 31  1  0
 30 29  2  0
M  END
$$$$
