SWH.pdb
     RDKit          3D

 31 33  0  0  1  0  0  0  0  0999 V2000
   10.7679  -19.4583   21.1058 O   0  0  0  0  0  0  0  0  0  0  0  0
   11.2813  -18.2518   20.6613 C   0  0  0  0  0  0  0  0  0  0  0  0
   10.2314  -17.1393   20.7675 C   0  0  2  0  0  0  0  0  0  0  0  0
   10.4254  -16.1170   19.7881 N   0  0  0  0  0  0  0  0  0  0  0  0
   10.2509  -16.5476   22.1220 C   0  0  0  0  0  0  0  0  0  0  0  0
   11.1428  -15.7117   22.3966 O   0  0  0  0  0  0  0  0  0  0  0  0
    9.3080  -16.8799   23.1294 N   0  0  0  0  0  0  0  0  0  0  0  0
    9.3528  -16.3915   24.4921 C   0  0  1  0  0  0  0  0  0  0  0  0
    8.0250  -16.1215   25.0869 C   0  0  0  0  0  0  0  0  0  0  0  0
    7.3291  -14.9115   24.6496 C   0  0  0  0  0  0  0  0  0  0  0  0
    6.5787  -14.6084   23.5587 C   0  0  0  0  0  0  0  0  0  0  0  0
    6.1750  -13.3121   23.6548 N   0  0  0  0  0  0  0  0  0  0  0  0
    6.6544  -12.7832   24.7871 C   0  0  0  0  0  0  0  0  0  0  0  0
    6.5566  -11.5262   25.3779 C   0  0  0  0  0  0  0  0  0  0  0  0
    7.1614  -11.2250   26.5850 C   0  0  0  0  0  0  0  0  0  0  0  0
    7.8874  -12.2038   27.2273 C   0  0  0  0  0  0  0  0  0  0  0  0
    7.9799  -13.4467   26.6359 C   0  0  0  0  0  0  0  0  0  0  0  0
    7.3733  -13.7458   25.4269 C   0  0  0  0  0  0  0  0  0  0  0  0
   10.0626  -17.3441   25.3863 C   0  0  0  0  0  0  0  0  0  0  0  0
    9.7521  -18.5498   25.4680 O   0  0  0  0  0  0  0  0  0  0  0  0
   11.1261  -16.8555   26.1670 N   0  0  0  0  0  0  0  0  0  0  0  0
   11.8297  -17.8097   27.0360 C   0  0  1  0  0  0  0  0  0  0  0  0
   13.2040  -17.1606   27.2538 C   0  0  0  0  0  0  0  0  0  0  0  0
   13.9957  -17.3251   26.0121 C   0  0  0  0  0  0  0  0  0  0  0  0
   13.5255  -17.9558   24.8816 C   0  0  0  0  0  0  0  0  0  0  0  0
   14.5198  -17.9078   23.9758 N   0  0  0  0  0  0  0  0  0  0  0  0
   15.5952  -17.2766   24.4811 C   0  0  0  0  0  0  0  0  0  0  0  0
   15.2482  -16.9271   25.7366 N   0  0  0  0  0  0  0  0  0  0  0  0
   11.1052  -18.0403   28.2800 C   0  0  0  0  0  0  0  0  0  0  0  0
   10.0138  -17.4680   28.4898 O   0  0  0  0  0  0  0  0  0  0  0  0
   11.6137  -18.8902   29.2366 O   0  0  0  0  0  0  0  0  0  0  0  0
  2  1  1  0
  3  2  1  0
  3  4  1  6
  5  6  2  0
  5  3  1  0
  7  5  1  0
  8  7  1  0
  8  9  1  1
 10 11  2  0
 10  9  1  0
 12 11  1  0
 13 18  2  0
 13 12  1  0
 14 13  1  0
 15 16  1  0
 15 14  2  0
 16 17  2  0
 17 18  1  0
 18 10  1  0
 19 21  1  0
 19  8  1  0
 20 19  2  0
 22 21  1  0
 22 29  1  0
 22 23  1  1
 24 23  1  0
 25 24  2  0
 26 27  1  0
 26 25  1  0
 27 28  2  0
 28 24  1  0
 29 31  1  0
 30 29  2  0
M  END
$$$$
