SWH.pdb
     RDKit          3D

 31 33  0  0  1  0  0  0  0  0999 V2000
    6.5004  -22.1973   24.1822 O   0  0  0  0  0  0  0  0  0  0  0  0
    5.8042  -21.0023   24.1157 C   0  0  0  0  0  0  0  0  0  0  0  0
    6.0730  -20.2870   22.7864 C   0  0  2  0  0  0  0  0  0  0  0  0
    6.5831  -21.1737   21.7885 N   0  0  0  0  0  0  0  0  0  0  0  0
    7.0149  -19.1665   22.9918 C   0  0  0  0  0  0  0  0  0  0  0  0
    8.1946  -19.2957   22.5902 O   0  0  0  0  0  0  0  0  0  0  0  0
    6.6491  -17.9489   23.6227 N   0  0  0  0  0  0  0  0  0  0  0  0
    7.5589  -16.8538   23.8886 C   0  0  1  0  0  0  0  0  0  0  0  0
    6.9969  -15.5133   23.6115 C   0  0  0  0  0  0  0  0  0  0  0  0
    6.5905  -15.2293   22.2354 C   0  0  0  0  0  0  0  0  0  0  0  0
    5.6333  -15.7423   21.4195 C   0  0  0  0  0  0  0  0  0  0  0  0
    5.6992  -15.1064   20.2179 N   0  0  0  0  0  0  0  0  0  0  0  0
    6.6811  -14.1972   20.2528 C   0  0  0  0  0  0  0  0  0  0  0  0
    7.1800  -13.2850   19.3268 C   0  0  0  0  0  0  0  0  0  0  0  0
    8.2308  -12.4333   19.6169 C   0  0  0  0  0  0  0  0  0  0  0  0
    8.8055  -12.4886   20.8676 C   0  0  0  0  0  0  0  0  0  0  0  0
    8.3058  -13.3949   21.7798 C   0  0  0  0  0  0  0  0  0  0  0  0
    7.2534  -14.2468   21.4868 C   0  0  0  0  0  0  0  0  0  0  0  0
    8.0230  -16.8655   25.3012 C   0  0  0  0  0  0  0  0  0  0  0  0
    7.2547  -17.0804   26.2606 O   0  0  0  0  0  0  0  0  0  0  0  0
    9.3854  -16.6236   25.5547 N   0  0  0  0  0  0  0  0  0  0  0  0
   10.0839  -17.5417   26.4658 C   0  0  1  0  0  0  0  0  0  0  0  0
    9.8443  -18.9252   25.8445 C   0  0  0  0  0  0  0  0  0  0  0  0
    8.8642  -19.6483   26.6884 C   0  0  0  0  0  0  0  0  0  0  0  0
    8.2429  -19.0950   27.7860 C   0  0  0  0  0  0  0  0  0  0  0  0
    7.4332  -20.0464   28.2867 N   0  0  0  0  0  0  0  0  0  0  0  0
    7.5141  -21.1739   27.5570 C   0  0  0  0  0  0  0  0  0  0  0  0
    8.4019  -20.9042   26.5783 N   0  0  0  0  0  0  0  0  0  0  0  0
   11.4981  -17.2086   26.5859 C   0  0  0  0  0  0  0  0  0  0  0  0
   12.0354  -17.1349   27.7122 O   0  0  0  0  0  0  0  0  0  0  0  0
   12.2574  -16.9720   25.4618 O   0  0  0  0  0  0  0  0  0  0  0  0
  2  1  1  0
  3  2  1  0
  3  4  1  6
  5  6  2  0
  5  3  1  0
  7  5  1  0
  8  7  1  0
  8  9  1  1
 10 11  2  0
 10  9  1  0
 12 11  1  0
 13 18  2  0
 13 12  1  0
 14 13  1  0
 15 16  1  0
 15 14  2  0
 16 17  2  0
 17 18  1  0
 18 10  1  0
 19 21  1  0
 19  8  1  0
 20 19  2  0
 22 21  1  0
 22 29  1  0
 22 23  1  6
 24 23  1  0
 25 24  2  0
 26 27  1  0
 26 25  1  0
 27 28  2  0
 28 24  1  0
 29 31  1  0
 30 29  2  0
M  END
$$$$
