SWH.pdb
     RDKit          3D

 31 33  0  0  1  0  0  0  0  0999 V2000
    8.2582  -17.3751   19.1181 O   0  0  0  0  0  0  0  0  0  0  0  0
    7.1315  -17.1728   19.8968 C   0  0  0  0  0  0  0  0  0  0  0  0
    7.0571  -15.7203   20.3826 C   0  0  2  0  0  0  0  0  0  0  0  0
    7.2121  -14.7840   19.3141 N   0  0  0  0  0  0  0  0  0  0  0  0
    8.0836  -15.4758   21.4177 C   0  0  0  0  0  0  0  0  0  0  0  0
    9.1368  -14.8830   21.0873 O   0  0  0  0  0  0  0  0  0  0  0  0
    7.9358  -15.8799   22.7702 N   0  0  0  0  0  0  0  0  0  0  0  0
    8.9357  -15.6888   23.8004 C   0  0  1  0  0  0  0  0  0  0  0  0
    8.4216  -15.8237   25.1814 C   0  0  0  0  0  0  0  0  0  0  0  0
    7.2614  -15.0110   25.5461 C   0  0  0  0  0  0  0  0  0  0  0  0
    5.9364  -15.2802   25.6763 C   0  0  0  0  0  0  0  0  0  0  0  0
    5.2931  -14.1358   26.0356 N   0  0  0  0  0  0  0  0  0  0  0  0
    6.1839  -13.1418   26.1368 C   0  0  0  0  0  0  0  0  0  0  0  0
    6.0853  -11.7921   26.4641 C   0  0  0  0  0  0  0  0  0  0  0  0
    7.1860  -10.9548   26.4980 C   0  0  0  0  0  0  0  0  0  0  0  0
    8.4258  -11.4743   26.1971 C   0  0  0  0  0  0  0  0  0  0  0  0
    8.5157  -12.8124   25.8736 C   0  0  0  0  0  0  0  0  0  0  0  0
    7.4118  -13.6488   25.8404 C   0  0  0  0  0  0  0  0  0  0  0  0
   10.0647  -16.6437   23.6438 C   0  0  0  0  0  0  0  0  0  0  0  0
    9.9490  -17.7302   23.0413 O   0  0  0  0  0  0  0  0  0  0  0  0
   11.3092  -16.2978   24.2011 N   0  0  0  0  0  0  0  0  0  0  0  0
   12.4325  -17.2222   23.9898 C   0  0  1  0  0  0  0  0  0  0  0  0
   13.5201  -16.3380   23.3631 C   0  0  0  0  0  0  0  0  0  0  0  0
   14.7586  -17.1427   23.2430 C   0  0  0  0  0  0  0  0  0  0  0  0
   15.2310  -17.9742   24.2340 C   0  0  0  0  0  0  0  0  0  0  0  0
   16.3638  -18.5265   23.7615 N   0  0  0  0  0  0  0  0  0  0  0  0
   16.6285  -18.0829   22.5191 C   0  0  0  0  0  0  0  0  0  0  0  0
   15.6257  -17.2317   22.2216 N   0  0  0  0  0  0  0  0  0  0  0  0
   12.8559  -17.8486   25.2363 C   0  0  0  0  0  0  0  0  0  0  0  0
   12.5080  -17.3650   26.3353 O   0  0  0  0  0  0  0  0  0  0  0  0
   13.6425  -18.9786   25.2176 O   0  0  0  0  0  0  0  0  0  0  0  0
  2  1  1  0
  3  2  1  0
  3  4  1  6
  5  6  2  0
  5  3  1  0
  7  5  1  0
  8  7  1  0
  8  9  1  1
 10 11  2  0
 10  9  1  0
 12 11  1  0
 13 18  2  0
 13 12  1  0
 14 13  1  0
 15 16  1  0
 15 14  2  0
 16 17  2  0
 17 18  1  0
 18 10  1  0
 19 21  1  0
 19  8  1  0
 20 19  2  0
 22 21  1  0
 22 29  1  0
 22 23  1  1
 24 23  1  0
 25 24  2  0
 26 27  1  0
 26 25  1  0
 27 28  2  0
 28 24  1  0
 29 31  1  0
 30 29  2  0
M  END
$$$$
