KFS.pdb
     RDKit          3D

 27 27  0  0  1  0  0  0  0  0999 V2000
    8.0271  -12.5763   19.5592 N   0  0  0  0  0  0  0  0  0  0  0  0
    7.5812  -13.8363   20.0550 C   0  0  1  0  0  0  0  0  0  0  0  0
    7.8722  -15.0130   19.1926 C   0  0  0  0  0  0  0  0  0  0  0  0
    7.8230  -14.7879   17.7250 C   0  0  0  0  0  0  0  0  0  0  0  0
    8.0397  -15.9864   16.8681 C   0  0  0  0  0  0  0  0  0  0  0  0
    9.3727  -16.6654   17.2169 C   0  0  0  0  0  0  0  0  0  0  0  0
    9.5066  -17.8214   16.3747 N   0  0  0  0  0  0  0  0  0  0  0  0
    8.1825  -14.0635   21.4085 C   0  0  0  0  0  0  0  0  0  0  0  0
    9.3148  -13.5890   21.6874 O   0  0  0  0  0  0  0  0  0  0  0  0
    7.5293  -14.8071   22.4299 N   0  0  0  0  0  0  0  0  0  0  0  0
    8.0618  -15.0681   23.7367 C   0  0  1  0  0  0  0  0  0  0  0  0
    7.0551  -14.9875   24.8330 C   0  0  0  0  0  0  0  0  0  0  0  0
    7.0250  -13.7718   25.6093 C   0  0  0  0  0  0  0  0  0  0  0  0
    6.0618  -12.8223   25.3613 C   0  0  0  0  0  0  0  0  0  0  0  0
    6.0093  -11.6328   26.0991 C   0  0  0  0  0  0  0  0  0  0  0  0
    6.9305  -11.3948   27.0930 C   0  0  0  0  0  0  0  0  0  0  0  0
    7.8887  -12.3302   27.3458 C   0  0  0  0  0  0  0  0  0  0  0  0
    7.9258  -13.4926   26.6121 C   0  0  0  0  0  0  0  0  0  0  0  0
    8.9149  -16.2771   23.7970 C   0  0  0  0  0  0  0  0  0  0  0  0
    8.5244  -17.4000   23.3325 O   0  0  0  0  0  0  0  0  0  0  0  0
   12.4965  -16.7072   22.6861 O   0  0  0  0  0  0  0  0  0  0  0  0
   12.4329  -17.1074   24.0133 C   0  0  0  0  0  0  0  0  0  0  0  0
   11.0071  -17.5031   24.4023 C   0  0  2  0  0  0  0  0  0  0  0  0
   10.2196  -16.2854   24.3652 N   0  0  0  0  0  0  0  0  0  0  0  0
   10.9914  -18.0460   25.7658 C   0  0  0  0  0  0  0  0  0  0  0  0
   10.4145  -17.4119   26.6759 O   0  0  0  0  0  0  0  0  0  0  0  0
   11.6017  -19.2425   26.0544 O   0  0  0  0  0  0  0  0  0  0  0  0
  2  1  1  6
  2  8  1  0
  3  2  1  0
  3  4  1  0
  4  5  1  0
  6  5  1  0
  6  7  1  0
  8  9  2  0
 10  8  1  0
 10 11  1  0
 11 19  1  0
 12 13  1  0
 11 12  1  1
 13 14  2  0
 14 15  1  0
 16 15  2  0
 17 16  1  0
 18 13  1  0
 18 17  2  0
 19 20  2  0
 21 22  1  0
 23 22  1  1
 23 25  1  0
 24 23  1  0
 24 19  1  0
 25 26  2  0
 25 27  1  0
M  END
$$$$
