KFS.pdb
     RDKit          3D

 27 27  0  0  1  0  0  0  0  0999 V2000
    7.2228  -15.8170   20.6851 N   0  0  0  0  0  0  0  0  0  0  0  0
    8.4008  -15.0212   20.7905 C   0  0  1  0  0  0  0  0  0  0  0  0
    8.2800  -13.6167   20.3150 C   0  0  0  0  0  0  0  0  0  0  0  0
    7.6521  -13.4193   18.9832 C   0  0  0  0  0  0  0  0  0  0  0  0
    8.5758  -13.4130   17.8150 C   0  0  0  0  0  0  0  0  0  0  0  0
    7.7859  -13.2937   16.5031 C   0  0  0  0  0  0  0  0  0  0  0  0
    8.7183  -13.4302   15.4188 N   0  0  0  0  0  0  0  0  0  0  0  0
    8.8539  -15.0148   22.2187 C   0  0  0  0  0  0  0  0  0  0  0  0
    9.8995  -14.3966   22.5498 O   0  0  0  0  0  0  0  0  0  0  0  0
    8.1503  -15.6868   23.2562 N   0  0  0  0  0  0  0  0  0  0  0  0
    8.5936  -15.8098   24.6155 C   0  0  1  0  0  0  0  0  0  0  0  0
    7.5446  -15.5041   25.6294 C   0  0  0  0  0  0  0  0  0  0  0  0
    7.3344  -14.1154   25.9590 C   0  0  0  0  0  0  0  0  0  0  0  0
    8.2738  -13.4352   26.6978 C   0  0  0  0  0  0  0  0  0  0  0  0
    8.0953  -12.0868   27.0328 C   0  0  0  0  0  0  0  0  0  0  0  0
    6.9656  -11.4166   26.6231 C   0  0  0  0  0  0  0  0  0  0  0  0
    6.0294  -12.0827   25.8906 C   0  0  0  0  0  0  0  0  0  0  0  0
    6.2203  -13.4063   25.5705 C   0  0  0  0  0  0  0  0  0  0  0  0
    9.3369  -17.0623   24.8841 C   0  0  0  0  0  0  0  0  0  0  0  0
    8.8193  -18.2100   24.6741 O   0  0  0  0  0  0  0  0  0  0  0  0
   13.6079  -19.2143   25.4198 O   0  0  0  0  0  0  0  0  0  0  0  0
   12.8314  -18.0828   25.2142 C   0  0  0  0  0  0  0  0  0  0  0  0
   11.3677  -18.3455   25.5740 C   0  0  2  0  0  0  0  0  0  0  0  0
   10.6680  -17.0887   25.3867 N   0  0  0  0  0  0  0  0  0  0  0  0
   11.2617  -18.7514   26.9804 C   0  0  0  0  0  0  0  0  0  0  0  0
   10.6916  -17.9976   27.7990 O   0  0  0  0  0  0  0  0  0  0  0  0
   11.7801  -19.9494   27.4086 O   0  0  0  0  0  0  0  0  0  0  0  0
  2  1  1  1
  2  8  1  0
  3  2  1  0
  3  4  1  0
  4  5  1  0
  6  5  1  0
  6  7  1  0
  8  9  2  0
 10  8  1  0
 10 11  1  0
 11 19  1  0
 12 13  1  0
 11 12  1  1
 13 14  2  0
 14 15  1  0
 16 15  2  0
 17 16  1  0
 18 13  1  0
 18 17  2  0
 19 20  2  0
 21 22  1  0
 23 22  1  1
 23 25  1  0
 24 23  1  0
 24 19  1  0
 25 26  2  0
 25 27  1  0
M  END
$$$$
