KFS.pdb
     RDKit          3D

 27 27  0  0  1  0  0  0  0  0999 V2000
    8.5224  -17.7059   20.5740 N   0  0  0  0  0  0  0  0  0  0  0  0
    9.8580  -17.2911   20.8497 C   0  0  1  0  0  0  0  0  0  0  0  0
   10.5652  -16.5991   19.7388 C   0  0  0  0  0  0  0  0  0  0  0  0
   11.1886  -17.4673   18.7070 C   0  0  0  0  0  0  0  0  0  0  0  0
   10.2525  -18.1787   17.7931 C   0  0  0  0  0  0  0  0  0  0  0  0
   11.0249  -19.1124   16.8492 C   0  0  0  0  0  0  0  0  0  0  0  0
   11.2873  -18.3873   15.6372 N   0  0  0  0  0  0  0  0  0  0  0  0
    9.8483  -16.3976   22.0526 C   0  0  0  0  0  0  0  0  0  0  0  0
   10.9310  -15.9863   22.5461 O   0  0  0  0  0  0  0  0  0  0  0  0
    8.6502  -15.9726   22.6904 N   0  0  0  0  0  0  0  0  0  0  0  0
    8.5815  -15.1624   23.8729 C   0  0  1  0  0  0  0  0  0  0  0  0
    7.4304  -14.2157   23.8978 C   0  0  0  0  0  0  0  0  0  0  0  0
    7.2525  -13.4290   25.0940 C   0  0  0  0  0  0  0  0  0  0  0  0
    8.0117  -12.2996   25.2923 C   0  0  0  0  0  0  0  0  0  0  0  0
    7.8605  -11.5175   26.4444 C   0  0  0  0  0  0  0  0  0  0  0  0
    6.9406  -11.8716   27.4044 C   0  0  0  0  0  0  0  0  0  0  0  0
    6.1839  -12.9892   27.2163 C   0  0  0  0  0  0  0  0  0  0  0  0
    6.3450  -13.7458   26.0794 C   0  0  0  0  0  0  0  0  0  0  0  0
    8.7495  -15.9315   25.1273 C   0  0  0  0  0  0  0  0  0  0  0  0
    7.8632  -16.7540   25.5360 O   0  0  0  0  0  0  0  0  0  0  0  0
   12.3185  -16.9559   26.2672 O   0  0  0  0  0  0  0  0  0  0  0  0
   11.2145  -17.6553   26.7339 C   0  0  0  0  0  0  0  0  0  0  0  0
   10.0738  -16.7041   27.1011 C   0  0  2  0  0  0  0  0  0  0  0  0
    9.8951  -15.8209   25.9643 N   0  0  0  0  0  0  0  0  0  0  0  0
   10.4436  -15.9075   28.2770 C   0  0  0  0  0  0  0  0  0  0  0  0
   10.4932  -14.6614   28.1875 O   0  0  0  0  0  0  0  0  0  0  0  0
   10.7350  -16.5136   29.4750 O   0  0  0  0  0  0  0  0  0  0  0  0
  2  1  1  6
  2  8  1  0
  3  2  1  0
  3  4  1  0
  4  5  1  0
  6  5  1  0
  6  7  1  0
  8  9  2  0
 10  8  1  0
 10 11  1  0
 11 19  1  0
 12 13  1  0
 11 12  1  1
 13 14  2  0
 14 15  1  0
 16 15  2  0
 17 16  1  0
 18 13  1  0
 18 17  2  0
 19 20  2  0
 21 22  1  0
 23 22  1  6
 23 25  1  0
 24 23  1  0
 24 19  1  0
 25 26  2  0
 25 27  1  0
M  END
$$$$
