KFS.pdb
     RDKit          3D

 27 27  0  0  1  0  0  0  0  0999 V2000
    7.2572  -16.1079   21.4531 N   0  0  0  0  0  0  0  0  0  0  0  0
    8.4446  -15.3227   21.3783 C   0  0  1  0  0  0  0  0  0  0  0  0
    8.3080  -14.0015   20.7082 C   0  0  0  0  0  0  0  0  0  0  0  0
    7.7208  -14.0078   19.3436 C   0  0  0  0  0  0  0  0  0  0  0  0
    8.5025  -13.3061   18.2880 C   0  0  0  0  0  0  0  0  0  0  0  0
    7.7155  -13.2675   16.9694 C   0  0  0  0  0  0  0  0  0  0  0  0
    8.5698  -12.6912   15.9686 N   0  0  0  0  0  0  0  0  0  0  0  0
    8.9741  -15.1136   22.7643 C   0  0  0  0  0  0  0  0  0  0  0  0
   10.0469  -14.4798   22.9446 O   0  0  0  0  0  0  0  0  0  0  0  0
    8.3158  -15.6040   23.9258 N   0  0  0  0  0  0  0  0  0  0  0  0
    8.8216  -15.5171   25.2659 C   0  0  1  0  0  0  0  0  0  0  0  0
    7.7969  -15.1430   26.2817 C   0  0  0  0  0  0  0  0  0  0  0  0
    7.3076  -13.7861   26.2525 C   0  0  0  0  0  0  0  0  0  0  0  0
    8.1860  -12.7363   26.3845 C   0  0  0  0  0  0  0  0  0  0  0  0
    7.7387  -11.4092   26.3603 C   0  0  0  0  0  0  0  0  0  0  0  0
    6.3999  -11.1339   26.2024 C   0  0  0  0  0  0  0  0  0  0  0  0
    5.5221  -12.1679   26.0708 C   0  0  0  0  0  0  0  0  0  0  0  0
    5.9781  -13.4649   26.0967 C   0  0  0  0  0  0  0  0  0  0  0  0
    9.6571  -16.6750   25.6589 C   0  0  0  0  0  0  0  0  0  0  0  0
   10.0385  -16.8512   26.8641 O   0  0  0  0  0  0  0  0  0  0  0  0
   11.5323  -20.9839   24.3953 O   0  0  0  0  0  0  0  0  0  0  0  0
   10.7744  -19.8634   24.0860 C   0  0  0  0  0  0  0  0  0  0  0  0
   10.8670  -18.8119   25.1936 C   0  0  2  0  0  0  0  0  0  0  0  0
   10.0933  -17.6713   24.7411 N   0  0  0  0  0  0  0  0  0  0  0  0
   12.2639  -18.4030   25.3817 C   0  0  0  0  0  0  0  0  0  0  0  0
   12.6331  -17.2722   24.9965 O   0  0  0  0  0  0  0  0  0  0  0  0
   13.1706  -19.2464   25.9766 O   0  0  0  0  0  0  0  0  0  0  0  0
  2  1  1  1
  2  8  1  0
  3  2  1  0
  3  4  1  0
  4  5  1  0
  6  5  1  0
  6  7  1  0
  8  9  2  0
 10  8  1  0
 10 11  1  0
 11 19  1  0
 12 13  1  0
 11 12  1  1
 13 14  2  0
 14 15  1  0
 16 15  2  0
 17 16  1  0
 18 13  1  0
 18 17  2  0
 19 20  2  0
 21 22  1  0
 23 22  1  6
 23 25  1  0
 24 23  1  0
 24 19  1  0
 25 26  2  0
 25 27  1  0
M  END
$$$$
