KFS.pdb
     RDKit          3D

 27 27  0  0  1  0  0  0  0  0999 V2000
    7.0945  -16.2930   21.3119 N   0  0  0  0  0  0  0  0  0  0  0  0
    8.3391  -15.5981   21.3202 C   0  0  1  0  0  0  0  0  0  0  0  0
    8.3124  -14.2122   20.7800 C   0  0  0  0  0  0  0  0  0  0  0  0
    7.9153  -14.0631   19.3563 C   0  0  0  0  0  0  0  0  0  0  0  0
    8.8500  -13.2926   18.4900 C   0  0  0  0  0  0  0  0  0  0  0  0
    8.3810  -13.3246   17.0277 C   0  0  0  0  0  0  0  0  0  0  0  0
    8.0360  -11.9820   16.6510 N   0  0  0  0  0  0  0  0  0  0  0  0
    8.8646  -15.5642   22.7230 C   0  0  0  0  0  0  0  0  0  0  0  0
    9.9678  -15.0118   22.9740 O   0  0  0  0  0  0  0  0  0  0  0  0
    8.1691  -16.1372   23.8234 N   0  0  0  0  0  0  0  0  0  0  0  0
    8.6175  -16.1248   25.1865 C   0  0  1  0  0  0  0  0  0  0  0  0
    7.6050  -15.6206   26.1573 C   0  0  0  0  0  0  0  0  0  0  0  0
    7.3460  -14.2014   26.1589 C   0  0  0  0  0  0  0  0  0  0  0  0
    6.0942  -13.7314   25.8375 C   0  0  0  0  0  0  0  0  0  0  0  0
    5.8148  -12.3589   25.8305 C   0  0  0  0  0  0  0  0  0  0  0  0
    6.7993  -11.4515   26.1482 C   0  0  0  0  0  0  0  0  0  0  0  0
    8.0427  -11.9082   26.4679 C   0  0  0  0  0  0  0  0  0  0  0  0
    8.3000  -13.2590   26.4700 C   0  0  0  0  0  0  0  0  0  0  0  0
    9.2705  -17.3862   25.6057 C   0  0  0  0  0  0  0  0  0  0  0  0
    8.6058  -18.4613   25.7830 O   0  0  0  0  0  0  0  0  0  0  0  0
   13.3733  -17.7441   25.6994 O   0  0  0  0  0  0  0  0  0  0  0  0
   12.5925  -18.8683   25.4712 C   0  0  0  0  0  0  0  0  0  0  0  0
   11.2584  -18.7735   26.2142 C   0  0  2  0  0  0  0  0  0  0  0  0
   10.6697  -17.5022   25.8381 N   0  0  0  0  0  0  0  0  0  0  0  0
   11.4892  -18.7880   27.6635 C   0  0  0  0  0  0  0  0  0  0  0  0
   12.0688  -19.7647   28.1864 O   0  0  0  0  0  0  0  0  0  0  0  0
   11.0774  -17.7416   28.4527 O   0  0  0  0  0  0  0  0  0  0  0  0
  2  1  1  1
  2  8  1  0
  3  2  1  0
  3  4  1  0
  4  5  1  0
  6  5  1  0
  6  7  1  0
  8  9  2  0
 10  8  1  0
 10 11  1  0
 11 19  1  0
 12 13  1  0
 11 12  1  1
 13 14  2  0
 14 15  1  0
 16 15  2  0
 17 16  1  0
 18 13  1  0
 18 17  2  0
 19 20  2  0
 21 22  1  0
 23 22  1  6
 23 25  1  0
 24 23  1  0
 24 19  1  0
 25 26  2  0
 25 27  1  0
M  END
$$$$
