KFS.pdb
     RDKit          3D

 27 27  0  0  1  0  0  0  0  0999 V2000
   10.4740  -16.5913   19.5287 N   0  0  0  0  0  0  0  0  0  0  0  0
    9.3225  -16.8924   20.3132 C   0  0  1  0  0  0  0  0  0  0  0  0
    9.0685  -18.3363   20.5658 C   0  0  0  0  0  0  0  0  0  0  0  0
    8.6479  -19.1500   19.3961 C   0  0  0  0  0  0  0  0  0  0  0  0
    9.7398  -19.8046   18.6236 C   0  0  0  0  0  0  0  0  0  0  0  0
    9.1580  -20.6960   17.5161 C   0  0  0  0  0  0  0  0  0  0  0  0
   10.2540  -21.1724   16.7191 N   0  0  0  0  0  0  0  0  0  0  0  0
    9.4326  -16.1800   21.6268 C   0  0  0  0  0  0  0  0  0  0  0  0
   10.5062  -16.2218   22.2831 O   0  0  0  0  0  0  0  0  0  0  0  0
    8.3622  -15.4352   22.1947 N   0  0  0  0  0  0  0  0  0  0  0  0
    8.3839  -14.7990   23.4808 C   0  0  1  0  0  0  0  0  0  0  0  0
    7.3358  -13.7549   23.6627 C   0  0  0  0  0  0  0  0  0  0  0  0
    7.2185  -13.1630   24.9732 C   0  0  0  0  0  0  0  0  0  0  0  0
    8.0849  -12.1662   25.3564 C   0  0  0  0  0  0  0  0  0  0  0  0
    7.9945  -11.5742   26.6227 C   0  0  0  0  0  0  0  0  0  0  0  0
    7.0274  -11.9858   27.5106 C   0  0  0  0  0  0  0  0  0  0  0  0
    6.1645  -12.9730   27.1394 C   0  0  0  0  0  0  0  0  0  0  0  0
    6.2672  -13.5435   25.8924 C   0  0  0  0  0  0  0  0  0  0  0  0
    8.4801  -15.7518   24.6104 C   0  0  0  0  0  0  0  0  0  0  0  0
    7.5688  -16.6148   24.8422 O   0  0  0  0  0  0  0  0  0  0  0  0
   11.8529  -17.1876   25.5468 O   0  0  0  0  0  0  0  0  0  0  0  0
   10.7106  -17.8292   26.0042 C   0  0  0  0  0  0  0  0  0  0  0  0
    9.6823  -16.8218   26.5226 C   0  0  2  0  0  0  0  0  0  0  0  0
    9.5798  -15.7851   25.5132 N   0  0  0  0  0  0  0  0  0  0  0  0
   10.1525  -16.2266   27.7791 C   0  0  0  0  0  0  0  0  0  0  0  0
   10.3164  -14.9892   27.8523 O   0  0  0  0  0  0  0  0  0  0  0  0
   10.4137  -17.0115   28.8759 O   0  0  0  0  0  0  0  0  0  0  0  0
  2  1  1  1
  2  8  1  0
  3  2  1  0
  3  4  1  0
  4  5  1  0
  6  5  1  0
  6  7  1  0
  8  9  2  0
 10  8  1  0
 10 11  1  0
 11 19  1  0
 12 13  1  0
 11 12  1  1
 13 14  2  0
 14 15  1  0
 16 15  2  0
 17 16  1  0
 18 13  1  0
 18 17  2  0
 19 20  2  0
 21 22  1  0
 23 22  1  6
 23 25  1  0
 24 23  1  0
 24 19  1  0
 25 26  2  0
 25 27  1  0
M  END
$$$$
