KFS.pdb
     RDKit          3D

 27 27  0  0  1  0  0  0  0  0999 V2000
    7.3554  -16.3339   19.8623 N   0  0  0  0  0  0  0  0  0  0  0  0
    8.4615  -15.4347   19.8594 C   0  0  1  0  0  0  0  0  0  0  0  0
    8.2977  -14.2066   19.0358 C   0  0  0  0  0  0  0  0  0  0  0  0
    7.9170  -14.4078   17.6140 C   0  0  0  0  0  0  0  0  0  0  0  0
    8.8708  -13.8839   16.5973 C   0  0  0  0  0  0  0  0  0  0  0  0
    8.3357  -14.1289   15.1785 C   0  0  0  0  0  0  0  0  0  0  0  0
    9.2503  -13.5160   14.2557 N   0  0  0  0  0  0  0  0  0  0  0  0
    8.7652  -15.0372   21.2718 C   0  0  0  0  0  0  0  0  0  0  0  0
    9.8159  -14.3972   21.5388 O   0  0  0  0  0  0  0  0  0  0  0  0
    7.9094  -15.3496   22.3641 N   0  0  0  0  0  0  0  0  0  0  0  0
    8.1276  -14.9597   23.7278 C   0  0  1  0  0  0  0  0  0  0  0  0
    6.9359  -14.3541   24.3873 C   0  0  0  0  0  0  0  0  0  0  0  0
    7.1512  -13.6859   25.6476 C   0  0  0  0  0  0  0  0  0  0  0  0
    7.4530  -14.4194   26.7710 C   0  0  0  0  0  0  0  0  0  0  0  0
    7.6665  -13.7970   28.0076 C   0  0  0  0  0  0  0  0  0  0  0  0
    7.5762  -12.4284   28.1172 C   0  0  0  0  0  0  0  0  0  0  0  0
    7.2776  -11.6935   27.0093 C   0  0  0  0  0  0  0  0  0  0  0  0
    7.0711  -12.3204   25.8030 C   0  0  0  0  0  0  0  0  0  0  0  0
    8.7952  -16.0017   24.5412 C   0  0  0  0  0  0  0  0  0  0  0  0
    8.2967  -17.1683   24.6809 O   0  0  0  0  0  0  0  0  0  0  0  0
   12.1338  -17.2763   24.0740 O   0  0  0  0  0  0  0  0  0  0  0  0
   12.1079  -16.9471   25.4218 C   0  0  0  0  0  0  0  0  0  0  0  0
   10.6717  -16.8724   25.9439 C   0  0  2  0  0  0  0  0  0  0  0  0
   10.0285  -15.7924   25.2198 N   0  0  0  0  0  0  0  0  0  0  0  0
   10.6747  -16.5572   27.3773 C   0  0  0  0  0  0  0  0  0  0  0  0
   10.1759  -15.4813   27.7736 O   0  0  0  0  0  0  0  0  0  0  0  0
   11.2175  -17.4297   28.2891 O   0  0  0  0  0  0  0  0  0  0  0  0
  2  1  1  1
  2  8  1  0
  3  2  1  0
  3  4  1  0
  4  5  1  0
  6  5  1  0
  6  7  1  0
  8  9  2  0
 10  8  1  0
 10 11  1  0
 11 19  1  0
 12 13  1  0
 11 12  1  1
 13 14  2  0
 14 15  1  0
 16 15  2  0
 17 16  1  0
 18 13  1  0
 18 17  2  0
 19 20  2  0
 21 22  1  0
 23 22  1  6
 23 25  1  0
 24 23  1  0
 24 19  1  0
 25 26  2  0
 25 27  1  0
M  END
$$$$
