KFS.pdb
     RDKit          3D

 27 27  0  0  1  0  0  0  0  0999 V2000
    8.3912  -12.4635   19.6235 N   0  0  0  0  0  0  0  0  0  0  0  0
    7.9305  -13.7437   20.0490 C   0  0  1  0  0  0  0  0  0  0  0  0
    8.2656  -14.8843   19.1547 C   0  0  0  0  0  0  0  0  0  0  0  0
    7.8746  -14.7454   17.7282 C   0  0  0  0  0  0  0  0  0  0  0  0
    8.1569  -15.9160   16.8519 C   0  0  0  0  0  0  0  0  0  0  0  0
    7.7317  -15.6223   15.4054 C   0  0  0  0  0  0  0  0  0  0  0  0
    7.8602  -16.8418   14.6571 N   0  0  0  0  0  0  0  0  0  0  0  0
    8.4726  -14.0222   21.4178 C   0  0  0  0  0  0  0  0  0  0  0  0
    9.6451  -13.6758   21.7185 O   0  0  0  0  0  0  0  0  0  0  0  0
    7.7173  -14.6756   22.4305 N   0  0  0  0  0  0  0  0  0  0  0  0
    8.2063  -15.0315   23.7318 C   0  0  1  0  0  0  0  0  0  0  0  0
    7.2000  -14.8878   24.8221 C   0  0  0  0  0  0  0  0  0  0  0  0
    7.0805  -13.5891   25.4389 C   0  0  0  0  0  0  0  0  0  0  0  0
    5.8957  -12.8960   25.3562 C   0  0  0  0  0  0  0  0  0  0  0  0
    5.7517  -11.6332   25.9451 C   0  0  0  0  0  0  0  0  0  0  0  0
    6.8049  -11.0622   26.6219 C   0  0  0  0  0  0  0  0  0  0  0  0
    7.9828  -11.7418   26.7090 C   0  0  0  0  0  0  0  0  0  0  0  0
    8.1071  -12.9806   26.1251 C   0  0  0  0  0  0  0  0  0  0  0  0
    8.9348  -16.3206   23.7577 C   0  0  0  0  0  0  0  0  0  0  0  0
    8.3986  -17.4047   23.3501 O   0  0  0  0  0  0  0  0  0  0  0  0
   12.8896  -16.3264   24.2061 O   0  0  0  0  0  0  0  0  0  0  0  0
   12.3497  -17.4877   23.6719 C   0  0  0  0  0  0  0  0  0  0  0  0
   10.9408  -17.7404   24.2123 C   0  0  2  0  0  0  0  0  0  0  0  0
   10.2713  -16.4536   24.2280 N   0  0  0  0  0  0  0  0  0  0  0  0
   11.0150  -18.2621   25.5821 C   0  0  0  0  0  0  0  0  0  0  0  0
   10.4950  -17.6157   26.5176 O   0  0  0  0  0  0  0  0  0  0  0  0
   11.6477  -19.4519   25.8493 O   0  0  0  0  0  0  0  0  0  0  0  0
  2  1  1  6
  2  8  1  0
  3  2  1  0
  3  4  1  0
  4  5  1  0
  6  5  1  0
  6  7  1  0
  8  9  2  0
 10  8  1  0
 10 11  1  0
 11 19  1  0
 12 13  1  0
 11 12  1  1
 13 14  2  0
 14 15  1  0
 16 15  2  0
 17 16  1  0
 18 13  1  0
 18 17  2  0
 19 20  2  0
 21 22  1  0
 23 22  1  1
 23 25  1  0
 24 23  1  0
 24 19  1  0
 25 26  2  0
 25 27  1  0
M  END
$$$$
