KFS.pdb
     RDKit          3D

 27 27  0  0  1  0  0  0  0  0999 V2000
    8.2657  -18.1031   20.2547 N   0  0  0  0  0  0  0  0  0  0  0  0
    9.6240  -17.7070   20.4281 C   0  0  1  0  0  0  0  0  0  0  0  0
   10.2824  -17.1068   19.2367 C   0  0  0  0  0  0  0  0  0  0  0  0
   10.3689  -17.9627   18.0255 C   0  0  0  0  0  0  0  0  0  0  0  0
   11.6898  -18.5978   17.7619 C   0  0  0  0  0  0  0  0  0  0  0  0
   11.6809  -19.3192   16.4058 C   0  0  0  0  0  0  0  0  0  0  0  0
   13.0193  -19.7699   16.1429 N   0  0  0  0  0  0  0  0  0  0  0  0
    9.7033  -16.7380   21.5683 C   0  0  0  0  0  0  0  0  0  0  0  0
   10.8187  -16.2929   21.9463 O   0  0  0  0  0  0  0  0  0  0  0  0
    8.5566  -16.2760   22.2715 N   0  0  0  0  0  0  0  0  0  0  0  0
    8.5786  -15.4361   23.4349 C   0  0  1  0  0  0  0  0  0  0  0  0
    7.4453  -14.4709   23.5122 C   0  0  0  0  0  0  0  0  0  0  0  0
    7.4090  -13.5903   24.6543 C   0  0  0  0  0  0  0  0  0  0  0  0
    6.6253  -13.9051   25.7396 C   0  0  0  0  0  0  0  0  0  0  0  0
    6.5706  -13.0683   26.8615 C   0  0  0  0  0  0  0  0  0  0  0  0
    7.3079  -11.9070   26.8942 C   0  0  0  0  0  0  0  0  0  0  0  0
    8.0873  -11.5870   25.8233 C   0  0  0  0  0  0  0  0  0  0  0  0
    8.1295  -12.4198   24.7298 C   0  0  0  0  0  0  0  0  0  0  0  0
    8.8192  -16.1767   24.6946 C   0  0  0  0  0  0  0  0  0  0  0  0
    8.0305  -17.0968   25.0952 O   0  0  0  0  0  0  0  0  0  0  0  0
   11.5568  -18.0037   25.0208 O   0  0  0  0  0  0  0  0  0  0  0  0
   11.5694  -17.4904   26.3100 C   0  0  0  0  0  0  0  0  0  0  0  0
   10.2366  -16.8204   26.6499 C   0  0  2  0  0  0  0  0  0  0  0  0
    9.9325  -15.9299   25.5459 N   0  0  0  0  0  0  0  0  0  0  0  0
   10.3705  -16.0332   27.8814 C   0  0  0  0  0  0  0  0  0  0  0  0
   10.7110  -16.6004   28.9424 O   0  0  0  0  0  0  0  0  0  0  0  0
   10.1273  -14.6811   27.8829 O   0  0  0  0  0  0  0  0  0  0  0  0
  2  1  1  6
  2  8  1  0
  3  2  1  0
  3  4  1  0
  4  5  1  0
  6  5  1  0
  6  7  1  0
  8  9  2  0
 10  8  1  0
 10 11  1  0
 11 19  1  0
 12 13  1  0
 11 12  1  1
 13 14  2  0
 14 15  1  0
 16 15  2  0
 17 16  1  0
 18 13  1  0
 18 17  2  0
 19 20  2  0
 21 22  1  0
 23 22  1  6
 23 25  1  0
 24 23  1  0
 24 19  1  0
 25 26  2  0
 25 27  1  0
M  END
$$$$
