KFS.pdb
     RDKit          3D

 27 27  0  0  1  0  0  0  0  0999 V2000
   10.3957  -16.9426   19.5299 N   0  0  0  0  0  0  0  0  0  0  0  0
    9.1139  -16.8506   20.1466 C   0  0  1  0  0  0  0  0  0  0  0  0
    8.3797  -18.1338   20.3125 C   0  0  0  0  0  0  0  0  0  0  0  0
    9.1703  -19.3783   20.1308 C   0  0  0  0  0  0  0  0  0  0  0  0
    8.4281  -20.6589   20.2949 C   0  0  0  0  0  0  0  0  0  0  0  0
    9.3274  -21.8530   19.9419 C   0  0  0  0  0  0  0  0  0  0  0  0
    8.5927  -23.0529   20.2320 N   0  0  0  0  0  0  0  0  0  0  0  0
    9.2681  -16.2006   21.4878 C   0  0  0  0  0  0  0  0  0  0  0  0
   10.3248  -16.3615   22.1531 O   0  0  0  0  0  0  0  0  0  0  0  0
    8.2595  -15.3861   22.0730 N   0  0  0  0  0  0  0  0  0  0  0  0
    8.3078  -14.8245   23.3927 C   0  0  1  0  0  0  0  0  0  0  0  0
    7.2594  -13.7986   23.6579 C   0  0  0  0  0  0  0  0  0  0  0  0
    7.2236  -13.2224   24.9800 C   0  0  0  0  0  0  0  0  0  0  0  0
    8.2302  -12.3796   25.3893 C   0  0  0  0  0  0  0  0  0  0  0  0
    8.2213  -11.8066   26.6674 C   0  0  0  0  0  0  0  0  0  0  0  0
    7.1944  -12.0816   27.5409 C   0  0  0  0  0  0  0  0  0  0  0  0
    6.1926  -12.9156   27.1439 C   0  0  0  0  0  0  0  0  0  0  0  0
    6.2168  -13.4697   25.8856 C   0  0  0  0  0  0  0  0  0  0  0  0
    8.4340  -15.8400   24.4632 C   0  0  0  0  0  0  0  0  0  0  0  0
    7.5237  -16.7086   24.6773 O   0  0  0  0  0  0  0  0  0  0  0  0
   11.2889  -18.8538   26.6038 O   0  0  0  0  0  0  0  0  0  0  0  0
   10.9799  -17.8049   25.7493 C   0  0  0  0  0  0  0  0  0  0  0  0
    9.7274  -17.0619   26.2184 C   0  0  2  0  0  0  0  0  0  0  0  0
    9.5631  -15.9313   25.3246 N   0  0  0  0  0  0  0  0  0  0  0  0
    9.9192  -16.5701   27.5878 C   0  0  0  0  0  0  0  0  0  0  0  0
   10.0517  -15.3433   27.7900 O   0  0  0  0  0  0  0  0  0  0  0  0
    9.9539  -17.4403   28.6503 O   0  0  0  0  0  0  0  0  0  0  0  0
  2  1  1  1
  2  8  1  0
  3  2  1  0
  3  4  1  0
  4  5  1  0
  6  5  1  0
  6  7  1  0
  8  9  2  0
 10  8  1  0
 10 11  1  0
 11 19  1  0
 12 13  1  0
 11 12  1  1
 13 14  2  0
 14 15  1  0
 16 15  2  0
 17 16  1  0
 18 13  1  0
 18 17  2  0
 19 20  2  0
 21 22  1  0
 23 22  1  6
 23 25  1  0
 24 23  1  0
 24 19  1  0
 25 26  2  0
 25 27  1  0
M  END
$$$$
