KFS.pdb
     RDKit          3D

 27 27  0  0  1  0  0  0  0  0999 V2000
    8.5298  -14.8759   19.9981 N   0  0  0  0  0  0  0  0  0  0  0  0
    8.1903  -16.0155   20.7843 C   0  0  1  0  0  0  0  0  0  0  0  0
    8.7046  -17.3212   20.2906 C   0  0  0  0  0  0  0  0  0  0  0  0
    8.2831  -17.7264   18.9249 C   0  0  0  0  0  0  0  0  0  0  0  0
    8.7276  -19.0735   18.4719 C   0  0  0  0  0  0  0  0  0  0  0  0
    8.2928  -19.3255   17.0204 C   0  0  0  0  0  0  0  0  0  0  0  0
    8.7342  -20.6430   16.6556 N   0  0  0  0  0  0  0  0  0  0  0  0
    8.6760  -15.7986   22.1851 C   0  0  0  0  0  0  0  0  0  0  0  0
    9.8701  -15.4606   22.3973 O   0  0  0  0  0  0  0  0  0  0  0  0
    7.8416  -15.9568   23.3260 N   0  0  0  0  0  0  0  0  0  0  0  0
    8.2585  -15.7904   24.6890 C   0  0  1  0  0  0  0  0  0  0  0  0
    7.1839  -15.3045   25.6007 C   0  0  0  0  0  0  0  0  0  0  0  0
    7.1045  -13.8812   25.8227 C   0  0  0  0  0  0  0  0  0  0  0  0
    8.1970  -13.0849   25.5708 C   0  0  0  0  0  0  0  0  0  0  0  0
    8.1483  -11.7004   25.7779 C   0  0  0  0  0  0  0  0  0  0  0  0
    6.9945  -11.1111   26.2414 C   0  0  0  0  0  0  0  0  0  0  0  0
    5.9070  -11.8924   26.4937 C   0  0  0  0  0  0  0  0  0  0  0  0
    5.9718  -13.2500   26.2849 C   0  0  0  0  0  0  0  0  0  0  0  0
    9.0157  -16.9465   25.2213 C   0  0  0  0  0  0  0  0  0  0  0  0
    8.4981  -18.1104   25.3016 O   0  0  0  0  0  0  0  0  0  0  0  0
   13.2886  -18.8807   26.3683 O   0  0  0  0  0  0  0  0  0  0  0  0
   12.5113  -17.8875   25.7895 C   0  0  0  0  0  0  0  0  0  0  0  0
   11.0456  -18.0201   26.2079 C   0  0  2  0  0  0  0  0  0  0  0  0
   10.3612  -16.8569   25.6762 N   0  0  0  0  0  0  0  0  0  0  0  0
   10.9393  -18.0148   27.6716 C   0  0  0  0  0  0  0  0  0  0  0  0
   11.4658  -18.9368   28.3320 O   0  0  0  0  0  0  0  0  0  0  0  0
   10.2694  -17.0093   28.3255 O   0  0  0  0  0  0  0  0  0  0  0  0
  2  1  1  6
  2  8  1  0
  3  2  1  0
  3  4  1  0
  4  5  1  0
  6  5  1  0
  6  7  1  0
  8  9  2  0
 10  8  1  0
 10 11  1  0
 11 19  1  0
 12 13  1  0
 11 12  1  1
 13 14  2  0
 14 15  1  0
 16 15  2  0
 17 16  1  0
 18 13  1  0
 18 17  2  0
 19 20  2  0
 21 22  1  0
 23 22  1  1
 23 25  1  0
 24 23  1  0
 24 19  1  0
 25 26  2  0
 25 27  1  0
M  END
$$$$
