KFS.pdb
     RDKit          3D

 27 27  0  0  1  0  0  0  0  0999 V2000
    8.4697  -14.3963   19.9797 N   0  0  0  0  0  0  0  0  0  0  0  0
    7.9839  -15.4758   20.7740 C   0  0  1  0  0  0  0  0  0  0  0  0
    8.2767  -16.8416   20.2619 C   0  0  0  0  0  0  0  0  0  0  0  0
    7.6860  -17.1969   18.9459 C   0  0  0  0  0  0  0  0  0  0  0  0
    7.8848  -18.6018   18.4935 C   0  0  0  0  0  0  0  0  0  0  0  0
    7.0995  -18.8688   17.2007 C   0  0  0  0  0  0  0  0  0  0  0  0
    7.3614  -20.2242   16.8035 N   0  0  0  0  0  0  0  0  0  0  0  0
    8.5400  -15.3454   22.1592 C   0  0  0  0  0  0  0  0  0  0  0  0
    9.7294  -14.9710   22.3328 O   0  0  0  0  0  0  0  0  0  0  0  0
    7.7796  -15.6281   23.3275 N   0  0  0  0  0  0  0  0  0  0  0  0
    8.2965  -15.6660   24.6656 C   0  0  1  0  0  0  0  0  0  0  0  0
    7.2946  -15.3287   25.7165 C   0  0  0  0  0  0  0  0  0  0  0  0
    7.0193  -13.9297   25.9369 C   0  0  0  0  0  0  0  0  0  0  0  0
    7.8848  -13.1696   26.6880 C   0  0  0  0  0  0  0  0  0  0  0  0
    7.6422  -11.8094   26.9186 C   0  0  0  0  0  0  0  0  0  0  0  0
    6.5225  -11.2081   26.3912 C   0  0  0  0  0  0  0  0  0  0  0  0
    5.6593  -11.9536   25.6457 C   0  0  0  0  0  0  0  0  0  0  0  0
    5.9127  -13.2877   25.4290 C   0  0  0  0  0  0  0  0  0  0  0  0
    9.0845  -16.8847   24.9610 C   0  0  0  0  0  0  0  0  0  0  0  0
    8.6345  -18.0531   24.7137 O   0  0  0  0  0  0  0  0  0  0  0  0
   12.5862  -17.5167   23.9292 O   0  0  0  0  0  0  0  0  0  0  0  0
   12.5583  -17.8151   25.2841 C   0  0  0  0  0  0  0  0  0  0  0  0
   11.1289  -18.0791   25.7614 C   0  0  2  0  0  0  0  0  0  0  0  0
   10.3876  -16.8534   25.5320 N   0  0  0  0  0  0  0  0  0  0  0  0
   11.1273  -18.3818   27.1975 C   0  0  0  0  0  0  0  0  0  0  0  0
   10.4772  -17.6555   27.9806 O   0  0  0  0  0  0  0  0  0  0  0  0
   11.8301  -19.4536   27.6921 O   0  0  0  0  0  0  0  0  0  0  0  0
  2  1  1  6
  2  8  1  0
  3  2  1  0
  3  4  1  0
  4  5  1  0
  6  5  1  0
  6  7  1  0
  8  9  2  0
 10  8  1  0
 10 11  1  0
 11 19  1  0
 12 13  1  0
 11 12  1  1
 13 14  2  0
 14 15  1  0
 16 15  2  0
 17 16  1  0
 18 13  1  0
 18 17  2  0
 19 20  2  0
 21 22  1  0
 23 22  1  1
 23 25  1  0
 24 23  1  0
 24 19  1  0
 25 26  2  0
 25 27  1  0
M  END
$$$$
