EQY.pdb
     RDKit          3D

 31 31  0  0  1  0  0  0  0  0999 V2000
   19.6538   -9.2415  -15.9049 N   0  0  0  0  0  0  0  0  0  0  0  0
   20.3394   -9.4388  -14.6424 C   0  0  1  0  0  0  0  0  0  0  0  0
   21.8364   -9.4859  -14.8861 C   0  0  0  0  0  0  0  0  0  0  0  0
   22.2485  -10.7633  -15.5568 C   0  0  0  0  0  0  0  0  0  0  0  0
   22.6663  -10.4584  -16.9487 C   0  0  0  0  0  0  0  0  0  0  0  0
   22.7162   -9.2767  -17.3690 O   0  0  0  0  0  0  0  0  0  0  0  0
   19.9801   -8.3692  -13.6804 C   0  0  0  0  0  0  0  0  0  0  0  0
   20.4549   -8.4217  -12.5266 O   0  0  0  0  0  0  0  0  0  0  0  0
   23.0144  -11.4730  -17.8273 O   0  0  0  0  0  0  0  0  0  0  0  0
   18.3284   -2.2664  -14.9217 N   0  0  0  0  0  0  0  0  0  0  0  0
   18.6457   -3.4034  -15.7323 C   0  0  0  0  0  0  0  0  0  0  0  0
   18.8333   -3.1764  -16.9453 O   0  0  0  0  0  0  0  0  0  0  0  0
   18.7439   -4.7495  -15.1930 C   0  0  0  0  0  0  0  0  0  0  0  0
   18.5300   -4.9425  -13.7458 C   0  0  0  0  0  0  0  0  0  0  0  0
   18.7139   -6.2963  -13.1786 C   0  0  2  0  0  0  0  0  0  0  0  0
   19.1078   -7.3142  -14.0910 N   0  0  0  0  0  0  0  0  0  0  0  0
   17.4931   -6.7125  -12.3940 C   0  0  0  0  0  0  0  0  0  0  0  0
   16.5756   -7.3782  -12.9376 O   0  0  0  0  0  0  0  0  0  0  0  0
   11.5123   -8.0302   -6.1808 O   0  0  0  0  0  0  0  0  0  0  0  0
   12.7149   -7.8431   -6.8831 C   0  0  0  0  0  0  0  0  0  0  0  0
   13.1475   -8.8417   -7.7383 C   0  0  0  0  0  0  0  0  0  0  0  0
   14.3283   -8.6479   -8.4225 C   0  0  0  0  0  0  0  0  0  0  0  0
   15.0772   -7.5115   -8.2838 C   0  0  0  0  0  0  0  0  0  0  0  0
   16.3300   -7.3415   -9.0301 C   0  0  0  0  0  0  0  0  0  0  0  0
   16.0875   -6.6150  -10.3065 C   0  0  2  0  0  0  0  0  0  0  0  0
   17.3494   -6.3640  -11.0247 N   0  0  0  0  0  0  0  0  0  0  0  0
   15.2875   -5.3888  -10.2098 C   0  0  0  0  0  0  0  0  0  0  0  0
   14.0237   -5.5061  -10.0533 O   0  0  0  0  0  0  0  0  0  0  0  0
   14.6580   -6.4950   -7.4273 C   0  0  0  0  0  0  0  0  0  0  0  0
   13.4758   -6.7037   -6.7505 C   0  0  0  0  0  0  0  0  0  0  0  0
   15.7617   -4.0958  -10.2697 O   0  0  0  0  0  0  0  0  0  0  0  0
  2  3  1  0
  2  1  1  6
  4  3  1  0
  5  4  1  0
  6  5  2  0
  7  2  1  0
  8  7  2  0
  9  5  1  0
 10 11  1  0
 11 12  2  0
 11 13  1  0
 13 14  1  0
 15 14  1  6
 15 16  1  0
 16  7  1  0
 17 15  1  0
 17 18  2  0
 19 20  1  0
 20 21  2  0
 21 22  1  0
 23 22  2  0
 23 24  1  0
 25 24  1  1
 25 26  1  0
 26 17  1  0
 27 25  1  0
 28 27  2  0
 29 23  1  0
 30 20  1  0
 30 29  2  0
 31 27  1  0
M  END
$$$$
