EQY.pdb
     RDKit          3D

 31 31  0  0  1  0  0  0  0  0999 V2000
   38.5097  -11.6793   -6.7234 N   0  0  0  0  0  0  0  0  0  0  0  0
   39.7004  -11.0067   -7.2061 C   0  0  1  0  0  0  0  0  0  0  0  0
   39.3914  -10.3247   -8.5260 C   0  0  0  0  0  0  0  0  0  0  0  0
   39.0707  -11.3201   -9.6020 C   0  0  0  0  0  0  0  0  0  0  0  0
   40.2292  -11.4138  -10.5262 C   0  0  0  0  0  0  0  0  0  0  0  0
   41.2621  -10.7234  -10.3468 O   0  0  0  0  0  0  0  0  0  0  0  0
   40.1977  -10.0387   -6.1990 C   0  0  0  0  0  0  0  0  0  0  0  0
   39.3675   -9.4650   -5.4634 O   0  0  0  0  0  0  0  0  0  0  0  0
   40.2037  -12.2689  -11.6173 O   0  0  0  0  0  0  0  0  0  0  0  0
   46.1331   -9.5949   -3.5126 N   0  0  0  0  0  0  0  0  0  0  0  0
   45.3788   -8.4349   -3.1438 C   0  0  0  0  0  0  0  0  0  0  0  0
   45.9176   -7.6711   -2.3164 O   0  0  0  0  0  0  0  0  0  0  0  0
   44.0613   -8.1494   -3.6870 C   0  0  0  0  0  0  0  0  0  0  0  0
   43.4632   -9.1207   -4.6230 C   0  0  0  0  0  0  0  0  0  0  0  0
   42.1058   -8.8536   -5.1471 C   0  0  2  0  0  0  0  0  0  0  0  0
   41.6006   -9.7868   -6.0945 N   0  0  0  0  0  0  0  0  0  0  0  0
   42.0083   -7.4409   -5.6706 C   0  0  0  0  0  0  0  0  0  0  0  0
   42.3677   -7.1635   -6.8429 O   0  0  0  0  0  0  0  0  0  0  0  0
   37.0728   -3.1010   -1.1706 O   0  0  0  0  0  0  0  0  0  0  0  0
   37.8053   -3.4836   -2.3070 C   0  0  0  0  0  0  0  0  0  0  0  0
   37.5986   -4.7452   -2.8374 C   0  0  0  0  0  0  0  0  0  0  0  0
   38.3222   -5.1103   -3.9523 C   0  0  0  0  0  0  0  0  0  0  0  0
   39.2281   -4.2733   -4.5441 C   0  0  0  0  0  0  0  0  0  0  0  0
   39.9799   -4.6983   -5.7313 C   0  0  0  0  0  0  0  0  0  0  0  0
   41.3894   -5.0176   -5.3749 C   0  0  2  0  0  0  0  0  0  0  0  0
   41.5094   -6.3910   -4.8546 N   0  0  0  0  0  0  0  0  0  0  0  0
   42.0643   -4.0617   -4.4896 C   0  0  0  0  0  0  0  0  0  0  0  0
   42.4699   -4.4796   -3.3511 O   0  0  0  0  0  0  0  0  0  0  0  0
   39.4500   -2.9992   -4.0244 C   0  0  0  0  0  0  0  0  0  0  0  0
   38.7192   -2.6491   -2.9098 C   0  0  0  0  0  0  0  0  0  0  0  0
   42.3148   -2.7333   -4.7591 O   0  0  0  0  0  0  0  0  0  0  0  0
  2  3  1  0
  2  1  1  1
  4  3  1  0
  5  4  1  0
  6  5  2  0
  7  2  1  0
  8  7  2  0
  9  5  1  0
 10 11  1  0
 11 12  2  0
 11 13  1  0
 13 14  1  0
 15 14  1  6
 15 16  1  0
 16  7  1  0
 17 15  1  0
 17 18  2  0
 19 20  1  0
 20 21  2  0
 21 22  1  0
 23 22  2  0
 23 24  1  0
 25 24  1  1
 25 26  1  0
 26 17  1  0
 27 25  1  0
 28 27  2  0
 29 23  1  0
 30 20  1  0
 30 29  2  0
 31 27  1  0
M  END
$$$$
