EQY.pdb
     RDKit          3D

 31 31  0  0  1  0  0  0  0  0999 V2000
   29.0652  -30.9792  -17.7372 N   0  0  0  0  0  0  0  0  0  0  0  0
   29.3148  -32.3404  -17.3036 C   0  0  1  0  0  0  0  0  0  0  0  0
   30.4853  -32.3529  -16.3380 C   0  0  0  0  0  0  0  0  0  0  0  0
   31.7852  -32.0901  -17.0400 C   0  0  0  0  0  0  0  0  0  0  0  0
   32.8753  -32.0648  -16.0320 C   0  0  0  0  0  0  0  0  0  0  0  0
   34.0507  -31.7626  -16.3524 O   0  0  0  0  0  0  0  0  0  0  0  0
   28.0983  -32.9237  -16.6885 C   0  0  0  0  0  0  0  0  0  0  0  0
   27.0669  -32.2223  -16.6269 O   0  0  0  0  0  0  0  0  0  0  0  0
   32.6260  -32.3751  -14.7039 O   0  0  0  0  0  0  0  0  0  0  0  0
   26.6839  -37.7107  -13.4948 N   0  0  0  0  0  0  0  0  0  0  0  0
   25.4837  -37.5760  -14.2641 C   0  0  0  0  0  0  0  0  0  0  0  0
   24.4587  -38.0950  -13.7760 O   0  0  0  0  0  0  0  0  0  0  0  0
   25.4430  -36.8831  -15.5411 C   0  0  0  0  0  0  0  0  0  0  0  0
   26.6798  -36.2465  -16.0332 C   0  0  0  0  0  0  0  0  0  0  0  0
   26.9736  -34.8575  -15.6172 C   0  0  2  0  0  0  0  0  0  0  0  0
   28.1334  -34.2610  -16.1854 N   0  0  0  0  0  0  0  0  0  0  0  0
   26.9876  -34.7469  -14.1117 C   0  0  0  0  0  0  0  0  0  0  0  0
   28.0737  -34.6777  -13.4822 O   0  0  0  0  0  0  0  0  0  0  0  0
   26.3813  -32.4244   -5.9741 O   0  0  0  0  0  0  0  0  0  0  0  0
   26.4074  -32.6268   -7.3643 C   0  0  0  0  0  0  0  0  0  0  0  0
   27.3781  -33.4574   -7.8970 C   0  0  0  0  0  0  0  0  0  0  0  0
   27.3946  -33.6493   -9.2618 C   0  0  0  0  0  0  0  0  0  0  0  0
   26.4911  -33.0508  -10.0967 C   0  0  0  0  0  0  0  0  0  0  0  0
   26.5407  -33.2800  -11.5459 C   0  0  0  0  0  0  0  0  0  0  0  0
   25.7879  -34.5115  -11.9098 C   0  0  2  0  0  0  0  0  0  0  0  0
   25.7776  -34.7181  -13.3688 N   0  0  0  0  0  0  0  0  0  0  0  0
   24.4347  -34.6291  -11.3550 C   0  0  0  0  0  0  0  0  0  0  0  0
   24.3010  -35.1751  -10.2065 O   0  0  0  0  0  0  0  0  0  0  0  0
   25.5064  -32.2112   -9.5790 C   0  0  0  0  0  0  0  0  0  0  0  0
   25.5031  -32.0294   -8.2130 C   0  0  0  0  0  0  0  0  0  0  0  0
   23.2665  -34.2039  -11.9508 O   0  0  0  0  0  0  0  0  0  0  0  0
  2  3  1  0
  2  1  1  1
  4  3  1  0
  5  4  1  0
  6  5  2  0
  7  2  1  0
  8  7  2  0
  9  5  1  0
 10 11  1  0
 11 12  2  0
 11 13  1  0
 13 14  1  0
 15 14  1  1
 15 16  1  0
 16  7  1  0
 17 15  1  0
 17 18  2  0
 19 20  1  0
 20 21  2  0
 21 22  1  0
 23 22  2  0
 23 24  1  0
 25 24  1  6
 25 26  1  0
 26 17  1  0
 27 25  1  0
 28 27  2  0
 29 23  1  0
 30 20  1  0
 30 29  2  0
 31 27  1  0
M  END
$$$$
