EQY.pdb
     RDKit          3D

 31 31  0  0  1  0  0  0  0  0999 V2000
   21.7005   -9.9031  -20.7007 N   0  0  0  0  0  0  0  0  0  0  0  0
   21.7367   -8.4629  -20.5355 C   0  0  1  0  0  0  0  0  0  0  0  0
   20.9190   -7.8109  -21.6350 C   0  0  0  0  0  0  0  0  0  0  0  0
   21.5669   -7.9747  -22.9785 C   0  0  0  0  0  0  0  0  0  0  0  0
   22.6521   -6.9699  -23.1108 C   0  0  0  0  0  0  0  0  0  0  0  0
   23.8532   -7.2807  -22.9208 O   0  0  0  0  0  0  0  0  0  0  0  0
   21.2419   -8.0788  -19.1916 C   0  0  0  0  0  0  0  0  0  0  0  0
   21.1927   -6.8657  -18.8991 O   0  0  0  0  0  0  0  0  0  0  0  0
   22.3694   -5.6553  -23.4490 O   0  0  0  0  0  0  0  0  0  0  0  0
   17.6725  -11.7615  -15.0943 N   0  0  0  0  0  0  0  0  0  0  0  0
   17.9473  -10.5031  -14.4687 C   0  0  0  0  0  0  0  0  0  0  0  0
   17.3957  -10.3072  -13.3661 O   0  0  0  0  0  0  0  0  0  0  0  0
   18.8112   -9.5000  -15.0685 C   0  0  0  0  0  0  0  0  0  0  0  0
   19.3622   -9.7618  -16.4120 C   0  0  0  0  0  0  0  0  0  0  0  0
   20.2619   -8.7545  -17.0156 C   0  0  2  0  0  0  0  0  0  0  0  0
   20.8372   -9.0947  -18.2714 N   0  0  0  0  0  0  0  0  0  0  0  0
   21.3229   -8.3321  -16.0282 C   0  0  0  0  0  0  0  0  0  0  0  0
   22.3595   -9.0240  -15.8632 O   0  0  0  0  0  0  0  0  0  0  0  0
   23.5176   -2.0377  -18.5019 O   0  0  0  0  0  0  0  0  0  0  0  0
   23.5373   -3.1742  -17.6759 C   0  0  0  0  0  0  0  0  0  0  0  0
   22.7568   -3.1787  -16.5328 C   0  0  0  0  0  0  0  0  0  0  0  0
   22.7833   -4.2986  -15.7296 C   0  0  0  0  0  0  0  0  0  0  0  0
   23.5488   -5.3934  -16.0244 C   0  0  0  0  0  0  0  0  0  0  0  0
   23.5503   -6.5682  -15.1440 C   0  0  0  0  0  0  0  0  0  0  0  0
   22.2682   -6.6652  -14.3940 C   0  0  2  0  0  0  0  0  0  0  0  0
   21.1783   -7.1453  -15.2618 N   0  0  0  0  0  0  0  0  0  0  0  0
   21.8593   -5.4649  -13.6557 C   0  0  0  0  0  0  0  0  0  0  0  0
   20.7127   -4.9614  -13.9144 O   0  0  0  0  0  0  0  0  0  0  0  0
   24.3412   -5.4075  -17.1709 C   0  0  0  0  0  0  0  0  0  0  0  0
   24.3039   -4.2807  -17.9634 C   0  0  0  0  0  0  0  0  0  0  0  0
   22.5934   -4.8079  -12.6915 O   0  0  0  0  0  0  0  0  0  0  0  0
  2  3  1  0
  2  1  1  6
  4  3  1  0
  5  4  1  0
  6  5  2  0
  7  2  1  0
  8  7  2  0
  9  5  1  0
 10 11  1  0
 11 12  2  0
 11 13  1  0
 13 14  1  0
 15 14  1  1
 15 16  1  0
 16  7  1  0
 17 15  1  0
 17 18  2  0
 19 20  1  0
 20 21  2  0
 21 22  1  0
 23 22  2  0
 23 24  1  0
 25 24  1  6
 25 26  1  0
 26 17  1  0
 27 25  1  0
 28 27  2  0
 29 23  1  0
 30 20  1  0
 30 29  2  0
 31 27  1  0
M  END
$$$$
