EQY.pdb
     RDKit          3D

 31 31  0  0  1  0  0  0  0  0999 V2000
   23.4409  -26.6495  -17.1399 N   0  0  0  0  0  0  0  0  0  0  0  0
   22.0355  -26.6881  -16.7845 C   0  0  1  0  0  0  0  0  0  0  0  0
   21.7185  -28.0226  -16.1354 C   0  0  0  0  0  0  0  0  0  0  0  0
   21.8416  -29.1562  -17.1107 C   0  0  0  0  0  0  0  0  0  0  0  0
   20.5066  -29.4230  -17.7036 C   0  0  0  0  0  0  0  0  0  0  0  0
   19.7260  -30.2650  -17.1964 O   0  0  0  0  0  0  0  0  0  0  0  0
   21.6914  -25.5555  -15.8916 C   0  0  0  0  0  0  0  0  0  0  0  0
   22.5094  -25.2235  -15.0083 O   0  0  0  0  0  0  0  0  0  0  0  0
   20.0822  -28.7479  -18.8378 O   0  0  0  0  0  0  0  0  0  0  0  0
   16.4810  -21.4435  -15.4021 N   0  0  0  0  0  0  0  0  0  0  0  0
   16.7463  -22.7469  -15.9325 C   0  0  0  0  0  0  0  0  0  0  0  0
   15.8120  -23.5710  -15.8539 O   0  0  0  0  0  0  0  0  0  0  0  0
   18.0224  -23.1081  -16.5269 C   0  0  0  0  0  0  0  0  0  0  0  0
   19.2591  -22.7293  -15.8166 C   0  0  0  0  0  0  0  0  0  0  0  0
   20.0800  -23.7985  -15.2072 C   0  0  2  0  0  0  0  0  0  0  0  0
   20.4449  -24.8770  -16.0602 N   0  0  0  0  0  0  0  0  0  0  0  0
   19.4361  -24.3030  -13.9384 C   0  0  0  0  0  0  0  0  0  0  0  0
   19.4056  -25.5325  -13.6778 O   0  0  0  0  0  0  0  0  0  0  0  0
   17.7174  -26.3154   -5.8966 O   0  0  0  0  0  0  0  0  0  0  0  0
   18.1592  -25.8808   -7.1577 C   0  0  0  0  0  0  0  0  0  0  0  0
   18.6571  -24.5952   -7.2809 C   0  0  0  0  0  0  0  0  0  0  0  0
   19.0879  -24.1791   -8.5223 C   0  0  0  0  0  0  0  0  0  0  0  0
   19.0391  -24.9887   -9.6240 C   0  0  0  0  0  0  0  0  0  0  0  0
   19.5078  -24.5094  -10.9301 C   0  0  0  0  0  0  0  0  0  0  0  0
   18.3960  -23.8704  -11.6859 C   0  0  2  0  0  0  0  0  0  0  0  0
   18.8494  -23.4044  -13.0082 N   0  0  0  0  0  0  0  0  0  0  0  0
   17.6604  -22.8135  -10.9824 C   0  0  0  0  0  0  0  0  0  0  0  0
   16.6753  -23.1566  -10.2427 O   0  0  0  0  0  0  0  0  0  0  0  0
   18.5410  -26.2863   -9.5197 C   0  0  0  0  0  0  0  0  0  0  0  0
   18.1142  -26.6874   -8.2723 C   0  0  0  0  0  0  0  0  0  0  0  0
   17.9231  -21.4612  -11.0332 O   0  0  0  0  0  0  0  0  0  0  0  0
  2  3  1  0
  2  1  1  1
  4  3  1  0
  5  4  1  0
  6  5  2  0
  7  2  1  0
  8  7  2  0
  9  5  1  0
 10 11  1  0
 11 12  2  0
 11 13  1  0
 13 14  1  0
 15 14  1  6
 15 16  1  0
 16  7  1  0
 17 15  1  0
 17 18  2  0
 19 20  1  0
 20 21  2  0
 21 22  1  0
 23 22  2  0
 23 24  1  0
 25 24  1  1
 25 26  1  0
 26 17  1  0
 27 25  1  0
 28 27  2  0
 29 23  1  0
 30 20  1  0
 30 29  2  0
 31 27  1  0
M  END
$$$$
