EQY.pdb
     RDKit          3D

 31 31  0  0  1  0  0  0  0  0999 V2000
   20.3184  -11.7869  -18.1482 N   0  0  0  0  0  0  0  0  0  0  0  0
   19.5446  -11.1925  -17.0754 C   0  0  1  0  0  0  0  0  0  0  0  0
   18.6903  -12.2622  -16.4206 C   0  0  0  0  0  0  0  0  0  0  0  0
   19.2970  -13.6260  -16.5733 C   0  0  0  0  0  0  0  0  0  0  0  0
   18.4203  -14.6167  -15.8988 C   0  0  0  0  0  0  0  0  0  0  0  0
   18.0545  -15.6658  -16.4827 O   0  0  0  0  0  0  0  0  0  0  0  0
   20.4366  -10.5334  -16.0914 C   0  0  0  0  0  0  0  0  0  0  0  0
   20.8657  -11.2071  -15.1315 O   0  0  0  0  0  0  0  0  0  0  0  0
   17.9790  -14.4111  -14.6006 O   0  0  0  0  0  0  0  0  0  0  0  0
   25.5960  -10.3602  -14.7996 N   0  0  0  0  0  0  0  0  0  0  0  0
   25.1275   -9.9589  -16.0919 C   0  0  0  0  0  0  0  0  0  0  0  0
   25.9125  -10.1508  -17.0433 O   0  0  0  0  0  0  0  0  0  0  0  0
   23.8207   -9.3586  -16.3019 C   0  0  0  0  0  0  0  0  0  0  0  0
   22.9678   -9.1055  -15.1246 C   0  0  0  0  0  0  0  0  0  0  0  0
   21.6354   -8.4981  -15.3346 C   0  0  2  0  0  0  0  0  0  0  0  0
   20.7811   -9.1568  -16.2619 N   0  0  0  0  0  0  0  0  0  0  0  0
   21.7678   -7.0310  -15.6650 C   0  0  0  0  0  0  0  0  0  0  0  0
   22.0073   -6.6558  -16.8407 O   0  0  0  0  0  0  0  0  0  0  0  0
   16.4791   -5.1409  -18.4237 O   0  0  0  0  0  0  0  0  0  0  0  0
   17.4895   -4.8153  -17.5032 C   0  0  0  0  0  0  0  0  0  0  0  0
   17.3662   -5.2568  -16.1972 C   0  0  0  0  0  0  0  0  0  0  0  0
   18.3631   -4.9321  -15.3023 C   0  0  0  0  0  0  0  0  0  0  0  0
   19.4583   -4.1951  -15.6615 C   0  0  0  0  0  0  0  0  0  0  0  0
   20.4998   -3.8695  -14.6794 C   0  0  0  0  0  0  0  0  0  0  0  0
   21.7570   -4.6069  -14.9818 C   0  0  2  0  0  0  0  0  0  0  0  0
   21.6256   -6.0387  -14.6590 N   0  0  0  0  0  0  0  0  0  0  0  0
   22.9865   -4.0511  -14.4054 C   0  0  0  0  0  0  0  0  0  0  0  0
   23.7029   -4.8124  -13.6688 O   0  0  0  0  0  0  0  0  0  0  0  0
   19.5999   -3.7417  -16.9718 C   0  0  0  0  0  0  0  0  0  0  0  0
   18.5952   -4.0744  -17.8543 C   0  0  0  0  0  0  0  0  0  0  0  0
   23.4637   -2.7693  -14.5769 O   0  0  0  0  0  0  0  0  0  0  0  0
  2  3  1  0
  2  1  1  6
  4  3  1  0
  5  4  1  0
  6  5  2  0
  7  2  1  0
  8  7  2  0
  9  5  1  0
 10 11  1  0
 11 12  2  0
 11 13  1  0
 13 14  1  0
 15 14  1  6
 15 16  1  0
 16  7  1  0
 17 15  1  0
 17 18  2  0
 19 20  1  0
 20 21  2  0
 21 22  1  0
 23 22  2  0
 23 24  1  0
 25 24  1  1
 25 26  1  0
 26 17  1  0
 27 25  1  0
 28 27  2  0
 29 23  1  0
 30 20  1  0
 30 29  2  0
 31 27  1  0
M  END
$$$$
