PGV.pdb
     RDKit          3D

 19 19  0  0  1  0  0  0  0  0999 V2000
    7.0858  -14.5766   19.3138 N   0  0  0  0  0  0  0  0  0  0  0  0
    7.0122  -13.4626   18.3985 C   0  0  0  0  0  0  0  0  0  0  0  0
    8.3100  -12.7069   18.5051 C   0  0  0  0  0  0  0  0  0  0  0  0
    8.8379  -13.1818   19.8459 C   0  0  0  0  0  0  0  0  0  0  0  0
    8.4201  -14.6445   19.8234 C   0  0  1  0  0  0  0  0  0  0  0  0
    8.4674  -15.2308   21.1976 C   0  0  0  0  0  0  0  0  0  0  0  0
    9.5862  -15.4741   21.7239 O   0  0  0  0  0  0  0  0  0  0  0  0
    7.3028  -15.5250   21.9350 N   0  0  0  0  0  0  0  0  0  0  0  0
    7.3925  -16.0271   23.2808 C   0  0  0  0  0  0  0  0  0  0  0  0
    7.9374  -15.0392   24.2367 C   0  0  0  0  0  0  0  0  0  0  0  0
    9.2072  -14.8674   24.2404 O   0  0  0  0  0  0  0  0  0  0  0  0
    5.8230  -13.0088   27.3703 C   0  0  0  0  0  0  0  0  0  0  0  0
    6.9921  -12.3680   26.6944 C   0  0  2  0  0  0  0  0  0  0  0  0
    6.5807  -11.3679   25.6348 C   0  0  0  0  0  0  0  0  0  0  0  0
    7.9029  -13.4420   26.1098 C   0  0  2  0  0  0  0  0  0  0  0  0
    7.1871  -14.2674   25.1505 N   0  0  0  0  0  0  0  0  0  0  0  0
    8.2810  -14.3299   27.2367 C   0  0  0  0  0  0  0  0  0  0  0  0
    7.7084  -15.4415   27.3450 O   0  0  0  0  0  0  0  0  0  0  0  0
    9.2364  -14.0020   28.1843 O   0  0  0  0  0  0  0  0  0  0  0  0
  2  1  1  0
  3  4  1  0
  3  2  1  0
  4  5  1  0
  5  6  1  1
  5  1  1  0
  6  8  1  0
  7  6  2  0
  8  9  1  0
  9 10  1  0
 10 11  2  0
 10 16  1  0
 13 12  1  6
 13 15  1  0
 14 13  1  0
 15 17  1  0
 15 16  1  6
 17 18  2  0
 17 19  1  0
M  END
$$$$
