PGV.pdb
     RDKit          3D

 19 19  0  0  1  0  0  0  0  0999 V2000
    7.2004  -14.8188   19.3041 N   0  0  0  0  0  0  0  0  0  0  0  0
    6.8435  -13.7315   18.4239 C   0  0  0  0  0  0  0  0  0  0  0  0
    7.8975  -12.6670   18.5742 C   0  0  0  0  0  0  0  0  0  0  0  0
    8.5229  -13.0338   19.9070 C   0  0  0  0  0  0  0  0  0  0  0  0
    8.5027  -14.5532   19.8314 C   0  0  1  0  0  0  0  0  0  0  0  0
    8.6932  -15.1542   21.1866 C   0  0  0  0  0  0  0  0  0  0  0  0
    9.8247  -15.0837   21.7368 O   0  0  0  0  0  0  0  0  0  0  0  0
    7.6511  -15.8019   21.8803 N   0  0  0  0  0  0  0  0  0  0  0  0
    7.8568  -16.3044   23.2131 C   0  0  0  0  0  0  0  0  0  0  0  0
    8.1982  -15.2470   24.1889 C   0  0  0  0  0  0  0  0  0  0  0  0
    9.4322  -14.9152   24.2843 O   0  0  0  0  0  0  0  0  0  0  0  0
    5.7902  -12.2714   25.6242 C   0  0  0  0  0  0  0  0  0  0  0  0
    6.6952  -12.8399   26.6692 C   0  0  2  0  0  0  0  0  0  0  0  0
    7.2504  -11.7838   27.6012 C   0  0  0  0  0  0  0  0  0  0  0  0
    7.8179  -13.6299   26.0057 C   0  0  2  0  0  0  0  0  0  0  0  0
    7.2890  -14.5689   25.0298 N   0  0  0  0  0  0  0  0  0  0  0  0
    8.4500  -14.4397   27.0763 C   0  0  0  0  0  0  0  0  0  0  0  0
    9.2307  -13.8722   27.8786 O   0  0  0  0  0  0  0  0  0  0  0  0
    8.2276  -15.7965   27.2442 O   0  0  0  0  0  0  0  0  0  0  0  0
  2  1  1  0
  3  4  1  0
  3  2  1  0
  4  5  1  0
  5  6  1  1
  5  1  1  0
  6  8  1  0
  7  6  2  0
  8  9  1  0
  9 10  1  0
 10 11  2  0
 10 16  1  0
 13 12  1  6
 13 15  1  0
 14 13  1  0
 15 17  1  0
 15 16  1  6
 17 18  2  0
 17 19  1  0
M  END
$$$$
