PGV.pdb
     RDKit          3D

 19 19  0  0  1  0  0  0  0  0999 V2000
    9.2647  -17.0712   19.2518 N   0  0  0  0  0  0  0  0  0  0  0  0
   10.5918  -17.4325   18.8131 C   0  0  0  0  0  0  0  0  0  0  0  0
   11.2555  -18.1674   19.9472 C   0  0  0  0  0  0  0  0  0  0  0  0
   10.4116  -17.7383   21.1327 C   0  0  0  0  0  0  0  0  0  0  0  0
    9.0243  -17.7085   20.5089 C   0  0  1  0  0  0  0  0  0  0  0  0
    8.0759  -16.9291   21.3617 C   0  0  0  0  0  0  0  0  0  0  0  0
    7.5901  -17.4683   22.3918 O   0  0  0  0  0  0  0  0  0  0  0  0
    7.6995  -15.6049   21.0588 N   0  0  0  0  0  0  0  0  0  0  0  0
    6.8060  -14.8792   21.9226 C   0  0  0  0  0  0  0  0  0  0  0  0
    7.4721  -14.3336   23.1248 C   0  0  0  0  0  0  0  0  0  0  0  0
    8.7451  -14.4611   23.1970 O   0  0  0  0  0  0  0  0  0  0  0  0
    7.7701  -11.3236   26.9790 C   0  0  0  0  0  0  0  0  0  0  0  0
    6.9077  -11.9289   25.9188 C   0  0  2  0  0  0  0  0  0  0  0  0
    5.5773  -12.4159   26.4528 C   0  0  0  0  0  0  0  0  0  0  0  0
    7.6622  -13.0543   25.2195 C   0  0  2  0  0  0  0  0  0  0  0  0
    6.8341  -13.6861   24.2052 N   0  0  0  0  0  0  0  0  0  0  0  0
    7.9298  -14.0848   26.2529 C   0  0  0  0  0  0  0  0  0  0  0  0
    8.7658  -13.8304   27.1539 O   0  0  0  0  0  0  0  0  0  0  0  0
    7.3066  -15.3213   26.2824 O   0  0  0  0  0  0  0  0  0  0  0  0
  2  1  1  0
  3  4  1  0
  3  2  1  0
  4  5  1  0
  5  6  1  1
  5  1  1  0
  6  8  1  0
  7  6  2  0
  8  9  1  0
  9 10  1  0
 10 11  2  0
 10 16  1  0
 13 12  1  1
 13 15  1  0
 14 13  1  0
 15 17  1  0
 15 16  1  6
 17 18  2  0
 17 19  1  0
M  END
$$$$
