PGV.pdb
     RDKit          3D

 19 19  0  0  1  0  0  0  0  0999 V2000
    7.5215  -14.9873   18.9918 N   0  0  0  0  0  0  0  0  0  0  0  0
    7.2070  -14.0010   17.9855 C   0  0  0  0  0  0  0  0  0  0  0  0
    8.1784  -12.8630   18.1526 C   0  0  0  0  0  0  0  0  0  0  0  0
    8.6697  -13.0785   19.5718 C   0  0  0  0  0  0  0  0  0  0  0  0
    8.7403  -14.5972   19.6296 C   0  0  1  0  0  0  0  0  0  0  0  0
    8.8102  -15.0714   21.0453 C   0  0  0  0  0  0  0  0  0  0  0  0
    9.9047  -14.9966   21.6653 O   0  0  0  0  0  0  0  0  0  0  0  0
    7.6934  -15.6032   21.7211 N   0  0  0  0  0  0  0  0  0  0  0  0
    7.8146  -16.0922   23.0692 C   0  0  0  0  0  0  0  0  0  0  0  0
    8.1419  -15.0322   24.0469 C   0  0  0  0  0  0  0  0  0  0  0  0
    9.3821  -14.8312   24.2988 O   0  0  0  0  0  0  0  0  0  0  0  0
    7.1820  -11.4109   27.2319 C   0  0  0  0  0  0  0  0  0  0  0  0
    6.6157  -12.3783   26.2431 C   0  0  2  0  0  0  0  0  0  0  0  0
    5.4150  -13.1289   26.7792 C   0  0  0  0  0  0  0  0  0  0  0  0
    7.7035  -13.3424   25.7828 C   0  0  2  0  0  0  0  0  0  0  0  0
    7.2125  -14.2203   24.7329 N   0  0  0  0  0  0  0  0  0  0  0  0
    8.0182  -14.2063   26.9473 C   0  0  0  0  0  0  0  0  0  0  0  0
    8.6604  -13.7130   27.9063 O   0  0  0  0  0  0  0  0  0  0  0  0
    7.6421  -15.5361   27.0396 O   0  0  0  0  0  0  0  0  0  0  0  0
  2  1  1  0
  3  4  1  0
  3  2  1  0
  4  5  1  0
  5  6  1  1
  5  1  1  0
  6  8  1  0
  7  6  2  0
  8  9  1  0
  9 10  1  0
 10 11  2  0
 10 16  1  0
 13 12  1  1
 13 15  1  0
 14 13  1  0
 15 17  1  0
 15 16  1  6
 17 18  2  0
 17 19  1  0
M  END
$$$$
