PGV.pdb
     RDKit          3D

 19 19  0  0  1  0  0  0  0  0999 V2000
    8.1629  -15.1641   19.8057 N   0  0  0  0  0  0  0  0  0  0  0  0
    7.6284  -14.6962   18.5489 C   0  0  0  0  0  0  0  0  0  0  0  0
    7.3982  -13.2143   18.6822 C   0  0  0  0  0  0  0  0  0  0  0  0
    7.3684  -13.0380   20.1889 C   0  0  0  0  0  0  0  0  0  0  0  0
    8.4446  -14.0231   20.6201 C   0  0  1  0  0  0  0  0  0  0  0  0
    8.3282  -14.3311   22.0781 C   0  0  0  0  0  0  0  0  0  0  0  0
    8.4615  -13.3992   22.9158 O   0  0  0  0  0  0  0  0  0  0  0  0
    8.0733  -15.6314   22.5587 N   0  0  0  0  0  0  0  0  0  0  0  0
    7.7485  -15.8526   23.9431 C   0  0  0  0  0  0  0  0  0  0  0  0
    8.8965  -15.6450   24.8518 C   0  0  0  0  0  0  0  0  0  0  0  0
   10.0665  -15.6613   24.3296 O   0  0  0  0  0  0  0  0  0  0  0  0
    8.8683  -14.4931   29.0273 C   0  0  0  0  0  0  0  0  0  0  0  0
    9.8645  -14.0641   27.9989 C   0  0  2  0  0  0  0  0  0  0  0  0
    9.4889  -12.7604   27.3270 C   0  0  0  0  0  0  0  0  0  0  0  0
   10.0567  -15.1743   26.9715 C   0  0  2  0  0  0  0  0  0  0  0  0
    8.8236  -15.4327   26.2458 N   0  0  0  0  0  0  0  0  0  0  0  0
   10.3653  -16.4063   27.7385 C   0  0  0  0  0  0  0  0  0  0  0  0
    9.4643  -17.2687   27.8795 O   0  0  0  0  0  0  0  0  0  0  0  0
   11.5991  -16.6634   28.3129 O   0  0  0  0  0  0  0  0  0  0  0  0
  2  1  1  0
  3  4  1  0
  3  2  1  0
  4  5  1  0
  5  6  1  1
  5  1  1  0
  6  8  1  0
  7  6  2  0
  8  9  1  0
  9 10  1  0
 10 11  2  0
 10 16  1  0
 13 12  1  1
 13 15  1  0
 14 13  1  0
 15 17  1  0
 15 16  1  1
 17 18  2  0
 17 19  1  0
M  END
$$$$
