PGV.pdb
     RDKit          3D

 19 19  0  0  1  0  0  0  0  0999 V2000
    7.1982  -14.7793   19.6277 N   0  0  0  0  0  0  0  0  0  0  0  0
    6.5512  -13.7336   18.8713 C   0  0  0  0  0  0  0  0  0  0  0  0
    7.5136  -12.5789   18.7867 C   0  0  0  0  0  0  0  0  0  0  0  0
    8.4633  -12.8804   19.9308 C   0  0  0  0  0  0  0  0  0  0  0  0
    8.5593  -14.3961   19.8398 C   0  0  1  0  0  0  0  0  0  0  0  0
    9.1138  -14.9693   21.1039 C   0  0  0  0  0  0  0  0  0  0  0  0
   10.3313  -14.7927   21.3768 O   0  0  0  0  0  0  0  0  0  0  0  0
    8.3247  -15.7052   22.0109 N   0  0  0  0  0  0  0  0  0  0  0  0
    8.9149  -16.3091   23.1763 C   0  0  0  0  0  0  0  0  0  0  0  0
    8.9613  -15.4020   24.3431 C   0  0  0  0  0  0  0  0  0  0  0  0
   10.0452  -15.3822   25.0262 O   0  0  0  0  0  0  0  0  0  0  0  0
    6.3834  -12.3091   25.0743 C   0  0  0  0  0  0  0  0  0  0  0  0
    6.8752  -12.9605   26.3266 C   0  0  2  0  0  0  0  0  0  0  0  0
    7.1726  -11.9645   27.4274 C   0  0  0  0  0  0  0  0  0  0  0  0
    8.0985  -13.8165   26.0172 C   0  0  2  0  0  0  0  0  0  0  0  0
    7.9185  -14.5550   24.7779 N   0  0  0  0  0  0  0  0  0  0  0  0
    8.1908  -14.8234   27.1030 C   0  0  0  0  0  0  0  0  0  0  0  0
    7.5185  -15.8786   27.0038 O   0  0  0  0  0  0  0  0  0  0  0  0
    8.9817  -14.6666   28.2292 O   0  0  0  0  0  0  0  0  0  0  0  0
  2  1  1  0
  3  4  1  0
  3  2  1  0
  4  5  1  0
  5  6  1  1
  5  1  1  0
  6  8  1  0
  7  6  2  0
  8  9  1  0
  9 10  1  0
 10 11  2  0
 10 16  1  0
 13 12  1  6
 13 15  1  0
 14 13  1  0
 15 17  1  0
 15 16  1  6
 17 18  2  0
 17 19  1  0
M  END
$$$$
