PGV.pdb
     RDKit          3D

 19 19  0  0  1  0  0  0  0  0999 V2000
    8.4656  -15.2542   18.8231 N   0  0  0  0  0  0  0  0  0  0  0  0
    8.3767  -14.9703   17.4104 C   0  0  0  0  0  0  0  0  0  0  0  0
    8.1659  -13.4869   17.2625 C   0  0  0  0  0  0  0  0  0  0  0  0
    7.6623  -13.1047   18.6417 C   0  0  0  0  0  0  0  0  0  0  0  0
    8.5106  -14.0086   19.5238 C   0  0  1  0  0  0  0  0  0  0  0  0
    7.9243  -14.1137   20.8947 C   0  0  0  0  0  0  0  0  0  0  0  0
    7.8193  -13.0746   21.5998 O   0  0  0  0  0  0  0  0  0  0  0  0
    7.4801  -15.3372   21.4358 N   0  0  0  0  0  0  0  0  0  0  0  0
    6.7494  -15.3703   22.6752 C   0  0  0  0  0  0  0  0  0  0  0  0
    7.4854  -14.7589   23.8026 C   0  0  0  0  0  0  0  0  0  0  0  0
    8.7525  -14.9453   23.8440 O   0  0  0  0  0  0  0  0  0  0  0  0
    5.7770  -12.8279   27.1689 C   0  0  0  0  0  0  0  0  0  0  0  0
    7.1374  -12.4108   26.7112 C   0  0  2  0  0  0  0  0  0  0  0  0
    7.1175  -11.1284   25.9066 C   0  0  0  0  0  0  0  0  0  0  0  0
    7.7861  -13.5426   25.9218 C   0  0  2  0  0  0  0  0  0  0  0  0
    6.9202  -13.9890   24.8426 N   0  0  0  0  0  0  0  0  0  0  0  0
    7.9203  -14.6844   26.8597 C   0  0  0  0  0  0  0  0  0  0  0  0
    7.0604  -15.5979   26.8224 O   0  0  0  0  0  0  0  0  0  0  0  0
    8.9470  -14.8030   27.7818 O   0  0  0  0  0  0  0  0  0  0  0  0
  2  1  1  0
  3  4  1  0
  3  2  1  0
  4  5  1  0
  5  6  1  1
  5  1  1  0
  6  8  1  0
  7  6  2  0
  8  9  1  0
  9 10  1  0
 10 11  2  0
 10 16  1  0
 13 12  1  6
 13 15  1  0
 14 13  1  0
 15 17  1  0
 15 16  1  6
 17 18  2  0
 17 19  1  0
M  END
$$$$
