PGV.pdb
     RDKit          3D

 19 19  0  0  1  0  0  0  0  0999 V2000
    8.3483  -15.3214   18.0150 N   0  0  0  0  0  0  0  0  0  0  0  0
    8.4834  -14.5881   16.7787 C   0  0  0  0  0  0  0  0  0  0  0  0
    8.5113  -13.1234   17.1257 C   0  0  0  0  0  0  0  0  0  0  0  0
    7.8961  -13.1199   18.5126 C   0  0  0  0  0  0  0  0  0  0  0  0
    8.4837  -14.3960   19.0966 C   0  0  1  0  0  0  0  0  0  0  0  0
    7.7175  -14.8282   20.3050 C   0  0  0  0  0  0  0  0  0  0  0  0
    6.6508  -15.4821   20.1550 O   0  0  0  0  0  0  0  0  0  0  0  0
    8.1422  -14.5322   21.6160 N   0  0  0  0  0  0  0  0  0  0  0  0
    7.5021  -15.1427   22.7512 C   0  0  0  0  0  0  0  0  0  0  0  0
    7.9918  -14.6231   24.0461 C   0  0  0  0  0  0  0  0  0  0  0  0
    9.1835  -14.9429   24.3920 O   0  0  0  0  0  0  0  0  0  0  0  0
    5.7509  -12.9517   27.2621 C   0  0  0  0  0  0  0  0  0  0  0  0
    7.0662  -12.3407   26.9004 C   0  0  2  0  0  0  0  0  0  0  0  0
    6.9192  -11.0665   26.0959 C   0  0  0  0  0  0  0  0  0  0  0  0
    7.9229  -13.3609   26.1587 C   0  0  2  0  0  0  0  0  0  0  0  0
    7.2657  -13.8073   24.9411 N   0  0  0  0  0  0  0  0  0  0  0  0
    8.0257  -14.5459   27.0457 C   0  0  0  0  0  0  0  0  0  0  0  0
    7.2404  -15.5071   26.8591 O   0  0  0  0  0  0  0  0  0  0  0  0
    8.9446  -14.6551   28.0763 O   0  0  0  0  0  0  0  0  0  0  0  0
  2  1  1  0
  3  4  1  0
  3  2  1  0
  4  5  1  0
  5  6  1  1
  5  1  1  0
  6  8  1  0
  7  6  2  0
  8  9  1  0
  9 10  1  0
 10 11  2  0
 10 16  1  0
 13 12  1  6
 13 15  1  0
 14 13  1  0
 15 17  1  0
 15 16  1  6
 17 18  2  0
 17 19  1  0
M  END
$$$$
