VSW.pdb
     RDKit          3D

 28 29  0  0  1  0  0  0  0  0999 V2000
    8.5643  -12.7296   21.1744 C   0  0  0  0  0  0  0  0  0  0  0  0
    7.7157  -13.3478   20.0966 C   0  0  1  0  0  0  0  0  0  0  0  0
    7.6066  -12.3485   18.9677 C   0  0  0  0  0  0  0  0  0  0  0  0
    8.2764  -14.6520   19.5920 C   0  0  2  0  0  0  0  0  0  0  0  0
    7.5402  -15.1030   18.4384 N   0  0  0  0  0  0  0  0  0  0  0  0
    8.3492  -15.6934   20.6512 C   0  0  0  0  0  0  0  0  0  0  0  0
    7.3259  -16.3037   21.0188 O   0  0  0  0  0  0  0  0  0  0  0  0
   12.0482  -17.2394   21.5845 O   0  0  0  0  0  0  0  0  0  0  0  0
   10.9020  -17.9902   21.9266 C   0  0  0  0  0  0  0  0  0  0  0  0
    9.7433  -17.0827   22.2245 C   0  0  2  0  0  0  0  0  0  0  0  0
    9.5698  -16.0275   21.2750 N   0  0  0  0  0  0  0  0  0  0  0  0
   10.0423  -16.4547   23.5510 C   0  0  0  0  0  0  0  0  0  0  0  0
   10.7172  -15.3891   23.6418 O   0  0  0  0  0  0  0  0  0  0  0  0
    9.5835  -17.0244   24.7693 N   0  0  0  0  0  0  0  0  0  0  0  0
   10.0480  -16.5214   26.0389 C   0  0  1  0  0  0  0  0  0  0  0  0
    8.9243  -16.2757   27.0216 C   0  0  0  0  0  0  0  0  0  0  0  0
    7.7855  -15.5362   26.4661 C   0  0  0  0  0  0  0  0  0  0  0  0
    6.6641  -16.0409   25.8195 C   0  0  0  0  0  0  0  0  0  0  0  0
    5.8578  -15.0235   25.5087 N   0  0  0  0  0  0  0  0  0  0  0  0
    6.3934  -13.8347   25.9227 C   0  0  0  0  0  0  0  0  0  0  0  0
    5.9336  -12.5394   25.8174 C   0  0  0  0  0  0  0  0  0  0  0  0
    6.6843  -11.5006   26.3182 C   0  0  0  0  0  0  0  0  0  0  0  0
    7.8846  -11.7970   26.9143 C   0  0  0  0  0  0  0  0  0  0  0  0
    8.3249  -13.0910   27.0097 C   0  0  0  0  0  0  0  0  0  0  0  0
    7.5984  -14.1833   26.5173 C   0  0  0  0  0  0  0  0  0  0  0  0
   10.9749  -17.4981   26.6668 C   0  0  0  0  0  0  0  0  0  0  0  0
   11.0628  -18.6424   26.1529 O   0  0  0  0  0  0  0  0  0  0  0  0
   11.7330  -17.1766   27.7914 O   0  0  0  0  0  0  0  0  0  0  0  0
  2  1  1  1
  2  3  1  0
  2  4  1  0
  4  5  1  6
  6 11  1  0
  6  4  1  0
  7  6  2  0
  9  8  1  0
 10 11  1  0
 10  9  1  6
 12 10  1  0
 13 12  2  0
 14 12  1  0
 15 16  1  1
 15 14  1  0
 17 16  1  0
 18 17  2  0
 19 20  1  0
 19 18  1  0
 20 25  2  0
 21 20  1  0
 21 22  2  0
 22 23  1  0
 23 24  2  0
 25 17  1  0
 25 24  1  0
 26 15  1  0
 27 26  2  0
 28 26  1  0
M  END
$$$$
