VSW.pdb
     RDKit          3D

 28 29  0  0  1  0  0  0  0  0999 V2000
    9.2426  -12.8575   20.2189 C   0  0  0  0  0  0  0  0  0  0  0  0
    8.1262  -13.3949   19.3652 C   0  0  1  0  0  0  0  0  0  0  0  0
    8.0434  -12.5368   18.1234 C   0  0  0  0  0  0  0  0  0  0  0  0
    8.3243  -14.8412   18.9926 C   0  0  2  0  0  0  0  0  0  0  0  0
    7.3856  -15.2303   17.9711 N   0  0  0  0  0  0  0  0  0  0  0  0
    8.2776  -15.7486   20.1700 C   0  0  0  0  0  0  0  0  0  0  0  0
    7.2158  -15.9246   20.7995 O   0  0  0  0  0  0  0  0  0  0  0  0
   11.6454  -18.1266   21.1055 O   0  0  0  0  0  0  0  0  0  0  0  0
   10.3503  -18.5487   21.4784 C   0  0  0  0  0  0  0  0  0  0  0  0
    9.4518  -17.3667   21.7035 C   0  0  2  0  0  0  0  0  0  0  0  0
    9.4244  -16.4392   20.6154 N   0  0  0  0  0  0  0  0  0  0  0  0
   10.0052  -16.6500   22.8966 C   0  0  0  0  0  0  0  0  0  0  0  0
   10.7794  -15.6578   22.7725 O   0  0  0  0  0  0  0  0  0  0  0  0
    9.6881  -17.0489   24.2231 N   0  0  0  0  0  0  0  0  0  0  0  0
   10.2403  -16.3467   25.3557 C   0  0  1  0  0  0  0  0  0  0  0  0
    9.7677  -14.9126   25.4468 C   0  0  0  0  0  0  0  0  0  0  0  0
    8.3253  -14.7637   25.6695 C   0  0  0  0  0  0  0  0  0  0  0  0
    7.3289  -15.7213   25.5268 C   0  0  0  0  0  0  0  0  0  0  0  0
    6.1599  -15.1733   25.8660 N   0  0  0  0  0  0  0  0  0  0  0  0
    6.3248  -13.8668   26.2369 C   0  0  0  0  0  0  0  0  0  0  0  0
    5.4196  -12.9137   26.6523 C   0  0  0  0  0  0  0  0  0  0  0  0
    5.8516  -11.6448   26.9632 C   0  0  0  0  0  0  0  0  0  0  0  0
    7.1911  -11.3693   26.8460 C   0  0  0  0  0  0  0  0  0  0  0  0
    8.0757  -12.3301   26.4315 C   0  0  0  0  0  0  0  0  0  0  0  0
    7.6872  -13.6360   26.1045 C   0  0  0  0  0  0  0  0  0  0  0  0
    9.8424  -17.0214   26.6183 C   0  0  0  0  0  0  0  0  0  0  0  0
   10.3074  -16.5745   27.6978 O   0  0  0  0  0  0  0  0  0  0  0  0
    8.9814  -18.1173   26.6284 O   0  0  0  0  0  0  0  0  0  0  0  0
  2  1  1  1
  2  3  1  0
  2  4  1  0
  4  5  1  6
  6 11  1  0
  6  4  1  0
  7  6  2  0
  9  8  1  0
 10 11  1  0
 10  9  1  6
 12 10  1  0
 13 12  2  0
 14 12  1  0
 15 16  1  1
 15 14  1  0
 17 16  1  0
 18 17  2  0
 19 20  1  0
 19 18  1  0
 20 25  2  0
 21 20  1  0
 21 22  2  0
 22 23  1  0
 23 24  2  0
 25 17  1  0
 25 24  1  0
 26 15  1  0
 27 26  2  0
 28 26  1  0
M  END
$$$$
