VSW.pdb
     RDKit          3D

 28 29  0  0  1  0  0  0  0  0999 V2000
    8.3202  -12.1406   19.0442 C   0  0  0  0  0  0  0  0  0  0  0  0
    8.4013  -13.2568   20.0500 C   0  0  1  0  0  0  0  0  0  0  0  0
    7.2313  -13.1092   20.9957 C   0  0  0  0  0  0  0  0  0  0  0  0
    8.3896  -14.6196   19.4078 C   0  0  2  0  0  0  0  0  0  0  0  0
    7.2825  -14.7347   18.4928 N   0  0  0  0  0  0  0  0  0  0  0  0
    8.4088  -15.7236   20.4041 C   0  0  0  0  0  0  0  0  0  0  0  0
    7.3507  -16.1445   20.9121 O   0  0  0  0  0  0  0  0  0  0  0  0
   11.9878  -17.8100   21.1153 O   0  0  0  0  0  0  0  0  0  0  0  0
   10.7548  -18.4209   21.4330 C   0  0  0  0  0  0  0  0  0  0  0  0
    9.7212  -17.3850   21.7702 C   0  0  2  0  0  0  0  0  0  0  0  0
    9.6159  -16.3317   20.8086 N   0  0  0  0  0  0  0  0  0  0  0  0
   10.1577  -16.7741   23.0662 C   0  0  0  0  0  0  0  0  0  0  0  0
   10.8933  -15.7459   23.0988 O   0  0  0  0  0  0  0  0  0  0  0  0
    9.7677  -17.3188   24.3194 N   0  0  0  0  0  0  0  0  0  0  0  0
   10.2695  -16.7635   25.5525 C   0  0  1  0  0  0  0  0  0  0  0  0
    9.9781  -15.2858   25.6944 C   0  0  0  0  0  0  0  0  0  0  0  0
    8.5564  -14.9373   25.5965 C   0  0  0  0  0  0  0  0  0  0  0  0
    7.4797  -15.7773   25.3406 C   0  0  0  0  0  0  0  0  0  0  0  0
    6.3581  -15.0544   25.3753 N   0  0  0  0  0  0  0  0  0  0  0  0
    6.6335  -13.7422   25.6471 C   0  0  0  0  0  0  0  0  0  0  0  0
    5.8111  -12.6430   25.7727 C   0  0  0  0  0  0  0  0  0  0  0  0
    6.3520  -11.4074   26.0453 C   0  0  0  0  0  0  0  0  0  0  0  0
    7.7142  -11.3126   26.1842 C   0  0  0  0  0  0  0  0  0  0  0  0
    8.5153  -12.4168   26.0559 C   0  0  0  0  0  0  0  0  0  0  0  0
    8.0145  -13.6960   25.7802 C   0  0  0  0  0  0  0  0  0  0  0  0
    9.6433  -17.4481   26.7129 C   0  0  0  0  0  0  0  0  0  0  0  0
    8.7255  -18.2768   26.4840 O   0  0  0  0  0  0  0  0  0  0  0  0
   10.0455  -17.1945   28.0230 O   0  0  0  0  0  0  0  0  0  0  0  0
  2  1  1  6
  2  3  1  0
  2  4  1  0
  4  5  1  1
  6 11  1  0
  6  4  1  0
  7  6  2  0
  9  8  1  0
 10 11  1  0
 10  9  1  6
 12 10  1  0
 13 12  2  0
 14 12  1  0
 15 16  1  6
 15 14  1  0
 17 16  1  0
 18 17  2  0
 19 20  1  0
 19 18  1  0
 20 25  2  0
 21 20  1  0
 21 22  2  0
 22 23  1  0
 23 24  2  0
 25 17  1  0
 25 24  1  0
 26 15  1  0
 27 26  2  0
 28 26  1  0
M  END
$$$$
