VSW.pdb
     RDKit          3D

 28 29  0  0  1  0  0  0  0  0999 V2000
    8.6545  -12.1780   18.8703 C   0  0  0  0  0  0  0  0  0  0  0  0
    8.6690  -13.2208   19.9550 C   0  0  1  0  0  0  0  0  0  0  0  0
    7.6034  -12.8516   20.9616 C   0  0  0  0  0  0  0  0  0  0  0  0
    8.4338  -14.6120   19.4267 C   0  0  2  0  0  0  0  0  0  0  0  0
    7.2662  -14.6385   18.5828 N   0  0  0  0  0  0  0  0  0  0  0  0
    8.3665  -15.6322   20.5067 C   0  0  0  0  0  0  0  0  0  0  0  0
    7.2809  -15.9176   21.0495 O   0  0  0  0  0  0  0  0  0  0  0  0
   11.7458  -18.0227   21.3809 O   0  0  0  0  0  0  0  0  0  0  0  0
   10.4423  -18.4678   21.6931 C   0  0  0  0  0  0  0  0  0  0  0  0
    9.5397  -17.3032   21.9831 C   0  0  2  0  0  0  0  0  0  0  0  0
    9.5199  -16.3103   20.9542 N   0  0  0  0  0  0  0  0  0  0  0  0
   10.0814  -16.6610   23.2231 C   0  0  0  0  0  0  0  0  0  0  0  0
   10.8592  -15.6654   23.1672 O   0  0  0  0  0  0  0  0  0  0  0  0
    9.7487  -17.1379   24.5197 N   0  0  0  0  0  0  0  0  0  0  0  0
   10.3783  -16.5830   25.6929 C   0  0  1  0  0  0  0  0  0  0  0  0
    9.9561  -15.1567   25.9687 C   0  0  0  0  0  0  0  0  0  0  0  0
    8.5056  -14.9388   25.9408 C   0  0  0  0  0  0  0  0  0  0  0  0
    7.4991  -15.8710   25.7211 C   0  0  0  0  0  0  0  0  0  0  0  0
    6.3191  -15.2543   25.8177 N   0  0  0  0  0  0  0  0  0  0  0  0
    6.4864  -13.9255   26.0967 C   0  0  0  0  0  0  0  0  0  0  0  0
    5.5741  -12.9077   26.2763 C   0  0  0  0  0  0  0  0  0  0  0  0
    6.0124  -11.6309   26.5429 C   0  0  0  0  0  0  0  0  0  0  0  0
    7.3653  -11.4132   26.6213 C   0  0  0  0  0  0  0  0  0  0  0  0
    8.2568  -12.4379   26.4400 C   0  0  0  0  0  0  0  0  0  0  0  0
    7.8621  -13.7545   26.1678 C   0  0  0  0  0  0  0  0  0  0  0  0
   10.0224  -17.3859   26.8913 C   0  0  0  0  0  0  0  0  0  0  0  0
    9.1848  -18.3135   26.7525 O   0  0  0  0  0  0  0  0  0  0  0  0
   10.5877  -17.1355   28.1404 O   0  0  0  0  0  0  0  0  0  0  0  0
  2  1  1  6
  2  3  1  0
  2  4  1  0
  4  5  1  1
  6 11  1  0
  6  4  1  0
  7  6  2  0
  9  8  1  0
 10 11  1  0
 10  9  1  6
 12 10  1  0
 13 12  2  0
 14 12  1  0
 15 16  1  1
 15 14  1  0
 17 16  1  0
 18 17  2  0
 19 20  1  0
 19 18  1  0
 20 25  2  0
 21 20  1  0
 21 22  2  0
 22 23  1  0
 23 24  2  0
 25 17  1  0
 25 24  1  0
 26 15  1  0
 27 26  2  0
 28 26  1  0
M  END
$$$$
