VSW.pdb
     RDKit          3D

 28 29  0  0  1  0  0  0  0  0999 V2000
    8.8094  -12.5854   20.6055 C   0  0  0  0  0  0  0  0  0  0  0  0
    7.8904  -13.3196   19.6672 C   0  0  1  0  0  0  0  0  0  0  0  0
    7.8200  -12.5290   18.3807 C   0  0  0  0  0  0  0  0  0  0  0  0
    8.3450  -14.7297   19.3936 C   0  0  2  0  0  0  0  0  0  0  0  0
    7.5977  -15.2955   18.2992 N   0  0  0  0  0  0  0  0  0  0  0  0
    8.3021  -15.5916   20.6048 C   0  0  0  0  0  0  0  0  0  0  0  0
    7.3780  -15.4822   21.4346 O   0  0  0  0  0  0  0  0  0  0  0  0
   11.3991  -18.3492   21.2232 O   0  0  0  0  0  0  0  0  0  0  0  0
   10.1342  -18.6940   21.7481 C   0  0  0  0  0  0  0  0  0  0  0  0
    9.2970  -17.4660   21.9633 C   0  0  2  0  0  0  0  0  0  0  0  0
    9.2979  -16.5584   20.8583 N   0  0  0  0  0  0  0  0  0  0  0  0
    9.9018  -16.7552   23.1347 C   0  0  0  0  0  0  0  0  0  0  0  0
   10.8516  -15.9326   22.9915 O   0  0  0  0  0  0  0  0  0  0  0  0
    9.4392  -16.9700   24.4611 N   0  0  0  0  0  0  0  0  0  0  0  0
   10.2057  -16.5086   25.5926 C   0  0  1  0  0  0  0  0  0  0  0  0
    9.8087  -15.1210   26.0462 C   0  0  0  0  0  0  0  0  0  0  0  0
    8.3770  -14.8283   25.9161 C   0  0  0  0  0  0  0  0  0  0  0  0
    7.3403  -15.7094   25.6346 C   0  0  0  0  0  0  0  0  0  0  0  0
    6.1907  -15.0311   25.6443 N   0  0  0  0  0  0  0  0  0  0  0  0
    6.4080  -13.7096   25.9237 C   0  0  0  0  0  0  0  0  0  0  0  0
    5.5405  -12.6438   26.0316 C   0  0  0  0  0  0  0  0  0  0  0  0
    6.0260  -11.3885   26.3179 C   0  0  0  0  0  0  0  0  0  0  0  0
    7.3799  -11.2406   26.4882 C   0  0  0  0  0  0  0  0  0  0  0  0
    8.2265  -12.3123   26.3772 C   0  0  0  0  0  0  0  0  0  0  0  0
    7.7827  -13.6096   26.0886 C   0  0  0  0  0  0  0  0  0  0  0  0
   10.0097  -17.4214   26.7484 C   0  0  0  0  0  0  0  0  0  0  0  0
   10.6700  -17.1980   27.7950 O   0  0  0  0  0  0  0  0  0  0  0  0
    9.1262  -18.4980   26.6956 O   0  0  0  0  0  0  0  0  0  0  0  0
  2  1  1  1
  2  3  1  0
  2  4  1  0
  4  5  1  6
  6 11  1  0
  6  4  1  0
  7  6  2  0
  9  8  1  0
 10 11  1  0
 10  9  1  6
 12 10  1  0
 13 12  2  0
 14 12  1  0
 15 16  1  1
 15 14  1  0
 17 16  1  0
 18 17  2  0
 19 20  1  0
 19 18  1  0
 20 25  2  0
 21 20  1  0
 21 22  2  0
 22 23  1  0
 23 24  2  0
 25 17  1  0
 25 24  1  0
 26 15  1  0
 27 26  2  0
 28 26  1  0
M  END
$$$$
