VSW.pdb
     RDKit          3D

 28 29  0  0  1  0  0  0  0  0999 V2000
    8.8349  -12.7069   21.2766 C   0  0  0  0  0  0  0  0  0  0  0  0
    7.7642  -13.3045   20.4045 C   0  0  1  0  0  0  0  0  0  0  0  0
    7.5783  -12.3916   19.2142 C   0  0  0  0  0  0  0  0  0  0  0  0
    8.0985  -14.7012   19.9489 C   0  0  2  0  0  0  0  0  0  0  0  0
    7.1788  -15.1298   18.9259 N   0  0  0  0  0  0  0  0  0  0  0  0
    8.1733  -15.6696   21.0751 C   0  0  0  0  0  0  0  0  0  0  0  0
    7.1366  -16.1007   21.6172 O   0  0  0  0  0  0  0  0  0  0  0  0
   11.8055  -17.4878   21.7704 O   0  0  0  0  0  0  0  0  0  0  0  0
   10.6528  -18.1421   22.2579 C   0  0  0  0  0  0  0  0  0  0  0  0
    9.5685  -17.1489   22.5630 C   0  0  2  0  0  0  0  0  0  0  0  0
    9.4110  -16.1335   21.5684 N   0  0  0  0  0  0  0  0  0  0  0  0
    9.9733  -16.4759   23.8383 C   0  0  0  0  0  0  0  0  0  0  0  0
   10.6848  -15.4305   23.8381 O   0  0  0  0  0  0  0  0  0  0  0  0
    9.5787  -16.9781   25.1077 N   0  0  0  0  0  0  0  0  0  0  0  0
   10.1480  -16.4442   26.3208 C   0  0  1  0  0  0  0  0  0  0  0  0
    9.1079  -15.8640   27.2536 C   0  0  0  0  0  0  0  0  0  0  0  0
    7.9701  -15.2342   26.5746 C   0  0  0  0  0  0  0  0  0  0  0  0
    6.9384  -15.8474   25.8747 C   0  0  0  0  0  0  0  0  0  0  0  0
    6.0940  -14.9054   25.4489 N   0  0  0  0  0  0  0  0  0  0  0  0
    6.5163  -13.6629   25.8357 C   0  0  0  0  0  0  0  0  0  0  0  0
    5.9822  -12.4096   25.6251 C   0  0  0  0  0  0  0  0  0  0  0  0
    6.6216  -11.2974   26.1227 C   0  0  0  0  0  0  0  0  0  0  0  0
    7.7884  -11.4794   26.8223 C   0  0  0  0  0  0  0  0  0  0  0  0
    8.3037  -12.7333   27.0215 C   0  0  0  0  0  0  0  0  0  0  0  0
    7.6912  -13.8967   26.5371 C   0  0  0  0  0  0  0  0  0  0  0  0
   10.8577  -17.5156   27.0663 C   0  0  0  0  0  0  0  0  0  0  0  0
   11.4480  -17.2016   28.1314 O   0  0  0  0  0  0  0  0  0  0  0  0
   10.8812  -18.8347   26.6169 O   0  0  0  0  0  0  0  0  0  0  0  0
  2  1  1  1
  2  3  1  0
  2  4  1  0
  4  5  1  6
  6 11  1  0
  6  4  1  0
  7  6  2  0
  9  8  1  0
 10 11  1  0
 10  9  1  6
 12 10  1  0
 13 12  2  0
 14 12  1  0
 15 16  1  1
 15 14  1  0
 17 16  1  0
 18 17  2  0
 19 20  1  0
 19 18  1  0
 20 25  2  0
 21 20  1  0
 21 22  2  0
 22 23  1  0
 23 24  2  0
 25 17  1  0
 25 24  1  0
 26 15  1  0
 27 26  2  0
 28 26  1  0
M  END
$$$$
