VSW.pdb
     RDKit          3D

 28 29  0  0  1  0  0  0  0  0999 V2000
    9.1526  -12.8205   20.5088 C   0  0  0  0  0  0  0  0  0  0  0  0
    7.8146  -13.3103   20.0252 C   0  0  1  0  0  0  0  0  0  0  0  0
    7.4340  -12.4879   18.8153 C   0  0  0  0  0  0  0  0  0  0  0  0
    7.8222  -14.7774   19.6825 C   0  0  2  0  0  0  0  0  0  0  0  0
    6.6399  -15.1255   18.9360 N   0  0  0  0  0  0  0  0  0  0  0  0
    8.0051  -15.6447   20.8767 C   0  0  0  0  0  0  0  0  0  0  0  0
    7.1198  -15.7231   21.7512 O   0  0  0  0  0  0  0  0  0  0  0  0
   11.5767  -17.8309   21.2761 O   0  0  0  0  0  0  0  0  0  0  0  0
   10.3967  -18.4178   21.7837 C   0  0  0  0  0  0  0  0  0  0  0  0
    9.3767  -17.3638   22.1063 C   0  0  2  0  0  0  0  0  0  0  0  0
    9.1784  -16.4056   21.0634 N   0  0  0  0  0  0  0  0  0  0  0  0
    9.9051  -16.6312   23.3010 C   0  0  0  0  0  0  0  0  0  0  0  0
   10.7306  -15.6805   23.1827 O   0  0  0  0  0  0  0  0  0  0  0  0
    9.5057  -16.9678   24.6225 N   0  0  0  0  0  0  0  0  0  0  0  0
   10.2356  -16.4694   25.7625 C   0  0  1  0  0  0  0  0  0  0  0  0
    9.7990  -15.0827   26.1808 C   0  0  0  0  0  0  0  0  0  0  0  0
    8.3708  -14.8124   25.9825 C   0  0  0  0  0  0  0  0  0  0  0  0
    7.3736  -15.6968   25.5904 C   0  0  0  0  0  0  0  0  0  0  0  0
    6.2094  -15.0441   25.5701 N   0  0  0  0  0  0  0  0  0  0  0  0
    6.3785  -13.7368   25.9365 C   0  0  0  0  0  0  0  0  0  0  0  0
    5.4808  -12.6971   26.0528 C   0  0  0  0  0  0  0  0  0  0  0  0
    5.9187  -11.4508   26.4382 C   0  0  0  0  0  0  0  0  0  0  0  0
    7.2565  -11.2853   26.6968 C   0  0  0  0  0  0  0  0  0  0  0  0
    8.1335  -12.3311   26.5758 C   0  0  0  0  0  0  0  0  0  0  0  0
    7.7384  -13.6183   26.1882 C   0  0  0  0  0  0  0  0  0  0  0  0
   10.0321  -17.3650   26.9304 C   0  0  0  0  0  0  0  0  0  0  0  0
   10.6251  -17.0806   28.0022 O   0  0  0  0  0  0  0  0  0  0  0  0
    9.2134  -18.4908   26.8619 O   0  0  0  0  0  0  0  0  0  0  0  0
  2  1  1  6
  2  3  1  0
  2  4  1  0
  4  5  1  1
  6 11  1  0
  6  4  1  0
  7  6  2  0
  9  8  1  0
 10 11  1  0
 10  9  1  6
 12 10  1  0
 13 12  2  0
 14 12  1  0
 15 16  1  1
 15 14  1  0
 17 16  1  0
 18 17  2  0
 19 20  1  0
 19 18  1  0
 20 25  2  0
 21 20  1  0
 21 22  2  0
 22 23  1  0
 23 24  2  0
 25 17  1  0
 25 24  1  0
 26 15  1  0
 27 26  2  0
 28 26  1  0
M  END
$$$$
