VSW.pdb
     RDKit          3D

 28 29  0  0  1  0  0  0  0  0999 V2000
    8.7994  -12.6849   21.1792 C   0  0  0  0  0  0  0  0  0  0  0  0
    7.9044  -13.2403   20.1047 C   0  0  1  0  0  0  0  0  0  0  0  0
    7.8784  -12.2442   18.9680 C   0  0  0  0  0  0  0  0  0  0  0  0
    8.3576  -14.5897   19.6111 C   0  0  2  0  0  0  0  0  0  0  0  0
    7.6005  -14.9802   18.4490 N   0  0  0  0  0  0  0  0  0  0  0  0
    8.3268  -15.6295   20.6740 C   0  0  0  0  0  0  0  0  0  0  0  0
    7.2486  -16.1382   21.0393 O   0  0  0  0  0  0  0  0  0  0  0  0
   11.7857  -17.5919   21.5489 O   0  0  0  0  0  0  0  0  0  0  0  0
   10.5890  -18.1599   22.0385 C   0  0  0  0  0  0  0  0  0  0  0  0
    9.5670  -17.0930   22.3075 C   0  0  2  0  0  0  0  0  0  0  0  0
    9.5075  -16.0761   21.3039 N   0  0  0  0  0  0  0  0  0  0  0  0
    9.9806  -16.4406   23.5907 C   0  0  0  0  0  0  0  0  0  0  0  0
   10.7496  -15.4368   23.6050 O   0  0  0  0  0  0  0  0  0  0  0  0
    9.5302  -16.9165   24.8516 N   0  0  0  0  0  0  0  0  0  0  0  0
   10.1629  -16.4808   26.0725 C   0  0  1  0  0  0  0  0  0  0  0  0
    9.1724  -15.9996   27.1097 C   0  0  0  0  0  0  0  0  0  0  0  0
    7.9533  -15.4039   26.5518 C   0  0  0  0  0  0  0  0  0  0  0  0
    6.8720  -16.0478   25.9633 C   0  0  0  0  0  0  0  0  0  0  0  0
    5.9622  -15.1310   25.6265 N   0  0  0  0  0  0  0  0  0  0  0  0
    6.3879  -13.8759   25.9661 C   0  0  0  0  0  0  0  0  0  0  0  0
    5.8004  -12.6386   25.8108 C   0  0  0  0  0  0  0  0  0  0  0  0
    6.4569  -11.5073   26.2382 C   0  0  0  0  0  0  0  0  0  0  0  0
    7.6945  -11.6546   26.8132 C   0  0  0  0  0  0  0  0  0  0  0  0
    8.2622  -12.8931   26.9591 C   0  0  0  0  0  0  0  0  0  0  0  0
    7.6352  -14.0747   26.5420 C   0  0  0  0  0  0  0  0  0  0  0  0
   10.9258  -17.6015   26.6803 C   0  0  0  0  0  0  0  0  0  0  0  0
   11.6319  -17.3547   27.6912 O   0  0  0  0  0  0  0  0  0  0  0  0
   10.8748  -18.8943   26.1620 O   0  0  0  0  0  0  0  0  0  0  0  0
  2  1  1  1
  2  3  1  0
  2  4  1  0
  4  5  1  6
  6 11  1  0
  6  4  1  0
  7  6  2  0
  9  8  1  0
 10 11  1  0
 10  9  1  6
 12 10  1  0
 13 12  2  0
 14 12  1  0
 15 16  1  1
 15 14  1  0
 17 16  1  0
 18 17  2  0
 19 20  1  0
 19 18  1  0
 20 25  2  0
 21 20  1  0
 21 22  2  0
 22 23  1  0
 23 24  2  0
 25 17  1  0
 25 24  1  0
 26 15  1  0
 27 26  2  0
 28 26  1  0
M  END
$$$$
