VSW.pdb
     RDKit          3D

 28 29  0  0  1  0  0  0  0  0999 V2000
    8.3201  -12.3130   19.2603 C   0  0  0  0  0  0  0  0  0  0  0  0
    8.4980  -13.2913   20.3896 C   0  0  1  0  0  0  0  0  0  0  0  0
    7.4247  -13.0087   21.4159 C   0  0  0  0  0  0  0  0  0  0  0  0
    8.4244  -14.7252   19.9331 C   0  0  2  0  0  0  0  0  0  0  0  0
    7.1923  -14.9650   19.2255 N   0  0  0  0  0  0  0  0  0  0  0  0
    8.6285  -15.6924   21.0443 C   0  0  0  0  0  0  0  0  0  0  0  0
    7.6657  -16.0928   21.7279 O   0  0  0  0  0  0  0  0  0  0  0  0
   12.5211  -17.0303   21.8697 O   0  0  0  0  0  0  0  0  0  0  0  0
   11.4694  -17.9455   22.0954 C   0  0  0  0  0  0  0  0  0  0  0  0
   10.1741  -17.2197   22.3198 C   0  0  2  0  0  0  0  0  0  0  0  0
    9.9096  -16.1894   21.3641 N   0  0  0  0  0  0  0  0  0  0  0  0
   10.2928  -16.5713   23.6647 C   0  0  0  0  0  0  0  0  0  0  0  0
   10.7174  -15.3871   23.7934 O   0  0  0  0  0  0  0  0  0  0  0  0
    9.9352  -17.2535   24.8589 N   0  0  0  0  0  0  0  0  0  0  0  0
   10.1265  -16.6336   26.1472 C   0  0  1  0  0  0  0  0  0  0  0  0
    8.8707  -16.6291   26.9907 C   0  0  0  0  0  0  0  0  0  0  0  0
    7.7836  -15.8034   26.4532 C   0  0  0  0  0  0  0  0  0  0  0  0
    6.6231  -16.2188   25.8124 C   0  0  0  0  0  0  0  0  0  0  0  0
    5.8900  -15.1426   25.5192 N   0  0  0  0  0  0  0  0  0  0  0  0
    6.5139  -13.9999   25.9396 C   0  0  0  0  0  0  0  0  0  0  0  0
    6.1483  -12.6738   25.8512 C   0  0  0  0  0  0  0  0  0  0  0  0
    6.9766  -11.6973   26.3549 C   0  0  0  0  0  0  0  0  0  0  0  0
    8.1575  -12.0859   26.9367 C   0  0  0  0  0  0  0  0  0  0  0  0
    8.5036  -13.4094   27.0154 C   0  0  0  0  0  0  0  0  0  0  0  0
    7.6955  -14.4410   26.5194 C   0  0  0  0  0  0  0  0  0  0  0  0
   11.1687  -17.3628   26.9150 C   0  0  0  0  0  0  0  0  0  0  0  0
   12.1100  -16.6945   27.4136 O   0  0  0  0  0  0  0  0  0  0  0  0
   11.1237  -18.7449   27.0894 O   0  0  0  0  0  0  0  0  0  0  0  0
  2  1  1  6
  2  3  1  0
  2  4  1  0
  4  5  1  1
  6 11  1  0
  6  4  1  0
  7  6  2  0
  9  8  1  0
 10 11  1  0
 10  9  1  6
 12 10  1  0
 13 12  2  0
 14 12  1  0
 15 16  1  1
 15 14  1  0
 17 16  1  0
 18 17  2  0
 19 20  1  0
 19 18  1  0
 20 25  2  0
 21 20  1  0
 21 22  2  0
 22 23  1  0
 23 24  2  0
 25 17  1  0
 25 24  1  0
 26 15  1  0
 27 26  2  0
 28 26  1  0
M  END
$$$$
