VSW.pdb
     RDKit          3D

 28 29  0  0  1  0  0  0  0  0999 V2000
    8.2757  -12.0036   18.9403 C   0  0  0  0  0  0  0  0  0  0  0  0
    8.3800  -13.0419   20.0244 C   0  0  1  0  0  0  0  0  0  0  0  0
    7.3311  -12.7257   21.0660 C   0  0  0  0  0  0  0  0  0  0  0  0
    8.1991  -14.4445   19.5049 C   0  0  2  0  0  0  0  0  0  0  0  0
    6.9969  -14.5373   18.7161 N   0  0  0  0  0  0  0  0  0  0  0  0
    8.2396  -15.4661   20.5849 C   0  0  0  0  0  0  0  0  0  0  0  0
    7.1999  -15.8035   21.1847 O   0  0  0  0  0  0  0  0  0  0  0  0
   10.5181  -19.2499   22.5259 O   0  0  0  0  0  0  0  0  0  0  0  0
   10.4572  -18.2616   21.5188 C   0  0  0  0  0  0  0  0  0  0  0  0
    9.5592  -17.1330   21.9371 C   0  0  2  0  0  0  0  0  0  0  0  0
    9.4469  -16.0872   20.9682 N   0  0  0  0  0  0  0  0  0  0  0  0
   10.1802  -16.5468   23.1675 C   0  0  0  0  0  0  0  0  0  0  0  0
   11.1801  -15.7754   23.1011 O   0  0  0  0  0  0  0  0  0  0  0  0
    9.6775  -16.8282   24.4665 N   0  0  0  0  0  0  0  0  0  0  0  0
   10.4440  -16.4935   25.6418 C   0  0  1  0  0  0  0  0  0  0  0  0
    9.9087  -15.2789   26.3676 C   0  0  0  0  0  0  0  0  0  0  0  0
    8.4814  -15.0218   26.1460 C   0  0  0  0  0  0  0  0  0  0  0  0
    7.4645  -15.9429   25.9275 C   0  0  0  0  0  0  0  0  0  0  0  0
    6.3101  -15.2830   25.8110 N   0  0  0  0  0  0  0  0  0  0  0  0
    6.5050  -13.9353   25.9424 C   0  0  0  0  0  0  0  0  0  0  0  0
    5.6252  -12.8754   25.8894 C   0  0  0  0  0  0  0  0  0  0  0  0
    6.0882  -11.5891   26.0463 C   0  0  0  0  0  0  0  0  0  0  0  0
    7.4326  -11.4050   26.2532 C   0  0  0  0  0  0  0  0  0  0  0  0
    8.2916  -12.4713   26.3029 C   0  0  0  0  0  0  0  0  0  0  0  0
    7.8707  -13.7991   26.1503 C   0  0  0  0  0  0  0  0  0  0  0  0
   10.4231  -17.6251   26.6044 C   0  0  0  0  0  0  0  0  0  0  0  0
    9.6103  -18.5617   26.3961 O   0  0  0  0  0  0  0  0  0  0  0  0
   11.2697  -17.6671   27.7107 O   0  0  0  0  0  0  0  0  0  0  0  0
  2  1  1  6
  2  3  1  0
  2  4  1  0
  4  5  1  1
  6 11  1  0
  6  4  1  0
  7  6  2  0
  9  8  1  0
 10 11  1  0
 10  9  1  6
 12 10  1  0
 13 12  2  0
 14 12  1  0
 15 16  1  1
 15 14  1  0
 17 16  1  0
 18 17  2  0
 19 20  1  0
 19 18  1  0
 20 25  2  0
 21 20  1  0
 21 22  2  0
 22 23  1  0
 23 24  2  0
 25 17  1  0
 25 24  1  0
 26 15  1  0
 27 26  2  0
 28 26  1  0
M  END
$$$$
