VSW.pdb
     RDKit          3D

 28 29  0  0  1  0  0  0  0  0999 V2000
    8.6681  -12.6717   21.0321 C   0  0  0  0  0  0  0  0  0  0  0  0
    7.7859  -13.2404   19.9540 C   0  0  1  0  0  0  0  0  0  0  0  0
    7.7852  -12.2654   18.7989 C   0  0  0  0  0  0  0  0  0  0  0  0
    8.2367  -14.6019   19.4925 C   0  0  2  0  0  0  0  0  0  0  0  0
    7.5011  -15.0047   18.3208 N   0  0  0  0  0  0  0  0  0  0  0  0
    8.1730  -15.6237   20.5713 C   0  0  0  0  0  0  0  0  0  0  0  0
    7.0840  -16.1264   20.9119 O   0  0  0  0  0  0  0  0  0  0  0  0
   11.4595  -17.7833   21.3383 O   0  0  0  0  0  0  0  0  0  0  0  0
   10.2615  -18.2294   21.9385 C   0  0  0  0  0  0  0  0  0  0  0  0
    9.3640  -17.0684   22.2574 C   0  0  2  0  0  0  0  0  0  0  0  0
    9.3337  -16.0592   21.2447 N   0  0  0  0  0  0  0  0  0  0  0  0
    9.9210  -16.4467   23.5010 C   0  0  0  0  0  0  0  0  0  0  0  0
   10.8513  -15.5914   23.4539 O   0  0  0  0  0  0  0  0  0  0  0  0
    9.4324  -16.7867   24.7914 N   0  0  0  0  0  0  0  0  0  0  0  0
   10.1816  -16.4464   25.9761 C   0  0  1  0  0  0  0  0  0  0  0  0
    9.3691  -15.6594   26.9807 C   0  0  0  0  0  0  0  0  0  0  0  0
    8.0632  -15.2112   26.4846 C   0  0  0  0  0  0  0  0  0  0  0  0
    7.0091  -15.9847   26.0147 C   0  0  0  0  0  0  0  0  0  0  0  0
    5.9955  -15.1759   25.6983 N   0  0  0  0  0  0  0  0  0  0  0  0
    6.3233  -13.8693   25.9367 C   0  0  0  0  0  0  0  0  0  0  0  0
    5.6121  -12.7018   25.7594 C   0  0  0  0  0  0  0  0  0  0  0  0
    6.1870  -11.4920   26.0745 C   0  0  0  0  0  0  0  0  0  0  0  0
    7.4701  -11.4917   26.5619 C   0  0  0  0  0  0  0  0  0  0  0  0
    8.1611  -12.6627   26.7314 C   0  0  0  0  0  0  0  0  0  0  0  0
    7.6210  -13.9192   26.4271 C   0  0  0  0  0  0  0  0  0  0  0  0
   10.6466  -17.6816   26.6585 C   0  0  0  0  0  0  0  0  0  0  0  0
   11.4698  -17.5604   27.6014 O   0  0  0  0  0  0  0  0  0  0  0  0
   10.1971  -18.9457   26.2810 O   0  0  0  0  0  0  0  0  0  0  0  0
  2  1  1  1
  2  3  1  0
  2  4  1  0
  4  5  1  6
  6 11  1  0
  6  4  1  0
  7  6  2  0
  9  8  1  0
 10 11  1  0
 10  9  1  6
 12 10  1  0
 13 12  2  0
 14 12  1  0
 15 16  1  1
 15 14  1  0
 17 16  1  0
 18 17  2  0
 19 20  1  0
 19 18  1  0
 20 25  2  0
 21 20  1  0
 21 22  2  0
 22 23  1  0
 23 24  2  0
 25 17  1  0
 25 24  1  0
 26 15  1  0
 27 26  2  0
 28 26  1  0
M  END
$$$$
