VSW.pdb
     RDKit          3D

 28 29  0  0  1  0  0  0  0  0999 V2000
    8.8185  -12.3860   18.6718 C   0  0  0  0  0  0  0  0  0  0  0  0
    8.7059  -13.3551   19.8174 C   0  0  1  0  0  0  0  0  0  0  0  0
    7.5256  -12.9328   20.6622 C   0  0  0  0  0  0  0  0  0  0  0  0
    8.5408  -14.7806   19.3585 C   0  0  2  0  0  0  0  0  0  0  0  0
    7.4775  -14.8773   18.3909 N   0  0  0  0  0  0  0  0  0  0  0  0
    8.3565  -15.7295   20.4887 C   0  0  0  0  0  0  0  0  0  0  0  0
    7.2152  -16.0372   20.8852 O   0  0  0  0  0  0  0  0  0  0  0  0
   11.4266  -18.2688   21.5033 O   0  0  0  0  0  0  0  0  0  0  0  0
   10.1161  -18.5431   21.9528 C   0  0  0  0  0  0  0  0  0  0  0  0
    9.3661  -17.2678   22.2101 C   0  0  2  0  0  0  0  0  0  0  0  0
    9.4581  -16.3129   21.1495 N   0  0  0  0  0  0  0  0  0  0  0  0
    9.9948  -16.6582   23.4252 C   0  0  0  0  0  0  0  0  0  0  0  0
   10.9369  -15.8197   23.3330 O   0  0  0  0  0  0  0  0  0  0  0  0
    9.5643  -16.9916   24.7378 N   0  0  0  0  0  0  0  0  0  0  0  0
   10.3124  -16.5557   25.8915 C   0  0  1  0  0  0  0  0  0  0  0  0
    9.8633  -15.2070   26.4093 C   0  0  0  0  0  0  0  0  0  0  0  0
    8.4153  -14.9827   26.3370 C   0  0  0  0  0  0  0  0  0  0  0  0
    7.4041  -15.9250   26.1964 C   0  0  0  0  0  0  0  0  0  0  0  0
    6.2283  -15.2934   26.2123 N   0  0  0  0  0  0  0  0  0  0  0  0
    6.4028  -13.9445   26.3590 C   0  0  0  0  0  0  0  0  0  0  0  0
    5.4969  -12.9073   26.4213 C   0  0  0  0  0  0  0  0  0  0  0  0
    5.9422  -11.6133   26.5652 C   0  0  0  0  0  0  0  0  0  0  0  0
    7.2956  -11.3986   26.6425 C   0  0  0  0  0  0  0  0  0  0  0  0
    8.1808  -12.4426   26.5788 C   0  0  0  0  0  0  0  0  0  0  0  0
    7.7788  -13.7770   26.4340 C   0  0  0  0  0  0  0  0  0  0  0  0
   10.1505  -17.5288   27.0025 C   0  0  0  0  0  0  0  0  0  0  0  0
    9.3184  -18.4599   26.8545 O   0  0  0  0  0  0  0  0  0  0  0  0
   10.8880  -17.4310   28.1811 O   0  0  0  0  0  0  0  0  0  0  0  0
  2  1  1  6
  2  3  1  0
  2  4  1  0
  4  5  1  6
  6 11  1  0
  6  4  1  0
  7  6  2  0
  9  8  1  0
 10 11  1  0
 10  9  1  6
 12 10  1  0
 13 12  2  0
 14 12  1  0
 15 16  1  1
 15 14  1  0
 17 16  1  0
 18 17  2  0
 19 20  1  0
 19 18  1  0
 20 25  2  0
 21 20  1  0
 21 22  2  0
 22 23  1  0
 23 24  2  0
 25 17  1  0
 25 24  1  0
 26 15  1  0
 27 26  2  0
 28 26  1  0
M  END
$$$$
