LMK.pdb
     RDKit          3D

 26 25  0  0  1  0  0  0  0  0999 V2000
    7.1822  -12.1670   18.7102 C   0  0  0  0  0  0  0  0  0  0  0  0
    7.6230  -13.5640   19.0320 C   0  0  1  0  0  0  0  0  0  0  0  0
    7.8784  -14.3506   17.7737 C   0  0  0  0  0  0  0  0  0  0  0  0
    8.7832  -13.6292   19.9905 C   0  0  0  0  0  0  0  0  0  0  0  0
    8.7737  -14.9689   20.6610 C   0  0  2  0  0  0  0  0  0  0  0  0
    7.5253  -15.6494   20.4445 N   0  0  0  0  0  0  0  0  0  0  0  0
    9.0672  -14.9002   22.1071 C   0  0  0  0  0  0  0  0  0  0  0  0
   10.1771  -14.5230   22.5659 O   0  0  0  0  0  0  0  0  0  0  0  0
    6.5740  -11.5603   27.1270 C   0  0  0  0  0  0  0  0  0  0  0  0
    7.6915  -12.9682   27.1838 S   0  0  0  0  0  0  0  0  0  0  0  0
    6.9268  -14.4828   26.5525 C   0  0  0  0  0  0  0  0  0  0  0  0
    7.0515  -14.6784   25.1002 C   0  0  0  0  0  0  0  0  0  0  0  0
    8.3179  -15.1791   24.5182 C   0  0  2  0  0  0  0  0  0  0  0  0
    8.0807  -15.2673   23.0500 N   0  0  0  0  0  0  0  0  0  0  0  0
    8.8191  -16.4768   24.9680 C   0  0  0  0  0  0  0  0  0  0  0  0
    8.1390  -17.5463   24.9029 O   0  0  0  0  0  0  0  0  0  0  0  0
   10.1416  -16.6071   25.5068 N   0  0  0  0  0  0  0  0  0  0  0  0
   10.5748  -17.9542   25.9410 C   0  0  1  0  0  0  0  0  0  0  0  0
   12.0437  -17.9873   25.4394 C   0  0  0  0  0  0  0  0  0  0  0  0
   12.7519  -19.2380   25.8241 C   0  0  0  0  0  0  0  0  0  0  0  0
   14.1648  -19.2912   25.2732 C   0  0  0  0  0  0  0  0  0  0  0  0
   14.8187  -20.6246   25.5666 C   0  0  0  0  0  0  0  0  0  0  0  0
   16.0640  -20.7240   24.8312 N   0  0  0  0  0  0  0  0  0  0  0  0
   10.6560  -18.0739   27.4041 C   0  0  0  0  0  0  0  0  0  0  0  0
   10.3871  -16.9614   28.1851 O   0  0  0  0  0  0  0  0  0  0  0  0
   10.9566  -19.1185   28.0284 O   0  0  0  0  0  0  0  0  0  0  0  0
  2  1  1  6
  3  2  1  0
  4  2  1  0
  5  4  1  0
  5  6  1  1
  7  8  2  0
  7  5  1  0
 10  9  1  0
 11 12  1  0
 11 10  1  0
 13 12  1  1
 13 14  1  0
 14  7  1  0
 15 13  1  0
 15 16  2  0
 17 15  1  0
 18 19  1  6
 18 24  1  0
 18 17  1  0
 20 21  1  0
 20 19  1  0
 22 23  1  0
 22 21  1  0
 24 25  1  0
 26 24  2  0
M  END
$$$$
