LMK.pdb
     RDKit          3D

 26 25  0  0  1  0  0  0  0  0999 V2000
    7.4829  -12.6917   18.1924 C   0  0  0  0  0  0  0  0  0  0  0  0
    7.8608  -13.9486   18.9184 C   0  0  1  0  0  0  0  0  0  0  0  0
    8.2862  -15.0212   17.9509 C   0  0  0  0  0  0  0  0  0  0  0  0
    8.8717  -13.7363   20.0148 C   0  0  0  0  0  0  0  0  0  0  0  0
    8.8677  -14.9397   20.9072 C   0  0  2  0  0  0  0  0  0  0  0  0
    7.5778  -15.5756   20.9162 N   0  0  0  0  0  0  0  0  0  0  0  0
    9.2939  -14.6426   22.2899 C   0  0  0  0  0  0  0  0  0  0  0  0
   10.4293  -14.1792   22.5746 O   0  0  0  0  0  0  0  0  0  0  0  0
    6.2015  -11.1814   28.4870 C   0  0  0  0  0  0  0  0  0  0  0  0
    6.1111  -11.9709   26.8737 S   0  0  0  0  0  0  0  0  0  0  0  0
    7.5582  -13.0022   26.5275 C   0  0  0  0  0  0  0  0  0  0  0  0
    7.5886  -13.5910   25.1801 C   0  0  0  0  0  0  0  0  0  0  0  0
    8.7290  -14.4361   24.7578 C   0  0  2  0  0  0  0  0  0  0  0  0
    8.4133  -14.8766   23.3701 N   0  0  0  0  0  0  0  0  0  0  0  0
    9.0335  -15.6291   25.5464 C   0  0  0  0  0  0  0  0  0  0  0  0
    8.9901  -15.6551   26.8144 O   0  0  0  0  0  0  0  0  0  0  0  0
    9.3930  -16.8610   24.9063 N   0  0  0  0  0  0  0  0  0  0  0  0
    9.7078  -18.0177   25.7745 C   0  0  1  0  0  0  0  0  0  0  0  0
    9.7031  -19.1864   24.7526 C   0  0  0  0  0  0  0  0  0  0  0  0
   10.0902  -20.4852   25.3666 C   0  0  0  0  0  0  0  0  0  0  0  0
   10.1339  -21.6112   24.3503 C   0  0  0  0  0  0  0  0  0  0  0  0
   10.5673  -22.9125   24.9907 C   0  0  0  0  0  0  0  0  0  0  0  0
   10.8320  -23.8946   23.9577 N   0  0  0  0  0  0  0  0  0  0  0  0
   11.0777  -17.9651   26.3057 C   0  0  0  0  0  0  0  0  0  0  0  0
   11.3775  -18.6677   27.4618 O   0  0  0  0  0  0  0  0  0  0  0  0
   12.0265  -17.3236   25.7962 O   0  0  0  0  0  0  0  0  0  0  0  0
  2  1  1  6
  3  2  1  0
  4  2  1  0
  5  4  1  0
  5  6  1  1
  7  8  2  0
  7  5  1  0
 10  9  1  0
 11 12  1  0
 11 10  1  0
 13 12  1  1
 13 14  1  0
 14  7  1  0
 15 13  1  0
 15 16  2  0
 17 15  1  0
 18 19  1  6
 18 24  1  0
 18 17  1  0
 20 21  1  0
 20 19  1  0
 22 23  1  0
 22 21  1  0
 24 25  1  0
 26 24  2  0
M  END
$$$$
