LMK.pdb
     RDKit          3D

 26 25  0  0  1  0  0  0  0  0999 V2000
    6.3184  -12.0553   26.2049 C   0  0  0  0  0  0  0  0  0  0  0  0
    7.2372  -13.2387   26.1365 C   0  0  1  0  0  0  0  0  0  0  0  0
    8.3597  -13.1063   27.1314 C   0  0  0  0  0  0  0  0  0  0  0  0
    6.5300  -14.5641   26.2479 C   0  0  0  0  0  0  0  0  0  0  0  0
    7.4466  -15.6378   25.7464 C   0  0  2  0  0  0  0  0  0  0  0  0
    8.7957  -15.4205   26.1947 N   0  0  0  0  0  0  0  0  0  0  0  0
    7.4208  -15.7883   24.2771 C   0  0  0  0  0  0  0  0  0  0  0  0
    6.4133  -16.2030   23.6464 O   0  0  0  0  0  0  0  0  0  0  0  0
    8.1895  -11.0948   20.2624 C   0  0  0  0  0  0  0  0  0  0  0  0
    7.0872  -12.4908   19.9978 S   0  0  0  0  0  0  0  0  0  0  0  0
    7.2183  -13.7323   21.3089 C   0  0  0  0  0  0  0  0  0  0  0  0
    8.5196  -14.4134   21.3863 C   0  0  0  0  0  0  0  0  0  0  0  0
    8.6356  -15.7337   22.0469 C   0  0  2  0  0  0  0  0  0  0  0  0
    8.5615  -15.4614   23.5098 N   0  0  0  0  0  0  0  0  0  0  0  0
    9.8398  -16.5256   21.8008 C   0  0  0  0  0  0  0  0  0  0  0  0
   10.4511  -16.5354   20.6887 O   0  0  0  0  0  0  0  0  0  0  0  0
   10.4078  -17.3401   22.8353 N   0  0  0  0  0  0  0  0  0  0  0  0
   11.6386  -18.0967   22.5134 C   0  0  1  0  0  0  0  0  0  0  0  0
   11.8378  -18.9343   23.8053 C   0  0  0  0  0  0  0  0  0  0  0  0
   13.0615  -19.7792   23.7566 C   0  0  0  0  0  0  0  0  0  0  0  0
   13.3134  -20.5022   25.0667 C   0  0  0  0  0  0  0  0  0  0  0  0
   14.6459  -21.2203   25.0504 C   0  0  0  0  0  0  0  0  0  0  0  0
   14.8312  -21.9231   26.3047 N   0  0  0  0  0  0  0  0  0  0  0  0
   11.4302  -19.0768   21.4374 C   0  0  0  0  0  0  0  0  0  0  0  0
   10.1857  -19.6707   21.3012 O   0  0  0  0  0  0  0  0  0  0  0  0
   12.2996  -19.4368   20.6092 O   0  0  0  0  0  0  0  0  0  0  0  0
  2  1  1  1
  3  2  1  0
  4  2  1  0
  5  4  1  0
  5  6  1  6
  7  8  2  0
  7  5  1  0
 10  9  1  0
 11 12  1  0
 11 10  1  0
 13 12  1  6
 13 14  1  0
 14  7  1  0
 15 13  1  0
 15 16  2  0
 17 15  1  0
 18 19  1  1
 18 24  1  0
 18 17  1  0
 20 21  1  0
 20 19  1  0
 22 23  1  0
 22 21  1  0
 24 25  1  0
 26 24  2  0
M  END
$$$$
