LMK.pdb
     RDKit          3D

 26 25  0  0  1  0  0  0  0  0999 V2000
    8.7388  -12.0089   20.3432 C   0  0  0  0  0  0  0  0  0  0  0  0
    7.9907  -13.2522   19.9637 C   0  0  1  0  0  0  0  0  0  0  0  0
    7.0916  -12.9995   18.7826 C   0  0  0  0  0  0  0  0  0  0  0  0
    8.8747  -14.4548   19.7603 C   0  0  0  0  0  0  0  0  0  0  0  0
    8.4138  -15.5466   20.6768 C   0  0  2  0  0  0  0  0  0  0  0  0
    7.0085  -15.8041   20.5126 N   0  0  0  0  0  0  0  0  0  0  0  0
    8.7159  -15.2820   22.0983 C   0  0  0  0  0  0  0  0  0  0  0  0
    9.8767  -15.0387   22.5205 O   0  0  0  0  0  0  0  0  0  0  0  0
    7.6704  -11.3717   28.0974 C   0  0  0  0  0  0  0  0  0  0  0  0
    7.8140  -12.1109   26.4643 S   0  0  0  0  0  0  0  0  0  0  0  0
    6.7280  -13.5444   26.2572 C   0  0  0  0  0  0  0  0  0  0  0  0
    6.7584  -14.1537   24.9190 C   0  0  0  0  0  0  0  0  0  0  0  0
    7.9233  -14.9614   24.4903 C   0  0  2  0  0  0  0  0  0  0  0  0
    7.6794  -15.2942   23.0587 N   0  0  0  0  0  0  0  0  0  0  0  0
    8.1953  -16.2111   25.1988 C   0  0  0  0  0  0  0  0  0  0  0  0
    7.2933  -17.0521   25.4982 O   0  0  0  0  0  0  0  0  0  0  0  0
    9.5308  -16.5594   25.5880 N   0  0  0  0  0  0  0  0  0  0  0  0
    9.7282  -17.8554   26.2752 C   0  0  1  0  0  0  0  0  0  0  0  0
   10.5096  -18.6621   25.2034 C   0  0  0  0  0  0  0  0  0  0  0  0
   10.8991  -20.0172   25.6782 C   0  0  0  0  0  0  0  0  0  0  0  0
   11.7813  -20.7444   24.6805 C   0  0  0  0  0  0  0  0  0  0  0  0
   11.9507  -22.2010   25.0565 C   0  0  0  0  0  0  0  0  0  0  0  0
   13.2675  -22.6538   24.6535 N   0  0  0  0  0  0  0  0  0  0  0  0
   10.6363  -17.7483   27.4265 C   0  0  0  0  0  0  0  0  0  0  0  0
   10.5931  -18.7240   28.4094 O   0  0  0  0  0  0  0  0  0  0  0  0
   11.4686  -16.8286   27.6076 O   0  0  0  0  0  0  0  0  0  0  0  0
  2  1  1  6
  3  2  1  0
  4  2  1  0
  5  4  1  0
  5  6  1  1
  7  8  2  0
  7  5  1  0
 10  9  1  0
 11 12  1  0
 11 10  1  0
 13 12  1  1
 13 14  1  0
 14  7  1  0
 15 13  1  0
 15 16  2  0
 17 15  1  0
 18 19  1  6
 18 24  1  0
 18 17  1  0
 20 21  1  0
 20 19  1  0
 22 23  1  0
 22 21  1  0
 24 25  1  0
 26 24  2  0
M  END
$$$$
