LMK.pdb
     RDKit          3D

 26 25  0  0  1  0  0  0  0  0999 V2000
    8.1681  -12.4275   19.6853 C   0  0  0  0  0  0  0  0  0  0  0  0
    7.8700  -13.7377   20.3517 C   0  0  1  0  0  0  0  0  0  0  0  0
    6.5556  -14.2967   19.8749 C   0  0  0  0  0  0  0  0  0  0  0  0
    8.9883  -14.7413   20.2460 C   0  0  0  0  0  0  0  0  0  0  0  0
    8.8243  -15.7553   21.3365 C   0  0  2  0  0  0  0  0  0  0  0  0
    7.4680  -16.2286   21.4063 N   0  0  0  0  0  0  0  0  0  0  0  0
    9.2562  -15.2636   22.6608 C   0  0  0  0  0  0  0  0  0  0  0  0
   10.4387  -14.9118   22.9110 O   0  0  0  0  0  0  0  0  0  0  0  0
    5.5026  -11.4048   25.7308 C   0  0  0  0  0  0  0  0  0  0  0  0
    6.1709  -12.1571   27.2212 S   0  0  0  0  0  0  0  0  0  0  0  0
    7.5753  -13.2458   26.8751 C   0  0  0  0  0  0  0  0  0  0  0  0
    7.5374  -13.9033   25.5601 C   0  0  0  0  0  0  0  0  0  0  0  0
    8.7110  -14.6602   25.0673 C   0  0  2  0  0  0  0  0  0  0  0  0
    8.3268  -15.1700   23.7212 N   0  0  0  0  0  0  0  0  0  0  0  0
    9.1810  -15.7969   25.8576 C   0  0  0  0  0  0  0  0  0  0  0  0
    9.4055  -15.7321   27.1050 O   0  0  0  0  0  0  0  0  0  0  0  0
    9.4047  -17.0746   25.2462 N   0  0  0  0  0  0  0  0  0  0  0  0
    9.8350  -18.1874   26.1222 C   0  0  1  0  0  0  0  0  0  0  0  0
    9.9519  -19.3569   25.1079 C   0  0  0  0  0  0  0  0  0  0  0  0
   10.4128  -20.6212   25.7427 C   0  0  0  0  0  0  0  0  0  0  0  0
   10.5900  -21.7400   24.7330 C   0  0  0  0  0  0  0  0  0  0  0  0
   11.1130  -22.9978   25.3932 C   0  0  0  0  0  0  0  0  0  0  0  0
   11.1554  -24.0720   24.4207 N   0  0  0  0  0  0  0  0  0  0  0  0
   11.1914  -17.9912   26.6545 C   0  0  0  0  0  0  0  0  0  0  0  0
   11.4971  -18.4839   27.9129 O   0  0  0  0  0  0  0  0  0  0  0  0
   12.1231  -17.4006   26.0591 O   0  0  0  0  0  0  0  0  0  0  0  0
  2  1  1  6
  3  2  1  0
  4  2  1  0
  5  4  1  0
  5  6  1  1
  7  8  2  0
  7  5  1  0
 10  9  1  0
 11 12  1  0
 11 10  1  0
 13 12  1  1
 13 14  1  0
 14  7  1  0
 15 13  1  0
 15 16  2  0
 17 15  1  0
 18 19  1  6
 18 24  1  0
 18 17  1  0
 20 21  1  0
 20 19  1  0
 22 23  1  0
 22 21  1  0
 24 25  1  0
 26 24  2  0
M  END
$$$$
