LMK.pdb
     RDKit          3D

 26 25  0  0  1  0  0  0  0  0999 V2000
    7.0338  -19.4969   19.5155 C   0  0  0  0  0  0  0  0  0  0  0  0
    7.2032  -18.0182   19.7001 C   0  0  1  0  0  0  0  0  0  0  0  0
    5.9149  -17.2903   19.4210 C   0  0  0  0  0  0  0  0  0  0  0  0
    7.7971  -17.6362   21.0307 C   0  0  0  0  0  0  0  0  0  0  0  0
    7.9123  -16.1437   21.0912 C   0  0  2  0  0  0  0  0  0  0  0  0
    8.6272  -15.6313   19.9534 N   0  0  0  0  0  0  0  0  0  0  0  0
    8.5337  -15.6562   22.3394 C   0  0  0  0  0  0  0  0  0  0  0  0
    9.7662  -15.4237   22.4483 O   0  0  0  0  0  0  0  0  0  0  0  0
    5.8995  -11.8478   27.5364 C   0  0  0  0  0  0  0  0  0  0  0  0
    7.0697  -11.5002   26.2159 S   0  0  0  0  0  0  0  0  0  0  0  0
    7.0688  -12.7818   24.9373 C   0  0  0  0  0  0  0  0  0  0  0  0
    7.3109  -14.1461   25.4305 C   0  0  0  0  0  0  0  0  0  0  0  0
    8.3308  -15.0052   24.7864 C   0  0  2  0  0  0  0  0  0  0  0  0
    7.7397  -15.4285   23.4860 N   0  0  0  0  0  0  0  0  0  0  0  0
    8.7648  -16.2097   25.4925 C   0  0  0  0  0  0  0  0  0  0  0  0
    7.9761  -17.1509   25.8128 O   0  0  0  0  0  0  0  0  0  0  0  0
   10.1400  -16.3938   25.8548 N   0  0  0  0  0  0  0  0  0  0  0  0
   10.4951  -17.6277   26.5912 C   0  0  1  0  0  0  0  0  0  0  0  0
   11.7955  -18.0631   25.8634 C   0  0  0  0  0  0  0  0  0  0  0  0
   12.3822  -19.3057   26.4339 C   0  0  0  0  0  0  0  0  0  0  0  0
   13.6371  -19.7390   25.6990 C   0  0  0  0  0  0  0  0  0  0  0  0
   14.1441  -21.0688   26.2149 C   0  0  0  0  0  0  0  0  0  0  0  0
   15.1823  -21.5648   25.3330 N   0  0  0  0  0  0  0  0  0  0  0  0
   10.8935  -17.3578   27.9805 C   0  0  0  0  0  0  0  0  0  0  0  0
   10.9519  -18.4107   28.8793 O   0  0  0  0  0  0  0  0  0  0  0  0
   11.1918  -16.2307   28.4410 O   0  0  0  0  0  0  0  0  0  0  0  0
  2  1  1  1
  3  2  1  0
  4  2  1  0
  5  4  1  0
  5  6  1  6
  7  8  2  0
  7  5  1  0
 10  9  1  0
 11 12  1  0
 11 10  1  0
 13 12  1  1
 13 14  1  0
 14  7  1  0
 15 13  1  0
 15 16  2  0
 17 15  1  0
 18 19  1  6
 18 24  1  0
 18 17  1  0
 20 21  1  0
 20 19  1  0
 22 23  1  0
 22 21  1  0
 24 25  1  0
 26 24  2  0
M  END
$$$$
