LMK.pdb
     RDKit          3D

 26 25  0  0  1  0  0  0  0  0999 V2000
    7.5553  -12.1813   18.7431 C   0  0  0  0  0  0  0  0  0  0  0  0
    7.6553  -13.5510   19.3460 C   0  0  1  0  0  0  0  0  0  0  0  0
    8.0622  -14.5659   18.3107 C   0  0  0  0  0  0  0  0  0  0  0  0
    8.5232  -13.6115   20.5757 C   0  0  0  0  0  0  0  0  0  0  0  0
    8.4376  -14.9914   21.1528 C   0  0  2  0  0  0  0  0  0  0  0  0
    7.0817  -15.4709   21.1544 N   0  0  0  0  0  0  0  0  0  0  0  0
    9.0107  -15.0931   22.5104 C   0  0  0  0  0  0  0  0  0  0  0  0
   10.2361  -14.9362   22.7526 O   0  0  0  0  0  0  0  0  0  0  0  0
    6.7715  -10.5377   26.9813 C   0  0  0  0  0  0  0  0  0  0  0  0
    6.5684  -12.3235   26.9191 S   0  0  0  0  0  0  0  0  0  0  0  0
    7.8131  -13.1242   25.8765 C   0  0  0  0  0  0  0  0  0  0  0  0
    7.7015  -14.5884   25.7958 C   0  0  0  0  0  0  0  0  0  0  0  0
    8.6850  -15.3724   25.0141 C   0  0  2  0  0  0  0  0  0  0  0  0
    8.1757  -15.3786   23.6141 N   0  0  0  0  0  0  0  0  0  0  0  0
    8.9305  -16.7595   25.4059 C   0  0  0  0  0  0  0  0  0  0  0  0
    8.0446  -17.6664   25.3475 O   0  0  0  0  0  0  0  0  0  0  0  0
   10.2208  -17.1732   25.8752 N   0  0  0  0  0  0  0  0  0  0  0  0
   10.3716  -18.5783   26.3153 C   0  0  1  0  0  0  0  0  0  0  0  0
   11.7715  -18.9357   25.7471 C   0  0  0  0  0  0  0  0  0  0  0  0
   11.8111  -18.9027   24.2602 C   0  0  0  0  0  0  0  0  0  0  0  0
   13.2065  -19.1484   23.7167 C   0  0  0  0  0  0  0  0  0  0  0  0
   13.2338  -19.0451   22.2067 C   0  0  0  0  0  0  0  0  0  0  0  0
   14.6037  -19.1356   21.7412 N   0  0  0  0  0  0  0  0  0  0  0  0
   10.4970  -18.6994   27.7752 C   0  0  0  0  0  0  0  0  0  0  0  0
   10.5180  -19.9621   28.3453 O   0  0  0  0  0  0  0  0  0  0  0  0
   10.5873  -17.7385   28.5752 O   0  0  0  0  0  0  0  0  0  0  0  0
  2  1  1  6
  3  2  1  0
  4  2  1  0
  5  4  1  0
  5  6  1  1
  7  8  2  0
  7  5  1  0
 10  9  1  0
 11 12  1  0
 11 10  1  0
 13 12  1  1
 13 14  1  0
 14  7  1  0
 15 13  1  0
 15 16  2  0
 17 15  1  0
 18 19  1  6
 18 24  1  0
 18 17  1  0
 20 21  1  0
 20 19  1  0
 22 23  1  0
 22 21  1  0
 24 25  1  0
 26 24  2  0
M  END
$$$$
