LMK.pdb
     RDKit          3D

 26 25  0  0  1  0  0  0  0  0999 V2000
    6.9358  -19.8034   19.6208 C   0  0  0  0  0  0  0  0  0  0  0  0
    7.0675  -18.3133   19.7288 C   0  0  1  0  0  0  0  0  0  0  0  0
    5.7369  -17.6394   19.5211 C   0  0  0  0  0  0  0  0  0  0  0  0
    7.7484  -17.8536   20.9913 C   0  0  0  0  0  0  0  0  0  0  0  0
    7.7873  -16.3559   20.9945 C   0  0  2  0  0  0  0  0  0  0  0  0
    8.5230  -15.8529   19.8658 N   0  0  0  0  0  0  0  0  0  0  0  0
    8.3312  -15.7886   22.2452 C   0  0  0  0  0  0  0  0  0  0  0  0
    9.5538  -15.5390   22.4119 O   0  0  0  0  0  0  0  0  0  0  0  0
    7.9806  -11.4861   27.0793 C   0  0  0  0  0  0  0  0  0  0  0  0
    6.3796  -11.8922   26.3680 S   0  0  0  0  0  0  0  0  0  0  0  0
    6.5137  -13.0436   24.9774 C   0  0  0  0  0  0  0  0  0  0  0  0
    6.8690  -14.4215   25.3489 C   0  0  0  0  0  0  0  0  0  0  0  0
    7.9876  -15.1152   24.6703 C   0  0  2  0  0  0  0  0  0  0  0  0
    7.4696  -15.4995   23.3273 N   0  0  0  0  0  0  0  0  0  0  0  0
    8.5371  -16.3165   25.2971 C   0  0  0  0  0  0  0  0  0  0  0  0
    7.8312  -17.3242   25.6081 O   0  0  0  0  0  0  0  0  0  0  0  0
    9.9378  -16.4193   25.5862 N   0  0  0  0  0  0  0  0  0  0  0  0
   10.4268  -17.6920   26.1625 C   0  0  1  0  0  0  0  0  0  0  0  0
   11.7925  -17.8572   25.4429 C   0  0  0  0  0  0  0  0  0  0  0  0
   11.6432  -18.1472   23.9913 C   0  0  0  0  0  0  0  0  0  0  0  0
   12.9771  -18.4094   23.3172 C   0  0  0  0  0  0  0  0  0  0  0  0
   12.8180  -18.5428   21.8177 C   0  0  0  0  0  0  0  0  0  0  0  0
   14.1174  -18.7554   21.2112 N   0  0  0  0  0  0  0  0  0  0  0  0
   10.7474  -17.5746   27.5926 C   0  0  0  0  0  0  0  0  0  0  0  0
   11.1164  -18.7112   28.2939 O   0  0  0  0  0  0  0  0  0  0  0  0
   10.7150  -16.5113   28.2558 O   0  0  0  0  0  0  0  0  0  0  0  0
  2  1  1  1
  3  2  1  0
  4  2  1  0
  5  4  1  0
  5  6  1  6
  7  8  2  0
  7  5  1  0
 10  9  1  0
 11 12  1  0
 11 10  1  0
 13 12  1  1
 13 14  1  0
 14  7  1  0
 15 13  1  0
 15 16  2  0
 17 15  1  0
 18 19  1  6
 18 24  1  0
 18 17  1  0
 20 21  1  0
 20 19  1  0
 22 23  1  0
 22 21  1  0
 24 25  1  0
 26 24  2  0
M  END
$$$$
