LMK.pdb
     RDKit          3D

 26 25  0  0  1  0  0  0  0  0999 V2000
    7.9544  -11.8459   19.7313 C   0  0  0  0  0  0  0  0  0  0  0  0
    8.0087  -13.3326   19.9218 C   0  0  1  0  0  0  0  0  0  0  0  0
    7.7460  -14.0509   18.6246 C   0  0  0  0  0  0  0  0  0  0  0  0
    9.2677  -13.8133   20.5948 C   0  0  0  0  0  0  0  0  0  0  0  0
    8.9935  -15.1445   21.2251 C   0  0  2  0  0  0  0  0  0  0  0  0
    7.5817  -15.3558   21.3998 N   0  0  0  0  0  0  0  0  0  0  0  0
    9.6958  -15.3377   22.5102 C   0  0  0  0  0  0  0  0  0  0  0  0
   10.9391  -15.1911   22.6428 O   0  0  0  0  0  0  0  0  0  0  0  0
   10.0742  -13.6239   29.7199 C   0  0  0  0  0  0  0  0  0  0  0  0
    9.8325  -13.6822   27.9388 S   0  0  0  0  0  0  0  0  0  0  0  0
    9.0074  -15.2020   27.4033 C   0  0  0  0  0  0  0  0  0  0  0  0
    8.6722  -15.2512   25.9721 C   0  0  0  0  0  0  0  0  0  0  0  0
    9.6237  -15.8365   24.9999 C   0  0  2  0  0  0  0  0  0  0  0  0
    8.9716  -15.7047   23.6669 N   0  0  0  0  0  0  0  0  0  0  0  0
   10.0119  -17.2357   25.1704 C   0  0  0  0  0  0  0  0  0  0  0  0
    9.2704  -18.2096   24.8354 O   0  0  0  0  0  0  0  0  0  0  0  0
   11.2871  -17.5818   25.7276 N   0  0  0  0  0  0  0  0  0  0  0  0
   11.6349  -19.0186   25.8023 C   0  0  1  0  0  0  0  0  0  0  0  0
   12.5503  -19.1841   24.5594 C   0  0  0  0  0  0  0  0  0  0  0  0
   13.0611  -20.5729   24.4055 C   0  0  0  0  0  0  0  0  0  0  0  0
   13.8983  -20.7419   23.1512 C   0  0  0  0  0  0  0  0  0  0  0  0
   14.2875  -22.1896   22.9415 C   0  0  0  0  0  0  0  0  0  0  0  0
   15.2611  -22.2779   21.8710 N   0  0  0  0  0  0  0  0  0  0  0  0
   12.4843  -19.3315   26.9609 C   0  0  0  0  0  0  0  0  0  0  0  0
   13.0297  -18.2904   27.6948 O   0  0  0  0  0  0  0  0  0  0  0  0
   12.7709  -20.4860   27.3564 O   0  0  0  0  0  0  0  0  0  0  0  0
  2  1  1  6
  3  2  1  0
  4  2  1  0
  5  4  1  0
  5  6  1  1
  7  8  2  0
  7  5  1  0
 10  9  1  0
 11 12  1  0
 11 10  1  0
 13 12  1  1
 13 14  1  0
 14  7  1  0
 15 13  1  0
 15 16  2  0
 17 15  1  0
 18 19  1  6
 18 24  1  0
 18 17  1  0
 20 21  1  0
 20 19  1  0
 22 23  1  0
 22 21  1  0
 24 25  1  0
 26 24  2  0
M  END
$$$$
