LMK.pdb
     RDKit          3D

 26 25  0  0  1  0  0  0  0  0999 V2000
    7.1273  -12.4191   18.4278 C   0  0  0  0  0  0  0  0  0  0  0  0
    7.6570  -13.6628   19.0775 C   0  0  1  0  0  0  0  0  0  0  0  0
    8.5919  -14.3963   18.1525 C   0  0  0  0  0  0  0  0  0  0  0  0
    8.2665  -13.4269   20.4346 C   0  0  0  0  0  0  0  0  0  0  0  0
    8.5647  -14.7546   21.0613 C   0  0  2  0  0  0  0  0  0  0  0  0
    7.4361  -15.6405   20.9635 N   0  0  0  0  0  0  0  0  0  0  0  0
    9.0047  -14.6508   22.4676 C   0  0  0  0  0  0  0  0  0  0  0  0
   10.0908  -14.1142   22.8100 O   0  0  0  0  0  0  0  0  0  0  0  0
    6.5358  -11.1953   26.9489 C   0  0  0  0  0  0  0  0  0  0  0  0
    7.6667  -12.5331   27.3558 S   0  0  0  0  0  0  0  0  0  0  0  0
    6.9930  -14.1594   26.9333 C   0  0  0  0  0  0  0  0  0  0  0  0
    7.1178  -14.5299   25.5155 C   0  0  0  0  0  0  0  0  0  0  0  0
    8.4447  -14.8442   24.9377 C   0  0  2  0  0  0  0  0  0  0  0  0
    8.1953  -15.1667   23.5047 N   0  0  0  0  0  0  0  0  0  0  0  0
    9.2062  -15.9494   25.5178 C   0  0  0  0  0  0  0  0  0  0  0  0
    9.7179  -15.9084   26.6784 O   0  0  0  0  0  0  0  0  0  0  0  0
    9.4052  -17.1675   24.7879 N   0  0  0  0  0  0  0  0  0  0  0  0
   10.1461  -18.2571   25.4623 C   0  0  1  0  0  0  0  0  0  0  0  0
   11.5803  -18.0522   24.9043 C   0  0  0  0  0  0  0  0  0  0  0  0
   12.5561  -19.0272   25.4619 C   0  0  0  0  0  0  0  0  0  0  0  0
   13.9563  -18.8147   24.9170 C   0  0  0  0  0  0  0  0  0  0  0  0
   14.9652  -19.6785   25.6433 C   0  0  0  0  0  0  0  0  0  0  0  0
   15.4912  -20.6762   24.7326 N   0  0  0  0  0  0  0  0  0  0  0  0
   10.2551  -18.0479   26.9135 C   0  0  0  0  0  0  0  0  0  0  0  0
   10.1063  -19.1334   27.7618 O   0  0  0  0  0  0  0  0  0  0  0  0
   10.4744  -16.9467   27.4707 O   0  0  0  0  0  0  0  0  0  0  0  0
  2  1  1  6
  3  2  1  0
  4  2  1  0
  5  4  1  0
  5  6  1  1
  7  8  2  0
  7  5  1  0
 10  9  1  0
 11 12  1  0
 11 10  1  0
 13 12  1  1
 13 14  1  0
 14  7  1  0
 15 13  1  0
 15 16  2  0
 17 15  1  0
 18 19  1  6
 18 24  1  0
 18 17  1  0
 20 21  1  0
 20 19  1  0
 22 23  1  0
 22 21  1  0
 24 25  1  0
 26 24  2  0
M  END
$$$$
