LMK.pdb
     RDKit          3D

 26 25  0  0  1  0  0  0  0  0999 V2000
    7.6383  -12.2590   18.6641 C   0  0  0  0  0  0  0  0  0  0  0  0
    7.9332  -13.5958   19.2769 C   0  0  1  0  0  0  0  0  0  0  0  0
    8.7790  -14.4347   18.3559 C   0  0  0  0  0  0  0  0  0  0  0  0
    8.5119  -13.5133   20.6652 C   0  0  0  0  0  0  0  0  0  0  0  0
    8.6346  -14.9017   21.2144 C   0  0  2  0  0  0  0  0  0  0  0  0
    7.4426  -15.6665   20.9646 N   0  0  0  0  0  0  0  0  0  0  0  0
    8.9622  -14.9331   22.6544 C   0  0  0  0  0  0  0  0  0  0  0  0
   10.1027  -14.6502   23.1061 O   0  0  0  0  0  0  0  0  0  0  0  0
    6.4297  -11.5002   27.8426 C   0  0  0  0  0  0  0  0  0  0  0  0
    7.4698  -12.0305   26.4747 S   0  0  0  0  0  0  0  0  0  0  0  0
    6.6371  -13.2218   25.3955 C   0  0  0  0  0  0  0  0  0  0  0  0
    6.9842  -14.6290   25.6455 C   0  0  0  0  0  0  0  0  0  0  0  0
    8.2173  -15.2102   25.0671 C   0  0  2  0  0  0  0  0  0  0  0  0
    7.9751  -15.2931   23.5994 N   0  0  0  0  0  0  0  0  0  0  0  0
    8.6378  -16.5335   25.5254 C   0  0  0  0  0  0  0  0  0  0  0  0
    7.8471  -17.5218   25.6179 O   0  0  0  0  0  0  0  0  0  0  0  0
   10.0015  -16.7858   25.8898 N   0  0  0  0  0  0  0  0  0  0  0  0
   10.3460  -18.1488   26.3529 C   0  0  1  0  0  0  0  0  0  0  0  0
   11.7080  -18.3846   25.6461 C   0  0  0  0  0  0  0  0  0  0  0  0
   11.7540  -19.6755   24.9079 C   0  0  0  0  0  0  0  0  0  0  0  0
   13.1145  -19.9351   24.2880 C   0  0  0  0  0  0  0  0  0  0  0  0
   13.0814  -21.1437   23.3772 C   0  0  0  0  0  0  0  0  0  0  0  0
   14.3802  -21.3166   22.7568 N   0  0  0  0  0  0  0  0  0  0  0  0
   10.6368  -18.1961   27.7933 C   0  0  0  0  0  0  0  0  0  0  0  0
   10.8485  -19.4257   28.3960 O   0  0  0  0  0  0  0  0  0  0  0  0
   10.7112  -17.1986   28.5488 O   0  0  0  0  0  0  0  0  0  0  0  0
  2  1  1  6
  3  2  1  0
  4  2  1  0
  5  4  1  0
  5  6  1  1
  7  8  2  0
  7  5  1  0
 10  9  1  0
 11 12  1  0
 11 10  1  0
 13 12  1  1
 13 14  1  0
 14  7  1  0
 15 13  1  0
 15 16  2  0
 17 15  1  0
 18 19  1  6
 18 24  1  0
 18 17  1  0
 20 21  1  0
 20 19  1  0
 22 23  1  0
 22 21  1  0
 24 25  1  0
 26 24  2  0
M  END
$$$$
