LMK.pdb
     RDKit          3D

 26 25  0  0  1  0  0  0  0  0999 V2000
    7.8105  -12.4746   19.3207 C   0  0  0  0  0  0  0  0  0  0  0  0
    7.9440  -13.9426   19.5979 C   0  0  1  0  0  0  0  0  0  0  0  0
    7.6841  -14.7506   18.3541 C   0  0  0  0  0  0  0  0  0  0  0  0
    9.2425  -14.3197   20.2618 C   0  0  0  0  0  0  0  0  0  0  0  0
    8.9733  -15.4128   21.2504 C   0  0  2  0  0  0  0  0  0  0  0  0
    7.6304  -15.9110   21.1212 N   0  0  0  0  0  0  0  0  0  0  0  0
    9.2308  -15.0119   22.6485 C   0  0  0  0  0  0  0  0  0  0  0  0
   10.3562  -14.6208   23.0552 O   0  0  0  0  0  0  0  0  0  0  0  0
    5.3413  -11.4744   28.3488 C   0  0  0  0  0  0  0  0  0  0  0  0
    5.9648  -11.6421   26.6703 S   0  0  0  0  0  0  0  0  0  0  0  0
    7.2818  -12.8777   26.5432 C   0  0  0  0  0  0  0  0  0  0  0  0
    7.3781  -13.5451   25.2361 C   0  0  0  0  0  0  0  0  0  0  0  0
    8.3862  -14.6060   25.0096 C   0  0  2  0  0  0  0  0  0  0  0  0
    8.1897  -15.0564   23.6031 N   0  0  0  0  0  0  0  0  0  0  0  0
    8.3474  -15.7898   25.8668 C   0  0  0  0  0  0  0  0  0  0  0  0
    8.2461  -15.7311   27.1305 O   0  0  0  0  0  0  0  0  0  0  0  0
    8.4115  -17.1071   25.3039 N   0  0  0  0  0  0  0  0  0  0  0  0
    8.4659  -18.2510   26.2416 C   0  0  1  0  0  0  0  0  0  0  0  0
    8.0487  -19.4299   25.3217 C   0  0  0  0  0  0  0  0  0  0  0  0
    6.8690  -19.1056   24.4751 C   0  0  0  0  0  0  0  0  0  0  0  0
    6.4588  -20.2685   23.5909 C   0  0  0  0  0  0  0  0  0  0  0  0
    5.3402  -19.8751   22.6498 C   0  0  0  0  0  0  0  0  0  0  0  0
    5.0839  -20.9605   21.7238 N   0  0  0  0  0  0  0  0  0  0  0  0
    9.8369  -18.5569   26.6756 C   0  0  0  0  0  0  0  0  0  0  0  0
   10.0258  -19.3384   27.8042 O   0  0  0  0  0  0  0  0  0  0  0  0
   10.8809  -18.1633   26.1041 O   0  0  0  0  0  0  0  0  0  0  0  0
  2  1  1  6
  3  2  1  0
  4  2  1  0
  5  4  1  0
  5  6  1  1
  7  8  2  0
  7  5  1  0
 10  9  1  0
 11 12  1  0
 11 10  1  0
 13 12  1  1
 13 14  1  0
 14  7  1  0
 15 13  1  0
 15 16  2  0
 17 15  1  0
 18 19  1  6
 18 24  1  0
 18 17  1  0
 20 21  1  0
 20 19  1  0
 22 23  1  0
 22 21  1  0
 24 25  1  0
 26 24  2  0
M  END
$$$$
