TMF.pdb
     RDKit          3D

 27 27  0  0  1  0  0  0  0  0999 V2000
    7.3344  -19.3288   18.8028 C   0  0  0  0  0  0  0  0  0  0  0  0
    7.9416  -18.5075   19.9213 C   0  0  1  0  0  0  0  0  0  0  0  0
    9.1050  -19.0716   20.4061 O   0  0  0  0  0  0  0  0  0  0  0  0
    8.1569  -17.0684   19.4451 C   0  0  2  0  0  0  0  0  0  0  0  0
    8.9087  -17.1346   18.2376 N   0  0  0  0  0  0  0  0  0  0  0  0
    8.7990  -16.2605   20.5232 C   0  0  0  0  0  0  0  0  0  0  0  0
   10.0379  -16.2136   20.5737 O   0  0  0  0  0  0  0  0  0  0  0  0
    5.2663  -12.6957   25.7352 C   0  0  0  0  0  0  0  0  0  0  0  0
    6.5709  -11.8847   24.8121 S   0  0  0  0  0  0  0  0  0  0  0  0
    7.8727  -13.0686   24.3074 C   0  0  0  0  0  0  0  0  0  0  0  0
    7.3776  -13.8639   23.1451 C   0  0  0  0  0  0  0  0  0  0  0  0
    8.4449  -14.8245   22.6019 C   0  0  2  0  0  0  0  0  0  0  0  0
    8.0293  -15.5592   21.4725 N   0  0  0  0  0  0  0  0  0  0  0  0
    9.0459  -15.5496   23.7102 C   0  0  0  0  0  0  0  0  0  0  0  0
    8.5091  -16.6256   24.0801 O   0  0  0  0  0  0  0  0  0  0  0  0
   10.2042  -15.1432   24.4229 N   0  0  0  0  0  0  0  0  0  0  0  0
   10.6341  -15.7866   25.6769 C   0  0  1  0  0  0  0  0  0  0  0  0
   11.4985  -14.8753   26.4712 C   0  0  0  0  0  0  0  0  0  0  0  0
   11.3565  -15.1591   27.9133 C   0  0  0  0  0  0  0  0  0  0  0  0
   10.5898  -14.3687   28.7591 C   0  0  0  0  0  0  0  0  0  0  0  0
   10.4748  -14.6640   30.0975 C   0  0  0  0  0  0  0  0  0  0  0  0
   11.1037  -15.7447   30.6696 C   0  0  0  0  0  0  0  0  0  0  0  0
   11.8646  -16.5346   29.8464 C   0  0  0  0  0  0  0  0  0  0  0  0
   11.9920  -16.2559   28.5049 C   0  0  0  0  0  0  0  0  0  0  0  0
    9.4309  -16.1790   26.4028 C   0  0  0  0  0  0  0  0  0  0  0  0
    9.2970  -17.4290   26.9653 O   0  0  0  0  0  0  0  0  0  0  0  0
    8.4737  -15.3805   26.5337 O   0  0  0  0  0  0  0  0  0  0  0  0
  2  1  1  6
  2  4  1  0
  3  2  1  0
  4  6  1  0
  4  5  1  6
  6  7  2  0
  9  8  1  0
 10  9  1  0
 11 10  1  0
 12 11  1  1
 13  6  1  0
 13 12  1  0
 14 12  1  0
 14 15  2  0
 16 14  1  0
 17 16  1  0
 17 25  1  0
 17 18  1  1
 19 24  2  0
 19 18  1  0
 20 19  1  0
 21 22  1  0
 21 20  2  0
 22 23  2  0
 23 24  1  0
 25 27  2  0
 25 26  1  0
M  END
$$$$
