TMF.pdb
     RDKit          3D

 27 27  0  0  1  0  0  0  0  0999 V2000
    9.6392  -13.1116   20.9307 C   0  0  0  0  0  0  0  0  0  0  0  0
    8.5098  -12.9137   19.9410 C   0  0  1  0  0  0  0  0  0  0  0  0
    8.9493  -12.3537   18.7579 O   0  0  0  0  0  0  0  0  0  0  0  0
    7.7864  -14.2435   19.7124 C   0  0  2  0  0  0  0  0  0  0  0  0
    6.7741  -14.0081   18.7390 N   0  0  0  0  0  0  0  0  0  0  0  0
    7.2774  -14.7815   21.0081 C   0  0  0  0  0  0  0  0  0  0  0  0
    6.2597  -14.2737   21.5043 O   0  0  0  0  0  0  0  0  0  0  0  0
    4.8892  -20.4018   19.9530 C   0  0  0  0  0  0  0  0  0  0  0  0
    6.0813  -20.0529   21.2450 S   0  0  0  0  0  0  0  0  0  0  0  0
    6.3058  -18.2519   21.4836 C   0  0  0  0  0  0  0  0  0  0  0  0
    7.2646  -18.0295   22.6061 C   0  0  0  0  0  0  0  0  0  0  0  0
    7.5535  -16.5394   22.8362 C   0  0  2  0  0  0  0  0  0  0  0  0
    7.9267  -15.8437   21.6679 N   0  0  0  0  0  0  0  0  0  0  0  0
    8.3848  -16.3895   24.0202 C   0  0  0  0  0  0  0  0  0  0  0  0
    9.6345  -16.3943   23.8761 O   0  0  0  0  0  0  0  0  0  0  0  0
    7.9018  -16.2356   25.3459 N   0  0  0  0  0  0  0  0  0  0  0  0
    8.7965  -16.1206   26.5111 C   0  0  1  0  0  0  0  0  0  0  0  0
    8.2042  -15.2380   27.5496 C   0  0  0  0  0  0  0  0  0  0  0  0
    7.6161  -14.0348   26.9272 C   0  0  0  0  0  0  0  0  0  0  0  0
    8.3892  -12.9770   26.4675 C   0  0  0  0  0  0  0  0  0  0  0  0
    7.8096  -11.8725   25.8880 C   0  0  0  0  0  0  0  0  0  0  0  0
    6.4488  -11.7518   25.7320 C   0  0  0  0  0  0  0  0  0  0  0  0
    5.6724  -12.7889   26.1816 C   0  0  0  0  0  0  0  0  0  0  0  0
    6.2332  -13.9023   26.7639 C   0  0  0  0  0  0  0  0  0  0  0  0
    9.0438  -17.4698   27.0083 C   0  0  0  0  0  0  0  0  0  0  0  0
    8.4571  -18.5750   26.4328 O   0  0  0  0  0  0  0  0  0  0  0  0
    9.8039  -17.6620   27.9863 O   0  0  0  0  0  0  0  0  0  0  0  0
  2  1  1  1
  2  4  1  0
  3  2  1  0
  4  6  1  0
  4  5  1  6
  6  7  2  0
  9  8  1  0
 10  9  1  0
 11 10  1  0
 12 11  1  6
 13  6  1  0
 13 12  1  0
 14 12  1  0
 14 15  2  0
 16 14  1  0
 17 16  1  0
 17 25  1  0
 17 18  1  1
 19 24  2  0
 19 18  1  0
 20 19  1  0
 21 22  1  0
 21 20  2  0
 22 23  2  0
 23 24  1  0
 25 27  2  0
 25 26  1  0
M  END
$$$$
