TMF.pdb
     RDKit          3D

 27 27  0  0  1  0  0  0  0  0999 V2000
    7.2753  -15.3168   17.8759 C   0  0  0  0  0  0  0  0  0  0  0  0
    7.8816  -15.2238   19.2609 C   0  0  1  0  0  0  0  0  0  0  0  0
    9.2405  -15.4682   19.2496 O   0  0  0  0  0  0  0  0  0  0  0  0
    7.5486  -13.8630   19.8785 C   0  0  2  0  0  0  0  0  0  0  0  0
    7.9424  -12.8685   18.9385 N   0  0  0  0  0  0  0  0  0  0  0  0
    8.1971  -13.7327   21.2163 C   0  0  0  0  0  0  0  0  0  0  0  0
    9.3562  -13.2936   21.2753 O   0  0  0  0  0  0  0  0  0  0  0  0
    7.1085  -11.6183   27.4068 C   0  0  0  0  0  0  0  0  0  0  0  0
    5.7643  -11.9485   26.2682 S   0  0  0  0  0  0  0  0  0  0  0  0
    6.3853  -12.5134   24.6414 C   0  0  0  0  0  0  0  0  0  0  0  0
    6.9572  -13.8841   24.7925 C   0  0  0  0  0  0  0  0  0  0  0  0
    8.0082  -14.1964   23.7179 C   0  0  2  0  0  0  0  0  0  0  0  0
    7.5217  -14.0963   22.3983 N   0  0  0  0  0  0  0  0  0  0  0  0
    8.7346  -15.3993   24.0929 C   0  0  0  0  0  0  0  0  0  0  0  0
    8.3987  -16.4890   23.5614 O   0  0  0  0  0  0  0  0  0  0  0  0
    9.8070  -15.4526   25.0212 N   0  0  0  0  0  0  0  0  0  0  0  0
   10.6524  -16.6472   25.1935 C   0  0  1  0  0  0  0  0  0  0  0  0
   11.8274  -16.3460   26.0520 C   0  0  0  0  0  0  0  0  0  0  0  0
   11.3872  -15.8230   27.3609 C   0  0  0  0  0  0  0  0  0  0  0  0
   11.3756  -16.6004   28.5113 C   0  0  0  0  0  0  0  0  0  0  0  0
   10.9639  -16.0804   29.7162 C   0  0  0  0  0  0  0  0  0  0  0  0
   10.5449  -14.7778   29.8513 C   0  0  0  0  0  0  0  0  0  0  0  0
   10.5508  -13.9979   28.7233 C   0  0  0  0  0  0  0  0  0  0  0  0
   10.9592  -14.4994   27.5088 C   0  0  0  0  0  0  0  0  0  0  0  0
    9.8133  -17.7003   25.7552 C   0  0  0  0  0  0  0  0  0  0  0  0
   10.2762  -18.9868   25.9219 O   0  0  0  0  0  0  0  0  0  0  0  0
    8.6331  -17.4609   26.1030 O   0  0  0  0  0  0  0  0  0  0  0  0
  2  1  1  6
  2  4  1  0
  3  2  1  0
  4  6  1  0
  4  5  1  6
  6  7  2  0
  9  8  1  0
 10  9  1  0
 11 10  1  0
 12 11  1  1
 13  6  1  0
 13 12  1  0
 14 12  1  0
 14 15  2  0
 16 14  1  0
 17 16  1  0
 17 25  1  0
 17 18  1  1
 19 24  2  0
 19 18  1  0
 20 19  1  0
 21 22  1  0
 21 20  2  0
 22 23  2  0
 23 24  1  0
 25 27  2  0
 25 26  1  0
M  END
$$$$
