TMF.pdb
     RDKit          3D

 27 27  0  0  1  0  0  0  0  0999 V2000
    7.9742  -20.6163   18.8410 C   0  0  0  0  0  0  0  0  0  0  0  0
    8.5946  -19.2695   19.1501 C   0  0  1  0  0  0  0  0  0  0  0  0
    7.8673  -18.2274   18.6101 O   0  0  0  0  0  0  0  0  0  0  0  0
    8.7740  -19.1203   20.6633 C   0  0  2  0  0  0  0  0  0  0  0  0
    7.4866  -19.2651   21.2543 N   0  0  0  0  0  0  0  0  0  0  0  0
    9.4499  -17.8269   20.9760 C   0  0  0  0  0  0  0  0  0  0  0  0
   10.5885  -17.6266   20.5253 O   0  0  0  0  0  0  0  0  0  0  0  0
    8.1240  -11.8659   19.8688 C   0  0  0  0  0  0  0  0  0  0  0  0
    6.8787  -13.1342   20.0979 S   0  0  0  0  0  0  0  0  0  0  0  0
    7.6151  -14.6978   20.7010 C   0  0  0  0  0  0  0  0  0  0  0  0
    8.5865  -14.3851   21.7907 C   0  0  0  0  0  0  0  0  0  0  0  0
    9.3392  -15.6330   22.2733 C   0  0  2  0  0  0  0  0  0  0  0  0
    8.8226  -16.8427   21.7654 N   0  0  0  0  0  0  0  0  0  0  0  0
    9.5671  -15.5312   23.7062 C   0  0  0  0  0  0  0  0  0  0  0  0
   10.3956  -14.6794   24.1193 O   0  0  0  0  0  0  0  0  0  0  0  0
    8.9261  -16.3216   24.6956 N   0  0  0  0  0  0  0  0  0  0  0  0
    9.2953  -16.2665   26.1211 C   0  0  1  0  0  0  0  0  0  0  0  0
    8.1189  -15.9210   26.9607 C   0  0  0  0  0  0  0  0  0  0  0  0
    7.6389  -14.5620   26.6389 C   0  0  0  0  0  0  0  0  0  0  0  0
    6.4635  -14.3308   25.9369 C   0  0  0  0  0  0  0  0  0  0  0  0
    6.0424  -13.0516   25.6577 C   0  0  0  0  0  0  0  0  0  0  0  0
    6.7508  -11.9409   26.0517 C   0  0  0  0  0  0  0  0  0  0  0  0
    7.9141  -12.1538   26.7459 C   0  0  0  0  0  0  0  0  0  0  0  0
    8.3522  -13.4258   27.0351 C   0  0  0  0  0  0  0  0  0  0  0  0
    9.8662  -17.5613   26.4761 C   0  0  0  0  0  0  0  0  0  0  0  0
    9.9410  -18.5955   25.5694 O   0  0  0  0  0  0  0  0  0  0  0  0
   10.3070  -17.7714   27.6305 O   0  0  0  0  0  0  0  0  0  0  0  0
  2  1  1  1
  2  4  1  0
  3  2  1  0
  4  6  1  0
  4  5  1  1
  6  7  2  0
  9  8  1  0
 10  9  1  0
 11 10  1  0
 12 11  1  1
 13  6  1  0
 13 12  1  0
 14 12  1  0
 14 15  2  0
 16 14  1  0
 17 16  1  0
 17 25  1  0
 17 18  1  1
 19 24  2  0
 19 18  1  0
 20 19  1  0
 21 22  1  0
 21 20  2  0
 22 23  2  0
 23 24  1  0
 25 27  2  0
 25 26  1  0
M  END
$$$$
