TMF.pdb
     RDKit          3D

 27 27  0  0  1  0  0  0  0  0999 V2000
    9.0321  -18.8099   18.1787 C   0  0  0  0  0  0  0  0  0  0  0  0
    9.3011  -18.2723   19.5689 C   0  0  1  0  0  0  0  0  0  0  0  0
   10.3460  -18.9308   20.1863 O   0  0  0  0  0  0  0  0  0  0  0  0
    9.5362  -16.7610   19.5001 C   0  0  2  0  0  0  0  0  0  0  0  0
   10.6063  -16.5444   18.5860 N   0  0  0  0  0  0  0  0  0  0  0  0
    9.7787  -16.2153   20.8678 C   0  0  0  0  0  0  0  0  0  0  0  0
   10.9233  -16.2852   21.3419 O   0  0  0  0  0  0  0  0  0  0  0  0
    6.0780  -12.1811   26.7085 C   0  0  0  0  0  0  0  0  0  0  0  0
    5.9764  -13.0418   25.1398 S   0  0  0  0  0  0  0  0  0  0  0  0
    7.5226  -13.9494   24.7701 C   0  0  0  0  0  0  0  0  0  0  0  0
    7.4307  -14.5185   23.3930 C   0  0  0  0  0  0  0  0  0  0  0  0
    8.7235  -15.2312   22.9719 C   0  0  2  0  0  0  0  0  0  0  0  0
    8.7407  -15.6294   21.6194 N   0  0  0  0  0  0  0  0  0  0  0  0
    9.0797  -16.2149   23.9822 C   0  0  0  0  0  0  0  0  0  0  0  0
    8.4947  -17.3283   23.9631 O   0  0  0  0  0  0  0  0  0  0  0  0
   10.0458  -16.0256   25.0048 N   0  0  0  0  0  0  0  0  0  0  0  0
   10.5561  -17.1327   25.8328 C   0  0  1  0  0  0  0  0  0  0  0  0
   11.7213  -16.6944   26.6444 C   0  0  0  0  0  0  0  0  0  0  0  0
   11.3134  -15.6537   27.6094 C   0  0  0  0  0  0  0  0  0  0  0  0
   11.1847  -15.9039   28.9690 C   0  0  0  0  0  0  0  0  0  0  0  0
   10.8072  -14.9101   29.8418 C   0  0  0  0  0  0  0  0  0  0  0  0
   10.5384  -13.6276   29.4254 C   0  0  0  0  0  0  0  0  0  0  0  0
   10.6613  -13.3657   28.0849 C   0  0  0  0  0  0  0  0  0  0  0  0
   11.0378  -14.3461   27.1959 C   0  0  0  0  0  0  0  0  0  0  0  0
    9.4520  -17.6050   26.6614 C   0  0  0  0  0  0  0  0  0  0  0  0
    9.5673  -18.7238   27.4564 O   0  0  0  0  0  0  0  0  0  0  0  0
    8.3544  -16.9998   26.6704 O   0  0  0  0  0  0  0  0  0  0  0  0
  2  1  1  6
  2  4  1  0
  3  2  1  0
  4  6  1  0
  4  5  1  6
  6  7  2  0
  9  8  1  0
 10  9  1  0
 11 10  1  0
 12 11  1  1
 13  6  1  0
 13 12  1  0
 14 12  1  0
 14 15  2  0
 16 14  1  0
 17 16  1  0
 17 25  1  0
 17 18  1  1
 19 24  2  0
 19 18  1  0
 20 19  1  0
 21 22  1  0
 21 20  2  0
 22 23  2  0
 23 24  1  0
 25 27  2  0
 25 26  1  0
M  END
$$$$
