TMF.pdb
     RDKit          3D

 27 27  0  0  1  0  0  0  0  0999 V2000
    8.3269  -12.9437   16.8679 C   0  0  0  0  0  0  0  0  0  0  0  0
    7.6861  -13.3095   18.1908 C   0  0  1  0  0  0  0  0  0  0  0  0
    6.4154  -13.8240   18.0267 O   0  0  0  0  0  0  0  0  0  0  0  0
    8.5994  -14.2699   18.9573 C   0  0  2  0  0  0  0  0  0  0  0  0
    8.7245  -15.4487   18.1683 N   0  0  0  0  0  0  0  0  0  0  0  0
    8.0624  -14.5052   20.3297 C   0  0  0  0  0  0  0  0  0  0  0  0
    8.1224  -13.5832   21.1580 O   0  0  0  0  0  0  0  0  0  0  0  0
    3.2347  -18.8603   22.1181 C   0  0  0  0  0  0  0  0  0  0  0  0
    3.6962  -18.3366   20.4674 S   0  0  0  0  0  0  0  0  0  0  0  0
    4.9904  -17.0427   20.5102 C   0  0  0  0  0  0  0  0  0  0  0  0
    5.8257  -17.2358   21.7324 C   0  0  0  0  0  0  0  0  0  0  0  0
    6.8741  -16.1269   21.9002 C   0  0  2  0  0  0  0  0  0  0  0  0
    7.4958  -15.7426   20.6944 N   0  0  0  0  0  0  0  0  0  0  0  0
    7.7208  -16.4364   23.0415 C   0  0  0  0  0  0  0  0  0  0  0  0
    8.6502  -17.2699   22.8861 O   0  0  0  0  0  0  0  0  0  0  0  0
    7.5885  -15.8710   24.3367 N   0  0  0  0  0  0  0  0  0  0  0  0
    8.5786  -16.0897   25.4059 C   0  0  1  0  0  0  0  0  0  0  0  0
    9.2610  -14.8192   25.7646 C   0  0  0  0  0  0  0  0  0  0  0  0
    8.2684  -13.7537   26.0091 C   0  0  0  0  0  0  0  0  0  0  0  0
    7.8040  -13.4416   27.2799 C   0  0  0  0  0  0  0  0  0  0  0  0
    6.8821  -12.4393   27.4733 C   0  0  0  0  0  0  0  0  0  0  0  0
    6.3725  -11.6972   26.4340 C   0  0  0  0  0  0  0  0  0  0  0  0
    6.8220  -11.9944   25.1729 C   0  0  0  0  0  0  0  0  0  0  0  0
    7.7439  -12.9931   24.9587 C   0  0  0  0  0  0  0  0  0  0  0  0
    7.8752  -16.6784   26.5405 C   0  0  0  0  0  0  0  0  0  0  0  0
    8.5473  -17.1537   27.6448 O   0  0  0  0  0  0  0  0  0  0  0  0
    6.6253  -16.7713   26.5401 O   0  0  0  0  0  0  0  0  0  0  0  0
  2  1  1  6
  2  4  1  0
  3  2  1  0
  4  6  1  0
  4  5  1  6
  6  7  2  0
  9  8  1  0
 10  9  1  0
 11 10  1  0
 12 11  1  6
 13  6  1  0
 13 12  1  0
 14 12  1  0
 14 15  2  0
 16 14  1  0
 17 16  1  0
 17 25  1  0
 17 18  1  1
 19 24  2  0
 19 18  1  0
 20 19  1  0
 21 22  1  0
 21 20  2  0
 22 23  2  0
 23 24  1  0
 25 27  2  0
 25 26  1  0
M  END
$$$$
