TMF.pdb
     RDKit          3D

 27 27  0  0  1  0  0  0  0  0999 V2000
    6.9599  -16.2228   19.1996 C   0  0  0  0  0  0  0  0  0  0  0  0
    8.1251  -17.1117   18.8166 C   0  0  1  0  0  0  0  0  0  0  0  0
    9.1027  -16.4183   18.1311 O   0  0  0  0  0  0  0  0  0  0  0  0
    8.6798  -17.8006   20.0663 C   0  0  2  0  0  0  0  0  0  0  0  0
    7.6279  -18.5912   20.6108 N   0  0  0  0  0  0  0  0  0  0  0  0
    9.2350  -16.7860   21.0094 C   0  0  0  0  0  0  0  0  0  0  0  0
   10.4102  -16.4162   20.8610 O   0  0  0  0  0  0  0  0  0  0  0  0
    6.7973  -11.4301   26.3673 C   0  0  0  0  0  0  0  0  0  0  0  0
    6.4583  -12.9349   25.4548 S   0  0  0  0  0  0  0  0  0  0  0  0
    7.9839  -13.6372   24.7265 C   0  0  0  0  0  0  0  0  0  0  0  0
    7.6176  -14.8058   23.8728 C   0  0  0  0  0  0  0  0  0  0  0  0
    8.8101  -15.3261   23.0581 C   0  0  2  0  0  0  0  0  0  0  0  0
    8.4550  -16.2485   22.0524 N   0  0  0  0  0  0  0  0  0  0  0  0
    9.8917  -15.6800   23.9639 C   0  0  0  0  0  0  0  0  0  0  0  0
   11.0000  -15.1015   23.8242 O   0  0  0  0  0  0  0  0  0  0  0  0
    9.8049  -16.6365   25.0089 N   0  0  0  0  0  0  0  0  0  0  0  0
   10.9924  -17.1805   25.6911 C   0  0  1  0  0  0  0  0  0  0  0  0
   11.6612  -16.1338   26.5069 C   0  0  0  0  0  0  0  0  0  0  0  0
   10.7052  -15.5362   27.4605 C   0  0  0  0  0  0  0  0  0  0  0  0
    9.3644  -15.8948   27.4989 C   0  0  0  0  0  0  0  0  0  0  0  0
    8.5012  -15.3217   28.4035 C   0  0  0  0  0  0  0  0  0  0  0  0
    8.9091  -14.3726   29.3109 C   0  0  0  0  0  0  0  0  0  0  0  0
   10.2309  -14.0082   29.2845 C   0  0  0  0  0  0  0  0  0  0  0  0
   11.1102  -14.5699   28.3874 C   0  0  0  0  0  0  0  0  0  0  0  0
   10.5531  -18.3135   26.4986 C   0  0  0  0  0  0  0  0  0  0  0  0
    9.2390  -18.7257   26.5179 O   0  0  0  0  0  0  0  0  0  0  0  0
   11.3688  -18.9485   27.2074 O   0  0  0  0  0  0  0  0  0  0  0  0
  2  1  1  1
  2  4  1  0
  3  2  1  0
  4  6  1  0
  4  5  1  1
  6  7  2  0
  9  8  1  0
 10  9  1  0
 11 10  1  0
 12 11  1  1
 13  6  1  0
 13 12  1  0
 14 12  1  0
 14 15  2  0
 16 14  1  0
 17 16  1  0
 17 25  1  0
 17 18  1  1
 19 24  2  0
 19 18  1  0
 20 19  1  0
 21 22  1  0
 21 20  2  0
 22 23  2  0
 23 24  1  0
 25 27  2  0
 25 26  1  0
M  END
$$$$
