TMF.pdb
     RDKit          3D

 27 27  0  0  1  0  0  0  0  0999 V2000
   12.7680  -17.6163   18.8961 C   0  0  0  0  0  0  0  0  0  0  0  0
   11.3060  -17.8756   18.5965 C   0  0  1  0  0  0  0  0  0  0  0  0
   11.1401  -18.8060   17.5898 O   0  0  0  0  0  0  0  0  0  0  0  0
   10.5818  -18.2855   19.8816 C   0  0  2  0  0  0  0  0  0  0  0  0
    9.2962  -18.7667   19.5029 N   0  0  0  0  0  0  0  0  0  0  0  0
   10.5503  -17.1428   20.8411 C   0  0  0  0  0  0  0  0  0  0  0  0
   11.6265  -16.6735   21.2428 O   0  0  0  0  0  0  0  0  0  0  0  0
    7.5739  -11.4513   20.1831 C   0  0  0  0  0  0  0  0  0  0  0  0
    6.9516  -13.0669   19.7201 S   0  0  0  0  0  0  0  0  0  0  0  0
    8.1034  -14.3991   20.2200 C   0  0  0  0  0  0  0  0  0  0  0  0
    8.1287  -14.4812   21.7104 C   0  0  0  0  0  0  0  0  0  0  0  0
    9.1005  -15.5566   22.2162 C   0  0  2  0  0  0  0  0  0  0  0  0
    9.3325  -16.5959   21.2919 N   0  0  0  0  0  0  0  0  0  0  0  0
    8.7493  -15.9166   23.5809 C   0  0  0  0  0  0  0  0  0  0  0  0
    7.7700  -16.6853   23.7618 O   0  0  0  0  0  0  0  0  0  0  0  0
    9.4258  -15.4695   24.7458 N   0  0  0  0  0  0  0  0  0  0  0  0
    9.0171  -15.8651   26.1052 C   0  0  1  0  0  0  0  0  0  0  0  0
    7.5723  -15.5948   26.3243 C   0  0  0  0  0  0  0  0  0  0  0  0
    7.3314  -14.1418   26.4304 C   0  0  0  0  0  0  0  0  0  0  0  0
    8.2966  -13.2552   26.8889 C   0  0  0  0  0  0  0  0  0  0  0  0
    8.0409  -11.9063   26.9708 C   0  0  0  0  0  0  0  0  0  0  0  0
    6.8308  -11.3631   26.6088 C   0  0  0  0  0  0  0  0  0  0  0  0
    5.8675  -12.2267   26.1542 C   0  0  0  0  0  0  0  0  0  0  0  0
    6.1039  -13.5793   26.0647 C   0  0  0  0  0  0  0  0  0  0  0  0
    9.3459  -17.2771   26.2680 C   0  0  0  0  0  0  0  0  0  0  0  0
    9.9153  -18.0123   25.2519 O   0  0  0  0  0  0  0  0  0  0  0  0
    9.1140  -17.8676   27.3490 O   0  0  0  0  0  0  0  0  0  0  0  0
  2  1  1  1
  2  4  1  0
  3  2  1  0
  4  6  1  0
  4  5  1  6
  6  7  2  0
  9  8  1  0
 10  9  1  0
 11 10  1  0
 12 11  1  6
 13  6  1  0
 13 12  1  0
 14 12  1  0
 14 15  2  0
 16 14  1  0
 17 16  1  0
 17 25  1  0
 17 18  1  6
 19 24  2  0
 19 18  1  0
 20 19  1  0
 21 22  1  0
 21 20  2  0
 22 23  2  0
 23 24  1  0
 25 27  2  0
 25 26  1  0
M  END
$$$$
