TMF.pdb
     RDKit          3D

 27 27  0  0  1  0  0  0  0  0999 V2000
    8.3252  -18.8139   18.3522 C   0  0  0  0  0  0  0  0  0  0  0  0
    8.8075  -18.2910   19.6895 C   0  0  1  0  0  0  0  0  0  0  0  0
    9.8934  -19.0006   20.1626 O   0  0  0  0  0  0  0  0  0  0  0  0
    9.1045  -16.7931   19.5800 C   0  0  2  0  0  0  0  0  0  0  0  0
   10.0948  -16.6350   18.5689 N   0  0  0  0  0  0  0  0  0  0  0  0
    9.4968  -16.2477   20.9126 C   0  0  0  0  0  0  0  0  0  0  0  0
   10.6990  -16.2362   21.2202 O   0  0  0  0  0  0  0  0  0  0  0  0
    6.4322  -12.3600   27.2044 C   0  0  0  0  0  0  0  0  0  0  0  0
    6.1740  -13.1865   25.6353 S   0  0  0  0  0  0  0  0  0  0  0  0
    7.6795  -14.0716   25.0865 C   0  0  0  0  0  0  0  0  0  0  0  0
    7.4394  -14.6337   23.7244 C   0  0  0  0  0  0  0  0  0  0  0  0
    8.6957  -15.2941   23.1391 C   0  0  2  0  0  0  0  0  0  0  0  0
    8.5351  -15.7522   21.8153 N   0  0  0  0  0  0  0  0  0  0  0  0
    9.2571  -16.2099   24.1197 C   0  0  0  0  0  0  0  0  0  0  0  0
    8.7852  -17.3741   24.1872 O   0  0  0  0  0  0  0  0  0  0  0  0
   10.3081  -15.9002   25.0220 N   0  0  0  0  0  0  0  0  0  0  0  0
   11.0780  -16.9360   25.7332 C   0  0  1  0  0  0  0  0  0  0  0  0
   12.0939  -16.3216   26.6270 C   0  0  0  0  0  0  0  0  0  0  0  0
   11.4468  -15.4055   27.5875 C   0  0  0  0  0  0  0  0  0  0  0  0
   11.1655  -15.7718   28.8970 C   0  0  0  0  0  0  0  0  0  0  0  0
   10.5660  -14.8920   29.7678 C   0  0  0  0  0  0  0  0  0  0  0  0
   10.2141  -13.6152   29.3984 C   0  0  0  0  0  0  0  0  0  0  0  0
   10.4856  -13.2394   28.1078 C   0  0  0  0  0  0  0  0  0  0  0  0
   11.0850  -14.1047   27.2216 C   0  0  0  0  0  0  0  0  0  0  0  0
   10.1258  -17.7638   26.4659 C   0  0  0  0  0  0  0  0  0  0  0  0
    8.7827  -17.4616   26.5085 O   0  0  0  0  0  0  0  0  0  0  0  0
   10.5091  -18.7832   27.0863 O   0  0  0  0  0  0  0  0  0  0  0  0
  2  1  1  6
  2  4  1  0
  3  2  1  0
  4  6  1  0
  4  5  1  6
  6  7  2  0
  9  8  1  0
 10  9  1  0
 11 10  1  0
 12 11  1  1
 13  6  1  0
 13 12  1  0
 14 12  1  0
 14 15  2  0
 16 14  1  0
 17 16  1  0
 17 25  1  0
 17 18  1  1
 19 24  2  0
 19 18  1  0
 20 19  1  0
 21 22  1  0
 21 20  2  0
 22 23  2  0
 23 24  1  0
 25 27  2  0
 25 26  1  0
M  END
$$$$
