HAN.pdb
     RDKit          3D

 24 24  0  0  1  0  0  0  0  0999 V2000
    9.4946  -18.8090   15.7415 N   0  0  0  0  0  0  0  0  0  0  0  0
   10.3500  -17.7548   16.2744 C   0  0  1  0  0  0  0  0  0  0  0  0
    9.5007  -16.5070   16.3687 C   0  0  0  0  0  0  0  0  0  0  0  0
    9.2746  -15.9645   14.9977 C   0  0  0  0  0  0  0  0  0  0  0  0
    9.8075  -16.3937   13.7985 C   0  0  0  0  0  0  0  0  0  0  0  0
    9.3549  -15.6388   12.7800 N   0  0  0  0  0  0  0  0  0  0  0  0
    8.5338  -14.7297   13.3350 C   0  0  0  0  0  0  0  0  0  0  0  0
    8.4739  -14.9105   14.6647 N   0  0  0  0  0  0  0  0  0  0  0  0
   10.8560  -18.1125   17.6253 C   0  0  0  0  0  0  0  0  0  0  0  0
   10.0459  -18.4378   18.5291 O   0  0  0  0  0  0  0  0  0  0  0  0
   13.9522  -19.4425   19.0899 C   0  0  0  0  0  0  0  0  0  0  0  0
   12.7533  -18.5300   19.2293 C   0  0  2  0  0  0  0  0  0  0  0  0
   12.2329  -18.1077   17.9606 N   0  0  0  0  0  0  0  0  0  0  0  0
   13.0398  -17.3800   20.1310 C   0  0  0  0  0  0  0  0  0  0  0  0
   13.3410  -16.2949   19.6181 O   0  0  0  0  0  0  0  0  0  0  0  0
   10.1595  -17.3682   24.0484 N   0  0  0  0  0  0  0  0  0  0  0  0
   11.0612  -16.3727   23.6066 C   0  0  0  0  0  0  0  0  0  0  0  0
   10.5790  -15.3367   23.0839 O   0  0  0  0  0  0  0  0  0  0  0  0
   12.5058  -16.5085   23.7364 C   0  0  0  0  0  0  0  0  0  0  0  0
   13.2662  -16.4430   22.4572 C   0  0  2  0  0  0  0  0  0  0  0  0
   12.9725  -17.5119   21.5449 N   0  0  0  0  0  0  0  0  0  0  0  0
   14.7355  -16.2734   22.6656 C   0  0  0  0  0  0  0  0  0  0  0  0
   15.2866  -15.0919   23.1679 O   0  0  0  0  0  0  0  0  0  0  0  0
   15.5562  -17.1872   22.3994 O   0  0  0  0  0  0  0  0  0  0  0  0
  2  1  1  1
  3  2  1  0
  4  5  2  0
  4  3  1  0
  6  5  1  0
  7  8  2  0
  7  6  1  0
  8  4  1  0
  9  2  1  0
 10  9  2  0
 12 11  1  6
 12 14  1  0
 12 13  1  0
 13  9  1  0
 14 21  1  0
 15 14  2  0
 17 18  2  0
 17 16  1  0
 19 17  1  0
 20 19  1  1
 20 22  1  0
 21 20  1  0
 22 24  2  0
 22 23  1  0
M  END
$$$$
