HAN.pdb
     RDKit          3D

 24 24  0  0  1  0  0  0  0  0999 V2000
    8.6552  -16.7914   18.2370 N   0  0  0  0  0  0  0  0  0  0  0  0
    9.9568  -16.3056   18.6807 C   0  0  1  0  0  0  0  0  0  0  0  0
   10.3659  -15.2101   17.7217 C   0  0  0  0  0  0  0  0  0  0  0  0
    9.1466  -14.6502   17.0698 C   0  0  0  0  0  0  0  0  0  0  0  0
    7.8254  -15.0049   17.2563 C   0  0  0  0  0  0  0  0  0  0  0  0
    7.0188  -14.2600   16.4774 N   0  0  0  0  0  0  0  0  0  0  0  0
    7.8306  -13.4320   15.7963 C   0  0  0  0  0  0  0  0  0  0  0  0
    9.1105  -13.6523   16.1393 N   0  0  0  0  0  0  0  0  0  0  0  0
    9.8769  -15.7534   20.0582 C   0  0  0  0  0  0  0  0  0  0  0  0
   10.9324  -15.5067   20.6937 O   0  0  0  0  0  0  0  0  0  0  0  0
    7.2060  -14.5164   22.4431 C   0  0  0  0  0  0  0  0  0  0  0  0
    8.5335  -15.1585   22.1048 C   0  0  2  0  0  0  0  0  0  0  0  0
    8.6489  -15.4827   20.7119 N   0  0  0  0  0  0  0  0  0  0  0  0
    8.8166  -16.3295   22.9804 C   0  0  0  0  0  0  0  0  0  0  0  0
    8.6443  -17.4632   22.5154 O   0  0  0  0  0  0  0  0  0  0  0  0
   12.1401  -18.5331   22.0903 N   0  0  0  0  0  0  0  0  0  0  0  0
   11.6810  -18.4056   23.4215 C   0  0  0  0  0  0  0  0  0  0  0  0
   11.4025  -19.4588   24.0479 O   0  0  0  0  0  0  0  0  0  0  0  0
   11.5237  -17.1145   24.0776 C   0  0  0  0  0  0  0  0  0  0  0  0
   10.2981  -16.9726   24.9122 C   0  0  2  0  0  0  0  0  0  0  0  0
    9.2731  -16.1629   24.3163 N   0  0  0  0  0  0  0  0  0  0  0  0
   10.5982  -16.5527   26.3139 C   0  0  0  0  0  0  0  0  0  0  0  0
   11.0474  -15.2675   26.6280 O   0  0  0  0  0  0  0  0  0  0  0  0
   10.4621  -17.3353   27.2878 O   0  0  0  0  0  0  0  0  0  0  0  0
  2  1  1  6
  3  2  1  0
  4  5  2  0
  4  3  1  0
  6  5  1  0
  7  8  2  0
  7  6  1  0
  8  4  1  0
  9  2  1  0
 10  9  2  0
 12 11  1  6
 12 14  1  0
 12 13  1  0
 13  9  1  0
 14 21  1  0
 15 14  2  0
 17 18  2  0
 17 16  1  0
 19 17  1  0
 20 19  1  6
 20 22  1  0
 21 20  1  0
 22 24  2  0
 22 23  1  0
M  END
$$$$
