HAN.pdb
     RDKit          3D

 24 24  0  0  1  0  0  0  0  0999 V2000
   10.1705  -15.1107   17.9949 N   0  0  0  0  0  0  0  0  0  0  0  0
    9.7358  -14.9979   19.3825 C   0  0  1  0  0  0  0  0  0  0  0  0
    8.2383  -15.2094   19.3911 C   0  0  0  0  0  0  0  0  0  0  0  0
    7.6145  -14.3322   18.3584 C   0  0  0  0  0  0  0  0  0  0  0  0
    7.2835  -12.9946   18.4446 C   0  0  0  0  0  0  0  0  0  0  0  0
    6.7366  -12.5650   17.2920 N   0  0  0  0  0  0  0  0  0  0  0  0
    6.7212  -13.6326   16.4741 C   0  0  0  0  0  0  0  0  0  0  0  0
    7.2441  -14.7013   17.0976 N   0  0  0  0  0  0  0  0  0  0  0  0
   10.3866  -16.0314   20.2293 C   0  0  0  0  0  0  0  0  0  0  0  0
   10.0776  -16.1286   21.4433 O   0  0  0  0  0  0  0  0  0  0  0  0
   12.1946  -19.2370   19.8659 C   0  0  0  0  0  0  0  0  0  0  0  0
   12.0549  -17.8925   20.5457 C   0  0  2  0  0  0  0  0  0  0  0  0
   11.3594  -16.9353   19.7341 N   0  0  0  0  0  0  0  0  0  0  0  0
   13.3690  -17.3779   21.0212 C   0  0  0  0  0  0  0  0  0  0  0  0
   14.1704  -18.1834   21.5113 O   0  0  0  0  0  0  0  0  0  0  0  0
   15.1625  -15.4172   18.4074 N   0  0  0  0  0  0  0  0  0  0  0  0
   15.3493  -14.2216   19.1388 C   0  0  0  0  0  0  0  0  0  0  0  0
   15.5474  -13.1638   18.4902 O   0  0  0  0  0  0  0  0  0  0  0  0
   15.3196  -14.1790   20.5946 C   0  0  0  0  0  0  0  0  0  0  0  0
   14.9971  -15.4719   21.2603 C   0  0  2  0  0  0  0  0  0  0  0  0
   13.7062  -16.0006   20.9204 N   0  0  0  0  0  0  0  0  0  0  0  0
   15.2136  -15.4318   22.7376 C   0  0  0  0  0  0  0  0  0  0  0  0
   16.4722  -15.2086   23.3016 O   0  0  0  0  0  0  0  0  0  0  0  0
   14.2725  -15.5972   23.5539 O   0  0  0  0  0  0  0  0  0  0  0  0
  2  1  1  6
  3  2  1  0
  4  5  2  0
  4  3  1  0
  6  5  1  0
  7  8  2  0
  7  6  1  0
  8  4  1  0
  9  2  1  0
 10  9  2  0
 12 11  1  6
 12 14  1  0
 12 13  1  0
 13  9  1  0
 14 21  1  0
 15 14  2  0
 17 18  2  0
 17 16  1  0
 19 17  1  0
 20 19  1  1
 20 22  1  0
 21 20  1  0
 22 24  2  0
 22 23  1  0
M  END
$$$$
