HAN.pdb
     RDKit          3D

 24 24  0  0  1  0  0  0  0  0999 V2000
   10.1741  -16.1903   17.0616 N   0  0  0  0  0  0  0  0  0  0  0  0
   10.8597  -15.0864   17.7238 C   0  0  1  0  0  0  0  0  0  0  0  0
   10.0208  -14.7061   18.9234 C   0  0  0  0  0  0  0  0  0  0  0  0
    8.8186  -13.9540   18.4608 C   0  0  0  0  0  0  0  0  0  0  0  0
    8.4547  -13.6107   17.1739 C   0  0  0  0  0  0  0  0  0  0  0  0
    7.2936  -12.9296   17.1740 N   0  0  0  0  0  0  0  0  0  0  0  0
    6.9212  -12.8413   18.4633 C   0  0  0  0  0  0  0  0  0  0  0  0
    7.8245  -13.4504   19.2490 N   0  0  0  0  0  0  0  0  0  0  0  0
   12.2142  -15.4970   18.1770 C   0  0  0  0  0  0  0  0  0  0  0  0
   12.4797  -16.7161   18.3256 O   0  0  0  0  0  0  0  0  0  0  0  0
   15.5192  -13.7791   18.9402 C   0  0  0  0  0  0  0  0  0  0  0  0
   14.5445  -14.9363   18.9532 C   0  0  2  0  0  0  0  0  0  0  0  0
   13.2487  -14.5699   18.4579 N   0  0  0  0  0  0  0  0  0  0  0  0
   14.4731  -15.5796   20.2944 C   0  0  0  0  0  0  0  0  0  0  0  0
   15.5133  -16.0453   20.7763 O   0  0  0  0  0  0  0  0  0  0  0  0
   12.8351  -17.0096   25.0628 N   0  0  0  0  0  0  0  0  0  0  0  0
   11.8466  -16.1948   24.4642 C   0  0  0  0  0  0  0  0  0  0  0  0
   10.8715  -15.8412   25.1735 O   0  0  0  0  0  0  0  0  0  0  0  0
   11.9223  -15.7606   23.0758 C   0  0  0  0  0  0  0  0  0  0  0  0
   13.1417  -16.1975   22.3404 C   0  0  2  0  0  0  0  0  0  0  0  0
   13.2489  -15.6629   21.0123 N   0  0  0  0  0  0  0  0  0  0  0  0
   13.3319  -17.6789   22.3640 C   0  0  0  0  0  0  0  0  0  0  0  0
   13.2557  -18.4595   21.2078 O   0  0  0  0  0  0  0  0  0  0  0  0
   13.5711  -18.3033   23.4280 O   0  0  0  0  0  0  0  0  0  0  0  0
  2  1  1  1
  3  2  1  0
  4  5  2  0
  4  3  1  0
  6  5  1  0
  7  8  2  0
  7  6  1  0
  8  4  1  0
  9  2  1  0
 10  9  2  0
 12 11  1  1
 12 14  1  0
 12 13  1  0
 13  9  1  0
 14 21  1  0
 15 14  2  0
 17 18  2  0
 17 16  1  0
 19 17  1  0
 20 19  1  6
 20 22  1  0
 21 20  1  0
 22 24  2  0
 22 23  1  0
M  END
$$$$
