HAN.pdb
     RDKit          3D

 24 24  0  0  1  0  0  0  0  0999 V2000
    9.7697  -15.9318   18.3400 N   0  0  0  0  0  0  0  0  0  0  0  0
    9.0503  -15.3048   19.4429 C   0  0  1  0  0  0  0  0  0  0  0  0
    7.5760  -15.4166   19.1244 C   0  0  0  0  0  0  0  0  0  0  0  0
    7.2871  -14.6579   17.8730 C   0  0  0  0  0  0  0  0  0  0  0  0
    7.1352  -15.1359   16.5867 C   0  0  0  0  0  0  0  0  0  0  0  0
    6.8812  -14.1275   15.7318 N   0  0  0  0  0  0  0  0  0  0  0  0
    6.8723  -13.0087   16.4780 C   0  0  0  0  0  0  0  0  0  0  0  0
    7.1141  -13.3083   17.7649 N   0  0  0  0  0  0  0  0  0  0  0  0
    9.3337  -15.9995   20.7258 C   0  0  0  0  0  0  0  0  0  0  0  0
    8.7993  -15.5918   21.7875 O   0  0  0  0  0  0  0  0  0  0  0  0
    9.9818  -18.9510   22.4427 C   0  0  0  0  0  0  0  0  0  0  0  0
   10.6753  -17.6614   22.0620 C   0  0  2  0  0  0  0  0  0  0  0  0
   10.1930  -17.1223   20.8228 N   0  0  0  0  0  0  0  0  0  0  0  0
   12.1571  -17.8105   22.0718 C   0  0  0  0  0  0  0  0  0  0  0  0
   12.6353  -18.8773   22.4774 O   0  0  0  0  0  0  0  0  0  0  0  0
   15.5601  -15.9077   19.9676 N   0  0  0  0  0  0  0  0  0  0  0  0
   15.1779  -14.7715   20.7176 C   0  0  0  0  0  0  0  0  0  0  0  0
   15.4180  -13.6394   20.2280 O   0  0  0  0  0  0  0  0  0  0  0  0
   14.5264  -14.8710   22.0166 C   0  0  0  0  0  0  0  0  0  0  0  0
   14.0990  -16.2432   22.4081 C   0  0  2  0  0  0  0  0  0  0  0  0
   13.0104  -16.7631   21.6296 N   0  0  0  0  0  0  0  0  0  0  0  0
   13.8506  -16.3754   23.8750 C   0  0  0  0  0  0  0  0  0  0  0  0
   14.6903  -17.1164   24.7104 O   0  0  0  0  0  0  0  0  0  0  0  0
   12.8702  -15.8256   24.4372 O   0  0  0  0  0  0  0  0  0  0  0  0
  2  1  1  6
  3  2  1  0
  4  5  2  0
  4  3  1  0
  6  5  1  0
  7  8  2  0
  7  6  1  0
  8  4  1  0
  9  2  1  0
 10  9  2  0
 12 11  1  6
 12 14  1  0
 12 13  1  0
 13  9  1  0
 14 21  1  0
 15 14  2  0
 17 18  2  0
 17 16  1  0
 19 17  1  0
 20 19  1  1
 20 22  1  0
 21 20  1  0
 22 24  2  0
 22 23  1  0
M  END
$$$$
