HAN.pdb
     RDKit          3D

 24 24  0  0  1  0  0  0  0  0999 V2000
    7.9752  -17.5986   19.1212 N   0  0  0  0  0  0  0  0  0  0  0  0
    8.8279  -16.8207   20.0128 C   0  0  1  0  0  0  0  0  0  0  0  0
    8.0039  -15.6472   20.4939 C   0  0  0  0  0  0  0  0  0  0  0  0
    7.9061  -14.6374   19.4004 C   0  0  0  0  0  0  0  0  0  0  0  0
    8.4265  -14.6921   18.1228 C   0  0  0  0  0  0  0  0  0  0  0  0
    8.1177  -13.5765   17.4356 N   0  0  0  0  0  0  0  0  0  0  0  0
    7.4004  -12.8137   18.2795 C   0  0  0  0  0  0  0  0  0  0  0  0
    7.2637  -13.4346   19.4628 N   0  0  0  0  0  0  0  0  0  0  0  0
    9.2595  -17.6340   21.1795 C   0  0  0  0  0  0  0  0  0  0  0  0
    8.3999  -18.2218   21.8826 O   0  0  0  0  0  0  0  0  0  0  0  0
   12.5259  -18.8919   22.6276 C   0  0  0  0  0  0  0  0  0  0  0  0
   11.0574  -18.5346   22.6973 C   0  0  2  0  0  0  0  0  0  0  0  0
   10.6177  -17.7883   21.5533 N   0  0  0  0  0  0  0  0  0  0  0  0
   10.7174  -17.8542   23.9776 C   0  0  0  0  0  0  0  0  0  0  0  0
   11.1839  -16.7266   24.1829 O   0  0  0  0  0  0  0  0  0  0  0  0
    7.3096  -19.5449   25.6532 N   0  0  0  0  0  0  0  0  0  0  0  0
    7.1048  -18.1870   25.9900 C   0  0  0  0  0  0  0  0  0  0  0  0
    5.9212  -17.7672   26.0344 O   0  0  0  0  0  0  0  0  0  0  0  0
    8.2035  -17.2761   26.2817 C   0  0  0  0  0  0  0  0  0  0  0  0
    9.5631  -17.8809   26.2153 C   0  0  2  0  0  0  0  0  0  0  0  0
    9.8806  -18.4725   24.9462 N   0  0  0  0  0  0  0  0  0  0  0  0
    9.8384  -18.8116   27.3507 C   0  0  0  0  0  0  0  0  0  0  0  0
   10.2478  -20.1323   27.1505 O   0  0  0  0  0  0  0  0  0  0  0  0
    9.7160  -18.4550   28.5495 O   0  0  0  0  0  0  0  0  0  0  0  0
  2  1  1  6
  3  2  1  0
  4  5  2  0
  4  3  1  0
  6  5  1  0
  7  8  2  0
  7  6  1  0
  8  4  1  0
  9  2  1  0
 10  9  2  0
 12 11  1  6
 12 14  1  0
 12 13  1  0
 13  9  1  0
 14 21  1  0
 15 14  2  0
 17 18  2  0
 17 16  1  0
 19 17  1  0
 20 19  1  6
 20 22  1  0
 21 20  1  0
 22 24  2  0
 22 23  1  0
M  END
$$$$
