HAN.pdb
     RDKit          3D

 24 24  0  0  1  0  0  0  0  0999 V2000
   15.1535  -16.0793   15.0933 N   0  0  0  0  0  0  0  0  0  0  0  0
   16.3091  -16.8852   15.4702 C   0  0  1  0  0  0  0  0  0  0  0  0
   17.3648  -15.9277   15.9764 C   0  0  0  0  0  0  0  0  0  0  0  0
   17.9183  -15.1569   14.8255 C   0  0  0  0  0  0  0  0  0  0  0  0
   17.6295  -15.2821   13.4812 C   0  0  0  0  0  0  0  0  0  0  0  0
   18.3418  -14.3981   12.7578 N   0  0  0  0  0  0  0  0  0  0  0  0
   19.0831  -13.7117   13.6455 C   0  0  0  0  0  0  0  0  0  0  0  0
   18.8417  -14.1538   14.8907 N   0  0  0  0  0  0  0  0  0  0  0  0
   15.9576  -17.8485   16.5459 C   0  0  0  0  0  0  0  0  0  0  0  0
   15.1579  -17.5066   17.4528 O   0  0  0  0  0  0  0  0  0  0  0  0
   16.0859  -21.5283   17.1138 C   0  0  0  0  0  0  0  0  0  0  0  0
   16.1622  -20.1104   17.6363 C   0  0  2  0  0  0  0  0  0  0  0  0
   16.4855  -19.1622   16.6091 N   0  0  0  0  0  0  0  0  0  0  0  0
   17.0760  -20.0047   18.8074 C   0  0  0  0  0  0  0  0  0  0  0  0
   16.9552  -20.8311   19.7205 O   0  0  0  0  0  0  0  0  0  0  0  0
   21.5929  -17.6276   17.5792 N   0  0  0  0  0  0  0  0  0  0  0  0
   20.9228  -18.5275   18.4396 C   0  0  0  0  0  0  0  0  0  0  0  0
   20.9423  -19.7478   18.1402 O   0  0  0  0  0  0  0  0  0  0  0  0
   20.2232  -18.0918   19.6407 C   0  0  0  0  0  0  0  0  0  0  0  0
   18.9942  -18.8646   19.9741 C   0  0  2  0  0  0  0  0  0  0  0  0
   18.0649  -18.9865   18.8865 N   0  0  0  0  0  0  0  0  0  0  0  0
   18.3318  -18.3868   21.2247 C   0  0  0  0  0  0  0  0  0  0  0  0
   16.9832  -18.0240   21.2631 O   0  0  0  0  0  0  0  0  0  0  0  0
   18.9543  -18.2855   22.3118 O   0  0  0  0  0  0  0  0  0  0  0  0
  2  1  1  1
  3  2  1  0
  4  5  2  0
  4  3  1  0
  6  5  1  0
  7  8  2  0
  7  6  1  0
  8  4  1  0
  9  2  1  0
 10  9  2  0
 12 11  1  6
 12 14  1  0
 12 13  1  0
 13  9  1  0
 14 21  1  0
 15 14  2  0
 17 18  2  0
 17 16  1  0
 19 17  1  0
 20 19  1  6
 20 22  1  0
 21 20  1  0
 22 24  2  0
 22 23  1  0
M  END
$$$$
