HAN.pdb
     RDKit          3D

 24 24  0  0  1  0  0  0  0  0999 V2000
    6.6950  -18.5109   17.1778 N   0  0  0  0  0  0  0  0  0  0  0  0
    8.1293  -18.7679   17.1179 C   0  0  1  0  0  0  0  0  0  0  0  0
    8.7897  -17.4723   16.7025 C   0  0  0  0  0  0  0  0  0  0  0  0
    8.2979  -17.0848   15.3486 C   0  0  0  0  0  0  0  0  0  0  0  0
    7.4676  -17.7852   14.4963 C   0  0  0  0  0  0  0  0  0  0  0  0
    7.2580  -17.0925   13.3613 N   0  0  0  0  0  0  0  0  0  0  0  0
    7.9570  -15.9512   13.4947 C   0  0  0  0  0  0  0  0  0  0  0  0
    8.5869  -15.9299   14.6809 N   0  0  0  0  0  0  0  0  0  0  0  0
    8.6506  -19.1859   18.4454 C   0  0  0  0  0  0  0  0  0  0  0  0
    8.4382  -18.4669   19.4538 O   0  0  0  0  0  0  0  0  0  0  0  0
    9.6941  -22.3891   20.0135 C   0  0  0  0  0  0  0  0  0  0  0  0
    9.7760  -20.8805   19.9316 C   0  0  2  0  0  0  0  0  0  0  0  0
    9.3914  -20.3776   18.6440 N   0  0  0  0  0  0  0  0  0  0  0  0
   11.1127  -20.3789   20.3553 C   0  0  0  0  0  0  0  0  0  0  0  0
   11.8798  -19.9497   19.4843 O   0  0  0  0  0  0  0  0  0  0  0  0
   11.5771  -21.3059   24.8377 N   0  0  0  0  0  0  0  0  0  0  0  0
   12.7330  -20.5324   24.5829 C   0  0  0  0  0  0  0  0  0  0  0  0
   13.7764  -20.8103   25.2256 O   0  0  0  0  0  0  0  0  0  0  0  0
   12.7513  -19.4430   23.6160 C   0  0  0  0  0  0  0  0  0  0  0  0
   12.7618  -19.8638   22.1871 C   0  0  2  0  0  0  0  0  0  0  0  0
   11.5090  -20.3872   21.7205 N   0  0  0  0  0  0  0  0  0  0  0  0
   13.9033  -20.7696   21.8591 C   0  0  0  0  0  0  0  0  0  0  0  0
   15.2017  -20.2927   21.6622 O   0  0  0  0  0  0  0  0  0  0  0  0
   13.7559  -22.0122   21.7427 O   0  0  0  0  0  0  0  0  0  0  0  0
  2  1  1  1
  3  2  1  0
  4  5  2  0
  4  3  1  0
  6  5  1  0
  7  8  2  0
  7  6  1  0
  8  4  1  0
  9  2  1  0
 10  9  2  0
 12 11  1  6
 12 14  1  0
 12 13  1  0
 13  9  1  0
 14 21  1  0
 15 14  2  0
 17 18  2  0
 17 16  1  0
 19 17  1  0
 20 19  1  1
 20 22  1  0
 21 20  1  0
 22 24  2  0
 22 23  1  0
M  END
$$$$
