HRE.pdb
     RDKit          3D

 31 31  0  0  1  0  0  0  0  0999 V2000
   11.7715  -18.3229   17.4508 N   0  0  0  0  0  0  0  0  0  0  0  0
   10.6959  -18.5618   18.3839 C   0  0  1  0  0  0  0  0  0  0  0  0
   10.6085  -20.0326   18.6813 C   0  0  0  0  0  0  0  0  0  0  0  0
    9.7716  -20.6615   17.6296 C   0  0  0  0  0  0  0  0  0  0  0  0
    9.8699  -20.6044   16.2553 C   0  0  0  0  0  0  0  0  0  0  0  0
    8.8751  -21.3431   15.7041 N   0  0  0  0  0  0  0  0  0  0  0  0
    8.1683  -21.8524   16.7232 C   0  0  0  0  0  0  0  0  0  0  0  0
    8.7091  -21.4413   17.8865 N   0  0  0  0  0  0  0  0  0  0  0  0
   10.8966  -17.7378   19.5945 C   0  0  0  0  0  0  0  0  0  0  0  0
   12.0771  -17.5732   19.9925 O   0  0  0  0  0  0  0  0  0  0  0  0
    6.2947  -13.7787   17.6162 N   0  0  0  0  0  0  0  0  0  0  0  0
    6.7927  -13.3565   18.8813 C   0  0  0  0  0  0  0  0  0  0  0  0
    7.7038  -12.4612   18.9703 N   0  0  0  0  0  0  0  0  0  0  0  0
    6.2957  -13.9147   20.1055 N   0  0  0  0  0  0  0  0  0  0  0  0
    7.1181  -13.8202   21.2968 C   0  0  0  0  0  0  0  0  0  0  0  0
    8.4563  -14.4230   21.0189 C   0  0  0  0  0  0  0  0  0  0  0  0
    8.8944  -15.5289   21.8846 C   0  0  0  0  0  0  0  0  0  0  0  0
   10.0962  -16.3074   21.4773 C   0  0  2  0  0  0  0  0  0  0  0  0
    9.8574  -17.1338   20.3192 N   0  0  0  0  0  0  0  0  0  0  0  0
   10.8138  -17.0415   22.5258 C   0  0  0  0  0  0  0  0  0  0  0  0
   10.4843  -18.2328   22.7577 O   0  0  0  0  0  0  0  0  0  0  0  0
    8.2140  -12.1869   19.8210 N   0  0  0  0  0  0  0  0  0  0  0  0
   11.8687  -16.4848   23.2940 C   0  0  2  0  0  0  0  0  0  0  0  0
   12.6142  -17.2257   24.3121 C   0  0  0  0  0  0  0  0  0  0  0  0
   14.0872  -16.8346   24.2423 C   0  0  0  0  0  0  0  0  0  0  0  0
   14.9347  -17.4840   25.2850 C   0  0  0  0  0  0  0  0  0  0  0  0
   16.3667  -17.1311   25.2356 O   0  0  0  0  0  0  0  0  0  0  0  0
   16.8188  -16.1480   24.6398 C   0  0  0  0  0  0  0  0  0  0  0  0
   12.0534  -16.9109   25.6416 O   0  0  0  0  0  0  0  0  0  0  0  0
   11.2497  -15.9657   25.8637 O   0  0  0  0  0  0  0  0  0  0  0  0
   17.2689  -17.9528   25.8994 O   0  0  0  0  0  0  0  0  0  0  0  0
  2  1  1  6
  2  3  1  0
  3  4  1  0
  4  8  1  0
  4  5  2  0
  5  6  1  0
  7  6  1  0
  8  7  2  0
  9  2  1  0
  9 19  1  0
 10  9  2  0
 12 14  1  0
 12 11  1  0
 13 12  2  0
 15 16  1  0
 15 14  1  0
 18 17  1  1
 17 16  1  0
 18 19  1  0
 20 18  1  0
 21 20  2  0
 22 20  1  0
 23 22  1  0
 23 28  1  0
 23 24  1  6
 25 24  1  0
 26 25  1  0
 27 26  2  0
 28 31  1  0
 29 28  2  0
 30 26  1  0
M  END
$$$$
