HRE.pdb
     RDKit          3D

 31 31  0  0  1  0  0  0  0  0999 V2000
    7.7762  -17.6865   27.1299 N   0  0  0  0  0  0  0  0  0  0  0  0
    8.3048  -16.5860   26.3592 C   0  0  1  0  0  0  0  0  0  0  0  0
    9.7264  -16.3235   26.7713 C   0  0  0  0  0  0  0  0  0  0  0  0
    9.7336  -15.1257   27.6470 C   0  0  0  0  0  0  0  0  0  0  0  0
    9.4085  -13.8143   27.3714 C   0  0  0  0  0  0  0  0  0  0  0  0
    9.5690  -13.0679   28.4922 N   0  0  0  0  0  0  0  0  0  0  0  0
    9.9884  -13.9054   29.4516 C   0  0  0  0  0  0  0  0  0  0  0  0
   10.0880  -15.1484   28.9420 N   0  0  0  0  0  0  0  0  0  0  0  0
    8.1651  -16.8774   24.9169 C   0  0  0  0  0  0  0  0  0  0  0  0
    8.3232  -18.0688   24.5500 O   0  0  0  0  0  0  0  0  0  0  0  0
    6.5671  -12.3496   17.2272 N   0  0  0  0  0  0  0  0  0  0  0  0
    7.4803  -13.4067   16.9530 C   0  0  0  0  0  0  0  0  0  0  0  0
    7.9044  -13.6254   15.7647 N   0  0  0  0  0  0  0  0  0  0  0  0
    7.9623  -14.2684   17.9935 N   0  0  0  0  0  0  0  0  0  0  0  0
    7.4911  -14.0527   19.3485 C   0  0  0  0  0  0  0  0  0  0  0  0
    8.1638  -15.0236   20.2628 C   0  0  0  0  0  0  0  0  0  0  0  0
    7.6829  -15.0918   21.6515 C   0  0  0  0  0  0  0  0  0  0  0  0
    8.4221  -15.9582   22.6102 C   0  0  2  0  0  0  0  0  0  0  0  0
    7.8690  -15.9123   23.9418 N   0  0  0  0  0  0  0  0  0  0  0  0
    9.8854  -15.8508   22.6294 C   0  0  0  0  0  0  0  0  0  0  0  0
   10.4323  -15.2708   23.6020 O   0  0  0  0  0  0  0  0  0  0  0  0
    8.5554  -14.3668   15.4719 N   0  0  0  0  0  0  0  0  0  0  0  0
   10.7255  -16.3716   21.6115 C   0  0  2  0  0  0  0  0  0  0  0  0
   12.1859  -16.2856   21.6371 C   0  0  0  0  0  0  0  0  0  0  0  0
   12.7086  -16.9648   22.8993 C   0  0  0  0  0  0  0  0  0  0  0  0
   12.4064  -18.4245   22.9693 C   0  0  0  0  0  0  0  0  0  0  0  0
   12.9876  -19.1283   24.1289 O   0  0  0  0  0  0  0  0  0  0  0  0
   12.6219  -18.9609   25.2967 C   0  0  0  0  0  0  0  0  0  0  0  0
   12.7266  -16.9421   20.4297 O   0  0  0  0  0  0  0  0  0  0  0  0
   12.0236  -17.5665   19.5902 O   0  0  0  0  0  0  0  0  0  0  0  0
   14.0117  -20.0383   23.8988 O   0  0  0  0  0  0  0  0  0  0  0  0
  2  1  1  1
  2  3  1  0
  3  4  1  0
  4  8  1  0
  4  5  2  0
  5  6  1  0
  7  6  1  0
  8  7  2  0
  9  2  1  0
  9 19  1  0
 10  9  2  0
 12 14  1  0
 12 11  1  0
 13 12  2  0
 15 16  1  0
 15 14  1  0
 18 17  1  6
 17 16  1  0
 18 19  1  0
 20 18  1  0
 21 20  2  0
 22 20  1  0
 23 22  1  0
 23 28  1  0
 23 24  1  1
 25 24  1  0
 26 25  1  0
 27 26  2  0
 28 31  1  0
 29 28  2  0
 30 26  1  0
M  END
$$$$
