HRE.pdb
     RDKit          3D

 31 31  0  0  1  0  0  0  0  0999 V2000
   10.4790  -14.5243   18.1029 N   0  0  0  0  0  0  0  0  0  0  0  0
   10.5489  -13.8050   19.3528 C   0  0  1  0  0  0  0  0  0  0  0  0
    9.4543  -12.7759   19.4000 C   0  0  0  0  0  0  0  0  0  0  0  0
    8.4380  -13.1441   18.3834 C   0  0  0  0  0  0  0  0  0  0  0  0
    7.2375  -12.5468   18.0616 C   0  0  0  0  0  0  0  0  0  0  0  0
    6.6450  -13.2430   17.0600 N   0  0  0  0  0  0  0  0  0  0  0  0
    7.4673  -14.2597   16.7636 C   0  0  0  0  0  0  0  0  0  0  0  0
    8.5505  -14.2007   17.5624 N   0  0  0  0  0  0  0  0  0  0  0  0
   10.4936  -14.7604   20.4792 C   0  0  0  0  0  0  0  0  0  0  0  0
   10.5655  -14.2883   21.6415 O   0  0  0  0  0  0  0  0  0  0  0  0
    8.6126  -22.9536   20.3480 N   0  0  0  0  0  0  0  0  0  0  0  0
    9.2095  -22.9401   21.6403 C   0  0  0  0  0  0  0  0  0  0  0  0
    9.5023  -24.0289   22.2473 N   0  0  0  0  0  0  0  0  0  0  0  0
    9.5073  -21.7095   22.3145 N   0  0  0  0  0  0  0  0  0  0  0  0
    8.7244  -20.5321   21.9899 C   0  0  0  0  0  0  0  0  0  0  0  0
    9.5404  -19.3102   22.2589 C   0  0  0  0  0  0  0  0  0  0  0  0
    9.4990  -18.2335   21.2571 C   0  0  0  0  0  0  0  0  0  0  0  0
   10.3908  -17.0575   21.4512 C   0  0  2  0  0  0  0  0  0  0  0  0
   10.3668  -16.1502   20.3298 N   0  0  0  0  0  0  0  0  0  0  0  0
   11.7614  -17.3159   21.9073 C   0  0  0  0  0  0  0  0  0  0  0  0
   12.5958  -17.7625   21.0791 O   0  0  0  0  0  0  0  0  0  0  0  0
    9.9091  -24.1169   23.1886 N   0  0  0  0  0  0  0  0  0  0  0  0
   12.2051  -17.0842   23.2348 C   0  0  1  0  0  0  0  0  0  0  0  0
   13.6081  -16.8914   23.6030 C   0  0  0  0  0  0  0  0  0  0  0  0
   14.1995  -15.7642   22.7621 C   0  0  0  0  0  0  0  0  0  0  0  0
   15.6286  -15.4657   23.0713 C   0  0  0  0  0  0  0  0  0  0  0  0
   16.5747  -15.7295   21.9700 O   0  0  0  0  0  0  0  0  0  0  0  0
   17.2729  -14.8636   21.4328 C   0  0  0  0  0  0  0  0  0  0  0  0
   13.6863  -16.5654   25.0413 O   0  0  0  0  0  0  0  0  0  0  0  0
   12.7103  -16.1597   25.7280 O   0  0  0  0  0  0  0  0  0  0  0  0
   16.6922  -17.0326   21.5032 O   0  0  0  0  0  0  0  0  0  0  0  0
  2  1  1  6
  2  3  1  0
  3  4  1  0
  4  8  1  0
  4  5  2  0
  5  6  1  0
  7  6  1  0
  8  7  2  0
  9  2  1  0
  9 19  1  0
 10  9  2  0
 12 14  1  0
 12 11  1  0
 13 12  2  0
 15 16  1  0
 15 14  1  0
 18 17  1  6
 17 16  1  0
 18 19  1  0
 20 18  1  0
 21 20  2  0
 22 20  1  0
 23 22  1  0
 23 28  1  0
 23 24  1  1
 25 24  1  0
 26 25  1  0
 27 26  2  0
 28 31  1  0
 29 28  2  0
 30 26  1  0
M  END
$$$$
