HRE.pdb
     RDKit          3D

 31 31  0  0  1  0  0  0  0  0999 V2000
    9.7886  -16.0824   18.0782 N   0  0  0  0  0  0  0  0  0  0  0  0
   10.4702  -14.9333   18.6257 C   0  0  1  0  0  0  0  0  0  0  0  0
    9.6911  -14.3992   19.7950 C   0  0  0  0  0  0  0  0  0  0  0  0
    8.4971  -13.6959   19.2644 C   0  0  0  0  0  0  0  0  0  0  0  0
    8.0498  -13.5456   17.9687 C   0  0  0  0  0  0  0  0  0  0  0  0
    6.9056  -12.8178   17.9714 N   0  0  0  0  0  0  0  0  0  0  0  0
    6.6456  -12.5201   19.2526 C   0  0  0  0  0  0  0  0  0  0  0  0
    7.6063  -13.0500   20.0342 N   0  0  0  0  0  0  0  0  0  0  0  0
   11.8590  -15.2994   18.9746 C   0  0  0  0  0  0  0  0  0  0  0  0
   12.0388  -16.4014   19.5510 O   0  0  0  0  0  0  0  0  0  0  0  0
   17.7856  -12.5393   14.8455 N   0  0  0  0  0  0  0  0  0  0  0  0
   18.1478  -12.1030   16.1512 C   0  0  0  0  0  0  0  0  0  0  0  0
   18.5338  -10.9011   16.3658 N   0  0  0  0  0  0  0  0  0  0  0  0
   18.0955  -12.9892   17.2779 N   0  0  0  0  0  0  0  0  0  0  0  0
   17.6706  -14.3598   17.0650 C   0  0  0  0  0  0  0  0  0  0  0  0
   16.7232  -14.7545   18.1503 C   0  0  0  0  0  0  0  0  0  0  0  0
   15.2923  -14.4937   17.9290 C   0  0  0  0  0  0  0  0  0  0  0  0
   14.3278  -14.9291   18.9760 C   0  0  2  0  0  0  0  0  0  0  0  0
   12.9785  -14.4975   18.7032 N   0  0  0  0  0  0  0  0  0  0  0  0
   14.6973  -14.6933   20.3763 C   0  0  0  0  0  0  0  0  0  0  0  0
   14.8182  -13.5063   20.7739 O   0  0  0  0  0  0  0  0  0  0  0  0
   18.8320  -10.5036   17.2671 N   0  0  0  0  0  0  0  0  0  0  0  0
   14.9218  -15.7323   21.3160 C   0  0  2  0  0  0  0  0  0  0  0  0
   15.3479  -15.5039   22.6970 C   0  0  0  0  0  0  0  0  0  0  0  0
   14.5810  -16.4431   23.6230 C   0  0  0  0  0  0  0  0  0  0  0  0
   14.4789  -17.8424   23.1145 C   0  0  0  0  0  0  0  0  0  0  0  0
   13.7518  -18.7763   23.9959 O   0  0  0  0  0  0  0  0  0  0  0  0
   13.3216  -18.4809   25.1155 C   0  0  0  0  0  0  0  0  0  0  0  0
   16.8015  -15.7452   22.7969 O   0  0  0  0  0  0  0  0  0  0  0  0
   17.4964  -16.2628   21.8814 O   0  0  0  0  0  0  0  0  0  0  0  0
   13.5340  -20.0715   23.5433 O   0  0  0  0  0  0  0  0  0  0  0  0
  2  1  1  1
  2  3  1  0
  3  4  1  0
  4  8  1  0
  4  5  2  0
  5  6  1  0
  7  6  1  0
  8  7  2  0
  9  2  1  0
  9 19  1  0
 10  9  2  0
 12 14  1  0
 12 11  1  0
 13 12  2  0
 15 16  1  0
 15 14  1  0
 18 17  1  6
 17 16  1  0
 18 19  1  0
 20 18  1  0
 21 20  2  0
 22 20  1  0
 23 22  1  0
 23 28  1  0
 23 24  1  6
 25 24  1  0
 26 25  1  0
 27 26  2  0
 28 31  1  0
 29 28  2  0
 30 26  1  0
M  END
$$$$
