HRE.pdb
     RDKit          3D

 31 31  0  0  1  0  0  0  0  0999 V2000
    9.3519  -15.8765   18.4614 N   0  0  0  0  0  0  0  0  0  0  0  0
   10.1606  -14.6834   18.5461 C   0  0  1  0  0  0  0  0  0  0  0  0
    9.6209  -13.7886   19.6266 C   0  0  0  0  0  0  0  0  0  0  0  0
    8.2599  -13.3563   19.2234 C   0  0  0  0  0  0  0  0  0  0  0  0
    7.0480  -13.5034   19.8647 C   0  0  0  0  0  0  0  0  0  0  0  0
    6.0704  -12.9457   19.1083 N   0  0  0  0  0  0  0  0  0  0  0  0
    6.6677  -12.4584   18.0113 C   0  0  0  0  0  0  0  0  0  0  0  0
    7.9901  -12.7060   18.0800 N   0  0  0  0  0  0  0  0  0  0  0  0
   11.5752  -15.0562   18.7566 C   0  0  0  0  0  0  0  0  0  0  0  0
   11.8068  -16.0736   19.4567 O   0  0  0  0  0  0  0  0  0  0  0  0
   16.8430  -16.5317   14.6498 N   0  0  0  0  0  0  0  0  0  0  0  0
   17.7233  -16.4932   15.7679 C   0  0  0  0  0  0  0  0  0  0  0  0
   18.0769  -17.5659   16.3710 N   0  0  0  0  0  0  0  0  0  0  0  0
   18.2495  -15.2544   16.2639 N   0  0  0  0  0  0  0  0  0  0  0  0
   17.3307  -14.1607   16.5172 C   0  0  0  0  0  0  0  0  0  0  0  0
   16.4093  -14.5409   17.6297 C   0  0  0  0  0  0  0  0  0  0  0  0
   14.9747  -14.2738   17.4427 C   0  0  0  0  0  0  0  0  0  0  0  0
   14.0342  -14.6999   18.5152 C   0  0  2  0  0  0  0  0  0  0  0  0
   12.6652  -14.3485   18.2262 N   0  0  0  0  0  0  0  0  0  0  0  0
   14.3946  -14.3737   19.8997 C   0  0  0  0  0  0  0  0  0  0  0  0
   14.5357  -13.1643   20.2146 O   0  0  0  0  0  0  0  0  0  0  0  0
   18.7442  -17.6402   17.1510 N   0  0  0  0  0  0  0  0  0  0  0  0
   14.5884  -15.3484   20.9123 C   0  0  2  0  0  0  0  0  0  0  0  0
   14.8874  -15.0254   22.3077 C   0  0  0  0  0  0  0  0  0  0  0  0
   13.9837  -15.8489   23.2204 C   0  0  0  0  0  0  0  0  0  0  0  0
   13.8004  -17.2612   22.7745 C   0  0  0  0  0  0  0  0  0  0  0  0
   13.1073  -18.1364   23.7395 O   0  0  0  0  0  0  0  0  0  0  0  0
   12.7531  -17.7811   24.8682 C   0  0  0  0  0  0  0  0  0  0  0  0
   16.3090  -15.3228   22.5752 O   0  0  0  0  0  0  0  0  0  0  0  0
   16.9014  -15.0335   23.6495 O   0  0  0  0  0  0  0  0  0  0  0  0
   12.8329  -19.4444   23.3603 O   0  0  0  0  0  0  0  0  0  0  0  0
  2  1  1  1
  2  3  1  0
  3  4  1  0
  4  8  1  0
  4  5  2  0
  5  6  1  0
  7  6  1  0
  8  7  2  0
  9  2  1  0
  9 19  1  0
 10  9  2  0
 12 14  1  0
 12 11  1  0
 13 12  2  0
 15 16  1  0
 15 14  1  0
 18 17  1  6
 17 16  1  0
 18 19  1  0
 20 18  1  0
 21 20  2  0
 22 20  1  0
 23 22  1  0
 23 28  1  0
 23 24  1  6
 25 24  1  0
 26 25  1  0
 27 26  2  0
 28 31  1  0
 29 28  2  0
 30 26  1  0
M  END
$$$$
