HRE.pdb
     RDKit          3D

 31 31  0  0  1  0  0  0  0  0999 V2000
    7.0822  -16.1377   26.6639 N   0  0  0  0  0  0  0  0  0  0  0  0
    7.0606  -15.3125   25.4793 C   0  0  1  0  0  0  0  0  0  0  0  0
    7.8629  -14.0650   25.7234 C   0  0  0  0  0  0  0  0  0  0  0  0
    7.0700  -13.1795   26.6118 C   0  0  0  0  0  0  0  0  0  0  0  0
    6.0021  -12.3540   26.3298 C   0  0  0  0  0  0  0  0  0  0  0  0
    5.6020  -11.7346   27.4679 N   0  0  0  0  0  0  0  0  0  0  0  0
    6.4112  -12.1703   28.4442 C   0  0  0  0  0  0  0  0  0  0  0  0
    7.2981  -13.0430   27.9280 N   0  0  0  0  0  0  0  0  0  0  0  0
    7.5438  -16.0936   24.3212 C   0  0  0  0  0  0  0  0  0  0  0  0
    8.2184  -17.1262   24.5615 O   0  0  0  0  0  0  0  0  0  0  0  0
    8.9572  -12.1875   17.3670 N   0  0  0  0  0  0  0  0  0  0  0  0
    8.7471  -13.5886   17.2281 C   0  0  0  0  0  0  0  0  0  0  0  0
    9.4053  -14.2763   16.3716 N   0  0  0  0  0  0  0  0  0  0  0  0
    7.7923  -14.2864   18.0396 N   0  0  0  0  0  0  0  0  0  0  0  0
    7.8168  -15.7369   18.0498 C   0  0  0  0  0  0  0  0  0  0  0  0
    8.3363  -16.2101   19.3678 C   0  0  0  0  0  0  0  0  0  0  0  0
    7.7150  -15.6546   20.5802 C   0  0  0  0  0  0  0  0  0  0  0  0
    8.1451  -16.1918   21.9003 C   0  0  2  0  0  0  0  0  0  0  0  0
    7.2965  -15.7544   22.9819 N   0  0  0  0  0  0  0  0  0  0  0  0
    9.5659  -16.0750   22.2478 C   0  0  0  0  0  0  0  0  0  0  0  0
    9.9700  -15.0059   22.7726 O   0  0  0  0  0  0  0  0  0  0  0  0
    9.3304  -15.2900   16.2101 N   0  0  0  0  0  0  0  0  0  0  0  0
   10.5158  -17.1062   22.0307 C   0  0  2  0  0  0  0  0  0  0  0  0
   11.9006  -17.0506   22.5002 C   0  0  0  0  0  0  0  0  0  0  0  0
   12.0646  -17.9820   23.6974 C   0  0  0  0  0  0  0  0  0  0  0  0
   13.4587  -18.0467   24.2260 C   0  0  0  0  0  0  0  0  0  0  0  0
   13.6516  -18.9580   25.3705 O   0  0  0  0  0  0  0  0  0  0  0  0
   14.6132  -18.9064   26.1440 C   0  0  0  0  0  0  0  0  0  0  0  0
   12.7975  -17.4544   21.3986 O   0  0  0  0  0  0  0  0  0  0  0  0
   12.4556  -18.2115   20.4505 O   0  0  0  0  0  0  0  0  0  0  0  0
   12.6942  -19.9386   25.5977 O   0  0  0  0  0  0  0  0  0  0  0  0
  2  1  1  1
  2  3  1  0
  3  4  1  0
  4  8  1  0
  4  5  2  0
  5  6  1  0
  7  6  1  0
  8  7  2  0
  9  2  1  0
  9 19  1  0
 10  9  2  0
 12 14  1  0
 12 11  1  0
 13 12  2  0
 15 16  1  0
 15 14  1  0
 18 17  1  6
 17 16  1  0
 18 19  1  0
 20 18  1  0
 21 20  2  0
 22 20  1  0
 23 22  1  0
 23 28  1  0
 23 24  1  6
 25 24  1  0
 26 25  1  0
 27 26  2  0
 28 31  1  0
 29 28  2  0
 30 26  1  0
M  END
$$$$
