HRE.pdb
     RDKit          3D

 31 31  0  0  1  0  0  0  0  0999 V2000
    6.3845  -15.9535   25.9641 N   0  0  0  0  0  0  0  0  0  0  0  0
    6.7338  -14.8650   25.0822 C   0  0  1  0  0  0  0  0  0  0  0  0
    7.6083  -13.8871   25.8161 C   0  0  0  0  0  0  0  0  0  0  0  0
    6.7406  -13.0814   26.7105 C   0  0  0  0  0  0  0  0  0  0  0  0
    5.6178  -12.3317   26.4298 C   0  0  0  0  0  0  0  0  0  0  0  0
    5.1585  -11.7674   27.5741 N   0  0  0  0  0  0  0  0  0  0  0  0
    5.9855  -12.1619   28.5530 C   0  0  0  0  0  0  0  0  0  0  0  0
    6.9414  -12.9555   28.0322 N   0  0  0  0  0  0  0  0  0  0  0  0
    7.3658  -15.4007   23.8582 C   0  0  0  0  0  0  0  0  0  0  0  0
    8.0472  -16.4504   23.9716 O   0  0  0  0  0  0  0  0  0  0  0  0
    8.7448  -16.0292   16.8357 N   0  0  0  0  0  0  0  0  0  0  0  0
    8.3052  -14.7609   16.3618 C   0  0  0  0  0  0  0  0  0  0  0  0
    8.2658  -14.4981   15.1092 N   0  0  0  0  0  0  0  0  0  0  0  0
    7.8891  -13.7273   17.2651 N   0  0  0  0  0  0  0  0  0  0  0  0
    8.8659  -13.1708   18.1820 C   0  0  0  0  0  0  0  0  0  0  0  0
    9.0592  -14.1128   19.3250 C   0  0  0  0  0  0  0  0  0  0  0  0
    8.0967  -14.0380   20.4352 C   0  0  0  0  0  0  0  0  0  0  0  0
    8.2259  -15.0210   21.5457 C   0  0  2  0  0  0  0  0  0  0  0  0
    7.2514  -14.8128   22.5889 N   0  0  0  0  0  0  0  0  0  0  0  0
    9.5669  -15.2466   22.0968 C   0  0  0  0  0  0  0  0  0  0  0  0
   10.0107  -14.4345   22.9484 O   0  0  0  0  0  0  0  0  0  0  0  0
    8.0213  -13.5958   14.6785 N   0  0  0  0  0  0  0  0  0  0  0  0
   10.3955  -16.3376   21.7276 C   0  0  2  0  0  0  0  0  0  0  0  0
   11.7443  -16.5508   22.2533 C   0  0  0  0  0  0  0  0  0  0  0  0
   11.8820  -17.9982   22.7155 C   0  0  0  0  0  0  0  0  0  0  0  0
   13.2565  -18.3584   23.1719 C   0  0  0  0  0  0  0  0  0  0  0  0
   13.4209  -19.7554   23.6181 O   0  0  0  0  0  0  0  0  0  0  0  0
   14.0046  -20.0885   24.6545 C   0  0  0  0  0  0  0  0  0  0  0  0
   12.7262  -16.2462   21.1931 O   0  0  0  0  0  0  0  0  0  0  0  0
   12.4892  -16.3498   19.9595 O   0  0  0  0  0  0  0  0  0  0  0  0
   12.8875  -20.7647   22.8266 O   0  0  0  0  0  0  0  0  0  0  0  0
  2  1  1  1
  2  3  1  0
  3  4  1  0
  4  8  1  0
  4  5  2  0
  5  6  1  0
  7  6  1  0
  8  7  2  0
  9  2  1  0
  9 19  1  0
 10  9  2  0
 12 14  1  0
 12 11  1  0
 13 12  2  0
 15 16  1  0
 15 14  1  0
 18 17  1  6
 17 16  1  0
 18 19  1  0
 20 18  1  0
 21 20  2  0
 22 20  1  0
 23 22  1  0
 23 28  1  0
 23 24  1  6
 25 24  1  0
 26 25  1  0
 27 26  2  0
 28 31  1  0
 29 28  2  0
 30 26  1  0
M  END
$$$$
