HRE.pdb
     RDKit          3D

 31 31  0  0  1  0  0  0  0  0999 V2000
    8.1536  -17.0184   26.6249 N   0  0  0  0  0  0  0  0  0  0  0  0
    8.6619  -15.8349   25.9725 C   0  0  1  0  0  0  0  0  0  0  0  0
   10.0435  -15.5358   26.4837 C   0  0  0  0  0  0  0  0  0  0  0  0
    9.9216  -15.0911   27.8941 C   0  0  0  0  0  0  0  0  0  0  0  0
    9.4084  -13.9257   28.4232 C   0  0  0  0  0  0  0  0  0  0  0  0
    9.5103  -13.9645   29.7749 N   0  0  0  0  0  0  0  0  0  0  0  0
   10.0794  -15.1393   30.0811 C   0  0  0  0  0  0  0  0  0  0  0  0
   10.3281  -15.8203   28.9458 N   0  0  0  0  0  0  0  0  0  0  0  0
    8.6143  -16.0168   24.5065 C   0  0  0  0  0  0  0  0  0  0  0  0
    9.1187  -17.0680   24.0379 O   0  0  0  0  0  0  0  0  0  0  0  0
    7.6771  -12.6415   16.9103 N   0  0  0  0  0  0  0  0  0  0  0  0
    8.2185  -13.9581   16.8990 C   0  0  0  0  0  0  0  0  0  0  0  0
    8.9717  -14.3574   15.9435 N   0  0  0  0  0  0  0  0  0  0  0  0
    7.9438  -14.8896   17.9546 N   0  0  0  0  0  0  0  0  0  0  0  0
    7.1393  -14.4489   19.0785 C   0  0  0  0  0  0  0  0  0  0  0  0
    8.0155  -13.7489   20.0651 C   0  0  0  0  0  0  0  0  0  0  0  0
    7.7137  -13.9370   21.4927 C   0  0  0  0  0  0  0  0  0  0  0  0
    8.4382  -15.0085   22.2296 C   0  0  2  0  0  0  0  0  0  0  0  0
    8.0447  -15.0945   23.6149 N   0  0  0  0  0  0  0  0  0  0  0  0
    9.8965  -15.0665   22.0780 C   0  0  0  0  0  0  0  0  0  0  0  0
   10.6052  -14.3126   22.7929 O   0  0  0  0  0  0  0  0  0  0  0  0
    9.4232  -15.2787   15.8616 N   0  0  0  0  0  0  0  0  0  0  0  0
   10.5588  -15.9332   21.1707 C   0  0  2  0  0  0  0  0  0  0  0  0
   12.0022  -15.9133   20.9311 C   0  0  0  0  0  0  0  0  0  0  0  0
   12.5169  -17.3462   20.8351 C   0  0  0  0  0  0  0  0  0  0  0  0
   12.5381  -18.0693   22.1405 C   0  0  0  0  0  0  0  0  0  0  0  0
   13.0110  -19.4655   22.0741 O   0  0  0  0  0  0  0  0  0  0  0  0
   12.9847  -20.1591   21.0523 C   0  0  0  0  0  0  0  0  0  0  0  0
   12.2707  -15.1777   19.6790 O   0  0  0  0  0  0  0  0  0  0  0  0
   11.3826  -14.8548   18.8448 O   0  0  0  0  0  0  0  0  0  0  0  0
   13.5193  -20.0424   23.2311 O   0  0  0  0  0  0  0  0  0  0  0  0
  2  1  1  1
  2  3  1  0
  3  4  1  0
  4  8  1  0
  4  5  2  0
  5  6  1  0
  7  6  1  0
  8  7  2  0
  9  2  1  0
  9 19  1  0
 10  9  2  0
 12 14  1  0
 12 11  1  0
 13 12  2  0
 15 16  1  0
 15 14  1  0
 18 17  1  1
 17 16  1  0
 18 19  1  0
 20 18  1  0
 21 20  2  0
 22 20  1  0
 23 22  1  0
 23 28  1  0
 23 24  1  1
 25 24  1  0
 26 25  1  0
 27 26  2  0
 28 31  1  0
 29 28  2  0
 30 26  1  0
M  END
$$$$
