LAP.pdb
     RDKit          3D

 21 21  0  0  1  0  0  0  0  0999 V2000
   22.4287  -20.9849  -20.6503 C   0  0  0  0  0  0  0  0  0  0  0  0
   22.8251  -19.5295  -20.4740 C   0  0  2  0  0  0  0  0  0  0  0  0
   23.2686  -18.9928  -21.8153 C   0  0  0  0  0  0  0  0  0  0  0  0
   23.9123  -19.3895  -19.4599 C   0  0  0  0  0  0  0  0  0  0  0  0
   23.4643  -19.6726  -18.0588 C   0  0  2  0  0  0  0  0  0  0  0  0
   22.4149  -18.7820  -17.6155 N   0  0  0  0  0  0  0  0  0  0  0  0
   24.6115  -19.5198  -17.1166 C   0  0  0  0  0  0  0  0  0  0  0  0
   25.7037  -20.1354  -17.2864 O   0  0  0  0  0  0  0  0  0  0  0  0
   25.4717  -17.1385  -14.3699 C   0  0  0  0  0  0  0  0  0  0  0  0
   25.5048  -18.5218  -14.9582 C   0  0  2  0  0  0  0  0  0  0  0  0
   24.4730  -18.6613  -16.0008 N   0  0  0  0  0  0  0  0  0  0  0  0
   25.3994  -19.6079  -13.9661 C   0  0  0  0  0  0  0  0  0  0  0  0
   24.2398  -20.0993  -13.8118 O   0  0  0  0  0  0  0  0  0  0  0  0
   26.4406  -20.1382  -13.1932 N   0  0  0  0  0  0  0  0  0  0  0  0
   27.7984  -19.6404  -13.1529 C   0  0  0  0  0  0  0  0  0  0  0  0
   28.4396  -20.2589  -11.9293 C   0  0  0  0  0  0  0  0  0  0  0  0
   27.7594  -21.5838  -11.8603 C   0  0  0  0  0  0  0  0  0  0  0  0
   26.3408  -21.2717  -12.3041 C   0  0  1  0  0  0  0  0  0  0  0  0
   25.5818  -20.9372  -11.0523 C   0  0  0  0  0  0  0  0  0  0  0  0
   25.4621  -19.7155  -10.7826 O   0  0  0  0  0  0  0  0  0  0  0  0
   25.0280  -21.8618  -10.2115 O   0  0  0  0  0  0  0  0  0  0  0  0
  2  1  1  6
  3  2  1  0
  4  2  1  0
  4  5  1  0
  5  6  1  1
  7  5  1  0
  7  8  2  0
 10  9  1  1
 10 11  1  0
 10 12  1  0
 11  7  1  0
 12 14  1  0
 13 12  2  0
 14 18  1  0
 14 15  1  0
 15 16  1  0
 17 16  1  0
 18 17  1  0
 18 19  1  1
 19 21  1  0
 20 19  2  0
M  END
$$$$
