LAP.pdb
     RDKit          3D

 21 21  0  0  1  0  0  0  0  0999 V2000
   27.3451  -18.5359   -5.7009 C   0  0  0  0  0  0  0  0  0  0  0  0
   27.2194  -20.0486   -5.7503 C   0  0  2  0  0  0  0  0  0  0  0  0
   28.2785  -20.6424   -4.8506 C   0  0  0  0  0  0  0  0  0  0  0  0
   27.3660  -20.5530   -7.1482 C   0  0  0  0  0  0  0  0  0  0  0  0
   26.3505  -19.9929   -8.0965 C   0  0  2  0  0  0  0  0  0  0  0  0
   25.0452  -20.5948   -7.9391 N   0  0  0  0  0  0  0  0  0  0  0  0
   26.7860  -20.2255   -9.5049 C   0  0  0  0  0  0  0  0  0  0  0  0
   27.9238  -19.8625   -9.9223 O   0  0  0  0  0  0  0  0  0  0  0  0
   25.5768  -22.3271  -12.3359 C   0  0  0  0  0  0  0  0  0  0  0  0
   26.1900  -21.0499  -11.8324 C   0  0  2  0  0  0  0  0  0  0  0  0
   25.9000  -20.8711  -10.3990 N   0  0  0  0  0  0  0  0  0  0  0  0
   25.8103  -19.8487  -12.5991 C   0  0  0  0  0  0  0  0  0  0  0  0
   24.6586  -19.3791  -12.3481 O   0  0  0  0  0  0  0  0  0  0  0  0
   26.5880  -19.1898  -13.5602 N   0  0  0  0  0  0  0  0  0  0  0  0
   27.9704  -19.4819  -13.8707 C   0  0  0  0  0  0  0  0  0  0  0  0
   28.2588  -18.8062  -15.1940 C   0  0  0  0  0  0  0  0  0  0  0  0
   27.3875  -17.5987  -15.1207 C   0  0  0  0  0  0  0  0  0  0  0  0
   26.1468  -18.1061  -14.4066 C   0  0  1  0  0  0  0  0  0  0  0  0
   25.2158  -18.5804  -15.4851 C   0  0  0  0  0  0  0  0  0  0  0  0
   24.5526  -17.6932  -16.0789 O   0  0  0  0  0  0  0  0  0  0  0  0
   25.0531  -19.8881  -15.8486 O   0  0  0  0  0  0  0  0  0  0  0  0
  2  1  1  6
  3  2  1  0
  4  2  1  0
  4  5  1  0
  5  6  1  6
  7  5  1  0
  7  8  2  0
 10  9  1  6
 10 11  1  0
 10 12  1  0
 11  7  1  0
 12 14  1  0
 13 12  2  0
 14 18  1  0
 14 15  1  0
 15 16  1  0
 17 16  1  0
 18 17  1  0
 18 19  1  6
 19 21  1  0
 20 19  2  0
M  END
$$$$
