LAP.pdb
     RDKit          3D

 21 21  0  0  1  0  0  0  0  0999 V2000
   24.1455  -18.8015  -15.7553 C   0  0  0  0  0  0  0  0  0  0  0  0
   23.6659  -20.1892  -16.1439 C   0  0  2  0  0  0  0  0  0  0  0  0
   22.7672  -20.0595  -17.3520 C   0  0  0  0  0  0  0  0  0  0  0  0
   22.9436  -20.8428  -15.0121 C   0  0  0  0  0  0  0  0  0  0  0  0
   23.7457  -20.9095  -13.7487 C   0  0  2  0  0  0  0  0  0  0  0  0
   24.8539  -21.8342  -13.8368 N   0  0  0  0  0  0  0  0  0  0  0  0
   22.8787  -21.3533  -12.6178 C   0  0  0  0  0  0  0  0  0  0  0  0
   22.6135  -22.5739  -12.4168 O   0  0  0  0  0  0  0  0  0  0  0  0
   21.2711  -19.5283   -9.7173 C   0  0  0  0  0  0  0  0  0  0  0  0
   21.4301  -20.7104  -10.6328 C   0  0  2  0  0  0  0  0  0  0  0  0
   22.3379  -20.3800  -11.7452 N   0  0  0  0  0  0  0  0  0  0  0  0
   20.1600  -21.2643  -11.1378 C   0  0  0  0  0  0  0  0  0  0  0  0
   19.7680  -20.8077  -12.2548 O   0  0  0  0  0  0  0  0  0  0  0  0
   19.3613  -22.2299  -10.5115 N   0  0  0  0  0  0  0  0  0  0  0  0
   19.6562  -22.8811   -9.2537 C   0  0  0  0  0  0  0  0  0  0  0  0
   18.3664  -23.5311   -8.8012 C   0  0  0  0  0  0  0  0  0  0  0  0
   17.7339  -23.8996  -10.0999 C   0  0  0  0  0  0  0  0  0  0  0  0
   18.1072  -22.7431  -11.0108 C   0  0  1  0  0  0  0  0  0  0  0  0
   16.9981  -21.7395  -10.8781 C   0  0  0  0  0  0  0  0  0  0  0  0
   17.2412  -20.7306  -10.1692 O   0  0  0  0  0  0  0  0  0  0  0  0
   15.7713  -21.8576  -11.4693 O   0  0  0  0  0  0  0  0  0  0  0  0
  2  1  1  1
  3  2  1  0
  4  2  1  0
  4  5  1  0
  5  6  1  6
  7  5  1  0
  7  8  2  0
 10  9  1  6
 10 11  1  0
 10 12  1  0
 11  7  1  0
 12 14  1  0
 13 12  2  0
 14 18  1  0
 14 15  1  0
 15 16  1  0
 17 16  1  0
 18 17  1  0
 18 19  1  1
 19 21  1  0
 20 19  2  0
M  END
$$$$
