LAP.pdb
     RDKit          3D

 21 21  0  0  1  0  0  0  0  0999 V2000
   27.1644  -21.2845  -14.5169 C   0  0  0  0  0  0  0  0  0  0  0  0
   25.8145  -20.7673  -14.0515 C   0  0  2  0  0  0  0  0  0  0  0  0
   25.2722  -19.8359  -15.1109 C   0  0  0  0  0  0  0  0  0  0  0  0
   25.9331  -20.0664  -12.7382 C   0  0  0  0  0  0  0  0  0  0  0  0
   26.5861  -20.8946  -11.6744 C   0  0  2  0  0  0  0  0  0  0  0  0
   25.9688  -22.1928  -11.5174 N   0  0  0  0  0  0  0  0  0  0  0  0
   26.5004  -20.1941  -10.3593 C   0  0  0  0  0  0  0  0  0  0  0  0
   26.8054  -18.9730  -10.2303 O   0  0  0  0  0  0  0  0  0  0  0  0
   24.6986  -20.7433   -7.2047 C   0  0  0  0  0  0  0  0  0  0  0  0
   25.9771  -20.3263   -7.8772 C   0  0  2  0  0  0  0  0  0  0  0  0
   26.0654  -20.9172   -9.2240 N   0  0  0  0  0  0  0  0  0  0  0  0
   27.1960  -20.6112   -7.0975 C   0  0  0  0  0  0  0  0  0  0  0  0
   27.5988  -21.8140   -7.1289 O   0  0  0  0  0  0  0  0  0  0  0  0
   27.9372  -19.6949   -6.3402 N   0  0  0  0  0  0  0  0  0  0  0  0
   27.7267  -18.2640   -6.3060 C   0  0  0  0  0  0  0  0  0  0  0  0
   28.4789  -17.7544   -5.0954 C   0  0  0  0  0  0  0  0  0  0  0  0
   29.6385  -18.6896   -5.0360 C   0  0  0  0  0  0  0  0  0  0  0  0
   29.0384  -20.0177   -5.4635 C   0  0  1  0  0  0  0  0  0  0  0  0
   28.5732  -20.6848   -4.2012 C   0  0  0  0  0  0  0  0  0  0  0  0
   27.3324  -20.6959   -4.0012 O   0  0  0  0  0  0  0  0  0  0  0  0
   29.4008  -21.2658   -3.2813 O   0  0  0  0  0  0  0  0  0  0  0  0
  2  1  1  6
  3  2  1  0
  4  2  1  0
  4  5  1  0
  5  6  1  1
  7  5  1  0
  7  8  2  0
 10  9  1  1
 10 11  1  0
 10 12  1  0
 11  7  1  0
 12 14  1  0
 13 12  2  0
 14 18  1  0
 14 15  1  0
 15 16  1  0
 17 16  1  0
 18 17  1  0
 18 19  1  1
 19 21  1  0
 20 19  2  0
M  END
$$$$
