LAP.pdb
     RDKit          3D

 21 21  0  0  1  0  0  0  0  0999 V2000
   28.3149  -21.6853  -13.5451 C   0  0  0  0  0  0  0  0  0  0  0  0
   27.7070  -20.3136  -13.3098 C   0  0  2  0  0  0  0  0  0  0  0  0
   28.8313  -19.3269  -13.0949 C   0  0  0  0  0  0  0  0  0  0  0  0
   26.7838  -20.3310  -12.1362 C   0  0  0  0  0  0  0  0  0  0  0  0
   25.6671  -21.3207  -12.2675 C   0  0  2  0  0  0  0  0  0  0  0  0
   25.0790  -21.3298  -13.5885 N   0  0  0  0  0  0  0  0  0  0  0  0
   24.5824  -20.9968  -11.2948 C   0  0  0  0  0  0  0  0  0  0  0  0
   24.8109  -20.8625  -10.0577 O   0  0  0  0  0  0  0  0  0  0  0  0
   21.4643  -19.2479  -11.2898 C   0  0  0  0  0  0  0  0  0  0  0  0
   22.1165  -20.5421  -10.8892 C   0  0  2  0  0  0  0  0  0  0  0  0
   23.2601  -20.8354  -11.7707 N   0  0  0  0  0  0  0  0  0  0  0  0
   21.1960  -21.6924  -10.8225 C   0  0  0  0  0  0  0  0  0  0  0  0
   20.9494  -22.2626  -11.9288 O   0  0  0  0  0  0  0  0  0  0  0  0
   20.5807  -22.2052   -9.6731 N   0  0  0  0  0  0  0  0  0  0  0  0
   20.8109  -21.7501   -8.3193 C   0  0  0  0  0  0  0  0  0  0  0  0
   19.6773  -22.3089   -7.4865 C   0  0  0  0  0  0  0  0  0  0  0  0
   19.4000  -23.6038   -8.1712 C   0  0  0  0  0  0  0  0  0  0  0  0
   19.6115  -23.2752   -9.6389 C   0  0  1  0  0  0  0  0  0  0  0  0
   18.2732  -22.8363  -10.1597 C   0  0  0  0  0  0  0  0  0  0  0  0
   18.1050  -21.5977  -10.2910 O   0  0  0  0  0  0  0  0  0  0  0  0
   17.2541  -23.6850  -10.4907 O   0  0  0  0  0  0  0  0  0  0  0  0
  2  1  1  1
  3  2  1  0
  4  2  1  0
  4  5  1  0
  5  6  1  6
  7  5  1  0
  7  8  2  0
 10  9  1  6
 10 11  1  0
 10 12  1  0
 11  7  1  0
 12 14  1  0
 13 12  2  0
 14 18  1  0
 14 15  1  0
 15 16  1  0
 17 16  1  0
 18 17  1  0
 18 19  1  1
 19 21  1  0
 20 19  2  0
M  END
$$$$
