LAP.pdb
     RDKit          3D

 21 21  0  0  1  0  0  0  0  0999 V2000
   12.8906   -6.8030  -17.6346 C   0  0  0  0  0  0  0  0  0  0  0  0
   12.8321   -7.0141  -16.1318 C   0  0  2  0  0  0  0  0  0  0  0  0
   12.1874   -5.7985  -15.5067 C   0  0  0  0  0  0  0  0  0  0  0  0
   14.1967   -7.2403  -15.5690 C   0  0  0  0  0  0  0  0  0  0  0  0
   14.8816   -8.4500  -16.1272 C   0  0  2  0  0  0  0  0  0  0  0  0
   14.3598   -9.6869  -15.5898 N   0  0  0  0  0  0  0  0  0  0  0  0
   16.3392   -8.4017  -15.8103 C   0  0  0  0  0  0  0  0  0  0  0  0
   16.7863   -8.7089  -14.6674 O   0  0  0  0  0  0  0  0  0  0  0  0
   19.4106   -8.2622  -17.9260 C   0  0  0  0  0  0  0  0  0  0  0  0
   18.7079   -7.9830  -16.6263 C   0  0  2  0  0  0  0  0  0  0  0  0
   17.2472   -8.0005  -16.8181 N   0  0  0  0  0  0  0  0  0  0  0  0
   19.1353   -6.7396  -15.9582 C   0  0  0  0  0  0  0  0  0  0  0  0
   18.4211   -5.7175  -16.1928 O   0  0  0  0  0  0  0  0  0  0  0  0
   20.2351   -6.5848  -15.1044 N   0  0  0  0  0  0  0  0  0  0  0  0
   21.1691   -7.6262  -14.7353 C   0  0  0  0  0  0  0  0  0  0  0  0
   22.3677   -6.9255  -14.1328 C   0  0  0  0  0  0  0  0  0  0  0  0
   21.7382   -5.7417  -13.4809 C   0  0  0  0  0  0  0  0  0  0  0  0
   20.6276   -5.3616  -14.4446 C   0  0  1  0  0  0  0  0  0  0  0  0
   21.2331   -4.3770  -15.4032 C   0  0  0  0  0  0  0  0  0  0  0  0
   21.6067   -4.8360  -16.5120 O   0  0  0  0  0  0  0  0  0  0  0  0
   21.3967   -3.0446  -15.1453 O   0  0  0  0  0  0  0  0  0  0  0  0
  2  1  1  6
  3  2  1  0
  4  2  1  0
  4  5  1  0
  5  6  1  1
  7  5  1  0
  7  8  2  0
 10  9  1  6
 10 11  1  0
 10 12  1  0
 11  7  1  0
 12 14  1  0
 13 12  2  0
 14 18  1  0
 14 15  1  0
 15 16  1  0
 17 16  1  0
 18 17  1  0
 18 19  1  6
 19 21  1  0
 20 19  2  0
M  END
$$$$
