LAP.pdb
     RDKit          3D

 21 21  0  0  1  0  0  0  0  0999 V2000
   24.2143  -21.2641   -9.2257 C   0  0  0  0  0  0  0  0  0  0  0  0
   25.7146  -21.4806   -9.3202 C   0  0  2  0  0  0  0  0  0  0  0  0
   26.3192  -21.2127   -7.9613 C   0  0  0  0  0  0  0  0  0  0  0  0
   26.3199  -20.5912  -10.3558 C   0  0  0  0  0  0  0  0  0  0  0  0
   25.7269  -20.7702  -11.7197 C   0  0  2  0  0  0  0  0  0  0  0  0
   25.9473  -22.0946  -12.2569 N   0  0  0  0  0  0  0  0  0  0  0  0
   26.3328  -19.7927  -12.6709 C   0  0  0  0  0  0  0  0  0  0  0  0
   26.4771  -18.5714  -12.3740 O   0  0  0  0  0  0  0  0  0  0  0  0
   28.0473  -20.1448  -16.0163 C   0  0  0  0  0  0  0  0  0  0  0  0
   27.3119  -19.3506  -14.9726 C   0  0  2  0  0  0  0  0  0  0  0  0
   26.7581  -20.2457  -13.9417 N   0  0  0  0  0  0  0  0  0  0  0  0
   26.2676  -18.4587  -15.5101 C   0  0  0  0  0  0  0  0  0  0  0  0
   25.1907  -19.0273  -15.8663 O   0  0  0  0  0  0  0  0  0  0  0  0
   26.3518  -17.0685  -15.6608 N   0  0  0  0  0  0  0  0  0  0  0  0
   27.4980  -16.2520  -15.3253 C   0  0  0  0  0  0  0  0  0  0  0  0
   27.2778  -14.9156  -16.0007 C   0  0  0  0  0  0  0  0  0  0  0  0
   25.7933  -14.7863  -15.9534 C   0  0  0  0  0  0  0  0  0  0  0  0
   25.3115  -16.2094  -16.1758 C   0  0  1  0  0  0  0  0  0  0  0  0
   25.1437  -16.3602  -17.6604 C   0  0  0  0  0  0  0  0  0  0  0  0
   26.0660  -16.9605  -18.2675 O   0  0  0  0  0  0  0  0  0  0  0  0
   24.0728  -15.8940  -18.3705 O   0  0  0  0  0  0  0  0  0  0  0  0
  2  1  1  1
  3  2  1  0
  4  2  1  0
  4  5  1  0
  5  6  1  6
  7  5  1  0
  7  8  2  0
 10  9  1  6
 10 11  1  0
 10 12  1  0
 11  7  1  0
 12 14  1  0
 13 12  2  0
 14 18  1  0
 14 15  1  0
 15 16  1  0
 17 16  1  0
 18 17  1  0
 18 19  1  6
 19 21  1  0
 20 19  2  0
M  END
$$$$
