LAP.pdb
     RDKit          3D

 21 21  0  0  1  0  0  0  0  0999 V2000
   28.5766  -21.1194   -6.8190 C   0  0  0  0  0  0  0  0  0  0  0  0
   28.0030  -19.7878   -7.2711 C   0  0  2  0  0  0  0  0  0  0  0  0
   28.1404  -18.8015   -6.1343 C   0  0  0  0  0  0  0  0  0  0  0  0
   26.5740  -19.9312   -7.6802 C   0  0  0  0  0  0  0  0  0  0  0  0
   26.3743  -20.8506   -8.8458 C   0  0  2  0  0  0  0  0  0  0  0  0
   27.5697  -21.0118   -9.6434 N   0  0  0  0  0  0  0  0  0  0  0  0
   25.3061  -20.3149   -9.7399 C   0  0  0  0  0  0  0  0  0  0  0  0
   24.2218  -19.8499   -9.2832 O   0  0  0  0  0  0  0  0  0  0  0  0
   25.2217  -19.0835  -13.2233 C   0  0  0  0  0  0  0  0  0  0  0  0
   24.5275  -19.8091  -12.1043 C   0  0  2  0  0  0  0  0  0  0  0  0
   25.5127  -20.3278  -11.1393 N   0  0  0  0  0  0  0  0  0  0  0  0
   23.6127  -20.8777  -12.5469 C   0  0  0  0  0  0  0  0  0  0  0  0
   24.1615  -21.9841  -12.8380 O   0  0  0  0  0  0  0  0  0  0  0  0
   22.2204  -20.7873  -12.6730 N   0  0  0  0  0  0  0  0  0  0  0  0
   21.4240  -19.6102  -12.4023 C   0  0  0  0  0  0  0  0  0  0  0  0
   20.0704  -19.8613  -13.0312 C   0  0  0  0  0  0  0  0  0  0  0  0
   19.9263  -21.3370  -12.8755 C   0  0  0  0  0  0  0  0  0  0  0  0
   21.3388  -21.8509  -13.0938 C   0  0  1  0  0  0  0  0  0  0  0  0
   21.4543  -22.1255  -14.5656 C   0  0  0  0  0  0  0  0  0  0  0  0
   22.0561  -21.2590  -15.2488 O   0  0  0  0  0  0  0  0  0  0  0  0
   20.9553  -23.2353  -15.1884 O   0  0  0  0  0  0  0  0  0  0  0  0
  2  1  1  1
  3  2  1  0
  4  2  1  0
  4  5  1  0
  5  6  1  6
  7  5  1  0
  7  8  2  0
 10  9  1  6
 10 11  1  0
 10 12  1  0
 11  7  1  0
 12 14  1  0
 13 12  2  0
 14 18  1  0
 14 15  1  0
 15 16  1  0
 17 16  1  0
 18 17  1  0
 18 19  1  6
 19 21  1  0
 20 19  2  0
M  END
$$$$
