CWN.pdb
     RDKit          3D

 29 30  0  0  1  0  0  0  0  0999 V2000
   27.5501  -23.0422  -17.1604 N   0  0  0  0  0  0  0  0  0  0  0  0
   27.3712  -21.8076  -16.4864 C   0  0  1  0  0  0  0  0  0  0  0  0
   26.5217  -20.9074  -17.3851 C   0  0  0  0  0  0  0  0  0  0  0  0
   27.4693  -20.4478  -18.8688 S   0  0  0  0  0  0  0  0  0  0  0  0
   26.6446  -21.9165  -15.1838 C   0  0  0  0  0  0  0  0  0  0  0  0
   25.6159  -22.6277  -15.1409 O   0  0  0  0  0  0  0  0  0  0  0  0
   27.1389  -21.2228  -14.0517 N   0  0  0  0  0  0  0  0  0  0  0  0
   26.4721  -21.2007  -12.7817 C   0  0  1  0  0  0  0  0  0  0  0  0
   27.3738  -20.6301  -11.7105 C   0  0  0  0  0  0  0  0  0  0  0  0
   26.5823  -20.5752  -10.4483 C   0  0  0  0  0  0  0  0  0  0  0  0
   25.2154  -20.6458  -10.3449 C   0  0  0  0  0  0  0  0  0  0  0  0
   24.9196  -20.5624   -9.0263 N   0  0  0  0  0  0  0  0  0  0  0  0
   26.0174  -20.4435   -8.2823 C   0  0  0  0  0  0  0  0  0  0  0  0
   26.3249  -20.3289   -6.9454 C   0  0  0  0  0  0  0  0  0  0  0  0
   27.6005  -20.2224   -6.4436 C   0  0  0  0  0  0  0  0  0  0  0  0
   28.6610  -20.2313   -7.3545 C   0  0  0  0  0  0  0  0  0  0  0  0
   28.3983  -20.3448   -8.7083 C   0  0  0  0  0  0  0  0  0  0  0  0
   27.0919  -20.4482   -9.1518 C   0  0  0  0  0  0  0  0  0  0  0  0
   25.1733  -20.5708  -12.9004 C   0  0  0  0  0  0  0  0  0  0  0  0
   25.1286  -19.3040  -13.1022 O   0  0  0  0  0  0  0  0  0  0  0  0
   22.8669  -20.8439  -16.5925 N   0  0  0  0  0  0  0  0  0  0  0  0
   22.3476  -20.2926  -15.3797 C   0  0  0  0  0  0  0  0  0  0  0  0
   22.1849  -19.0620  -15.3112 O   0  0  0  0  0  0  0  0  0  0  0  0
   22.0081  -21.1554  -14.2326 C   0  0  0  0  0  0  0  0  0  0  0  0
   22.7013  -20.6640  -12.9626 C   0  0  2  0  0  0  0  0  0  0  0  0
   23.9706  -21.3121  -12.7976 N   0  0  0  0  0  0  0  0  0  0  0  0
   21.8511  -20.9937  -11.7924 C   0  0  0  0  0  0  0  0  0  0  0  0
   20.7479  -20.1944  -11.5479 O   0  0  0  0  0  0  0  0  0  0  0  0
   22.1078  -21.9412  -11.0585 O   0  0  0  0  0  0  0  0  0  0  0  0
  2  1  1  6
  2  3  1  0
  3  4  1  0
  5  6  2  0
  5  2  1  0
  7  5  1  0
  8  7  1  0
  8  9  1  1
 10  9  1  0
 10 18  1  0
 11 12  1  0
 11 10  2  0
 12 13  1  0
 13 18  2  0
 13 14  1  0
 14 15  2  0
 15 16  1  0
 17 16  2  0
 18 17  1  0
 19  8  1  0
 19 20  2  0
 22 24  1  0
 22 21  1  0
 23 22  2  0
 25 26  1  0
 25 24  1  6
 26 19  1  0
 27 25  1  0
 28 27  1  0
 29 27  2  0
M  END
$$$$
