CWN.pdb
     RDKit          3D

 29 30  0  0  1  0  0  0  0  0999 V2000
   28.6475  -27.6864  -17.0228 N   0  0  0  0  0  0  0  0  0  0  0  0
   27.7041  -28.5213  -17.6735 C   0  0  1  0  0  0  0  0  0  0  0  0
   28.2040  -29.9625  -17.5598 C   0  0  0  0  0  0  0  0  0  0  0  0
   29.8297  -30.1156  -18.3625 S   0  0  0  0  0  0  0  0  0  0  0  0
   26.3373  -28.4956  -17.0671 C   0  0  0  0  0  0  0  0  0  0  0  0
   26.2461  -28.5134  -15.8193 O   0  0  0  0  0  0  0  0  0  0  0  0
   25.2019  -28.4490  -17.9133 N   0  0  0  0  0  0  0  0  0  0  0  0
   23.8557  -28.3435  -17.4290 C   0  0  1  0  0  0  0  0  0  0  0  0
   22.9737  -27.6450  -18.4390 C   0  0  0  0  0  0  0  0  0  0  0  0
   21.6704  -27.3661  -17.7712 C   0  0  0  0  0  0  0  0  0  0  0  0
   21.4912  -26.6700  -16.6018 C   0  0  0  0  0  0  0  0  0  0  0  0
   20.1591  -26.6492  -16.3608 N   0  0  0  0  0  0  0  0  0  0  0  0
   19.4776  -27.2904  -17.3081 C   0  0  0  0  0  0  0  0  0  0  0  0
   18.1606  -27.5791  -17.5861 C   0  0  0  0  0  0  0  0  0  0  0  0
   17.7308  -28.2843  -18.6852 C   0  0  0  0  0  0  0  0  0  0  0  0
   18.6985  -28.7408  -19.5849 C   0  0  0  0  0  0  0  0  0  0  0  0
   20.0349  -28.4735  -19.3452 C   0  0  0  0  0  0  0  0  0  0  0  0
   20.4049  -27.7585  -18.2200 C   0  0  0  0  0  0  0  0  0  0  0  0
   23.3771  -29.6323  -16.9729 C   0  0  0  0  0  0  0  0  0  0  0  0
   23.5243  -30.6443  -17.7486 O   0  0  0  0  0  0  0  0  0  0  0  0
   23.3758  -32.7521  -11.9784 N   0  0  0  0  0  0  0  0  0  0  0  0
   22.8326  -32.5257  -13.2816 C   0  0  0  0  0  0  0  0  0  0  0  0
   22.6884  -33.5003  -14.0400 O   0  0  0  0  0  0  0  0  0  0  0  0
   22.4475  -31.1724  -13.7237 C   0  0  0  0  0  0  0  0  0  0  0  0
   22.3799  -31.1005  -15.2485 C   0  0  2  0  0  0  0  0  0  0  0  0
   22.7579  -29.7955  -15.7094 N   0  0  0  0  0  0  0  0  0  0  0  0
   20.9858  -31.3648  -15.6812 C   0  0  0  0  0  0  0  0  0  0  0  0
   20.0770  -30.3234  -15.6092 O   0  0  0  0  0  0  0  0  0  0  0  0
   20.6382  -32.4664  -16.0912 O   0  0  0  0  0  0  0  0  0  0  0  0
  2  1  1  1
  2  3  1  0
  3  4  1  0
  5  6  2  0
  5  2  1  0
  7  5  1  0
  8  7  1  0
  8  9  1  6
 10  9  1  0
 10 18  1  0
 11 12  1  0
 11 10  2  0
 12 13  1  0
 13 18  2  0
 13 14  1  0
 14 15  2  0
 15 16  1  0
 17 16  2  0
 18 17  1  0
 19  8  1  0
 19 20  2  0
 22 24  1  0
 22 21  1  0
 23 22  2  0
 25 26  1  0
 25 24  1  1
 26 19  1  0
 27 25  1  0
 28 27  1  0
 29 27  2  0
M  END
$$$$
