CWN.pdb
     RDKit          3D

 29 30  0  0  1  0  0  0  0  0999 V2000
   27.1900  -24.2362  -16.1642 N   0  0  0  0  0  0  0  0  0  0  0  0
   25.8782  -24.1148  -16.6885 C   0  0  1  0  0  0  0  0  0  0  0  0
   25.0362  -25.2475  -16.0987 C   0  0  0  0  0  0  0  0  0  0  0  0
   25.3154  -26.7781  -17.0420 S   0  0  0  0  0  0  0  0  0  0  0  0
   25.1867  -22.8384  -16.3289 C   0  0  0  0  0  0  0  0  0  0  0  0
   25.4541  -22.3147  -15.2244 O   0  0  0  0  0  0  0  0  0  0  0  0
   24.2644  -22.2667  -17.2397 N   0  0  0  0  0  0  0  0  0  0  0  0
   23.6137  -21.0066  -17.0233 C   0  0  1  0  0  0  0  0  0  0  0  0
   23.2798  -20.3406  -18.3390 C   0  0  0  0  0  0  0  0  0  0  0  0
   22.7297  -18.9910  -18.0253 C   0  0  0  0  0  0  0  0  0  0  0  0
   23.3443  -18.0194  -17.2752 C   0  0  0  0  0  0  0  0  0  0  0  0
   22.5029  -16.9590  -17.2464 N   0  0  0  0  0  0  0  0  0  0  0  0
   21.3881  -17.1965  -17.9347 C   0  0  0  0  0  0  0  0  0  0  0  0
   20.2299  -16.5213  -18.2473 C   0  0  0  0  0  0  0  0  0  0  0  0
   19.2094  -17.0338  -19.0127 C   0  0  0  0  0  0  0  0  0  0  0  0
   19.3571  -18.3322  -19.5094 C   0  0  0  0  0  0  0  0  0  0  0  0
   20.5054  -19.0481  -19.2201 C   0  0  0  0  0  0  0  0  0  0  0  0
   21.4976  -18.4771  -18.4432 C   0  0  0  0  0  0  0  0  0  0  0  0
   22.5039  -21.1587  -16.1051 C   0  0  0  0  0  0  0  0  0  0  0  0
   21.7830  -22.2170  -16.1934 O   0  0  0  0  0  0  0  0  0  0  0  0
   20.1258  -21.5660  -11.9328 N   0  0  0  0  0  0  0  0  0  0  0  0
   20.8078  -20.3196  -11.7715 C   0  0  0  0  0  0  0  0  0  0  0  0
   20.9563  -19.8709  -10.6216 O   0  0  0  0  0  0  0  0  0  0  0  0
   21.3281  -19.5777  -12.9352 C   0  0  0  0  0  0  0  0  0  0  0  0
   21.1043  -20.3675  -14.2240 C   0  0  2  0  0  0  0  0  0  0  0  0
   22.2014  -20.1779  -15.1289 N   0  0  0  0  0  0  0  0  0  0  0  0
   19.8665  -19.8781  -14.8792 C   0  0  0  0  0  0  0  0  0  0  0  0
   19.7891  -18.5325  -15.1939 O   0  0  0  0  0  0  0  0  0  0  0  0
   18.9356  -20.6321  -15.1384 O   0  0  0  0  0  0  0  0  0  0  0  0
  2  1  1  1
  2  3  1  0
  3  4  1  0
  5  6  2  0
  5  2  1  0
  7  5  1  0
  8  7  1  0
  8  9  1  6
 10  9  1  0
 10 18  1  0
 11 12  1  0
 11 10  2  0
 12 13  1  0
 13 18  2  0
 13 14  1  0
 14 15  2  0
 15 16  1  0
 17 16  2  0
 18 17  1  0
 19  8  1  0
 19 20  2  0
 22 24  1  0
 22 21  1  0
 23 22  2  0
 25 26  1  0
 25 24  1  1
 26 19  1  0
 27 25  1  0
 28 27  1  0
 29 27  2  0
M  END
$$$$
