CWN.pdb
     RDKit          3D

 29 30  0  0  1  0  0  0  0  0999 V2000
   29.0394  -20.6394  -14.8771 N   0  0  0  0  0  0  0  0  0  0  0  0
   28.1587  -19.8489  -14.0961 C   0  0  1  0  0  0  0  0  0  0  0  0
   27.4509  -18.8741  -15.0389 C   0  0  0  0  0  0  0  0  0  0  0  0
   28.5966  -17.5475  -15.5266 S   0  0  0  0  0  0  0  0  0  0  0  0
   27.0853  -20.6254  -13.4022 C   0  0  0  0  0  0  0  0  0  0  0  0
   26.6670  -21.6702  -13.9491 O   0  0  0  0  0  0  0  0  0  0  0  0
   26.5837  -20.1620  -12.1609 N   0  0  0  0  0  0  0  0  0  0  0  0
   25.6043  -20.8694  -11.3875 C   0  0  1  0  0  0  0  0  0  0  0  0
   25.6288  -20.4173   -9.9449 C   0  0  0  0  0  0  0  0  0  0  0  0
   27.0037  -20.6670   -9.4256 C   0  0  0  0  0  0  0  0  0  0  0  0
   28.0066  -21.3403  -10.0776 C   0  0  0  0  0  0  0  0  0  0  0  0
   29.0813  -21.3312   -9.2542 N   0  0  0  0  0  0  0  0  0  0  0  0
   28.8234  -20.6909   -8.1155 C   0  0  0  0  0  0  0  0  0  0  0  0
   29.4992  -20.3731   -6.9591 C   0  0  0  0  0  0  0  0  0  0  0  0
   28.9607  -19.6693   -5.9080 C   0  0  0  0  0  0  0  0  0  0  0  0
   27.6332  -19.2458   -6.0204 C   0  0  0  0  0  0  0  0  0  0  0  0
   26.9155  -19.5430   -7.1656 C   0  0  0  0  0  0  0  0  0  0  0  0
   27.5136  -20.2557   -8.1896 C   0  0  0  0  0  0  0  0  0  0  0  0
   24.3092  -20.8136  -12.0337 C   0  0  0  0  0  0  0  0  0  0  0  0
   23.8783  -19.6725  -12.4334 O   0  0  0  0  0  0  0  0  0  0  0  0
   23.5951  -24.9257  -14.7309 N   0  0  0  0  0  0  0  0  0  0  0  0
   22.9259  -23.6624  -14.7011 C   0  0  0  0  0  0  0  0  0  0  0  0
   23.1301  -22.8627  -15.6308 O   0  0  0  0  0  0  0  0  0  0  0  0
   22.0118  -23.3084  -13.5991 C   0  0  0  0  0  0  0  0  0  0  0  0
   22.3425  -21.9228  -13.0463 C   0  0  2  0  0  0  0  0  0  0  0  0
   23.5203  -21.9738  -12.2285 N   0  0  0  0  0  0  0  0  0  0  0  0
   21.2104  -21.4563  -12.2088 C   0  0  0  0  0  0  0  0  0  0  0  0
   19.9773  -21.2978  -12.8172 O   0  0  0  0  0  0  0  0  0  0  0  0
   21.3506  -21.2157  -11.0152 O   0  0  0  0  0  0  0  0  0  0  0  0
  2  1  1  6
  2  3  1  0
  3  4  1  0
  5  6  2  0
  5  2  1  0
  7  5  1  0
  8  7  1  0
  8  9  1  1
 10  9  1  0
 10 18  1  0
 11 12  1  0
 11 10  2  0
 12 13  1  0
 13 18  2  0
 13 14  1  0
 14 15  2  0
 15 16  1  0
 17 16  2  0
 18 17  1  0
 19  8  1  0
 19 20  2  0
 22 24  1  0
 22 21  1  0
 23 22  2  0
 25 26  1  0
 25 24  1  1
 26 19  1  0
 27 25  1  0
 28 27  1  0
 29 27  2  0
M  END
$$$$
