CWN.pdb
     RDKit          3D

 29 30  0  0  1  0  0  0  0  0999 V2000
   29.1937  -20.8974  -18.6132 N   0  0  0  0  0  0  0  0  0  0  0  0
   28.2693  -19.9630  -18.0815 C   0  0  1  0  0  0  0  0  0  0  0  0
   27.3466  -19.5242  -19.2199 C   0  0  0  0  0  0  0  0  0  0  0  0
   28.1473  -18.2092  -20.1895 S   0  0  0  0  0  0  0  0  0  0  0  0
   27.3871  -20.5128  -17.0062 C   0  0  0  0  0  0  0  0  0  0  0  0
   26.6051  -21.4430  -17.3043 O   0  0  0  0  0  0  0  0  0  0  0  0
   27.4654  -19.9728  -15.6988 N   0  0  0  0  0  0  0  0  0  0  0  0
   26.7259  -20.4877  -14.5826 C   0  0  1  0  0  0  0  0  0  0  0  0
   27.3090  -19.9950  -13.2774 C   0  0  0  0  0  0  0  0  0  0  0  0
   26.5895  -20.6983  -12.1773 C   0  0  0  0  0  0  0  0  0  0  0  0
   26.1086  -21.9833  -12.2148 C   0  0  0  0  0  0  0  0  0  0  0  0
   25.5331  -22.2192  -11.0122 N   0  0  0  0  0  0  0  0  0  0  0  0
   25.6193  -21.1605  -10.2093 C   0  0  0  0  0  0  0  0  0  0  0  0
   25.2370  -20.8289   -8.9291 C   0  0  0  0  0  0  0  0  0  0  0  0
   25.4726  -19.6122   -8.3339 C   0  0  0  0  0  0  0  0  0  0  0  0
   26.1482  -18.6424   -9.0806 C   0  0  0  0  0  0  0  0  0  0  0  0
   26.5513  -18.9323  -10.3722 C   0  0  0  0  0  0  0  0  0  0  0  0
   26.2842  -20.1761  -10.9160 C   0  0  0  0  0  0  0  0  0  0  0  0
   25.3081  -20.2491  -14.7585 C   0  0  0  0  0  0  0  0  0  0  0  0
   24.9279  -19.0717  -15.0999 O   0  0  0  0  0  0  0  0  0  0  0  0
   20.1156  -21.5782  -16.2121 N   0  0  0  0  0  0  0  0  0  0  0  0
   20.7015  -21.9637  -14.9660 C   0  0  0  0  0  0  0  0  0  0  0  0
   19.9665  -22.0447  -13.9666 O   0  0  0  0  0  0  0  0  0  0  0  0
   22.1420  -22.2622  -14.8595 C   0  0  0  0  0  0  0  0  0  0  0  0
   22.9462  -20.9795  -14.6528 C   0  0  2  0  0  0  0  0  0  0  0  0
   24.3478  -21.2719  -14.5624 N   0  0  0  0  0  0  0  0  0  0  0  0
   22.5175  -20.3424  -13.3835 C   0  0  0  0  0  0  0  0  0  0  0  0
   21.5776  -19.3288  -13.4529 O   0  0  0  0  0  0  0  0  0  0  0  0
   22.9743  -20.6942  -12.3018 O   0  0  0  0  0  0  0  0  0  0  0  0
  2  1  1  6
  2  3  1  0
  3  4  1  0
  5  6  2  0
  5  2  1  0
  7  5  1  0
  8  7  1  0
  8  9  1  1
 10  9  1  0
 10 18  1  0
 11 12  1  0
 11 10  2  0
 12 13  1  0
 13 18  2  0
 13 14  1  0
 14 15  2  0
 15 16  1  0
 17 16  2  0
 18 17  1  0
 19  8  1  0
 19 20  2  0
 22 24  1  0
 22 21  1  0
 23 22  2  0
 25 26  1  0
 25 24  1  1
 26 19  1  0
 27 25  1  0
 28 27  1  0
 29 27  2  0
M  END
$$$$
