CWN.pdb
     RDKit          3D

 29 30  0  0  1  0  0  0  0  0999 V2000
   16.0686  -12.6803  -11.5957 N   0  0  0  0  0  0  0  0  0  0  0  0
   15.4810  -11.4008  -11.7634 C   0  0  1  0  0  0  0  0  0  0  0  0
   14.1224  -11.4186  -11.0607 C   0  0  0  0  0  0  0  0  0  0  0  0
   12.9221  -12.3477  -12.0639 S   0  0  0  0  0  0  0  0  0  0  0  0
   16.2611  -10.2799  -11.1539 C   0  0  0  0  0  0  0  0  0  0  0  0
   16.7587  -10.4573  -10.0196 O   0  0  0  0  0  0  0  0  0  0  0  0
   16.4138   -9.0681  -11.8717 N   0  0  0  0  0  0  0  0  0  0  0  0
   17.1351   -7.9343  -11.3693 C   0  0  1  0  0  0  0  0  0  0  0  0
   18.1024   -7.4094  -12.4061 C   0  0  0  0  0  0  0  0  0  0  0  0
   19.2584   -8.3497  -12.4496 C   0  0  0  0  0  0  0  0  0  0  0  0
   19.5510   -9.2285  -13.4626 C   0  0  0  0  0  0  0  0  0  0  0  0
   20.6803   -9.8807  -13.0987 N   0  0  0  0  0  0  0  0  0  0  0  0
   21.1260   -9.4691  -11.9134 C   0  0  0  0  0  0  0  0  0  0  0  0
   22.1812   -9.7528  -11.0761 C   0  0  0  0  0  0  0  0  0  0  0  0
   22.4027   -9.1425   -9.8643 C   0  0  0  0  0  0  0  0  0  0  0  0
   21.4928   -8.1644   -9.4522 C   0  0  0  0  0  0  0  0  0  0  0  0
   20.4170   -7.8469  -10.2624 C   0  0  0  0  0  0  0  0  0  0  0  0
   20.2479   -8.4972  -11.4718 C   0  0  0  0  0  0  0  0  0  0  0  0
   16.2217   -6.9537  -10.8196 C   0  0  0  0  0  0  0  0  0  0  0  0
   15.1586   -6.6748  -11.4826 O   0  0  0  0  0  0  0  0  0  0  0  0
   13.8743   -3.6049   -7.7093 N   0  0  0  0  0  0  0  0  0  0  0  0
   14.2029   -4.8173   -7.0262 C   0  0  0  0  0  0  0  0  0  0  0  0
   13.7026   -5.0197   -5.9062 O   0  0  0  0  0  0  0  0  0  0  0  0
   15.1111   -5.8111   -7.6287 C   0  0  0  0  0  0  0  0  0  0  0  0
   15.5189   -5.3860   -9.0387 C   0  0  2  0  0  0  0  0  0  0  0  0
   16.4749   -6.3051   -9.5860 N   0  0  0  0  0  0  0  0  0  0  0  0
   16.1443   -4.0423   -8.9740 C   0  0  0  0  0  0  0  0  0  0  0  0
   17.4757   -3.9298   -9.3349 O   0  0  0  0  0  0  0  0  0  0  0  0
   15.5119   -3.0561   -8.6139 O   0  0  0  0  0  0  0  0  0  0  0  0
  2  1  1  1
  2  3  1  0
  3  4  1  0
  5  6  2  0
  5  2  1  0
  7  5  1  0
  8  7  1  0
  8  9  1  6
 10  9  1  0
 10 18  1  0
 11 12  1  0
 11 10  2  0
 12 13  1  0
 13 18  2  0
 13 14  1  0
 14 15  2  0
 15 16  1  0
 17 16  2  0
 18 17  1  0
 19  8  1  0
 19 20  2  0
 22 24  1  0
 22 21  1  0
 23 22  2  0
 25 26  1  0
 25 24  1  1
 26 19  1  0
 27 25  1  0
 28 27  1  0
 29 27  2  0
M  END
$$$$
