CWN.pdb
     RDKit          3D

 29 30  0  0  1  0  0  0  0  0999 V2000
   28.4425  -22.3455  -16.3023 N   0  0  0  0  0  0  0  0  0  0  0  0
   28.3130  -21.2219  -15.4473 C   0  0  1  0  0  0  0  0  0  0  0  0
   27.5512  -20.1401  -16.2150 C   0  0  0  0  0  0  0  0  0  0  0  0
   28.6365  -19.3971  -17.4722 S   0  0  0  0  0  0  0  0  0  0  0  0
   27.5348  -21.4851  -14.1976 C   0  0  0  0  0  0  0  0  0  0  0  0
   26.6335  -22.3522  -14.2367 O   0  0  0  0  0  0  0  0  0  0  0  0
   27.8404  -20.7564  -13.0217 N   0  0  0  0  0  0  0  0  0  0  0  0
   27.1232  -20.9044  -11.7881 C   0  0  1  0  0  0  0  0  0  0  0  0
   27.8829  -20.2710  -10.6446 C   0  0  0  0  0  0  0  0  0  0  0  0
   26.9743  -20.2574   -9.4628 C   0  0  0  0  0  0  0  0  0  0  0  0
   25.6027  -20.2986   -9.4942 C   0  0  0  0  0  0  0  0  0  0  0  0
   25.1824  -20.2717   -8.2074 N   0  0  0  0  0  0  0  0  0  0  0  0
   26.2053  -20.2165   -7.3568 C   0  0  0  0  0  0  0  0  0  0  0  0
   26.3843  -20.1744   -5.9925 C   0  0  0  0  0  0  0  0  0  0  0  0
   27.6072  -20.1243   -5.3664 C   0  0  0  0  0  0  0  0  0  0  0  0
   28.7505  -20.1156   -6.1709 C   0  0  0  0  0  0  0  0  0  0  0  0
   28.6178  -20.1570   -7.5477 C   0  0  0  0  0  0  0  0  0  0  0  0
   27.3586  -20.2061   -8.1187 C   0  0  0  0  0  0  0  0  0  0  0  0
   25.7517  -20.4645  -11.9416 C   0  0  0  0  0  0  0  0  0  0  0  0
   25.5402  -19.2695  -12.3597 O   0  0  0  0  0  0  0  0  0  0  0  0
   21.1540  -22.5006  -14.5164 N   0  0  0  0  0  0  0  0  0  0  0  0
   21.3981  -22.3711  -13.1135 C   0  0  0  0  0  0  0  0  0  0  0  0
   20.4361  -22.1227  -12.3660 O   0  0  0  0  0  0  0  0  0  0  0  0
   22.7547  -22.5288  -12.5567 C   0  0  0  0  0  0  0  0  0  0  0  0
   23.4130  -21.1666  -12.3425 C   0  0  2  0  0  0  0  0  0  0  0  0
   24.6568  -21.3119  -11.6423 N   0  0  0  0  0  0  0  0  0  0  0  0
   22.5107  -20.3197  -11.5244 C   0  0  0  0  0  0  0  0  0  0  0  0
   21.7206  -19.3926  -12.1815 O   0  0  0  0  0  0  0  0  0  0  0  0
   22.4583  -20.4285  -10.3047 O   0  0  0  0  0  0  0  0  0  0  0  0
  2  1  1  6
  2  3  1  0
  3  4  1  0
  5  6  2  0
  5  2  1  0
  7  5  1  0
  8  7  1  0
  8  9  1  1
 10  9  1  0
 10 18  1  0
 11 12  1  0
 11 10  2  0
 12 13  1  0
 13 18  2  0
 13 14  1  0
 14 15  2  0
 15 16  1  0
 17 16  2  0
 18 17  1  0
 19  8  1  0
 19 20  2  0
 22 24  1  0
 22 21  1  0
 23 22  2  0
 25 26  1  0
 25 24  1  1
 26 19  1  0
 27 25  1  0
 28 27  1  0
 29 27  2  0
M  END
$$$$
