VRH.pdb
     RDKit          3D

 29 29  0  0  1  0  0  0  0  0999 V2000
   43.5421  -16.8783  -10.8211 C   0  0  0  0  0  0  0  0  0  0  0  0
   43.6916  -15.9185   -9.6709 C   0  0  2  0  0  0  0  0  0  0  0  0
   43.1305  -16.4744   -8.3843 C   0  0  0  0  0  0  0  0  0  0  0  0
   43.2027  -14.5368   -9.9706 C   0  0  2  0  0  0  0  0  0  0  0  0
   43.9406  -14.0453  -11.1486 N   0  0  0  0  0  0  0  0  0  0  0  0
   43.3428  -13.5461   -8.9169 C   0  0  0  0  0  0  0  0  0  0  0  0
   42.5363  -13.5907   -7.9269 O   0  0  0  0  0  0  0  0  0  0  0  0
   47.7306  -10.2272   -3.6787 N   0  0  0  0  0  0  0  0  0  0  0  0
   47.4496   -8.8626   -3.9732 C   0  0  0  0  0  0  0  0  0  0  0  0
   47.4385   -7.9394   -3.0813 N   0  0  0  0  0  0  0  0  0  0  0  0
   47.1597   -8.4667   -5.3290 N   0  0  0  0  0  0  0  0  0  0  0  0
   47.1937   -9.3941   -6.4162 C   0  0  0  0  0  0  0  0  0  0  0  0
   45.8043  -10.0016   -6.5677 C   0  0  0  0  0  0  0  0  0  0  0  0
   45.7131  -10.9130   -7.7428 C   0  0  0  0  0  0  0  0  0  0  0  0
   44.2986  -11.5199   -7.7593 C   0  0  2  0  0  0  0  0  0  0  0  0
   44.2932  -12.4912   -8.8290 N   0  0  0  0  0  0  0  0  0  0  0  0
   43.3900  -10.3947   -7.9095 C   0  0  0  0  0  0  0  0  0  0  0  0
   43.2086   -9.9380   -9.0647 O   0  0  0  0  0  0  0  0  0  0  0  0
   47.2774   -6.9423   -3.3028 N   0  0  0  0  0  0  0  0  0  0  0  0
   42.6656   -9.7417   -6.8496 C   0  0  2  0  0  0  0  0  0  0  0  0
   41.6284   -8.7774   -7.1614 C   0  0  0  0  0  0  0  0  0  0  0  0
   40.3929   -8.8873   -6.3552 C   0  0  0  0  0  0  0  0  0  0  0  0
   39.5773  -10.0724   -6.4953 C   0  0  0  0  0  0  0  0  0  0  0  0
   39.6671  -11.1139   -7.3623 N   0  0  0  0  0  0  0  0  0  0  0  0
   38.6943  -12.0277   -7.1075 C   0  0  0  0  0  0  0  0  0  0  0  0
   38.0096  -11.5284   -6.0715 N   0  0  0  0  0  0  0  0  0  0  0  0
   38.5146  -10.3564   -5.6808 C   0  0  0  0  0  0  0  0  0  0  0  0
   42.1814   -7.3963   -7.1924 O   0  0  0  0  0  0  0  0  0  0  0  0
   41.3712   -6.3750   -7.6079 O   0  0  0  0  0  0  0  0  0  0  0  0
  2  1  1  6
  3  2  1  0
  4  2  1  0
  4  5  1  6
  6  4  1  0
  7  6  2  0
  9  8  1  0
  9 11  1  0
 10  9  2  0
 12 11  1  0
 12 13  1  0
 13 14  1  0
 15 14  1  6
 15 16  1  0
 16  6  1  0
 17 15  1  0
 17 18  2  0
 19 17  1  0
 20 19  1  0
 20 21  1  1
 21 22  1  0
 22 26  1  0
 22 23  2  0
 23 24  1  0
 25 24  1  0
 26 25  2  0
 27 20  1  0
 28 27  1  0
 29 27  2  0
M  END
$$$$
