VRH.pdb
     RDKit          3D

 29 29  0  0  1  0  0  0  0  0999 V2000
   21.4179  -21.4640   -9.1687 C   0  0  0  0  0  0  0  0  0  0  0  0
   20.1685  -21.1566   -9.9507 C   0  0  2  0  0  0  0  0  0  0  0  0
   19.0580  -22.1386   -9.6653 C   0  0  0  0  0  0  0  0  0  0  0  0
   20.4067  -20.9557  -11.4139 C   0  0  2  0  0  0  0  0  0  0  0  0
   20.5723  -22.2857  -12.0284 N   0  0  0  0  0  0  0  0  0  0  0  0
   21.5563  -20.1499  -11.7889 C   0  0  0  0  0  0  0  0  0  0  0  0
   21.4967  -18.8853  -11.6166 O   0  0  0  0  0  0  0  0  0  0  0  0
   29.5758  -20.9341  -10.1962 N   0  0  0  0  0  0  0  0  0  0  0  0
   28.9161  -21.2842  -11.4087 C   0  0  0  0  0  0  0  0  0  0  0  0
   29.5287  -21.7708  -12.4265 N   0  0  0  0  0  0  0  0  0  0  0  0
   27.4919  -21.0952  -11.5305 N   0  0  0  0  0  0  0  0  0  0  0  0
   26.6929  -20.6141  -10.4472 C   0  0  0  0  0  0  0  0  0  0  0  0
   25.2529  -20.4980  -10.9322 C   0  0  0  0  0  0  0  0  0  0  0  0
   25.1652  -20.3870  -12.4154 C   0  0  0  0  0  0  0  0  0  0  0  0
   23.8380  -19.6865  -12.7575 C   0  0  2  0  0  0  0  0  0  0  0  0
   22.7905  -20.5910  -12.3421 N   0  0  0  0  0  0  0  0  0  0  0  0
   23.9046  -19.3914  -14.1797 C   0  0  0  0  0  0  0  0  0  0  0  0
   24.2259  -20.3232  -14.9572 O   0  0  0  0  0  0  0  0  0  0  0  0
   29.0506  -22.0116  -13.3112 N   0  0  0  0  0  0  0  0  0  0  0  0
   23.6344  -18.1178  -14.7956 C   0  0  2  0  0  0  0  0  0  0  0  0
   23.5880  -18.0014  -16.2403 C   0  0  0  0  0  0  0  0  0  0  0  0
   24.8073  -18.4393  -16.9544 C   0  0  0  0  0  0  0  0  0  0  0  0
   24.8626  -18.2842  -18.3905 C   0  0  0  0  0  0  0  0  0  0  0  0
   23.9981  -17.6893  -19.2525 N   0  0  0  0  0  0  0  0  0  0  0  0
   24.4744  -17.7571  -20.5233 C   0  0  0  0  0  0  0  0  0  0  0  0
   25.6431  -18.4018  -20.4237 N   0  0  0  0  0  0  0  0  0  0  0  0
   25.9045  -18.7313  -19.1571 C   0  0  0  0  0  0  0  0  0  0  0  0
   22.3452  -18.6152  -16.7813 O   0  0  0  0  0  0  0  0  0  0  0  0
   21.5404  -17.8610  -17.5911 O   0  0  0  0  0  0  0  0  0  0  0  0
  2  1  1  1
  3  2  1  0
  4  2  1  0
  4  5  1  6
  6  4  1  0
  7  6  2  0
  9  8  1  0
  9 11  1  0
 10  9  2  0
 12 11  1  0
 12 13  1  0
 13 14  1  0
 15 14  1  6
 15 16  1  0
 16  6  1  0
 17 15  1  0
 17 18  2  0
 19 17  1  0
 20 19  1  0
 20 21  1  1
 21 22  1  0
 22 26  1  0
 22 23  2  0
 23 24  1  0
 25 24  1  0
 26 25  2  0
 27 20  1  0
 28 27  1  0
 29 27  2  0
M  END
$$$$
