VRH.pdb
     RDKit          3D

 29 29  0  0  1  0  0  0  0  0999 V2000
   19.2796  -30.1460   -8.7952 C   0  0  0  0  0  0  0  0  0  0  0  0
   19.2858  -29.9140  -10.2828 C   0  0  2  0  0  0  0  0  0  0  0  0
   19.6835  -31.1497  -11.0536 C   0  0  0  0  0  0  0  0  0  0  0  0
   20.0482  -28.6965  -10.7004 C   0  0  2  0  0  0  0  0  0  0  0  0
   21.4822  -28.9735  -10.4978 N   0  0  0  0  0  0  0  0  0  0  0  0
   19.7365  -27.4561  -10.0106 C   0  0  0  0  0  0  0  0  0  0  0  0
   20.4206  -27.1445   -8.9774 O   0  0  0  0  0  0  0  0  0  0  0  0
   21.2361  -21.8539  -13.4669 N   0  0  0  0  0  0  0  0  0  0  0  0
   20.0781  -22.4870  -14.0020 C   0  0  0  0  0  0  0  0  0  0  0  0
   20.0266  -22.9677  -15.1912 N   0  0  0  0  0  0  0  0  0  0  0  0
   18.8902  -22.6098  -13.1941 N   0  0  0  0  0  0  0  0  0  0  0  0
   18.8631  -22.2252  -11.8177 C   0  0  0  0  0  0  0  0  0  0  0  0
   19.2350  -23.4400  -10.9761 C   0  0  0  0  0  0  0  0  0  0  0  0
   18.0396  -24.2308  -10.5692 C   0  0  0  0  0  0  0  0  0  0  0  0
   18.5030  -25.3022   -9.5658 C   0  0  2  0  0  0  0  0  0  0  0  0
   18.7360  -26.4999  -10.3398 N   0  0  0  0  0  0  0  0  0  0  0  0
   17.4539  -25.3805   -8.5621 C   0  0  0  0  0  0  0  0  0  0  0  0
   16.4580  -26.1032   -8.8104 O   0  0  0  0  0  0  0  0  0  0  0  0
   19.1763  -23.4019  -15.5883 N   0  0  0  0  0  0  0  0  0  0  0  0
   17.4426  -24.7019   -7.2917 C   0  0  1  0  0  0  0  0  0  0  0  0
   16.3367  -24.8917   -6.3732 C   0  0  0  0  0  0  0  0  0  0  0  0
   16.6627  -24.7242   -4.9400 C   0  0  0  0  0  0  0  0  0  0  0  0
   17.5852  -25.6523   -4.3261 C   0  0  0  0  0  0  0  0  0  0  0  0
   17.4157  -26.9401   -3.9292 N   0  0  0  0  0  0  0  0  0  0  0  0
   18.5753  -27.4367   -3.4242 C   0  0  0  0  0  0  0  0  0  0  0  0
   19.4554  -26.4328   -3.5195 N   0  0  0  0  0  0  0  0  0  0  0  0
   18.8922  -25.3484   -4.0566 C   0  0  0  0  0  0  0  0  0  0  0  0
   15.1535  -24.0953   -6.7973 O   0  0  0  0  0  0  0  0  0  0  0  0
   13.9636  -24.2947   -6.1518 O   0  0  0  0  0  0  0  0  0  0  0  0
  2  1  1  1
  3  2  1  0
  4  2  1  0
  4  5  1  1
  6  4  1  0
  7  6  2  0
  9  8  1  0
  9 11  1  0
 10  9  2  0
 12 11  1  0
 12 13  1  0
 13 14  1  0
 15 14  1  6
 15 16  1  0
 16  6  1  0
 17 15  1  0
 17 18  2  0
 19 17  1  0
 20 19  1  0
 20 21  1  6
 21 22  1  0
 22 26  1  0
 22 23  2  0
 23 24  1  0
 25 24  1  0
 26 25  2  0
 27 20  1  0
 28 27  1  0
 29 27  2  0
M  END
$$$$
