VRH.pdb
     RDKit          3D

 29 29  0  0  1  0  0  0  0  0999 V2000
   13.9295  -20.3157    2.4572 C   0  0  0  0  0  0  0  0  0  0  0  0
   15.0184  -20.1978    3.4903 C   0  0  2  0  0  0  0  0  0  0  0  0
   14.4978  -19.7001    4.8171 C   0  0  0  0  0  0  0  0  0  0  0  0
   16.2206  -19.4440    3.0165 C   0  0  2  0  0  0  0  0  0  0  0  0
   16.7221  -20.1157    1.8034 N   0  0  0  0  0  0  0  0  0  0  0  0
   17.3310  -19.3246    3.9460 C   0  0  0  0  0  0  0  0  0  0  0  0
   18.0776  -20.3436    4.1381 O   0  0  0  0  0  0  0  0  0  0  0  0
   17.7684  -11.5580    6.1332 N   0  0  0  0  0  0  0  0  0  0  0  0
   16.8733  -12.2960    5.3073 C   0  0  0  0  0  0  0  0  0  0  0  0
   15.9071  -11.7539    4.6587 N   0  0  0  0  0  0  0  0  0  0  0  0
   17.0334  -13.7225    5.1723 N   0  0  0  0  0  0  0  0  0  0  0  0
   18.1279  -14.4248    5.7656 C   0  0  0  0  0  0  0  0  0  0  0  0
   17.9628  -15.9090    5.4615 C   0  0  0  0  0  0  0  0  0  0  0  0
   19.0937  -16.7217    5.9909 C   0  0  0  0  0  0  0  0  0  0  0  0
   18.8199  -18.1950    5.6389 C   0  0  2  0  0  0  0  0  0  0  0  0
   17.7202  -18.1839    4.7017 N   0  0  0  0  0  0  0  0  0  0  0  0
   18.5756  -18.8631    6.9071 C   0  0  0  0  0  0  0  0  0  0  0  0
   17.3828  -19.0578    7.2468 O   0  0  0  0  0  0  0  0  0  0  0  0
   15.2498  -12.2928    4.0699 N   0  0  0  0  0  0  0  0  0  0  0  0
   19.5802  -19.3314    7.8269 C   0  0  1  0  0  0  0  0  0  0  0  0
   19.1951  -20.0700    9.0138 C   0  0  0  0  0  0  0  0  0  0  0  0
   18.3812  -21.2819    8.7742 C   0  0  0  0  0  0  0  0  0  0  0  0
   18.8313  -22.2342    7.7842 C   0  0  0  0  0  0  0  0  0  0  0  0
   20.0837  -22.5647    7.3760 N   0  0  0  0  0  0  0  0  0  0  0  0
   20.0323  -23.5413    6.4327 C   0  0  0  0  0  0  0  0  0  0  0  0
   18.7295  -23.8024    6.2717 N   0  0  0  0  0  0  0  0  0  0  0  0
   17.9828  -23.0349    7.0685 C   0  0  0  0  0  0  0  0  0  0  0  0
   20.3742  -20.3244    9.8850 O   0  0  0  0  0  0  0  0  0  0  0  0
   21.6141  -19.9652    9.4312 O   0  0  0  0  0  0  0  0  0  0  0  0
  2  1  1  6
  3  2  1  0
  4  2  1  0
  4  5  1  6
  6  4  1  0
  7  6  2  0
  9  8  1  0
  9 11  1  0
 10  9  2  0
 12 11  1  0
 12 13  1  0
 13 14  1  0
 15 14  1  1
 15 16  1  0
 16  6  1  0
 17 15  1  0
 17 18  2  0
 19 17  1  0
 20 19  1  0
 20 21  1  1
 21 22  1  0
 22 26  1  0
 22 23  2  0
 23 24  1  0
 25 24  1  0
 26 25  2  0
 27 20  1  0
 28 27  1  0
 29 27  2  0
M  END
$$$$
