VRH.pdb
     RDKit          3D

 29 29  0  0  1  0  0  0  0  0999 V2000
   25.0123  -26.6267  -16.9766 C   0  0  0  0  0  0  0  0  0  0  0  0
   25.9217  -25.8665  -17.9050 C   0  0  2  0  0  0  0  0  0  0  0  0
   26.5006  -26.7459  -18.9870 C   0  0  0  0  0  0  0  0  0  0  0  0
   26.9591  -25.0513  -17.1997 C   0  0  2  0  0  0  0  0  0  0  0  0
   27.8676  -25.9833  -16.5069 N   0  0  0  0  0  0  0  0  0  0  0  0
   26.4853  -24.0873  -16.2212 C   0  0  0  0  0  0  0  0  0  0  0  0
   26.4910  -24.4183  -14.9871 O   0  0  0  0  0  0  0  0  0  0  0  0
   30.0435  -18.1806  -17.9887 N   0  0  0  0  0  0  0  0  0  0  0  0
   28.7092  -18.4388  -18.4140 C   0  0  0  0  0  0  0  0  0  0  0  0
   28.3325  -18.3502  -19.6380 N   0  0  0  0  0  0  0  0  0  0  0  0
   27.7097  -18.8203  -17.4473 N   0  0  0  0  0  0  0  0  0  0  0  0
   28.0241  -19.0239  -16.0678 C   0  0  0  0  0  0  0  0  0  0  0  0
   27.4793  -20.3847  -15.6508 C   0  0  0  0  0  0  0  0  0  0  0  0
   26.0012  -20.4742  -15.8152 C   0  0  0  0  0  0  0  0  0  0  0  0
   25.5656  -21.8895  -15.3950 C   0  0  2  0  0  0  0  0  0  0  0  0
   25.9979  -22.7714  -16.4548 N   0  0  0  0  0  0  0  0  0  0  0  0
   24.1310  -21.8091  -15.1720 C   0  0  0  0  0  0  0  0  0  0  0  0
   23.3818  -21.7844  -16.1790 O   0  0  0  0  0  0  0  0  0  0  0  0
   27.3756  -18.5840  -19.9526 N   0  0  0  0  0  0  0  0  0  0  0  0
   23.4730  -21.7545  -13.8919 C   0  0  1  0  0  0  0  0  0  0  0  0
   22.0332  -21.5989  -13.8179 C   0  0  0  0  0  0  0  0  0  0  0  0
   21.4427  -21.7643  -12.4717 C   0  0  0  0  0  0  0  0  0  0  0  0
   20.0139  -21.6084  -12.3179 C   0  0  0  0  0  0  0  0  0  0  0  0
   19.2273  -20.5047  -12.4058 N   0  0  0  0  0  0  0  0  0  0  0  0
   17.9234  -20.8359  -12.2151 C   0  0  0  0  0  0  0  0  0  0  0  0
   17.9259  -22.1586  -12.0101 N   0  0  0  0  0  0  0  0  0  0  0  0
   19.1649  -22.6518  -12.0657 C   0  0  0  0  0  0  0  0  0  0  0  0
   21.6008  -20.3450  -14.4924 O   0  0  0  0  0  0  0  0  0  0  0  0
   20.5111  -20.3875  -15.3189 O   0  0  0  0  0  0  0  0  0  0  0  0
  2  1  1  1
  3  2  1  0
  4  2  1  0
  4  5  1  1
  6  4  1  0
  7  6  2  0
  9  8  1  0
  9 11  1  0
 10  9  2  0
 12 11  1  0
 12 13  1  0
 13 14  1  0
 15 14  1  6
 15 16  1  0
 16  6  1  0
 17 15  1  0
 17 18  2  0
 19 17  1  0
 20 19  1  0
 20 21  1  1
 21 22  1  0
 22 26  1  0
 22 23  2  0
 23 24  1  0
 25 24  1  0
 26 25  2  0
 27 20  1  0
 28 27  1  0
 29 27  2  0
M  END
$$$$
