VRH.pdb
     RDKit          3D

 29 29  0  0  1  0  0  0  0  0999 V2000
   16.3330  -25.0086  -11.2736 C   0  0  0  0  0  0  0  0  0  0  0  0
   16.7344  -23.5816  -11.5369 C   0  0  2  0  0  0  0  0  0  0  0  0
   15.5426  -22.6858  -11.7742 C   0  0  0  0  0  0  0  0  0  0  0  0
   17.7907  -23.4358  -12.5862 C   0  0  2  0  0  0  0  0  0  0  0  0
   18.6435  -24.6375  -12.5346 N   0  0  0  0  0  0  0  0  0  0  0  0
   18.6584  -22.2743  -12.4896 C   0  0  0  0  0  0  0  0  0  0  0  0
   18.1424  -21.1142  -12.6333 O   0  0  0  0  0  0  0  0  0  0  0  0
   27.2838  -21.6077  -11.3210 N   0  0  0  0  0  0  0  0  0  0  0  0
   26.5589  -21.6972  -12.5435 C   0  0  0  0  0  0  0  0  0  0  0  0
   27.0805  -22.1123  -13.6406 N   0  0  0  0  0  0  0  0  0  0  0  0
   25.1705  -21.3104  -12.5838 N   0  0  0  0  0  0  0  0  0  0  0  0
   24.5730  -20.5123  -11.5594 C   0  0  0  0  0  0  0  0  0  0  0  0
   23.1313  -20.2240  -11.9602 C   0  0  0  0  0  0  0  0  0  0  0  0
   22.2909  -21.4542  -11.9643 C   0  0  0  0  0  0  0  0  0  0  0  0
   20.8481  -21.0377  -12.3023 C   0  0  2  0  0  0  0  0  0  0  0  0
   20.0596  -22.2472  -12.2452 N   0  0  0  0  0  0  0  0  0  0  0  0
   20.9220  -20.3803  -13.5971 C   0  0  0  0  0  0  0  0  0  0  0  0
   21.2677  -21.0713  -14.5865 O   0  0  0  0  0  0  0  0  0  0  0  0
   26.5701  -22.1231  -14.5398 N   0  0  0  0  0  0  0  0  0  0  0  0
   20.6336  -18.9944  -13.8627 C   0  0  2  0  0  0  0  0  0  0  0  0
   20.6672  -18.4898  -15.2218 C   0  0  0  0  0  0  0  0  0  0  0  0
   19.9126  -17.2391  -15.4561 C   0  0  0  0  0  0  0  0  0  0  0  0
   19.8176  -16.7297  -16.8055 C   0  0  0  0  0  0  0  0  0  0  0  0
   19.4588  -17.3438  -17.9625 N   0  0  0  0  0  0  0  0  0  0  0  0
   19.4853  -16.4613  -18.9953 C   0  0  0  0  0  0  0  0  0  0  0  0
   19.8652  -15.2990  -18.4511 N   0  0  0  0  0  0  0  0  0  0  0  0
   20.0722  -15.4269  -17.1388 C   0  0  0  0  0  0  0  0  0  0  0  0
   22.0645  -18.4296  -15.7298 O   0  0  0  0  0  0  0  0  0  0  0  0
   22.2905  -18.6739  -17.0570 O   0  0  0  0  0  0  0  0  0  0  0  0
  2  1  1  6
  3  2  1  0
  4  2  1  0
  4  5  1  1
  6  4  1  0
  7  6  2  0
  9  8  1  0
  9 11  1  0
 10  9  2  0
 12 11  1  0
 12 13  1  0
 13 14  1  0
 15 14  1  6
 15 16  1  0
 16  6  1  0
 17 15  1  0
 17 18  2  0
 19 17  1  0
 20 19  1  0
 20 21  1  1
 21 22  1  0
 22 26  1  0
 22 23  2  0
 23 24  1  0
 25 24  1  0
 26 25  2  0
 27 20  1  0
 28 27  1  0
 29 27  2  0
M  END
$$$$
