VRH.pdb
     RDKit          3D

 29 29  0  0  1  0  0  0  0  0999 V2000
   14.4137  -11.7112  -11.4211 C   0  0  0  0  0  0  0  0  0  0  0  0
   14.4008  -11.6663   -9.9162 C   0  0  2  0  0  0  0  0  0  0  0  0
   13.8464  -12.9329   -9.3101 C   0  0  0  0  0  0  0  0  0  0  0  0
   13.7742  -10.4291   -9.3550 C   0  0  2  0  0  0  0  0  0  0  0  0
   12.3303  -10.4848   -9.6480 N   0  0  0  0  0  0  0  0  0  0  0  0
   14.2756   -9.1567   -9.8459 C   0  0  0  0  0  0  0  0  0  0  0  0
   13.7346   -8.6487  -10.8860 O   0  0  0  0  0  0  0  0  0  0  0  0
   14.3982   -2.0258   -6.0649 N   0  0  0  0  0  0  0  0  0  0  0  0
   13.5539   -3.1723   -6.0366 C   0  0  0  0  0  0  0  0  0  0  0  0
   12.5816   -3.3083   -5.2095 N   0  0  0  0  0  0  0  0  0  0  0  0
   13.7759   -4.2494   -6.9690 N   0  0  0  0  0  0  0  0  0  0  0  0
   14.7274   -4.1521   -8.0314 C   0  0  0  0  0  0  0  0  0  0  0  0
   14.6685   -5.4404   -8.8432 C   0  0  0  0  0  0  0  0  0  0  0  0
   15.9982   -6.1052   -8.9422 C   0  0  0  0  0  0  0  0  0  0  0  0
   15.8882   -7.2238   -9.9938 C   0  0  2  0  0  0  0  0  0  0  0  0
   15.3266   -8.3640   -9.3067 N   0  0  0  0  0  0  0  0  0  0  0  0
   17.2297   -7.3935  -10.5287 C   0  0  0  0  0  0  0  0  0  0  0  0
   18.1689   -7.5619   -9.7130 O   0  0  0  0  0  0  0  0  0  0  0  0
   11.9786   -4.1478   -5.1802 N   0  0  0  0  0  0  0  0  0  0  0  0
   17.5946   -7.3882  -11.9220 C   0  0  1  0  0  0  0  0  0  0  0  0
   18.9780   -7.5753  -12.3144 C   0  0  0  0  0  0  0  0  0  0  0  0
   19.2319   -8.7042  -13.2361 C   0  0  0  0  0  0  0  0  0  0  0  0
   20.5862   -8.9446  -13.6806 C   0  0  0  0  0  0  0  0  0  0  0  0
   21.7261   -9.1620  -12.9752 N   0  0  0  0  0  0  0  0  0  0  0  0
   22.7719   -9.3705  -13.8173 C   0  0  0  0  0  0  0  0  0  0  0  0
   22.2528   -9.2777  -15.0475 N   0  0  0  0  0  0  0  0  0  0  0  0
   20.9436   -9.0229  -14.9995 C   0  0  0  0  0  0  0  0  0  0  0  0
   19.5724   -6.2951  -12.7855 O   0  0  0  0  0  0  0  0  0  0  0  0
   20.9353   -6.1875  -12.8438 O   0  0  0  0  0  0  0  0  0  0  0  0
  2  1  1  6
  3  2  1  0
  4  2  1  0
  4  5  1  6
  6  4  1  0
  7  6  2  0
  9  8  1  0
  9 11  1  0
 10  9  2  0
 12 11  1  0
 12 13  1  0
 13 14  1  0
 15 14  1  1
 15 16  1  0
 16  6  1  0
 17 15  1  0
 17 18  2  0
 19 17  1  0
 20 19  1  0
 20 21  1  6
 21 22  1  0
 22 26  1  0
 22 23  2  0
 23 24  1  0
 25 24  1  0
 26 25  2  0
 27 20  1  0
 28 27  1  0
 29 27  2  0
M  END
$$$$
