DCW.pdb
     RDKit          3D

 29 30  0  0  1  0  0  0  0  0999 V2000
   10.7226  -18.6661   18.8112 N   0  0  0  0  0  0  0  0  0  0  0  0
   10.0227  -18.6756   20.0515 C   0  0  1  0  0  0  0  0  0  0  0  0
   10.6985  -19.5427   21.0845 C   0  0  0  0  0  0  0  0  0  0  0  0
   10.7712  -20.9609   20.7327 C   0  0  0  0  0  0  0  0  0  0  0  0
   11.2209  -21.8371   21.5082 O   0  0  0  0  0  0  0  0  0  0  0  0
    9.8368  -17.3199   20.6456 C   0  0  0  0  0  0  0  0  0  0  0  0
   10.8195  -16.5165   20.6597 O   0  0  0  0  0  0  0  0  0  0  0  0
   10.3341  -21.4235   19.4878 O   0  0  0  0  0  0  0  0  0  0  0  0
    8.6473  -16.8403   21.2037 N   0  0  0  0  0  0  0  0  0  0  0  0
    8.4319  -15.5058   21.6623 C   0  0  1  0  0  0  0  0  0  0  0  0
    7.0798  -14.9513   21.4061 C   0  0  0  0  0  0  0  0  0  0  0  0
    6.9402  -13.3035   22.1011 S   0  0  0  0  0  0  0  0  0  0  0  0
    8.8390  -15.3536   23.1067 C   0  0  0  0  0  0  0  0  0  0  0  0
    8.9040  -14.1952   23.5898 O   0  0  0  0  0  0  0  0  0  0  0  0
    9.1499  -16.4393   23.9422 N   0  0  0  0  0  0  0  0  0  0  0  0
   10.0177  -16.3871   25.1101 C   0  0  1  0  0  0  0  0  0  0  0  0
    9.2781  -16.1107   26.3555 C   0  0  0  0  0  0  0  0  0  0  0  0
    8.0015  -15.4231   26.1163 C   0  0  0  0  0  0  0  0  0  0  0  0
    6.7900  -16.0142   25.7188 C   0  0  0  0  0  0  0  0  0  0  0  0
    5.8447  -15.0756   25.5572 N   0  0  0  0  0  0  0  0  0  0  0  0
    6.3703  -13.8632   25.8321 C   0  0  0  0  0  0  0  0  0  0  0  0
    5.8192  -12.6030   25.8337 C   0  0  0  0  0  0  0  0  0  0  0  0
    6.5748  -11.5063   26.1818 C   0  0  0  0  0  0  0  0  0  0  0  0
    7.8950  -11.7031   26.5278 C   0  0  0  0  0  0  0  0  0  0  0  0
    8.4599  -12.9582   26.5297 C   0  0  0  0  0  0  0  0  0  0  0  0
    7.6974  -14.0606   26.1782 C   0  0  0  0  0  0  0  0  0  0  0  0
   10.9915  -17.4453   25.1885 C   0  0  0  0  0  0  0  0  0  0  0  0
   11.9626  -17.3428   26.2138 O   0  0  0  0  0  0  0  0  0  0  0  0
   11.0421  -18.4260   24.4357 O   0  0  0  0  0  0  0  0  0  0  0  0
  2  1  1  6
  3  2  1  0
  4  3  1  0
  5  4  2  0
  6  2  1  0
  7  6  2  0
  8  4  1  0
  9  6  1  0
 10  9  1  0
 10 11  1  1
 12 11  1  0
 13 14  2  0
 13 10  1  0
 15 13  1  0
 16 15  1  0
 16 17  1  1
 18 19  2  0
 18 17  1  0
 20 19  1  0
 21 26  2  0
 21 20  1  0
 22 21  1  0
 23 24  1  0
 23 22  2  0
 24 25  2  0
 25 26  1  0
 26 18  1  0
 27 16  1  0
 28 27  1  0
 29 27  2  0
M  END
$$$$
