DCW.pdb
     RDKit          3D

 29 30  0  0  1  0  0  0  0  0999 V2000
   11.0799  -17.5963   17.6064 N   0  0  0  0  0  0  0  0  0  0  0  0
   11.6438  -17.7135   18.9089 C   0  0  1  0  0  0  0  0  0  0  0  0
   12.9974  -17.0554   19.0091 C   0  0  0  0  0  0  0  0  0  0  0  0
   14.0156  -17.6242   18.1259 C   0  0  0  0  0  0  0  0  0  0  0  0
   14.5874  -16.9655   17.2255 O   0  0  0  0  0  0  0  0  0  0  0  0
   10.7820  -17.1499   19.9883 C   0  0  0  0  0  0  0  0  0  0  0  0
   10.5354  -15.9047   19.9887 O   0  0  0  0  0  0  0  0  0  0  0  0
   14.4130  -18.9597   18.2415 O   0  0  0  0  0  0  0  0  0  0  0  0
   10.2060  -17.8873   21.0279 N   0  0  0  0  0  0  0  0  0  0  0  0
    9.2692  -17.3792   21.9776 C   0  0  1  0  0  0  0  0  0  0  0  0
    7.9308  -18.0195   21.9621 C   0  0  0  0  0  0  0  0  0  0  0  0
    7.7072  -19.0312   23.4264 S   0  0  0  0  0  0  0  0  0  0  0  0
    9.8622  -17.3464   23.3640 C   0  0  0  0  0  0  0  0  0  0  0  0
   10.6666  -18.2550   23.6911 O   0  0  0  0  0  0  0  0  0  0  0  0
    9.5630  -16.3528   24.3111 N   0  0  0  0  0  0  0  0  0  0  0  0
   10.0506  -16.3164   25.6825 C   0  0  1  0  0  0  0  0  0  0  0  0
    9.7577  -15.0375   26.3557 C   0  0  0  0  0  0  0  0  0  0  0  0
    8.3480  -14.6411   26.2318 C   0  0  0  0  0  0  0  0  0  0  0  0
    7.2376  -15.4990   26.1513 C   0  0  0  0  0  0  0  0  0  0  0  0
    6.1091  -14.7877   26.0046 N   0  0  0  0  0  0  0  0  0  0  0  0
    6.4121  -13.4726   25.9832 C   0  0  0  0  0  0  0  0  0  0  0  0
    5.6235  -12.3509   25.8745 C   0  0  0  0  0  0  0  0  0  0  0  0
    6.1829  -11.0935   25.9034 C   0  0  0  0  0  0  0  0  0  0  0  0
    7.5507  -10.9877   26.0435 C   0  0  0  0  0  0  0  0  0  0  0  0
    8.3520  -12.1014   26.1524 C   0  0  0  0  0  0  0  0  0  0  0  0
    7.7865  -13.3662   26.1223 C   0  0  0  0  0  0  0  0  0  0  0  0
    9.7762  -17.5010   26.4542 C   0  0  0  0  0  0  0  0  0  0  0  0
   10.5351  -17.6814   27.6358 O   0  0  0  0  0  0  0  0  0  0  0  0
    8.9365  -18.3625   26.1652 O   0  0  0  0  0  0  0  0  0  0  0  0
  2  1  1  6
  3  2  1  0
  4  3  1  0
  5  4  2  0
  6  2  1  0
  7  6  2  0
  8  4  1  0
  9  6  1  0
 10  9  1  0
 10 11  1  1
 12 11  1  0
 13 14  2  0
 13 10  1  0
 15 13  1  0
 16 15  1  0
 16 17  1  1
 18 19  2  0
 18 17  1  0
 20 19  1  0
 21 26  2  0
 21 20  1  0
 22 21  1  0
 23 24  1  0
 23 22  2  0
 24 25  2  0
 25 26  1  0
 26 18  1  0
 27 16  1  0
 28 27  1  0
 29 27  2  0
M  END
$$$$
