DCW.pdb
     RDKit          3D

 29 30  0  0  1  0  0  0  0  0999 V2000
   11.7494  -19.4785   17.1083 N   0  0  0  0  0  0  0  0  0  0  0  0
   12.3726  -18.7972   18.1926 C   0  0  1  0  0  0  0  0  0  0  0  0
   13.4149  -17.8111   17.7271 C   0  0  0  0  0  0  0  0  0  0  0  0
   14.7811  -18.3342   17.7112 C   0  0  0  0  0  0  0  0  0  0  0  0
   15.1833  -19.2243   18.4970 O   0  0  0  0  0  0  0  0  0  0  0  0
   11.4144  -18.0664   19.0719 C   0  0  0  0  0  0  0  0  0  0  0  0
   11.0100  -16.9169   18.7162 O   0  0  0  0  0  0  0  0  0  0  0  0
   15.7297  -17.8594   16.8004 O   0  0  0  0  0  0  0  0  0  0  0  0
   10.9074  -18.5443   20.2847 N   0  0  0  0  0  0  0  0  0  0  0  0
    9.9599  -17.8634   21.1070 C   0  0  1  0  0  0  0  0  0  0  0  0
    8.6895  -18.5888   21.3550 C   0  0  0  0  0  0  0  0  0  0  0  0
    8.9883  -20.0416   22.3639 S   0  0  0  0  0  0  0  0  0  0  0  0
   10.5950  -17.3848   22.3886 C   0  0  0  0  0  0  0  0  0  0  0  0
   11.2415  -18.2118   23.0797 O   0  0  0  0  0  0  0  0  0  0  0  0
   10.5024  -16.0618   22.8519 N   0  0  0  0  0  0  0  0  0  0  0  0
    9.6416  -15.6016   23.9322 C   0  0  1  0  0  0  0  0  0  0  0  0
    8.2800  -15.2716   23.4722 C   0  0  0  0  0  0  0  0  0  0  0  0
    7.4306  -14.7418   24.5482 C   0  0  0  0  0  0  0  0  0  0  0  0
    6.4775  -15.4551   25.2952 C   0  0  0  0  0  0  0  0  0  0  0  0
    5.8620  -14.6396   26.1651 N   0  0  0  0  0  0  0  0  0  0  0  0
    6.3638  -13.3932   26.0374 C   0  0  0  0  0  0  0  0  0  0  0  0
    6.0875  -12.2203   26.7008 C   0  0  0  0  0  0  0  0  0  0  0  0
    6.7683  -11.0635   26.3956 C   0  0  0  0  0  0  0  0  0  0  0  0
    7.7318  -11.1106   25.4102 C   0  0  0  0  0  0  0  0  0  0  0  0
    8.0180  -12.2769   24.7376 C   0  0  0  0  0  0  0  0  0  0  0  0
    7.3307  -13.4399   25.0462 C   0  0  0  0  0  0  0  0  0  0  0  0
    9.7163  -16.3822   25.1402 C   0  0  0  0  0  0  0  0  0  0  0  0
    9.3603  -17.7488   25.0387 O   0  0  0  0  0  0  0  0  0  0  0  0
   10.0647  -15.9527   26.2470 O   0  0  0  0  0  0  0  0  0  0  0  0
  2  1  1  6
  3  2  1  0
  4  3  1  0
  5  4  2  0
  6  2  1  0
  7  6  2  0
  8  4  1  0
  9  6  1  0
 10  9  1  0
 10 11  1  1
 12 11  1  0
 13 14  2  0
 13 10  1  0
 15 13  1  0
 16 15  1  0
 16 17  1  6
 18 19  2  0
 18 17  1  0
 20 19  1  0
 21 26  2  0
 21 20  1  0
 22 21  1  0
 23 24  1  0
 23 22  2  0
 24 25  2  0
 25 26  1  0
 26 18  1  0
 27 16  1  0
 28 27  1  0
 29 27  2  0
M  END
$$$$
