DCW.pdb
     RDKit          3D

 29 30  0  0  1  0  0  0  0  0999 V2000
    9.9143  -15.0415   17.6912 N   0  0  0  0  0  0  0  0  0  0  0  0
    9.1798  -14.0842   18.4478 C   0  0  1  0  0  0  0  0  0  0  0  0
    8.0666  -13.4538   17.6486 C   0  0  0  0  0  0  0  0  0  0  0  0
    7.9994  -13.8890   16.2534 C   0  0  0  0  0  0  0  0  0  0  0  0
    7.2697  -13.3357   15.3974 O   0  0  0  0  0  0  0  0  0  0  0  0
    8.5856  -14.6373   19.6994 C   0  0  0  0  0  0  0  0  0  0  0  0
    8.3863  -13.8569   20.6805 O   0  0  0  0  0  0  0  0  0  0  0  0
    8.7608  -14.9669   15.7917 O   0  0  0  0  0  0  0  0  0  0  0  0
    8.2185  -15.9725   19.8963 N   0  0  0  0  0  0  0  0  0  0  0  0
    7.7477  -16.5249   21.1254 C   0  0  1  0  0  0  0  0  0  0  0  0
    7.0721  -17.8415   21.0184 C   0  0  0  0  0  0  0  0  0  0  0  0
    6.6640  -18.4667   22.6495 S   0  0  0  0  0  0  0  0  0  0  0  0
    8.8345  -16.5324   22.1712 C   0  0  0  0  0  0  0  0  0  0  0  0
    9.9750  -16.9469   21.8441 O   0  0  0  0  0  0  0  0  0  0  0  0
    8.6399  -16.1001   23.4936 N   0  0  0  0  0  0  0  0  0  0  0  0
    9.6621  -16.0580   24.5295 C   0  0  1  0  0  0  0  0  0  0  0  0
    9.5677  -14.8515   25.3720 C   0  0  0  0  0  0  0  0  0  0  0  0
    8.1878  -14.5494   25.7775 C   0  0  0  0  0  0  0  0  0  0  0  0
    7.1409  -15.4716   25.9483 C   0  0  0  0  0  0  0  0  0  0  0  0
    6.0088  -14.8341   26.2840 N   0  0  0  0  0  0  0  0  0  0  0  0
    6.2481  -13.5074   26.3490 C   0  0  0  0  0  0  0  0  0  0  0  0
    5.4366  -12.4430   26.6658 C   0  0  0  0  0  0  0  0  0  0  0  0
    5.9358  -11.1603   26.6849 C   0  0  0  0  0  0  0  0  0  0  0  0
    7.2669  -10.9705   26.3791 C   0  0  0  0  0  0  0  0  0  0  0  0
    8.0903  -12.0261   26.0594 C   0  0  0  0  0  0  0  0  0  0  0  0
    7.5852  -13.3163   26.0401 C   0  0  0  0  0  0  0  0  0  0  0  0
    9.8570  -17.2963   25.2385 C   0  0  0  0  0  0  0  0  0  0  0  0
   11.0414  -17.4115   26.0057 O   0  0  0  0  0  0  0  0  0  0  0  0
    9.0756  -18.2556   25.2275 O   0  0  0  0  0  0  0  0  0  0  0  0
  2  1  1  6
  3  2  1  0
  4  3  1  0
  5  4  2  0
  6  2  1  0
  7  6  2  0
  8  4  1  0
  9  6  1  0
 10  9  1  0
 10 11  1  6
 12 11  1  0
 13 14  2  0
 13 10  1  0
 15 13  1  0
 16 15  1  0
 16 17  1  1
 18 19  2  0
 18 17  1  0
 20 19  1  0
 21 26  2  0
 21 20  1  0
 22 21  1  0
 23 24  1  0
 23 22  2  0
 24 25  2  0
 25 26  1  0
 26 18  1  0
 27 16  1  0
 28 27  1  0
 29 27  2  0
M  END
$$$$
