DCW.pdb
     RDKit          3D

 29 30  0  0  1  0  0  0  0  0999 V2000
   10.4314  -19.2997   18.2540 N   0  0  0  0  0  0  0  0  0  0  0  0
   10.9523  -18.0054   18.5400 C   0  0  1  0  0  0  0  0  0  0  0  0
   11.0118  -17.1277   17.3147 C   0  0  0  0  0  0  0  0  0  0  0  0
   12.1618  -17.3765   16.4452 C   0  0  0  0  0  0  0  0  0  0  0  0
   13.3478  -17.3353   16.8490 O   0  0  0  0  0  0  0  0  0  0  0  0
   10.1892  -17.2706   19.5903 C   0  0  0  0  0  0  0  0  0  0  0  0
   10.4792  -16.0568   19.8228 O   0  0  0  0  0  0  0  0  0  0  0  0
   11.9956  -17.6794   15.0904 O   0  0  0  0  0  0  0  0  0  0  0  0
    9.1563  -17.8109   20.3633 N   0  0  0  0  0  0  0  0  0  0  0  0
    8.4392  -17.1148   21.3825 C   0  0  1  0  0  0  0  0  0  0  0  0
    6.9836  -17.3951   21.4464 C   0  0  0  0  0  0  0  0  0  0  0  0
    6.4797  -17.6891   23.1427 S   0  0  0  0  0  0  0  0  0  0  0  0
    9.1044  -17.2793   22.7261 C   0  0  0  0  0  0  0  0  0  0  0  0
    9.5436  -18.4143   23.0399 O   0  0  0  0  0  0  0  0  0  0  0  0
    9.2596  -16.2301   23.6472 N   0  0  0  0  0  0  0  0  0  0  0  0
    9.9082  -16.3334   24.9466 C   0  0  1  0  0  0  0  0  0  0  0  0
    9.7770  -15.1016   25.7466 C   0  0  0  0  0  0  0  0  0  0  0  0
    8.3761  -14.7332   25.9950 C   0  0  0  0  0  0  0  0  0  0  0  0
    7.2816  -15.6092   26.0945 C   0  0  0  0  0  0  0  0  0  0  0  0
    6.1474  -14.9178   26.2854 N   0  0  0  0  0  0  0  0  0  0  0  0
    6.4314  -13.5988   26.3205 C   0  0  0  0  0  0  0  0  0  0  0  0
    5.6348  -12.4933   26.5081 C   0  0  0  0  0  0  0  0  0  0  0  0
    6.1801  -11.2294   26.5262 C   0  0  0  0  0  0  0  0  0  0  0  0
    7.5419  -11.1006   26.3517 C   0  0  0  0  0  0  0  0  0  0  0  0
    8.3509  -12.1979   26.1620 C   0  0  0  0  0  0  0  0  0  0  0  0
    7.7995  -13.4690   26.1435 C   0  0  0  0  0  0  0  0  0  0  0  0
    9.6551  -17.5624   25.6535 C   0  0  0  0  0  0  0  0  0  0  0  0
   10.5590  -17.8988   26.6900 O   0  0  0  0  0  0  0  0  0  0  0  0
    8.7174  -18.3368   25.4255 O   0  0  0  0  0  0  0  0  0  0  0  0
  2  1  1  6
  3  2  1  0
  4  3  1  0
  5  4  2  0
  6  2  1  0
  7  6  2  0
  8  4  1  0
  9  6  1  0
 10  9  1  0
 10 11  1  1
 12 11  1  0
 13 14  2  0
 13 10  1  0
 15 13  1  0
 16 15  1  0
 16 17  1  1
 18 19  2  0
 18 17  1  0
 20 19  1  0
 21 26  2  0
 21 20  1  0
 22 21  1  0
 23 24  1  0
 23 22  2  0
 24 25  2  0
 25 26  1  0
 26 18  1  0
 27 16  1  0
 28 27  1  0
 29 27  2  0
M  END
$$$$
