DCW.pdb
     RDKit          3D

 29 30  0  0  1  0  0  0  0  0999 V2000
   10.7236  -17.8632   17.7456 N   0  0  0  0  0  0  0  0  0  0  0  0
    9.6675  -18.7823   17.4846 C   0  0  1  0  0  0  0  0  0  0  0  0
   10.1783  -20.1424   17.0788 C   0  0  0  0  0  0  0  0  0  0  0  0
   11.5021  -20.4754   17.6052 C   0  0  0  0  0  0  0  0  0  0  0  0
   12.5673  -20.0477   17.1017 O   0  0  0  0  0  0  0  0  0  0  0  0
    8.7374  -18.9697   18.6359 C   0  0  0  0  0  0  0  0  0  0  0  0
    7.4863  -18.9144   18.4287 O   0  0  0  0  0  0  0  0  0  0  0  0
   11.6521  -21.3053   18.7205 O   0  0  0  0  0  0  0  0  0  0  0  0
    9.1281  -19.2066   19.9578 N   0  0  0  0  0  0  0  0  0  0  0  0
    8.2908  -19.0553   21.1040 C   0  0  1  0  0  0  0  0  0  0  0  0
    7.6803  -20.3052   21.6202 C   0  0  0  0  0  0  0  0  0  0  0  0
    6.7653  -19.9752   23.1274 S   0  0  0  0  0  0  0  0  0  0  0  0
    8.9907  -18.2789   22.1914 C   0  0  0  0  0  0  0  0  0  0  0  0
   10.1588  -18.6168   22.5090 O   0  0  0  0  0  0  0  0  0  0  0  0
    8.4056  -17.1966   22.8694 N   0  0  0  0  0  0  0  0  0  0  0  0
    9.0367  -16.4188   23.9261 C   0  0  1  0  0  0  0  0  0  0  0  0
    8.6311  -15.0012   23.9076 C   0  0  0  0  0  0  0  0  0  0  0  0
    8.2679  -14.4978   25.2397 C   0  0  0  0  0  0  0  0  0  0  0  0
    8.5011  -15.1339   26.4710 C   0  0  0  0  0  0  0  0  0  0  0  0
    7.9980  -14.4014   27.4765 N   0  0  0  0  0  0  0  0  0  0  0  0
    7.4296  -13.2857   26.9726 C   0  0  0  0  0  0  0  0  0  0  0  0
    6.8034  -12.2212   27.5780 C   0  0  0  0  0  0  0  0  0  0  0  0
    6.3199  -11.1721   26.8292 C   0  0  0  0  0  0  0  0  0  0  0  0
    6.4790  -11.2160   25.4602 C   0  0  0  0  0  0  0  0  0  0  0  0
    7.1028  -12.2752   24.8409 C   0  0  0  0  0  0  0  0  0  0  0  0
    7.5879  -13.3303   25.5968 C   0  0  0  0  0  0  0  0  0  0  0  0
    9.0379  -17.0471   25.2220 C   0  0  0  0  0  0  0  0  0  0  0  0
   10.2010  -16.8771   26.0113 O   0  0  0  0  0  0  0  0  0  0  0  0
    8.1091  -17.7161   25.6917 O   0  0  0  0  0  0  0  0  0  0  0  0
  2  1  1  1
  3  2  1  0
  4  3  1  0
  5  4  2  0
  6  2  1  0
  7  6  2  0
  8  4  1  0
  9  6  1  0
 10  9  1  0
 10 11  1  1
 12 11  1  0
 13 14  2  0
 13 10  1  0
 15 13  1  0
 16 15  1  0
 16 17  1  1
 18 19  2  0
 18 17  1  0
 20 19  1  0
 21 26  2  0
 21 20  1  0
 22 21  1  0
 23 24  1  0
 23 22  2  0
 24 25  2  0
 25 26  1  0
 26 18  1  0
 27 16  1  0
 28 27  1  0
 29 27  2  0
M  END
$$$$
