DCW.pdb
     RDKit          3D

 29 30  0  0  1  0  0  0  0  0999 V2000
   10.7206  -18.1128   17.8331 N   0  0  0  0  0  0  0  0  0  0  0  0
   11.4189  -18.1063   19.0743 C   0  0  1  0  0  0  0  0  0  0  0  0
   12.6289  -17.2060   19.0467 C   0  0  0  0  0  0  0  0  0  0  0  0
   13.6695  -17.6166   18.1039 C   0  0  0  0  0  0  0  0  0  0  0  0
   14.4318  -16.8049   17.5284 O   0  0  0  0  0  0  0  0  0  0  0  0
   10.5747  -17.6996   20.2351 C   0  0  0  0  0  0  0  0  0  0  0  0
   10.5350  -16.4746   20.5652 O   0  0  0  0  0  0  0  0  0  0  0  0
   13.8728  -18.9635   17.7884 O   0  0  0  0  0  0  0  0  0  0  0  0
    9.8026  -18.5677   21.0140 N   0  0  0  0  0  0  0  0  0  0  0  0
    8.8843  -18.1663   22.0305 C   0  0  1  0  0  0  0  0  0  0  0  0
    7.6998  -19.0425   22.2054 C   0  0  0  0  0  0  0  0  0  0  0  0
    6.7738  -18.5547   23.6623 S   0  0  0  0  0  0  0  0  0  0  0  0
    9.5945  -17.9112   23.3365 C   0  0  0  0  0  0  0  0  0  0  0  0
   10.4210  -18.7660   23.7436 O   0  0  0  0  0  0  0  0  0  0  0  0
    9.3811  -16.7673   24.1236 N   0  0  0  0  0  0  0  0  0  0  0  0
    9.9186  -16.5460   25.4584 C   0  0  1  0  0  0  0  0  0  0  0  0
    9.7476  -15.1547   25.9162 C   0  0  0  0  0  0  0  0  0  0  0  0
    8.3566  -14.6913   25.8155 C   0  0  0  0  0  0  0  0  0  0  0  0
    7.2091  -15.4949   25.7020 C   0  0  0  0  0  0  0  0  0  0  0  0
    6.1130  -14.7287   25.5912 N   0  0  0  0  0  0  0  0  0  0  0  0
    6.4739  -13.4287   25.6261 C   0  0  0  0  0  0  0  0  0  0  0  0
    5.7356  -12.2695   25.5698 C   0  0  0  0  0  0  0  0  0  0  0  0
    6.3502  -11.0405   25.6513 C   0  0  0  0  0  0  0  0  0  0  0  0
    7.7216  -11.0015   25.7904 C   0  0  0  0  0  0  0  0  0  0  0  0
    8.4730  -12.1532   25.8472 C   0  0  0  0  0  0  0  0  0  0  0  0
    7.8520  -13.3892   25.7641 C   0  0  0  0  0  0  0  0  0  0  0  0
    9.5830  -17.5621   26.4223 C   0  0  0  0  0  0  0  0  0  0  0  0
    8.5760  -18.4852   26.0503 O   0  0  0  0  0  0  0  0  0  0  0  0
   10.1032  -17.6872   27.5379 O   0  0  0  0  0  0  0  0  0  0  0  0
  2  1  1  6
  3  2  1  0
  4  3  1  0
  5  4  2  0
  6  2  1  0
  7  6  2  0
  8  4  1  0
  9  6  1  0
 10  9  1  0
 10 11  1  1
 12 11  1  0
 13 14  2  0
 13 10  1  0
 15 13  1  0
 16 15  1  0
 16 17  1  1
 18 19  2  0
 18 17  1  0
 20 19  1  0
 21 26  2  0
 21 20  1  0
 22 21  1  0
 23 24  1  0
 23 22  2  0
 24 25  2  0
 25 26  1  0
 26 18  1  0
 27 16  1  0
 28 27  1  0
 29 27  2  0
M  END
$$$$
