DCW.pdb
     RDKit          3D

 29 30  0  0  1  0  0  0  0  0999 V2000
   10.1236  -19.2932   19.6608 N   0  0  0  0  0  0  0  0  0  0  0  0
   11.0527  -18.2139   19.6582 C   0  0  1  0  0  0  0  0  0  0  0  0
   11.5450  -17.8844   18.2709 C   0  0  0  0  0  0  0  0  0  0  0  0
   12.2625  -18.9729   17.6070 C   0  0  0  0  0  0  0  0  0  0  0  0
   11.6952  -19.8309   16.8906 O   0  0  0  0  0  0  0  0  0  0  0  0
   10.5163  -16.9594   20.2614 C   0  0  0  0  0  0  0  0  0  0  0  0
   11.2366  -15.9143   20.2452 O   0  0  0  0  0  0  0  0  0  0  0  0
   13.6469  -19.1168   17.7393 O   0  0  0  0  0  0  0  0  0  0  0  0
    9.2590  -16.8257   20.8595 N   0  0  0  0  0  0  0  0  0  0  0  0
    8.7277  -15.6155   21.3987 C   0  0  1  0  0  0  0  0  0  0  0  0
    7.2521  -15.4770   21.3287 C   0  0  0  0  0  0  0  0  0  0  0  0
    6.6669  -14.3831   22.6243 S   0  0  0  0  0  0  0  0  0  0  0  0
    9.2521  -15.3626   22.7901 C   0  0  0  0  0  0  0  0  0  0  0  0
    9.9109  -14.3127   22.9982 O   0  0  0  0  0  0  0  0  0  0  0  0
    9.0433  -16.2393   23.8678 N   0  0  0  0  0  0  0  0  0  0  0  0
    9.8974  -16.3569   25.0410 C   0  0  1  0  0  0  0  0  0  0  0  0
    9.3556  -15.6428   26.2119 C   0  0  0  0  0  0  0  0  0  0  0  0
    8.0251  -15.0710   25.9619 C   0  0  0  0  0  0  0  0  0  0  0  0
    6.8662  -15.7717   25.5858 C   0  0  0  0  0  0  0  0  0  0  0  0
    5.8450  -14.9201   25.4052 N   0  0  0  0  0  0  0  0  0  0  0  0
    6.2678  -13.6613   25.6463 C   0  0  0  0  0  0  0  0  0  0  0  0
    5.6129  -12.4520   25.6187 C   0  0  0  0  0  0  0  0  0  0  0  0
    6.2748  -11.2872   25.9348 C   0  0  0  0  0  0  0  0  0  0  0  0
    7.6080  -11.3636   26.2789 C   0  0  0  0  0  0  0  0  0  0  0  0
    8.2762  -12.5665   26.3099 C   0  0  0  0  0  0  0  0  0  0  0  0
    7.6078  -13.7376   25.9905 C   0  0  0  0  0  0  0  0  0  0  0  0
   10.3930  -17.6844   25.2984 C   0  0  0  0  0  0  0  0  0  0  0  0
   11.4023  -17.8076   26.2837 O   0  0  0  0  0  0  0  0  0  0  0  0
   10.0069  -18.7131   24.7296 O   0  0  0  0  0  0  0  0  0  0  0  0
  2  1  1  6
  3  2  1  0
  4  3  1  0
  5  4  2  0
  6  2  1  0
  7  6  2  0
  8  4  1  0
  9  6  1  0
 10  9  1  0
 10 11  1  1
 12 11  1  0
 13 14  2  0
 13 10  1  0
 15 13  1  0
 16 15  1  0
 16 17  1  1
 18 19  2  0
 18 17  1  0
 20 19  1  0
 21 26  2  0
 21 20  1  0
 22 21  1  0
 23 24  1  0
 23 22  2  0
 24 25  2  0
 25 26  1  0
 26 18  1  0
 27 16  1  0
 28 27  1  0
 29 27  2  0
M  END
$$$$
