DCW.pdb
     RDKit          3D

 29 30  0  0  1  0  0  0  0  0999 V2000
   10.3986  -19.1955   19.1864 N   0  0  0  0  0  0  0  0  0  0  0  0
   11.3075  -18.3426   19.8754 C   0  0  1  0  0  0  0  0  0  0  0  0
   12.4168  -17.8458   18.9821 C   0  0  0  0  0  0  0  0  0  0  0  0
   13.5800  -18.7303   18.9100 C   0  0  0  0  0  0  0  0  0  0  0  0
   13.6592  -19.8111   19.5399 O   0  0  0  0  0  0  0  0  0  0  0  0
   10.6579  -17.1535   20.4996 C   0  0  0  0  0  0  0  0  0  0  0  0
   11.2424  -16.0288   20.4308 O   0  0  0  0  0  0  0  0  0  0  0  0
   14.6873  -18.4104   18.1185 O   0  0  0  0  0  0  0  0  0  0  0  0
    9.4315  -17.1647   21.1720 N   0  0  0  0  0  0  0  0  0  0  0  0
    8.6746  -16.0070   21.5244 C   0  0  1  0  0  0  0  0  0  0  0  0
    7.2573  -16.0107   21.0853 C   0  0  0  0  0  0  0  0  0  0  0  0
    6.3789  -14.6215   21.8039 S   0  0  0  0  0  0  0  0  0  0  0  0
    8.8085  -15.6948   22.9940 C   0  0  0  0  0  0  0  0  0  0  0  0
    8.8445  -14.4893   23.3475 O   0  0  0  0  0  0  0  0  0  0  0  0
    8.8953  -16.6812   23.9905 N   0  0  0  0  0  0  0  0  0  0  0  0
    9.8857  -16.7222   25.0569 C   0  0  1  0  0  0  0  0  0  0  0  0
    9.8253  -15.5384   25.9341 C   0  0  0  0  0  0  0  0  0  0  0  0
    8.4710  -14.9769   26.0365 C   0  0  0  0  0  0  0  0  0  0  0  0
    7.2594  -15.6850   25.9596 C   0  0  0  0  0  0  0  0  0  0  0  0
    6.2200  -14.8415   26.0536 N   0  0  0  0  0  0  0  0  0  0  0  0
    6.6817  -13.5809   26.1931 C   0  0  0  0  0  0  0  0  0  0  0  0
    6.0330  -12.3777   26.3459 C   0  0  0  0  0  0  0  0  0  0  0  0
    6.7456  -11.2095   26.4962 C   0  0  0  0  0  0  0  0  0  0  0  0
    8.1229  -11.2765   26.4895 C   0  0  0  0  0  0  0  0  0  0  0  0
    8.7853  -12.4734   26.3366 C   0  0  0  0  0  0  0  0  0  0  0  0
    8.0656  -13.6478   26.1847 C   0  0  0  0  0  0  0  0  0  0  0  0
    9.9964  -17.9897   25.7318 C   0  0  0  0  0  0  0  0  0  0  0  0
   11.0173  -18.1055   26.7061 O   0  0  0  0  0  0  0  0  0  0  0  0
    9.2744  -18.9732   25.5263 O   0  0  0  0  0  0  0  0  0  0  0  0
  2  1  1  6
  3  2  1  0
  4  3  1  0
  5  4  2  0
  6  2  1  0
  7  6  2  0
  8  4  1  0
  9  6  1  0
 10  9  1  0
 10 11  1  1
 12 11  1  0
 13 14  2  0
 13 10  1  0
 15 13  1  0
 16 15  1  0
 16 17  1  1
 18 19  2  0
 18 17  1  0
 20 19  1  0
 21 26  2  0
 21 20  1  0
 22 21  1  0
 23 24  1  0
 23 22  2  0
 24 25  2  0
 25 26  1  0
 26 18  1  0
 27 16  1  0
 28 27  1  0
 29 27  2  0
M  END
$$$$
