DCW.pdb
     RDKit          3D

 29 30  0  0  1  0  0  0  0  0999 V2000
    9.7619  -18.8343   18.4584 N   0  0  0  0  0  0  0  0  0  0  0  0
   10.4762  -17.6438   18.7761 C   0  0  1  0  0  0  0  0  0  0  0  0
   10.6517  -16.7436   17.5784 C   0  0  0  0  0  0  0  0  0  0  0  0
   11.7845  -17.0898   16.7198 C   0  0  0  0  0  0  0  0  0  0  0  0
   12.1231  -16.4080   15.7239 O   0  0  0  0  0  0  0  0  0  0  0  0
    9.8468  -16.8388   19.8629 C   0  0  0  0  0  0  0  0  0  0  0  0
   10.2424  -15.6474   20.0512 O   0  0  0  0  0  0  0  0  0  0  0  0
   12.5652  -18.2226   16.9695 O   0  0  0  0  0  0  0  0  0  0  0  0
    8.8342  -17.2886   20.7165 N   0  0  0  0  0  0  0  0  0  0  0  0
    8.3601  -16.5941   21.8700 C   0  0  1  0  0  0  0  0  0  0  0  0
    6.9473  -16.8565   22.2395 C   0  0  0  0  0  0  0  0  0  0  0  0
    6.7416  -18.5667   22.7401 S   0  0  0  0  0  0  0  0  0  0  0  0
    9.2928  -16.7813   23.0404 C   0  0  0  0  0  0  0  0  0  0  0  0
   10.0342  -17.7960   23.0568 O   0  0  0  0  0  0  0  0  0  0  0  0
    9.3774  -15.8805   24.1151 N   0  0  0  0  0  0  0  0  0  0  0  0
    9.9704  -16.1656   25.4139 C   0  0  1  0  0  0  0  0  0  0  0  0
    9.6402  -15.1450   26.4256 C   0  0  0  0  0  0  0  0  0  0  0  0
    8.2228  -14.7574   26.3986 C   0  0  0  0  0  0  0  0  0  0  0  0
    7.1147  -15.6220   26.4063 C   0  0  0  0  0  0  0  0  0  0  0  0
    5.9744  -14.9184   26.3334 N   0  0  0  0  0  0  0  0  0  0  0  0
    6.2671  -13.6020   26.2770 C   0  0  0  0  0  0  0  0  0  0  0  0
    5.4659  -12.4857   26.2135 C   0  0  0  0  0  0  0  0  0  0  0  0
    6.0183  -11.2251   26.1895 C   0  0  0  0  0  0  0  0  0  0  0  0
    7.3919  -11.1105   26.2306 C   0  0  0  0  0  0  0  0  0  0  0  0
    8.2057  -12.2187   26.2933 C   0  0  0  0  0  0  0  0  0  0  0  0
    7.6473  -13.4867   26.3165 C   0  0  0  0  0  0  0  0  0  0  0  0
    9.8471  -17.5331   25.8487 C   0  0  0  0  0  0  0  0  0  0  0  0
   10.7008  -17.9468   26.8997 O   0  0  0  0  0  0  0  0  0  0  0  0
    9.0598  -18.3634   25.3780 O   0  0  0  0  0  0  0  0  0  0  0  0
  2  1  1  6
  3  2  1  0
  4  3  1  0
  5  4  2  0
  6  2  1  0
  7  6  2  0
  8  4  1  0
  9  6  1  0
 10  9  1  0
 10 11  1  1
 12 11  1  0
 13 14  2  0
 13 10  1  0
 15 13  1  0
 16 15  1  0
 16 17  1  1
 18 19  2  0
 18 17  1  0
 20 19  1  0
 21 26  2  0
 21 20  1  0
 22 21  1  0
 23 24  1  0
 23 22  2  0
 24 25  2  0
 25 26  1  0
 26 18  1  0
 27 16  1  0
 28 27  1  0
 29 27  2  0
M  END
$$$$
