DCW.pdb
     RDKit          3D

 29 30  0  0  1  0  0  0  0  0999 V2000
    9.1099  -17.7912   17.3895 N   0  0  0  0  0  0  0  0  0  0  0  0
    9.0014  -16.4199   17.7585 C   0  0  1  0  0  0  0  0  0  0  0  0
    8.1958  -15.6207   16.7646 C   0  0  0  0  0  0  0  0  0  0  0  0
    8.7438  -15.6098   15.4082 C   0  0  0  0  0  0  0  0  0  0  0  0
    9.8171  -16.1782   15.0980 O   0  0  0  0  0  0  0  0  0  0  0  0
    8.4010  -16.2076   19.1076 C   0  0  0  0  0  0  0  0  0  0  0  0
    7.5430  -15.2844   19.2585 O   0  0  0  0  0  0  0  0  0  0  0  0
    8.0861  -14.9512   14.3648 O   0  0  0  0  0  0  0  0  0  0  0  0
    8.7053  -16.9522   20.2518 N   0  0  0  0  0  0  0  0  0  0  0  0
    8.1366  -16.7453   21.5446 C   0  0  1  0  0  0  0  0  0  0  0  0
    6.9854  -17.6175   21.8847 C   0  0  0  0  0  0  0  0  0  0  0  0
    7.5147  -19.3268   22.0103 S   0  0  0  0  0  0  0  0  0  0  0  0
    9.1974  -16.7687   22.6166 C   0  0  0  0  0  0  0  0  0  0  0  0
   10.2898  -17.3362   22.3634 O   0  0  0  0  0  0  0  0  0  0  0  0
    9.0294  -16.1891   23.8852 N   0  0  0  0  0  0  0  0  0  0  0  0
    9.9990  -16.2320   24.9705 C   0  0  1  0  0  0  0  0  0  0  0  0
    9.8122  -15.1391   25.9427 C   0  0  0  0  0  0  0  0  0  0  0  0
    8.3992  -14.7796   26.1273 C   0  0  0  0  0  0  0  0  0  0  0  0
    7.3048  -15.6608   26.1586 C   0  0  0  0  0  0  0  0  0  0  0  0
    6.1597  -14.9765   26.3041 N   0  0  0  0  0  0  0  0  0  0  0  0
    6.4360  -13.6573   26.3741 C   0  0  0  0  0  0  0  0  0  0  0  0
    5.6264  -12.5577   26.5397 C   0  0  0  0  0  0  0  0  0  0  0  0
    6.1647  -11.2924   26.6048 C   0  0  0  0  0  0  0  0  0  0  0  0
    7.5329  -11.1561   26.4999 C   0  0  0  0  0  0  0  0  0  0  0  0
    8.3549  -12.2473   26.3331 C   0  0  0  0  0  0  0  0  0  0  0  0
    7.8105  -13.5199   26.2671 C   0  0  0  0  0  0  0  0  0  0  0  0
   10.2144  -17.5378   25.5386 C   0  0  0  0  0  0  0  0  0  0  0  0
   11.3556  -17.6938   26.3621 O   0  0  0  0  0  0  0  0  0  0  0  0
    9.4850  -18.5217   25.3631 O   0  0  0  0  0  0  0  0  0  0  0  0
  2  1  1  6
  3  2  1  0
  4  3  1  0
  5  4  2  0
  6  2  1  0
  7  6  2  0
  8  4  1  0
  9  6  1  0
 10  9  1  0
 10 11  1  1
 12 11  1  0
 13 14  2  0
 13 10  1  0
 15 13  1  0
 16 15  1  0
 16 17  1  1
 18 19  2  0
 18 17  1  0
 20 19  1  0
 21 26  2  0
 21 20  1  0
 22 21  1  0
 23 24  1  0
 23 22  2  0
 24 25  2  0
 25 26  1  0
 26 18  1  0
 27 16  1  0
 28 27  1  0
 29 27  2  0
M  END
$$$$
