MSE.pdb
     RDKit          3D

 24 23  0  0  1  0  0  0  0  0999 V2000
    8.3708  -12.0001   20.6537 C   0  0  0  0  0  0  0  0  0  0  0  0
    7.3994  -12.1838   19.1316 S   0  0  0  0  0  0  0  0  0  0  0  0
    8.0149  -13.6489   18.2394 C   0  0  0  0  0  0  0  0  0  0  0  0
    8.8428  -14.5185   19.1605 C   0  0  0  0  0  0  0  0  0  0  0  0
    9.4126  -15.6621   18.3533 C   0  0  2  0  0  0  0  0  0  0  0  0
    8.2970  -16.4620   17.8949 N   0  0  0  0  0  0  0  0  0  0  0  0
   10.3075  -16.5199   19.1565 C   0  0  0  0  0  0  0  0  0  0  0  0
    9.8614  -17.0614   20.1947 O   0  0  0  0  0  0  0  0  0  0  0  0
   14.1184  -16.9253   17.9114 O   0  0  0  0  0  0  0  0  0  0  0  0
   13.6955  -18.0038   18.6764 C   0  0  0  0  0  0  0  0  0  0  0  0
   12.5677  -17.5672   19.6190 C   0  0  2  0  0  0  0  0  0  0  0  0
   11.6620  -16.7764   18.8259 N   0  0  0  0  0  0  0  0  0  0  0  0
   13.2280  -16.7422   20.6859 C   0  0  0  0  0  0  0  0  0  0  0  0
   13.5278  -15.5379   20.4935 O   0  0  0  0  0  0  0  0  0  0  0  0
   13.5458  -17.2816   21.9634 N   0  0  0  0  0  0  0  0  0  0  0  0
   14.1300  -16.4771   23.0298 C   0  0  1  0  0  0  0  0  0  0  0  0
   13.7753  -17.1198   24.3470 C   0  0  0  0  0  0  0  0  0  0  0  0
   12.3554  -17.6085   24.3703 C   0  0  0  0  0  0  0  0  0  0  0  0
   11.9907  -18.4064   25.5549 C   0  0  0  0  0  0  0  0  0  0  0  0
   11.7037  -17.9409   26.6809 O   0  0  0  0  0  0  0  0  0  0  0  0
   15.5945  -16.3697   22.8913 C   0  0  0  0  0  0  0  0  0  0  0  0
   16.2225  -15.5937   23.6458 O   0  0  0  0  0  0  0  0  0  0  0  0
   11.9517  -19.7943   25.4500 O   0  0  0  0  0  0  0  0  0  0  0  0
   16.2962  -17.0995   21.9542 O   0  0  0  0  0  0  0  0  0  0  0  0
  1  2  1  0
  3  2  1  0
  4  3  1  0
  5  7  1  0
  5  4  1  0
  5  6  1  1
  7 12  1  0
  7  8  2  0
 10  9  1  0
 11 10  1  6
 11 13  1  0
 12 11  1  0
 13 15  1  0
 13 14  2  0
 15 16  1  0
 16 21  1  0
 16 17  1  1
 18 17  1  0
 19 18  1  0
 20 19  2  0
 21 22  2  0
 21 24  1  0
 23 19  1  0
M  END
$$$$
