MSE.pdb
     RDKit          3D

 24 23  0  0  1  0  0  0  0  0999 V2000
    8.0507  -11.5615   26.8799 C   0  0  0  0  0  0  0  0  0  0  0  0
    6.2845  -11.7495   27.2532 S   0  0  0  0  0  0  0  0  0  0  0  0
    5.6902  -13.2655   26.4348 C   0  0  0  0  0  0  0  0  0  0  0  0
    6.8235  -13.9474   25.6995 C   0  0  0  0  0  0  0  0  0  0  0  0
    6.2832  -15.1966   25.0423 C   0  0  2  0  0  0  0  0  0  0  0  0
    5.8758  -16.0964   26.1000 N   0  0  0  0  0  0  0  0  0  0  0  0
    7.3005  -15.8750   24.2137 C   0  0  0  0  0  0  0  0  0  0  0  0
    8.0225  -16.7558   24.7361 O   0  0  0  0  0  0  0  0  0  0  0  0
    8.1417  -14.2324   20.7272 O   0  0  0  0  0  0  0  0  0  0  0  0
    8.3895  -15.5946   20.6270 C   0  0  0  0  0  0  0  0  0  0  0  0
    8.5351  -16.2050   22.0260 C   0  0  2  0  0  0  0  0  0  0  0  0
    7.5191  -15.5915   22.8420 N   0  0  0  0  0  0  0  0  0  0  0  0
    9.9133  -15.8303   22.4899 C   0  0  0  0  0  0  0  0  0  0  0  0
   10.2311  -14.6346   22.7058 O   0  0  0  0  0  0  0  0  0  0  0  0
   10.9240  -16.8074   22.7075 N   0  0  0  0  0  0  0  0  0  0  0  0
   12.2702  -16.4576   23.1447 C   0  0  1  0  0  0  0  0  0  0  0  0
   12.7104  -17.4792   24.1629 C   0  0  0  0  0  0  0  0  0  0  0  0
   11.9022  -17.3989   25.4261 C   0  0  0  0  0  0  0  0  0  0  0  0
   12.2420  -18.4055   26.4480 C   0  0  0  0  0  0  0  0  0  0  0  0
   13.3500  -18.5099   27.0210 O   0  0  0  0  0  0  0  0  0  0  0  0
   13.2176  -16.4209   22.0149 C   0  0  0  0  0  0  0  0  0  0  0  0
   12.8442  -16.8309   20.8931 O   0  0  0  0  0  0  0  0  0  0  0  0
   11.2764  -19.3323   26.8322 O   0  0  0  0  0  0  0  0  0  0  0  0
   14.5059  -15.9478   22.1554 O   0  0  0  0  0  0  0  0  0  0  0  0
  1  2  1  0
  3  2  1  0
  4  3  1  0
  5  7  1  0
  5  4  1  0
  5  6  1  1
  7 12  1  0
  7  8  2  0
 10  9  1  0
 11 10  1  6
 11 13  1  0
 12 11  1  0
 13 15  1  0
 13 14  2  0
 15 16  1  0
 16 21  1  0
 16 17  1  1
 18 17  1  0
 19 18  1  0
 20 19  2  0
 21 22  2  0
 21 24  1  0
 23 19  1  0
M  END
$$$$
