MSE.pdb
     RDKit          3D

 24 23  0  0  1  0  0  0  0  0999 V2000
    6.3110  -12.6686   16.3790 C   0  0  0  0  0  0  0  0  0  0  0  0
    7.0634  -12.4200   18.0119 S   0  0  0  0  0  0  0  0  0  0  0  0
    7.7114  -14.0231   18.5877 C   0  0  0  0  0  0  0  0  0  0  0  0
    8.3075  -13.8851   19.9717 C   0  0  0  0  0  0  0  0  0  0  0  0
    8.8558  -15.2293   20.3918 C   0  0  2  0  0  0  0  0  0  0  0  0
    7.7320  -16.1334   20.5106 N   0  0  0  0  0  0  0  0  0  0  0  0
    9.5484  -15.1663   21.6949 C   0  0  0  0  0  0  0  0  0  0  0  0
   10.6028  -14.4964   21.7921 O   0  0  0  0  0  0  0  0  0  0  0  0
    9.2376  -16.1664   26.4554 O   0  0  0  0  0  0  0  0  0  0  0  0
    8.7103  -16.2533   25.1742 C   0  0  0  0  0  0  0  0  0  0  0  0
    9.7410  -15.7656   24.1491 C   0  0  2  0  0  0  0  0  0  0  0  0
    9.0922  -15.8249   22.8645 N   0  0  0  0  0  0  0  0  0  0  0  0
   10.8850  -16.7347   24.2325 C   0  0  0  0  0  0  0  0  0  0  0  0
   10.7704  -17.9216   23.8382 O   0  0  0  0  0  0  0  0  0  0  0  0
   12.1513  -16.3582   24.7602 N   0  0  0  0  0  0  0  0  0  0  0  0
   13.3084  -17.2447   24.7271 C   0  0  1  0  0  0  0  0  0  0  0  0
   14.4997  -16.4403   24.2714 C   0  0  0  0  0  0  0  0  0  0  0  0
   15.7196  -17.2967   24.0871 C   0  0  0  0  0  0  0  0  0  0  0  0
   16.9244  -16.5761   23.6377 C   0  0  0  0  0  0  0  0  0  0  0  0
   17.0010  -15.3409   23.4491 O   0  0  0  0  0  0  0  0  0  0  0  0
   13.5723  -17.8455   26.0481 C   0  0  0  0  0  0  0  0  0  0  0  0
   13.0394  -17.3437   27.0630 O   0  0  0  0  0  0  0  0  0  0  0  0
   18.0913  -17.2954   23.3932 O   0  0  0  0  0  0  0  0  0  0  0  0
   14.3902  -18.9459   26.2012 O   0  0  0  0  0  0  0  0  0  0  0  0
  1  2  1  0
  3  2  1  0
  4  3  1  0
  5  7  1  0
  5  4  1  0
  5  6  1  1
  7 12  1  0
  7  8  2  0
 10  9  1  0
 11 10  1  1
 11 13  1  0
 12 11  1  0
 13 15  1  0
 13 14  2  0
 15 16  1  0
 16 21  1  0
 16 17  1  1
 18 17  1  0
 19 18  1  0
 20 19  2  0
 21 22  2  0
 21 24  1  0
 23 19  1  0
M  END
$$$$
