MSE.pdb
     RDKit          3D

 24 23  0  0  1  0  0  0  0  0999 V2000
    5.3741  -11.2208   27.5899 C   0  0  0  0  0  0  0  0  0  0  0  0
    6.7979  -12.2610   27.1596 S   0  0  0  0  0  0  0  0  0  0  0  0
    6.2063  -13.6231   26.1032 C   0  0  0  0  0  0  0  0  0  0  0  0
    7.3761  -14.3615   25.4896 C   0  0  0  0  0  0  0  0  0  0  0  0
    6.8369  -15.4947   24.6474 C   0  0  2  0  0  0  0  0  0  0  0  0
    6.2044  -16.4352   25.5473 N   0  0  0  0  0  0  0  0  0  0  0  0
    7.9054  -16.1971   23.9082 C   0  0  0  0  0  0  0  0  0  0  0  0
    8.5768  -17.0759   24.4974 O   0  0  0  0  0  0  0  0  0  0  0  0
    9.5834  -14.4520   20.5585 O   0  0  0  0  0  0  0  0  0  0  0  0
    9.3783  -15.8222   20.4716 C   0  0  0  0  0  0  0  0  0  0  0  0
    9.3942  -16.4442   21.8730 C   0  0  2  0  0  0  0  0  0  0  0  0
    8.2286  -15.9394   22.5521 N   0  0  0  0  0  0  0  0  0  0  0  0
   10.6600  -15.9575   22.5178 C   0  0  0  0  0  0  0  0  0  0  0  0
   10.6875  -14.9007   23.1957 O   0  0  0  0  0  0  0  0  0  0  0  0
   11.8869  -16.6668   22.3936 N   0  0  0  0  0  0  0  0  0  0  0  0
   13.0512  -16.3678   23.2187 C   0  0  1  0  0  0  0  0  0  0  0  0
   12.6927  -16.6581   24.6544 C   0  0  0  0  0  0  0  0  0  0  0  0
   12.5995  -18.1326   24.9239 C   0  0  0  0  0  0  0  0  0  0  0  0
   12.4415  -18.4975   26.3434 C   0  0  0  0  0  0  0  0  0  0  0  0
   12.7623  -17.7777   27.3160 O   0  0  0  0  0  0  0  0  0  0  0  0
   14.2248  -17.1642   22.8139 C   0  0  0  0  0  0  0  0  0  0  0  0
   15.3452  -16.8877   23.2980 O   0  0  0  0  0  0  0  0  0  0  0  0
   11.8941  -19.7364   26.6666 O   0  0  0  0  0  0  0  0  0  0  0  0
   14.1269  -18.2071   21.9161 O   0  0  0  0  0  0  0  0  0  0  0  0
  1  2  1  0
  3  2  1  0
  4  3  1  0
  5  7  1  0
  5  4  1  0
  5  6  1  1
  7 12  1  0
  7  8  2  0
 10  9  1  0
 11 10  1  6
 11 13  1  0
 12 11  1  0
 13 15  1  0
 13 14  2  0
 15 16  1  0
 16 21  1  0
 16 17  1  1
 18 17  1  0
 19 18  1  0
 20 19  2  0
 21 22  2  0
 21 24  1  0
 23 19  1  0
M  END
$$$$
