MSE.pdb
     RDKit          3D

 24 23  0  0  1  0  0  0  0  0999 V2000
    5.6906  -11.2456   25.3726 C   0  0  0  0  0  0  0  0  0  0  0  0
    7.2045  -11.8620   26.1616 S   0  0  0  0  0  0  0  0  0  0  0  0
    6.7902  -13.3866   27.0700 C   0  0  0  0  0  0  0  0  0  0  0  0
    7.5699  -14.5594   26.5162 C   0  0  0  0  0  0  0  0  0  0  0  0
    6.8211  -15.1109   25.3248 C   0  0  2  0  0  0  0  0  0  0  0  0
    5.6470  -15.7883   25.8316 N   0  0  0  0  0  0  0  0  0  0  0  0
    7.6296  -16.0809   24.5585 C   0  0  0  0  0  0  0  0  0  0  0  0
    7.6796  -17.2717   24.9453 O   0  0  0  0  0  0  0  0  0  0  0  0
   10.1168  -14.8468   21.3853 O   0  0  0  0  0  0  0  0  0  0  0  0
    9.4286  -16.0482   21.2850 C   0  0  0  0  0  0  0  0  0  0  0  0
    9.2283  -16.6552   22.6788 C   0  0  2  0  0  0  0  0  0  0  0  0
    8.3663  -15.7493   23.3936 N   0  0  0  0  0  0  0  0  0  0  0  0
   10.5963  -16.7142   23.2953 C   0  0  0  0  0  0  0  0  0  0  0  0
   11.1646  -15.6831   23.7327 O   0  0  0  0  0  0  0  0  0  0  0  0
   11.3142  -17.9365   23.4145 N   0  0  0  0  0  0  0  0  0  0  0  0
   12.6314  -18.0137   24.0349 C   0  0  1  0  0  0  0  0  0  0  0  0
   12.6132  -19.1470   25.0295 C   0  0  0  0  0  0  0  0  0  0  0  0
   11.8197  -18.8049   26.2578 C   0  0  0  0  0  0  0  0  0  0  0  0
   11.8134  -19.8430   27.3044 C   0  0  0  0  0  0  0  0  0  0  0  0
   12.7995  -20.1755   28.0001 O   0  0  0  0  0  0  0  0  0  0  0  0
   13.6932  -18.2289   23.0341 C   0  0  0  0  0  0  0  0  0  0  0  0
   13.3846  -18.6660   21.9028 O   0  0  0  0  0  0  0  0  0  0  0  0
   10.6318  -20.5307   27.5683 O   0  0  0  0  0  0  0  0  0  0  0  0
   15.0194  -17.9632   23.3056 O   0  0  0  0  0  0  0  0  0  0  0  0
  1  2  1  0
  3  2  1  0
  4  3  1  0
  5  7  1  0
  5  4  1  0
  5  6  1  1
  7 12  1  0
  7  8  2  0
 10  9  1  0
 11 10  1  6
 11 13  1  0
 12 11  1  0
 13 15  1  0
 13 14  2  0
 15 16  1  0
 16 21  1  0
 16 17  1  1
 18 17  1  0
 19 18  1  0
 20 19  2  0
 21 22  2  0
 21 24  1  0
 23 19  1  0
M  END
$$$$
