MSE.pdb
     RDKit          3D

 24 23  0  0  1  0  0  0  0  0999 V2000
    8.0185  -12.2912   21.1238 C   0  0  0  0  0  0  0  0  0  0  0  0
    7.5553  -11.9983   19.3935 S   0  0  0  0  0  0  0  0  0  0  0  0
    8.0365  -13.4632   18.4219 C   0  0  0  0  0  0  0  0  0  0  0  0
    8.4651  -14.5876   19.3395 C   0  0  0  0  0  0  0  0  0  0  0  0
    8.8253  -15.7854   18.4911 C   0  0  2  0  0  0  0  0  0  0  0  0
    7.6193  -16.2093   17.8126 N   0  0  0  0  0  0  0  0  0  0  0  0
    9.3291  -16.9120   19.3026 C   0  0  0  0  0  0  0  0  0  0  0  0
    8.5082  -17.6497   19.8959 O   0  0  0  0  0  0  0  0  0  0  0  0
   13.0755  -18.1495   18.7769 O   0  0  0  0  0  0  0  0  0  0  0  0
   12.2340  -19.0433   19.4251 C   0  0  0  0  0  0  0  0  0  0  0  0
   11.2217  -18.2791   20.2867 C   0  0  2  0  0  0  0  0  0  0  0  0
   10.7040  -17.2207   19.4583 N   0  0  0  0  0  0  0  0  0  0  0  0
   12.0056  -17.7359   21.4466 C   0  0  0  0  0  0  0  0  0  0  0  0
   12.6646  -16.6710   21.3528 O   0  0  0  0  0  0  0  0  0  0  0  0
   12.0405  -18.3979   22.7053 N   0  0  0  0  0  0  0  0  0  0  0  0
   12.7767  -17.8698   23.8477 C   0  0  1  0  0  0  0  0  0  0  0  0
   12.5467  -18.7924   25.0181 C   0  0  0  0  0  0  0  0  0  0  0  0
   13.3088  -18.3563   26.2364 C   0  0  0  0  0  0  0  0  0  0  0  0
   13.1828  -19.2493   27.4026 C   0  0  0  0  0  0  0  0  0  0  0  0
   12.4765  -20.2817   27.4509 O   0  0  0  0  0  0  0  0  0  0  0  0
   14.2192  -17.7573   23.5613 C   0  0  0  0  0  0  0  0  0  0  0  0
   14.8626  -16.7974   24.0414 O   0  0  0  0  0  0  0  0  0  0  0  0
   13.8929  -18.9514   28.5627 O   0  0  0  0  0  0  0  0  0  0  0  0
   14.8839  -18.6789   22.7789 O   0  0  0  0  0  0  0  0  0  0  0  0
  1  2  1  0
  3  2  1  0
  4  3  1  0
  5  7  1  0
  5  4  1  0
  5  6  1  1
  7 12  1  0
  7  8  2  0
 10  9  1  0
 11 10  1  6
 11 13  1  0
 12 11  1  0
 13 15  1  0
 13 14  2  0
 15 16  1  0
 16 21  1  0
 16 17  1  1
 18 17  1  0
 19 18  1  0
 20 19  2  0
 21 22  2  0
 21 24  1  0
 23 19  1  0
M  END
$$$$
