MSE.pdb
     RDKit          3D

 24 23  0  0  1  0  0  0  0  0999 V2000
    8.3527  -11.6236   19.8542 C   0  0  0  0  0  0  0  0  0  0  0  0
    7.6452  -13.1837   20.4541 S   0  0  0  0  0  0  0  0  0  0  0  0
    7.6677  -13.1531   22.2762 C   0  0  0  0  0  0  0  0  0  0  0  0
    6.9634  -14.3710   22.8333 C   0  0  0  0  0  0  0  0  0  0  0  0
    7.9808  -15.4759   23.0014 C   0  0  2  0  0  0  0  0  0  0  0  0
    8.2405  -16.0241   21.6875 N   0  0  0  0  0  0  0  0  0  0  0  0
    7.4870  -16.5603   23.8742 C   0  0  0  0  0  0  0  0  0  0  0  0
    7.1317  -16.2861   25.0441 O   0  0  0  0  0  0  0  0  0  0  0  0
    7.8047  -20.6247   22.7344 O   0  0  0  0  0  0  0  0  0  0  0  0
    6.6891  -20.1908   23.4374 C   0  0  0  0  0  0  0  0  0  0  0  0
    7.0668  -19.0141   24.3451 C   0  0  2  0  0  0  0  0  0  0  0  0
    7.3860  -17.9154   23.4702 N   0  0  0  0  0  0  0  0  0  0  0  0
    8.2711  -19.4692   25.1181 C   0  0  0  0  0  0  0  0  0  0  0  0
    9.4153  -19.4869   24.6009 O   0  0  0  0  0  0  0  0  0  0  0  0
    8.1764  -19.9012   26.4702 N   0  0  0  0  0  0  0  0  0  0  0  0
    9.3511  -20.1912   27.2837 C   0  0  1  0  0  0  0  0  0  0  0  0
    9.7375  -18.9287   28.0123 C   0  0  0  0  0  0  0  0  0  0  0  0
   10.9093  -19.1431   28.9267 C   0  0  0  0  0  0  0  0  0  0  0  0
   11.2733  -17.9799   29.7559 C   0  0  0  0  0  0  0  0  0  0  0  0
   12.1647  -17.9679   30.6347 O   0  0  0  0  0  0  0  0  0  0  0  0
    9.0921  -21.2781   28.2465 C   0  0  0  0  0  0  0  0  0  0  0  0
    7.9092  -21.5717   28.5303 O   0  0  0  0  0  0  0  0  0  0  0  0
   10.5912  -16.7796   29.5745 O   0  0  0  0  0  0  0  0  0  0  0  0
   10.1149  -21.9836   28.8460 O   0  0  0  0  0  0  0  0  0  0  0  0
  1  2  1  0
  3  2  1  0
  4  3  1  0
  5  7  1  0
  5  4  1  0
  5  6  1  6
  7 12  1  0
  7  8  2  0
 10  9  1  0
 11 10  1  6
 11 13  1  0
 12 11  1  0
 13 15  1  0
 13 14  2  0
 15 16  1  0
 16 21  1  0
 16 17  1  1
 18 17  1  0
 19 18  1  0
 20 19  2  0
 21 22  2  0
 21 24  1  0
 23 19  1  0
M  END
$$$$
