MSE.pdb
     RDKit          3D

 24 23  0  0  1  0  0  0  0  0999 V2000
    5.8394  -10.7508   26.0487 C   0  0  0  0  0  0  0  0  0  0  0  0
    6.2636  -12.2409   26.9942 S   0  0  0  0  0  0  0  0  0  0  0  0
    7.9826  -12.6956   26.5949 C   0  0  0  0  0  0  0  0  0  0  0  0
    8.1264  -14.2000   26.5181 C   0  0  0  0  0  0  0  0  0  0  0  0
    7.2228  -14.7107   25.4196 C   0  0  2  0  0  0  0  0  0  0  0  0
    6.0283  -15.2280   26.0518 N   0  0  0  0  0  0  0  0  0  0  0  0
    7.8511  -15.7975   24.6412 C   0  0  0  0  0  0  0  0  0  0  0  0
    8.1655  -16.8609   25.2247 O   0  0  0  0  0  0  0  0  0  0  0  0
    9.6682  -15.3832   20.7532 O   0  0  0  0  0  0  0  0  0  0  0  0
    8.6640  -16.3065   21.0106 C   0  0  0  0  0  0  0  0  0  0  0  0
    8.7350  -16.7640   22.4723 C   0  0  2  0  0  0  0  0  0  0  0  0
    8.1274  -15.7172   23.2530 N   0  0  0  0  0  0  0  0  0  0  0  0
   10.1976  -16.9029   22.7827 C   0  0  0  0  0  0  0  0  0  0  0  0
   10.8998  -15.9099   23.0960 O   0  0  0  0  0  0  0  0  0  0  0  0
   10.8586  -18.1618   22.7377 N   0  0  0  0  0  0  0  0  0  0  0  0
   12.2658  -18.3202   23.0853 C   0  0  1  0  0  0  0  0  0  0  0  0
   12.9734  -17.0270   22.7678 C   0  0  0  0  0  0  0  0  0  0  0  0
   14.4299  -17.0790   23.1300 C   0  0  0  0  0  0  0  0  0  0  0  0
   15.1756  -15.8297   22.8932 C   0  0  0  0  0  0  0  0  0  0  0  0
   15.8548  -15.2187   23.7489 O   0  0  0  0  0  0  0  0  0  0  0  0
   12.4400  -18.6620   24.5094 C   0  0  0  0  0  0  0  0  0  0  0  0
   11.6241  -18.2163   25.3472 O   0  0  0  0  0  0  0  0  0  0  0  0
   15.1450  -15.2533   21.6260 O   0  0  0  0  0  0  0  0  0  0  0  0
   13.4763  -19.4594   24.9490 O   0  0  0  0  0  0  0  0  0  0  0  0
  1  2  1  0
  3  2  1  0
  4  3  1  0
  5  7  1  0
  5  4  1  0
  5  6  1  1
  7 12  1  0
  7  8  2  0
 10  9  1  0
 11 10  1  6
 11 13  1  0
 12 11  1  0
 13 15  1  0
 13 14  2  0
 15 16  1  0
 16 21  1  0
 16 17  1  1
 18 17  1  0
 19 18  1  0
 20 19  2  0
 21 22  2  0
 21 24  1  0
 23 19  1  0
M  END
$$$$
