MSE.pdb
     RDKit          3D

 24 23  0  0  1  0  0  0  0  0999 V2000
    6.7045  -10.9052   26.8156 C   0  0  0  0  0  0  0  0  0  0  0  0
    7.7909  -11.8484   25.7091 S   0  0  0  0  0  0  0  0  0  0  0  0
    6.7603  -12.5989   24.4068 C   0  0  0  0  0  0  0  0  0  0  0  0
    7.6298  -13.2800   23.3724 C   0  0  0  0  0  0  0  0  0  0  0  0
    7.7661  -14.7376   23.7479 C   0  0  2  0  0  0  0  0  0  0  0  0
    6.7498  -15.0228   24.7379 N   0  0  0  0  0  0  0  0  0  0  0  0
    9.0887  -15.0418   24.3308 C   0  0  0  0  0  0  0  0  0  0  0  0
   10.1169  -14.8487   23.6411 O   0  0  0  0  0  0  0  0  0  0  0  0
    9.6024  -15.1032   28.2052 O   0  0  0  0  0  0  0  0  0  0  0  0
   10.7688  -15.1538   27.4541 C   0  0  0  0  0  0  0  0  0  0  0  0
   10.5386  -15.9814   26.1840 C   0  0  2  0  0  0  0  0  0  0  0  0
    9.2769  -15.5468   25.6420 N   0  0  0  0  0  0  0  0  0  0  0  0
   10.4787  -17.4116   26.6377 C   0  0  0  0  0  0  0  0  0  0  0  0
    9.4326  -17.9006   27.1316 O   0  0  0  0  0  0  0  0  0  0  0  0
   11.5997  -18.2809   26.5311 N   0  0  0  0  0  0  0  0  0  0  0  0
   11.7148  -19.5092   27.3082 C   0  0  1  0  0  0  0  0  0  0  0  0
   12.9809  -20.2114   26.8863 C   0  0  0  0  0  0  0  0  0  0  0  0
   13.1178  -20.2748   25.3921 C   0  0  0  0  0  0  0  0  0  0  0  0
   14.5032  -20.3680   24.8971 C   0  0  0  0  0  0  0  0  0  0  0  0
   14.9628  -19.7490   23.9109 O   0  0  0  0  0  0  0  0  0  0  0  0
   11.7401  -19.2366   28.7575 C   0  0  0  0  0  0  0  0  0  0  0  0
   11.7829  -20.1978   29.5576 O   0  0  0  0  0  0  0  0  0  0  0  0
   15.4023  -21.2030   25.5554 O   0  0  0  0  0  0  0  0  0  0  0  0
   11.7181  -17.9523   29.2608 O   0  0  0  0  0  0  0  0  0  0  0  0
  1  2  1  0
  3  2  1  0
  4  3  1  0
  5  7  1  0
  5  4  1  0
  5  6  1  1
  7 12  1  0
  7  8  2  0
 10  9  1  0
 11 10  1  1
 11 13  1  0
 12 11  1  0
 13 15  1  0
 13 14  2  0
 15 16  1  0
 16 21  1  0
 16 17  1  6
 18 17  1  0
 19 18  1  0
 20 19  2  0
 21 22  2  0
 21 24  1  0
 23 19  1  0
M  END
$$$$
