MSE.pdb
     RDKit          3D

 24 23  0  0  1  0  0  0  0  0999 V2000
    7.8412  -11.5570   19.6465 C   0  0  0  0  0  0  0  0  0  0  0  0
    8.2172  -12.7923   20.9220 S   0  0  0  0  0  0  0  0  0  0  0  0
    6.9834  -14.1280   20.7992 C   0  0  0  0  0  0  0  0  0  0  0  0
    7.1147  -15.0772   21.9703 C   0  0  0  0  0  0  0  0  0  0  0  0
    8.5041  -15.6717   21.9498 C   0  0  2  0  0  0  0  0  0  0  0  0
    8.6564  -16.3639   20.6881 N   0  0  0  0  0  0  0  0  0  0  0  0
    8.7123  -16.6401   23.0455 C   0  0  0  0  0  0  0  0  0  0  0  0
    8.5033  -16.2772   24.2265 O   0  0  0  0  0  0  0  0  0  0  0  0
   11.2348  -19.8486   22.6589 O   0  0  0  0  0  0  0  0  0  0  0  0
   10.0071  -20.1608   23.2267 C   0  0  0  0  0  0  0  0  0  0  0  0
    9.4115  -18.9197   23.9021 C   0  0  2  0  0  0  0  0  0  0  0  0
    9.1406  -17.9769   22.8474 N   0  0  0  0  0  0  0  0  0  0  0  0
   10.4769  -18.4138   24.8316 C   0  0  0  0  0  0  0  0  0  0  0  0
   11.3623  -17.6129   24.4418 O   0  0  0  0  0  0  0  0  0  0  0  0
   10.5362  -18.8147   26.1952 N   0  0  0  0  0  0  0  0  0  0  0  0
   11.1146  -17.9718   27.2348 C   0  0  1  0  0  0  0  0  0  0  0  0
   10.3810  -16.6543   27.2293 C   0  0  0  0  0  0  0  0  0  0  0  0
   10.8189  -15.7619   28.3549 C   0  0  0  0  0  0  0  0  0  0  0  0
   10.1518  -14.4483   28.4039 C   0  0  0  0  0  0  0  0  0  0  0  0
    9.2168  -14.0828   27.6561 O   0  0  0  0  0  0  0  0  0  0  0  0
   11.0200  -18.6040   28.5640 C   0  0  0  0  0  0  0  0  0  0  0  0
   10.0875  -19.4068   28.7919 O   0  0  0  0  0  0  0  0  0  0  0  0
   10.5692  -13.5121   29.3464 O   0  0  0  0  0  0  0  0  0  0  0  0
   11.9291  -18.3381   29.5671 O   0  0  0  0  0  0  0  0  0  0  0  0
  1  2  1  0
  3  2  1  0
  4  3  1  0
  5  7  1  0
  5  4  1  0
  5  6  1  6
  7 12  1  0
  7  8  2  0
 10  9  1  0
 11 10  1  6
 11 13  1  0
 12 11  1  0
 13 15  1  0
 13 14  2  0
 15 16  1  0
 16 21  1  0
 16 17  1  1
 18 17  1  0
 19 18  1  0
 20 19  2  0
 21 22  2  0
 21 24  1  0
 23 19  1  0
M  END
$$$$
