CYI.pdb
     RDKit          3D

 27 27  0  0  1  0  0  0  0  0999 V2000
   28.3465  -23.3821  -17.5826 N   0  0  0  0  0  0  0  0  0  0  0  0
   28.2259  -21.9877  -17.1173 C   0  0  1  0  0  0  0  0  0  0  0  0
   27.5834  -21.2056  -18.2252 C   0  0  0  0  0  0  0  0  0  0  0  0
   27.9893  -19.4576  -18.2087 S   0  0  0  0  0  0  0  0  0  0  0  0
   27.4103  -22.0649  -15.8920 C   0  0  0  0  0  0  0  0  0  0  0  0
   26.5073  -22.9655  -15.7483 O   0  0  0  0  0  0  0  0  0  0  0  0
   24.2490  -20.2319   -7.7658 O   0  0  0  0  0  0  0  0  0  0  0  0
   25.0309  -20.3593   -8.9213 C   0  0  0  0  0  0  0  0  0  0  0  0
   25.3414  -19.2620   -9.7158 C   0  0  0  0  0  0  0  0  0  0  0  0
   26.1104  -19.3684  -10.8576 C   0  0  0  0  0  0  0  0  0  0  0  0
   26.5924  -20.6304  -11.2238 C   0  0  0  0  0  0  0  0  0  0  0  0
   27.3955  -20.7284  -12.4321 C   0  0  0  0  0  0  0  0  0  0  0  0
   26.6768  -21.2695  -13.6455 C   0  0  2  0  0  0  0  0  0  0  0  0
   27.5508  -21.1836  -14.8005 N   0  0  0  0  0  0  0  0  0  0  0  0
   25.4003  -20.5996  -13.9390 C   0  0  0  0  0  0  0  0  0  0  0  0
   25.3724  -19.4037  -14.4147 O   0  0  0  0  0  0  0  0  0  0  0  0
   26.2988  -21.7327  -10.4542 C   0  0  0  0  0  0  0  0  0  0  0  0
   25.5267  -21.6058   -9.3134 C   0  0  0  0  0  0  0  0  0  0  0  0
   22.2731  -20.7318  -17.7518 C   0  0  0  0  0  0  0  0  0  0  0  0
   22.8970  -20.3328  -16.4592 C   0  0  0  0  0  0  0  0  0  0  0  0
   22.1517  -20.7290  -15.2227 C   0  0  2  0  0  0  0  0  0  0  0  0
   20.8861  -19.8500  -15.2024 C   0  0  0  0  0  0  0  0  0  0  0  0
   22.8793  -20.3916  -13.9499 C   0  0  2  0  0  0  0  0  0  0  0  0
   24.1031  -21.1421  -13.7498 N   0  0  0  0  0  0  0  0  0  0  0  0
   21.9793  -20.7278  -12.8257 C   0  0  0  0  0  0  0  0  0  0  0  0
   21.2390  -19.8443  -12.3578 O   0  0  0  0  0  0  0  0  0  0  0  0
   21.9552  -21.9947  -12.3003 O   0  0  0  0  0  0  0  0  0  0  0  0
  2  1  1  6
  2  3  1  0
  3  4  1  0
  5  2  1  0
  6  5  2  0
  8  7  1  0
  8 18  2  0
  9  8  1  0
 10  9  2  0
 10 11  1  0
 11 17  2  0
 12 11  1  0
 13 12  1  1
 13 14  1  0
 14  5  1  0
 15 24  1  0
 15 13  1  0
 16 15  2  0
 17 18  1  0
 20 19  1  0
 21 20  1  0
 21 22  1  1
 23 21  1  0
 23 24  1  1
 25 23  1  0
 25 27  1  0
 26 25  2  0
M  END
$$$$
