CYI.pdb
     RDKit          3D

 27 27  0  0  1  0  0  0  0  0999 V2000
   25.3333  -25.0960  -16.2131 N   0  0  0  0  0  0  0  0  0  0  0  0
   25.9320  -23.7540  -16.0865 C   0  0  1  0  0  0  0  0  0  0  0  0
   25.4225  -22.9322  -17.2341 C   0  0  0  0  0  0  0  0  0  0  0  0
   26.5947  -22.7644  -18.5825 S   0  0  0  0  0  0  0  0  0  0  0  0
   25.4968  -23.2665  -14.7654 C   0  0  0  0  0  0  0  0  0  0  0  0
   24.3410  -23.5637  -14.2931 O   0  0  0  0  0  0  0  0  0  0  0  0
   25.4336  -19.3199   -6.8043 O   0  0  0  0  0  0  0  0  0  0  0  0
   25.8001  -19.8338   -8.0550 C   0  0  0  0  0  0  0  0  0  0  0  0
   25.7257  -21.1933   -8.3345 C   0  0  0  0  0  0  0  0  0  0  0  0
   26.0824  -21.7177   -9.5609 C   0  0  0  0  0  0  0  0  0  0  0  0
   26.5351  -20.8434  -10.5557 C   0  0  0  0  0  0  0  0  0  0  0  0
   26.9134  -21.4105  -11.8402 C   0  0  0  0  0  0  0  0  0  0  0  0
   25.7694  -21.9147  -12.6879 C   0  0  2  0  0  0  0  0  0  0  0  0
   26.2921  -22.4581  -13.9276 N   0  0  0  0  0  0  0  0  0  0  0  0
   24.7455  -20.9006  -12.9840 C   0  0  0  0  0  0  0  0  0  0  0  0
   25.0394  -19.8325  -13.6398 O   0  0  0  0  0  0  0  0  0  0  0  0
   26.6182  -19.4931  -10.3041 C   0  0  0  0  0  0  0  0  0  0  0  0
   26.2560  -18.9867   -9.0687 C   0  0  0  0  0  0  0  0  0  0  0  0
   21.8420  -20.3262  -16.7174 C   0  0  0  0  0  0  0  0  0  0  0  0
   22.5257  -20.0599  -15.4208 C   0  0  0  0  0  0  0  0  0  0  0  0
   21.6622  -20.1269  -14.1996 C   0  0  2  0  0  0  0  0  0  0  0  0
   20.7034  -18.9250  -14.3039 C   0  0  0  0  0  0  0  0  0  0  0  0
   22.4189  -19.9099  -12.9176 C   0  0  2  0  0  0  0  0  0  0  0  0
   23.3776  -20.9530  -12.6111 N   0  0  0  0  0  0  0  0  0  0  0  0
   21.4293  -19.8984  -11.8186 C   0  0  0  0  0  0  0  0  0  0  0  0
   21.2229  -20.9452  -11.1790 O   0  0  0  0  0  0  0  0  0  0  0  0
   20.7442  -18.7528  -11.5028 O   0  0  0  0  0  0  0  0  0  0  0  0
  2  1  1  6
  2  3  1  0
  3  4  1  0
  5  2  1  0
  6  5  2  0
  8  7  1  0
  8 18  2  0
  9  8  1  0
 10  9  2  0
 10 11  1  0
 11 17  2  0
 12 11  1  0
 13 12  1  6
 13 14  1  0
 14  5  1  0
 15 24  1  0
 15 13  1  0
 16 15  2  0
 17 18  1  0
 20 19  1  0
 21 20  1  0
 21 22  1  6
 23 21  1  0
 23 24  1  1
 25 23  1  0
 25 27  1  0
 26 25  2  0
M  END
$$$$
