CYI.pdb
     RDKit          3D

 27 27  0  0  1  0  0  0  0  0999 V2000
   26.6910  -21.0324  -16.7045 N   0  0  0  0  0  0  0  0  0  0  0  0
   26.8790  -21.8066  -15.4632 C   0  0  1  0  0  0  0  0  0  0  0  0
   28.2925  -22.3106  -15.4659 C   0  0  0  0  0  0  0  0  0  0  0  0
   28.5177  -23.8330  -16.3887 S   0  0  0  0  0  0  0  0  0  0  0  0
   26.5873  -20.8566  -14.3747 C   0  0  0  0  0  0  0  0  0  0  0  0
   26.8896  -19.6135  -14.4764 O   0  0  0  0  0  0  0  0  0  0  0  0
   20.0518  -23.3538  -12.7437 O   0  0  0  0  0  0  0  0  0  0  0  0
   21.1081  -22.4374  -12.6586 C   0  0  0  0  0  0  0  0  0  0  0  0
   21.2354  -21.5702  -11.5799 C   0  0  0  0  0  0  0  0  0  0  0  0
   22.2694  -20.6609  -11.4789 C   0  0  0  0  0  0  0  0  0  0  0  0
   23.2217  -20.6150  -12.5035 C   0  0  0  0  0  0  0  0  0  0  0  0
   24.3015  -19.6479  -12.3869 C   0  0  0  0  0  0  0  0  0  0  0  0
   25.6718  -20.2336  -12.1406 C   0  0  2  0  0  0  0  0  0  0  0  0
   25.9643  -21.2204  -13.1633 N   0  0  0  0  0  0  0  0  0  0  0  0
   25.8400  -20.8354  -10.8087 C   0  0  0  0  0  0  0  0  0  0  0  0
   25.7204  -22.1052  -10.6343 O   0  0  0  0  0  0  0  0  0  0  0  0
   23.1181  -21.4627  -13.5824 C   0  0  0  0  0  0  0  0  0  0  0  0
   22.0746  -22.3672  -13.6655 C   0  0  0  0  0  0  0  0  0  0  0  0
   28.3595  -20.1000   -5.1151 C   0  0  0  0  0  0  0  0  0  0  0  0
   27.4069  -20.7433   -6.0628 C   0  0  0  0  0  0  0  0  0  0  0  0
   27.2771  -20.0910   -7.4040 C   0  0  2  0  0  0  0  0  0  0  0  0
   26.6271  -18.7196   -7.1365 C   0  0  0  0  0  0  0  0  0  0  0  0
   26.3226  -20.7999   -8.3258 C   0  0  2  0  0  0  0  0  0  0  0  0
   26.1374  -20.1449   -9.6055 N   0  0  0  0  0  0  0  0  0  0  0  0
   25.0026  -20.8239   -7.6593 C   0  0  0  0  0  0  0  0  0  0  0  0
   24.1126  -20.0481   -8.0512 O   0  0  0  0  0  0  0  0  0  0  0  0
   24.7553  -21.6870   -6.6223 O   0  0  0  0  0  0  0  0  0  0  0  0
  2  1  1  6
  2  3  1  0
  3  4  1  0
  5  2  1  0
  6  5  2  0
  8  7  1  0
  8 18  2  0
  9  8  1  0
 10  9  2  0
 10 11  1  0
 11 17  2  0
 12 11  1  0
 13 12  1  6
 13 14  1  0
 14  5  1  0
 15 24  1  0
 15 13  1  0
 16 15  2  0
 17 18  1  0
 20 19  1  0
 21 20  1  0
 21 22  1  1
 23 21  1  0
 23 24  1  6
 25 23  1  0
 25 27  1  0
 26 25  2  0
M  END
$$$$
