CYI.pdb
     RDKit          3D

 27 27  0  0  1  0  0  0  0  0999 V2000
   21.7149  -29.7408  -16.1549 N   0  0  0  0  0  0  0  0  0  0  0  0
   21.8176  -28.2753  -16.0229 C   0  0  1  0  0  0  0  0  0  0  0  0
   21.4887  -27.6862  -17.3633 C   0  0  0  0  0  0  0  0  0  0  0  0
   21.3642  -25.8960  -17.3577 S   0  0  0  0  0  0  0  0  0  0  0  0
   20.8556  -27.9205  -14.9641 C   0  0  0  0  0  0  0  0  0  0  0  0
   19.6624  -28.3932  -14.9623 O   0  0  0  0  0  0  0  0  0  0  0  0
   17.3615  -25.1427   -7.3086 O   0  0  0  0  0  0  0  0  0  0  0  0
   18.2212  -25.4426   -8.3733 C   0  0  0  0  0  0  0  0  0  0  0  0
   18.5081  -26.7547   -8.7310 C   0  0  0  0  0  0  0  0  0  0  0  0
   19.3525  -27.0692   -9.7770 C   0  0  0  0  0  0  0  0  0  0  0  0
   19.9385  -26.0242  -10.5007 C   0  0  0  0  0  0  0  0  0  0  0  0
   20.8307  -26.3705  -11.5956 C   0  0  0  0  0  0  0  0  0  0  0  0
   20.1521  -26.7074  -12.9023 C   0  0  2  0  0  0  0  0  0  0  0  0
   21.1559  -27.0590  -13.8892 N   0  0  0  0  0  0  0  0  0  0  0  0
   19.2928  -25.6359  -13.4295 C   0  0  0  0  0  0  0  0  0  0  0  0
   19.7998  -24.5925  -13.9874 O   0  0  0  0  0  0  0  0  0  0  0  0
   19.6708  -24.7165  -10.1664 C   0  0  0  0  0  0  0  0  0  0  0  0
   18.8218  -24.4215   -9.1148 C   0  0  0  0  0  0  0  0  0  0  0  0
   15.6490  -26.1702  -16.9303 C   0  0  0  0  0  0  0  0  0  0  0  0
   16.4987  -25.2144  -16.1662 C   0  0  0  0  0  0  0  0  0  0  0  0
   15.9918  -24.8264  -14.8119 C   0  0  2  0  0  0  0  0  0  0  0  0
   15.2068  -23.5172  -15.0230 C   0  0  0  0  0  0  0  0  0  0  0  0
   17.0853  -24.4714  -13.8415 C   0  0  2  0  0  0  0  0  0  0  0  0
   17.8748  -25.6031  -13.3978 N   0  0  0  0  0  0  0  0  0  0  0  0
   16.4395  -23.8995  -12.6403 C   0  0  0  0  0  0  0  0  0  0  0  0
   15.9833  -24.6677  -11.7747 O   0  0  0  0  0  0  0  0  0  0  0  0
   16.3411  -22.5414  -12.4754 O   0  0  0  0  0  0  0  0  0  0  0  0
  2  1  1  6
  2  3  1  0
  3  4  1  0
  5  2  1  0
  6  5  2  0
  8  7  1  0
  8 18  2  0
  9  8  1  0
 10  9  2  0
 10 11  1  0
 11 17  2  0
 12 11  1  0
 13 12  1  1
 13 14  1  0
 14  5  1  0
 15 24  1  0
 15 13  1  0
 16 15  2  0
 17 18  1  0
 20 19  1  0
 21 20  1  0
 21 22  1  6
 23 21  1  0
 23 24  1  1
 25 23  1  0
 25 27  1  0
 26 25  2  0
M  END
$$$$
