CYI.pdb
     RDKit          3D

 27 27  0  0  1  0  0  0  0  0999 V2000
   25.8935  -16.8067  -18.8399 N   0  0  0  0  0  0  0  0  0  0  0  0
   26.2596  -18.1267  -18.2928 C   0  0  1  0  0  0  0  0  0  0  0  0
   27.7486  -18.1306  -18.1059 C   0  0  0  0  0  0  0  0  0  0  0  0
   28.3691  -19.5856  -17.2584 S   0  0  0  0  0  0  0  0  0  0  0  0
   25.5010  -18.2404  -17.0343 C   0  0  0  0  0  0  0  0  0  0  0  0
   25.4677  -17.2770  -16.1870 O   0  0  0  0  0  0  0  0  0  0  0  0
   19.8527  -20.6432  -10.6960 O   0  0  0  0  0  0  0  0  0  0  0  0
   20.5566  -20.4586  -11.8932 C   0  0  0  0  0  0  0  0  0  0  0  0
   21.2886  -21.4874  -12.4742 C   0  0  0  0  0  0  0  0  0  0  0  0
   21.9882  -21.3241  -13.6532 C   0  0  0  0  0  0  0  0  0  0  0  0
   21.9555  -20.0742  -14.2824 C   0  0  0  0  0  0  0  0  0  0  0  0
   22.7022  -19.9151  -15.5201 C   0  0  0  0  0  0  0  0  0  0  0  0
   24.1423  -19.4896  -15.3576 C   0  0  2  0  0  0  0  0  0  0  0  0
   24.7632  -19.3836  -16.6648 N   0  0  0  0  0  0  0  0  0  0  0  0
   24.9410  -20.3793  -14.5003 C   0  0  0  0  0  0  0  0  0  0  0  0
   25.3111  -21.5415  -14.9121 O   0  0  0  0  0  0  0  0  0  0  0  0
   21.2383  -19.0393  -13.7275 C   0  0  0  0  0  0  0  0  0  0  0  0
   20.5436  -19.2226  -12.5453 C   0  0  0  0  0  0  0  0  0  0  0  0
   29.7636  -20.6893  -11.0534 C   0  0  0  0  0  0  0  0  0  0  0  0
   28.5093  -21.3139  -11.5591 C   0  0  0  0  0  0  0  0  0  0  0  0
   27.3227  -20.4071  -11.6646 C   0  0  2  0  0  0  0  0  0  0  0  0
   26.8371  -20.1905  -10.2182 C   0  0  0  0  0  0  0  0  0  0  0  0
   26.1536  -21.0298  -12.3777 C   0  0  2  0  0  0  0  0  0  0  0  0
   25.3862  -20.1000  -13.1825 N   0  0  0  0  0  0  0  0  0  0  0  0
   25.2391  -21.5608  -11.3438 C   0  0  0  0  0  0  0  0  0  0  0  0
   24.1901  -20.9428  -11.0885 O   0  0  0  0  0  0  0  0  0  0  0  0
   25.5366  -22.7185  -10.6711 O   0  0  0  0  0  0  0  0  0  0  0  0
  2  1  1  1
  2  3  1  0
  3  4  1  0
  5  2  1  0
  6  5  2  0
  8  7  1  0
  8 18  2  0
  9  8  1  0
 10  9  2  0
 10 11  1  0
 11 17  2  0
 12 11  1  0
 13 12  1  6
 13 14  1  0
 14  5  1  0
 15 24  1  0
 15 13  1  0
 16 15  2  0
 17 18  1  0
 20 19  1  0
 21 20  1  0
 21 22  1  1
 23 21  1  0
 23 24  1  1
 25 23  1  0
 25 27  1  0
 26 25  2  0
M  END
$$$$
