ACM.pdb
     RDKit          3D

 20 19  0  0  1  0  0  0  0  0999 V2000
   17.1953  -11.3661  -18.5586 C   0  0  0  0  0  0  0  0  0  0  0  0
   18.5006  -10.6402  -18.3259 C   0  0  2  0  0  0  0  0  0  0  0  0
   19.5183  -11.6010  -17.9473 N   0  0  0  0  0  0  0  0  0  0  0  0
   18.2926   -9.6547  -17.2235 C   0  0  0  0  0  0  0  0  0  0  0  0
   17.5316   -8.6683  -17.3598 O   0  0  0  0  0  0  0  0  0  0  0  0
   18.9511   -9.7985  -15.9758 N   0  0  0  0  0  0  0  0  0  0  0  0
   18.8500   -8.7972  -14.9334 C   0  0  1  0  0  0  0  0  0  0  0  0
   18.3612   -9.4778  -13.6888 C   0  0  0  0  0  0  0  0  0  0  0  0
   18.8478   -8.4927  -12.2253 S   0  0  0  0  0  0  0  0  0  0  0  0
   20.1836   -8.1661  -14.7441 C   0  0  0  0  0  0  0  0  0  0  0  0
   21.2021   -8.8802  -14.5801 O   0  0  0  0  0  0  0  0  0  0  0  0
   25.8261   -5.9694  -17.6945 C   0  0  0  0  0  0  0  0  0  0  0  0
   24.2764   -5.0282  -17.5309 S   0  0  0  0  0  0  0  0  0  0  0  0
   23.6293   -5.2862  -15.8168 C   0  0  0  0  0  0  0  0  0  0  0  0
   22.2389   -5.8342  -15.9376 C   0  0  0  0  0  0  0  0  0  0  0  0
   21.6959   -6.2170  -14.6017 C   0  0  2  0  0  0  0  0  0  0  0  0
   20.3349   -6.7616  -14.7444 N   0  0  0  0  0  0  0  0  0  0  0  0
   21.6041   -5.0863  -13.6708 C   0  0  0  0  0  0  0  0  0  0  0  0
   20.5055   -4.5686  -13.3978 O   0  0  0  0  0  0  0  0  0  0  0  0
   22.7484   -4.5775  -13.0798 O   0  0  0  0  0  0  0  0  0  0  0  0
  2  1  1  1
  2  3  1  0
  4  2  1  0
  4  5  2  0
  6  4  1  0
  7  6  1  0
  7 10  1  0
  7  8  1  1
  9  8  1  0
 10 17  1  0
 11 10  2  0
 13 12  1  0
 13 14  1  0
 14 15  1  0
 16 15  1  6
 16 18  1  0
 17 16  1  0
 18 19  2  0
 18 20  1  0
M  END
$$$$
