ACM.pdb
     RDKit          3D

 20 19  0  0  1  0  0  0  0  0999 V2000
   28.1900  -22.5951  -17.3754 C   0  0  0  0  0  0  0  0  0  0  0  0
   27.4703  -22.9684  -16.0997 C   0  0  2  0  0  0  0  0  0  0  0  0
   26.0399  -22.8641  -16.3124 N   0  0  0  0  0  0  0  0  0  0  0  0
   27.8988  -22.0179  -15.0308 C   0  0  0  0  0  0  0  0  0  0  0  0
   29.0966  -21.9297  -14.6724 O   0  0  0  0  0  0  0  0  0  0  0  0
   26.9627  -21.1758  -14.3782 N   0  0  0  0  0  0  0  0  0  0  0  0
   27.3553  -20.2605  -13.3257 C   0  0  1  0  0  0  0  0  0  0  0  0
   26.8388  -18.8986  -13.6854 C   0  0  0  0  0  0  0  0  0  0  0  0
   25.0623  -18.7896  -13.2594 S   0  0  0  0  0  0  0  0  0  0  0  0
   26.8028  -20.7501  -12.0343 C   0  0  0  0  0  0  0  0  0  0  0  0
   25.8980  -21.6191  -12.0239 O   0  0  0  0  0  0  0  0  0  0  0  0
   28.9394  -20.4024   -5.4889 C   0  0  0  0  0  0  0  0  0  0  0  0
   27.3290  -19.5833   -5.7122 S   0  0  0  0  0  0  0  0  0  0  0  0
   26.4629  -20.4016   -7.1277 C   0  0  0  0  0  0  0  0  0  0  0  0
   27.1945  -20.0260   -8.3815 C   0  0  0  0  0  0  0  0  0  0  0  0
   26.5954  -20.6958   -9.5725 C   0  0  2  0  0  0  0  0  0  0  0  0
   27.2785  -20.2538  -10.8002 N   0  0  0  0  0  0  0  0  0  0  0  0
   25.1703  -20.3931   -9.7484 C   0  0  0  0  0  0  0  0  0  0  0  0
   24.7970  -19.4971  -10.5277 O   0  0  0  0  0  0  0  0  0  0  0  0
   24.2156  -21.1069   -9.0436 O   0  0  0  0  0  0  0  0  0  0  0  0
  2  1  1  6
  2  3  1  0
  4  2  1  0
  4  5  2  0
  6  4  1  0
  7  6  1  0
  7 10  1  0
  7  8  1  6
  9  8  1  0
 10 17  1  0
 11 10  2  0
 13 12  1  0
 13 14  1  0
 14 15  1  0
 16 15  1  1
 16 18  1  0
 17 16  1  0
 18 19  2  0
 18 20  1  0
M  END
$$$$
