ACM.pdb
     RDKit          3D

 20 19  0  0  1  0  0  0  0  0999 V2000
   20.5863  -19.0468  -10.9814 C   0  0  0  0  0  0  0  0  0  0  0  0
   20.9570  -19.8850  -12.1834 C   0  0  2  0  0  0  0  0  0  0  0  0
   19.8293  -20.7208  -12.5465 N   0  0  0  0  0  0  0  0  0  0  0  0
   22.1258  -20.7367  -11.8117 C   0  0  0  0  0  0  0  0  0  0  0  0
   21.9837  -21.7986  -11.1613 O   0  0  0  0  0  0  0  0  0  0  0  0
   23.4459  -20.3746  -12.1821 N   0  0  0  0  0  0  0  0  0  0  0  0
   24.5810  -21.2370  -11.9226 C   0  0  1  0  0  0  0  0  0  0  0  0
   25.1723  -21.6280  -13.2450 C   0  0  0  0  0  0  0  0  0  0  0  0
   26.8672  -22.2687  -12.9881 S   0  0  0  0  0  0  0  0  0  0  0  0
   25.5520  -20.5060  -11.0650 C   0  0  0  0  0  0  0  0  0  0  0  0
   25.9120  -19.3433  -11.3692 O   0  0  0  0  0  0  0  0  0  0  0  0
   27.3244  -18.4041   -4.8821 C   0  0  0  0  0  0  0  0  0  0  0  0
   28.1553  -19.9567   -5.3441 S   0  0  0  0  0  0  0  0  0  0  0  0
   28.4174  -19.9417   -7.1756 C   0  0  0  0  0  0  0  0  0  0  0  0
   27.2068  -20.5592   -7.8091 C   0  0  0  0  0  0  0  0  0  0  0  0
   27.2780  -20.4733   -9.2970 C   0  0  2  0  0  0  0  0  0  0  0  0
   26.0871  -21.0967   -9.8987 N   0  0  0  0  0  0  0  0  0  0  0  0
   28.4459  -21.1612   -9.8593 C   0  0  0  0  0  0  0  0  0  0  0  0
   28.5025  -22.4043   -9.8934 O   0  0  0  0  0  0  0  0  0  0  0  0
   29.5082  -20.4294  -10.3630 O   0  0  0  0  0  0  0  0  0  0  0  0
  2  1  1  1
  2  3  1  0
  4  2  1  0
  4  5  2  0
  6  4  1  0
  7  6  1  0
  7 10  1  0
  7  8  1  6
  9  8  1  0
 10 17  1  0
 11 10  2  0
 13 12  1  0
 13 14  1  0
 14 15  1  0
 16 15  1  1
 16 18  1  0
 17 16  1  0
 18 19  2  0
 18 20  1  0
M  END
$$$$
