ACM.pdb
     RDKit          3D

 20 19  0  0  1  0  0  0  0  0999 V2000
   26.7980  -22.5000  -16.5654 C   0  0  0  0  0  0  0  0  0  0  0  0
   26.2290  -22.8832  -15.2185 C   0  0  2  0  0  0  0  0  0  0  0  0
   24.7823  -22.8047  -15.2734 N   0  0  0  0  0  0  0  0  0  0  0  0
   26.7548  -21.9228  -14.2031 C   0  0  0  0  0  0  0  0  0  0  0  0
   27.9833  -21.8083  -13.9823 O   0  0  0  0  0  0  0  0  0  0  0  0
   25.8805  -21.1010  -13.4474 N   0  0  0  0  0  0  0  0  0  0  0  0
   26.3703  -20.1693  -12.4515 C   0  0  1  0  0  0  0  0  0  0  0  0
   25.7377  -18.8356  -12.7203 C   0  0  0  0  0  0  0  0  0  0  0  0
   25.8348  -17.8015  -11.2135 S   0  0  0  0  0  0  0  0  0  0  0  0
   26.0328  -20.6913  -11.1001 C   0  0  0  0  0  0  0  0  0  0  0  0
   24.8995  -21.1814  -10.8778 O   0  0  0  0  0  0  0  0  0  0  0  0
   28.2892  -18.2304   -5.5879 C   0  0  0  0  0  0  0  0  0  0  0  0
   28.0250  -19.9562   -5.0716 S   0  0  0  0  0  0  0  0  0  0  0  0
   26.8678  -20.7439   -6.2814 C   0  0  0  0  0  0  0  0  0  0  0  0
   27.3204  -20.3549   -7.6568 C   0  0  0  0  0  0  0  0  0  0  0  0
   26.5135  -21.0487   -8.7027 C   0  0  2  0  0  0  0  0  0  0  0  0
   26.9706  -20.6486  -10.0444 N   0  0  0  0  0  0  0  0  0  0  0  0
   25.0823  -20.7327   -8.6311 C   0  0  0  0  0  0  0  0  0  0  0  0
   24.3581  -21.2363   -7.7528 O   0  0  0  0  0  0  0  0  0  0  0  0
   24.5154  -19.8632   -9.5477 O   0  0  0  0  0  0  0  0  0  0  0  0
  2  1  1  6
  2  3  1  0
  4  2  1  0
  4  5  2  0
  6  4  1  0
  7  6  1  0
  7 10  1  0
  7  8  1  6
  9  8  1  0
 10 17  1  0
 11 10  2  0
 13 12  1  0
 13 14  1  0
 14 15  1  0
 16 15  1  1
 16 18  1  0
 17 16  1  0
 18 19  2  0
 18 20  1  0
M  END
$$$$
