ACM.pdb
     RDKit          3D

 20 19  0  0  1  0  0  0  0  0999 V2000
   27.4828  -18.4245  -16.2283 C   0  0  0  0  0  0  0  0  0  0  0  0
   27.8255  -19.3027  -15.0468 C   0  0  2  0  0  0  0  0  0  0  0  0
   27.7572  -20.6932  -15.4519 N   0  0  0  0  0  0  0  0  0  0  0  0
   26.8297  -19.0356  -13.9666 C   0  0  0  0  0  0  0  0  0  0  0  0
   25.8753  -18.2409  -14.1356 O   0  0  0  0  0  0  0  0  0  0  0  0
   26.9269  -19.6735  -12.7038 N   0  0  0  0  0  0  0  0  0  0  0  0
   25.7817  -19.8252  -11.8291 C   0  0  1  0  0  0  0  0  0  0  0  0
   24.7820  -20.6981  -12.5289 C   0  0  0  0  0  0  0  0  0  0  0  0
   25.3860  -22.4256  -12.5414 S   0  0  0  0  0  0  0  0  0  0  0  0
   26.2375  -20.4115  -10.5402 C   0  0  0  0  0  0  0  0  0  0  0  0
   27.0848  -21.3368  -10.5325 O   0  0  0  0  0  0  0  0  0  0  0  0
   28.9411  -19.4923   -3.4734 C   0  0  0  0  0  0  0  0  0  0  0  0
   28.3646  -18.7983   -5.0547 S   0  0  0  0  0  0  0  0  0  0  0  0
   27.4436  -20.1241   -5.9587 C   0  0  0  0  0  0  0  0  0  0  0  0
   27.0247  -19.5592   -7.2829 C   0  0  0  0  0  0  0  0  0  0  0  0
   26.2538  -20.5624   -8.0738 C   0  0  2  0  0  0  0  0  0  0  0  0
   25.7331  -19.9456   -9.3057 N   0  0  0  0  0  0  0  0  0  0  0  0
   25.0977  -21.1030   -7.3495 C   0  0  0  0  0  0  0  0  0  0  0  0
   23.9377  -20.9056   -7.7555 O   0  0  0  0  0  0  0  0  0  0  0  0
   25.2852  -21.8456   -6.1957 O   0  0  0  0  0  0  0  0  0  0  0  0
  2  1  1  6
  2  3  1  0
  4  2  1  0
  4  5  2  0
  6  4  1  0
  7  6  1  0
  7 10  1  0
  7  8  1  6
  9  8  1  0
 10 17  1  0
 11 10  2  0
 13 12  1  0
 13 14  1  0
 14 15  1  0
 16 15  1  1
 16 18  1  0
 17 16  1  0
 18 19  2  0
 18 20  1  0
M  END
$$$$
