YHQ.pdb
     RDKit          3D

 32 33  0  0  1  0  0  0  0  0999 V2000
   29.6747  -27.8867  -16.5486 O   0  0  0  0  0  0  0  0  0  0  0  0
   29.2238  -26.5941  -16.4054 C   0  0  0  0  0  0  0  0  0  0  0  0
   27.9224  -26.3756  -16.0090 C   0  0  0  0  0  0  0  0  0  0  0  0
   27.4784  -25.0801  -15.8678 C   0  0  0  0  0  0  0  0  0  0  0  0
   28.3198  -24.0350  -16.1187 C   0  0  0  0  0  0  0  0  0  0  0  0
   27.8403  -22.6521  -15.9748 C   0  0  0  0  0  0  0  0  0  0  0  0
   27.0319  -22.1420  -17.1287 C   0  0  2  0  0  0  0  0  0  0  0  0
   27.9797  -21.7940  -18.1903 N   0  0  0  0  0  0  0  0  0  0  0  0
   26.3518  -20.8912  -16.7306 C   0  0  0  0  0  0  0  0  0  0  0  0
   26.9346  -19.7726  -16.7316 O   0  0  0  0  0  0  0  0  0  0  0  0
   29.6219  -24.2414  -16.5152 C   0  0  0  0  0  0  0  0  0  0  0  0
   30.0790  -25.5339  -16.6601 C   0  0  0  0  0  0  0  0  0  0  0  0
   24.9618  -20.8694  -16.3105 N   0  0  0  0  0  0  0  0  0  0  0  0
   24.2884  -19.6458  -16.0224 C   0  0  1  0  0  0  0  0  0  0  0  0
   24.5087  -18.6412  -17.0790 C   0  0  0  0  0  0  0  0  0  0  0  0
   25.7439  -17.8661  -17.0240 C   0  0  0  0  0  0  0  0  0  0  0  0
   26.8025  -17.7935  -16.1805 C   0  0  0  0  0  0  0  0  0  0  0  0
   27.7351  -16.8948  -16.6109 N   0  0  0  0  0  0  0  0  0  0  0  0
   27.2202  -16.4104  -17.7528 C   0  0  0  0  0  0  0  0  0  0  0  0
   26.0363  -16.9719  -18.0213 N   0  0  0  0  0  0  0  0  0  0  0  0
   22.8508  -19.8528  -15.6948 C   0  0  0  0  0  0  0  0  0  0  0  0
   22.0494  -20.4600  -16.4321 O   0  0  0  0  0  0  0  0  0  0  0  0
   21.0024  -18.5821  -10.0062 N   0  0  0  0  0  0  0  0  0  0  0  0
   19.7369  -18.9899  -10.4931 C   0  0  0  0  0  0  0  0  0  0  0  0
   18.7170  -19.0634   -9.7632 O   0  0  0  0  0  0  0  0  0  0  0  0
   19.6376  -19.3373  -11.9118 C   0  0  0  0  0  0  0  0  0  0  0  0
   20.9482  -19.2453  -12.5954 C   0  0  0  0  0  0  0  0  0  0  0  0
   20.9692  -19.6232  -14.0548 C   0  0  2  0  0  0  0  0  0  0  0  0
   22.3650  -19.3293  -14.4741 N   0  0  0  0  0  0  0  0  0  0  0  0
   20.0332  -18.7423  -14.7813 C   0  0  0  0  0  0  0  0  0  0  0  0
   20.3518  -17.5982  -15.2045 O   0  0  0  0  0  0  0  0  0  0  0  0
   18.7457  -19.1950  -15.0097 O   0  0  0  0  0  0  0  0  0  0  0  0
  2  1  1  0
  2  3  2  0
  4  3  1  0
  5  4  2  0
  6  7  1  0
  6  5  1  0
  7  8  1  6
  9  7  1  0
  9 13  1  0
 10  9  2  0
 11 12  2  0
 11  5  1  0
 12  2  1  0
 14 15  1  6
 14 13  1  0
 16 15  1  0
 16 17  2  0
 18 17  1  0
 19 18  1  0
 20 19  2  0
 20 16  1  0
 21 14  1  0
 22 21  2  0
 23 24  1  0
 24 26  1  0
 24 25  2  0
 26 27  1  0
 28 27  1  1
 28 30  1  0
 28 29  1  0
 29 21  1  0
 30 32  1  0
 31 30  2  0
M  END
$$$$
