YHQ.pdb
     RDKit          3D

 32 33  0  0  1  0  0  0  0  0999 V2000
   13.4017  -13.7799  -21.4648 O   0  0  0  0  0  0  0  0  0  0  0  0
   14.7393  -13.4600  -21.4089 C   0  0  0  0  0  0  0  0  0  0  0  0
   15.6288  -14.1449  -22.2079 C   0  0  0  0  0  0  0  0  0  0  0  0
   16.9651  -13.8196  -22.1468 C   0  0  0  0  0  0  0  0  0  0  0  0
   17.3936  -12.8338  -21.3056 C   0  0  0  0  0  0  0  0  0  0  0  0
   18.8229  -12.4939  -21.2365 C   0  0  0  0  0  0  0  0  0  0  0  0
   19.5404  -13.0276  -20.0342 C   0  0  2  0  0  0  0  0  0  0  0  0
   18.8884  -14.2898  -19.6763 N   0  0  0  0  0  0  0  0  0  0  0  0
   19.3413  -12.1021  -18.8987 C   0  0  0  0  0  0  0  0  0  0  0  0
   18.6042  -12.3846  -17.9150 O   0  0  0  0  0  0  0  0  0  0  0  0
   16.5141  -12.1428  -20.5029 C   0  0  0  0  0  0  0  0  0  0  0  0
   15.1732  -12.4588  -20.5547 C   0  0  0  0  0  0  0  0  0  0  0  0
   19.9848  -10.8014  -18.8422 N   0  0  0  0  0  0  0  0  0  0  0  0
   19.8337   -9.9424  -17.7139 C   0  0  1  0  0  0  0  0  0  0  0  0
   20.1063  -10.6510  -16.4499 C   0  0  0  0  0  0  0  0  0  0  0  0
   20.1817   -9.8506  -15.2320 C   0  0  0  0  0  0  0  0  0  0  0  0
   21.1487   -9.1413  -14.6002 C   0  0  0  0  0  0  0  0  0  0  0  0
   20.6797   -8.5369  -13.4700 N   0  0  0  0  0  0  0  0  0  0  0  0
   19.3862   -8.8944  -13.4203 C   0  0  0  0  0  0  0  0  0  0  0  0
   19.0644   -9.6758  -14.4570 N   0  0  0  0  0  0  0  0  0  0  0  0
   20.6022   -8.6754  -17.8584 C   0  0  0  0  0  0  0  0  0  0  0  0
   21.8194   -8.6262  -18.1246 O   0  0  0  0  0  0  0  0  0  0  0  0
   18.3908   -4.1792  -20.8124 N   0  0  0  0  0  0  0  0  0  0  0  0
   17.6734   -4.4719  -19.6272 C   0  0  0  0  0  0  0  0  0  0  0  0
   16.4652   -4.1663  -19.4687 O   0  0  0  0  0  0  0  0  0  0  0  0
   18.3924   -5.1598  -18.5535 C   0  0  0  0  0  0  0  0  0  0  0  0
   19.7920   -5.4620  -18.9320 C   0  0  0  0  0  0  0  0  0  0  0  0
   20.6273   -6.1693  -17.8950 C   0  0  2  0  0  0  0  0  0  0  0  0
   19.9105   -7.4544  -17.6831 N   0  0  0  0  0  0  0  0  0  0  0  0
   20.6047   -5.3736  -16.6516 C   0  0  0  0  0  0  0  0  0  0  0  0
   19.9074   -5.6833  -15.6480 O   0  0  0  0  0  0  0  0  0  0  0  0
   21.3878   -4.2347  -16.5844 O   0  0  0  0  0  0  0  0  0  0  0  0
  2  1  1  0
  2  3  2  0
  4  3  1  0
  5  4  2  0
  6  7  1  0
  6  5  1  0
  7  8  1  1
  9  7  1  0
  9 13  1  0
 10  9  2  0
 11 12  2  0
 11  5  1  0
 12  2  1  0
 14 15  1  1
 14 13  1  0
 16 15  1  0
 16 17  2  0
 18 17  1  0
 19 18  1  0
 20 19  2  0
 20 16  1  0
 21 14  1  0
 22 21  2  0
 23 24  1  0
 24 26  1  0
 24 25  2  0
 26 27  1  0
 28 27  1  6
 28 30  1  0
 28 29  1  0
 29 21  1  0
 30 32  1  0
 31 30  2  0
M  END
$$$$
