YHQ.pdb
     RDKit          3D

 32 33  0  0  1  0  0  0  0  0999 V2000
   25.4952  -32.7285  -10.1117 O   0  0  0  0  0  0  0  0  0  0  0  0
   25.8175  -32.7485   -8.7737 C   0  0  0  0  0  0  0  0  0  0  0  0
   26.1113  -33.9519   -8.1703 C   0  0  0  0  0  0  0  0  0  0  0  0
   26.4329  -33.9642   -6.8318 C   0  0  0  0  0  0  0  0  0  0  0  0
   26.4577  -32.7990   -6.1212 C   0  0  0  0  0  0  0  0  0  0  0  0
   26.7938  -32.8163   -4.6894 C   0  0  0  0  0  0  0  0  0  0  0  0
   25.6714  -33.2220   -3.7834 C   0  0  2  0  0  0  0  0  0  0  0  0
   24.7236  -32.1052   -3.7550 N   0  0  0  0  0  0  0  0  0  0  0  0
   26.1903  -33.3824   -2.4085 C   0  0  0  0  0  0  0  0  0  0  0  0
   26.5805  -32.4054   -1.7127 O   0  0  0  0  0  0  0  0  0  0  0  0
   26.1661  -31.5910   -6.7134 C   0  0  0  0  0  0  0  0  0  0  0  0
   25.8427  -31.5649   -8.0533 C   0  0  0  0  0  0  0  0  0  0  0  0
   26.2850  -34.6817   -1.7667 N   0  0  0  0  0  0  0  0  0  0  0  0
   26.7498  -34.8196   -0.4256 C   0  0  1  0  0  0  0  0  0  0  0  0
   25.6360  -34.8079    0.5405 C   0  0  0  0  0  0  0  0  0  0  0  0
   25.4018  -33.5736    1.2831 C   0  0  0  0  0  0  0  0  0  0  0  0
   26.1344  -32.4740    1.5854 C   0  0  0  0  0  0  0  0  0  0  0  0
   25.4153  -31.5668    2.3083 N   0  0  0  0  0  0  0  0  0  0  0  0
   24.2085  -32.1400    2.4451 C   0  0  0  0  0  0  0  0  0  0  0  0
   24.1740  -33.3344    1.8443 N   0  0  0  0  0  0  0  0  0  0  0  0
   27.6642  -35.9828   -0.2587 C   0  0  0  0  0  0  0  0  0  0  0  0
   27.4602  -37.1059   -0.7604 O   0  0  0  0  0  0  0  0  0  0  0  0
   33.1414  -35.0805    2.3296 N   0  0  0  0  0  0  0  0  0  0  0  0
   33.2931  -36.4711    2.1102 C   0  0  0  0  0  0  0  0  0  0  0  0
   34.3503  -37.0928    2.3824 O   0  0  0  0  0  0  0  0  0  0  0  0
   32.1554  -37.1941    1.5392 C   0  0  0  0  0  0  0  0  0  0  0  0
   31.0101  -36.2951    1.2681 C   0  0  0  0  0  0  0  0  0  0  0  0
   29.7723  -36.9417    0.6999 C   0  0  2  0  0  0  0  0  0  0  0  0
   28.8341  -35.8033    0.5153 N   0  0  0  0  0  0  0  0  0  0  0  0
   29.2294  -37.8788    1.7034 C   0  0  0  0  0  0  0  0  0  0  0  0
   28.5591  -37.5050    2.7036 O   0  0  0  0  0  0  0  0  0  0  0  0
   29.4665  -39.2319    1.5369 O   0  0  0  0  0  0  0  0  0  0  0  0
  2  1  1  0
  2  3  2  0
  4  3  1  0
  5  4  2  0
  6  7  1  0
  6  5  1  0
  7  8  1  1
  9  7  1  0
  9 13  1  0
 10  9  2  0
 11 12  2  0
 11  5  1  0
 12  2  1  0
 14 15  1  1
 14 13  1  0
 16 15  1  0
 16 17  2  0
 18 17  1  0
 19 18  1  0
 20 19  2  0
 20 16  1  0
 21 14  1  0
 22 21  2  0
 23 24  1  0
 24 26  1  0
 24 25  2  0
 26 27  1  0
 28 27  1  1
 28 30  1  0
 28 29  1  0
 29 21  1  0
 30 32  1  0
 31 30  2  0
M  END
$$$$
