YHQ.pdb
     RDKit          3D

 32 33  0  0  1  0  0  0  0  0999 V2000
   17.9893   -9.7836  -15.8374 O   0  0  0  0  0  0  0  0  0  0  0  0
   18.3002  -11.1244  -15.8594 C   0  0  0  0  0  0  0  0  0  0  0  0
   19.4913  -11.5477  -15.3111 C   0  0  0  0  0  0  0  0  0  0  0  0
   19.7957  -12.8901  -15.3366 C   0  0  0  0  0  0  0  0  0  0  0  0
   18.9264  -13.7804  -15.8979 C   0  0  0  0  0  0  0  0  0  0  0  0
   19.2579  -15.2129  -15.9308 C   0  0  0  0  0  0  0  0  0  0  0  0
   20.1873  -15.6196  -17.0335 C   0  0  2  0  0  0  0  0  0  0  0  0
   19.4427  -15.4848  -18.2879 N   0  0  0  0  0  0  0  0  0  0  0  0
   20.5232  -17.0514  -16.8829 C   0  0  0  0  0  0  0  0  0  0  0  0
   19.6950  -17.9713  -17.1257 O   0  0  0  0  0  0  0  0  0  0  0  0
   17.7336  -13.3689  -16.4484 C   0  0  0  0  0  0  0  0  0  0  0  0
   17.4168  -12.0273  -16.4292 C   0  0  0  0  0  0  0  0  0  0  0  0
   21.8349  -17.4937  -16.4437 N   0  0  0  0  0  0  0  0  0  0  0  0
   22.1361  -18.8765  -16.2680 C   0  0  1  0  0  0  0  0  0  0  0  0
   23.5903  -19.1200  -16.2595 C   0  0  0  0  0  0  0  0  0  0  0  0
   24.0441  -20.4771  -15.9733 C   0  0  0  0  0  0  0  0  0  0  0  0
   23.4452  -21.6451  -15.6349 C   0  0  0  0  0  0  0  0  0  0  0  0
   24.3483  -22.6595  -15.5007 N   0  0  0  0  0  0  0  0  0  0  0  0
   25.5310  -22.0823  -15.7682 C   0  0  0  0  0  0  0  0  0  0  0  0
   25.3779  -20.7843  -16.0525 N   0  0  0  0  0  0  0  0  0  0  0  0
   21.4316  -19.4664  -15.0964 C   0  0  0  0  0  0  0  0  0  0  0  0
   21.4843  -18.9954  -13.9431 O   0  0  0  0  0  0  0  0  0  0  0  0
   15.9330  -20.4179  -15.1780 N   0  0  0  0  0  0  0  0  0  0  0  0
   16.0917  -21.1372  -13.9687 C   0  0  0  0  0  0  0  0  0  0  0  0
   15.1218  -21.4843  -13.2497 O   0  0  0  0  0  0  0  0  0  0  0  0
   17.4549  -21.4787  -13.5585 C   0  0  0  0  0  0  0  0  0  0  0  0
   18.4638  -20.9613  -14.5113 C   0  0  0  0  0  0  0  0  0  0  0  0
   19.9075  -21.2248  -14.1652 C   0  0  2  0  0  0  0  0  0  0  0  0
   20.6561  -20.6307  -15.3039 N   0  0  0  0  0  0  0  0  0  0  0  0
   20.1233  -22.6850  -14.1328 C   0  0  0  0  0  0  0  0  0  0  0  0
   20.4549  -23.3551  -15.1479 O   0  0  0  0  0  0  0  0  0  0  0  0
   19.9552  -23.3490  -12.9304 O   0  0  0  0  0  0  0  0  0  0  0  0
  2  1  1  0
  2  3  2  0
  4  3  1  0
  5  4  2  0
  6  7  1  0
  6  5  1  0
  7  8  1  6
  9  7  1  0
  9 13  1  0
 10  9  2  0
 11 12  2  0
 11  5  1  0
 12  2  1  0
 14 15  1  1
 14 13  1  0
 16 15  1  0
 16 17  2  0
 18 17  1  0
 19 18  1  0
 20 19  2  0
 20 16  1  0
 21 14  1  0
 22 21  2  0
 23 24  1  0
 24 26  1  0
 24 25  2  0
 26 27  1  0
 28 27  1  6
 28 30  1  0
 28 29  1  0
 29 21  1  0
 30 32  1  0
 31 30  2  0
M  END
$$$$
