YHQ.pdb
     RDKit          3D

 32 33  0  0  1  0  0  0  0  0999 V2000
   29.8216  -19.5351   -2.9113 O   0  0  0  0  0  0  0  0  0  0  0  0
   29.1238  -19.8172   -4.0638 C   0  0  0  0  0  0  0  0  0  0  0  0
   27.9245  -20.4898   -3.9764 C   0  0  0  0  0  0  0  0  0  0  0  0
   27.2320  -20.7685   -5.1332 C   0  0  0  0  0  0  0  0  0  0  0  0
   27.7325  -20.3817   -6.3427 C   0  0  0  0  0  0  0  0  0  0  0  0
   26.9944  -20.6878   -7.5775 C   0  0  0  0  0  0  0  0  0  0  0  0
   27.3266  -19.8090   -8.7448 C   0  0  2  0  0  0  0  0  0  0  0  0
   26.9715  -18.4405   -8.3607 N   0  0  0  0  0  0  0  0  0  0  0  0
   26.4642  -20.1735   -9.8888 C   0  0  0  0  0  0  0  0  0  0  0  0
   25.2283  -19.9228   -9.9132 O   0  0  0  0  0  0  0  0  0  0  0  0
   28.9296  -19.7091   -6.4421 C   0  0  0  0  0  0  0  0  0  0  0  0
   29.6328  -19.4237   -5.2912 C   0  0  0  0  0  0  0  0  0  0  0  0
   26.9867  -20.8473  -11.0644 N   0  0  0  0  0  0  0  0  0  0  0  0
   26.4334  -20.6249  -12.3598 C   0  0  1  0  0  0  0  0  0  0  0  0
   27.4580  -20.7301  -13.4148 C   0  0  0  0  0  0  0  0  0  0  0  0
   27.0191  -20.5735  -14.7977 C   0  0  0  0  0  0  0  0  0  0  0  0
   25.8284  -20.3887  -15.4186 C   0  0  0  0  0  0  0  0  0  0  0  0
   25.9724  -20.2748  -16.7710 N   0  0  0  0  0  0  0  0  0  0  0  0
   27.2950  -20.3946  -16.9706 C   0  0  0  0  0  0  0  0  0  0  0  0
   27.9406  -20.5730  -15.8129 N   0  0  0  0  0  0  0  0  0  0  0  0
   25.2328  -21.4673  -12.6164 C   0  0  0  0  0  0  0  0  0  0  0  0
   25.2262  -22.7117  -12.5382 O   0  0  0  0  0  0  0  0  0  0  0  0
   19.6516  -21.9368  -10.8388 N   0  0  0  0  0  0  0  0  0  0  0  0
   19.4369  -20.9682  -11.8491 C   0  0  0  0  0  0  0  0  0  0  0  0
   18.3157  -20.4433  -12.0629 O   0  0  0  0  0  0  0  0  0  0  0  0
   20.5861  -20.5784  -12.6680 C   0  0  0  0  0  0  0  0  0  0  0  0
   21.8384  -21.2160  -12.2004 C   0  0  0  0  0  0  0  0  0  0  0  0
   22.8183  -21.6285  -13.2695 C   0  0  2  0  0  0  0  0  0  0  0  0
   24.0276  -20.8172  -12.9698 N   0  0  0  0  0  0  0  0  0  0  0  0
   22.2695  -21.2406  -14.5841 C   0  0  0  0  0  0  0  0  0  0  0  0
   22.4605  -20.1078  -15.1034 O   0  0  0  0  0  0  0  0  0  0  0  0
   21.5109  -22.1654  -15.2798 O   0  0  0  0  0  0  0  0  0  0  0  0
  2  1  1  0
  2  3  2  0
  4  3  1  0
  5  4  2  0
  6  7  1  0
  6  5  1  0
  7  8  1  1
  9  7  1  0
  9 13  1  0
 10  9  2  0
 11 12  2  0
 11  5  1  0
 12  2  1  0
 14 15  1  6
 14 13  1  0
 16 15  1  0
 16 17  2  0
 18 17  1  0
 19 18  1  0
 20 19  2  0
 20 16  1  0
 21 14  1  0
 22 21  2  0
 23 24  1  0
 24 26  1  0
 24 25  2  0
 26 27  1  0
 28 27  1  1
 28 30  1  0
 28 29  1  0
 29 21  1  0
 30 32  1  0
 31 30  2  0
M  END
$$$$
