YHQ.pdb
     RDKit          3D

 32 33  0  0  1  0  0  0  0  0999 V2000
   34.4827  -28.6994  -18.8305 O   0  0  0  0  0  0  0  0  0  0  0  0
   33.1656  -29.0481  -18.6353 C   0  0  0  0  0  0  0  0  0  0  0  0
   32.1836  -28.1001  -18.8243 C   0  0  0  0  0  0  0  0  0  0  0  0
   30.8683  -28.4560  -18.6272 C   0  0  0  0  0  0  0  0  0  0  0  0
   30.5508  -29.7290  -18.2506 C   0  0  0  0  0  0  0  0  0  0  0  0
   29.1455  -30.1041  -18.0331 C   0  0  0  0  0  0  0  0  0  0  0  0
   28.5344  -30.9219  -19.1299 C   0  0  2  0  0  0  0  0  0  0  0  0
   28.0414  -29.9799  -20.1378 N   0  0  0  0  0  0  0  0  0  0  0  0
   27.3571  -31.6427  -18.6007 C   0  0  0  0  0  0  0  0  0  0  0  0
   26.1816  -31.2014  -18.7204 O   0  0  0  0  0  0  0  0  0  0  0  0
   31.5234  -30.6843  -18.0590 C   0  0  0  0  0  0  0  0  0  0  0  0
   32.8444  -30.3408  -18.2531 C   0  0  0  0  0  0  0  0  0  0  0  0
   27.4785  -32.9118  -17.9053 N   0  0  0  0  0  0  0  0  0  0  0  0
   26.3329  -33.6122  -17.4250 C   0  0  1  0  0  0  0  0  0  0  0  0
   26.3502  -35.0289  -17.8332 C   0  0  0  0  0  0  0  0  0  0  0  0
   25.2093  -35.8542  -17.4497 C   0  0  0  0  0  0  0  0  0  0  0  0
   23.9834  -35.6220  -16.9202 C   0  0  0  0  0  0  0  0  0  0  0  0
   23.2660  -36.7739  -16.7742 N   0  0  0  0  0  0  0  0  0  0  0  0
   24.0884  -37.7319  -17.2320 C   0  0  0  0  0  0  0  0  0  0  0  0
   25.2510  -37.2113  -17.6400 N   0  0  0  0  0  0  0  0  0  0  0  0
   26.1225  -33.4212  -15.9635 C   0  0  0  0  0  0  0  0  0  0  0  0
   27.0022  -33.0093  -15.1817 O   0  0  0  0  0  0  0  0  0  0  0  0
   22.4968  -35.9236  -15.4908 N   0  0  0  0  0  0  0  0  0  0  0  0
   21.8829  -35.6358  -14.2477 C   0  0  0  0  0  0  0  0  0  0  0  0
   20.6525  -35.7865  -14.0440 O   0  0  0  0  0  0  0  0  0  0  0  0
   22.7396  -35.1411  -13.1685 C   0  0  0  0  0  0  0  0  0  0  0  0
   24.1533  -35.0265  -13.5948 C   0  0  0  0  0  0  0  0  0  0  0  0
   24.6312  -33.6442  -13.9612 C   0  0  2  0  0  0  0  0  0  0  0  0
   24.8486  -33.7252  -15.4297 N   0  0  0  0  0  0  0  0  0  0  0  0
   25.9167  -33.3958  -13.2788 C   0  0  0  0  0  0  0  0  0  0  0  0
   27.0354  -33.5483  -13.8399 O   0  0  0  0  0  0  0  0  0  0  0  0
   25.8919  -32.9739  -11.9612 O   0  0  0  0  0  0  0  0  0  0  0  0
  2  1  1  0
  2  3  2  0
  4  3  1  0
  5  4  2  0
  6  7  1  0
  6  5  1  0
  7  8  1  6
  9  7  1  0
  9 13  1  0
 10  9  2  0
 11 12  2  0
 11  5  1  0
 12  2  1  0
 14 15  1  1
 14 13  1  0
 16 15  1  0
 16 17  2  0
 18 17  1  0
 19 18  1  0
 20 19  2  0
 20 16  1  0
 21 14  1  0
 22 21  2  0
 23 24  1  0
 24 26  1  0
 24 25  2  0
 26 27  1  0
 28 27  1  1
 28 30  1  0
 28 29  1  0
 29 21  1  0
 30 32  1  0
 31 30  2  0
M  END
$$$$
