YHQ.pdb
     RDKit          3D

 32 33  0  0  1  0  0  0  0  0999 V2000
   29.0967  -17.9478  -18.5422 O   0  0  0  0  0  0  0  0  0  0  0  0
   28.1553  -18.0998  -17.5495 C   0  0  0  0  0  0  0  0  0  0  0  0
   27.1688  -17.1486  -17.4067 C   0  0  0  0  0  0  0  0  0  0  0  0
   26.2306  -17.3071  -16.4117 C   0  0  0  0  0  0  0  0  0  0  0  0
   26.2841  -18.3915  -15.5844 C   0  0  0  0  0  0  0  0  0  0  0  0
   25.2852  -18.5541  -14.5173 C   0  0  0  0  0  0  0  0  0  0  0  0
   24.5172  -19.8399  -14.5634 C   0  0  2  0  0  0  0  0  0  0  0  0
   23.8161  -19.8699  -15.8494 N   0  0  0  0  0  0  0  0  0  0  0  0
   23.4821  -19.8261  -13.5080 C   0  0  0  0  0  0  0  0  0  0  0  0
   23.4770  -18.9780  -12.5744 O   0  0  0  0  0  0  0  0  0  0  0  0
   27.2651  -19.3482  -15.7179 C   0  0  0  0  0  0  0  0  0  0  0  0
   28.2105  -19.2013  -16.7104 C   0  0  0  0  0  0  0  0  0  0  0  0
   22.3989  -20.7929  -13.4776 N   0  0  0  0  0  0  0  0  0  0  0  0
   21.1067  -20.4506  -12.9807 C   0  0  1  0  0  0  0  0  0  0  0  0
   20.6217  -19.1817  -13.5541 C   0  0  0  0  0  0  0  0  0  0  0  0
   19.3273  -18.6872  -13.0962 C   0  0  0  0  0  0  0  0  0  0  0  0
   18.9052  -17.8331  -12.1320 C   0  0  0  0  0  0  0  0  0  0  0  0
   17.5477  -17.6919  -12.1365 N   0  0  0  0  0  0  0  0  0  0  0  0
   17.1391  -18.4878  -13.1380 C   0  0  0  0  0  0  0  0  0  0  0  0
   18.1782  -19.0915  -13.7254 N   0  0  0  0  0  0  0  0  0  0  0  0
   20.1331  -21.5691  -13.1136 C   0  0  0  0  0  0  0  0  0  0  0  0
   19.8765  -22.1444  -14.1896 O   0  0  0  0  0  0  0  0  0  0  0  0
   19.9292  -23.7307   -7.6464 N   0  0  0  0  0  0  0  0  0  0  0  0
   18.7014  -23.9111   -8.3282 C   0  0  0  0  0  0  0  0  0  0  0  0
   17.8319  -24.7394   -7.9591 O   0  0  0  0  0  0  0  0  0  0  0  0
   18.4577  -23.0861   -9.5128 C   0  0  0  0  0  0  0  0  0  0  0  0
   18.6178  -23.8590  -10.7660 C   0  0  0  0  0  0  0  0  0  0  0  0
   18.4476  -23.0905  -12.0520 C   0  0  2  0  0  0  0  0  0  0  0  0
   19.4586  -22.0054  -11.9495 N   0  0  0  0  0  0  0  0  0  0  0  0
   17.0908  -22.5088  -12.0749 C   0  0  0  0  0  0  0  0  0  0  0  0
   16.8511  -21.3075  -11.7769 O   0  0  0  0  0  0  0  0  0  0  0  0
   16.0324  -23.3207  -12.4429 O   0  0  0  0  0  0  0  0  0  0  0  0
  2  1  1  0
  2  3  2  0
  4  3  1  0
  5  4  2  0
  6  7  1  0
  6  5  1  0
  7  8  1  6
  9  7  1  0
  9 13  1  0
 10  9  2  0
 11 12  2  0
 11  5  1  0
 12  2  1  0
 14 15  1  6
 14 13  1  0
 16 15  1  0
 16 17  2  0
 18 17  1  0
 19 18  1  0
 20 19  2  0
 20 16  1  0
 21 14  1  0
 22 21  2  0
 23 24  1  0
 24 26  1  0
 24 25  2  0
 26 27  1  0
 28 27  1  1
 28 30  1  0
 28 29  1  0
 29 21  1  0
 30 32  1  0
 31 30  2  0
M  END
$$$$
