YHQ.pdb
     RDKit          3D

 32 33  0  0  1  0  0  0  0  0999 V2000
   21.0017  -21.5286  -16.0691 O   0  0  0  0  0  0  0  0  0  0  0  0
   21.3412  -20.2045  -16.2305 C   0  0  0  0  0  0  0  0  0  0  0  0
   21.5948  -19.4344  -15.1165 C   0  0  0  0  0  0  0  0  0  0  0  0
   21.9339  -18.1108  -15.2856 C   0  0  0  0  0  0  0  0  0  0  0  0
   22.0151  -17.5780  -16.5396 C   0  0  0  0  0  0  0  0  0  0  0  0
   22.3697  -16.1617  -16.7168 C   0  0  0  0  0  0  0  0  0  0  0  0
   23.6067  -15.9182  -17.5266 C   0  0  2  0  0  0  0  0  0  0  0  0
   24.7283  -16.4761  -16.7668 N   0  0  0  0  0  0  0  0  0  0  0  0
   23.8395  -14.4622  -17.6328 C   0  0  0  0  0  0  0  0  0  0  0  0
   24.3123  -13.7800  -16.6831 O   0  0  0  0  0  0  0  0  0  0  0  0
   21.7640  -18.3379  -17.6598 C   0  0  0  0  0  0  0  0  0  0  0  0
   21.4236  -19.6647  -17.5042 C   0  0  0  0  0  0  0  0  0  0  0  0
   23.5373  -13.7194  -18.8436 N   0  0  0  0  0  0  0  0  0  0  0  0
   23.7893  -12.3192  -18.9427 C   0  0  1  0  0  0  0  0  0  0  0  0
   24.7321  -12.0117  -20.0338 C   0  0  0  0  0  0  0  0  0  0  0  0
   26.0948  -12.5188  -19.9091 C   0  0  0  0  0  0  0  0  0  0  0  0
   26.8671  -12.9742  -18.8925 C   0  0  0  0  0  0  0  0  0  0  0  0
   28.1008  -13.3646  -19.3265 N   0  0  0  0  0  0  0  0  0  0  0  0
   28.0694  -13.1368  -20.6497 C   0  0  0  0  0  0  0  0  0  0  0  0
   26.8873  -12.6338  -21.0219 N   0  0  0  0  0  0  0  0  0  0  0  0
   22.5347  -11.5197  -19.0033 C   0  0  0  0  0  0  0  0  0  0  0  0
   21.5147  -11.8717  -19.6282 O   0  0  0  0  0  0  0  0  0  0  0  0
   19.0452  -11.4672  -15.4159 N   0  0  0  0  0  0  0  0  0  0  0  0
   18.3547  -10.3829  -16.0095 C   0  0  0  0  0  0  0  0  0  0  0  0
   17.2379   -9.9794  -15.5995 O   0  0  0  0  0  0  0  0  0  0  0  0
   18.9892   -9.7197  -17.1501 C   0  0  0  0  0  0  0  0  0  0  0  0
   20.2892  -10.3394  -17.4954 C   0  0  0  0  0  0  0  0  0  0  0  0
   21.2420   -9.4911  -18.2991 C   0  0  2  0  0  0  0  0  0  0  0  0
   22.4975  -10.2873  -18.3107 N   0  0  0  0  0  0  0  0  0  0  0  0
   21.4621   -8.2214  -17.5784 C   0  0  0  0  0  0  0  0  0  0  0  0
   22.5002   -7.9831  -16.9039 O   0  0  0  0  0  0  0  0  0  0  0  0
   20.4828   -7.2462  -17.6484 O   0  0  0  0  0  0  0  0  0  0  0  0
  2  1  1  0
  2  3  2  0
  4  3  1  0
  5  4  2  0
  6  7  1  0
  6  5  1  0
  7  8  1  1
  9  7  1  0
  9 13  1  0
 10  9  2  0
 11 12  2  0
 11  5  1  0
 12  2  1  0
 14 15  1  6
 14 13  1  0
 16 15  1  0
 16 17  2  0
 18 17  1  0
 19 18  1  0
 20 19  2  0
 20 16  1  0
 21 14  1  0
 22 21  2  0
 23 24  1  0
 24 26  1  0
 24 25  2  0
 26 27  1  0
 28 27  1  1
 28 30  1  0
 28 29  1  0
 29 21  1  0
 30 32  1  0
 31 30  2  0
M  END
$$$$
