YHQ.pdb
     RDKit          3D

 32 33  0  0  1  0  0  0  0  0999 V2000
   20.2526   -9.6328  -27.6267 O   0  0  0  0  0  0  0  0  0  0  0  0
   20.0116   -9.4794  -26.2802 C   0  0  0  0  0  0  0  0  0  0  0  0
   20.9494   -8.8421  -25.4973 C   0  0  0  0  0  0  0  0  0  0  0  0
   20.7017   -8.6922  -24.1513 C   0  0  0  0  0  0  0  0  0  0  0  0
   19.5439   -9.1704  -23.6092 C   0  0  0  0  0  0  0  0  0  0  0  0
   19.2856   -9.0160  -22.1696 C   0  0  0  0  0  0  0  0  0  0  0  0
   19.8223  -10.1205  -21.3109 C   0  0  2  0  0  0  0  0  0  0  0  0
   18.9594  -11.2844  -21.5277 N   0  0  0  0  0  0  0  0  0  0  0  0
   19.6854   -9.7409  -19.8888 C   0  0  0  0  0  0  0  0  0  0  0  0
   18.6220   -9.9273  -19.2365 O   0  0  0  0  0  0  0  0  0  0  0  0
   18.5998   -9.8087  -24.3817 C   0  0  0  0  0  0  0  0  0  0  0  0
   18.8357   -9.9650  -25.7309 C   0  0  0  0  0  0  0  0  0  0  0  0
   20.7718   -9.1257  -19.1469 N   0  0  0  0  0  0  0  0  0  0  0  0
   20.6267   -8.7609  -17.7759 C   0  0  1  0  0  0  0  0  0  0  0  0
   21.7411   -9.2709  -16.9561 C   0  0  0  0  0  0  0  0  0  0  0  0
   21.6912   -9.0176  -15.5198 C   0  0  0  0  0  0  0  0  0  0  0  0
   20.7924   -8.4697  -14.6658 C   0  0  0  0  0  0  0  0  0  0  0  0
   21.2361   -8.4948  -13.3754 N   0  0  0  0  0  0  0  0  0  0  0  0
   22.4431   -9.0783  -13.4556 C   0  0  0  0  0  0  0  0  0  0  0  0
   22.7376   -9.3992  -14.7203 N   0  0  0  0  0  0  0  0  0  0  0  0
   20.3827   -7.3028  -17.5994 C   0  0  0  0  0  0  0  0  0  0  0  0
   20.9628   -6.4156  -18.2559 O   0  0  0  0  0  0  0  0  0  0  0  0
   15.6620   -7.2448  -16.1504 N   0  0  0  0  0  0  0  0  0  0  0  0
   15.6357   -6.3142  -17.2174 C   0  0  0  0  0  0  0  0  0  0  0  0
   14.7415   -6.3140  -18.0998 O   0  0  0  0  0  0  0  0  0  0  0  0
   16.7084   -5.3196  -17.2743 C   0  0  0  0  0  0  0  0  0  0  0  0
   17.6455   -5.4529  -16.1351 C   0  0  0  0  0  0  0  0  0  0  0  0
   19.1145   -5.4564  -16.4746 C   0  0  2  0  0  0  0  0  0  0  0  0
   19.4361   -6.8997  -16.6290 N   0  0  0  0  0  0  0  0  0  0  0  0
   19.8619   -4.8976  -15.3305 C   0  0  0  0  0  0  0  0  0  0  0  0
   20.1588   -5.5705  -14.3066 O   0  0  0  0  0  0  0  0  0  0  0  0
   20.2566   -3.5724  -15.3859 O   0  0  0  0  0  0  0  0  0  0  0  0
  2  1  1  0
  2  3  2  0
  4  3  1  0
  5  4  2  0
  6  7  1  0
  6  5  1  0
  7  8  1  1
  9  7  1  0
  9 13  1  0
 10  9  2  0
 11 12  2  0
 11  5  1  0
 12  2  1  0
 14 15  1  1
 14 13  1  0
 16 15  1  0
 16 17  2  0
 18 17  1  0
 19 18  1  0
 20 19  2  0
 20 16  1  0
 21 14  1  0
 22 21  2  0
 23 24  1  0
 24 26  1  0
 24 25  2  0
 26 27  1  0
 28 27  1  1
 28 30  1  0
 28 29  1  0
 29 21  1  0
 30 32  1  0
 31 30  2  0
M  END
$$$$
