YHQ.pdb
     RDKit          3D

 32 33  0  0  1  0  0  0  0  0999 V2000
   20.5804  -20.0271  -12.5583 O   0  0  0  0  0  0  0  0  0  0  0  0
   20.4853  -18.7995  -13.1736 C   0  0  0  0  0  0  0  0  0  0  0  0
   21.4513  -18.4258  -14.0822 C   0  0  0  0  0  0  0  0  0  0  0  0
   21.3497  -17.1966  -14.6938 C   0  0  0  0  0  0  0  0  0  0  0  0
   20.3061  -16.3676  -14.3990 C   0  0  0  0  0  0  0  0  0  0  0  0
   20.2045  -15.0516  -15.0480 C   0  0  0  0  0  0  0  0  0  0  0  0
   19.1254  -14.9402  -16.0816 C   0  0  2  0  0  0  0  0  0  0  0  0
   19.5084  -15.8165  -17.1915 N   0  0  0  0  0  0  0  0  0  0  0  0
   19.0996  -13.5601  -16.6106 C   0  0  0  0  0  0  0  0  0  0  0  0
   19.1537  -13.3059  -17.8449 O   0  0  0  0  0  0  0  0  0  0  0  0
   19.3352  -16.7304  -13.4930 C   0  0  0  0  0  0  0  0  0  0  0  0
   19.4253  -17.9588  -12.8737 C   0  0  0  0  0  0  0  0  0  0  0  0
   19.0098  -12.4018  -15.7392 N   0  0  0  0  0  0  0  0  0  0  0  0
   18.8107  -11.0894  -16.2604 C   0  0  1  0  0  0  0  0  0  0  0  0
   17.6202  -11.0229  -17.1277 C   0  0  0  0  0  0  0  0  0  0  0  0
   17.7352  -11.5773  -18.4728 C   0  0  0  0  0  0  0  0  0  0  0  0
   18.6230  -11.4663  -19.4910 C   0  0  0  0  0  0  0  0  0  0  0  0
   18.2689  -12.2364  -20.5607 N   0  0  0  0  0  0  0  0  0  0  0  0
   17.1293  -12.8316  -20.1725 C   0  0  0  0  0  0  0  0  0  0  0  0
   16.7899  -12.4566  -18.9343 N   0  0  0  0  0  0  0  0  0  0  0  0
   18.8251  -10.0480  -15.1964 C   0  0  0  0  0  0  0  0  0  0  0  0
   18.1375  -10.1046  -14.1578 O   0  0  0  0  0  0  0  0  0  0  0  0
   23.0131   -5.5723  -15.4636 N   0  0  0  0  0  0  0  0  0  0  0  0
   22.1954   -4.9740  -14.4745 C   0  0  0  0  0  0  0  0  0  0  0  0
   22.4039   -3.8198  -14.0245 O   0  0  0  0  0  0  0  0  0  0  0  0
   21.0647   -5.7543  -13.9687 C   0  0  0  0  0  0  0  0  0  0  0  0
   20.8730   -7.0078  -14.7338 C   0  0  0  0  0  0  0  0  0  0  0  0
   19.6844   -7.8515  -14.3482 C   0  0  2  0  0  0  0  0  0  0  0  0
   19.6694   -8.9274  -15.3741 N   0  0  0  0  0  0  0  0  0  0  0  0
   18.4650   -7.0280  -14.4699 C   0  0  0  0  0  0  0  0  0  0  0  0
   18.0136   -6.3221  -13.5279 O   0  0  0  0  0  0  0  0  0  0  0  0
   17.7868   -7.0299  -15.6761 O   0  0  0  0  0  0  0  0  0  0  0  0
  2  1  1  0
  2  3  2  0
  4  3  1  0
  5  4  2  0
  6  7  1  0
  6  5  1  0
  7  8  1  6
  9  7  1  0
  9 13  1  0
 10  9  2  0
 11 12  2  0
 11  5  1  0
 12  2  1  0
 14 15  1  1
 14 13  1  0
 16 15  1  0
 16 17  2  0
 18 17  1  0
 19 18  1  0
 20 19  2  0
 20 16  1  0
 21 14  1  0
 22 21  2  0
 23 24  1  0
 24 26  1  0
 24 25  2  0
 26 27  1  0
 28 27  1  6
 28 30  1  0
 28 29  1  0
 29 21  1  0
 30 32  1  0
 31 30  2  0
M  END
$$$$
