MTP.pdb
     RDKit          3D

 23 23  0  0  1  0  0  0  0  0999 V2000
    7.9780  -10.6676   25.7661 C   0  0  0  0  0  0  0  0  0  0  0  0
    7.4995  -11.5781   27.2624 S   0  0  0  0  0  0  0  0  0  0  0  0
    7.1714  -13.2963   26.7203 C   0  0  0  0  0  0  0  0  0  0  0  0
    6.0515  -13.2595   25.7157 C   0  0  0  0  0  0  0  0  0  0  0  0
    5.6554  -14.5849   25.1654 C   0  0  2  0  0  0  0  0  0  0  0  0
    4.7709  -15.3283   26.0118 N   0  0  0  0  0  0  0  0  0  0  0  0
    6.8060  -15.4031   24.6604 C   0  0  0  0  0  0  0  0  0  0  0  0
    7.3032  -16.2360   25.4359 O   0  0  0  0  0  0  0  0  0  0  0  0
    6.9558  -15.4468   20.5754 C   0  0  0  0  0  0  0  0  0  0  0  0
    8.2608  -15.6121   21.2463 C   0  0  1  0  0  0  0  0  0  0  0  0
    8.8638  -14.3257   21.2626 O   0  0  0  0  0  0  0  0  0  0  0  0
    8.2727  -16.0620   22.6778 C   0  0  2  0  0  0  0  0  0  0  0  0
    7.2755  -15.2046   23.3445 N   0  0  0  0  0  0  0  0  0  0  0  0
    9.5300  -15.9556   23.3918 C   0  0  0  0  0  0  0  0  0  0  0  0
    9.7097  -14.8285   24.0085 O   0  0  0  0  0  0  0  0  0  0  0  0
   10.5813  -16.8543   23.5338 N   0  0  0  0  0  0  0  0  0  0  0  0
   10.6597  -18.1835   22.9346 C   0  0  0  0  0  0  0  0  0  0  0  0
   11.2252  -19.0142   24.0984 C   0  0  0  0  0  0  0  0  0  0  0  0
   12.0308  -18.0249   24.9134 C   0  0  0  0  0  0  0  0  0  0  0  0
   11.8324  -16.7227   24.2068 C   0  0  1  0  0  0  0  0  0  0  0  0
   12.9538  -16.4387   23.2532 C   0  0  0  0  0  0  0  0  0  0  0  0
   12.7164  -16.5360   21.9090 O   0  0  0  0  0  0  0  0  0  0  0  0
   14.0556  -16.1293   23.7021 O   0  0  0  0  0  0  0  0  0  0  0  0
  2  3  1  0
  2  1  1  0
  4  3  1  0
  5  4  1  0
  5  7  1  0
  5  6  1  1
  7 13  1  0
  7  8  2  0
 10  9  1  1
 10 12  1  0
 11 10  1  0
 12 14  1  0
 12 13  1  1
 14 16  1  0
 14 15  2  0
 16 17  1  0
 17 18  1  0
 19 18  1  0
 20 16  1  0
 20 19  1  0
 20 21  1  6
 22 21  1  0
 23 21  2  0
M  END
$$$$
