MTP.pdb
     RDKit          3D

 23 23  0  0  1  0  0  0  0  0999 V2000
   11.9616  -18.5823   26.7305 C   0  0  0  0  0  0  0  0  0  0  0  0
   13.0407  -19.0478   25.3464 S   0  0  0  0  0  0  0  0  0  0  0  0
   12.0156  -18.8916   23.8370 C   0  0  0  0  0  0  0  0  0  0  0  0
   12.2485  -17.5220   23.2582 C   0  0  0  0  0  0  0  0  0  0  0  0
   11.3704  -17.1660   22.1099 C   0  0  2  0  0  0  0  0  0  0  0  0
   12.0082  -17.2722   20.8319 N   0  0  0  0  0  0  0  0  0  0  0  0
   10.6292  -15.8747   22.2875 C   0  0  0  0  0  0  0  0  0  0  0  0
   11.1862  -14.8343   21.9008 O   0  0  0  0  0  0  0  0  0  0  0  0
    7.5019  -14.6238   20.8273 C   0  0  0  0  0  0  0  0  0  0  0  0
    7.3382  -14.8097   22.2829 C   0  0  1  0  0  0  0  0  0  0  0  0
    6.9020  -16.1496   22.4649 O   0  0  0  0  0  0  0  0  0  0  0  0
    8.5501  -14.6763   23.1578 C   0  0  2  0  0  0  0  0  0  0  0  0
    9.3464  -15.8848   22.8754 N   0  0  0  0  0  0  0  0  0  0  0  0
    8.3249  -14.5906   24.5873 C   0  0  0  0  0  0  0  0  0  0  0  0
    8.8855  -15.5320   25.2820 O   0  0  0  0  0  0  0  0  0  0  0  0
    7.6117  -13.6713   25.3485 N   0  0  0  0  0  0  0  0  0  0  0  0
    6.7767  -12.5922   24.8287 C   0  0  0  0  0  0  0  0  0  0  0  0
    7.1574  -11.4304   25.7611 C   0  0  0  0  0  0  0  0  0  0  0  0
    7.5688  -12.1017   27.0541 C   0  0  0  0  0  0  0  0  0  0  0  0
    7.4476  -13.5626   26.7615 C   0  0  1  0  0  0  0  0  0  0  0  0
    6.1259  -14.1058   27.2150 C   0  0  0  0  0  0  0  0  0  0  0  0
    5.2190  -14.5054   26.2713 O   0  0  0  0  0  0  0  0  0  0  0  0
    5.8903  -14.1755   28.4195 O   0  0  0  0  0  0  0  0  0  0  0  0
  2  3  1  0
  2  1  1  0
  4  3  1  0
  5  4  1  0
  5  7  1  0
  5  6  1  6
  7 13  1  0
  7  8  2  0
 10  9  1  6
 10 12  1  0
 11 10  1  0
 12 14  1  0
 12 13  1  1
 14 16  1  0
 14 15  2  0
 16 17  1  0
 17 18  1  0
 19 18  1  0
 20 16  1  0
 20 19  1  0
 20 21  1  6
 22 21  1  0
 23 21  2  0
M  END
$$$$
