MTP.pdb
     RDKit          3D

 23 23  0  0  1  0  0  0  0  0999 V2000
   10.9493  -16.0189   29.2428 C   0  0  0  0  0  0  0  0  0  0  0  0
   12.3320  -17.1726   29.0096 S   0  0  0  0  0  0  0  0  0  0  0  0
   12.2081  -17.7606   27.2798 C   0  0  0  0  0  0  0  0  0  0  0  0
   11.5214  -16.6906   26.4746 C   0  0  0  0  0  0  0  0  0  0  0  0
   11.2540  -17.0457   25.0538 C   0  0  2  0  0  0  0  0  0  0  0  0
   12.3458  -17.7037   24.4006 N   0  0  0  0  0  0  0  0  0  0  0  0
   10.6793  -15.9229   24.2431 C   0  0  0  0  0  0  0  0  0  0  0  0
   11.4719  -15.0963   23.7628 O   0  0  0  0  0  0  0  0  0  0  0  0
    8.3674  -15.2982   21.2316 C   0  0  0  0  0  0  0  0  0  0  0  0
    7.7044  -15.0135   22.5199 C   0  0  1  0  0  0  0  0  0  0  0  0
    7.0809  -16.2255   22.9212 O   0  0  0  0  0  0  0  0  0  0  0  0
    8.5592  -14.6145   23.6869 C   0  0  2  0  0  0  0  0  0  0  0  0
    9.2829  -15.8454   24.0547 N   0  0  0  0  0  0  0  0  0  0  0  0
    7.8765  -14.1072   24.8610 C   0  0  0  0  0  0  0  0  0  0  0  0
    7.9917  -14.8499   25.9185 O   0  0  0  0  0  0  0  0  0  0  0  0
    7.1180  -12.9581   25.0542 N   0  0  0  0  0  0  0  0  0  0  0  0
    6.6815  -12.0337   24.0118 C   0  0  0  0  0  0  0  0  0  0  0  0
    6.9287  -10.6724   24.6826 C   0  0  0  0  0  0  0  0  0  0  0  0
    6.7893  -10.9496   26.1644 C   0  0  0  0  0  0  0  0  0  0  0  0
    6.5306  -12.4201   26.2379 C   0  0  1  0  0  0  0  0  0  0  0  0
    5.0633  -12.7163   26.3191 C   0  0  0  0  0  0  0  0  0  0  0  0
    4.4062  -12.4738   27.4948 O   0  0  0  0  0  0  0  0  0  0  0  0
    4.4901  -13.1710   25.3312 O   0  0  0  0  0  0  0  0  0  0  0  0
  2  3  1  0
  2  1  1  0
  4  3  1  0
  5  4  1  0
  5  7  1  0
  5  6  1  6
  7 13  1  0
  7  8  2  0
 10  9  1  6
 10 12  1  0
 11 10  1  0
 12 14  1  0
 12 13  1  1
 14 16  1  0
 14 15  2  0
 16 17  1  0
 17 18  1  0
 19 18  1  0
 20 16  1  0
 20 19  1  0
 20 21  1  6
 22 21  1  0
 23 21  2  0
M  END
$$$$
