MTP.pdb
     RDKit          3D

 23 23  0  0  1  0  0  0  0  0999 V2000
    5.7843  -11.4840   25.5965 C   0  0  0  0  0  0  0  0  0  0  0  0
    7.0954  -12.4720   24.8206 S   0  0  0  0  0  0  0  0  0  0  0  0
    7.0086  -12.1020   23.0292 C   0  0  0  0  0  0  0  0  0  0  0  0
    8.1460  -12.8183   22.3524 C   0  0  0  0  0  0  0  0  0  0  0  0
    7.8623  -14.2282   21.9676 C   0  0  2  0  0  0  0  0  0  0  0  0
    6.7105  -14.3850   21.1307 N   0  0  0  0  0  0  0  0  0  0  0  0
    7.8837  -15.1896   23.1181 C   0  0  0  0  0  0  0  0  0  0  0  0
    6.7920  -15.5372   23.5972 O   0  0  0  0  0  0  0  0  0  0  0  0
    8.6102  -18.4911   23.1432 C   0  0  0  0  0  0  0  0  0  0  0  0
    9.5897  -17.9163   24.0868 C   0  0  1  0  0  0  0  0  0  0  0  0
   10.7701  -17.6736   23.3341 O   0  0  0  0  0  0  0  0  0  0  0  0
    9.2673  -16.6011   24.7335 C   0  0  2  0  0  0  0  0  0  0  0  0
    9.1207  -15.6602   23.6077 N   0  0  0  0  0  0  0  0  0  0  0  0
   10.2431  -16.0667   25.6630 C   0  0  0  0  0  0  0  0  0  0  0  0
   11.3869  -15.7613   25.1324 O   0  0  0  0  0  0  0  0  0  0  0  0
   10.1675  -15.8211   27.0294 N   0  0  0  0  0  0  0  0  0  0  0  0
    8.9847  -15.9951   27.8675 C   0  0  0  0  0  0  0  0  0  0  0  0
    9.0407  -14.7348   28.7465 C   0  0  0  0  0  0  0  0  0  0  0  0
   10.5128  -14.3892   28.8197 C   0  0  0  0  0  0  0  0  0  0  0  0
   11.1724  -15.4176   27.9584 C   0  0  1  0  0  0  0  0  0  0  0  0
   11.6794  -16.5711   28.7707 C   0  0  0  0  0  0  0  0  0  0  0  0
   11.0982  -17.7990   28.6059 O   0  0  0  0  0  0  0  0  0  0  0  0
   12.5998  -16.3842   29.5638 O   0  0  0  0  0  0  0  0  0  0  0  0
  2  3  1  0
  2  1  1  0
  4  3  1  0
  5  4  1  0
  5  7  1  0
  5  6  1  1
  7 13  1  0
  7  8  2  0
 10  9  1  6
 10 12  1  0
 11 10  1  0
 12 14  1  0
 12 13  1  6
 14 16  1  0
 14 15  2  0
 16 17  1  0
 17 18  1  0
 19 18  1  0
 20 16  1  0
 20 19  1  0
 20 21  1  1
 22 21  1  0
 23 21  2  0
M  END
$$$$
