MTP.pdb
     RDKit          3D

 23 23  0  0  1  0  0  0  0  0999 V2000
    8.2641  -11.9475   19.3838 C   0  0  0  0  0  0  0  0  0  0  0  0
    8.7462  -12.9771   17.9680 S   0  0  0  0  0  0  0  0  0  0  0  0
    8.3256  -14.6977   18.4331 C   0  0  0  0  0  0  0  0  0  0  0  0
    8.4211  -14.8095   19.9309 C   0  0  0  0  0  0  0  0  0  0  0  0
    8.1055  -16.1554   20.4832 C   0  0  2  0  0  0  0  0  0  0  0  0
    7.5670  -17.0700   19.5215 N   0  0  0  0  0  0  0  0  0  0  0  0
    7.3202  -16.1208   21.7601 C   0  0  0  0  0  0  0  0  0  0  0  0
    6.1464  -16.5246   21.7242 O   0  0  0  0  0  0  0  0  0  0  0  0
    6.0742  -17.7319   23.5079 C   0  0  0  0  0  0  0  0  0  0  0  0
    6.8822  -17.0291   24.5244 C   0  0  1  0  0  0  0  0  0  0  0  0
    8.1103  -17.7379   24.6143 O   0  0  0  0  0  0  0  0  0  0  0  0
    7.2767  -15.6056   24.2599 C   0  0  2  0  0  0  0  0  0  0  0  0
    7.9305  -15.6413   22.9387 N   0  0  0  0  0  0  0  0  0  0  0  0
    8.1792  -14.9844   25.2093 C   0  0  0  0  0  0  0  0  0  0  0  0
    9.4372  -15.0892   24.9103 O   0  0  0  0  0  0  0  0  0  0  0  0
    7.9320  -14.2910   26.3888 N   0  0  0  0  0  0  0  0  0  0  0  0
    6.6429  -14.1837   27.0661 C   0  0  0  0  0  0  0  0  0  0  0  0
    6.6274  -12.6995   27.4674 C   0  0  0  0  0  0  0  0  0  0  0  0
    8.0883  -12.3333   27.6208 C   0  0  0  0  0  0  0  0  0  0  0  0
    8.8186  -13.5855   27.2558 C   0  0  1  0  0  0  0  0  0  0  0  0
    9.1714  -14.3897   28.4707 C   0  0  0  0  0  0  0  0  0  0  0  0
   10.1885  -13.9547   29.2765 O   0  0  0  0  0  0  0  0  0  0  0  0
    8.5416  -15.4180   28.7099 O   0  0  0  0  0  0  0  0  0  0  0  0
  2  3  1  0
  2  1  1  0
  4  3  1  0
  5  4  1  0
  5  7  1  0
  5  6  1  6
  7 13  1  0
  7  8  2  0
 10  9  1  6
 10 12  1  0
 11 10  1  0
 12 14  1  0
 12 13  1  6
 14 16  1  0
 14 15  2  0
 16 17  1  0
 17 18  1  0
 19 18  1  0
 20 16  1  0
 20 19  1  0
 20 21  1  1
 22 21  1  0
 23 21  2  0
M  END
$$$$
