MTP.pdb
     RDKit          3D

 23 23  0  0  1  0  0  0  0  0999 V2000
    7.8651  -12.0367   19.2899 C   0  0  0  0  0  0  0  0  0  0  0  0
    8.0089  -13.4586   18.1698 S   0  0  0  0  0  0  0  0  0  0  0  0
    8.3675  -14.9031   19.2368 C   0  0  0  0  0  0  0  0  0  0  0  0
    9.2473  -14.4383   20.3659 C   0  0  0  0  0  0  0  0  0  0  0  0
    9.6408  -15.4978   21.3347 C   0  0  2  0  0  0  0  0  0  0  0  0
    9.1669  -16.8059   20.9944 N   0  0  0  0  0  0  0  0  0  0  0  0
    9.3849  -15.1382   22.7677 C   0  0  0  0  0  0  0  0  0  0  0  0
    9.7609  -14.0201   23.1558 O   0  0  0  0  0  0  0  0  0  0  0  0
    5.9904  -16.5966   24.4694 C   0  0  0  0  0  0  0  0  0  0  0  0
    7.2165  -16.7314   25.2810 C   0  0  1  0  0  0  0  0  0  0  0  0
    7.7351  -18.0249   25.0041 O   0  0  0  0  0  0  0  0  0  0  0  0
    8.3556  -15.7928   25.0101 C   0  0  2  0  0  0  0  0  0  0  0  0
    8.7354  -16.0643   23.6115 N   0  0  0  0  0  0  0  0  0  0  0  0
    9.5324  -15.9258   25.8463 C   0  0  0  0  0  0  0  0  0  0  0  0
   10.5325  -16.5305   25.2831 O   0  0  0  0  0  0  0  0  0  0  0  0
    9.7794  -15.5154   27.1516 N   0  0  0  0  0  0  0  0  0  0  0  0
    8.8407  -14.8123   28.0213 C   0  0  0  0  0  0  0  0  0  0  0  0
    9.7520  -13.7583   28.6716 C   0  0  0  0  0  0  0  0  0  0  0  0
   11.1269  -14.3919   28.6670 C   0  0  0  0  0  0  0  0  0  0  0  0
   10.9208  -15.7065   27.9860 C   0  0  1  0  0  0  0  0  0  0  0  0
   10.7110  -16.8116   28.9770 C   0  0  0  0  0  0  0  0  0  0  0  0
   11.7752  -17.2367   29.7251 O   0  0  0  0  0  0  0  0  0  0  0  0
    9.5921  -17.3082   29.0899 O   0  0  0  0  0  0  0  0  0  0  0  0
  2  3  1  0
  2  1  1  0
  4  3  1  0
  5  4  1  0
  5  7  1  0
  5  6  1  6
  7 13  1  0
  7  8  2  0
 10  9  1  6
 10 12  1  0
 11 10  1  0
 12 14  1  0
 12 13  1  6
 14 16  1  0
 14 15  2  0
 16 17  1  0
 17 18  1  0
 19 18  1  0
 20 16  1  0
 20 19  1  0
 20 21  1  1
 22 21  1  0
 23 21  2  0
M  END
$$$$
