MTP.pdb
     RDKit          3D

 23 23  0  0  1  0  0  0  0  0999 V2000
   10.3724  -14.1778   29.2397 C   0  0  0  0  0  0  0  0  0  0  0  0
   10.8908  -15.8438   29.7424 S   0  0  0  0  0  0  0  0  0  0  0  0
    9.5296  -16.9636   29.2458 C   0  0  0  0  0  0  0  0  0  0  0  0
    9.0408  -16.5268   27.8911 C   0  0  0  0  0  0  0  0  0  0  0  0
    7.8729  -17.2873   27.3677 C   0  0  2  0  0  0  0  0  0  0  0  0
    8.0741  -18.7044   27.3159 N   0  0  0  0  0  0  0  0  0  0  0  0
    7.3040  -16.7310   26.0968 C   0  0  0  0  0  0  0  0  0  0  0  0
    6.6868  -17.5112   25.3534 O   0  0  0  0  0  0  0  0  0  0  0  0
    5.9394  -12.8910   25.9601 C   0  0  0  0  0  0  0  0  0  0  0  0
    6.8957  -13.2682   24.9002 C   0  0  1  0  0  0  0  0  0  0  0  0
    8.1806  -12.8859   25.3710 O   0  0  0  0  0  0  0  0  0  0  0  0
    7.0304  -14.7206   24.5477 C   0  0  2  0  0  0  0  0  0  0  0  0
    7.4838  -15.3644   25.7944 N   0  0  0  0  0  0  0  0  0  0  0  0
    7.9577  -15.0580   23.4856 C   0  0  0  0  0  0  0  0  0  0  0  0
    8.9219  -15.8508   23.8389 O   0  0  0  0  0  0  0  0  0  0  0  0
    7.9943  -14.6807   22.1479 N   0  0  0  0  0  0  0  0  0  0  0  0
    7.2606  -13.5687   21.5504 C   0  0  0  0  0  0  0  0  0  0  0  0
    6.7694  -14.1943   20.2344 C   0  0  0  0  0  0  0  0  0  0  0  0
    7.8022  -15.2523   19.9094 C   0  0  0  0  0  0  0  0  0  0  0  0
    8.7576  -15.1947   21.0576 C   0  0  1  0  0  0  0  0  0  0  0  0
    9.9406  -14.3286   20.7450 C   0  0  0  0  0  0  0  0  0  0  0  0
   10.9431  -14.8387   19.9654 O   0  0  0  0  0  0  0  0  0  0  0  0
    9.9811  -13.1865   21.1980 O   0  0  0  0  0  0  0  0  0  0  0  0
  2  3  1  0
  2  1  1  0
  4  3  1  0
  5  4  1  0
  5  7  1  0
  5  6  1  6
  7 13  1  0
  7  8  2  0
 10  9  1  1
 10 12  1  0
 11 10  1  0
 12 14  1  0
 12 13  1  1
 14 16  1  0
 14 15  2  0
 16 17  1  0
 17 18  1  0
 19 18  1  0
 20 16  1  0
 20 19  1  0
 20 21  1  6
 22 21  1  0
 23 21  2  0
M  END
$$$$
