MTP.pdb
     RDKit          3D

 23 23  0  0  1  0  0  0  0  0999 V2000
    9.0213  -11.7307   19.7378 C   0  0  0  0  0  0  0  0  0  0  0  0
    7.8451  -12.4473   18.5545 S   0  0  0  0  0  0  0  0  0  0  0  0
    7.6043  -14.1857   19.0774 C   0  0  0  0  0  0  0  0  0  0  0  0
    8.7203  -14.5447   20.0212 C   0  0  0  0  0  0  0  0  0  0  0  0
    8.5659  -15.8558   20.7093 C   0  0  2  0  0  0  0  0  0  0  0  0
    8.0116  -16.8870   19.8841 N   0  0  0  0  0  0  0  0  0  0  0  0
    7.9059  -15.7646   22.0526 C   0  0  0  0  0  0  0  0  0  0  0  0
    6.6726  -15.6212   22.0787 O   0  0  0  0  0  0  0  0  0  0  0  0
    6.0770  -17.0286   23.8238 C   0  0  0  0  0  0  0  0  0  0  0  0
    7.2501  -16.9489   24.7169 C   0  0  1  0  0  0  0  0  0  0  0  0
    8.0658  -18.0684   24.4009 O   0  0  0  0  0  0  0  0  0  0  0  0
    8.1594  -15.7616   24.5927 C   0  0  2  0  0  0  0  0  0  0  0  0
    8.6934  -15.8453   23.2208 N   0  0  0  0  0  0  0  0  0  0  0  0
    9.2702  -15.6820   25.5207 C   0  0  0  0  0  0  0  0  0  0  0  0
   10.3841  -16.1776   25.0772 O   0  0  0  0  0  0  0  0  0  0  0  0
    9.3524  -15.1637   26.8083 N   0  0  0  0  0  0  0  0  0  0  0  0
    8.2405  -14.6318   27.5909 C   0  0  0  0  0  0  0  0  0  0  0  0
    8.8744  -13.3779   28.2156 C   0  0  0  0  0  0  0  0  0  0  0  0
   10.3491  -13.7065   28.3109 C   0  0  0  0  0  0  0  0  0  0  0  0
   10.4598  -15.0675   27.7028 C   0  0  1  0  0  0  0  0  0  0  0  0
   10.4292  -16.1408   28.7490 C   0  0  0  0  0  0  0  0  0  0  0  0
   11.5356  -16.3296   29.5320 O   0  0  0  0  0  0  0  0  0  0  0  0
    9.4148  -16.8238   28.8745 O   0  0  0  0  0  0  0  0  0  0  0  0
  2  3  1  0
  2  1  1  0
  4  3  1  0
  5  4  1  0
  5  7  1  0
  5  6  1  6
  7 13  1  0
  7  8  2  0
 10  9  1  6
 10 12  1  0
 11 10  1  0
 12 14  1  0
 12 13  1  6
 14 16  1  0
 14 15  2  0
 16 17  1  0
 17 18  1  0
 19 18  1  0
 20 16  1  0
 20 19  1  0
 20 21  1  1
 22 21  1  0
 23 21  2  0
M  END
$$$$
