MTP.pdb
     RDKit          3D

 23 23  0  0  1  0  0  0  0  0999 V2000
    8.3523  -12.0755   27.6033 C   0  0  0  0  0  0  0  0  0  0  0  0
    6.6938  -11.7966   26.9189 S   0  0  0  0  0  0  0  0  0  0  0  0
    5.9880  -13.4599   26.6213 C   0  0  0  0  0  0  0  0  0  0  0  0
    6.9326  -14.2100   25.7213 C   0  0  0  0  0  0  0  0  0  0  0  0
    6.4676  -15.5623   25.3073 C   0  0  2  0  0  0  0  0  0  0  0  0
    6.0223  -16.3846   26.3923 N   0  0  0  0  0  0  0  0  0  0  0  0
    7.4101  -16.2740   24.3835 C   0  0  0  0  0  0  0  0  0  0  0  0
    7.7878  -17.4107   24.7114 O   0  0  0  0  0  0  0  0  0  0  0  0
    7.0325  -15.3059   20.5113 C   0  0  0  0  0  0  0  0  0  0  0  0
    8.4374  -15.4944   20.9248 C   0  0  1  0  0  0  0  0  0  0  0  0
    8.9581  -14.1943   21.1643 O   0  0  0  0  0  0  0  0  0  0  0  0
    8.7110  -16.2583   22.1872 C   0  0  2  0  0  0  0  0  0  0  0  0
    7.8271  -15.6410   23.1931 N   0  0  0  0  0  0  0  0  0  0  0  0
   10.0713  -16.2386   22.6879 C   0  0  0  0  0  0  0  0  0  0  0  0
   10.2964  -15.3563   23.6120 O   0  0  0  0  0  0  0  0  0  0  0  0
   11.1821  -17.0042   22.3514 N   0  0  0  0  0  0  0  0  0  0  0  0
   11.2444  -18.0036   21.2888 C   0  0  0  0  0  0  0  0  0  0  0  0
   12.0284  -19.1349   21.9742 C   0  0  0  0  0  0  0  0  0  0  0  0
   12.8909  -18.4305   22.9998 C   0  0  0  0  0  0  0  0  0  0  0  0
   12.5118  -16.9905   22.8683 C   0  0  1  0  0  0  0  0  0  0  0  0
   13.4556  -16.2542   21.9659 C   0  0  0  0  0  0  0  0  0  0  0  0
   14.6175  -15.7577   22.4915 O   0  0  0  0  0  0  0  0  0  0  0  0
   13.1611  -16.1131   20.7807 O   0  0  0  0  0  0  0  0  0  0  0  0
  2  3  1  0
  2  1  1  0
  4  3  1  0
  5  4  1  0
  5  7  1  0
  5  6  1  1
  7 13  1  0
  7  8  2  0
 10  9  1  1
 10 12  1  0
 11 10  1  0
 12 14  1  0
 12 13  1  1
 14 16  1  0
 14 15  2  0
 16 17  1  0
 17 18  1  0
 19 18  1  0
 20 16  1  0
 20 19  1  0
 20 21  1  6
 22 21  1  0
 23 21  2  0
M  END
$$$$
