CKF.pdb
     RDKit          3D

 27 27  0  0  1  0  0  0  0  0999 V2000
   25.0984  -16.3931  -17.6959 N   0  0  0  0  0  0  0  0  0  0  0  0
   24.7822  -15.4469  -16.6579 C   0  0  1  0  0  0  0  0  0  0  0  0
   26.0015  -15.0493  -15.8530 C   0  0  0  0  0  0  0  0  0  0  0  0
   26.7185  -16.4521  -14.9761 S   0  0  0  0  0  0  0  0  0  0  0  0
   24.2471  -14.2082  -17.2997 C   0  0  0  0  0  0  0  0  0  0  0  0
   24.7503  -13.7619  -18.3818 O   0  0  0  0  0  0  0  0  0  0  0  0
   23.1704  -13.5244  -16.6986 N   0  0  0  0  0  0  0  0  0  0  0  0
   22.5229  -12.3500  -17.2919 C   0  0  1  0  0  0  0  0  0  0  0  0
   21.0775  -12.7172  -17.3874 C   0  0  0  0  0  0  0  0  0  0  0  0
   20.5736  -13.1158  -18.7233 C   0  0  0  0  0  0  0  0  0  0  0  0
   19.9553  -14.5099  -18.5696 C   0  0  0  0  0  0  0  0  0  0  0  0
   19.5918  -15.0751  -19.9295 C   0  0  0  0  0  0  0  0  0  0  0  0
   19.0351  -16.4061  -19.7193 N   0  0  0  0  0  0  0  0  0  0  0  0
   22.8387  -11.2101  -16.4311 C   0  0  0  0  0  0  0  0  0  0  0  0
   22.6148  -11.2366  -15.1691 O   0  0  0  0  0  0  0  0  0  0  0  0
   23.4115   -9.9946  -16.8936 N   0  0  0  0  0  0  0  0  0  0  0  0
   23.7336   -8.9000  -15.9540 C   0  0  1  0  0  0  0  0  0  0  0  0
   25.1514   -8.5253  -16.2318 C   0  0  0  0  0  0  0  0  0  0  0  0
   26.0257   -9.6928  -16.0000 C   0  0  0  0  0  0  0  0  0  0  0  0
   26.8316  -10.2024  -16.9994 C   0  0  0  0  0  0  0  0  0  0  0  0
   27.6480  -11.2916  -16.7761 C   0  0  0  0  0  0  0  0  0  0  0  0
   27.6733  -11.8965  -15.5376 C   0  0  0  0  0  0  0  0  0  0  0  0
   26.8742  -11.3951  -14.5384 C   0  0  0  0  0  0  0  0  0  0  0  0
   26.0575  -10.3124  -14.7469 C   0  0  0  0  0  0  0  0  0  0  0  0
   22.7663   -7.8099  -16.0773 C   0  0  0  0  0  0  0  0  0  0  0  0
   22.0809   -7.7211  -17.1436 O   0  0  0  0  0  0  0  0  0  0  0  0
   22.5233   -6.8491  -15.1224 O   0  0  0  0  0  0  0  0  0  0  0  0
  2  3  1  0
  2  5  1  0
  2  1  1  6
  4  3  1  0
  5  6  2  0
  7  8  1  0
  7  5  1  0
  8 14  1  0
  9 10  1  0
  8  9  1  1
 10 11  1  0
 12 11  1  0
 12 13  1  0
 14 15  2  0
 16 14  1  0
 16 17  1  0
 17 25  1  0
 17 18  1  6
 19 18  1  0
 20 19  2  0
 21 20  1  0
 22 21  2  0
 22 23  1  0
 23 24  2  0
 24 19  1  0
 25 26  2  0
 25 27  1  0
M  END
$$$$
