CKF.pdb
     RDKit          3D

 27 27  0  0  1  0  0  0  0  0999 V2000
   28.0226  -19.3975  -13.8444 N   0  0  0  0  0  0  0  0  0  0  0  0
   27.0708  -20.4424  -13.5710 C   0  0  1  0  0  0  0  0  0  0  0  0
   26.9800  -20.7639  -12.0941 C   0  0  0  0  0  0  0  0  0  0  0  0
   28.5469  -21.3672  -11.4370 S   0  0  0  0  0  0  0  0  0  0  0  0
   25.7213  -19.9743  -14.0100 C   0  0  0  0  0  0  0  0  0  0  0  0
   25.3338  -18.7833  -13.7764 O   0  0  0  0  0  0  0  0  0  0  0  0
   24.8659  -20.8636  -14.6921 N   0  0  0  0  0  0  0  0  0  0  0  0
   23.4895  -20.5323  -15.0744 C   0  0  1  0  0  0  0  0  0  0  0  0
   23.4328  -20.7736  -16.5480 C   0  0  0  0  0  0  0  0  0  0  0  0
   22.1048  -20.6577  -17.1961 C   0  0  0  0  0  0  0  0  0  0  0  0
   21.8867  -19.1723  -17.5049 C   0  0  0  0  0  0  0  0  0  0  0  0
   20.5254  -18.9632  -18.1407 C   0  0  0  0  0  0  0  0  0  0  0  0
   20.3527  -17.5311  -18.3519 N   0  0  0  0  0  0  0  0  0  0  0  0
   22.6085  -21.3643  -14.2547 C   0  0  0  0  0  0  0  0  0  0  0  0
   22.9407  -22.5504  -13.8995 O   0  0  0  0  0  0  0  0  0  0  0  0
   21.3337  -20.9521  -13.7810 N   0  0  0  0  0  0  0  0  0  0  0  0
   20.5317  -21.8255  -12.8984 C   0  0  1  0  0  0  0  0  0  0  0  0
   20.6390  -21.2361  -11.5314 C   0  0  0  0  0  0  0  0  0  0  0  0
   19.9638  -19.9228  -11.5050 C   0  0  0  0  0  0  0  0  0  0  0  0
   18.6508  -19.7928  -11.0964 C   0  0  0  0  0  0  0  0  0  0  0  0
   18.0264  -18.5630  -11.0715 C   0  0  0  0  0  0  0  0  0  0  0  0
   18.7105  -17.4305  -11.4585 C   0  0  0  0  0  0  0  0  0  0  0  0
   20.0171  -17.5520  -11.8663 C   0  0  0  0  0  0  0  0  0  0  0  0
   20.6502  -18.7689  -11.8959 C   0  0  0  0  0  0  0  0  0  0  0  0
   19.1688  -21.9674  -13.4096 C   0  0  0  0  0  0  0  0  0  0  0  0
   18.3710  -22.7528  -12.8083 O   0  0  0  0  0  0  0  0  0  0  0  0
   18.6578  -21.3129  -14.5071 O   0  0  0  0  0  0  0  0  0  0  0  0
  2  3  1  0
  2  5  1  0
  2  1  1  1
  4  3  1  0
  5  6  2  0
  7  8  1  0
  7  5  1  0
  8 14  1  0
  9 10  1  0
  8  9  1  6
 10 11  1  0
 12 11  1  0
 12 13  1  0
 14 15  2  0
 16 14  1  0
 16 17  1  0
 17 25  1  0
 17 18  1  1
 19 18  1  0
 20 19  2  0
 21 20  1  0
 22 21  2  0
 22 23  1  0
 23 24  2  0
 24 19  1  0
 25 26  2  0
 25 27  1  0
M  END
$$$$
