CKF.pdb
     RDKit          3D

 27 27  0  0  1  0  0  0  0  0999 V2000
   21.5507  -19.0606  -13.2770 N   0  0  0  0  0  0  0  0  0  0  0  0
   21.0586  -19.7531  -12.1147 C   0  0  1  0  0  0  0  0  0  0  0  0
   19.8620  -20.6256  -12.4304 C   0  0  0  0  0  0  0  0  0  0  0  0
   18.7717  -19.8617  -13.6464 S   0  0  0  0  0  0  0  0  0  0  0  0
   22.1427  -20.6481  -11.6081 C   0  0  0  0  0  0  0  0  0  0  0  0
   21.9117  -21.5014  -10.6907 O   0  0  0  0  0  0  0  0  0  0  0  0
   23.4389  -20.5460  -12.1537 N   0  0  0  0  0  0  0  0  0  0  0  0
   24.5433  -21.4409  -11.7933 C   0  0  1  0  0  0  0  0  0  0  0  0
   25.1834  -21.8022  -13.0944 C   0  0  0  0  0  0  0  0  0  0  0  0
   26.6305  -21.5124  -13.2333 C   0  0  0  0  0  0  0  0  0  0  0  0
   27.0287  -21.9009  -14.6615 C   0  0  0  0  0  0  0  0  0  0  0  0
   28.5017  -21.6199  -14.8900 C   0  0  0  0  0  0  0  0  0  0  0  0
   28.8079  -21.9689  -16.2720 N   0  0  0  0  0  0  0  0  0  0  0  0
   25.3868  -20.7144  -10.8443 C   0  0  0  0  0  0  0  0  0  0  0  0
   25.7608  -19.5077  -11.0622 O   0  0  0  0  0  0  0  0  0  0  0  0
   25.8607  -21.2566   -9.6192 N   0  0  0  0  0  0  0  0  0  0  0  0
   26.8573  -20.5326   -8.8022 C   0  0  1  0  0  0  0  0  0  0  0  0
   26.4435  -20.7293   -7.3817 C   0  0  0  0  0  0  0  0  0  0  0  0
   27.4159  -20.0685   -6.4877 C   0  0  0  0  0  0  0  0  0  0  0  0
   28.2386  -20.7961   -5.6501 C   0  0  0  0  0  0  0  0  0  0  0  0
   29.1466  -20.1733   -4.8192 C   0  0  0  0  0  0  0  0  0  0  0  0
   29.2490  -18.7986   -4.8108 C   0  0  0  0  0  0  0  0  0  0  0  0
   28.4336  -18.0680   -5.6413 C   0  0  0  0  0  0  0  0  0  0  0  0
   27.5262  -18.6746   -6.4728 C   0  0  0  0  0  0  0  0  0  0  0  0
   28.2127  -20.9787   -9.1230 C   0  0  0  0  0  0  0  0  0  0  0  0
   28.4144  -22.2165   -9.3277 O   0  0  0  0  0  0  0  0  0  0  0  0
   29.3159  -20.1625   -9.2269 O   0  0  0  0  0  0  0  0  0  0  0  0
  2  3  1  0
  2  5  1  0
  2  1  1  6
  4  3  1  0
  5  6  2  0
  7  8  1  0
  7  5  1  0
  8 14  1  0
  9 10  1  0
  8  9  1  6
 10 11  1  0
 12 11  1  0
 12 13  1  0
 14 15  2  0
 16 14  1  0
 16 17  1  0
 17 25  1  0
 17 18  1  1
 19 18  1  0
 20 19  2  0
 21 20  1  0
 22 21  2  0
 22 23  1  0
 23 24  2  0
 24 19  1  0
 25 26  2  0
 25 27  1  0
M  END
$$$$
