CKF.pdb
     RDKit          3D

 27 27  0  0  1  0  0  0  0  0999 V2000
   29.4583  -21.6664  -16.0271 N   0  0  0  0  0  0  0  0  0  0  0  0
   29.2029  -22.0410  -14.6607 C   0  0  1  0  0  0  0  0  0  0  0  0
   30.4320  -21.8999  -13.7877 C   0  0  0  0  0  0  0  0  0  0  0  0
   31.4677  -23.3751  -13.8367 S   0  0  0  0  0  0  0  0  0  0  0  0
   28.1573  -21.1259  -14.1111 C   0  0  0  0  0  0  0  0  0  0  0  0
   28.1936  -19.8743  -14.3465 O   0  0  0  0  0  0  0  0  0  0  0  0
   27.1165  -21.6558  -13.3212 N   0  0  0  0  0  0  0  0  0  0  0  0
   26.0552  -20.8390  -12.7238 C   0  0  1  0  0  0  0  0  0  0  0  0
   24.8191  -21.2050  -13.4797 C   0  0  0  0  0  0  0  0  0  0  0  0
   23.5711  -20.4970  -13.1077 C   0  0  0  0  0  0  0  0  0  0  0  0
   22.4220  -21.4964  -13.2811 C   0  0  0  0  0  0  0  0  0  0  0  0
   21.0889  -20.8051  -13.0668 C   0  0  0  0  0  0  0  0  0  0  0  0
   20.0386  -21.7796  -13.3363 N   0  0  0  0  0  0  0  0  0  0  0  0
   26.0428  -21.1387  -11.2920 C   0  0  0  0  0  0  0  0  0  0  0  0
   26.1472  -22.3391  -10.8542 O   0  0  0  0  0  0  0  0  0  0  0  0
   25.9201  -20.1573  -10.2716 N   0  0  0  0  0  0  0  0  0  0  0  0
   25.7518  -20.5490   -8.8563 C   0  0  1  0  0  0  0  0  0  0  0  0
   26.1617  -19.3612   -8.0508 C   0  0  0  0  0  0  0  0  0  0  0  0
   27.2484  -19.7423   -7.1260 C   0  0  0  0  0  0  0  0  0  0  0  0
   27.8398  -18.8192   -6.2857 C   0  0  0  0  0  0  0  0  0  0  0  0
   28.8527  -19.1818   -5.4223 C   0  0  0  0  0  0  0  0  0  0  0  0
   29.2966  -20.4863   -5.3835 C   0  0  0  0  0  0  0  0  0  0  0  0
   28.7131  -21.4103   -6.2167 C   0  0  0  0  0  0  0  0  0  0  0  0
   27.7048  -21.0633   -7.0802 C   0  0  0  0  0  0  0  0  0  0  0  0
   24.3923  -21.0289   -8.6097 C   0  0  0  0  0  0  0  0  0  0  0  0
   23.4598  -20.6408   -9.3808 O   0  0  0  0  0  0  0  0  0  0  0  0
   24.0209  -21.8830   -7.5964 O   0  0  0  0  0  0  0  0  0  0  0  0
  2  3  1  0
  2  5  1  0
  2  1  1  6
  4  3  1  0
  5  6  2  0
  7  8  1  0
  7  5  1  0
  8 14  1  0
  9 10  1  0
  8  9  1  6
 10 11  1  0
 12 11  1  0
 12 13  1  0
 14 15  2  0
 16 14  1  0
 16 17  1  0
 17 25  1  0
 17 18  1  1
 19 18  1  0
 20 19  2  0
 21 20  1  0
 22 21  2  0
 22 23  1  0
 23 24  2  0
 24 19  1  0
 25 26  2  0
 25 27  1  0
M  END
$$$$
