CKF.pdb
     RDKit          3D

 27 27  0  0  1  0  0  0  0  0999 V2000
   19.0560  -19.8432  -13.3344 N   0  0  0  0  0  0  0  0  0  0  0  0
   20.2994  -19.1183  -13.2985 C   0  0  1  0  0  0  0  0  0  0  0  0
   20.3607  -18.1408  -12.1437 C   0  0  0  0  0  0  0  0  0  0  0  0
   19.3664  -16.6686  -12.4520 S   0  0  0  0  0  0  0  0  0  0  0  0
   21.4097  -20.1006  -13.1116 C   0  0  0  0  0  0  0  0  0  0  0  0
   21.2873  -21.0818  -12.3082 O   0  0  0  0  0  0  0  0  0  0  0  0
   22.6092  -19.9386  -13.8349 N   0  0  0  0  0  0  0  0  0  0  0  0
   23.7470  -20.8583  -13.7351 C   0  0  1  0  0  0  0  0  0  0  0  0
   24.4178  -20.7834  -15.0684 C   0  0  0  0  0  0  0  0  0  0  0  0
   25.6695  -21.5599  -15.2340 C   0  0  0  0  0  0  0  0  0  0  0  0
   25.2615  -22.9981  -15.5721 C   0  0  0  0  0  0  0  0  0  0  0  0
   26.4939  -23.8614  -15.7643 C   0  0  0  0  0  0  0  0  0  0  0  0
   26.0419  -25.2192  -16.0430 N   0  0  0  0  0  0  0  0  0  0  0  0
   24.5468  -20.4227  -12.5903 C   0  0  0  0  0  0  0  0  0  0  0  0
   24.4015  -19.2598  -12.0705 O   0  0  0  0  0  0  0  0  0  0  0  0
   25.5349  -21.2228  -11.9556 N   0  0  0  0  0  0  0  0  0  0  0  0
   26.3587  -20.6819  -10.8539 C   0  0  1  0  0  0  0  0  0  0  0  0
   25.4119  -20.3976   -9.7356 C   0  0  0  0  0  0  0  0  0  0  0  0
   26.1670  -19.9305   -8.5554 C   0  0  0  0  0  0  0  0  0  0  0  0
   26.5201  -18.6040   -8.4014 C   0  0  0  0  0  0  0  0  0  0  0  0
   27.2232  -18.1734   -7.2955 C   0  0  0  0  0  0  0  0  0  0  0  0
   27.5892  -19.0700   -6.3145 C   0  0  0  0  0  0  0  0  0  0  0  0
   27.2415  -20.3914   -6.4608 C   0  0  0  0  0  0  0  0  0  0  0  0
   26.5423  -20.8332   -7.5556 C   0  0  0  0  0  0  0  0  0  0  0  0
   27.4515  -21.5972  -10.5265 C   0  0  0  0  0  0  0  0  0  0  0  0
   27.2410  -22.8483  -10.5994 O   0  0  0  0  0  0  0  0  0  0  0  0
   28.7168  -21.2201  -10.1385 O   0  0  0  0  0  0  0  0  0  0  0  0
  2  3  1  0
  2  5  1  0
  2  1  1  1
  4  3  1  0
  5  6  2  0
  7  8  1  0
  7  5  1  0
  8 14  1  0
  9 10  1  0
  8  9  1  6
 10 11  1  0
 12 11  1  0
 12 13  1  0
 14 15  2  0
 16 14  1  0
 16 17  1  0
 17 25  1  0
 17 18  1  1
 19 18  1  0
 20 19  2  0
 21 20  1  0
 22 21  2  0
 22 23  1  0
 23 24  2  0
 24 19  1  0
 25 26  2  0
 25 27  1  0
M  END
$$$$
