MEH.pdb
     RDKit          3D

 28 28  0  0  1  0  0  0  0  0999 V2000
   24.8347  -20.4629   -7.2702 C   0  0  0  0  0  0  0  0  0  0  0  0
   26.5339  -20.1656   -7.7692 S   0  0  0  0  0  0  0  0  0  0  0  0
   26.9577  -20.9601   -9.3197 C   0  0  0  0  0  0  0  0  0  0  0  0
   26.0436  -20.5524  -10.4344 C   0  0  0  0  0  0  0  0  0  0  0  0
   26.2981  -21.2756  -11.7386 C   0  0  2  0  0  0  0  0  0  0  0  0
   27.6846  -21.1249  -12.1037 N   0  0  0  0  0  0  0  0  0  0  0  0
   25.4222  -20.6000  -12.7536 C   0  0  0  0  0  0  0  0  0  0  0  0
   25.7602  -19.5083  -13.2877 O   0  0  0  0  0  0  0  0  0  0  0  0
   24.1929  -21.1092  -13.1819 N   0  0  0  0  0  0  0  0  0  0  0  0
   23.4233  -20.7305  -14.3211 C   0  0  1  0  0  0  0  0  0  0  0  0
   23.8098  -21.3405  -15.6170 C   0  0  0  0  0  0  0  0  0  0  0  0
   23.0193  -20.8322  -16.8075 C   0  0  0  0  0  0  0  0  0  0  0  0
   23.8440  -19.9696  -17.6833 C   0  0  0  0  0  0  0  0  0  0  0  0
   25.0041  -19.6541  -17.3606 O   0  0  0  0  0  0  0  0  0  0  0  0
   21.9965  -20.9573  -14.0298 C   0  0  0  0  0  0  0  0  0  0  0  0
   21.6249  -21.9641  -13.3653 O   0  0  0  0  0  0  0  0  0  0  0  0
   23.3323  -19.5014  -18.8820 O   0  0  0  0  0  0  0  0  0  0  0  0
   20.9352  -20.0850  -14.4596 N   0  0  0  0  0  0  0  0  0  0  0  0
   19.5722  -20.4359  -14.1261 C   0  0  1  0  0  0  0  0  0  0  0  0
   18.9668  -19.3804  -13.2820 C   0  0  0  0  0  0  0  0  0  0  0  0
   19.5598  -19.2166  -11.9424 C   0  0  0  0  0  0  0  0  0  0  0  0
   20.4733  -18.2103  -11.6038 C   0  0  0  0  0  0  0  0  0  0  0  0
   20.8252  -18.3538  -10.3229 N   0  0  0  0  0  0  0  0  0  0  0  0
   20.1623  -19.4211   -9.8341 C   0  0  0  0  0  0  0  0  0  0  0  0
   19.4133  -19.9214  -10.8144 N   0  0  0  0  0  0  0  0  0  0  0  0
   18.7709  -20.6098  -15.4011 C   0  0  0  0  0  0  0  0  0  0  0  0
   17.5618  -20.9320  -15.3360 O   0  0  0  0  0  0  0  0  0  0  0  0
   19.3378  -20.4215  -16.6432 O   0  0  0  0  0  0  0  0  0  0  0  0
  1  2  1  0
  3  2  1  0
  4  3  1  0
  5  4  1  0
  5  6  1  6
  7  5  1  0
  8  7  2  0
  9  7  1  0
 10  9  1  0
 11 12  1  0
 10 11  1  6
 12 13  1  0
 13 17  1  0
 13 14  2  0
 15 10  1  0
 15 18  1  0
 16 15  2  0
 19 18  1  0
 19 20  1  1
 20 21  1  0
 21 22  2  0
 21 25  1  0
 22 23  1  0
 23 24  1  0
 25 24  2  0
 26 19  1  0
 27 26  2  0
 28 26  1  0
M  END
$$$$
