MEH.pdb
     RDKit          3D

 28 28  0  0  1  0  0  0  0  0999 V2000
   17.3931  -14.8604  -18.0447 C   0  0  0  0  0  0  0  0  0  0  0  0
   18.1825  -14.5026  -16.4719 S   0  0  0  0  0  0  0  0  0  0  0  0
   19.4174  -13.2076  -16.5868 C   0  0  0  0  0  0  0  0  0  0  0  0
   20.0243  -13.1223  -17.9538 C   0  0  0  0  0  0  0  0  0  0  0  0
   21.1786  -12.1499  -18.0581 C   0  0  2  0  0  0  0  0  0  0  0  0
   22.0927  -12.3772  -16.9667 N   0  0  0  0  0  0  0  0  0  0  0  0
   20.5682  -10.7832  -17.9421 C   0  0  0  0  0  0  0  0  0  0  0  0
   19.8193  -10.3213  -18.8462 O   0  0  0  0  0  0  0  0  0  0  0  0
   20.7710   -9.9307  -16.8531 N   0  0  0  0  0  0  0  0  0  0  0  0
   20.1758   -8.6604  -16.5970 C   0  0  1  0  0  0  0  0  0  0  0  0
   18.8159   -8.6709  -16.0044 C   0  0  0  0  0  0  0  0  0  0  0  0
   18.6192   -9.7017  -14.9093 C   0  0  0  0  0  0  0  0  0  0  0  0
   17.2638   -9.6213  -14.3197 C   0  0  0  0  0  0  0  0  0  0  0  0
   16.9396   -8.6660  -13.5904 O   0  0  0  0  0  0  0  0  0  0  0  0
   21.1044   -7.8534  -15.7855 C   0  0  0  0  0  0  0  0  0  0  0  0
   21.6997   -8.3567  -14.7927 O   0  0  0  0  0  0  0  0  0  0  0  0
   16.3323  -10.6137  -14.5758 O   0  0  0  0  0  0  0  0  0  0  0  0
   21.4072   -6.4694  -16.0405 N   0  0  0  0  0  0  0  0  0  0  0  0
   22.3283   -5.7878  -15.1578 C   0  0  1  0  0  0  0  0  0  0  0  0
   23.0072   -4.6882  -15.8811 C   0  0  0  0  0  0  0  0  0  0  0  0
   23.8538   -5.0985  -17.0160 C   0  0  0  0  0  0  0  0  0  0  0  0
   24.2424   -6.4198  -17.2708 C   0  0  0  0  0  0  0  0  0  0  0  0
   25.0159   -6.4445  -18.3599 N   0  0  0  0  0  0  0  0  0  0  0  0
   25.1312   -5.1783  -18.8080 C   0  0  0  0  0  0  0  0  0  0  0  0
   24.4314   -4.3911  -17.9940 N   0  0  0  0  0  0  0  0  0  0  0  0
   21.5700   -5.2397  -13.9651 C   0  0  0  0  0  0  0  0  0  0  0  0
   22.1850   -4.6079  -13.0748 O   0  0  0  0  0  0  0  0  0  0  0  0
   20.2099   -5.4163  -13.8291 O   0  0  0  0  0  0  0  0  0  0  0  0
  1  2  1  0
  3  2  1  0
  4  3  1  0
  5  4  1  0
  5  6  1  1
  7  5  1  0
  8  7  2  0
  9  7  1  0
 10  9  1  0
 11 12  1  0
 10 11  1  1
 12 13  1  0
 13 17  1  0
 13 14  2  0
 15 10  1  0
 15 18  1  0
 16 15  2  0
 19 18  1  0
 19 20  1  6
 20 21  1  0
 21 22  2  0
 21 25  1  0
 22 23  1  0
 23 24  1  0
 25 24  2  0
 26 19  1  0
 27 26  2  0
 28 26  1  0
M  END
$$$$
