MEH.pdb
     RDKit          3D

 28 28  0  0  1  0  0  0  0  0999 V2000
   21.6993  -13.4458  -14.0503 C   0  0  0  0  0  0  0  0  0  0  0  0
   23.1837  -13.9684  -14.9153 S   0  0  0  0  0  0  0  0  0  0  0  0
   23.2534  -13.3773  -16.6067 C   0  0  0  0  0  0  0  0  0  0  0  0
   22.9440  -11.9151  -16.7096 C   0  0  0  0  0  0  0  0  0  0  0  0
   22.9397  -11.3823  -18.1256 C   0  0  2  0  0  0  0  0  0  0  0  0
   24.1505  -11.7921  -18.7921 N   0  0  0  0  0  0  0  0  0  0  0  0
   22.9046   -9.8871  -17.9952 C   0  0  0  0  0  0  0  0  0  0  0  0
   23.8690   -9.2508  -17.4886 O   0  0  0  0  0  0  0  0  0  0  0  0
   21.8315   -9.0949  -18.4132 N   0  0  0  0  0  0  0  0  0  0  0  0
   21.6804   -7.6804  -18.3138 C   0  0  1  0  0  0  0  0  0  0  0  0
   20.9122   -7.0164  -19.3953 C   0  0  0  0  0  0  0  0  0  0  0  0
   21.6437   -6.9339  -20.7215 C   0  0  0  0  0  0  0  0  0  0  0  0
   21.6219   -8.2282  -21.4394 C   0  0  0  0  0  0  0  0  0  0  0  0
   22.6232   -8.6330  -22.0582 O   0  0  0  0  0  0  0  0  0  0  0  0
   21.1270   -7.3517  -16.9880 C   0  0  0  0  0  0  0  0  0  0  0  0
   20.2226   -8.0644  -16.4706 O   0  0  0  0  0  0  0  0  0  0  0  0
   20.4797   -9.0114  -21.4296 O   0  0  0  0  0  0  0  0  0  0  0  0
   21.5504   -6.2306  -16.1907 N   0  0  0  0  0  0  0  0  0  0  0  0
   20.9636   -6.0509  -14.8809 C   0  0  1  0  0  0  0  0  0  0  0  0
   21.2810   -7.2113  -14.0173 C   0  0  0  0  0  0  0  0  0  0  0  0
   20.8545   -7.0954  -12.6110 C   0  0  0  0  0  0  0  0  0  0  0  0
   20.2114   -5.9732  -12.0736 C   0  0  0  0  0  0  0  0  0  0  0  0
   19.9783   -6.1845  -10.7751 N   0  0  0  0  0  0  0  0  0  0  0  0
   20.4525   -7.4087  -10.4687 C   0  0  0  0  0  0  0  0  0  0  0  0
   20.9705   -7.9355  -11.5760 N   0  0  0  0  0  0  0  0  0  0  0  0
   21.4981   -4.7753  -14.2606 C   0  0  0  0  0  0  0  0  0  0  0  0
   21.1352   -4.4456  -13.1075 O   0  0  0  0  0  0  0  0  0  0  0  0
   22.3814   -3.9586  -14.9332 O   0  0  0  0  0  0  0  0  0  0  0  0
  1  2  1  0
  3  2  1  0
  4  3  1  0
  5  4  1  0
  5  6  1  1
  7  5  1  0
  8  7  2  0
  9  7  1  0
 10  9  1  0
 11 12  1  0
 10 11  1  6
 12 13  1  0
 13 17  1  0
 13 14  2  0
 15 10  1  0
 15 18  1  0
 16 15  2  0
 19 18  1  0
 19 20  1  1
 20 21  1  0
 21 22  2  0
 21 25  1  0
 22 23  1  0
 23 24  1  0
 25 24  2  0
 26 19  1  0
 27 26  2  0
 28 26  1  0
M  END
$$$$
