MEH.pdb
     RDKit          3D

 28 28  0  0  1  0  0  0  0  0999 V2000
   24.5963  -12.1009  -13.7733 C   0  0  0  0  0  0  0  0  0  0  0  0
   23.3245  -13.1809  -14.4373 S   0  0  0  0  0  0  0  0  0  0  0  0
   23.1558  -13.0521  -16.2177 C   0  0  0  0  0  0  0  0  0  0  0  0
   22.9894  -11.6338  -16.6706 C   0  0  0  0  0  0  0  0  0  0  0  0
   22.8621  -11.4744  -18.1696 C   0  0  2  0  0  0  0  0  0  0  0  0
   24.0716  -11.9385  -18.8021 N   0  0  0  0  0  0  0  0  0  0  0  0
   22.6896  -10.0020  -18.4068 C   0  0  0  0  0  0  0  0  0  0  0  0
   23.5133   -9.1636  -17.9485 O   0  0  0  0  0  0  0  0  0  0  0  0
   21.6322   -9.4503  -19.1358 N   0  0  0  0  0  0  0  0  0  0  0  0
   21.3471   -8.0754  -19.3843 C   0  0  1  0  0  0  0  0  0  0  0  0
   20.6084   -7.7648  -20.6328 C   0  0  0  0  0  0  0  0  0  0  0  0
   20.4978   -6.2840  -20.9416 C   0  0  0  0  0  0  0  0  0  0  0  0
   19.7688   -6.0424  -22.2070 C   0  0  0  0  0  0  0  0  0  0  0  0
   18.9612   -5.1007  -22.3098 O   0  0  0  0  0  0  0  0  0  0  0  0
   20.6653   -7.5091  -18.2068 C   0  0  0  0  0  0  0  0  0  0  0  0
   19.5585   -7.9733  -17.8158 O   0  0  0  0  0  0  0  0  0  0  0  0
   19.9793   -6.8655  -23.3008 O   0  0  0  0  0  0  0  0  0  0  0  0
   21.1789   -6.4162  -17.4233 N   0  0  0  0  0  0  0  0  0  0  0  0
   20.4347   -5.9887  -16.2591 C   0  0  1  0  0  0  0  0  0  0  0  0
   21.2594   -6.1513  -15.0398 C   0  0  0  0  0  0  0  0  0  0  0  0
   21.3868   -7.5305  -14.5352 C   0  0  0  0  0  0  0  0  0  0  0  0
   20.7828   -8.6453  -15.1303 C   0  0  0  0  0  0  0  0  0  0  0  0
   21.0830   -9.7355  -14.4189 N   0  0  0  0  0  0  0  0  0  0  0  0
   21.8617   -9.3494  -13.3883 C   0  0  0  0  0  0  0  0  0  0  0  0
   22.0314   -8.0320  -13.4752 N   0  0  0  0  0  0  0  0  0  0  0  0
   20.0284   -4.5379  -16.4263 C   0  0  0  0  0  0  0  0  0  0  0  0
   20.4456   -3.8853  -17.4112 O   0  0  0  0  0  0  0  0  0  0  0  0
   19.2044   -3.9081  -15.5185 O   0  0  0  0  0  0  0  0  0  0  0  0
  1  2  1  0
  3  2  1  0
  4  3  1  0
  5  4  1  0
  5  6  1  6
  7  5  1  0
  8  7  2  0
  9  7  1  0
 10  9  1  0
 11 12  1  0
 10 11  1  6
 12 13  1  0
 13 17  1  0
 13 14  2  0
 15 10  1  0
 15 18  1  0
 16 15  2  0
 19 18  1  0
 19 20  1  1
 20 21  1  0
 21 22  2  0
 21 25  1  0
 22 23  1  0
 23 24  1  0
 25 24  2  0
 26 19  1  0
 27 26  2  0
 28 26  1  0
M  END
$$$$
