MEH.pdb
     RDKit          3D

 28 28  0  0  1  0  0  0  0  0999 V2000
   22.3680  -19.3022  -17.4187 C   0  0  0  0  0  0  0  0  0  0  0  0
   22.4332  -17.6636  -16.6869 S   0  0  0  0  0  0  0  0  0  0  0  0
   21.1008  -16.5974  -17.2373 C   0  0  0  0  0  0  0  0  0  0  0  0
   21.2319  -15.2039  -16.7030 C   0  0  0  0  0  0  0  0  0  0  0  0
   20.1889  -14.2408  -17.2257 C   0  0  2  0  0  0  0  0  0  0  0  0
   20.0599  -14.4066  -18.6520 N   0  0  0  0  0  0  0  0  0  0  0  0
   20.7117  -12.8688  -16.9122 C   0  0  0  0  0  0  0  0  0  0  0  0
   20.9979  -12.5308  -15.7309 O   0  0  0  0  0  0  0  0  0  0  0  0
   20.9211  -11.8775  -17.8752 N   0  0  0  0  0  0  0  0  0  0  0  0
   21.3459  -10.5297  -17.6843 C   0  0  1  0  0  0  0  0  0  0  0  0
   21.7527   -9.7825  -18.8996 C   0  0  0  0  0  0  0  0  0  0  0  0
   23.0247  -10.2919  -19.5499 C   0  0  0  0  0  0  0  0  0  0  0  0
   23.3547   -9.5306  -20.7758 C   0  0  0  0  0  0  0  0  0  0  0  0
   23.5110   -8.2962  -20.7390 O   0  0  0  0  0  0  0  0  0  0  0  0
   20.3052   -9.8030  -16.9353 C   0  0  0  0  0  0  0  0  0  0  0  0
   19.0924  -10.1426  -17.0198 O   0  0  0  0  0  0  0  0  0  0  0  0
   23.4969  -10.1871  -21.9869 O   0  0  0  0  0  0  0  0  0  0  0  0
   20.5655   -8.6818  -16.0710 N   0  0  0  0  0  0  0  0  0  0  0  0
   19.5848   -8.3410  -15.0640 C   0  0  1  0  0  0  0  0  0  0  0  0
   19.4225   -9.4630  -14.1111 C   0  0  0  0  0  0  0  0  0  0  0  0
   18.4806   -9.2269  -13.0020 C   0  0  0  0  0  0  0  0  0  0  0  0
   17.8334   -8.0075  -12.7653 C   0  0  0  0  0  0  0  0  0  0  0  0
   17.0657   -8.1253  -11.6782 N   0  0  0  0  0  0  0  0  0  0  0  0
   17.2031   -9.3839  -11.2152 C   0  0  0  0  0  0  0  0  0  0  0  0
   18.0501  -10.0246  -12.0178 N   0  0  0  0  0  0  0  0  0  0  0  0
   20.0301   -7.0916  -14.3301 C   0  0  0  0  0  0  0  0  0  0  0  0
   19.2896   -6.5889  -13.4533 O   0  0  0  0  0  0  0  0  0  0  0  0
   21.2381   -6.4857  -14.6004 O   0  0  0  0  0  0  0  0  0  0  0  0
  1  2  1  0
  3  2  1  0
  4  3  1  0
  5  4  1  0
  5  6  1  6
  7  5  1  0
  8  7  2  0
  9  7  1  0
 10  9  1  0
 11 12  1  0
 10 11  1  6
 12 13  1  0
 13 17  1  0
 13 14  2  0
 15 10  1  0
 15 18  1  0
 16 15  2  0
 19 18  1  0
 19 20  1  1
 20 21  1  0
 21 22  2  0
 21 25  1  0
 22 23  1  0
 23 24  1  0
 25 24  2  0
 26 19  1  0
 27 26  2  0
 28 26  1  0
M  END
$$$$
