MEH.pdb
     RDKit          3D

 28 28  0  0  1  0  0  0  0  0999 V2000
   28.3946  -14.0166  -15.3325 C   0  0  0  0  0  0  0  0  0  0  0  0
   26.8167  -13.2329  -15.6800 S   0  0  0  0  0  0  0  0  0  0  0  0
   26.9033  -12.0505  -17.0251 C   0  0  0  0  0  0  0  0  0  0  0  0
   25.6013  -11.3420  -17.2422 C   0  0  0  0  0  0  0  0  0  0  0  0
   24.4070  -12.2639  -17.3546 C   0  0  2  0  0  0  0  0  0  0  0  0
   24.5418  -13.0752  -18.5387 N   0  0  0  0  0  0  0  0  0  0  0  0
   23.2117  -11.3642  -17.4804 C   0  0  0  0  0  0  0  0  0  0  0  0
   22.8575  -10.8977  -18.5978 O   0  0  0  0  0  0  0  0  0  0  0  0
   22.4116  -10.9786  -16.4011 N   0  0  0  0  0  0  0  0  0  0  0  0
   21.1977  -10.2306  -16.4184 C   0  0  1  0  0  0  0  0  0  0  0  0
   20.0126  -10.8722  -15.7982 C   0  0  0  0  0  0  0  0  0  0  0  0
   18.7285  -10.0765  -15.9337 C   0  0  0  0  0  0  0  0  0  0  0  0
   17.6029  -10.7310  -15.2296 C   0  0  0  0  0  0  0  0  0  0  0  0
   17.2211  -10.3233  -14.1171 O   0  0  0  0  0  0  0  0  0  0  0  0
   21.4489   -8.9000  -15.8365 C   0  0  0  0  0  0  0  0  0  0  0  0
   22.0590   -8.7800  -14.7380 O   0  0  0  0  0  0  0  0  0  0  0  0
   16.9546  -11.8113  -15.8047 O   0  0  0  0  0  0  0  0  0  0  0  0
   21.0376   -7.6614  -16.4439 N   0  0  0  0  0  0  0  0  0  0  0  0
   21.3277   -6.4227  -15.7559 C   0  0  1  0  0  0  0  0  0  0  0  0
   20.9481   -5.2689  -16.6032 C   0  0  0  0  0  0  0  0  0  0  0  0
   21.2331   -3.9390  -16.0347 C   0  0  0  0  0  0  0  0  0  0  0  0
   22.4455   -3.2568  -16.1976 C   0  0  0  0  0  0  0  0  0  0  0  0
   22.3815   -2.0923  -15.5458 N   0  0  0  0  0  0  0  0  0  0  0  0
   21.1638   -2.0109  -14.9730 C   0  0  0  0  0  0  0  0  0  0  0  0
   20.4943   -3.1208  -15.2762 N   0  0  0  0  0  0  0  0  0  0  0  0
   20.5649   -6.3836  -14.4465 C   0  0  0  0  0  0  0  0  0  0  0  0
   19.3670   -6.7495  -14.4141 O   0  0  0  0  0  0  0  0  0  0  0  0
   21.1556   -5.9540  -13.2777 O   0  0  0  0  0  0  0  0  0  0  0  0
  1  2  1  0
  3  2  1  0
  4  3  1  0
  5  4  1  0
  5  6  1  6
  7  5  1  0
  8  7  2  0
  9  7  1  0
 10  9  1  0
 11 12  1  0
 10 11  1  1
 12 13  1  0
 13 17  1  0
 13 14  2  0
 15 10  1  0
 15 18  1  0
 16 15  2  0
 19 18  1  0
 19 20  1  6
 20 21  1  0
 21 22  2  0
 21 25  1  0
 22 23  1  0
 23 24  1  0
 25 24  2  0
 26 19  1  0
 27 26  2  0
 28 26  1  0
M  END
$$$$
