MEH.pdb
     RDKit          3D

 28 28  0  0  1  0  0  0  0  0999 V2000
   29.0289  -13.5513  -15.4800 C   0  0  0  0  0  0  0  0  0  0  0  0
   27.5286  -12.6324  -15.8399 S   0  0  0  0  0  0  0  0  0  0  0  0
   26.0365  -13.5506  -15.4582 C   0  0  0  0  0  0  0  0  0  0  0  0
   24.7979  -12.7380  -15.6812 C   0  0  0  0  0  0  0  0  0  0  0  0
   23.9247  -13.2390  -16.8105 C   0  0  2  0  0  0  0  0  0  0  0  0
   24.7291  -13.4087  -17.9948 N   0  0  0  0  0  0  0  0  0  0  0  0
   22.8983  -12.1666  -17.0348 C   0  0  0  0  0  0  0  0  0  0  0  0
   23.0720  -11.2637  -17.8987 O   0  0  0  0  0  0  0  0  0  0  0  0
   21.6964  -12.0801  -16.3265 N   0  0  0  0  0  0  0  0  0  0  0  0
   20.6221  -11.1603  -16.5094 C   0  0  1  0  0  0  0  0  0  0  0  0
   19.2644  -11.6465  -16.1619 C   0  0  0  0  0  0  0  0  0  0  0  0
   18.9109  -12.9944  -16.7608 C   0  0  0  0  0  0  0  0  0  0  0  0
   19.2651  -14.1068  -15.8507 C   0  0  0  0  0  0  0  0  0  0  0  0
   18.8657  -14.1202  -14.6718 O   0  0  0  0  0  0  0  0  0  0  0  0
   20.9387   -9.9094  -15.7973 C   0  0  0  0  0  0  0  0  0  0  0  0
   21.9464   -9.8337  -15.0410 O   0  0  0  0  0  0  0  0  0  0  0  0
   20.0490  -15.1551  -16.3033 O   0  0  0  0  0  0  0  0  0  0  0  0
   20.1579   -8.7040  -15.8949 N   0  0  0  0  0  0  0  0  0  0  0  0
   20.8108   -7.4348  -15.6603 C   0  0  1  0  0  0  0  0  0  0  0  0
   21.9203   -7.2475  -16.6232 C   0  0  0  0  0  0  0  0  0  0  0  0
   22.6593   -5.9774  -16.5056 C   0  0  0  0  0  0  0  0  0  0  0  0
   22.3808   -4.9902  -15.5517 C   0  0  0  0  0  0  0  0  0  0  0  0
   23.2192   -3.9650  -15.7279 N   0  0  0  0  0  0  0  0  0  0  0  0
   24.0250   -4.2694  -16.7649 C   0  0  0  0  0  0  0  0  0  0  0  0
   23.6757   -5.4727  -17.2146 N   0  0  0  0  0  0  0  0  0  0  0  0
   19.7996   -6.3146  -15.8030 C   0  0  0  0  0  0  0  0  0  0  0  0
   19.0204   -6.3022  -16.7841 O   0  0  0  0  0  0  0  0  0  0  0  0
   19.7096   -5.2988  -14.8758 O   0  0  0  0  0  0  0  0  0  0  0  0
  1  2  1  0
  3  2  1  0
  4  3  1  0
  5  4  1  0
  5  6  1  6
  7  5  1  0
  8  7  2  0
  9  7  1  0
 10  9  1  0
 11 12  1  0
 10 11  1  1
 12 13  1  0
 13 17  1  0
 13 14  2  0
 15 10  1  0
 15 18  1  0
 16 15  2  0
 19 18  1  0
 19 20  1  6
 20 21  1  0
 21 22  2  0
 21 25  1  0
 22 23  1  0
 23 24  1  0
 25 24  2  0
 26 19  1  0
 27 26  2  0
 28 26  1  0
M  END
$$$$
