MEH.pdb
     RDKit          3D

 28 28  0  0  1  0  0  0  0  0999 V2000
   26.9691  -19.6471   -6.0908 C   0  0  0  0  0  0  0  0  0  0  0  0
   28.3660  -19.6555   -7.2193 S   0  0  0  0  0  0  0  0  0  0  0  0
   28.1493  -20.7869   -8.5934 C   0  0  0  0  0  0  0  0  0  0  0  0
   27.5023  -20.1287   -9.7734 C   0  0  0  0  0  0  0  0  0  0  0  0
   26.3261  -20.8932  -10.3398 C   0  0  2  0  0  0  0  0  0  0  0  0
   26.7190  -22.2586  -10.5843 N   0  0  0  0  0  0  0  0  0  0  0  0
   25.9887  -20.2147  -11.6359 C   0  0  0  0  0  0  0  0  0  0  0  0
   25.5986  -19.0154  -11.6654 O   0  0  0  0  0  0  0  0  0  0  0  0
   26.0765  -20.8361  -12.8849 N   0  0  0  0  0  0  0  0  0  0  0  0
   25.7552  -20.3014  -14.1672 C   0  0  1  0  0  0  0  0  0  0  0  0
   26.5962  -20.7496  -15.3040 C   0  0  0  0  0  0  0  0  0  0  0  0
   27.8596  -21.4830  -14.8958 C   0  0  0  0  0  0  0  0  0  0  0  0
   28.6320  -21.9386  -16.0734 C   0  0  0  0  0  0  0  0  0  0  0  0
   28.2290  -21.7117  -17.2291 O   0  0  0  0  0  0  0  0  0  0  0  0
   24.3254  -20.5358  -14.4372 C   0  0  0  0  0  0  0  0  0  0  0  0
   23.7066  -21.4780  -13.8691 O   0  0  0  0  0  0  0  0  0  0  0  0
   29.8222  -22.6260  -15.9030 O   0  0  0  0  0  0  0  0  0  0  0  0
   23.5324  -19.7421  -15.3390 N   0  0  0  0  0  0  0  0  0  0  0  0
   22.1439  -19.5022  -15.0127 C   0  0  1  0  0  0  0  0  0  0  0  0
   22.0426  -18.7400  -13.7470 C   0  0  0  0  0  0  0  0  0  0  0  0
   21.6326  -19.5187  -12.5645 C   0  0  0  0  0  0  0  0  0  0  0  0
   21.3353  -20.8872  -12.5876 C   0  0  0  0  0  0  0  0  0  0  0  0
   20.9841  -21.2780  -11.3593 N   0  0  0  0  0  0  0  0  0  0  0  0
   21.0497  -20.1995  -10.5530 C   0  0  0  0  0  0  0  0  0  0  0  0
   21.4382  -19.1611  -11.2898 N   0  0  0  0  0  0  0  0  0  0  0  0
   21.4874  -18.7320  -16.1413 C   0  0  0  0  0  0  0  0  0  0  0  0
   20.3803  -19.1101  -16.5899 O   0  0  0  0  0  0  0  0  0  0  0  0
   22.0773  -17.6159  -16.6944 O   0  0  0  0  0  0  0  0  0  0  0  0
  1  2  1  0
  3  2  1  0
  4  3  1  0
  5  4  1  0
  5  6  1  6
  7  5  1  0
  8  7  2  0
  9  7  1  0
 10  9  1  0
 11 12  1  0
 10 11  1  6
 12 13  1  0
 13 17  1  0
 13 14  2  0
 15 10  1  0
 15 18  1  0
 16 15  2  0
 19 18  1  0
 19 20  1  1
 20 21  1  0
 21 22  2  0
 21 25  1  0
 22 23  1  0
 23 24  1  0
 25 24  2  0
 26 19  1  0
 27 26  2  0
 28 26  1  0
M  END
$$$$
