AAK.pdb
     RDKit          3D

 20 19  0  0  1  0  0  0  0  0999 V2000
   19.4788  -12.4404  -19.2629 C   0  0  0  0  0  0  0  0  0  0  0  0
   20.6441  -11.9290  -18.4420 C   0  0  2  0  0  0  0  0  0  0  0  0
   20.9985  -12.9465  -17.4893 N   0  0  0  0  0  0  0  0  0  0  0  0
   20.2423  -10.6576  -17.7797 C   0  0  0  0  0  0  0  0  0  0  0  0
   20.1061   -9.6404  -18.4990 O   0  0  0  0  0  0  0  0  0  0  0  0
   18.7830   -9.6905  -14.4629 C   0  0  0  0  0  0  0  0  0  0  0  0
   19.6008   -9.4338  -15.7020 C   0  0  2  0  0  0  0  0  0  0  0  0
   20.0250  -10.6177  -16.3784 N   0  0  0  0  0  0  0  0  0  0  0  0
   20.7969   -8.5860  -15.4157 C   0  0  0  0  0  0  0  0  0  0  0  0
   21.9155   -9.0531  -15.0952 O   0  0  0  0  0  0  0  0  0  0  0  0
   20.7147   -7.1653  -15.4973 N   0  0  0  0  0  0  0  0  0  0  0  0
   21.9054   -6.3253  -15.2722 C   0  0  1  0  0  0  0  0  0  0  0  0
   22.2532   -5.6428  -16.5456 C   0  0  0  0  0  0  0  0  0  0  0  0
   23.3853   -4.6889  -16.5179 C   0  0  0  0  0  0  0  0  0  0  0  0
   23.7410   -3.9962  -17.7782 C   0  0  0  0  0  0  0  0  0  0  0  0
   24.9305   -3.0628  -17.6219 C   0  0  0  0  0  0  0  0  0  0  0  0
   25.2569   -2.4385  -18.8829 N   0  0  0  0  0  0  0  0  0  0  0  0
   21.6941   -5.4930  -14.0976 C   0  0  0  0  0  0  0  0  0  0  0  0
   22.7952   -5.1571  -13.2764 O   0  0  0  0  0  0  0  0  0  0  0  0
   20.6042   -5.0188  -13.7144 O   0  0  0  0  0  0  0  0  0  0  0  0
  2  1  1  1
  2  3  1  0
  4  5  2  0
  4  2  1  0
  7  6  1  1
  7  8  1  0
  8  4  1  0
  9 10  2  0
  9  7  1  0
 11  9  1  0
 12 13  1  6
 12 11  1  0
 13 14  1  0
 14 15  1  0
 15 16  1  0
 16 17  1  0
 18 12  1  0
 19 18  1  0
 20 18  2  0
M  END
$$$$
