AAK.pdb
     RDKit          3D

 20 19  0  0  1  0  0  0  0  0999 V2000
   25.5168  -31.3763   -8.2081 C   0  0  0  0  0  0  0  0  0  0  0  0
   25.7722  -32.7123   -8.8737 C   0  0  2  0  0  0  0  0  0  0  0  0
   24.7554  -32.9152   -9.8703 N   0  0  0  0  0  0  0  0  0  0  0  0
   25.7563  -33.7769   -7.8330 C   0  0  0  0  0  0  0  0  0  0  0  0
   24.6471  -34.2610   -7.5075 O   0  0  0  0  0  0  0  0  0  0  0  0
   28.2789  -36.1032   -6.3494 C   0  0  0  0  0  0  0  0  0  0  0  0
   27.0143  -35.2859   -6.2946 C   0  0  2  0  0  0  0  0  0  0  0  0
   26.9677  -34.2166   -7.2399 N   0  0  0  0  0  0  0  0  0  0  0  0
   26.7646  -34.7347   -4.9289 C   0  0  0  0  0  0  0  0  0  0  0  0
   27.3699  -33.7407   -4.4625 O   0  0  0  0  0  0  0  0  0  0  0  0
   25.7970  -35.3344   -4.0710 N   0  0  0  0  0  0  0  0  0  0  0  0
   25.4549  -34.7229   -2.7737 C   0  0  1  0  0  0  0  0  0  0  0  0
   24.0916  -35.1673   -2.3836 C   0  0  0  0  0  0  0  0  0  0  0  0
   23.6142  -34.7895   -1.0338 C   0  0  0  0  0  0  0  0  0  0  0  0
   22.2722  -35.2571   -0.6155 C   0  0  0  0  0  0  0  0  0  0  0  0
   21.8960  -34.7931    0.7823 C   0  0  0  0  0  0  0  0  0  0  0  0
   20.5772  -35.2637    1.1371 N   0  0  0  0  0  0  0  0  0  0  0  0
   26.5364  -34.9576   -1.8290 C   0  0  0  0  0  0  0  0  0  0  0  0
   27.3767  -36.0820   -1.9997 O   0  0  0  0  0  0  0  0  0  0  0  0
   26.8218  -34.2484   -0.8416 O   0  0  0  0  0  0  0  0  0  0  0  0
  2  1  1  1
  2  3  1  0
  4  5  2  0
  4  2  1  0
  7  6  1  1
  7  8  1  0
  8  4  1  0
  9 10  2  0
  9  7  1  0
 11  9  1  0
 12 13  1  1
 12 11  1  0
 13 14  1  0
 14 15  1  0
 15 16  1  0
 16 17  1  0
 18 12  1  0
 19 18  1  0
 20 18  2  0
M  END
$$$$
