AAK.pdb
     RDKit          3D

 20 19  0  0  1  0  0  0  0  0999 V2000
   18.0152  -10.3977  -17.8547 C   0  0  0  0  0  0  0  0  0  0  0  0
   18.8378  -11.2377  -16.9003 C   0  0  2  0  0  0  0  0  0  0  0  0
   17.9544  -12.1687  -16.2513 N   0  0  0  0  0  0  0  0  0  0  0  0
   19.5127  -10.3351  -15.9274 C   0  0  0  0  0  0  0  0  0  0  0  0
   18.7965   -9.5506  -15.2625 O   0  0  0  0  0  0  0  0  0  0  0  0
   23.0341   -9.9986  -14.5596 C   0  0  0  0  0  0  0  0  0  0  0  0
   21.6106   -9.5739  -14.8114 C   0  0  2  0  0  0  0  0  0  0  0  0
   20.9222  -10.3759  -15.7716 N   0  0  0  0  0  0  0  0  0  0  0  0
   21.5203   -8.1413  -15.2247 C   0  0  0  0  0  0  0  0  0  0  0  0
   21.1633   -7.7722  -16.3685 O   0  0  0  0  0  0  0  0  0  0  0  0
   21.8464   -7.1003  -14.3072 N   0  0  0  0  0  0  0  0  0  0  0  0
   21.7280   -5.6836  -14.6984 C   0  0  1  0  0  0  0  0  0  0  0  0
   20.3036   -5.3931  -15.0065 C   0  0  0  0  0  0  0  0  0  0  0  0
   19.9252   -3.9741  -15.1956 C   0  0  0  0  0  0  0  0  0  0  0  0
   18.4998   -3.6638  -15.4538 C   0  0  0  0  0  0  0  0  0  0  0  0
   18.2344   -2.1719  -15.5749 C   0  0  0  0  0  0  0  0  0  0  0  0
   16.8147   -1.9096  -15.6211 N   0  0  0  0  0  0  0  0  0  0  0  0
   22.3854   -4.8511  -13.7025 C   0  0  0  0  0  0  0  0  0  0  0  0
   22.8595   -3.5706  -14.0702 O   0  0  0  0  0  0  0  0  0  0  0  0
   22.5870   -5.1495  -12.5067 O   0  0  0  0  0  0  0  0  0  0  0  0
  2  1  1  6
  2  3  1  0
  4  5  2  0
  4  2  1  0
  7  6  1  6
  7  8  1  0
  8  4  1  0
  9 10  2  0
  9  7  1  0
 11  9  1  0
 12 13  1  1
 12 11  1  0
 13 14  1  0
 14 15  1  0
 15 16  1  0
 16 17  1  0
 18 12  1  0
 19 18  1  0
 20 18  2  0
M  END
$$$$
