AAK.pdb
     RDKit          3D

 20 19  0  0  1  0  0  0  0  0999 V2000
   33.5762   -8.9093  -17.6414 C   0  0  0  0  0  0  0  0  0  0  0  0
   33.7671   -8.1402  -16.3510 C   0  0  2  0  0  0  0  0  0  0  0  0
   33.5117   -6.7503  -16.6187 N   0  0  0  0  0  0  0  0  0  0  0  0
   35.1526   -8.3697  -15.8568 C   0  0  0  0  0  0  0  0  0  0  0  0
   35.4800   -9.5411  -15.5548 O   0  0  0  0  0  0  0  0  0  0  0  0
   38.4294   -6.7862  -16.1912 C   0  0  0  0  0  0  0  0  0  0  0  0
   37.4102   -7.4589  -15.3088 C   0  0  2  0  0  0  0  0  0  0  0  0
   36.0594   -7.2851  -15.7381 N   0  0  0  0  0  0  0  0  0  0  0  0
   37.5256   -7.0181  -13.8862 C   0  0  0  0  0  0  0  0  0  0  0  0
   36.7492   -6.1904  -13.3530 O   0  0  0  0  0  0  0  0  0  0  0  0
   38.5557   -7.5361  -13.0481 N   0  0  0  0  0  0  0  0  0  0  0  0
   38.6224   -7.1734  -11.6206 C   0  0  1  0  0  0  0  0  0  0  0  0
   39.3106   -8.2655  -10.8844 C   0  0  0  0  0  0  0  0  0  0  0  0
   39.5147   -8.0806   -9.4295 C   0  0  0  0  0  0  0  0  0  0  0  0
   40.1686   -9.1751   -8.6752 C   0  0  0  0  0  0  0  0  0  0  0  0
   40.2102   -8.9156   -7.1780 C   0  0  0  0  0  0  0  0  0  0  0  0
   40.7627  -10.0527   -6.4794 N   0  0  0  0  0  0  0  0  0  0  0  0
   39.1610   -5.8282  -11.4888 C   0  0  0  0  0  0  0  0  0  0  0  0
   38.7844   -5.0340  -10.3811 O   0  0  0  0  0  0  0  0  0  0  0  0
   39.9541   -5.2695  -12.2753 O   0  0  0  0  0  0  0  0  0  0  0  0
  2  1  1  6
  2  3  1  0
  4  5  2  0
  4  2  1  0
  7  6  1  6
  7  8  1  0
  8  4  1  0
  9 10  2  0
  9  7  1  0
 11  9  1  0
 12 13  1  1
 12 11  1  0
 13 14  1  0
 14 15  1  0
 15 16  1  0
 16 17  1  0
 18 12  1  0
 19 18  1  0
 20 18  2  0
M  END
$$$$
