AAK.pdb
     RDKit          3D

 20 19  0  0  1  0  0  0  0  0999 V2000
   16.9192  -13.7844  -18.3886 C   0  0  0  0  0  0  0  0  0  0  0  0
   17.5664  -13.2771  -17.1170 C   0  0  2  0  0  0  0  0  0  0  0  0
   16.5294  -13.0639  -16.1436 N   0  0  0  0  0  0  0  0  0  0  0  0
   18.3113  -12.0253  -17.4248 C   0  0  0  0  0  0  0  0  0  0  0  0
   19.3413  -12.1160  -18.1329 O   0  0  0  0  0  0  0  0  0  0  0  0
   17.6369   -8.3338  -17.1358 C   0  0  0  0  0  0  0  0  0  0  0  0
   18.5248   -9.5491  -17.2029 C   0  0  2  0  0  0  0  0  0  0  0  0
   17.8549  -10.7789  -16.9239 N   0  0  0  0  0  0  0  0  0  0  0  0
   19.7073   -9.4271  -16.2985 C   0  0  0  0  0  0  0  0  0  0  0  0
   19.6562   -9.6265  -15.0617 O   0  0  0  0  0  0  0  0  0  0  0  0
   20.9845   -9.0675  -16.8197 N   0  0  0  0  0  0  0  0  0  0  0  0
   22.1614   -8.9719  -15.9367 C   0  0  1  0  0  0  0  0  0  0  0  0
   23.2595   -9.7867  -16.5185 C   0  0  0  0  0  0  0  0  0  0  0  0
   24.5439   -9.8202  -15.7825 C   0  0  0  0  0  0  0  0  0  0  0  0
   25.6749  -10.5575  -16.3923 C   0  0  0  0  0  0  0  0  0  0  0  0
   26.9013  -10.6016  -15.4953 C   0  0  0  0  0  0  0  0  0  0  0  0
   27.9288  -11.4328  -16.0783 N   0  0  0  0  0  0  0  0  0  0  0  0
   22.4389   -7.5723  -15.6519 C   0  0  0  0  0  0  0  0  0  0  0  0
   22.8641   -7.1975  -14.3563 O   0  0  0  0  0  0  0  0  0  0  0  0
   22.3419   -6.6214  -16.4556 O   0  0  0  0  0  0  0  0  0  0  0  0
  2  1  1  6
  2  3  1  0
  4  5  2  0
  4  2  1  0
  7  6  1  1
  7  8  1  0
  8  4  1  0
  9 10  2  0
  9  7  1  0
 11  9  1  0
 12 13  1  6
 12 11  1  0
 13 14  1  0
 14 15  1  0
 15 16  1  0
 16 17  1  0
 18 12  1  0
 19 18  1  0
 20 18  2  0
M  END
$$$$
