AAK.pdb
     RDKit          3D

 20 19  0  0  1  0  0  0  0  0999 V2000
   22.6242  -13.3710  -19.4155 C   0  0  0  0  0  0  0  0  0  0  0  0
   24.0035  -13.0536  -18.8771 C   0  0  2  0  0  0  0  0  0  0  0  0
   24.6540  -14.2959  -18.5579 N   0  0  0  0  0  0  0  0  0  0  0  0
   23.8617  -12.1734  -17.6847 C   0  0  0  0  0  0  0  0  0  0  0  0
   22.7299  -12.0849  -17.1537 O   0  0  0  0  0  0  0  0  0  0  0  0
   26.2289  -10.0851  -15.5635 C   0  0  0  0  0  0  0  0  0  0  0  0
   24.8998  -10.6139  -16.0365 C   0  0  2  0  0  0  0  0  0  0  0  0
   24.9826  -11.4654  -17.1798 N   0  0  0  0  0  0  0  0  0  0  0  0
   23.9311   -9.5135  -16.3228 C   0  0  0  0  0  0  0  0  0  0  0  0
   23.8185   -8.9650  -17.4446 O   0  0  0  0  0  0  0  0  0  0  0  0
   23.0663   -9.0248  -15.3003 N   0  0  0  0  0  0  0  0  0  0  0  0
   22.1284   -7.9192  -15.5684 C   0  0  1  0  0  0  0  0  0  0  0  0
   20.8616   -8.4883  -16.0971 C   0  0  0  0  0  0  0  0  0  0  0  0
   19.7548   -7.5437  -16.3713 C   0  0  0  0  0  0  0  0  0  0  0  0
   18.4754   -8.0988  -16.8710 C   0  0  0  0  0  0  0  0  0  0  0  0
   17.4596   -7.0212  -17.2138 C   0  0  0  0  0  0  0  0  0  0  0  0
   16.2793   -7.6047  -17.8077 N   0  0  0  0  0  0  0  0  0  0  0  0
   22.0444   -7.0621  -14.3956 C   0  0  0  0  0  0  0  0  0  0  0  0
   21.7230   -5.6944  -14.5557 O   0  0  0  0  0  0  0  0  0  0  0  0
   22.2304   -7.4107  -13.2109 O   0  0  0  0  0  0  0  0  0  0  0  0
  2  1  1  1
  2  3  1  0
  4  5  2  0
  4  2  1  0
  7  6  1  6
  7  8  1  0
  8  4  1  0
  9 10  2  0
  9  7  1  0
 11  9  1  0
 12 13  1  1
 12 11  1  0
 13 14  1  0
 14 15  1  0
 15 16  1  0
 16 17  1  0
 18 12  1  0
 19 18  1  0
 20 18  2  0
M  END
$$$$
