AAK.pdb
     RDKit          3D

 20 19  0  0  1  0  0  0  0  0999 V2000
   14.2153  -11.6142  -14.5689 C   0  0  0  0  0  0  0  0  0  0  0  0
   15.7260  -11.5653  -14.6608 C   0  0  2  0  0  0  0  0  0  0  0  0
   16.2125  -12.9171  -14.7256 N   0  0  0  0  0  0  0  0  0  0  0  0
   16.2549  -10.8362  -13.4753 C   0  0  0  0  0  0  0  0  0  0  0  0
   15.6929  -11.0277  -12.3716 O   0  0  0  0  0  0  0  0  0  0  0  0
   19.2249   -8.5813  -12.7724 C   0  0  0  0  0  0  0  0  0  0  0  0
   17.8770   -9.2025  -12.5131 C   0  0  2  0  0  0  0  0  0  0  0  0
   17.3602   -9.9571  -13.6097 N   0  0  0  0  0  0  0  0  0  0  0  0
   16.8623   -8.1848  -12.1060 C   0  0  0  0  0  0  0  0  0  0  0  0
   16.1151   -7.5893  -12.9178 O   0  0  0  0  0  0  0  0  0  0  0  0
   16.6952   -7.8364  -10.7338 N   0  0  0  0  0  0  0  0  0  0  0  0
   15.7236   -6.8038  -10.3292 C   0  0  1  0  0  0  0  0  0  0  0  0
   15.4280   -6.9702   -8.8824 C   0  0  0  0  0  0  0  0  0  0  0  0
   14.4957   -6.0005   -8.2636 C   0  0  0  0  0  0  0  0  0  0  0  0
   14.2899   -6.0727   -6.7984 C   0  0  0  0  0  0  0  0  0  0  0  0
   13.3472   -4.9977   -6.2822 C   0  0  0  0  0  0  0  0  0  0  0  0
   13.2560   -5.0495   -4.8416 N   0  0  0  0  0  0  0  0  0  0  0  0
   16.1902   -5.5001  -10.7761 C   0  0  0  0  0  0  0  0  0  0  0  0
   15.2534   -4.5483  -11.2410 O   0  0  0  0  0  0  0  0  0  0  0  0
   17.3752   -5.1065  -10.7962 O   0  0  0  0  0  0  0  0  0  0  0  0
  2  1  1  1
  2  3  1  0
  4  5  2  0
  4  2  1  0
  7  6  1  6
  7  8  1  0
  8  4  1  0
  9 10  2  0
  9  7  1  0
 11  9  1  0
 12 13  1  1
 12 11  1  0
 13 14  1  0
 14 15  1  0
 15 16  1  0
 16 17  1  0
 18 12  1  0
 19 18  1  0
 20 18  2  0
M  END
$$$$
