AAK.pdb
     RDKit          3D

 20 19  0  0  1  0  0  0  0  0999 V2000
   19.7017  -13.6239  -16.1902 C   0  0  0  0  0  0  0  0  0  0  0  0
   19.6362  -12.3311  -16.9759 C   0  0  2  0  0  0  0  0  0  0  0  0
   20.1647  -12.5810  -18.2900 N   0  0  0  0  0  0  0  0  0  0  0  0
   20.4125  -11.2889  -16.2493 C   0  0  0  0  0  0  0  0  0  0  0  0
   19.9418  -10.8524  -15.1729 O   0  0  0  0  0  0  0  0  0  0  0  0
   23.8252   -9.6831  -16.6166 C   0  0  0  0  0  0  0  0  0  0  0  0
   22.3981   -9.7815  -16.1436 C   0  0  2  0  0  0  0  0  0  0  0  0
   21.6433  -10.8170  -16.7737 N   0  0  0  0  0  0  0  0  0  0  0  0
   21.6678   -8.4878  -16.2998 C   0  0  0  0  0  0  0  0  0  0  0  0
   20.9368   -8.2201  -17.2826 O   0  0  0  0  0  0  0  0  0  0  0  0
   21.7744   -7.4708  -15.3067 N   0  0  0  0  0  0  0  0  0  0  0  0
   21.0547   -6.1924  -15.4539 C   0  0  1  0  0  0  0  0  0  0  0  0
   19.5939   -6.4635  -15.4260 C   0  0  0  0  0  0  0  0  0  0  0  0
   18.6863   -5.2939  -15.3967 C   0  0  0  0  0  0  0  0  0  0  0  0
   17.2275   -5.5476  -15.3530 C   0  0  0  0  0  0  0  0  0  0  0  0
   16.4055   -4.2700  -15.4071 C   0  0  0  0  0  0  0  0  0  0  0  0
   15.0074   -4.5542  -15.1813 N   0  0  0  0  0  0  0  0  0  0  0  0
   21.5798   -5.2298  -14.4975 C   0  0  0  0  0  0  0  0  0  0  0  0
   21.4628   -3.8467  -14.7678 O   0  0  0  0  0  0  0  0  0  0  0  0
   22.1459   -5.4957  -13.4166 O   0  0  0  0  0  0  0  0  0  0  0  0
  2  1  1  1
  2  3  1  0
  4  5  2  0
  4  2  1  0
  7  6  1  6
  7  8  1  0
  8  4  1  0
  9 10  2  0
  9  7  1  0
 11  9  1  0
 12 13  1  1
 12 11  1  0
 13 14  1  0
 14 15  1  0
 15 16  1  0
 16 17  1  0
 18 12  1  0
 19 18  1  0
 20 18  2  0
M  END
$$$$
