YVE.pdb
     RDKit          3D

 29 29  0  0  1  0  0  0  0  0999 V2000
   29.3531  -20.1285   -3.7883 O   0  0  0  0  0  0  0  0  0  0  0  0
   28.7133  -19.9914   -5.0207 C   0  0  0  0  0  0  0  0  0  0  0  0
   29.2051  -19.0925   -5.9673 C   0  0  0  0  0  0  0  0  0  0  0  0
   28.5750  -18.9506   -7.1940 C   0  0  0  0  0  0  0  0  0  0  0  0
   27.4575  -19.6764   -7.5263 C   0  0  0  0  0  0  0  0  0  0  0  0
   26.7824  -19.5228   -8.8439 C   0  0  0  0  0  0  0  0  0  0  0  0
   26.7133  -20.8572   -9.5911 C   0  0  2  0  0  0  0  0  0  0  0  0
   28.0871  -21.2005   -9.8958 N   0  0  0  0  0  0  0  0  0  0  0  0
   25.9593  -20.5697  -10.8425 C   0  0  0  0  0  0  0  0  0  0  0  0
   26.3795  -19.6147  -11.5586 O   0  0  0  0  0  0  0  0  0  0  0  0
   26.9652  -20.5716   -6.5875 C   0  0  0  0  0  0  0  0  0  0  0  0
   27.5978  -20.7099   -5.3637 C   0  0  0  0  0  0  0  0  0  0  0  0
   23.5929  -22.1227  -14.7019 C   0  0  0  0  0  0  0  0  0  0  0  0
   24.2529  -22.2516  -13.3794 C   0  0  1  0  0  0  0  0  0  0  0  0
   25.6807  -22.7441  -13.6116 C   0  0  0  0  0  0  0  0  0  0  0  0
   24.2335  -21.0043  -12.5511 C   0  0  2  0  0  0  0  0  0  0  0  0
   24.8233  -21.3184  -11.2297 N   0  0  0  0  0  0  0  0  0  0  0  0
   22.8727  -20.5020  -12.3552 C   0  0  0  0  0  0  0  0  0  0  0  0
   22.1493  -20.8919  -11.3716 O   0  0  0  0  0  0  0  0  0  0  0  0
   22.2863  -19.5646  -13.2211 N   0  0  0  0  0  0  0  0  0  0  0  0
   20.8882  -19.1217  -12.9939 C   0  0  1  0  0  0  0  0  0  0  0  0
   20.6098  -17.9352  -13.8732 C   0  0  0  0  0  0  0  0  0  0  0  0
   19.5020  -18.2397  -14.8348 C   0  0  0  0  0  0  0  0  0  0  0  0
   18.8167  -16.9616  -15.1675 C   0  0  0  0  0  0  0  0  0  0  0  0
   18.6441  -16.5286  -16.3246 O   0  0  0  0  0  0  0  0  0  0  0  0
   20.0252  -20.2544  -13.3196 C   0  0  0  0  0  0  0  0  0  0  0  0
   20.3373  -21.0795  -14.2002 O   0  0  0  0  0  0  0  0  0  0  0  0
   18.3163  -16.1614  -14.1255 O   0  0  0  0  0  0  0  0  0  0  0  0
   18.8250  -20.4664  -12.6679 O   0  0  0  0  0  0  0  0  0  0  0  0
  2  1  1  0
  2 12  2  0
  3  2  1  0
  4  3  2  0
  4  5  1  0
  5 11  2  0
  6  5  1  0
  6  7  1  0
  7  8  1  6
  9  7  1  0
  9 17  1  0
 10  9  2  0
 11 12  1  0
 14 13  1  6
 14 15  1  0
 16 17  1  1
 16 14  1  0
 18 16  1  0
 19 18  2  0
 20 18  1  0
 21 20  1  0
 21 22  1  6
 23 22  1  0
 23 24  1  0
 24 25  2  0
 26 21  1  0
 27 26  2  0
 28 24  1  0
 29 26  1  0
M  END
$$$$
