YVE.pdb
     RDKit          3D

 29 29  0  0  1  0  0  0  0  0999 V2000
   18.6845  -15.2228  -16.9047 O   0  0  0  0  0  0  0  0  0  0  0  0
   18.9803  -16.3376  -16.1194 C   0  0  0  0  0  0  0  0  0  0  0  0
   19.7464  -16.1943  -14.9625 C   0  0  0  0  0  0  0  0  0  0  0  0
   20.0446  -17.2971  -14.1770 C   0  0  0  0  0  0  0  0  0  0  0  0
   19.6065  -18.5585  -14.4976 C   0  0  0  0  0  0  0  0  0  0  0  0
   19.9276  -19.7413  -13.6530 C   0  0  0  0  0  0  0  0  0  0  0  0
   21.4336  -19.8511  -13.4013 C   0  0  2  0  0  0  0  0  0  0  0  0
   21.9733  -20.5121  -14.5717 N   0  0  0  0  0  0  0  0  0  0  0  0
   21.5704  -20.7232  -12.2021 C   0  0  0  0  0  0  0  0  0  0  0  0
   21.5055  -21.9728  -12.3915 O   0  0  0  0  0  0  0  0  0  0  0  0
   18.8442  -18.7054  -15.6476 C   0  0  0  0  0  0  0  0  0  0  0  0
   18.5490  -17.6011  -16.4289 C   0  0  0  0  0  0  0  0  0  0  0  0
   23.2983  -21.3375   -7.6577 C   0  0  0  0  0  0  0  0  0  0  0  0
   23.0604  -20.5669   -8.9030 C   0  0  1  0  0  0  0  0  0  0  0  0
   24.4049  -20.3786   -9.6043 C   0  0  0  0  0  0  0  0  0  0  0  0
   22.0447  -21.1707   -9.8228 C   0  0  2  0  0  0  0  0  0  0  0  0
   21.7642  -20.1977  -10.9032 N   0  0  0  0  0  0  0  0  0  0  0  0
   20.7947  -21.4787   -9.1264 C   0  0  0  0  0  0  0  0  0  0  0  0
   20.0341  -20.5521   -8.6727 O   0  0  0  0  0  0  0  0  0  0  0  0
   20.3535  -22.7964   -8.9227 N   0  0  0  0  0  0  0  0  0  0  0  0
   19.1226  -23.0503   -8.1334 C   0  0  1  0  0  0  0  0  0  0  0  0
   18.2938  -24.0783   -8.8510 C   0  0  0  0  0  0  0  0  0  0  0  0
   17.0468  -24.3830   -8.0786 C   0  0  0  0  0  0  0  0  0  0  0  0
   16.2973  -25.4386   -8.8119 C   0  0  0  0  0  0  0  0  0  0  0  0
   16.6835  -25.9809   -9.8669 O   0  0  0  0  0  0  0  0  0  0  0  0
   19.5505  -23.5187   -6.8176 C   0  0  0  0  0  0  0  0  0  0  0  0
   20.6751  -24.0262   -6.6403 O   0  0  0  0  0  0  0  0  0  0  0  0
   15.0618  -25.8785   -8.3055 O   0  0  0  0  0  0  0  0  0  0  0  0
   18.7321  -23.4207   -5.7083 O   0  0  0  0  0  0  0  0  0  0  0  0
  2  1  1  0
  2 12  2  0
  3  2  1  0
  4  3  2  0
  4  5  1  0
  5 11  2  0
  6  5  1  0
  6  7  1  0
  7  8  1  6
  9  7  1  0
  9 17  1  0
 10  9  2  0
 11 12  1  0
 14 13  1  1
 14 15  1  0
 16 17  1  6
 16 14  1  0
 18 16  1  0
 19 18  2  0
 20 18  1  0
 21 20  1  0
 21 22  1  6
 23 22  1  0
 23 24  1  0
 24 25  2  0
 26 21  1  0
 27 26  2  0
 28 24  1  0
 29 26  1  0
M  END
$$$$
