YVE.pdb
     RDKit          3D

 29 29  0  0  1  0  0  0  0  0999 V2000
   28.9671  -19.1274   -5.9061 O   0  0  0  0  0  0  0  0  0  0  0  0
   28.4088  -19.5207   -7.1230 C   0  0  0  0  0  0  0  0  0  0  0  0
   29.1709  -20.2446   -8.0402 C   0  0  0  0  0  0  0  0  0  0  0  0
   28.6234  -20.6388   -9.2512 C   0  0  0  0  0  0  0  0  0  0  0  0
   27.3283  -20.3393   -9.5961 C   0  0  0  0  0  0  0  0  0  0  0  0
   26.7421  -20.7636  -10.8969 C   0  0  0  0  0  0  0  0  0  0  0  0
   25.2618  -21.1239  -10.7474 C   0  0  2  0  0  0  0  0  0  0  0  0
   25.2442  -22.4388  -10.1401 N   0  0  0  0  0  0  0  0  0  0  0  0
   24.7288  -21.1855  -12.1364 C   0  0  0  0  0  0  0  0  0  0  0  0
   25.0613  -22.1874  -12.8343 O   0  0  0  0  0  0  0  0  0  0  0  0
   26.5669  -19.6194   -8.6866 C   0  0  0  0  0  0  0  0  0  0  0  0
   27.1180  -19.2278   -7.4783 C   0  0  0  0  0  0  0  0  0  0  0  0
   20.8836  -20.3769  -14.9305 C   0  0  0  0  0  0  0  0  0  0  0  0
   21.7123  -20.3012  -13.7023 C   0  0  1  0  0  0  0  0  0  0  0  0
   21.1618  -21.3144  -12.6996 C   0  0  0  0  0  0  0  0  0  0  0  0
   23.1791  -20.4992  -13.9292 C   0  0  2  0  0  0  0  0  0  0  0  0
   23.8883  -20.1801  -12.6690 N   0  0  0  0  0  0  0  0  0  0  0  0
   23.6876  -19.6308  -14.9920 C   0  0  0  0  0  0  0  0  0  0  0  0
   23.7436  -18.3583  -14.8487 O   0  0  0  0  0  0  0  0  0  0  0  0
   24.1485  -20.1362  -16.2186 N   0  0  0  0  0  0  0  0  0  0  0  0
   24.7119  -19.2122  -17.2342 C   0  0  1  0  0  0  0  0  0  0  0  0
   25.6268  -19.9897  -18.1380 C   0  0  0  0  0  0  0  0  0  0  0  0
   26.1645  -19.1115  -19.2262 C   0  0  0  0  0  0  0  0  0  0  0  0
   26.9961  -19.9531  -20.1285 C   0  0  0  0  0  0  0  0  0  0  0  0
   26.5474  -20.8244  -20.9002 O   0  0  0  0  0  0  0  0  0  0  0  0
   23.5819  -18.6425  -17.9639 C   0  0  0  0  0  0  0  0  0  0  0  0
   23.5861  -17.4573  -18.3499 O   0  0  0  0  0  0  0  0  0  0  0  0
   28.3909  -19.7780  -20.1355 O   0  0  0  0  0  0  0  0  0  0  0  0
   22.4572  -19.3882  -18.2622 O   0  0  0  0  0  0  0  0  0  0  0  0
  2  1  1  0
  2 12  2  0
  3  2  1  0
  4  3  2  0
  4  5  1  0
  5 11  2  0
  6  5  1  0
  6  7  1  0
  7  8  1  6
  9  7  1  0
  9 17  1  0
 10  9  2  0
 11 12  1  0
 14 13  1  6
 14 15  1  0
 16 17  1  1
 16 14  1  0
 18 16  1  0
 19 18  2  0
 20 18  1  0
 21 20  1  0
 21 22  1  6
 23 22  1  0
 23 24  1  0
 24 25  2  0
 26 21  1  0
 27 26  2  0
 28 24  1  0
 29 26  1  0
M  END
$$$$
