YVE.pdb
     RDKit          3D

 29 29  0  0  1  0  0  0  0  0999 V2000
   30.1713  -17.0213  -19.0964 O   0  0  0  0  0  0  0  0  0  0  0  0
   29.2474  -17.7075  -18.3075 C   0  0  0  0  0  0  0  0  0  0  0  0
   28.6618  -18.8826  -18.7791 C   0  0  0  0  0  0  0  0  0  0  0  0
   27.7430  -19.5700  -18.0012 C   0  0  0  0  0  0  0  0  0  0  0  0
   27.3745  -19.1322  -16.7528 C   0  0  0  0  0  0  0  0  0  0  0  0
   26.3878  -19.8717  -15.9191 C   0  0  0  0  0  0  0  0  0  0  0  0
   27.0877  -20.7469  -14.8761 C   0  0  2  0  0  0  0  0  0  0  0  0
   27.5712  -21.9023  -15.6037 N   0  0  0  0  0  0  0  0  0  0  0  0
   26.0214  -21.1455  -13.9163 C   0  0  0  0  0  0  0  0  0  0  0  0
   25.3160  -22.1490  -14.2272 O   0  0  0  0  0  0  0  0  0  0  0  0
   27.9545  -17.9638  -16.2801 C   0  0  0  0  0  0  0  0  0  0  0  0
   28.8717  -17.2807  -17.0605 C   0  0  0  0  0  0  0  0  0  0  0  0
   24.0436  -20.9934   -9.4114 C   0  0  0  0  0  0  0  0  0  0  0  0
   25.0652  -20.6013  -10.4132 C   0  0  1  0  0  0  0  0  0  0  0  0
   26.4014  -21.2065   -9.9849 C   0  0  0  0  0  0  0  0  0  0  0  0
   24.7257  -20.9706  -11.8241 C   0  0  2  0  0  0  0  0  0  0  0  0
   25.7924  -20.4470  -12.7077 N   0  0  0  0  0  0  0  0  0  0  0  0
   23.4431  -20.4027  -12.2419 C   0  0  0  0  0  0  0  0  0  0  0  0
   23.2741  -19.1368  -12.3507 O   0  0  0  0  0  0  0  0  0  0  0  0
   22.3329  -21.2043  -12.5540 N   0  0  0  0  0  0  0  0  0  0  0  0
   21.0628  -20.5713  -12.9886 C   0  0  1  0  0  0  0  0  0  0  0  0
   20.3151  -21.5407  -13.8603 C   0  0  0  0  0  0  0  0  0  0  0  0
   19.7707  -22.6727  -13.0438 C   0  0  0  0  0  0  0  0  0  0  0  0
   18.9625  -23.5412  -13.9418 C   0  0  0  0  0  0  0  0  0  0  0  0
   18.3625  -24.5733  -13.5802 O   0  0  0  0  0  0  0  0  0  0  0  0
   20.3160  -20.2415  -11.7772 C   0  0  0  0  0  0  0  0  0  0  0  0
   20.5156  -20.8436  -10.7042 O   0  0  0  0  0  0  0  0  0  0  0  0
   18.8470  -23.2014  -15.3011 O   0  0  0  0  0  0  0  0  0  0  0  0
   19.3559  -19.2476  -11.7617 O   0  0  0  0  0  0  0  0  0  0  0  0
  2  1  1  0
  2 12  2  0
  3  2  1  0
  4  3  2  0
  4  5  1  0
  5 11  2  0
  6  5  1  0
  6  7  1  0
  7  8  1  6
  9  7  1  0
  9 17  1  0
 10  9  2  0
 11 12  1  0
 14 13  1  1
 14 15  1  0
 16 17  1  6
 16 14  1  0
 18 16  1  0
 19 18  2  0
 20 18  1  0
 21 20  1  0
 21 22  1  6
 23 22  1  0
 23 24  1  0
 24 25  2  0
 26 21  1  0
 27 26  2  0
 28 24  1  0
 29 26  1  0
M  END
$$$$
