YVE.pdb
     RDKit          3D

 29 29  0  0  1  0  0  0  0  0999 V2000
   21.3381  -12.5908  -25.5073 O   0  0  0  0  0  0  0  0  0  0  0  0
   21.1803  -12.1705  -24.1862 C   0  0  0  0  0  0  0  0  0  0  0  0
   19.9236  -12.2195  -23.5825 C   0  0  0  0  0  0  0  0  0  0  0  0
   19.7587  -11.8036  -22.2704 C   0  0  0  0  0  0  0  0  0  0  0  0
   20.8074  -11.3327  -21.5191 C   0  0  0  0  0  0  0  0  0  0  0  0
   20.6284  -10.8867  -20.1103 C   0  0  0  0  0  0  0  0  0  0  0  0
   21.3646  -11.8115  -19.1375 C   0  0  2  0  0  0  0  0  0  0  0  0
   20.6012  -13.0423  -19.1226 N   0  0  0  0  0  0  0  0  0  0  0  0
   21.2857  -11.1344  -17.8137 C   0  0  0  0  0  0  0  0  0  0  0  0
   20.2162  -11.2867  -17.1547 O   0  0  0  0  0  0  0  0  0  0  0  0
   22.0590  -11.2823  -22.1158 C   0  0  0  0  0  0  0  0  0  0  0  0
   22.2189  -11.6988  -23.4266 C   0  0  0  0  0  0  0  0  0  0  0  0
   23.3843   -9.7937  -13.7215 C   0  0  0  0  0  0  0  0  0  0  0  0
   23.2998  -10.3744  -15.0842 C   0  0  1  0  0  0  0  0  0  0  0  0
   23.1993  -11.8927  -14.9436 C   0  0  0  0  0  0  0  0  0  0  0  0
   22.1866   -9.8289  -15.9241 C   0  0  2  0  0  0  0  0  0  0  0  0
   22.3469  -10.3529  -17.2997 N   0  0  0  0  0  0  0  0  0  0  0  0
   22.2051   -8.3661  -15.9691 C   0  0  0  0  0  0  0  0  0  0  0  0
   23.1155   -7.7265  -16.6054 O   0  0  0  0  0  0  0  0  0  0  0  0
   21.2300   -7.5827  -15.3303 N   0  0  0  0  0  0  0  0  0  0  0  0
   21.3119   -6.1023  -15.3954 C   0  0  1  0  0  0  0  0  0  0  0  0
   19.9461   -5.5575  -15.7056 C   0  0  0  0  0  0  0  0  0  0  0  0
   19.9681   -4.0596  -15.7271 C   0  0  0  0  0  0  0  0  0  0  0  0
   18.5837   -3.5824  -15.9909 C   0  0  0  0  0  0  0  0  0  0  0  0
   18.1384   -2.4694  -15.6460 O   0  0  0  0  0  0  0  0  0  0  0  0
   21.7972   -5.6458  -14.0954 C   0  0  0  0  0  0  0  0  0  0  0  0
   21.5645   -6.2859  -13.0515 O   0  0  0  0  0  0  0  0  0  0  0  0
   17.6887   -4.4226  -16.6759 O   0  0  0  0  0  0  0  0  0  0  0  0
   22.5371   -4.4864  -13.9606 O   0  0  0  0  0  0  0  0  0  0  0  0
  2  1  1  0
  2 12  2  0
  3  2  1  0
  4  3  2  0
  4  5  1  0
  5 11  2  0
  6  5  1  0
  6  7  1  0
  7  8  1  1
  9  7  1  0
  9 17  1  0
 10  9  2  0
 11 12  1  0
 14 13  1  1
 14 15  1  0
 16 17  1  6
 16 14  1  0
 18 16  1  0
 19 18  2  0
 20 18  1  0
 21 20  1  0
 21 22  1  1
 23 22  1  0
 23 24  1  0
 24 25  2  0
 26 21  1  0
 27 26  2  0
 28 24  1  0
 29 26  1  0
M  END
$$$$
