YVE.pdb
     RDKit          3D

 29 29  0  0  1  0  0  0  0  0999 V2000
   14.8619  -23.7253  -13.4840 O   0  0  0  0  0  0  0  0  0  0  0  0
   16.0856  -23.0575  -13.5435 C   0  0  0  0  0  0  0  0  0  0  0  0
   17.2769  -23.7827  -13.5727 C   0  0  0  0  0  0  0  0  0  0  0  0
   18.4967  -23.1265  -13.6318 C   0  0  0  0  0  0  0  0  0  0  0  0
   18.5851  -21.7565  -13.6636 C   0  0  0  0  0  0  0  0  0  0  0  0
   19.8957  -21.0537  -13.7272 C   0  0  0  0  0  0  0  0  0  0  0  0
   20.7761  -21.4118  -12.5271 C   0  0  2  0  0  0  0  0  0  0  0  0
   20.1340  -20.8008  -11.3814 N   0  0  0  0  0  0  0  0  0  0  0  0
   22.0896  -20.7632  -12.7943 C   0  0  0  0  0  0  0  0  0  0  0  0
   22.2222  -19.5614  -12.4209 O   0  0  0  0  0  0  0  0  0  0  0  0
   17.4025  -21.0314  -13.6348 C   0  0  0  0  0  0  0  0  0  0  0  0
   16.1866  -21.6911  -13.5757 C   0  0  0  0  0  0  0  0  0  0  0  0
   25.2910  -21.5333  -11.4119 C   0  0  0  0  0  0  0  0  0  0  0  0
   25.4986  -21.4298  -12.8773 C   0  0  1  0  0  0  0  0  0  0  0  0
   25.6805  -22.8435  -13.4282 C   0  0  0  0  0  0  0  0  0  0  0  0
   24.4178  -20.6941  -13.6074 C   0  0  2  0  0  0  0  0  0  0  0  0
   23.1520  -21.4429  -13.4348 N   0  0  0  0  0  0  0  0  0  0  0  0
   24.7085  -20.5781  -15.0372 C   0  0  0  0  0  0  0  0  0  0  0  0
   24.5588  -21.5706  -15.8344 O   0  0  0  0  0  0  0  0  0  0  0  0
   25.1569  -19.3804  -15.6176 N   0  0  0  0  0  0  0  0  0  0  0  0
   25.3809  -19.3074  -17.0829 C   0  0  1  0  0  0  0  0  0  0  0  0
   24.7270  -18.0606  -17.6086 C   0  0  0  0  0  0  0  0  0  0  0  0
   23.2852  -18.3150  -17.9264 C   0  0  0  0  0  0  0  0  0  0  0  0
   22.4680  -17.8202  -16.7857 C   0  0  0  0  0  0  0  0  0  0  0  0
   22.6805  -16.7573  -16.1682 O   0  0  0  0  0  0  0  0  0  0  0  0
   26.8266  -19.2928  -17.2918 C   0  0  0  0  0  0  0  0  0  0  0  0
   27.6201  -19.1226  -16.3458 O   0  0  0  0  0  0  0  0  0  0  0  0
   21.3706  -18.5821  -16.3482 O   0  0  0  0  0  0  0  0  0  0  0  0
   27.3830  -19.4683  -18.5446 O   0  0  0  0  0  0  0  0  0  0  0  0
  2  1  1  0
  2 12  2  0
  3  2  1  0
  4  3  2  0
  4  5  1  0
  5 11  2  0
  6  5  1  0
  6  7  1  0
  7  8  1  1
  9  7  1  0
  9 17  1  0
 10  9  2  0
 11 12  1  0
 14 13  1  1
 14 15  1  0
 16 17  1  6
 16 14  1  0
 18 16  1  0
 19 18  2  0
 20 18  1  0
 21 20  1  0
 21 22  1  1
 23 22  1  0
 23 24  1  0
 24 25  2  0
 26 21  1  0
 27 26  2  0
 28 24  1  0
 29 26  1  0
M  END
$$$$
