YVE.pdb
     RDKit          3D

 29 29  0  0  1  0  0  0  0  0999 V2000
   16.7171  -24.7542   -8.1746 O   0  0  0  0  0  0  0  0  0  0  0  0
   17.7245  -24.2200   -8.9788 C   0  0  0  0  0  0  0  0  0  0  0  0
   18.9687  -23.9120   -8.4283 C   0  0  0  0  0  0  0  0  0  0  0  0
   19.9747  -23.3809   -9.2207 C   0  0  0  0  0  0  0  0  0  0  0  0
   19.7941  -23.1385  -10.5604 C   0  0  0  0  0  0  0  0  0  0  0  0
   20.8755  -22.5684  -11.4096 C   0  0  0  0  0  0  0  0  0  0  0  0
   21.2835  -21.1740  -10.9268 C   0  0  2  0  0  0  0  0  0  0  0  0
   20.2056  -20.2950  -11.3311 N   0  0  0  0  0  0  0  0  0  0  0  0
   22.5293  -20.8470  -11.6739 C   0  0  0  0  0  0  0  0  0  0  0  0
   22.4084  -20.1104  -12.6958 O   0  0  0  0  0  0  0  0  0  0  0  0
   18.5581  -23.4435  -11.1118 C   0  0  0  0  0  0  0  0  0  0  0  0
   17.5564  -23.9737  -10.3164 C   0  0  0  0  0  0  0  0  0  0  0  0
   25.7556  -19.9182   -9.5979 C   0  0  0  0  0  0  0  0  0  0  0  0
   26.0754  -20.6618  -10.8413 C   0  0  1  0  0  0  0  0  0  0  0  0
   26.4717  -22.0849  -10.4501 C   0  0  0  0  0  0  0  0  0  0  0  0
   24.9820  -20.6612  -11.8643 C   0  0  2  0  0  0  0  0  0  0  0  0
   23.7983  -21.3281  -11.2753 N   0  0  0  0  0  0  0  0  0  0  0  0
   25.3731  -21.3769  -13.0796 C   0  0  0  0  0  0  0  0  0  0  0  0
   25.3946  -22.6577  -13.1258 O   0  0  0  0  0  0  0  0  0  0  0  0
   25.7371  -20.7090  -14.2603 N   0  0  0  0  0  0  0  0  0  0  0  0
   26.1229  -21.4894  -15.4622 C   0  0  1  0  0  0  0  0  0  0  0  0
   25.1513  -21.1837  -16.5673 C   0  0  0  0  0  0  0  0  0  0  0  0
   25.5075  -21.9440  -17.8081 C   0  0  0  0  0  0  0  0  0  0  0  0
   24.5230  -21.5876  -18.8651 C   0  0  0  0  0  0  0  0  0  0  0  0
   23.5128  -20.8782  -18.6847 O   0  0  0  0  0  0  0  0  0  0  0  0
   27.4845  -21.0900  -15.8093 C   0  0  0  0  0  0  0  0  0  0  0  0
   27.8870  -19.9238  -15.6318 O   0  0  0  0  0  0  0  0  0  0  0  0
   24.7166  -22.0690  -20.1717 O   0  0  0  0  0  0  0  0  0  0  0  0
   28.3904  -21.9838  -16.3483 O   0  0  0  0  0  0  0  0  0  0  0  0
  2  1  1  0
  2 12  2  0
  3  2  1  0
  4  3  2  0
  4  5  1  0
  5 11  2  0
  6  5  1  0
  6  7  1  0
  7  8  1  6
  9  7  1  0
  9 17  1  0
 10  9  2  0
 11 12  1  0
 14 13  1  1
 14 15  1  0
 16 17  1  1
 16 14  1  0
 18 16  1  0
 19 18  2  0
 20 18  1  0
 21 20  1  0
 21 22  1  6
 23 22  1  0
 23 24  1  0
 24 25  2  0
 26 21  1  0
 27 26  2  0
 28 24  1  0
 29 26  1  0
M  END
$$$$
