YVE.pdb
     RDKit          3D

 29 29  0  0  1  0  0  0  0  0999 V2000
   27.2749  -16.0892  -17.1906 O   0  0  0  0  0  0  0  0  0  0  0  0
   26.4112  -15.0028  -17.3345 C   0  0  0  0  0  0  0  0  0  0  0  0
   26.0617  -14.5515  -18.6073 C   0  0  0  0  0  0  0  0  0  0  0  0
   25.2042  -13.4727  -18.7585 C   0  0  0  0  0  0  0  0  0  0  0  0
   24.6698  -12.8114  -17.6801 C   0  0  0  0  0  0  0  0  0  0  0  0
   23.7491  -11.6534  -17.8445 C   0  0  0  0  0  0  0  0  0  0  0  0
   22.2928  -12.0649  -17.6135 C   0  0  2  0  0  0  0  0  0  0  0  0
   21.9553  -12.9301  -18.7251 N   0  0  0  0  0  0  0  0  0  0  0  0
   21.5100  -10.8002  -17.6825 C   0  0  0  0  0  0  0  0  0  0  0  0
   21.1807  -10.3917  -18.8341 O   0  0  0  0  0  0  0  0  0  0  0  0
   25.0149  -13.2571  -16.4123 C   0  0  0  0  0  0  0  0  0  0  0  0
   25.8717  -14.3349  -16.2663 C   0  0  0  0  0  0  0  0  0  0  0  0
   18.7461   -9.7646  -14.9844 C   0  0  0  0  0  0  0  0  0  0  0  0
   18.8991   -9.2053  -16.3500 C   0  0  1  0  0  0  0  0  0  0  0  0
   17.9843   -7.9867  -16.4650 C   0  0  0  0  0  0  0  0  0  0  0  0
   20.3080   -8.8682  -16.7290 C   0  0  2  0  0  0  0  0  0  0  0  0
   21.1420  -10.0746  -16.5253 N   0  0  0  0  0  0  0  0  0  0  0  0
   20.8450   -7.7777  -15.9138 C   0  0  0  0  0  0  0  0  0  0  0  0
   21.3906   -7.9980  -14.7750 O   0  0  0  0  0  0  0  0  0  0  0  0
   20.8024   -6.4372  -16.3305 N   0  0  0  0  0  0  0  0  0  0  0  0
   21.4383   -5.3843  -15.5001 C   0  0  1  0  0  0  0  0  0  0  0  0
   21.5499   -4.1281  -16.3175 C   0  0  0  0  0  0  0  0  0  0  0  0
   22.5205   -4.3157  -17.4432 C   0  0  0  0  0  0  0  0  0  0  0  0
   22.6275   -3.0268  -18.1787 C   0  0  0  0  0  0  0  0  0  0  0  0
   21.7822   -2.6005  -18.9911 O   0  0  0  0  0  0  0  0  0  0  0  0
   20.5879   -5.1963  -14.3274 C   0  0  0  0  0  0  0  0  0  0  0  0
   19.3525   -5.3508  -14.3867 O   0  0  0  0  0  0  0  0  0  0  0  0
   23.7496   -2.2074  -17.9648 O   0  0  0  0  0  0  0  0  0  0  0  0
   21.1105   -4.8408  -13.0984 O   0  0  0  0  0  0  0  0  0  0  0  0
  2  1  1  0
  2 12  2  0
  3  2  1  0
  4  3  2  0
  4  5  1  0
  5 11  2  0
  6  5  1  0
  6  7  1  0
  7  8  1  6
  9  7  1  0
  9 17  1  0
 10  9  2  0
 11 12  1  0
 14 13  1  1
 14 15  1  0
 16 17  1  1
 16 14  1  0
 18 16  1  0
 19 18  2  0
 20 18  1  0
 21 20  1  0
 21 22  1  6
 23 22  1  0
 23 24  1  0
 24 25  2  0
 26 21  1  0
 27 26  2  0
 28 24  1  0
 29 26  1  0
M  END
$$$$
