YVE.pdb
     RDKit          3D

 29 29  0  0  1  0  0  0  0  0999 V2000
   18.4728  -16.9561  -16.1846 O   0  0  0  0  0  0  0  0  0  0  0  0
   18.7254  -15.5871  -16.2798 C   0  0  0  0  0  0  0  0  0  0  0  0
   19.1183  -15.0319  -17.4977 C   0  0  0  0  0  0  0  0  0  0  0  0
   19.3711  -13.6726  -17.6003 C   0  0  0  0  0  0  0  0  0  0  0  0
   19.2480  -12.8265  -16.5256 C   0  0  0  0  0  0  0  0  0  0  0  0
   19.5198  -11.3674  -16.6378 C   0  0  0  0  0  0  0  0  0  0  0  0
   18.2184  -10.5625  -16.6845 C   0  0  2  0  0  0  0  0  0  0  0  0
   17.6183  -10.8732  -17.9657 N   0  0  0  0  0  0  0  0  0  0  0  0
   18.6365   -9.1341  -16.6388 C   0  0  0  0  0  0  0  0  0  0  0  0
   19.0162   -8.6126  -17.7276 O   0  0  0  0  0  0  0  0  0  0  0  0
   18.8574  -13.3748  -15.3124 C   0  0  0  0  0  0  0  0  0  0  0  0
   18.6060  -14.7329  -15.2148 C   0  0  0  0  0  0  0  0  0  0  0  0
   17.8699   -4.7350  -14.8527 C   0  0  0  0  0  0  0  0  0  0  0  0
   17.6839   -6.2000  -14.9948 C   0  0  1  0  0  0  0  0  0  0  0  0
   16.4263   -6.4362  -15.8302 C   0  0  0  0  0  0  0  0  0  0  0  0
   18.8634   -6.9235  -15.5671 C   0  0  2  0  0  0  0  0  0  0  0  0
   18.6171   -8.3784  -15.4432 N   0  0  0  0  0  0  0  0  0  0  0  0
   20.1013   -6.5908  -14.8607 C   0  0  0  0  0  0  0  0  0  0  0  0
   20.2999   -6.9551  -13.6480 O   0  0  0  0  0  0  0  0  0  0  0  0
   21.1402   -5.8657  -15.4669 N   0  0  0  0  0  0  0  0  0  0  0  0
   22.3982   -5.6126  -14.7212 C   0  0  1  0  0  0  0  0  0  0  0  0
   23.4596   -5.1886  -15.6970 C   0  0  0  0  0  0  0  0  0  0  0  0
   23.7671   -6.2973  -16.6566 C   0  0  0  0  0  0  0  0  0  0  0  0
   24.8321   -5.8237  -17.5814 C   0  0  0  0  0  0  0  0  0  0  0  0
   24.6242   -5.2714  -18.6805 O   0  0  0  0  0  0  0  0  0  0  0  0
   22.1095   -4.5667  -13.7432 C   0  0  0  0  0  0  0  0  0  0  0  0
   21.2915   -3.6575  -13.9835 O   0  0  0  0  0  0  0  0  0  0  0  0
   26.1796   -5.9963  -17.2198 O   0  0  0  0  0  0  0  0  0  0  0  0
   22.7264   -4.5356  -12.5069 O   0  0  0  0  0  0  0  0  0  0  0  0
  2  1  1  0
  2 12  2  0
  3  2  1  0
  4  3  2  0
  4  5  1  0
  5 11  2  0
  6  5  1  0
  6  7  1  0
  7  8  1  6
  9  7  1  0
  9 17  1  0
 10  9  2  0
 11 12  1  0
 14 13  1  6
 14 15  1  0
 16 17  1  1
 16 14  1  0
 18 16  1  0
 19 18  2  0
 20 18  1  0
 21 20  1  0
 21 22  1  6
 23 22  1  0
 23 24  1  0
 24 25  2  0
 26 21  1  0
 27 26  2  0
 28 24  1  0
 29 26  1  0
M  END
$$$$
