CTE.pdb
     RDKit          3D

 23 22  0  0  1  0  0  0  0  0999 V2000
    5.3764  -13.5691   26.3038 N   0  0  0  0  0  0  0  0  0  0  0  0
    6.5228  -13.2731   25.5060 C   0  0  1  0  0  0  0  0  0  0  0  0
    7.6734  -12.8441   26.4001 C   0  0  0  0  0  0  0  0  0  0  0  0
    7.2911  -11.3945   27.3816 S   0  0  0  0  0  0  0  0  0  0  0  0
    7.0202  -14.4619   24.7477 C   0  0  0  0  0  0  0  0  0  0  0  0
    6.2356  -15.4224   24.5357 O   0  0  0  0  0  0  0  0  0  0  0  0
    6.4599  -15.0069   22.5387 C   0  0  0  0  0  0  0  0  0  0  0  0
    7.8610  -15.4101   22.1078 C   0  0  1  0  0  0  0  0  0  0  0  0
    8.3969  -14.2693   21.4432 O   0  0  0  0  0  0  0  0  0  0  0  0
    8.7435  -15.6572   23.3280 C   0  0  2  0  0  0  0  0  0  0  0  0
    8.3302  -14.5663   24.2535 N   0  0  0  0  0  0  0  0  0  0  0  0
   10.1769  -15.5429   23.0496 C   0  0  0  0  0  0  0  0  0  0  0  0
   10.7159  -14.3918   22.9286 O   0  0  0  0  0  0  0  0  0  0  0  0
   11.0305  -16.6556   22.9043 N   0  0  0  0  0  0  0  0  0  0  0  0
   12.0851  -16.9598   23.8682 C   0  0  1  0  0  0  0  0  0  0  0  0
   11.4167  -17.6441   25.0308 C   0  0  0  0  0  0  0  0  0  0  0  0
   12.3502  -18.1268   26.0864 C   0  0  0  0  0  0  0  0  0  0  0  0
   11.7025  -18.7099   27.2742 C   0  0  0  0  0  0  0  0  0  0  0  0
   10.5945  -18.2987   27.6857 O   0  0  0  0  0  0  0  0  0  0  0  0
   13.0905  -17.8080   23.2065 C   0  0  0  0  0  0  0  0  0  0  0  0
   12.7515  -18.5768   22.1264 O   0  0  0  0  0  0  0  0  0  0  0  0
   12.2943  -19.7406   27.9873 O   0  0  0  0  0  0  0  0  0  0  0  0
   14.2627  -17.8188   23.6435 O   0  0  0  0  0  0  0  0  0  0  0  0
  2  1  1  1
  2  3  1  0
  3  4  1  0
  5  2  1  0
  6  5  2  0
  8  7  1  1
  8 10  1  0
  9  8  1  0
 10 11  1  1
 10 12  1  0
 11  5  1  0
 12 14  1  0
 13 12  2  0
 14 15  1  0
 15 16  1  1
 16 17  1  0
 17 18  1  0
 18 22  1  0
 19 18  2  0
 20 21  1  0
 20 15  1  0
 23 20  2  0
M  END
$$$$
