CTE.pdb
     RDKit          3D

 23 22  0  0  1  0  0  0  0  0999 V2000
    8.0297  -13.2529   16.7391 N   0  0  0  0  0  0  0  0  0  0  0  0
    8.4246  -14.4171   17.4649 C   0  0  1  0  0  0  0  0  0  0  0  0
    9.7883  -14.8833   16.9847 C   0  0  0  0  0  0  0  0  0  0  0  0
    9.7051  -15.8444   15.4748 S   0  0  0  0  0  0  0  0  0  0  0  0
    8.5771  -14.1593   18.9299 C   0  0  0  0  0  0  0  0  0  0  0  0
    8.2405  -13.0379   19.3903 O   0  0  0  0  0  0  0  0  0  0  0  0
    6.8850  -13.7432   20.6477 C   0  0  0  0  0  0  0  0  0  0  0  0
    7.4778  -14.8309   21.5292 C   0  0  1  0  0  0  0  0  0  0  0  0
    6.9112  -16.0510   21.0597 O   0  0  0  0  0  0  0  0  0  0  0  0
    8.9838  -14.9362   21.3058 C   0  0  2  0  0  0  0  0  0  0  0  0
    9.0813  -15.1113   19.8302 N   0  0  0  0  0  0  0  0  0  0  0  0
    9.5982  -16.0853   21.9744 C   0  0  0  0  0  0  0  0  0  0  0  0
    9.5711  -17.2367   21.4232 O   0  0  0  0  0  0  0  0  0  0  0  0
   10.2416  -16.0022   23.2262 N   0  0  0  0  0  0  0  0  0  0  0  0
   10.8864  -17.1554   23.8490 C   0  0  1  0  0  0  0  0  0  0  0  0
   11.5302  -16.6534   25.1140 C   0  0  0  0  0  0  0  0  0  0  0  0
   10.9206  -17.1746   26.3691 C   0  0  0  0  0  0  0  0  0  0  0  0
   11.5471  -16.6960   27.6136 C   0  0  0  0  0  0  0  0  0  0  0  0
   12.7404  -16.9541   27.8889 O   0  0  0  0  0  0  0  0  0  0  0  0
    9.8624  -18.1837   24.0978 C   0  0  0  0  0  0  0  0  0  0  0  0
   10.2201  -19.4895   24.2972 O   0  0  0  0  0  0  0  0  0  0  0  0
   10.8401  -15.9383   28.5339 O   0  0  0  0  0  0  0  0  0  0  0  0
    8.6568  -17.8504   24.1252 O   0  0  0  0  0  0  0  0  0  0  0  0
  2  1  1  6
  2  3  1  0
  3  4  1  0
  5  2  1  0
  6  5  2  0
  8  7  1  6
  8 10  1  0
  9  8  1  0
 10 11  1  6
 10 12  1  0
 11  5  1  0
 12 14  1  0
 13 12  2  0
 14 15  1  0
 15 16  1  1
 16 17  1  0
 17 18  1  0
 18 22  1  0
 19 18  2  0
 20 21  1  0
 20 15  1  0
 23 20  2  0
M  END
$$$$
