CTE.pdb
     RDKit          3D

 23 22  0  0  1  0  0  0  0  0999 V2000
    9.2724  -16.5935   15.8369 N   0  0  0  0  0  0  0  0  0  0  0  0
    8.3158  -16.5118   16.8935 C   0  0  1  0  0  0  0  0  0  0  0  0
    7.8094  -17.9023   17.2361 C   0  0  0  0  0  0  0  0  0  0  0  0
    7.1715  -18.7829   15.8119 S   0  0  0  0  0  0  0  0  0  0  0  0
    8.8993  -15.9698   18.1591 C   0  0  0  0  0  0  0  0  0  0  0  0
   10.1501  -15.9439   18.2922 O   0  0  0  0  0  0  0  0  0  0  0  0
    7.4721  -12.8643   19.7113 C   0  0  0  0  0  0  0  0  0  0  0  0
    7.7053  -13.8405   20.8532 C   0  0  1  0  0  0  0  0  0  0  0  0
    6.4649  -14.5183   21.0326 O   0  0  0  0  0  0  0  0  0  0  0  0
    8.7257  -14.9005   20.4482 C   0  0  2  0  0  0  0  0  0  0  0  0
    8.1186  -15.4824   19.2193 N   0  0  0  0  0  0  0  0  0  0  0  0
    8.9063  -15.9550   21.4486 C   0  0  0  0  0  0  0  0  0  0  0  0
    8.3543  -17.0946   21.2846 O   0  0  0  0  0  0  0  0  0  0  0  0
    9.6769  -15.7918   22.6180 N   0  0  0  0  0  0  0  0  0  0  0  0
    9.8430  -16.8626   23.5974 C   0  0  1  0  0  0  0  0  0  0  0  0
   10.7292  -17.8959   22.9544 C   0  0  0  0  0  0  0  0  0  0  0  0
   12.1768  -17.5455   22.9344 C   0  0  0  0  0  0  0  0  0  0  0  0
   13.0603  -18.5723   22.3553 C   0  0  0  0  0  0  0  0  0  0  0  0
   14.2672  -18.3414   22.1179 O   0  0  0  0  0  0  0  0  0  0  0  0
   10.4285  -16.2885   24.8205 C   0  0  0  0  0  0  0  0  0  0  0  0
   10.4995  -17.0256   25.9713 O   0  0  0  0  0  0  0  0  0  0  0  0
   12.5912  -19.8399   22.0483 O   0  0  0  0  0  0  0  0  0  0  0  0
   10.8621  -15.1152   24.7969 O   0  0  0  0  0  0  0  0  0  0  0  0
  2  1  1  6
  2  3  1  0
  3  4  1  0
  5  2  1  0
  6  5  2  0
  8  7  1  6
  8 10  1  0
  9  8  1  0
 10 11  1  6
 10 12  1  0
 11  5  1  0
 12 14  1  0
 13 12  2  0
 14 15  1  0
 15 16  1  6
 16 17  1  0
 17 18  1  0
 18 22  1  0
 19 18  2  0
 20 21  1  0
 20 15  1  0
 23 20  2  0
M  END
$$$$
