CTE.pdb
     RDKit          3D

 23 22  0  0  1  0  0  0  0  0999 V2000
    7.7564  -16.5374   17.6707 N   0  0  0  0  0  0  0  0  0  0  0  0
    8.8261  -15.6031   17.5261 C   0  0  1  0  0  0  0  0  0  0  0  0
    8.3662  -14.4218   16.6891 C   0  0  0  0  0  0  0  0  0  0  0  0
    7.0647  -13.4742   17.4757 S   0  0  0  0  0  0  0  0  0  0  0  0
    9.2684  -15.0262   18.8327 C   0  0  0  0  0  0  0  0  0  0  0  0
   10.2369  -14.2232   18.8485 O   0  0  0  0  0  0  0  0  0  0  0  0
    7.0502  -13.5233   21.4787 C   0  0  0  0  0  0  0  0  0  0  0  0
    7.9048  -14.5825   22.1564 C   0  0  1  0  0  0  0  0  0  0  0  0
    7.1430  -15.7847   22.0898 O   0  0  0  0  0  0  0  0  0  0  0  0
    9.1802  -14.8306   21.3562 C   0  0  2  0  0  0  0  0  0  0  0  0
    8.6551  -15.3351   20.0572 N   0  0  0  0  0  0  0  0  0  0  0  0
   10.0602  -15.8392   21.9507 C   0  0  0  0  0  0  0  0  0  0  0  0
   10.0533  -17.0365   21.5074 O   0  0  0  0  0  0  0  0  0  0  0  0
   10.9464  -15.5669   23.0131 N   0  0  0  0  0  0  0  0  0  0  0  0
   11.8298  -16.5872   23.5719 C   0  0  1  0  0  0  0  0  0  0  0  0
   13.2325  -16.0569   23.4390 C   0  0  0  0  0  0  0  0  0  0  0  0
   14.2839  -16.9288   24.0333 C   0  0  0  0  0  0  0  0  0  0  0  0
   15.6598  -16.4147   23.9193 C   0  0  0  0  0  0  0  0  0  0  0  0
   16.1859  -16.1891   22.8064 O   0  0  0  0  0  0  0  0  0  0  0  0
   11.4389  -16.8261   24.9712 C   0  0  0  0  0  0  0  0  0  0  0  0
   10.5970  -15.9618   25.6168 O   0  0  0  0  0  0  0  0  0  0  0  0
   16.4311  -16.1588   25.0421 O   0  0  0  0  0  0  0  0  0  0  0  0
   11.8861  -17.8315   25.5666 O   0  0  0  0  0  0  0  0  0  0  0  0
  2  1  1  1
  2  3  1  0
  3  4  1  0
  5  2  1  0
  6  5  2  0
  8  7  1  6
  8 10  1  0
  9  8  1  0
 10 11  1  6
 10 12  1  0
 11  5  1  0
 12 14  1  0
 13 12  2  0
 14 15  1  0
 15 16  1  1
 16 17  1  0
 17 18  1  0
 18 22  1  0
 19 18  2  0
 20 21  1  0
 20 15  1  0
 23 20  2  0
M  END
$$$$
