CTE.pdb
     RDKit          3D

 23 22  0  0  1  0  0  0  0  0999 V2000
    8.9819  -14.7782   14.6770 N   0  0  0  0  0  0  0  0  0  0  0  0
    8.8474  -15.6786   15.7767 C   0  0  1  0  0  0  0  0  0  0  0  0
    9.6042  -16.9628   15.4841 C   0  0  0  0  0  0  0  0  0  0  0  0
    9.5116  -18.1479   16.8249 S   0  0  0  0  0  0  0  0  0  0  0  0
    9.4383  -15.1387   17.0397 C   0  0  0  0  0  0  0  0  0  0  0  0
   10.6267  -14.7256   17.0294 O   0  0  0  0  0  0  0  0  0  0  0  0
    7.3734  -12.8235   19.1174 C   0  0  0  0  0  0  0  0  0  0  0  0
    8.0526  -13.7708   20.0934 C   0  0  1  0  0  0  0  0  0  0  0  0
    7.1243  -14.8315   20.3014 O   0  0  0  0  0  0  0  0  0  0  0  0
    9.2908  -14.3949   19.4561 C   0  0  2  0  0  0  0  0  0  0  0  0
    8.7315  -15.0667   18.2506 N   0  0  0  0  0  0  0  0  0  0  0  0
    9.9513  -15.3888   20.3052 C   0  0  0  0  0  0  0  0  0  0  0  0
    9.6830  -16.6294   20.1664 O   0  0  0  0  0  0  0  0  0  0  0  0
   10.8972  -15.0569   21.2968 N   0  0  0  0  0  0  0  0  0  0  0  0
   11.4797  -16.0597   22.1848 C   0  0  1  0  0  0  0  0  0  0  0  0
   12.8476  -15.5551   22.5600 C   0  0  0  0  0  0  0  0  0  0  0  0
   13.9445  -16.0095   21.6606 C   0  0  0  0  0  0  0  0  0  0  0  0
   15.2788  -15.4746   21.9828 C   0  0  0  0  0  0  0  0  0  0  0  0
   15.9430  -15.9075   22.9511 O   0  0  0  0  0  0  0  0  0  0  0  0
   10.5920  -16.2240   23.3480 C   0  0  0  0  0  0  0  0  0  0  0  0
   10.7637  -17.2701   24.2133 O   0  0  0  0  0  0  0  0  0  0  0  0
   15.8559  -14.4673   21.2256 O   0  0  0  0  0  0  0  0  0  0  0  0
    9.6753  -15.3941   23.5380 O   0  0  0  0  0  0  0  0  0  0  0  0
  2  1  1  6
  2  3  1  0
  3  4  1  0
  5  2  1  0
  6  5  2  0
  8  7  1  6
  8 10  1  0
  9  8  1  0
 10 11  1  6
 10 12  1  0
 11  5  1  0
 12 14  1  0
 13 12  2  0
 14 15  1  0
 15 16  1  1
 16 17  1  0
 17 18  1  0
 18 22  1  0
 19 18  2  0
 20 21  1  0
 20 15  1  0
 23 20  2  0
M  END
$$$$
