CTE.pdb
     RDKit          3D

 23 22  0  0  1  0  0  0  0  0999 V2000
    7.6810  -13.6484   16.5740 N   0  0  0  0  0  0  0  0  0  0  0  0
    8.2201  -14.7103   17.3613 C   0  0  1  0  0  0  0  0  0  0  0  0
    9.4957  -15.2286   16.7195 C   0  0  0  0  0  0  0  0  0  0  0  0
    9.1863  -16.2696   15.2943 S   0  0  0  0  0  0  0  0  0  0  0  0
    8.6085  -14.2692   18.7362 C   0  0  0  0  0  0  0  0  0  0  0  0
    8.4436  -13.0646   19.0597 O   0  0  0  0  0  0  0  0  0  0  0  0
    7.2431  -13.4799   20.5671 C   0  0  0  0  0  0  0  0  0  0  0  0
    7.9168  -14.4105   21.5628 C   0  0  1  0  0  0  0  0  0  0  0  0
    7.1880  -15.6329   21.4933 O   0  0  0  0  0  0  0  0  0  0  0  0
    9.3414  -14.7273   21.1166 C   0  0  2  0  0  0  0  0  0  0  0  0
    9.1534  -15.1357   19.6970 N   0  0  0  0  0  0  0  0  0  0  0  0
    9.9600  -15.8260   21.8618 C   0  0  0  0  0  0  0  0  0  0  0  0
    9.7851  -17.0335   21.4853 O   0  0  0  0  0  0  0  0  0  0  0  0
   10.7650  -15.6334   23.0032 N   0  0  0  0  0  0  0  0  0  0  0  0
   11.7517  -16.6196   23.4363 C   0  0  1  0  0  0  0  0  0  0  0  0
   13.0886  -16.1291   22.9478 C   0  0  0  0  0  0  0  0  0  0  0  0
   14.2603  -16.8481   23.5214 C   0  0  0  0  0  0  0  0  0  0  0  0
   15.5755  -16.3170   23.1232 C   0  0  0  0  0  0  0  0  0  0  0  0
   15.9355  -15.1584   23.4301 O   0  0  0  0  0  0  0  0  0  0  0  0
   11.6850  -16.7321   24.9029 C   0  0  0  0  0  0  0  0  0  0  0  0
   10.8907  -15.8886   25.6311 O   0  0  0  0  0  0  0  0  0  0  0  0
   16.4713  -17.0796   22.3905 O   0  0  0  0  0  0  0  0  0  0  0  0
   12.3647  -17.6103   25.4791 O   0  0  0  0  0  0  0  0  0  0  0  0
  2  1  1  6
  2  3  1  0
  3  4  1  0
  5  2  1  0
  6  5  2  0
  8  7  1  6
  8 10  1  0
  9  8  1  0
 10 11  1  6
 10 12  1  0
 11  5  1  0
 12 14  1  0
 13 12  2  0
 14 15  1  0
 15 16  1  1
 16 17  1  0
 17 18  1  0
 18 22  1  0
 19 18  2  0
 20 21  1  0
 20 15  1  0
 23 20  2  0
M  END
$$$$
