CTE.pdb
     RDKit          3D

 23 22  0  0  1  0  0  0  0  0999 V2000
    8.3660  -13.2344   16.7677 N   0  0  0  0  0  0  0  0  0  0  0  0
    8.3599  -14.4259   17.5541 C   0  0  1  0  0  0  0  0  0  0  0  0
    9.3861  -15.4050   17.0103 C   0  0  0  0  0  0  0  0  0  0  0  0
    8.8569  -16.1997   15.4941 S   0  0  0  0  0  0  0  0  0  0  0  0
    8.7486  -14.1798   18.9768 C   0  0  0  0  0  0  0  0  0  0  0  0
    8.7865  -12.9966   19.4030 O   0  0  0  0  0  0  0  0  0  0  0  0
    7.3025  -13.4578   20.9064 C   0  0  0  0  0  0  0  0  0  0  0  0
    7.8485  -14.5774   21.7781 C   0  0  1  0  0  0  0  0  0  0  0  0
    7.0162  -15.7036   21.5151 O   0  0  0  0  0  0  0  0  0  0  0  0
    9.2559  -14.9626   21.3313 C   0  0  2  0  0  0  0  0  0  0  0  0
    9.0775  -15.2088   19.8736 N   0  0  0  0  0  0  0  0  0  0  0  0
    9.7639  -16.1778   21.9719 C   0  0  0  0  0  0  0  0  0  0  0  0
    9.7289  -17.2923   21.3498 O   0  0  0  0  0  0  0  0  0  0  0  0
   10.3099  -16.1999   23.2717 N   0  0  0  0  0  0  0  0  0  0  0  0
   11.5657  -16.8801   23.5779 C   0  0  1  0  0  0  0  0  0  0  0  0
   12.6416  -16.1546   22.8147 C   0  0  0  0  0  0  0  0  0  0  0  0
   14.0244  -16.6422   23.0771 C   0  0  0  0  0  0  0  0  0  0  0  0
   15.0872  -15.9306   22.3461 C   0  0  0  0  0  0  0  0  0  0  0  0
   15.5802  -14.8647   22.7784 O   0  0  0  0  0  0  0  0  0  0  0  0
   11.7732  -16.8414   25.0351 C   0  0  0  0  0  0  0  0  0  0  0  0
   11.0700  -15.9649   25.8160 O   0  0  0  0  0  0  0  0  0  0  0  0
   15.5868  -16.4125   21.1465 O   0  0  0  0  0  0  0  0  0  0  0  0
   12.6024  -17.6212   25.5544 O   0  0  0  0  0  0  0  0  0  0  0  0
  2  1  1  6
  2  3  1  0
  3  4  1  0
  5  2  1  0
  6  5  2  0
  8  7  1  6
  8 10  1  0
  9  8  1  0
 10 11  1  6
 10 12  1  0
 11  5  1  0
 12 14  1  0
 13 12  2  0
 14 15  1  0
 15 16  1  6
 16 17  1  0
 17 18  1  0
 18 22  1  0
 19 18  2  0
 20 21  1  0
 20 15  1  0
 23 20  2  0
M  END
$$$$
