CTE.pdb
     RDKit          3D

 23 22  0  0  1  0  0  0  0  0999 V2000
    8.1631  -14.0472   18.1044 N   0  0  0  0  0  0  0  0  0  0  0  0
    9.0185  -14.1297   19.2445 C   0  0  1  0  0  0  0  0  0  0  0  0
    8.9462  -12.8346   20.0351 C   0  0  0  0  0  0  0  0  0  0  0  0
    9.6392  -11.4383   19.1513 S   0  0  0  0  0  0  0  0  0  0  0  0
    8.6094  -15.2085   20.1956 C   0  0  0  0  0  0  0  0  0  0  0  0
    7.5908  -15.8988   19.9335 O   0  0  0  0  0  0  0  0  0  0  0  0
    8.1439  -17.5095   20.0232 C   0  0  0  0  0  0  0  0  0  0  0  0
    9.0101  -17.8259   21.2320 C   0  0  1  0  0  0  0  0  0  0  0  0
   10.3442  -17.8929   20.7361 O   0  0  0  0  0  0  0  0  0  0  0  0
    8.9743  -16.6720   22.2300 C   0  0  2  0  0  0  0  0  0  0  0  0
    9.3080  -15.4965   21.3788 N   0  0  0  0  0  0  0  0  0  0  0  0
    9.9633  -16.7925   23.3035 C   0  0  0  0  0  0  0  0  0  0  0  0
   11.1952  -16.5523   23.0693 O   0  0  0  0  0  0  0  0  0  0  0  0
    9.6350  -17.1655   24.6230 N   0  0  0  0  0  0  0  0  0  0  0  0
   10.5214  -16.8963   25.7523 C   0  0  1  0  0  0  0  0  0  0  0  0
    9.8965  -15.7658   26.5257 C   0  0  0  0  0  0  0  0  0  0  0  0
   10.6049  -15.4113   27.7871 C   0  0  0  0  0  0  0  0  0  0  0  0
    9.9438  -14.3811   28.6068 C   0  0  0  0  0  0  0  0  0  0  0  0
    8.8336  -13.9004   28.2864 O   0  0  0  0  0  0  0  0  0  0  0  0
   10.6517  -18.1292   26.5466 C   0  0  0  0  0  0  0  0  0  0  0  0
   11.7671  -18.3537   27.3069 O   0  0  0  0  0  0  0  0  0  0  0  0
   10.5245  -13.8998   29.7696 O   0  0  0  0  0  0  0  0  0  0  0  0
    9.7285  -18.9731   26.5194 O   0  0  0  0  0  0  0  0  0  0  0  0
  2  1  1  6
  2  3  1  0
  3  4  1  0
  5  2  1  0
  6  5  2  0
  8  7  1  6
  8 10  1  0
  9  8  1  0
 10 11  1  6
 10 12  1  0
 11  5  1  0
 12 14  1  0
 13 12  2  0
 14 15  1  0
 15 16  1  1
 16 17  1  0
 17 18  1  0
 18 22  1  0
 19 18  2  0
 20 21  1  0
 20 15  1  0
 23 20  2  0
M  END
$$$$
