CTE.pdb
     RDKit          3D

 23 22  0  0  1  0  0  0  0  0999 V2000
    8.4087  -14.6796   13.5992 N   0  0  0  0  0  0  0  0  0  0  0  0
    8.3164  -15.4198   14.8165 C   0  0  1  0  0  0  0  0  0  0  0  0
    8.8636  -16.8214   14.6077 C   0  0  0  0  0  0  0  0  0  0  0  0
    8.6736  -17.8666   16.0507 S   0  0  0  0  0  0  0  0  0  0  0  0
    9.1353  -14.8248   15.9169 C   0  0  0  0  0  0  0  0  0  0  0  0
   10.2916  -14.4025   15.6570 O   0  0  0  0  0  0  0  0  0  0  0  0
    7.3041  -12.6670   18.4908 C   0  0  0  0  0  0  0  0  0  0  0  0
    8.3355  -13.5039   19.2305 C   0  0  1  0  0  0  0  0  0  0  0  0
    7.6453  -14.6804   19.6422 O   0  0  0  0  0  0  0  0  0  0  0  0
    9.4374  -13.9571   18.2769 C   0  0  2  0  0  0  0  0  0  0  0  0
    8.6792  -14.7100   17.2397 N   0  0  0  0  0  0  0  0  0  0  0  0
   10.4244  -14.8432   18.8980 C   0  0  0  0  0  0  0  0  0  0  0  0
   10.2979  -16.1101   18.8019 O   0  0  0  0  0  0  0  0  0  0  0  0
   11.5440  -14.3756   19.6162 N   0  0  0  0  0  0  0  0  0  0  0  0
   12.5518  -15.2800   20.1639 C   0  0  1  0  0  0  0  0  0  0  0  0
   13.8795  -14.5893   20.0005 C   0  0  0  0  0  0  0  0  0  0  0  0
   15.0431  -15.3467   20.5399 C   0  0  0  0  0  0  0  0  0  0  0  0
   16.3503  -14.6891   20.3691 C   0  0  0  0  0  0  0  0  0  0  0  0
   16.6195  -14.0201   19.3463 O   0  0  0  0  0  0  0  0  0  0  0  0
   12.2181  -15.5517   21.5720 C   0  0  0  0  0  0  0  0  0  0  0  0
   12.7546  -16.6313   22.2195 O   0  0  0  0  0  0  0  0  0  0  0  0
   17.3389  -14.7838   21.3358 O   0  0  0  0  0  0  0  0  0  0  0  0
   11.4357  -14.7824   22.1731 O   0  0  0  0  0  0  0  0  0  0  0  0
  2  1  1  6
  2  3  1  0
  3  4  1  0
  5  2  1  0
  6  5  2  0
  8  7  1  6
  8 10  1  0
  9  8  1  0
 10 11  1  6
 10 12  1  0
 11  5  1  0
 12 14  1  0
 13 12  2  0
 14 15  1  0
 15 16  1  1
 16 17  1  0
 17 18  1  0
 18 22  1  0
 19 18  2  0
 20 21  1  0
 20 15  1  0
 23 20  2  0
M  END
$$$$
