CTE.pdb
     RDKit          3D

 23 22  0  0  1  0  0  0  0  0999 V2000
    7.2411  -13.8957   17.8403 N   0  0  0  0  0  0  0  0  0  0  0  0
    8.0743  -13.6482   18.9729 C   0  0  1  0  0  0  0  0  0  0  0  0
    7.3577  -12.7278   19.9460 C   0  0  0  0  0  0  0  0  0  0  0  0
    8.3421  -12.3386   21.3917 S   0  0  0  0  0  0  0  0  0  0  0  0
    8.3837  -14.8914   19.7439 C   0  0  0  0  0  0  0  0  0  0  0  0
    7.5838  -15.8608   19.6851 O   0  0  0  0  0  0  0  0  0  0  0  0
    8.7973  -17.2911   19.1473 C   0  0  0  0  0  0  0  0  0  0  0  0
   10.0639  -17.2624   19.9877 C   0  0  1  0  0  0  0  0  0  0  0  0
   11.0584  -16.6717   19.1557 O   0  0  0  0  0  0  0  0  0  0  0  0
    9.8887  -16.3316   21.1843 C   0  0  2  0  0  0  0  0  0  0  0  0
    9.5314  -15.0379   20.5392 N   0  0  0  0  0  0  0  0  0  0  0  0
   11.1072  -16.1597   21.9786 C   0  0  0  0  0  0  0  0  0  0  0  0
   12.0139  -15.3478   21.5928 O   0  0  0  0  0  0  0  0  0  0  0  0
   11.3530  -16.8515   23.1824 N   0  0  0  0  0  0  0  0  0  0  0  0
   12.4528  -16.4952   24.0752 C   0  0  1  0  0  0  0  0  0  0  0  0
   12.0477  -16.9468   25.4531 C   0  0  0  0  0  0  0  0  0  0  0  0
   11.7852  -18.4079   25.5746 C   0  0  0  0  0  0  0  0  0  0  0  0
   11.3860  -18.8614   26.9182 C   0  0  0  0  0  0  0  0  0  0  0  0
   11.3386  -18.0737   27.8895 O   0  0  0  0  0  0  0  0  0  0  0  0
   13.6769  -17.1567   23.5935 C   0  0  0  0  0  0  0  0  0  0  0  0
   13.6105  -18.1363   22.6402 O   0  0  0  0  0  0  0  0  0  0  0  0
   11.0453  -20.1823   27.1638 O   0  0  0  0  0  0  0  0  0  0  0  0
   14.7829  -16.8129   24.0665 O   0  0  0  0  0  0  0  0  0  0  0  0
  2  1  1  6
  2  3  1  0
  3  4  1  0
  5  2  1  0
  6  5  2  0
  8  7  1  6
  8 10  1  0
  9  8  1  0
 10 11  1  6
 10 12  1  0
 11  5  1  0
 12 14  1  0
 13 12  2  0
 14 15  1  0
 15 16  1  1
 16 17  1  0
 17 18  1  0
 18 22  1  0
 19 18  2  0
 20 21  1  0
 20 15  1  0
 23 20  2  0
M  END
$$$$
