CTE.pdb
     RDKit          3D

 23 22  0  0  1  0  0  0  0  0999 V2000
    9.7311  -14.3760   18.6200 N   0  0  0  0  0  0  0  0  0  0  0  0
    9.2502  -13.3850   19.5282 C   0  0  1  0  0  0  0  0  0  0  0  0
    8.0484  -12.6772   18.9262 C   0  0  0  0  0  0  0  0  0  0  0  0
    8.3071  -12.1910   17.2211 S   0  0  0  0  0  0  0  0  0  0  0  0
    8.7720  -13.9690   20.8189 C   0  0  0  0  0  0  0  0  0  0  0  0
    8.2879  -13.2038   21.6925 O   0  0  0  0  0  0  0  0  0  0  0  0
    6.5735  -16.9905   20.9383 C   0  0  0  0  0  0  0  0  0  0  0  0
    7.6978  -17.2301   21.9333 C   0  0  1  0  0  0  0  0  0  0  0  0
    8.7133  -17.9112   21.2020 O   0  0  0  0  0  0  0  0  0  0  0  0
    8.3020  -15.9034   22.3844 C   0  0  2  0  0  0  0  0  0  0  0  0
    8.8344  -15.3404   21.1128 N   0  0  0  0  0  0  0  0  0  0  0  0
    9.3960  -16.0528   23.3467 C   0  0  0  0  0  0  0  0  0  0  0  0
   10.6076  -16.0534   22.9440 O   0  0  0  0  0  0  0  0  0  0  0  0
    9.1944  -16.1979   24.7347 N   0  0  0  0  0  0  0  0  0  0  0  0
   10.3016  -16.3991   25.6660 C   0  0  1  0  0  0  0  0  0  0  0  0
    9.9987  -15.5583   26.8775 C   0  0  0  0  0  0  0  0  0  0  0  0
   10.9403  -15.7489   28.0159 C   0  0  0  0  0  0  0  0  0  0  0  0
   10.5572  -15.0675   29.2645 C   0  0  0  0  0  0  0  0  0  0  0  0
    9.5081  -14.3901   29.3471 O   0  0  0  0  0  0  0  0  0  0  0  0
   10.3947  -17.8356   25.9757 C   0  0  0  0  0  0  0  0  0  0  0  0
    9.3489  -18.6758   25.7055 O   0  0  0  0  0  0  0  0  0  0  0  0
   11.3440  -15.1480   30.4027 O   0  0  0  0  0  0  0  0  0  0  0  0
   11.4439  -18.2821   26.4906 O   0  0  0  0  0  0  0  0  0  0  0  0
  2  1  1  6
  2  3  1  0
  3  4  1  0
  5  2  1  0
  6  5  2  0
  8  7  1  6
  8 10  1  0
  9  8  1  0
 10 11  1  6
 10 12  1  0
 11  5  1  0
 12 14  1  0
 13 12  2  0
 14 15  1  0
 15 16  1  1
 16 17  1  0
 17 18  1  0
 18 22  1  0
 19 18  2  0
 20 21  1  0
 20 15  1  0
 23 20  2  0
M  END
$$$$
