CTE.pdb
     RDKit          3D

 23 22  0  0  1  0  0  0  0  0999 V2000
    8.0022  -13.8798   17.3220 N   0  0  0  0  0  0  0  0  0  0  0  0
    8.8987  -13.6533   18.4097 C   0  0  1  0  0  0  0  0  0  0  0  0
    8.1262  -13.6410   19.7175 C   0  0  0  0  0  0  0  0  0  0  0  0
    6.9863  -12.2640   19.8414 S   0  0  0  0  0  0  0  0  0  0  0  0
    9.9188  -14.7373   18.5517 C   0  0  0  0  0  0  0  0  0  0  0  0
    9.8779  -15.7200   17.7671 O   0  0  0  0  0  0  0  0  0  0  0  0
   13.2613  -14.0730   18.0753 C   0  0  0  0  0  0  0  0  0  0  0  0
   12.6952  -15.4811   18.1662 C   0  0  1  0  0  0  0  0  0  0  0  0
   13.8239  -16.3487   18.1060 O   0  0  0  0  0  0  0  0  0  0  0  0
   12.0447  -15.7072   19.5280 C   0  0  2  0  0  0  0  0  0  0  0  0
   10.9315  -14.7183   19.5239 N   0  0  0  0  0  0  0  0  0  0  0  0
   12.9357  -15.4330   20.6577 C   0  0  0  0  0  0  0  0  0  0  0  0
   13.3864  -14.2533   20.8462 O   0  0  0  0  0  0  0  0  0  0  0  0
   13.3402  -16.4163   21.5836 N   0  0  0  0  0  0  0  0  0  0  0  0
   14.0995  -16.0877   22.7874 C   0  0  1  0  0  0  0  0  0  0  0  0
   13.8260  -17.1875   23.7785 C   0  0  0  0  0  0  0  0  0  0  0  0
   14.6344  -17.1122   25.0272 C   0  0  0  0  0  0  0  0  0  0  0  0
   14.3146  -18.1321   26.0411 C   0  0  0  0  0  0  0  0  0  0  0  0
   13.1778  -18.2088   26.5588 O   0  0  0  0  0  0  0  0  0  0  0  0
   15.5233  -15.9844   22.4265 C   0  0  0  0  0  0  0  0  0  0  0  0
   16.3925  -15.2801   23.2145 O   0  0  0  0  0  0  0  0  0  0  0  0
   15.2612  -19.0514   26.4652 O   0  0  0  0  0  0  0  0  0  0  0  0
   15.9321  -16.5493   21.3877 O   0  0  0  0  0  0  0  0  0  0  0  0
  2  1  1  6
  2  3  1  0
  3  4  1  0
  5  2  1  0
  6  5  2  0
  8  7  1  1
  8 10  1  0
  9  8  1  0
 10 11  1  1
 10 12  1  0
 11  5  1  0
 12 14  1  0
 13 12  2  0
 14 15  1  0
 15 16  1  1
 16 17  1  0
 17 18  1  0
 18 22  1  0
 19 18  2  0
 20 21  1  0
 20 15  1  0
 23 20  2  0
M  END
$$$$
