QNK.pdb
     RDKit          3D

 27 26  0  0  1  0  0  0  0  0999 V2000
   17.1075  -12.0414  -12.4555 N   0  0  0  0  0  0  0  0  0  0  0  0
   16.1823  -13.1180  -12.5582 C   0  0  0  0  0  0  0  0  0  0  0  0
   16.6364  -14.2155  -12.9601 O   0  0  0  0  0  0  0  0  0  0  0  0
   14.7900  -12.8661  -12.1915 C   0  0  0  0  0  0  0  0  0  0  0  0
   14.5181  -11.5121  -11.6350 C   0  0  0  0  0  0  0  0  0  0  0  0
   13.8501  -11.4696  -10.3066 C   0  0  2  0  0  0  0  0  0  0  0  0
   12.5714  -12.1350  -10.2743 N   0  0  0  0  0  0  0  0  0  0  0  0
   13.7373  -10.0344   -9.9076 C   0  0  0  0  0  0  0  0  0  0  0  0
   12.6838   -9.6484   -9.3418 O   0  0  0  0  0  0  0  0  0  0  0  0
   14.6687   -5.0294   -8.5813 N   0  0  0  0  0  0  0  0  0  0  0  0
   14.5287   -6.1755   -7.7563 C   0  0  0  0  0  0  0  0  0  0  0  0
   14.3921   -5.9748   -6.5217 O   0  0  0  0  0  0  0  0  0  0  0  0
   14.5324   -7.5539   -8.2383 C   0  0  0  0  0  0  0  0  0  0  0  0
   14.6834   -7.7046   -9.7114 C   0  0  2  0  0  0  0  0  0  0  0  0
   14.7685   -9.0827  -10.1387 N   0  0  0  0  0  0  0  0  0  0  0  0
   15.7877   -6.8826  -10.2721 C   0  0  0  0  0  0  0  0  0  0  0  0
   16.9478   -6.9857   -9.7980 O   0  0  0  0  0  0  0  0  0  0  0  0
   15.5987   -5.9686  -11.3358 N   0  0  0  0  0  0  0  0  0  0  0  0
   16.7752   -5.3020  -11.9556 C   0  0  1  0  0  0  0  0  0  0  0  0
   16.7005   -5.4580  -13.4420 C   0  0  0  0  0  0  0  0  0  0  0  0
   16.7913   -6.8996  -13.8356 C   0  0  0  0  0  0  0  0  0  0  0  0
   16.7026   -7.0659  -15.3522 C   0  0  0  0  0  0  0  0  0  0  0  0
   16.7918   -8.4994  -15.7552 C   0  0  0  0  0  0  0  0  0  0  0  0
   16.7026   -8.7050  -17.1851 N   0  0  0  0  0  0  0  0  0  0  0  0
   16.8563   -3.9201  -11.5054 C   0  0  0  0  0  0  0  0  0  0  0  0
   17.9006   -3.2408  -11.7928 O   0  0  0  0  0  0  0  0  0  0  0  0
   15.9019   -3.2420  -10.7850 O   0  0  0  0  0  0  0  0  0  0  0  0
  2  1  1  0
  3  2  2  0
  4  2  1  0
  5  4  1  0
  6  5  1  0
  6  7  1  6
  8  9  2  0
  8  6  1  0
 10 11  1  0
 11 13  1  0
 12 11  2  0
 14 13  1  1
 14 15  1  0
 15  8  1  0
 16 14  1  0
 16 18  1  0
 17 16  2  0
 18 19  1  0
 19 25  1  0
 20 21  1  0
 19 20  1  6
 22 21  1  0
 23 22  1  0
 24 23  1  0
 25 26  2  0
 25 27  1  0
M  END
$$$$
