QNK.pdb
     RDKit          3D

 27 26  0  0  1  0  0  0  0  0999 V2000
   27.7035  -21.0042  -15.4341 N   0  0  0  0  0  0  0  0  0  0  0  0
   28.0501  -21.4249  -16.7489 C   0  0  0  0  0  0  0  0  0  0  0  0
   28.8264  -22.4052  -16.8410 O   0  0  0  0  0  0  0  0  0  0  0  0
   27.4816  -20.6916  -17.8782 C   0  0  0  0  0  0  0  0  0  0  0  0
   26.5251  -19.6105  -17.5128 C   0  0  0  0  0  0  0  0  0  0  0  0
   25.5658  -19.9235  -16.4199 C   0  0  2  0  0  0  0  0  0  0  0  0
   24.7767  -21.1066  -16.6566 N   0  0  0  0  0  0  0  0  0  0  0  0
   24.7079  -18.7173  -16.2178 C   0  0  0  0  0  0  0  0  0  0  0  0
   25.2325  -17.5808  -16.3282 O   0  0  0  0  0  0  0  0  0  0  0  0
   24.5197  -15.2896  -17.7707 N   0  0  0  0  0  0  0  0  0  0  0  0
   23.3963  -15.6087  -16.9647 C   0  0  0  0  0  0  0  0  0  0  0  0
   23.1000  -14.7935  -16.0531 O   0  0  0  0  0  0  0  0  0  0  0  0
   22.5721  -16.8040  -17.1205 C   0  0  0  0  0  0  0  0  0  0  0  0
   22.4472  -17.6453  -15.8989 C   0  0  2  0  0  0  0  0  0  0  0  0
   23.3226  -18.7954  -15.9057 N   0  0  0  0  0  0  0  0  0  0  0  0
   21.0426  -18.0213  -15.5902 C   0  0  0  0  0  0  0  0  0  0  0  0
   20.4832  -18.9406  -16.2407 O   0  0  0  0  0  0  0  0  0  0  0  0
   20.2835  -17.3847  -14.5797 N   0  0  0  0  0  0  0  0  0  0  0  0
   18.8892  -17.8286  -14.3123 C   0  0  1  0  0  0  0  0  0  0  0  0
   18.6387  -17.7963  -12.8373 C   0  0  0  0  0  0  0  0  0  0  0  0
   19.2861  -18.9625  -12.1573 C   0  0  0  0  0  0  0  0  0  0  0  0
   18.3072  -20.1258  -12.0019 C   0  0  0  0  0  0  0  0  0  0  0  0
   18.9170  -21.2623  -11.2524 C   0  0  0  0  0  0  0  0  0  0  0  0
   18.0042  -22.3625  -11.0266 N   0  0  0  0  0  0  0  0  0  0  0  0
   17.9560  -17.0289  -15.0923 C   0  0  0  0  0  0  0  0  0  0  0  0
   18.3397  -15.8908  -15.5307 O   0  0  0  0  0  0  0  0  0  0  0  0
   16.6674  -17.3748  -15.4230 O   0  0  0  0  0  0  0  0  0  0  0  0
  2  1  1  0
  3  2  2  0
  4  2  1  0
  5  4  1  0
  6  5  1  0
  6  7  1  6
  8  9  2  0
  8  6  1  0
 10 11  1  0
 11 13  1  0
 12 11  2  0
 14 13  1  6
 14 15  1  0
 15  8  1  0
 16 14  1  0
 16 18  1  0
 17 16  2  0
 18 19  1  0
 19 25  1  0
 20 21  1  0
 19 20  1  1
 22 21  1  0
 23 22  1  0
 24 23  1  0
 25 26  2  0
 25 27  1  0
M  END
$$$$
