QNK.pdb
     RDKit          3D

 27 26  0  0  1  0  0  0  0  0999 V2000
   24.1074  -20.3030  -10.6898 N   0  0  0  0  0  0  0  0  0  0  0  0
   25.0871  -20.7288   -9.7493 C   0  0  0  0  0  0  0  0  0  0  0  0
   24.6635  -21.2551   -8.6930 O   0  0  0  0  0  0  0  0  0  0  0  0
   26.4955  -20.5231  -10.0818 C   0  0  0  0  0  0  0  0  0  0  0  0
   26.7452  -19.8532  -11.3879 C   0  0  0  0  0  0  0  0  0  0  0  0
   26.1636  -20.5137  -12.5871 C   0  0  2  0  0  0  0  0  0  0  0  0
   26.7137  -21.8182  -12.8597 N   0  0  0  0  0  0  0  0  0  0  0  0
   26.3447  -19.5843  -13.7426 C   0  0  0  0  0  0  0  0  0  0  0  0
   25.7543  -18.4753  -13.7207 O   0  0  0  0  0  0  0  0  0  0  0  0
   29.3833  -16.8214  -17.5710 N   0  0  0  0  0  0  0  0  0  0  0  0
   28.8664  -18.1341  -17.7232 C   0  0  0  0  0  0  0  0  0  0  0  0
   28.5777  -18.5002  -18.8919 O   0  0  0  0  0  0  0  0  0  0  0  0
   28.6501  -19.0760  -16.6284 C   0  0  0  0  0  0  0  0  0  0  0  0
   27.2980  -19.0197  -16.0085 C   0  0  2  0  0  0  0  0  0  0  0  0
   27.1557  -19.8966  -14.8683 N   0  0  0  0  0  0  0  0  0  0  0  0
   26.1975  -19.2061  -16.9902 C   0  0  0  0  0  0  0  0  0  0  0  0
   25.5814  -20.3012  -17.0396 O   0  0  0  0  0  0  0  0  0  0  0  0
   25.7968  -18.1931  -17.8935 N   0  0  0  0  0  0  0  0  0  0  0  0
   24.3534  -18.0036  -18.1988 C   0  0  1  0  0  0  0  0  0  0  0  0
   23.5776  -18.0020  -16.9193 C   0  0  0  0  0  0  0  0  0  0  0  0
   22.6714  -19.1911  -16.8395 C   0  0  0  0  0  0  0  0  0  0  0  0
   21.2736  -18.7912  -16.3684 C   0  0  0  0  0  0  0  0  0  0  0  0
   20.3376  -19.9526  -16.3729 C   0  0  0  0  0  0  0  0  0  0  0  0
   18.9725  -19.5967  -16.0501 N   0  0  0  0  0  0  0  0  0  0  0  0
   24.1705  -16.8071  -19.0074 C   0  0  0  0  0  0  0  0  0  0  0  0
   24.7018  -15.7128  -18.6138 O   0  0  0  0  0  0  0  0  0  0  0  0
   23.4700  -16.7219  -20.1871 O   0  0  0  0  0  0  0  0  0  0  0  0
  2  1  1  0
  3  2  2  0
  4  2  1  0
  5  4  1  0
  6  5  1  0
  6  7  1  6
  8  9  2  0
  8  6  1  0
 10 11  1  0
 11 13  1  0
 12 11  2  0
 14 13  1  6
 14 15  1  0
 15  8  1  0
 16 14  1  0
 16 18  1  0
 17 16  2  0
 18 19  1  0
 19 25  1  0
 20 21  1  0
 19 20  1  1
 22 21  1  0
 23 22  1  0
 24 23  1  0
 25 26  2  0
 25 27  1  0
M  END
$$$$
