QNK.pdb
     RDKit          3D

 27 26  0  0  1  0  0  0  0  0999 V2000
   26.6980  -13.1047  -15.8762 N   0  0  0  0  0  0  0  0  0  0  0  0
   27.9782  -12.5218  -16.0929 C   0  0  0  0  0  0  0  0  0  0  0  0
   28.8614  -13.2662  -16.5809 O   0  0  0  0  0  0  0  0  0  0  0  0
   28.1642  -11.1170  -15.7350 C   0  0  0  0  0  0  0  0  0  0  0  0
   26.9294  -10.4060  -15.3030 C   0  0  0  0  0  0  0  0  0  0  0  0
   25.8737  -10.2349  -16.3369 C   0  0  2  0  0  0  0  0  0  0  0  0
   26.3675   -9.7466  -17.6004 N   0  0  0  0  0  0  0  0  0  0  0  0
   24.8288   -9.3332  -15.7653 C   0  0  0  0  0  0  0  0  0  0  0  0
   24.2927   -9.6499  -14.6739 O   0  0  0  0  0  0  0  0  0  0  0  0
   21.3139   -5.4001  -15.0339 N   0  0  0  0  0  0  0  0  0  0  0  0
   22.5525   -4.9614  -15.5696 C   0  0  0  0  0  0  0  0  0  0  0  0
   22.7606   -3.7204  -15.5795 O   0  0  0  0  0  0  0  0  0  0  0  0
   23.5878   -5.8421  -16.1031 C   0  0  0  0  0  0  0  0  0  0  0  0
   23.3474   -7.2957  -15.8910 C   0  0  2  0  0  0  0  0  0  0  0  0
   24.4118   -8.1307  -16.3998 N   0  0  0  0  0  0  0  0  0  0  0  0
   22.0146   -7.7434  -16.3734 C   0  0  0  0  0  0  0  0  0  0  0  0
   21.7608   -7.7395  -17.6050 O   0  0  0  0  0  0  0  0  0  0  0  0
   20.9920   -8.1841  -15.5000 N   0  0  0  0  0  0  0  0  0  0  0  0
   19.6733   -8.5938  -16.0529 C   0  0  1  0  0  0  0  0  0  0  0  0
   19.2657   -9.8948  -15.4362 C   0  0  0  0  0  0  0  0  0  0  0  0
   17.9425  -10.3500  -15.9686 C   0  0  0  0  0  0  0  0  0  0  0  0
   17.5096  -11.6662  -15.3237 C   0  0  0  0  0  0  0  0  0  0  0  0
   16.2884  -12.2230  -15.9747 C   0  0  0  0  0  0  0  0  0  0  0  0
   15.7677  -13.4015  -15.3155 N   0  0  0  0  0  0  0  0  0  0  0  0
   18.7056   -7.5211  -15.8739 C   0  0  0  0  0  0  0  0  0  0  0  0
   17.9139   -7.2410  -16.8379 O   0  0  0  0  0  0  0  0  0  0  0  0
   18.5417   -6.7537  -14.7453 O   0  0  0  0  0  0  0  0  0  0  0  0
  2  1  1  0
  3  2  2  0
  4  2  1  0
  5  4  1  0
  6  5  1  0
  6  7  1  6
  8  9  2  0
  8  6  1  0
 10 11  1  0
 11 13  1  0
 12 11  2  0
 14 13  1  6
 14 15  1  0
 15  8  1  0
 16 14  1  0
 16 18  1  0
 17 16  2  0
 18 19  1  0
 19 25  1  0
 20 21  1  0
 19 20  1  1
 22 21  1  0
 23 22  1  0
 24 23  1  0
 25 26  2  0
 25 27  1  0
M  END
$$$$
