QNK.pdb
     RDKit          3D

 27 26  0  0  1  0  0  0  0  0999 V2000
   28.5356  -21.1420  -16.5993 N   0  0  0  0  0  0  0  0  0  0  0  0
   28.3629  -19.7615  -16.2987 C   0  0  0  0  0  0  0  0  0  0  0  0
   29.1763  -18.9643  -16.8229 O   0  0  0  0  0  0  0  0  0  0  0  0
   27.2639  -19.3824  -15.4128 C   0  0  0  0  0  0  0  0  0  0  0  0
   26.4044  -20.5085  -14.9543 C   0  0  0  0  0  0  0  0  0  0  0  0
   25.2890  -20.1526  -14.0368 C   0  0  2  0  0  0  0  0  0  0  0  0
   25.5511  -20.4590  -12.6526 N   0  0  0  0  0  0  0  0  0  0  0  0
   24.0619  -20.8444  -14.5340 C   0  0  0  0  0  0  0  0  0  0  0  0
   24.0860  -22.0942  -14.6618 O   0  0  0  0  0  0  0  0  0  0  0  0
   19.3270  -20.9394  -12.4819 N   0  0  0  0  0  0  0  0  0  0  0  0
   20.5775  -20.5836  -11.9131 C   0  0  0  0  0  0  0  0  0  0  0  0
   20.6469  -20.5662  -10.6568 O   0  0  0  0  0  0  0  0  0  0  0  0
   21.7730  -20.2409  -12.6783 C   0  0  0  0  0  0  0  0  0  0  0  0
   21.6213  -20.3321  -14.1562 C   0  0  2  0  0  0  0  0  0  0  0  0
   22.8653  -20.1532  -14.8700 N   0  0  0  0  0  0  0  0  0  0  0  0
   20.5471  -19.4530  -14.6880 C   0  0  0  0  0  0  0  0  0  0  0  0
   19.3995  -19.4865  -14.1753 O   0  0  0  0  0  0  0  0  0  0  0  0
   20.7520  -18.5593  -15.7660 N   0  0  0  0  0  0  0  0  0  0  0  0
   19.6216  -17.7311  -16.2648 C   0  0  1  0  0  0  0  0  0  0  0  0
   20.1677  -16.5267  -16.9651 C   0  0  0  0  0  0  0  0  0  0  0  0
   20.1936  -15.3406  -16.0518 C   0  0  0  0  0  0  0  0  0  0  0  0
   20.7019  -14.0949  -16.7767 C   0  0  0  0  0  0  0  0  0  0  0  0
   20.9669  -12.9751  -15.8277 C   0  0  0  0  0  0  0  0  0  0  0  0
   21.3684  -11.7469  -16.4796 N   0  0  0  0  0  0  0  0  0  0  0  0
   18.7344  -18.5445  -17.0835 C   0  0  0  0  0  0  0  0  0  0  0  0
   19.2370  -19.4941  -17.7765 O   0  0  0  0  0  0  0  0  0  0  0  0
   17.3718  -18.4019  -17.1947 O   0  0  0  0  0  0  0  0  0  0  0  0
  2  1  1  0
  3  2  2  0
  4  2  1  0
  5  4  1  0
  6  5  1  0
  6  7  1  1
  8  9  2  0
  8  6  1  0
 10 11  1  0
 11 13  1  0
 12 11  2  0
 14 13  1  1
 14 15  1  0
 15  8  1  0
 16 14  1  0
 16 18  1  0
 17 16  2  0
 18 19  1  0
 19 25  1  0
 20 21  1  0
 19 20  1  6
 22 21  1  0
 23 22  1  0
 24 23  1  0
 25 26  2  0
 25 27  1  0
M  END
$$$$
