QNK.pdb
     RDKit          3D

 27 26  0  0  1  0  0  0  0  0999 V2000
   17.5741  -13.2922  -14.1122 N   0  0  0  0  0  0  0  0  0  0  0  0
   16.8554  -13.1437  -15.3316 C   0  0  0  0  0  0  0  0  0  0  0  0
   16.6324  -14.1900  -15.9857 O   0  0  0  0  0  0  0  0  0  0  0  0
   16.4365  -11.7996  -15.7242 C   0  0  0  0  0  0  0  0  0  0  0  0
   16.8455  -10.7127  -14.7923 C   0  0  0  0  0  0  0  0  0  0  0  0
   15.8000   -9.7108  -14.4521 C   0  0  2  0  0  0  0  0  0  0  0  0
   14.8941   -9.4211  -15.5357 N   0  0  0  0  0  0  0  0  0  0  0  0
   16.4980   -8.4809  -13.9705 C   0  0  0  0  0  0  0  0  0  0  0  0
   16.5725   -7.4910  -14.7408 O   0  0  0  0  0  0  0  0  0  0  0  0
   19.1601   -5.7409   -9.0953 N   0  0  0  0  0  0  0  0  0  0  0  0
   18.2968   -5.7943  -10.2204 C   0  0  0  0  0  0  0  0  0  0  0  0
   18.0632   -4.7078  -10.8105 O   0  0  0  0  0  0  0  0  0  0  0  0
   17.6700   -7.0099  -10.7320 C   0  0  0  0  0  0  0  0  0  0  0  0
   17.7561   -7.1887  -12.2072 C   0  0  2  0  0  0  0  0  0  0  0  0
   17.0832   -8.3780  -12.6784 N   0  0  0  0  0  0  0  0  0  0  0  0
   19.1461   -7.0975  -12.7261 C   0  0  0  0  0  0  0  0  0  0  0  0
   20.1142   -7.3836  -11.9763 O   0  0  0  0  0  0  0  0  0  0  0  0
   19.4450   -6.6964  -14.0498 N   0  0  0  0  0  0  0  0  0  0  0  0
   20.8298   -6.2832  -14.4022 C   0  0  1  0  0  0  0  0  0  0  0  0
   20.8020   -5.5244  -15.6916 C   0  0  0  0  0  0  0  0  0  0  0  0
   22.1836   -5.1281  -16.1111 C   0  0  0  0  0  0  0  0  0  0  0  0
   22.1667   -4.4012  -17.4553 C   0  0  0  0  0  0  0  0  0  0  0  0
   23.5468   -4.1258  -17.9499 C   0  0  0  0  0  0  0  0  0  0  0  0
   23.5788   -3.4304  -19.2187 N   0  0  0  0  0  0  0  0  0  0  0  0
   21.4263   -5.5520  -13.2939 C   0  0  0  0  0  0  0  0  0  0  0  0
   20.9435   -4.4103  -12.9806 O   0  0  0  0  0  0  0  0  0  0  0  0
   22.4833   -5.9683  -12.5199 O   0  0  0  0  0  0  0  0  0  0  0  0
  2  1  1  0
  3  2  2  0
  4  2  1  0
  5  4  1  0
  6  5  1  0
  6  7  1  6
  8  9  2  0
  8  6  1  0
 10 11  1  0
 11 13  1  0
 12 11  2  0
 14 13  1  1
 14 15  1  0
 15  8  1  0
 16 14  1  0
 16 18  1  0
 17 16  2  0
 18 19  1  0
 19 25  1  0
 20 21  1  0
 19 20  1  6
 22 21  1  0
 23 22  1  0
 24 23  1  0
 25 26  2  0
 25 27  1  0
M  END
$$$$
