LSM.pdb
     RDKit          3D

 23 22  0  0  1  0  0  0  0  0999 V2000
   21.7742  -20.3290  -16.0338 C   0  0  0  0  0  0  0  0  0  0  0  0
   22.1188  -21.6536  -16.6198 C   0  0  2  0  0  0  0  0  0  0  0  0
   21.0658  -22.6865  -16.1950 C   0  0  0  0  0  0  0  0  0  0  0  0
   23.4408  -22.2197  -16.2516 C   0  0  0  0  0  0  0  0  0  0  0  0
   24.6426  -21.3547  -16.4464 C   0  0  2  0  0  0  0  0  0  0  0  0
   25.1991  -21.8235  -17.7493 N   0  0  0  0  0  0  0  0  0  0  0  0
   25.6355  -21.5075  -15.3984 C   0  0  0  0  0  0  0  0  0  0  0  0
   26.2547  -22.6008  -15.1978 O   0  0  0  0  0  0  0  0  0  0  0  0
   27.4177  -18.2830  -13.7629 O   0  0  0  0  0  0  0  0  0  0  0  0
   28.0450  -19.5050  -13.7125 C   0  0  0  0  0  0  0  0  0  0  0  0
   27.0386  -20.6420  -13.4814 C   0  0  2  0  0  0  0  0  0  0  0  0
   26.0130  -20.4594  -14.4977 N   0  0  0  0  0  0  0  0  0  0  0  0
   26.3805  -20.4862  -12.1589 C   0  0  0  0  0  0  0  0  0  0  0  0
   25.5225  -19.5864  -11.9247 O   0  0  0  0  0  0  0  0  0  0  0  0
   29.0025  -19.8798   -6.3637 C   0  0  0  0  0  0  0  0  0  0  0  0
   27.5789  -18.8656   -6.7443 S   0  0  0  0  0  0  0  0  0  0  0  0
   26.2885  -19.8151   -7.6465 C   0  0  0  0  0  0  0  0  0  0  0  0
   26.8776  -20.2146   -8.9498 C   0  0  0  0  0  0  0  0  0  0  0  0
   26.0630  -21.1751   -9.7540 C   0  0  2  0  0  0  0  0  0  0  0  0
   26.6772  -21.3515  -11.0549 N   0  0  0  0  0  0  0  0  0  0  0  0
   24.6654  -20.8061   -9.9297 C   0  0  0  0  0  0  0  0  0  0  0  0
   23.8788  -20.1652   -8.9813 O   0  0  0  0  0  0  0  0  0  0  0  0
   24.0937  -21.0743  -11.0146 O   0  0  0  0  0  0  0  0  0  0  0  0
  2  1  1  1
  2  3  1  0
  4  2  1  0
  5  4  1  0
  5  6  1  6
  7  5  1  0
  8  7  2  0
  9 10  1  0
 11 10  1  6
 11 12  1  0
 12  7  1  0
 13 11  1  0
 13 20  1  0
 14 13  2  0
 16 17  1  0
 16 15  1  0
 19 18  1  6
 18 17  1  0
 19 21  1  0
 20 19  1  0
 21 23  2  0
 21 22  1  0
M  END
$$$$
