LSM.pdb
     RDKit          3D

 23 22  0  0  1  0  0  0  0  0999 V2000
   21.8813  -17.8226  -14.5279 C   0  0  0  0  0  0  0  0  0  0  0  0
   21.0122  -18.8502  -13.8911 C   0  0  2  0  0  0  0  0  0  0  0  0
   19.9429  -18.1533  -13.0383 C   0  0  0  0  0  0  0  0  0  0  0  0
   21.6851  -19.8342  -13.0066 C   0  0  0  0  0  0  0  0  0  0  0  0
   23.0014  -20.3800  -13.4537 C   0  0  2  0  0  0  0  0  0  0  0  0
   22.6295  -21.3371  -14.5367 N   0  0  0  0  0  0  0  0  0  0  0  0
   23.7214  -21.0752  -12.4020 C   0  0  0  0  0  0  0  0  0  0  0  0
   23.2775  -22.1349  -11.8552 O   0  0  0  0  0  0  0  0  0  0  0  0
   27.6205  -20.5539  -12.0981 O   0  0  0  0  0  0  0  0  0  0  0  0
   27.0920  -21.6960  -11.5452 C   0  0  0  0  0  0  0  0  0  0  0  0
   25.7248  -21.4248  -10.8999 C   0  0  2  0  0  0  0  0  0  0  0  0
   24.9849  -20.6455  -11.8813 N   0  0  0  0  0  0  0  0  0  0  0  0
   25.8850  -20.5744   -9.6926 C   0  0  0  0  0  0  0  0  0  0  0  0
   25.7410  -19.3177   -9.7183 O   0  0  0  0  0  0  0  0  0  0  0  0
   28.5235  -18.1506   -3.7880 C   0  0  0  0  0  0  0  0  0  0  0  0
   27.3766  -19.3259   -4.4974 S   0  0  0  0  0  0  0  0  0  0  0  0
   28.2500  -20.7472   -5.2707 C   0  0  0  0  0  0  0  0  0  0  0  0
   27.3352  -21.3109   -6.2958 C   0  0  0  0  0  0  0  0  0  0  0  0
   27.0599  -20.4239   -7.4664 C   0  0  2  0  0  0  0  0  0  0  0  0
   26.2151  -21.1269   -8.4114 N   0  0  0  0  0  0  0  0  0  0  0  0
   28.2410  -19.9259   -8.1573 C   0  0  0  0  0  0  0  0  0  0  0  0
   28.7604  -18.6434   -8.0374 O   0  0  0  0  0  0  0  0  0  0  0  0
   28.8648  -20.6917   -8.9322 O   0  0  0  0  0  0  0  0  0  0  0  0
  2  1  1  1
  2  3  1  0
  4  2  1  0
  5  4  1  0
  5  6  1  6
  7  5  1  0
  8  7  2  0
  9 10  1  0
 11 10  1  6
 11 12  1  0
 12  7  1  0
 13 11  1  0
 13 20  1  0
 14 13  2  0
 16 17  1  0
 16 15  1  0
 19 18  1  1
 18 17  1  0
 19 21  1  0
 20 19  1  0
 21 23  2  0
 21 22  1  0
M  END
$$$$
