LSM.pdb
     RDKit          3D

 23 22  0  0  1  0  0  0  0  0999 V2000
   28.2332  -18.0720  -16.7265 C   0  0  0  0  0  0  0  0  0  0  0  0
   27.6914  -16.6945  -16.5661 C   0  0  2  0  0  0  0  0  0  0  0  0
   28.7659  -15.7959  -15.9382 C   0  0  0  0  0  0  0  0  0  0  0  0
   26.4757  -16.5521  -15.7263 C   0  0  0  0  0  0  0  0  0  0  0  0
   25.6237  -17.7631  -15.5311 C   0  0  2  0  0  0  0  0  0  0  0  0
   24.4619  -17.5186  -16.4353 N   0  0  0  0  0  0  0  0  0  0  0  0
   25.1632  -17.9264  -14.1639 C   0  0  0  0  0  0  0  0  0  0  0  0
   24.6494  -16.9721  -13.4973 O   0  0  0  0  0  0  0  0  0  0  0  0
   23.7749  -21.4326  -12.7363 O   0  0  0  0  0  0  0  0  0  0  0  0
   23.4481  -20.1861  -12.2578 C   0  0  0  0  0  0  0  0  0  0  0  0
   24.6949  -19.3038  -12.0961 C   0  0  2  0  0  0  0  0  0  0  0  0
   25.2395  -19.1590  -13.4380 N   0  0  0  0  0  0  0  0  0  0  0  0
   25.7187  -20.0040  -11.2788 C   0  0  0  0  0  0  0  0  0  0  0  0
   26.4471  -20.9289  -11.7422 O   0  0  0  0  0  0  0  0  0  0  0  0
   27.2186  -17.8814   -5.4646 C   0  0  0  0  0  0  0  0  0  0  0  0
   28.3383  -19.2766   -5.4658 S   0  0  0  0  0  0  0  0  0  0  0  0
   27.9462  -20.4626   -6.8151 C   0  0  0  0  0  0  0  0  0  0  0  0
   27.1839  -19.7104   -7.8439 C   0  0  0  0  0  0  0  0  0  0  0  0
   26.7699  -20.5024   -9.0415 C   0  0  2  0  0  0  0  0  0  0  0  0
   25.9490  -19.6745   -9.9025 N   0  0  0  0  0  0  0  0  0  0  0  0
   26.0619  -21.7410   -8.7502 C   0  0  0  0  0  0  0  0  0  0  0  0
   26.6609  -22.9697   -8.5047 O   0  0  0  0  0  0  0  0  0  0  0  0
   24.8072  -21.7334   -8.7101 O   0  0  0  0  0  0  0  0  0  0  0  0
  2  1  1  1
  2  3  1  0
  4  2  1  0
  5  4  1  0
  5  6  1  6
  7  5  1  0
  8  7  2  0
  9 10  1  0
 11 10  1  6
 11 12  1  0
 12  7  1  0
 13 11  1  0
 13 20  1  0
 14 13  2  0
 16 17  1  0
 16 15  1  0
 19 18  1  1
 18 17  1  0
 19 21  1  0
 20 19  1  0
 21 23  2  0
 21 22  1  0
M  END
$$$$
