LSM.pdb
     RDKit          3D

 23 22  0  0  1  0  0  0  0  0999 V2000
   18.6764  -14.2296  -15.5432 C   0  0  0  0  0  0  0  0  0  0  0  0
   19.1116  -13.4374  -16.7262 C   0  0  2  0  0  0  0  0  0  0  0  0
   20.5507  -13.8239  -17.0950 C   0  0  0  0  0  0  0  0  0  0  0  0
   19.0934  -11.9603  -16.5801 C   0  0  0  0  0  0  0  0  0  0  0  0
   17.8078  -11.3212  -16.1689 C   0  0  2  0  0  0  0  0  0  0  0  0
   16.9605  -11.4289  -17.3927 N   0  0  0  0  0  0  0  0  0  0  0  0
   17.9555   -9.9281  -15.7880 C   0  0  0  0  0  0  0  0  0  0  0  0
   18.1553   -9.0043  -16.6399 O   0  0  0  0  0  0  0  0  0  0  0  0
   18.0983   -8.7281  -11.7921 O   0  0  0  0  0  0  0  0  0  0  0  0
   17.4259   -7.9234  -12.6808 C   0  0  0  0  0  0  0  0  0  0  0  0
   18.0049   -8.0483  -14.0980 C   0  0  2  0  0  0  0  0  0  0  0  0
   17.8923   -9.4594  -14.4358 N   0  0  0  0  0  0  0  0  0  0  0  0
   19.4513   -7.7103  -14.0948 C   0  0  0  0  0  0  0  0  0  0  0  0
   20.3587   -8.5919  -14.1125 O   0  0  0  0  0  0  0  0  0  0  0  0
   25.3548   -6.6444  -17.8899 C   0  0  0  0  0  0  0  0  0  0  0  0
   23.6494   -6.9282  -17.4302 S   0  0  0  0  0  0  0  0  0  0  0  0
   23.2467   -6.1665  -15.8059 C   0  0  0  0  0  0  0  0  0  0  0  0
   21.8426   -6.5346  -15.4920 C   0  0  0  0  0  0  0  0  0  0  0  0
   21.3213   -6.0212  -14.1891 C   0  0  2  0  0  0  0  0  0  0  0  0
   19.9156   -6.3540  -14.0715 N   0  0  0  0  0  0  0  0  0  0  0  0
   21.4955   -4.5919  -13.9724 C   0  0  0  0  0  0  0  0  0  0  0  0
   20.5351   -3.6194  -14.2187 O   0  0  0  0  0  0  0  0  0  0  0  0
   22.5909   -4.1697  -13.5275 O   0  0  0  0  0  0  0  0  0  0  0  0
  2  1  1  1
  2  3  1  0
  4  2  1  0
  5  4  1  0
  5  6  1  6
  7  5  1  0
  8  7  2  0
  9 10  1  0
 11 10  1  1
 11 12  1  0
 12  7  1  0
 13 11  1  0
 13 20  1  0
 14 13  2  0
 16 17  1  0
 16 15  1  0
 19 18  1  6
 18 17  1  0
 19 21  1  0
 20 19  1  0
 21 23  2  0
 21 22  1  0
M  END
$$$$
