LSM.pdb
     RDKit          3D

 23 22  0  0  1  0  0  0  0  0999 V2000
   13.6741  -10.4528   -7.9220 C   0  0  0  0  0  0  0  0  0  0  0  0
   13.0059  -10.0653   -9.1948 C   0  0  2  0  0  0  0  0  0  0  0  0
   12.8778  -11.3001  -10.0977 C   0  0  0  0  0  0  0  0  0  0  0  0
   13.6748   -9.0158  -10.0040 C   0  0  0  0  0  0  0  0  0  0  0  0
   13.9379   -7.6997   -9.3491 C   0  0  2  0  0  0  0  0  0  0  0  0
   12.5791   -7.0942   -9.2303 N   0  0  0  0  0  0  0  0  0  0  0  0
   14.8015   -6.8326  -10.1301 C   0  0  0  0  0  0  0  0  0  0  0  0
   14.5120   -6.4661  -11.3137 O   0  0  0  0  0  0  0  0  0  0  0  0
   17.2305   -4.3784   -8.2631 O   0  0  0  0  0  0  0  0  0  0  0  0
   16.8883   -4.0868   -9.5620 C   0  0  0  0  0  0  0  0  0  0  0  0
   16.8328   -5.3563  -10.4249 C   0  0  2  0  0  0  0  0  0  0  0  0
   16.0478   -6.3098   -9.6551 N   0  0  0  0  0  0  0  0  0  0  0  0
   18.1932   -5.9316  -10.5825 C   0  0  0  0  0  0  0  0  0  0  0  0
   18.7515   -6.6219   -9.6812 O   0  0  0  0  0  0  0  0  0  0  0  0
   22.9923  -10.3706  -14.3432 C   0  0  0  0  0  0  0  0  0  0  0  0
   21.4490   -9.5214  -14.0317 S   0  0  0  0  0  0  0  0  0  0  0  0
   21.6968   -8.0113  -13.0124 C   0  0  0  0  0  0  0  0  0  0  0  0
   20.3492   -7.4572  -12.7256 C   0  0  0  0  0  0  0  0  0  0  0  0
   20.3299   -6.2182  -11.8906 C   0  0  2  0  0  0  0  0  0  0  0  0
   18.9665   -5.7403  -11.7746 N   0  0  0  0  0  0  0  0  0  0  0  0
   21.1784   -5.1358  -12.3690 C   0  0  0  0  0  0  0  0  0  0  0  0
   22.5554   -5.0622  -12.2044 O   0  0  0  0  0  0  0  0  0  0  0  0
   20.6552   -4.1749  -12.9845 O   0  0  0  0  0  0  0  0  0  0  0  0
  2  1  1  1
  2  3  1  0
  4  2  1  0
  5  4  1  0
  5  6  1  6
  7  5  1  0
  8  7  2  0
  9 10  1  0
 11 10  1  1
 11 12  1  0
 12  7  1  0
 13 11  1  0
 13 20  1  0
 14 13  2  0
 16 17  1  0
 16 15  1  0
 19 18  1  6
 18 17  1  0
 19 21  1  0
 20 19  1  0
 21 23  2  0
 21 22  1  0
M  END
$$$$
