LSM.pdb
     RDKit          3D

 23 22  0  0  1  0  0  0  0  0999 V2000
   16.3454  -11.9828  -18.6756 C   0  0  0  0  0  0  0  0  0  0  0  0
   15.7128  -12.1107  -17.3339 C   0  0  2  0  0  0  0  0  0  0  0  0
   14.2824  -11.5566  -17.3919 C   0  0  0  0  0  0  0  0  0  0  0  0
   16.3910  -11.4169  -16.2104 C   0  0  0  0  0  0  0  0  0  0  0  0
   17.8477  -11.6802  -16.0128 C   0  0  2  0  0  0  0  0  0  0  0  0
   17.8656  -12.8863  -15.1341 N   0  0  0  0  0  0  0  0  0  0  0  0
   18.5465  -10.5842  -15.3662 C   0  0  0  0  0  0  0  0  0  0  0  0
   18.2636  -10.1934  -14.1888 O   0  0  0  0  0  0  0  0  0  0  0  0
   22.2733   -9.4476  -16.2605 O   0  0  0  0  0  0  0  0  0  0  0  0
   21.6609   -9.0128  -15.1093 C   0  0  0  0  0  0  0  0  0  0  0  0
   20.1868   -8.6602  -15.3581 C   0  0  2  0  0  0  0  0  0  0  0  0
   19.6085   -9.8429  -15.9784 N   0  0  0  0  0  0  0  0  0  0  0  0
   20.0814   -7.5515  -16.3410 C   0  0  0  0  0  0  0  0  0  0  0  0
   20.0034   -7.7495  -17.5881 O   0  0  0  0  0  0  0  0  0  0  0  0
   15.8354   -3.5444  -17.3170 C   0  0  0  0  0  0  0  0  0  0  0  0
   17.1271   -2.3071  -17.3468 S   0  0  0  0  0  0  0  0  0  0  0  0
   18.7842   -3.0594  -17.6086 C   0  0  0  0  0  0  0  0  0  0  0  0
   18.8427   -4.2807  -16.7656 C   0  0  0  0  0  0  0  0  0  0  0  0
   20.0902   -5.0923  -16.8988 C   0  0  2  0  0  0  0  0  0  0  0  0
   20.0611   -6.1761  -15.9368 N   0  0  0  0  0  0  0  0  0  0  0  0
   21.3324   -4.3482  -16.7455 C   0  0  0  0  0  0  0  0  0  0  0  0
   21.8906   -3.5114  -17.7031 O   0  0  0  0  0  0  0  0  0  0  0  0
   21.9769   -4.4482  -15.6728 O   0  0  0  0  0  0  0  0  0  0  0  0
  2  1  1  6
  2  3  1  0
  4  2  1  0
  5  4  1  0
  5  6  1  1
  7  5  1  0
  8  7  2  0
  9 10  1  0
 11 10  1  6
 11 12  1  0
 12  7  1  0
 13 11  1  0
 13 20  1  0
 14 13  2  0
 16 17  1  0
 16 15  1  0
 19 18  1  1
 18 17  1  0
 19 21  1  0
 20 19  1  0
 21 23  2  0
 21 22  1  0
M  END
$$$$
