IIV.pdb
     RDKit          3D

 24 23  0  0  1  0  0  0  0  0999 V2000
   29.2944  -18.5289  -16.5142 C   0  0  0  0  0  0  0  0  0  0  0  0
   28.0031  -19.2861  -16.2325 C   0  0  0  0  0  0  0  0  0  0  0  0
   27.5086  -18.9867  -14.8253 C   0  0  2  0  0  0  0  0  0  0  0  0
   28.5442  -19.6000  -13.8839 C   0  0  0  0  0  0  0  0  0  0  0  0
   26.2143  -19.7005  -14.6135 C   0  0  2  0  0  0  0  0  0  0  0  0
   25.2191  -19.3696  -15.5913 N   0  0  0  0  0  0  0  0  0  0  0  0
   25.6699  -19.4804  -13.2362 C   0  0  0  0  0  0  0  0  0  0  0  0
   25.3948  -18.2931  -12.9453 O   0  0  0  0  0  0  0  0  0  0  0  0
   21.1970  -20.4964  -11.7875 C   0  0  0  0  0  0  0  0  0  0  0  0
   22.6735  -20.1276  -11.8431 C   0  0  0  0  0  0  0  0  0  0  0  0
   23.5038  -20.9191  -10.8813 C   0  0  2  0  0  0  0  0  0  0  0  0
   23.0270  -20.6298   -9.4845 C   0  0  0  0  0  0  0  0  0  0  0  0
   24.9471  -20.5138  -11.0202 C   0  0  2  0  0  0  0  0  0  0  0  0
   25.4842  -20.5480  -12.3359 N   0  0  0  0  0  0  0  0  0  0  0  0
   25.8440  -20.9987   -9.9601 C   0  0  0  0  0  0  0  0  0  0  0  0
   26.2893  -22.1543   -9.8812 O   0  0  0  0  0  0  0  0  0  0  0  0
   29.0065  -19.6171   -6.4417 C   0  0  0  0  0  0  0  0  0  0  0  0
   27.9794  -19.2112   -7.4997 C   0  0  2  0  0  0  0  0  0  0  0  0
   27.0628  -18.1692   -6.8933 C   0  0  0  0  0  0  0  0  0  0  0  0
   27.1692  -20.4376   -7.8641 C   0  0  2  0  0  0  0  0  0  0  0  0
   26.2670  -20.1010   -8.9092 N   0  0  0  0  0  0  0  0  0  0  0  0
   26.4341  -20.9214   -6.6684 C   0  0  0  0  0  0  0  0  0  0  0  0
   25.2050  -20.7987   -6.5991 O   0  0  0  0  0  0  0  0  0  0  0  0
   27.1984  -21.5079   -5.6546 O   0  0  0  0  0  0  0  0  0  0  0  0
  2  1  1  0
  3  2  1  0
  3  4  1  1
  5  6  1  6
  5  3  1  0
  7  8  2  0
  7  5  1  0
 10  9  1  0
 11 12  1  1
 11 10  1  0
 13 14  1  6
 13 11  1  0
 14  7  1  0
 15 13  1  0
 16 15  2  0
 18 17  1  1
 18 19  1  0
 20 18  1  0
 20 21  1  6
 21 15  1  0
 22 20  1  0
 23 22  2  0
 24 22  1  0
M  END
$$$$
