IIV.pdb
     RDKit          3D

 24 23  0  0  1  0  0  0  0  0999 V2000
   27.8967  -19.5365   -6.5251 C   0  0  0  0  0  0  0  0  0  0  0  0
   28.0187  -20.4205   -7.7594 C   0  0  0  0  0  0  0  0  0  0  0  0
   26.9485  -20.0595   -8.7786 C   0  0  2  0  0  0  0  0  0  0  0  0
   25.6162  -20.4279   -8.1273 C   0  0  0  0  0  0  0  0  0  0  0  0
   27.1267  -20.9240   -9.9829 C   0  0  2  0  0  0  0  0  0  0  0  0
   28.4914  -21.0220  -10.4120 N   0  0  0  0  0  0  0  0  0  0  0  0
   26.2630  -20.4834  -11.1238 C   0  0  0  0  0  0  0  0  0  0  0  0
   26.2886  -19.2575  -11.3813 O   0  0  0  0  0  0  0  0  0  0  0  0
   27.6645  -22.0182  -14.3468 C   0  0  0  0  0  0  0  0  0  0  0  0
   26.5168  -21.0428  -14.5716 C   0  0  0  0  0  0  0  0  0  0  0  0
   25.1770  -21.6553  -14.3055 C   0  0  2  0  0  0  0  0  0  0  0  0
   24.2376  -21.2531  -15.4091 C   0  0  0  0  0  0  0  0  0  0  0  0
   24.6548  -21.1543  -12.9852 C   0  0  2  0  0  0  0  0  0  0  0  0
   25.4775  -21.3987  -11.8521 N   0  0  0  0  0  0  0  0  0  0  0  0
   23.2114  -21.3349  -12.7674 C   0  0  0  0  0  0  0  0  0  0  0  0
   22.6984  -22.2973  -12.1755 O   0  0  0  0  0  0  0  0  0  0  0  0
   19.3544  -18.7765  -14.1277 C   0  0  0  0  0  0  0  0  0  0  0  0
   20.3988  -18.8923  -13.0165 C   0  0  2  0  0  0  0  0  0  0  0  0
   21.5570  -17.9787  -13.3593 C   0  0  0  0  0  0  0  0  0  0  0  0
   20.8877  -20.3250  -12.9774 C   0  0  2  0  0  0  0  0  0  0  0  0
   22.2802  -20.3455  -13.2603 N   0  0  0  0  0  0  0  0  0  0  0  0
   20.1361  -21.1342  -13.9699 C   0  0  0  0  0  0  0  0  0  0  0  0
   20.6030  -21.3287  -15.0989 O   0  0  0  0  0  0  0  0  0  0  0  0
   18.9021  -21.6474  -13.5581 O   0  0  0  0  0  0  0  0  0  0  0  0
  2  1  1  0
  3  2  1  0
  3  4  1  1
  5  6  1  6
  5  3  1  0
  7  8  2  0
  7  5  1  0
 10  9  1  0
 11 12  1  6
 11 10  1  0
 13 14  1  1
 13 11  1  0
 14  7  1  0
 15 13  1  0
 16 15  2  0
 18 17  1  6
 18 19  1  0
 20 18  1  0
 20 21  1  6
 21 15  1  0
 22 20  1  0
 23 22  2  0
 24 22  1  0
M  END
$$$$
