IIV.pdb
     RDKit          3D

 24 23  0  0  1  0  0  0  0  0999 V2000
   23.2811  -18.3194  -15.2936 C   0  0  0  0  0  0  0  0  0  0  0  0
   23.5409  -19.4467  -14.3029 C   0  0  0  0  0  0  0  0  0  0  0  0
   24.7685  -20.2444  -14.7167 C   0  0  2  0  0  0  0  0  0  0  0  0
   24.2530  -21.6346  -15.0861 C   0  0  0  0  0  0  0  0  0  0  0  0
   25.6658  -20.3862  -13.5317 C   0  0  2  0  0  0  0  0  0  0  0  0
   26.8846  -21.0823  -13.8250 N   0  0  0  0  0  0  0  0  0  0  0  0
   24.9717  -21.0370  -12.3757 C   0  0  0  0  0  0  0  0  0  0  0  0
   24.5202  -22.1857  -12.5912 O   0  0  0  0  0  0  0  0  0  0  0  0
   26.9560  -19.6056   -7.6440 C   0  0  0  0  0  0  0  0  0  0  0  0
   26.2646  -20.5019   -8.6627 C   0  0  0  0  0  0  0  0  0  0  0  0
   24.7752  -20.3523   -8.6479 C   0  0  2  0  0  0  0  0  0  0  0  0
   24.2231  -21.1590   -7.5050 C   0  0  0  0  0  0  0  0  0  0  0  0
   24.2117  -20.8605   -9.9482 C   0  0  2  0  0  0  0  0  0  0  0  0
   24.8416  -20.3882  -11.1318 N   0  0  0  0  0  0  0  0  0  0  0  0
   22.7449  -20.9521  -10.0079 C   0  0  0  0  0  0  0  0  0  0  0  0
   21.9775  -19.9828  -10.1152 O   0  0  0  0  0  0  0  0  0  0  0  0
   18.8626  -23.8606  -10.7951 C   0  0  0  0  0  0  0  0  0  0  0  0
   20.3819  -23.6885  -10.7584 C   0  0  2  0  0  0  0  0  0  0  0  0
   20.9791  -24.9050  -10.0825 C   0  0  0  0  0  0  0  0  0  0  0  0
   20.6962  -22.4559   -9.9366 C   0  0  2  0  0  0  0  0  0  0  0  0
   22.1015  -22.2446   -9.9406 N   0  0  0  0  0  0  0  0  0  0  0  0
   20.1947  -22.6405   -8.5514 C   0  0  0  0  0  0  0  0  0  0  0  0
   20.9315  -23.1162   -7.6789 O   0  0  0  0  0  0  0  0  0  0  0  0
   18.8739  -22.2532   -8.3037 O   0  0  0  0  0  0  0  0  0  0  0  0
  2  1  1  0
  3  2  1  0
  3  4  1  1
  5  6  1  6
  5  3  1  0
  7  8  2  0
  7  5  1  0
 10  9  1  0
 11 12  1  1
 11 10  1  0
 13 14  1  6
 13 11  1  0
 14  7  1  0
 15 13  1  0
 16 15  2  0
 18 17  1  1
 18 19  1  0
 20 18  1  0
 20 21  1  1
 21 15  1  0
 22 20  1  0
 23 22  2  0
 24 22  1  0
M  END
$$$$
