IIV.pdb
     RDKit          3D

 24 23  0  0  1  0  0  0  0  0999 V2000
   22.7732  -15.3314  -17.6548 C   0  0  0  0  0  0  0  0  0  0  0  0
   23.8711  -16.3331  -17.9881 C   0  0  0  0  0  0  0  0  0  0  0  0
   23.8975  -17.4534  -16.9592 C   0  0  2  0  0  0  0  0  0  0  0  0
   24.2678  -16.7890  -15.6340 C   0  0  0  0  0  0  0  0  0  0  0  0
   24.9910  -18.4044  -17.3187 C   0  0  2  0  0  0  0  0  0  0  0  0
   24.7546  -19.0990  -18.5506 N   0  0  0  0  0  0  0  0  0  0  0  0
   25.2641  -19.3872  -16.2226 C   0  0  0  0  0  0  0  0  0  0  0  0
   24.3769  -20.2521  -16.0366 O   0  0  0  0  0  0  0  0  0  0  0  0
   29.8933  -21.9456  -15.8105 C   0  0  0  0  0  0  0  0  0  0  0  0
   28.4724  -21.4132  -15.6806 C   0  0  0  0  0  0  0  0  0  0  0  0
   28.2458  -20.6770  -14.3970 C   0  0  2  0  0  0  0  0  0  0  0  0
   28.4605  -21.6294  -13.2529 C   0  0  0  0  0  0  0  0  0  0  0  0
   26.8341  -20.1547  -14.3660 C   0  0  2  0  0  0  0  0  0  0  0  0
   26.4460  -19.3314  -15.4579 N   0  0  0  0  0  0  0  0  0  0  0  0
   26.3497  -19.7219  -13.0464 C   0  0  0  0  0  0  0  0  0  0  0  0
   26.7213  -18.6956  -12.4560 O   0  0  0  0  0  0  0  0  0  0  0  0
   23.0810  -21.9223  -11.3861 C   0  0  0  0  0  0  0  0  0  0  0  0
   23.3103  -20.4317  -11.1315 C   0  0  2  0  0  0  0  0  0  0  0  0
   22.7154  -19.6575  -12.2891 C   0  0  0  0  0  0  0  0  0  0  0  0
   24.8040  -20.1871  -11.0821 C   0  0  2  0  0  0  0  0  0  0  0  0
   25.3676  -20.5167  -12.3443 N   0  0  0  0  0  0  0  0  0  0  0  0
   25.4075  -21.0104  -10.0040 C   0  0  0  0  0  0  0  0  0  0  0  0
   26.0936  -22.0009  -10.2847 O   0  0  0  0  0  0  0  0  0  0  0  0
   25.1577  -20.6059   -8.6889 O   0  0  0  0  0  0  0  0  0  0  0  0
  2  1  1  0
  3  2  1  0
  3  4  1  1
  5  6  1  6
  5  3  1  0
  7  8  2  0
  7  5  1  0
 10  9  1  0
 11 12  1  1
 11 10  1  0
 13 14  1  6
 13 11  1  0
 14  7  1  0
 15 13  1  0
 16 15  2  0
 18 17  1  6
 18 19  1  0
 20 18  1  0
 20 21  1  6
 21 15  1  0
 22 20  1  0
 23 22  2  0
 24 22  1  0
M  END
$$$$
