IIV.pdb
     RDKit          3D

 24 23  0  0  1  0  0  0  0  0999 V2000
   24.9375  -16.5651  -16.0821 C   0  0  0  0  0  0  0  0  0  0  0  0
   26.0325  -17.6090  -16.2583 C   0  0  0  0  0  0  0  0  0  0  0  0
   27.0211  -17.5412  -15.1039 C   0  0  2  0  0  0  0  0  0  0  0  0
   28.1938  -16.7039  -15.6125 C   0  0  0  0  0  0  0  0  0  0  0  0
   27.5251  -18.9191  -14.8271 C   0  0  2  0  0  0  0  0  0  0  0  0
   28.0561  -19.5713  -15.9884 N   0  0  0  0  0  0  0  0  0  0  0  0
   26.4808  -19.7820  -14.1895 C   0  0  0  0  0  0  0  0  0  0  0  0
   26.0105  -20.6892  -14.9145 O   0  0  0  0  0  0  0  0  0  0  0  0
   26.8204  -20.8850   -8.8365 C   0  0  0  0  0  0  0  0  0  0  0  0
   26.5006  -20.9288  -10.3248 C   0  0  0  0  0  0  0  0  0  0  0  0
   25.1822  -20.2997  -10.6517 C   0  0  2  0  0  0  0  0  0  0  0  0
   24.0872  -21.1456  -10.0620 C   0  0  0  0  0  0  0  0  0  0  0  0
   25.0217  -20.2301  -12.1470 C   0  0  2  0  0  0  0  0  0  0  0  0
   26.0635  -19.5761  -12.8597 N   0  0  0  0  0  0  0  0  0  0  0  0
   23.6588  -19.9494  -12.6236 C   0  0  0  0  0  0  0  0  0  0  0  0
   23.0991  -18.8437  -12.5606 O   0  0  0  0  0  0  0  0  0  0  0  0
   21.8459  -22.9207  -15.0095 C   0  0  0  0  0  0  0  0  0  0  0  0
   21.4431  -21.4471  -15.0812 C   0  0  2  0  0  0  0  0  0  0  0  0
   22.4229  -20.7329  -15.9887 C   0  0  0  0  0  0  0  0  0  0  0  0
   21.5384  -20.8647  -13.6866 C   0  0  2  0  0  0  0  0  0  0  0  0
   22.8723  -21.0067  -13.2174 N   0  0  0  0  0  0  0  0  0  0  0  0
   20.5862  -21.5657  -12.7887 C   0  0  0  0  0  0  0  0  0  0  0  0
   20.9974  -22.3942  -11.9671 O   0  0  0  0  0  0  0  0  0  0  0  0
   19.2336  -21.2386  -12.9275 O   0  0  0  0  0  0  0  0  0  0  0  0
  2  1  1  0
  3  2  1  0
  3  4  1  6
  5  6  1  6
  5  3  1  0
  7  8  2  0
  7  5  1  0
 10  9  1  0
 11 12  1  1
 11 10  1  0
 13 14  1  1
 13 11  1  0
 14  7  1  0
 15 13  1  0
 16 15  2  0
 18 17  1  1
 18 19  1  0
 20 18  1  0
 20 21  1  1
 21 15  1  0
 22 20  1  0
 23 22  2  0
 24 22  1  0
M  END
$$$$
