HKY.pdb
     RDKit          3D

 32 33  0  0  1  0  0  0  0  0999 V2000
    8.4514  -16.7850   19.8198 N   0  0  0  0  0  0  0  0  0  0  0  0
    8.8747  -15.8014   20.7920 C   0  0  1  0  0  0  0  0  0  0  0  0
    7.8687  -14.6735   20.8437 C   0  0  0  0  0  0  0  0  0  0  0  0
    7.8818  -13.9400   19.5554 C   0  0  0  0  0  0  0  0  0  0  0  0
    8.4165  -12.6854   19.2733 C   0  0  0  0  0  0  0  0  0  0  0  0
    8.1891  -12.4398   17.9709 N   0  0  0  0  0  0  0  0  0  0  0  0
    7.5383  -13.5040   17.4692 C   0  0  0  0  0  0  0  0  0  0  0  0
    7.3474  -14.4224   18.4288 N   0  0  0  0  0  0  0  0  0  0  0  0
    8.9608  -16.4714   22.1144 C   0  0  0  0  0  0  0  0  0  0  0  0
    7.9447  -17.0364   22.5693 O   0  0  0  0  0  0  0  0  0  0  0  0
   10.1470  -16.4845   22.8590 N   0  0  0  0  0  0  0  0  0  0  0  0
   10.3883  -17.3178   24.0296 C   0  0  1  0  0  0  0  0  0  0  0  0
   11.5697  -18.1590   23.7596 C   0  0  0  0  0  0  0  0  0  0  0  0
   11.3341  -19.3491   22.8797 C   0  0  0  0  0  0  0  0  0  0  0  0
   12.6115  -20.1373   22.7505 C   0  0  0  0  0  0  0  0  0  0  0  0
   12.4591  -21.2863   21.7676 C   0  0  0  0  0  0  0  0  0  0  0  0
   13.7169  -22.0091   21.7378 N   0  0  0  0  0  0  0  0  0  0  0  0
   10.5238  -16.4707   25.2416 C   0  0  0  0  0  0  0  0  0  0  0  0
   11.2963  -15.4829   25.1783 O   0  0  0  0  0  0  0  0  0  0  0  0
    6.4004  -11.0819   25.2956 O   0  0  0  0  0  0  0  0  0  0  0  0
    6.9802  -12.1553   25.9944 C   0  0  0  0  0  0  0  0  0  0  0  0
    6.2443  -13.3026   26.1930 C   0  0  0  0  0  0  0  0  0  0  0  0
    6.8040  -14.3660   26.8793 C   0  0  0  0  0  0  0  0  0  0  0  0
    8.0868  -14.3266   27.3811 C   0  0  0  0  0  0  0  0  0  0  0  0
    8.6623  -15.4605   28.1063 C   0  0  0  0  0  0  0  0  0  0  0  0
   10.0396  -15.8711   27.6454 C   0  0  2  0  0  0  0  0  0  0  0  0
    9.8483  -16.7015   26.4455 N   0  0  0  0  0  0  0  0  0  0  0  0
   10.7489  -16.7229   28.6324 C   0  0  0  0  0  0  0  0  0  0  0  0
   11.3135  -16.2294   29.7811 O   0  0  0  0  0  0  0  0  0  0  0  0
    8.8106  -13.1701   27.1736 C   0  0  0  0  0  0  0  0  0  0  0  0
    8.2698  -12.0865   26.4862 C   0  0  0  0  0  0  0  0  0  0  0  0
   10.8421  -17.9778   28.4078 O   0  0  0  0  0  0  0  0  0  0  0  0
  2  1  1  6
  2  9  1  0
  2  3  1  0
  4  3  1  0
  4  5  2  0
  6  5  1  0
  7  6  1  0
  8  7  2  0
  8  4  1  0
  9 10  2  0
 11 12  1  0
 11  9  1  0
 12 13  1  6
 13 14  1  0
 15 16  1  0
 15 14  1  0
 16 17  1  0
 18 19  2  0
 18 12  1  0
 20 21  1  0
 21 31  2  0
 21 22  1  0
 22 23  2  0
 23 24  1  0
 24 25  1  0
 26 25  1  1
 26 28  1  0
 26 27  1  0
 27 18  1  0
 28 29  1  0
 30 24  2  0
 31 30  1  0
 32 28  2  0
M  END
$$$$
