HKY.pdb
     RDKit          3D

 32 33  0  0  1  0  0  0  0  0999 V2000
    5.0368  -19.8341   21.1049 N   0  0  0  0  0  0  0  0  0  0  0  0
    4.8657  -18.6376   21.8991 C   0  0  1  0  0  0  0  0  0  0  0  0
    4.4900  -19.0171   23.3139 C   0  0  0  0  0  0  0  0  0  0  0  0
    3.1803  -19.7118   23.3081 C   0  0  0  0  0  0  0  0  0  0  0  0
    1.9545  -19.2547   22.8305 C   0  0  0  0  0  0  0  0  0  0  0  0
    1.0562  -20.2331   23.0401 N   0  0  0  0  0  0  0  0  0  0  0  0
    1.7046  -21.2551   23.6254 C   0  0  0  0  0  0  0  0  0  0  0  0
    2.9995  -20.9450   23.7920 N   0  0  0  0  0  0  0  0  0  0  0  0
    6.1517  -17.8952   21.8927 C   0  0  0  0  0  0  0  0  0  0  0  0
    7.2146  -18.5328   22.0412 O   0  0  0  0  0  0  0  0  0  0  0  0
    6.2005  -16.5055   21.7252 N   0  0  0  0  0  0  0  0  0  0  0  0
    7.4225  -15.7237   21.5902 C   0  0  1  0  0  0  0  0  0  0  0  0
    7.1333  -14.5640   20.7254 C   0  0  0  0  0  0  0  0  0  0  0  0
    8.3288  -13.8660   20.1511 C   0  0  0  0  0  0  0  0  0  0  0  0
    7.9930  -13.3448   18.7781 C   0  0  0  0  0  0  0  0  0  0  0  0
    9.2018  -12.7062   18.1146 C   0  0  0  0  0  0  0  0  0  0  0  0
    8.8438  -12.4108   16.7398 N   0  0  0  0  0  0  0  0  0  0  0  0
    7.9436  -15.3530   22.9302 C   0  0  0  0  0  0  0  0  0  0  0  0
    7.7223  -14.1865   23.3389 O   0  0  0  0  0  0  0  0  0  0  0  0
    5.3354  -11.3937   26.7643 O   0  0  0  0  0  0  0  0  0  0  0  0
    6.2492  -12.4490   26.5959 C   0  0  0  0  0  0  0  0  0  0  0  0
    5.7717  -13.7303   26.4306 C   0  0  0  0  0  0  0  0  0  0  0  0
    6.6611  -14.7774   26.2640 C   0  0  0  0  0  0  0  0  0  0  0  0
    8.0264  -14.5909   26.2562 C   0  0  0  0  0  0  0  0  0  0  0  0
    8.9528  -15.7106   26.0803 C   0  0  0  0  0  0  0  0  0  0  0  0
    9.6544  -15.7456   24.7445 C   0  0  2  0  0  0  0  0  0  0  0  0
    8.6629  -16.2168   23.7642 N   0  0  0  0  0  0  0  0  0  0  0  0
   10.7738  -16.7194   24.7053 C   0  0  0  0  0  0  0  0  0  0  0  0
   10.7205  -17.8962   24.0024 O   0  0  0  0  0  0  0  0  0  0  0  0
    8.4884  -13.3013   26.4230 C   0  0  0  0  0  0  0  0  0  0  0  0
    7.6138  -12.2311   26.5924 C   0  0  0  0  0  0  0  0  0  0  0  0
   11.8422  -16.4553   25.3555 O   0  0  0  0  0  0  0  0  0  0  0  0
  2  1  1  6
  2  9  1  0
  2  3  1  0
  4  3  1  0
  4  5  2  0
  6  5  1  0
  7  6  1  0
  8  7  2  0
  8  4  1  0
  9 10  2  0
 11 12  1  0
 11  9  1  0
 12 13  1  6
 13 14  1  0
 15 16  1  0
 15 14  1  0
 16 17  1  0
 18 19  2  0
 18 12  1  0
 20 21  1  0
 21 31  2  0
 21 22  1  0
 22 23  2  0
 23 24  1  0
 24 25  1  0
 26 25  1  1
 26 28  1  0
 26 27  1  0
 27 18  1  0
 28 29  1  0
 30 24  2  0
 31 30  1  0
 32 28  2  0
M  END
$$$$
