HKY.pdb
     RDKit          3D

 32 33  0  0  1  0  0  0  0  0999 V2000
   11.2900  -15.4235   16.9478 N   0  0  0  0  0  0  0  0  0  0  0  0
   11.8908  -15.8297   18.1990 C   0  0  1  0  0  0  0  0  0  0  0  0
   12.9087  -14.7984   18.6316 C   0  0  0  0  0  0  0  0  0  0  0  0
   14.1908  -15.0443   17.9289 C   0  0  0  0  0  0  0  0  0  0  0  0
   15.2091  -15.9342   18.2616 C   0  0  0  0  0  0  0  0  0  0  0  0
   16.1707  -15.8043   17.3307 N   0  0  0  0  0  0  0  0  0  0  0  0
   15.7599  -14.8688   16.4567 C   0  0  0  0  0  0  0  0  0  0  0  0
   14.5542  -14.4010   16.8147 N   0  0  0  0  0  0  0  0  0  0  0  0
   10.8106  -15.9388   19.2122 C   0  0  0  0  0  0  0  0  0  0  0  0
    9.9259  -15.0587   19.2449 O   0  0  0  0  0  0  0  0  0  0  0  0
   10.7609  -16.9989   20.1263 N   0  0  0  0  0  0  0  0  0  0  0  0
    9.7621  -17.1490   21.1764 C   0  0  1  0  0  0  0  0  0  0  0  0
    9.1801  -18.5002   21.0677 C   0  0  0  0  0  0  0  0  0  0  0  0
    8.3054  -18.7382   19.8742 C   0  0  0  0  0  0  0  0  0  0  0  0
    7.9673  -20.2035   19.7850 C   0  0  0  0  0  0  0  0  0  0  0  0
    6.9666  -20.4768   18.6745 C   0  0  0  0  0  0  0  0  0  0  0  0
    6.7687  -21.9126   18.6046 N   0  0  0  0  0  0  0  0  0  0  0  0
   10.3671  -16.8653   22.5024 C   0  0  0  0  0  0  0  0  0  0  0  0
   11.5786  -17.1533   22.6635 O   0  0  0  0  0  0  0  0  0  0  0  0
   10.6403  -14.6277   31.1782 O   0  0  0  0  0  0  0  0  0  0  0  0
   10.2995  -14.8123   29.8266 C   0  0  0  0  0  0  0  0  0  0  0  0
   10.4480  -13.7624   28.9476 C   0  0  0  0  0  0  0  0  0  0  0  0
   10.1161  -13.9317   27.6148 C   0  0  0  0  0  0  0  0  0  0  0  0
    9.6353  -15.1248   27.1205 C   0  0  0  0  0  0  0  0  0  0  0  0
    9.2875  -15.2856   25.7077 C   0  0  0  0  0  0  0  0  0  0  0  0
   10.2963  -16.0583   24.8933 C   0  0  2  0  0  0  0  0  0  0  0  0
    9.6765  -16.2994   23.5804 N   0  0  0  0  0  0  0  0  0  0  0  0
   10.5969  -17.3952   25.4636 C   0  0  0  0  0  0  0  0  0  0  0  0
   11.7160  -17.6572   26.2125 O   0  0  0  0  0  0  0  0  0  0  0  0
    9.4925  -16.1666   28.0142 C   0  0  0  0  0  0  0  0  0  0  0  0
    9.8196  -16.0213   29.3598 C   0  0  0  0  0  0  0  0  0  0  0  0
    9.7780  -18.3533   25.2507 O   0  0  0  0  0  0  0  0  0  0  0  0
  2  1  1  6
  2  9  1  0
  2  3  1  0
  4  3  1  0
  4  5  2  0
  6  5  1  0
  7  6  1  0
  8  7  2  0
  8  4  1  0
  9 10  2  0
 11 12  1  0
 11  9  1  0
 12 13  1  1
 13 14  1  0
 15 16  1  0
 15 14  1  0
 16 17  1  0
 18 19  2  0
 18 12  1  0
 20 21  1  0
 21 31  2  0
 21 22  1  0
 22 23  2  0
 23 24  1  0
 24 25  1  0
 26 25  1  1
 26 28  1  0
 26 27  1  0
 27 18  1  0
 28 29  1  0
 30 24  2  0
 31 30  1  0
 32 28  2  0
M  END
$$$$
