HKY.pdb
     RDKit          3D

 32 33  0  0  1  0  0  0  0  0999 V2000
   11.4065  -14.2373   17.6535 N   0  0  0  0  0  0  0  0  0  0  0  0
   12.0224  -14.9819   18.7296 C   0  0  1  0  0  0  0  0  0  0  0  0
   13.2126  -14.2151   19.2610 C   0  0  0  0  0  0  0  0  0  0  0  0
   14.4205  -14.5740   18.4799 C   0  0  0  0  0  0  0  0  0  0  0  0
   14.7708  -15.8073   17.9360 C   0  0  0  0  0  0  0  0  0  0  0  0
   15.9527  -15.6469   17.3151 N   0  0  0  0  0  0  0  0  0  0  0  0
   16.3172  -14.3622   17.4709 C   0  0  0  0  0  0  0  0  0  0  0  0
   15.3885  -13.7020   18.1796 N   0  0  0  0  0  0  0  0  0  0  0  0
   11.0099  -15.1617   19.8009 C   0  0  0  0  0  0  0  0  0  0  0  0
   10.3781  -14.1636   20.2047 O   0  0  0  0  0  0  0  0  0  0  0  0
   10.7483  -16.4165   20.3656 N   0  0  0  0  0  0  0  0  0  0  0  0
    9.7496  -16.6768   21.3941 C   0  0  1  0  0  0  0  0  0  0  0  0
    9.1847  -18.0189   21.1572 C   0  0  0  0  0  0  0  0  0  0  0  0
    8.1381  -18.1052   20.0879 C   0  0  0  0  0  0  0  0  0  0  0  0
    7.7136  -19.5405   19.9172 C   0  0  0  0  0  0  0  0  0  0  0  0
    6.7032  -19.6916   18.7921 C   0  0  0  0  0  0  0  0  0  0  0  0
    6.3671  -21.0994   18.6891 N   0  0  0  0  0  0  0  0  0  0  0  0
   10.3486  -16.5115   22.7426 C   0  0  0  0  0  0  0  0  0  0  0  0
   11.5455  -16.8594   22.8949 O   0  0  0  0  0  0  0  0  0  0  0  0
   10.6748  -14.9354   31.5557 O   0  0  0  0  0  0  0  0  0  0  0  0
   10.3300  -14.9850   30.1935 C   0  0  0  0  0  0  0  0  0  0  0  0
    9.7056  -16.1091   29.6997 C   0  0  0  0  0  0  0  0  0  0  0  0
    9.3612  -16.1698   28.3607 C   0  0  0  0  0  0  0  0  0  0  0  0
    9.6201  -15.1376   27.4852 C   0  0  0  0  0  0  0  0  0  0  0  0
    9.2503  -15.2197   26.0712 C   0  0  0  0  0  0  0  0  0  0  0  0
   10.2695  -15.9007   25.1907 C   0  0  2  0  0  0  0  0  0  0  0  0
    9.6677  -15.9947   23.8509 N   0  0  0  0  0  0  0  0  0  0  0  0
   10.5611  -17.2928   25.6148 C   0  0  0  0  0  0  0  0  0  0  0  0
    9.7357  -18.3517   25.3330 O   0  0  0  0  0  0  0  0  0  0  0  0
   10.2461  -14.0188   27.9958 C   0  0  0  0  0  0  0  0  0  0  0  0
   10.6026  -13.9335   29.3392 C   0  0  0  0  0  0  0  0  0  0  0  0
   11.6312  -17.5237   26.2747 O   0  0  0  0  0  0  0  0  0  0  0  0
  2  1  1  6
  2  9  1  0
  2  3  1  0
  4  3  1  0
  4  5  2  0
  6  5  1  0
  7  6  1  0
  8  7  2  0
  8  4  1  0
  9 10  2  0
 11 12  1  0
 11  9  1  0
 12 13  1  1
 13 14  1  0
 15 16  1  0
 15 14  1  0
 16 17  1  0
 18 19  2  0
 18 12  1  0
 20 21  1  0
 21 31  2  0
 21 22  1  0
 22 23  2  0
 23 24  1  0
 24 25  1  0
 26 25  1  1
 26 28  1  0
 26 27  1  0
 27 18  1  0
 28 29  1  0
 30 24  2  0
 31 30  1  0
 32 28  2  0
M  END
$$$$
