HKY.pdb
     RDKit          3D

 32 33  0  0  1  0  0  0  0  0999 V2000
   11.2353  -14.1508   17.9252 N   0  0  0  0  0  0  0  0  0  0  0  0
   12.0320  -14.9608   18.8201 C   0  0  1  0  0  0  0  0  0  0  0  0
   13.1314  -14.1169   19.4252 C   0  0  0  0  0  0  0  0  0  0  0  0
   14.3381  -14.1879   18.5669 C   0  0  0  0  0  0  0  0  0  0  0  0
   14.5042  -14.8469   17.3513 C   0  0  0  0  0  0  0  0  0  0  0  0
   15.7683  -14.6268   16.9491 N   0  0  0  0  0  0  0  0  0  0  0  0
   16.3592  -13.8605   17.8825 C   0  0  0  0  0  0  0  0  0  0  0  0
   15.4939  -13.5889   18.8716 N   0  0  0  0  0  0  0  0  0  0  0  0
   11.1387  -15.4791   19.8872 C   0  0  0  0  0  0  0  0  0  0  0  0
   10.2715  -14.7198   20.3666 O   0  0  0  0  0  0  0  0  0  0  0  0
   11.2452  -16.7911   20.3657 N   0  0  0  0  0  0  0  0  0  0  0  0
   10.3839  -17.3812   21.3819 C   0  0  1  0  0  0  0  0  0  0  0  0
   10.3355  -18.8380   21.1543 C   0  0  0  0  0  0  0  0  0  0  0  0
    9.6382  -19.6392   22.2117 C   0  0  0  0  0  0  0  0  0  0  0  0
    9.6385  -21.0938   21.8197 C   0  0  0  0  0  0  0  0  0  0  0  0
    8.9320  -21.9498   22.8578 C   0  0  0  0  0  0  0  0  0  0  0  0
    7.5033  -21.7913   22.6596 N   0  0  0  0  0  0  0  0  0  0  0  0
   10.8595  -17.0049   22.7372 C   0  0  0  0  0  0  0  0  0  0  0  0
   12.0898  -17.0993   22.9697 O   0  0  0  0  0  0  0  0  0  0  0  0
   10.2457  -14.9707   31.4392 O   0  0  0  0  0  0  0  0  0  0  0  0
   10.0315  -15.1176   30.0574 C   0  0  0  0  0  0  0  0  0  0  0  0
    9.6226  -16.3382   29.5676 C   0  0  0  0  0  0  0  0  0  0  0  0
    9.4084  -16.4953   28.2095 C   0  0  0  0  0  0  0  0  0  0  0  0
    9.5896  -15.4666   27.3106 C   0  0  0  0  0  0  0  0  0  0  0  0
    9.3599  -15.6511   25.8767 C   0  0  0  0  0  0  0  0  0  0  0  0
   10.5176  -16.2619   25.1255 C   0  0  2  0  0  0  0  0  0  0  0  0
   10.0279  -16.5533   23.7685 N   0  0  0  0  0  0  0  0  0  0  0  0
   10.9570  -17.5594   25.6970 C   0  0  0  0  0  0  0  0  0  0  0  0
   12.0969  -17.7015   26.4469 O   0  0  0  0  0  0  0  0  0  0  0  0
    9.9994  -14.2503   27.8175 C   0  0  0  0  0  0  0  0  0  0  0  0
   10.2215  -14.0670   29.1799 C   0  0  0  0  0  0  0  0  0  0  0  0
   10.2437  -18.5986   25.4843 O   0  0  0  0  0  0  0  0  0  0  0  0
  2  1  1  6
  2  9  1  0
  2  3  1  0
  4  3  1  0
  4  5  2  0
  6  5  1  0
  7  6  1  0
  8  7  2  0
  8  4  1  0
  9 10  2  0
 11 12  1  0
 11  9  1  0
 12 13  1  1
 13 14  1  0
 15 16  1  0
 15 14  1  0
 16 17  1  0
 18 19  2  0
 18 12  1  0
 20 21  1  0
 21 31  2  0
 21 22  1  0
 22 23  2  0
 23 24  1  0
 24 25  1  0
 26 25  1  1
 26 28  1  0
 26 27  1  0
 27 18  1  0
 28 29  1  0
 30 24  2  0
 31 30  1  0
 32 28  2  0
M  END
$$$$
