WNA.pdb
     RDKit          3D

 28 29  0  0  1  0  0  0  0  0999 V2000
    6.4362  -17.7709   23.5317 N   0  0  0  0  0  0  0  0  0  0  0  0
    7.0661  -16.4858   23.3738 C   0  0  1  0  0  0  0  0  0  0  0  0
    7.7564  -16.0239   24.6155 C   0  0  0  0  0  0  0  0  0  0  0  0
    6.9437  -15.0727   25.4043 C   0  0  0  0  0  0  0  0  0  0  0  0
    5.8829  -15.4485   26.2318 C   0  0  0  0  0  0  0  0  0  0  0  0
    5.3580  -14.3641   26.8259 N   0  0  0  0  0  0  0  0  0  0  0  0
    6.0349  -13.2682   26.4213 C   0  0  0  0  0  0  0  0  0  0  0  0
    5.9120  -11.9285   26.7111 C   0  0  0  0  0  0  0  0  0  0  0  0
    6.7734  -11.0206   26.1183 C   0  0  0  0  0  0  0  0  0  0  0  0
    7.7476  -11.4251   25.2474 C   0  0  0  0  0  0  0  0  0  0  0  0
    7.8565  -12.7862   24.9668 C   0  0  0  0  0  0  0  0  0  0  0  0
    7.0151  -13.7046   25.5427 C   0  0  0  0  0  0  0  0  0  0  0  0
    7.9125  -16.5106   22.1808 C   0  0  0  0  0  0  0  0  0  0  0  0
    8.1832  -17.6198   21.6573 O   0  0  0  0  0  0  0  0  0  0  0  0
    7.4670  -12.6309   19.2981 N   0  0  0  0  0  0  0  0  0  0  0  0
    8.1218  -13.8902   19.0189 C   0  0  0  0  0  0  0  0  0  0  0  0
    7.5118  -14.6506   18.2284 O   0  0  0  0  0  0  0  0  0  0  0  0
    9.4129  -14.1560   19.6728 C   0  0  0  0  0  0  0  0  0  0  0  0
    9.3990  -15.4359   20.4217 C   0  0  2  0  0  0  0  0  0  0  0  0
    8.4613  -15.3718   21.5571 N   0  0  0  0  0  0  0  0  0  0  0  0
   10.7705  -15.6753   20.9889 C   0  0  0  0  0  0  0  0  0  0  0  0
   11.8053  -15.7094   20.3034 O   0  0  0  0  0  0  0  0  0  0  0  0
   12.3085  -15.8307   24.4478 C   0  0  0  0  0  0  0  0  0  0  0  0
   12.2148  -16.2479   22.9952 C   0  0  2  0  0  0  0  0  0  0  0  0
   10.9677  -15.8846   22.3965 N   0  0  0  0  0  0  0  0  0  0  0  0
   12.5440  -17.6685   22.8281 C   0  0  0  0  0  0  0  0  0  0  0  0
   11.6159  -18.5739   22.2835 O   0  0  0  0  0  0  0  0  0  0  0  0
   13.6475  -18.1518   23.1529 O   0  0  0  0  0  0  0  0  0  0  0  0
  2  1  1  1
  3  2  1  0
  4  5  2  0
  4  3  1  0
  6  5  1  0
  7 12  2  0
  7  6  1  0
  8  7  1  0
  9 10  1  0
  9  8  2  0
 10 11  2  0
 11 12  1  0
 12  4  1  0
 13 14  2  0
 13  2  1  0
 16 17  2  0
 16 15  1  0
 18 16  1  0
 19 18  1  1
 19 20  1  0
 20 13  1  0
 21 25  1  0
 21 19  1  0
 22 21  2  0
 24 23  1  1
 24 25  1  0
 24 26  1  0
 26 27  1  0
 28 26  2  0
M  END
$$$$
