WNA.pdb
     RDKit          3D

 28 29  0  0  1  0  0  0  0  0999 V2000
    6.3769  -17.6576   23.9161 N   0  0  0  0  0  0  0  0  0  0  0  0
    7.3885  -16.7650   23.4130 C   0  0  1  0  0  0  0  0  0  0  0  0
    8.1437  -16.0748   24.5016 C   0  0  0  0  0  0  0  0  0  0  0  0
    7.3017  -15.1432   25.2831 C   0  0  0  0  0  0  0  0  0  0  0  0
    6.2909  -15.5483   26.1579 C   0  0  0  0  0  0  0  0  0  0  0  0
    5.7223  -14.4745   26.7307 N   0  0  0  0  0  0  0  0  0  0  0  0
    6.3212  -13.3574   26.2658 C   0  0  0  0  0  0  0  0  0  0  0  0
    6.1294  -12.0171   26.5124 C   0  0  0  0  0  0  0  0  0  0  0  0
    6.9174  -11.0839   25.8600 C   0  0  0  0  0  0  0  0  0  0  0  0
    7.8861  -11.4638   24.9720 C   0  0  0  0  0  0  0  0  0  0  0  0
    8.0655  -12.8259   24.7358 C   0  0  0  0  0  0  0  0  0  0  0  0
    7.2974  -13.7691   25.3710 C   0  0  0  0  0  0  0  0  0  0  0  0
    8.2264  -17.4833   22.4526 C   0  0  0  0  0  0  0  0  0  0  0  0
    7.7106  -18.4075   21.7763 O   0  0  0  0  0  0  0  0  0  0  0  0
    9.2078  -17.8204   18.1259 N   0  0  0  0  0  0  0  0  0  0  0  0
    8.6988  -16.7959   19.0112 C   0  0  0  0  0  0  0  0  0  0  0  0
    7.4916  -16.4941   18.8477 O   0  0  0  0  0  0  0  0  0  0  0  0
    9.6231  -16.2164   19.9987 C   0  0  0  0  0  0  0  0  0  0  0  0
   10.2101  -17.2541   20.8806 C   0  0  2  0  0  0  0  0  0  0  0  0
    9.5913  -17.2205   22.2179 N   0  0  0  0  0  0  0  0  0  0  0  0
   11.6737  -16.9609   21.0588 C   0  0  0  0  0  0  0  0  0  0  0  0
   12.2968  -16.1215   20.3887 O   0  0  0  0  0  0  0  0  0  0  0  0
   12.2571  -16.1228   23.9454 C   0  0  0  0  0  0  0  0  0  0  0  0
   13.1534  -17.0213   23.1195 C   0  0  2  0  0  0  0  0  0  0  0  0
   12.4575  -17.6551   22.0426 N   0  0  0  0  0  0  0  0  0  0  0  0
   13.8867  -17.9668   23.9696 C   0  0  0  0  0  0  0  0  0  0  0  0
   15.2044  -17.7050   24.3852 O   0  0  0  0  0  0  0  0  0  0  0  0
   13.3951  -19.0419   24.3688 O   0  0  0  0  0  0  0  0  0  0  0  0
  2  1  1  1
  3  2  1  0
  4  5  2  0
  4  3  1  0
  6  5  1  0
  7 12  2  0
  7  6  1  0
  8  7  1  0
  9 10  1  0
  9  8  2  0
 10 11  2  0
 11 12  1  0
 12  4  1  0
 13 14  2  0
 13  2  1  0
 16 17  2  0
 16 15  1  0
 18 16  1  0
 19 18  1  6
 19 20  1  0
 20 13  1  0
 21 25  1  0
 21 19  1  0
 22 21  2  0
 24 23  1  1
 24 25  1  0
 24 26  1  0
 26 27  1  0
 28 26  2  0
M  END
$$$$
