WNA.pdb
     RDKit          3D

 28 29  0  0  1  0  0  0  0  0999 V2000
    6.9123  -17.3550   23.4410 N   0  0  0  0  0  0  0  0  0  0  0  0
    8.0663  -16.5021   23.3225 C   0  0  1  0  0  0  0  0  0  0  0  0
    8.4958  -15.9254   24.6321 C   0  0  0  0  0  0  0  0  0  0  0  0
    7.4768  -15.0351   25.2292 C   0  0  0  0  0  0  0  0  0  0  0  0
    6.2933  -15.4851   25.8189 C   0  0  0  0  0  0  0  0  0  0  0  0
    5.5872  -14.4417   26.2850 N   0  0  0  0  0  0  0  0  0  0  0  0
    6.2616  -13.3012   26.0251 C   0  0  0  0  0  0  0  0  0  0  0  0
    5.9949  -11.9747   26.2762 C   0  0  0  0  0  0  0  0  0  0  0  0
    6.9007  -11.0084   25.8717 C   0  0  0  0  0  0  0  0  0  0  0  0
    8.0591  -11.3422   25.2254 C   0  0  0  0  0  0  0  0  0  0  0  0
    8.3116  -12.6911   24.9804 C   0  0  0  0  0  0  0  0  0  0  0  0
    7.4295  -13.6664   25.3726 C   0  0  0  0  0  0  0  0  0  0  0  0
    9.1178  -17.2168   22.5987 C   0  0  0  0  0  0  0  0  0  0  0  0
    9.2216  -18.4584   22.7580 O   0  0  0  0  0  0  0  0  0  0  0  0
   10.5033  -17.8011   18.8970 N   0  0  0  0  0  0  0  0  0  0  0  0
   11.4170  -16.6857   19.0132 C   0  0  0  0  0  0  0  0  0  0  0  0
   11.6008  -16.0282   17.9601 O   0  0  0  0  0  0  0  0  0  0  0  0
   12.0318  -16.4318   20.3258 C   0  0  0  0  0  0  0  0  0  0  0  0
   11.3619  -17.1956   21.4060 C   0  0  2  0  0  0  0  0  0  0  0  0
   10.0431  -16.6174   21.7203 N   0  0  0  0  0  0  0  0  0  0  0  0
   12.1987  -17.1009   22.6512 C   0  0  0  0  0  0  0  0  0  0  0  0
   12.8927  -16.1136   22.9438 O   0  0  0  0  0  0  0  0  0  0  0  0
   12.4283  -19.0770   25.8738 C   0  0  0  0  0  0  0  0  0  0  0  0
   12.9987  -18.1558   24.8161 C   0  0  2  0  0  0  0  0  0  0  0  0
   12.2448  -18.1780   23.6009 N   0  0  0  0  0  0  0  0  0  0  0  0
   14.4310  -18.4033   24.6121 C   0  0  0  0  0  0  0  0  0  0  0  0
   14.9207  -18.8900   23.3870 O   0  0  0  0  0  0  0  0  0  0  0  0
   15.2870  -18.2009   25.4970 O   0  0  0  0  0  0  0  0  0  0  0  0
  2  1  1  1
  3  2  1  0
  4  5  2  0
  4  3  1  0
  6  5  1  0
  7 12  2  0
  7  6  1  0
  8  7  1  0
  9 10  1  0
  9  8  2  0
 10 11  2  0
 11 12  1  0
 12  4  1  0
 13 14  2  0
 13  2  1  0
 16 17  2  0
 16 15  1  0
 18 16  1  0
 19 18  1  6
 19 20  1  0
 20 13  1  0
 21 25  1  0
 21 19  1  0
 22 21  2  0
 24 23  1  1
 24 25  1  0
 24 26  1  0
 26 27  1  0
 28 26  2  0
M  END
$$$$
