WNA.pdb
     RDKit          3D

 28 29  0  0  1  0  0  0  0  0999 V2000
    7.4521  -17.0408   23.9872 N   0  0  0  0  0  0  0  0  0  0  0  0
    8.4904  -16.0886   24.2847 C   0  0  1  0  0  0  0  0  0  0  0  0
    8.3512  -15.4878   25.6455 C   0  0  0  0  0  0  0  0  0  0  0  0
    7.1475  -14.6387   25.7779 C   0  0  0  0  0  0  0  0  0  0  0  0
    5.9042  -15.1056   26.2106 C   0  0  0  0  0  0  0  0  0  0  0  0
    5.0204  -14.0945   26.2434 N   0  0  0  0  0  0  0  0  0  0  0  0
    5.6333  -12.9596   25.8444 C   0  0  0  0  0  0  0  0  0  0  0  0
    5.1999  -11.6625   25.6908 C   0  0  0  0  0  0  0  0  0  0  0  0
    6.0857  -10.6955   25.2461 C   0  0  0  0  0  0  0  0  0  0  0  0
    7.3869  -11.0000   24.9538 C   0  0  0  0  0  0  0  0  0  0  0  0
    7.8071  -12.3193   25.1160 C   0  0  0  0  0  0  0  0  0  0  0  0
    6.9478  -13.2944   25.5562 C   0  0  0  0  0  0  0  0  0  0  0  0
    9.7923  -16.7016   24.0208 C   0  0  0  0  0  0  0  0  0  0  0  0
    9.8919  -17.9523   24.0786 O   0  0  0  0  0  0  0  0  0  0  0  0
   12.8014  -16.9857   21.1542 N   0  0  0  0  0  0  0  0  0  0  0  0
   13.1766  -15.7278   21.7621 C   0  0  0  0  0  0  0  0  0  0  0  0
   13.3319  -14.7702   20.9660 O   0  0  0  0  0  0  0  0  0  0  0  0
   13.3374  -15.6894   23.2243 C   0  0  0  0  0  0  0  0  0  0  0  0
   12.3253  -16.5263   23.9130 C   0  0  2  0  0  0  0  0  0  0  0  0
   10.9679  -15.9925   23.7013 N   0  0  0  0  0  0  0  0  0  0  0  0
   12.5948  -16.4864   25.3914 C   0  0  0  0  0  0  0  0  0  0  0  0
   13.6639  -16.8485   25.9089 O   0  0  0  0  0  0  0  0  0  0  0  0
   11.0769  -14.8169   28.3900 C   0  0  0  0  0  0  0  0  0  0  0  0
   11.7596  -16.0007   27.7380 C   0  0  2  0  0  0  0  0  0  0  0  0
   11.6022  -16.0138   26.3164 N   0  0  0  0  0  0  0  0  0  0  0  0
   11.3608  -17.2614   28.3751 C   0  0  0  0  0  0  0  0  0  0  0  0
   10.8078  -18.3153   27.6259 O   0  0  0  0  0  0  0  0  0  0  0  0
   11.4854  -17.4721   29.5985 O   0  0  0  0  0  0  0  0  0  0  0  0
  2  1  1  1
  3  2  1  0
  4  5  2  0
  4  3  1  0
  6  5  1  0
  7 12  2  0
  7  6  1  0
  8  7  1  0
  9 10  1  0
  9  8  2  0
 10 11  2  0
 11 12  1  0
 12  4  1  0
 13 14  2  0
 13  2  1  0
 16 17  2  0
 16 15  1  0
 18 16  1  0
 19 18  1  6
 19 20  1  0
 20 13  1  0
 21 25  1  0
 21 19  1  0
 22 21  2  0
 24 23  1  1
 24 25  1  0
 24 26  1  0
 26 27  1  0
 28 26  2  0
M  END
$$$$
