WNA.pdb
     RDKit          3D

 28 29  0  0  1  0  0  0  0  0999 V2000
    6.4068  -18.4899   24.2736 N   0  0  0  0  0  0  0  0  0  0  0  0
    7.2883  -17.3666   24.0885 C   0  0  1  0  0  0  0  0  0  0  0  0
    7.6387  -16.6889   25.3729 C   0  0  0  0  0  0  0  0  0  0  0  0
    6.8441  -15.4645   25.6115 C   0  0  0  0  0  0  0  0  0  0  0  0
    5.4950  -15.4653   25.9735 C   0  0  0  0  0  0  0  0  0  0  0  0
    5.0628  -14.2038   26.1361 N   0  0  0  0  0  0  0  0  0  0  0  0
    6.0828  -13.3532   25.8932 C   0  0  0  0  0  0  0  0  0  0  0  0
    6.1856  -11.9810   25.9108 C   0  0  0  0  0  0  0  0  0  0  0  0
    7.3959  -11.3836   25.6015 C   0  0  0  0  0  0  0  0  0  0  0  0
    8.4968  -12.1279   25.2769 C   0  0  0  0  0  0  0  0  0  0  0  0
    8.3729  -13.5164   25.2649 C   0  0  0  0  0  0  0  0  0  0  0  0
    7.1842  -14.1309   25.5687 C   0  0  0  0  0  0  0  0  0  0  0  0
    8.4392  -17.7875   23.2893 C   0  0  0  0  0  0  0  0  0  0  0  0
    8.8003  -18.9895   23.3397 O   0  0  0  0  0  0  0  0  0  0  0  0
    9.0980  -17.5813   18.9438 N   0  0  0  0  0  0  0  0  0  0  0  0
    9.4944  -16.4000   19.6786 C   0  0  0  0  0  0  0  0  0  0  0  0
    8.7845  -15.3830   19.4866 O   0  0  0  0  0  0  0  0  0  0  0  0
   10.6665  -16.4988   20.5627 C   0  0  0  0  0  0  0  0  0  0  0  0
   10.4039  -17.3730   21.7315 C   0  0  2  0  0  0  0  0  0  0  0  0
    9.1924  -16.9407   22.4510 N   0  0  0  0  0  0  0  0  0  0  0  0
   11.5572  -17.2544   22.6885 C   0  0  0  0  0  0  0  0  0  0  0  0
   12.7350  -17.5049   22.3855 O   0  0  0  0  0  0  0  0  0  0  0  0
   12.0587  -15.7410   26.1266 C   0  0  0  0  0  0  0  0  0  0  0  0
   12.3959  -16.7222   25.0237 C   0  0  2  0  0  0  0  0  0  0  0  0
   11.3566  -16.8327   24.0472 N   0  0  0  0  0  0  0  0  0  0  0  0
   12.8121  -18.0177   25.5738 C   0  0  0  0  0  0  0  0  0  0  0  0
   12.1482  -19.2070   25.2238 O   0  0  0  0  0  0  0  0  0  0  0  0
   13.7634  -18.1417   26.3715 O   0  0  0  0  0  0  0  0  0  0  0  0
  2  1  1  1
  3  2  1  0
  4  5  2  0
  4  3  1  0
  6  5  1  0
  7 12  2  0
  7  6  1  0
  8  7  1  0
  9 10  1  0
  9  8  2  0
 10 11  2  0
 11 12  1  0
 12  4  1  0
 13 14  2  0
 13  2  1  0
 16 17  2  0
 16 15  1  0
 18 16  1  0
 19 18  1  6
 19 20  1  0
 20 13  1  0
 21 25  1  0
 21 19  1  0
 22 21  2  0
 24 23  1  1
 24 25  1  0
 24 26  1  0
 26 27  1  0
 28 26  2  0
M  END
$$$$
