WNA.pdb
     RDKit          3D

 28 29  0  0  1  0  0  0  0  0999 V2000
    6.0523  -17.9684   23.7285 N   0  0  0  0  0  0  0  0  0  0  0  0
    6.7980  -16.7376   23.6800 C   0  0  1  0  0  0  0  0  0  0  0  0
    7.4234  -16.3886   24.9911 C   0  0  0  0  0  0  0  0  0  0  0  0
    6.7659  -15.2414   25.6537 C   0  0  0  0  0  0  0  0  0  0  0  0
    5.5661  -15.3301   26.3634 C   0  0  0  0  0  0  0  0  0  0  0  0
    5.2380  -14.1268   26.8621 N   0  0  0  0  0  0  0  0  0  0  0  0
    6.1827  -13.2297   26.5077 C   0  0  0  0  0  0  0  0  0  0  0  0
    6.3337  -11.8823   26.7435 C   0  0  0  0  0  0  0  0  0  0  0  0
    7.4349  -11.2190   26.2288 C   0  0  0  0  0  0  0  0  0  0  0  0
    8.3803  -11.8736   25.4880 C   0  0  0  0  0  0  0  0  0  0  0  0
    8.2100  -13.2383   25.2603 C   0  0  0  0  0  0  0  0  0  0  0  0
    7.1275  -13.9171   25.7607 C   0  0  0  0  0  0  0  0  0  0  0  0
    7.7317  -16.7874   22.5548 C   0  0  0  0  0  0  0  0  0  0  0  0
    8.0869  -17.9094   22.1160 O   0  0  0  0  0  0  0  0  0  0  0  0
    7.4113  -12.9784   19.5090 N   0  0  0  0  0  0  0  0  0  0  0  0
    8.0644  -14.2571   19.3335 C   0  0  0  0  0  0  0  0  0  0  0  0
    7.4761  -15.0620   18.5710 O   0  0  0  0  0  0  0  0  0  0  0  0
    9.3290  -14.4896   20.0490 C   0  0  0  0  0  0  0  0  0  0  0  0
    9.2919  -15.7417   20.8428 C   0  0  2  0  0  0  0  0  0  0  0  0
    8.2776  -15.6595   21.9090 N   0  0  0  0  0  0  0  0  0  0  0  0
   10.6262  -15.9271   21.5098 C   0  0  0  0  0  0  0  0  0  0  0  0
   11.7089  -15.9245   20.9017 O   0  0  0  0  0  0  0  0  0  0  0  0
   11.9515  -15.5862   24.9841 C   0  0  0  0  0  0  0  0  0  0  0  0
   11.9591  -16.2828   23.6397 C   0  0  2  0  0  0  0  0  0  0  0  0
   10.7279  -16.1239   22.9293 N   0  0  0  0  0  0  0  0  0  0  0  0
   12.3742  -17.6846   23.7699 C   0  0  0  0  0  0  0  0  0  0  0  0
   13.7269  -18.0574   23.6752 O   0  0  0  0  0  0  0  0  0  0  0  0
   11.5673  -18.6152   23.9689 O   0  0  0  0  0  0  0  0  0  0  0  0
  2  1  1  1
  3  2  1  0
  4  5  2  0
  4  3  1  0
  6  5  1  0
  7 12  2  0
  7  6  1  0
  8  7  1  0
  9 10  1  0
  9  8  2  0
 10 11  2  0
 11 12  1  0
 12  4  1  0
 13 14  2  0
 13  2  1  0
 16 17  2  0
 16 15  1  0
 18 16  1  0
 19 18  1  1
 19 20  1  0
 20 13  1  0
 21 25  1  0
 21 19  1  0
 22 21  2  0
 24 23  1  1
 24 25  1  0
 24 26  1  0
 26 27  1  0
 28 26  2  0
M  END
$$$$
