CMK.pdb
     RDKit          3D

 24 23  0  0  1  0  0  0  0  0999 V2000
   28.1741  -19.9139  -16.2347 N   0  0  0  0  0  0  0  0  0  0  0  0
   27.9664  -19.3319  -14.9477 C   0  0  1  0  0  0  0  0  0  0  0  0
   27.3218  -17.9570  -15.0290 C   0  0  0  0  0  0  0  0  0  0  0  0
   25.8600  -17.9996  -16.0986 S   0  0  0  0  0  0  0  0  0  0  0  0
   27.1153  -20.1536  -14.0608 C   0  0  0  0  0  0  0  0  0  0  0  0
   26.5440  -21.1515  -14.6049 O   0  0  0  0  0  0  0  0  0  0  0  0
   26.7975  -20.1249   -7.5889 C   0  0  0  0  0  0  0  0  0  0  0  0
   25.0996  -20.6945   -7.9461 S   0  0  0  0  0  0  0  0  0  0  0  0
   25.0746  -21.2331   -9.6865 C   0  0  0  0  0  0  0  0  0  0  0  0
   26.0333  -20.3279  -10.4461 C   0  0  0  0  0  0  0  0  0  0  0  0
   26.0254  -20.6495  -11.9223 C   0  0  2  0  0  0  0  0  0  0  0  0
   26.9359  -19.8612  -12.6850 N   0  0  0  0  0  0  0  0  0  0  0  0
   24.6320  -20.3273  -12.3969 C   0  0  0  0  0  0  0  0  0  0  0  0
   24.3586  -19.1630  -12.8496 O   0  0  0  0  0  0  0  0  0  0  0  0
   23.5996  -21.2612  -12.3655 N   0  0  0  0  0  0  0  0  0  0  0  0
   22.2427  -20.8491  -12.9241 C   0  0  1  0  0  0  0  0  0  0  0  0
   22.0236  -21.9093  -13.9394 C   0  0  0  0  0  0  0  0  0  0  0  0
   20.7552  -21.9898  -14.6312 C   0  0  0  0  0  0  0  0  0  0  0  0
   20.5969  -23.0559  -15.6467 C   0  0  0  0  0  0  0  0  0  0  0  0
   19.1278  -23.0271  -16.1740 C   0  0  0  0  0  0  0  0  0  0  0  0
   18.9911  -23.9807  -17.2347 N   0  0  0  0  0  0  0  0  0  0  0  0
   21.3951  -20.8812  -11.7127 C   0  0  0  0  0  0  0  0  0  0  0  0
   21.8084  -21.5878  -10.7167 O   0  0  0  0  0  0  0  0  0  0  0  0
   20.2045  -20.2525  -11.4730 O   0  0  0  0  0  0  0  0  0  0  0  0
  2  1  1  6
  2  3  1  0
  3  4  1  0
  5  2  1  0
  5  6  2  0
  7  8  1  0
  8  9  1  0
  9 10  1  0
 11 10  1  1
 11 12  1  0
 11 13  1  0
 12  5  1  0
 13 15  1  0
 13 14  2  0
 15 16  1  0
 16 22  1  0
 16 17  1  6
 18 17  1  0
 18 19  1  0
 19 20  1  0
 21 20  1  0
 22 23  2  0
 22 24  1  0
M  END
$$$$
