CMK.pdb
     RDKit          3D

 24 23  0  0  1  0  0  0  0  0999 V2000
   28.1944  -21.1398  -15.7528 N   0  0  0  0  0  0  0  0  0  0  0  0
   27.9390  -20.2205  -14.6907 C   0  0  1  0  0  0  0  0  0  0  0  0
   27.3259  -18.9192  -15.1834 C   0  0  0  0  0  0  0  0  0  0  0  0
   28.5824  -17.8808  -15.9745 S   0  0  0  0  0  0  0  0  0  0  0  0
   27.0321  -20.7571  -13.6535 C   0  0  0  0  0  0  0  0  0  0  0  0
   26.1848  -21.6207  -14.0470 O   0  0  0  0  0  0  0  0  0  0  0  0
   27.5232  -20.0881   -7.3172 C   0  0  0  0  0  0  0  0  0  0  0  0
   25.7354  -20.4601   -7.3322 S   0  0  0  0  0  0  0  0  0  0  0  0
   25.3223  -21.0166   -9.0172 C   0  0  0  0  0  0  0  0  0  0  0  0
   26.3461  -20.3938   -9.9549 C   0  0  0  0  0  0  0  0  0  0  0  0
   26.1366  -20.8662  -11.3746 C   0  0  2  0  0  0  0  0  0  0  0  0
   27.0895  -20.3452  -12.2980 N   0  0  0  0  0  0  0  0  0  0  0  0
   24.7798  -20.3472  -11.7753 C   0  0  0  0  0  0  0  0  0  0  0  0
   24.5776  -19.0893  -11.8846 O   0  0  0  0  0  0  0  0  0  0  0  0
   23.7064  -21.1941  -12.0393 N   0  0  0  0  0  0  0  0  0  0  0  0
   22.4189  -20.5754  -12.5708 C   0  0  1  0  0  0  0  0  0  0  0  0
   22.5811  -20.7994  -14.0290 C   0  0  0  0  0  0  0  0  0  0  0  0
   21.9535  -19.8956  -14.9686 C   0  0  0  0  0  0  0  0  0  0  0  0
   22.8267  -18.9338  -15.6795 C   0  0  0  0  0  0  0  0  0  0  0  0
   21.9364  -18.0348  -16.5940 C   0  0  0  0  0  0  0  0  0  0  0  0
   22.7618  -17.0544  -17.2347 N   0  0  0  0  0  0  0  0  0  0  0  0
   21.3891  -21.3725  -11.8701 C   0  0  0  0  0  0  0  0  0  0  0  0
   20.3494  -20.7478  -11.4331 O   0  0  0  0  0  0  0  0  0  0  0  0
   21.3629  -22.7147  -11.6098 O   0  0  0  0  0  0  0  0  0  0  0  0
  2  1  1  6
  2  3  1  0
  3  4  1  0
  5  2  1  0
  5  6  2  0
  7  8  1  0
  8  9  1  0
  9 10  1  0
 11 10  1  1
 11 12  1  0
 11 13  1  0
 12  5  1  0
 13 15  1  0
 13 14  2  0
 15 16  1  0
 16 22  1  0
 16 17  1  6
 18 17  1  0
 18 19  1  0
 19 20  1  0
 21 20  1  0
 22 23  2  0
 22 24  1  0
M  END
$$$$
