CMK.pdb
     RDKit          3D

 24 23  0  0  1  0  0  0  0  0999 V2000
   14.7516  -12.8399  -10.5021 N   0  0  0  0  0  0  0  0  0  0  0  0
   14.5716  -11.5580  -11.1042 C   0  0  1  0  0  0  0  0  0  0  0  0
   13.3907  -10.8009  -10.5172 C   0  0  0  0  0  0  0  0  0  0  0  0
   11.8906  -11.8155  -10.5729 S   0  0  0  0  0  0  0  0  0  0  0  0
   15.7525  -10.6773  -10.9773 C   0  0  0  0  0  0  0  0  0  0  0  0
   16.3850  -10.7489   -9.8758 O   0  0  0  0  0  0  0  0  0  0  0  0
   22.5213   -8.7857  -13.2695 C   0  0  0  0  0  0  0  0  0  0  0  0
   20.8493   -8.9546  -13.9841 S   0  0  0  0  0  0  0  0  0  0  0  0
   19.6639   -8.5039  -12.6759 C   0  0  0  0  0  0  0  0  0  0  0  0
   18.4012   -9.3171  -12.9205 C   0  0  0  0  0  0  0  0  0  0  0  0
   17.3732   -9.0562  -11.8445 C   0  0  2  0  0  0  0  0  0  0  0  0
   16.1687   -9.8002  -12.0107 N   0  0  0  0  0  0  0  0  0  0  0  0
   17.0283   -7.5941  -11.9636 C   0  0  0  0  0  0  0  0  0  0  0  0
   16.3936   -7.1631  -12.9867 O   0  0  0  0  0  0  0  0  0  0  0  0
   17.3768   -6.6645  -10.9873 N   0  0  0  0  0  0  0  0  0  0  0  0
   16.9112   -5.2246  -11.1695 C   0  0  1  0  0  0  0  0  0  0  0  0
   16.3638   -4.9341   -9.8209 C   0  0  0  0  0  0  0  0  0  0  0  0
   15.9219   -3.5944   -9.4986 C   0  0  0  0  0  0  0  0  0  0  0  0
   15.4051   -3.3553   -8.1316 C   0  0  0  0  0  0  0  0  0  0  0  0
   14.9705   -1.8601   -8.0181 C   0  0  0  0  0  0  0  0  0  0  0  0
   14.3439   -1.6489   -6.7471 N   0  0  0  0  0  0  0  0  0  0  0  0
   18.1681   -4.5472  -11.5543 C   0  0  0  0  0  0  0  0  0  0  0  0
   19.2759   -5.1079  -11.2071 O   0  0  0  0  0  0  0  0  0  0  0  0
   18.3456   -3.3831  -12.2497 O   0  0  0  0  0  0  0  0  0  0  0  0
  2  1  1  1
  2  3  1  0
  3  4  1  0
  5  2  1  0
  5  6  2  0
  7  8  1  0
  8  9  1  0
  9 10  1  0
 11 10  1  6
 11 12  1  0
 11 13  1  0
 12  5  1  0
 13 15  1  0
 13 14  2  0
 15 16  1  0
 16 22  1  0
 16 17  1  1
 18 17  1  0
 18 19  1  0
 19 20  1  0
 21 20  1  0
 22 23  2  0
 22 24  1  0
M  END
$$$$
