QVC.pdb
     RDKit          3D

 23 22  0  0  1  0  0  0  0  0999 V2000
   15.0636  -12.6270  -17.4374 N   0  0  0  0  0  0  0  0  0  0  0  0
   15.7123  -13.6637  -18.1734 C   0  0  0  0  0  0  0  0  0  0  0  0
   15.0405  -14.2235  -19.0600 O   0  0  0  0  0  0  0  0  0  0  0  0
   17.1144  -13.9930  -17.8356 C   0  0  0  0  0  0  0  0  0  0  0  0
   17.7154  -13.1003  -16.7877 C   0  0  0  0  0  0  0  0  0  0  0  0
   19.1915  -13.3521  -16.5929 C   0  0  2  0  0  0  0  0  0  0  0  0
   19.2938  -14.6501  -15.9109 N   0  0  0  0  0  0  0  0  0  0  0  0
   19.7566  -12.2761  -15.7327 C   0  0  0  0  0  0  0  0  0  0  0  0
   19.5965  -12.2517  -14.4887 O   0  0  0  0  0  0  0  0  0  0  0  0
   23.0247  -11.2260  -14.7640 C   0  0  0  0  0  0  0  0  0  0  0  0
   22.4777  -10.0096  -15.4853 C   0  0  2  0  0  0  0  0  0  0  0  0
   22.8690   -8.7474  -14.7590 C   0  0  0  0  0  0  0  0  0  0  0  0
   20.9651  -10.0787  -15.5845 C   0  0  2  0  0  0  0  0  0  0  0  0
   20.5114  -11.2207  -16.3088 N   0  0  0  0  0  0  0  0  0  0  0  0
   20.3930   -8.8042  -16.0563 C   0  0  0  0  0  0  0  0  0  0  0  0
   20.5777   -8.4579  -17.2412 O   0  0  0  0  0  0  0  0  0  0  0  0
   19.6495   -8.0044  -15.1584 N   0  0  0  0  0  0  0  0  0  0  0  0
   18.9388   -6.8075  -15.5829 C   0  0  1  0  0  0  0  0  0  0  0  0
   17.6611   -6.5979  -14.8148 C   0  0  0  0  0  0  0  0  0  0  0  0
   16.5909   -8.0384  -15.1857 S   0  0  0  0  0  0  0  0  0  0  0  0
   19.8461   -5.6591  -15.5162 C   0  0  0  0  0  0  0  0  0  0  0  0
   20.9428   -5.7378  -14.9183 O   0  0  0  0  0  0  0  0  0  0  0  0
   19.5286   -4.4419  -16.1107 O   0  0  0  0  0  0  0  0  0  0  0  0
  2  3  2  0
  2  1  1  0
  4  2  1  0
  5  4  1  0
  6  5  1  0
  6  7  1  1
  8  6  1  0
  8  9  2  0
 11 10  1  1
 11 13  1  0
 12 11  1  0
 13 14  1  6
 14  8  1  0
 15 13  1  0
 16 15  2  0
 17 15  1  0
 18 17  1  0
 18 21  1  0
 18 19  1  1
 20 19  1  0
 21 23  1  0
 22 21  2  0
M  END
$$$$
