QVC.pdb
     RDKit          3D

 23 22  0  0  1  0  0  0  0  0999 V2000
   22.6882  -24.1652  -14.1183 N   0  0  0  0  0  0  0  0  0  0  0  0
   23.6626  -24.9910  -13.4812 C   0  0  0  0  0  0  0  0  0  0  0  0
   23.4432  -26.2169  -13.4834 O   0  0  0  0  0  0  0  0  0  0  0  0
   24.8451  -24.3414  -12.8742 C   0  0  0  0  0  0  0  0  0  0  0  0
   24.8489  -22.8444  -12.9969 C   0  0  0  0  0  0  0  0  0  0  0  0
   25.1446  -22.3815  -14.4034 C   0  0  2  0  0  0  0  0  0  0  0  0
   26.5450  -22.7449  -14.6628 N   0  0  0  0  0  0  0  0  0  0  0  0
   24.9784  -20.9035  -14.4715 C   0  0  0  0  0  0  0  0  0  0  0  0
   25.8744  -20.1053  -14.1056 O   0  0  0  0  0  0  0  0  0  0  0  0
   26.0393  -18.6911  -15.7775 C   0  0  0  0  0  0  0  0  0  0  0  0
   24.6290  -18.4595  -16.2838 C   0  0  2  0  0  0  0  0  0  0  0  0
   24.3962  -16.9917  -16.5390 C   0  0  0  0  0  0  0  0  0  0  0  0
   23.6083  -18.9582  -15.2777 C   0  0  2  0  0  0  0  0  0  0  0  0
   23.7721  -20.3402  -14.9646 N   0  0  0  0  0  0  0  0  0  0  0  0
   22.2350  -18.5919  -15.6703 C   0  0  0  0  0  0  0  0  0  0  0  0
   21.7743  -19.0282  -16.7452 O   0  0  0  0  0  0  0  0  0  0  0  0
   21.4720  -17.7564  -14.8227 N   0  0  0  0  0  0  0  0  0  0  0  0
   20.0655  -17.4722  -15.0656 C   0  0  1  0  0  0  0  0  0  0  0  0
   19.2145  -17.7120  -13.8471 C   0  0  0  0  0  0  0  0  0  0  0  0
   20.1512  -18.8707  -12.7803 S   0  0  0  0  0  0  0  0  0  0  0  0
   19.9337  -16.1155  -15.6026 C   0  0  0  0  0  0  0  0  0  0  0  0
   20.9203  -15.3479  -15.6642 O   0  0  0  0  0  0  0  0  0  0  0  0
   18.7149  -15.6274  -16.0631 O   0  0  0  0  0  0  0  0  0  0  0  0
  2  3  2  0
  2  1  1  0
  4  2  1  0
  5  4  1  0
  6  5  1  0
  6  7  1  1
  8  6  1  0
  8  9  2  0
 11 10  1  1
 11 13  1  0
 12 11  1  0
 13 14  1  6
 14  8  1  0
 15 13  1  0
 16 15  2  0
 17 15  1  0
 18 17  1  0
 18 21  1  0
 18 19  1  1
 20 19  1  0
 21 23  1  0
 22 21  2  0
M  END
$$$$
