QVC.pdb
     RDKit          3D

 23 22  0  0  1  0  0  0  0  0999 V2000
   17.2680   -9.4703  -16.7057 N   0  0  0  0  0  0  0  0  0  0  0  0
   17.3003  -10.4614  -17.7324 C   0  0  0  0  0  0  0  0  0  0  0  0
   16.2693  -10.5878  -18.4193 O   0  0  0  0  0  0  0  0  0  0  0  0
   18.5373  -11.2544  -17.9044 C   0  0  0  0  0  0  0  0  0  0  0  0
   19.6232  -10.9111  -16.9250 C   0  0  0  0  0  0  0  0  0  0  0  0
   20.8444  -11.7840  -17.0883 C   0  0  2  0  0  0  0  0  0  0  0  0
   20.4044  -13.1547  -16.7913 N   0  0  0  0  0  0  0  0  0  0  0  0
   21.8802  -11.3554  -16.1084 C   0  0  0  0  0  0  0  0  0  0  0  0
   21.7418  -11.5044  -14.8704 O   0  0  0  0  0  0  0  0  0  0  0  0
   25.6810  -12.1400  -16.3250 C   0  0  0  0  0  0  0  0  0  0  0  0
   25.5073  -10.6389  -16.2005 C   0  0  2  0  0  0  0  0  0  0  0  0
   26.5374  -10.0665  -15.2597 C   0  0  0  0  0  0  0  0  0  0  0  0
   24.1203  -10.2993  -15.6869 C   0  0  2  0  0  0  0  0  0  0  0  0
   23.0841  -10.7510  -16.5568 N   0  0  0  0  0  0  0  0  0  0  0  0
   24.0122   -8.8764  -15.3152 C   0  0  0  0  0  0  0  0  0  0  0  0
   24.7994   -8.4094  -14.4666 O   0  0  0  0  0  0  0  0  0  0  0  0
   23.0217   -8.0743  -15.9269 N   0  0  0  0  0  0  0  0  0  0  0  0
   22.8714   -6.6573  -15.6310 C   0  0  1  0  0  0  0  0  0  0  0  0
   22.8402   -5.8127  -16.8768 C   0  0  0  0  0  0  0  0  0  0  0  0
   22.4637   -4.1032  -16.3350 S   0  0  0  0  0  0  0  0  0  0  0  0
   21.6977   -6.4656  -14.7753 C   0  0  0  0  0  0  0  0  0  0  0  0
   20.6362   -7.0940  -14.9867 O   0  0  0  0  0  0  0  0  0  0  0  0
   21.7142   -5.5831  -13.6998 O   0  0  0  0  0  0  0  0  0  0  0  0
  2  3  2  0
  2  1  1  0
  4  2  1  0
  5  4  1  0
  6  5  1  0
  6  7  1  1
  8  6  1  0
  8  9  2  0
 11 10  1  1
 11 13  1  0
 12 11  1  0
 13 14  1  6
 14  8  1  0
 15 13  1  0
 16 15  2  0
 17 15  1  0
 18 17  1  0
 18 21  1  0
 18 19  1  6
 20 19  1  0
 21 23  1  0
 22 21  2  0
M  END
$$$$
