QVC.pdb
     RDKit          3D

 23 22  0  0  1  0  0  0  0  0999 V2000
   25.5516  -23.8071  -12.8036 N   0  0  0  0  0  0  0  0  0  0  0  0
   24.5139  -22.8950  -12.4451 C   0  0  0  0  0  0  0  0  0  0  0  0
   23.3516  -23.3419  -12.4488 O   0  0  0  0  0  0  0  0  0  0  0  0
   24.8882  -21.5061  -12.0995 C   0  0  0  0  0  0  0  0  0  0  0  0
   24.0216  -20.4623  -12.7442 C   0  0  0  0  0  0  0  0  0  0  0  0
   24.1097  -20.4900  -14.2514 C   0  0  2  0  0  0  0  0  0  0  0  0
   25.4405  -19.9649  -14.5885 N   0  0  0  0  0  0  0  0  0  0  0  0
   23.0528  -19.6052  -14.8143 C   0  0  0  0  0  0  0  0  0  0  0  0
   23.0076  -18.3735  -14.5803 O   0  0  0  0  0  0  0  0  0  0  0  0
   22.3982  -18.4208  -18.0328 C   0  0  0  0  0  0  0  0  0  0  0  0
   21.1231  -19.1753  -17.7105 C   0  0  2  0  0  0  0  0  0  0  0  0
   19.9225  -18.4248  -18.2292 C   0  0  0  0  0  0  0  0  0  0  0  0
   20.9789  -19.3716  -16.2127 C   0  0  2  0  0  0  0  0  0  0  0  0
   22.0406  -20.1421  -15.6527 N   0  0  0  0  0  0  0  0  0  0  0  0
   19.6333  -19.8577  -15.8558 C   0  0  0  0  0  0  0  0  0  0  0  0
   19.3273  -21.0402  -16.1128 O   0  0  0  0  0  0  0  0  0  0  0  0
   18.7214  -18.9758  -15.2318 N   0  0  0  0  0  0  0  0  0  0  0  0
   17.3730  -19.3794  -14.8618 C   0  0  1  0  0  0  0  0  0  0  0  0
   16.8753  -18.6581  -13.6378 C   0  0  0  0  0  0  0  0  0  0  0  0
   15.1652  -19.2487  -13.3473 S   0  0  0  0  0  0  0  0  0  0  0  0
   16.4891  -19.2260  -16.0202 C   0  0  0  0  0  0  0  0  0  0  0  0
   16.5862  -18.2350  -16.7784 O   0  0  0  0  0  0  0  0  0  0  0  0
   15.5121  -20.1689  -16.3233 O   0  0  0  0  0  0  0  0  0  0  0  0
  2  3  2  0
  2  1  1  0
  4  2  1  0
  5  4  1  0
  6  5  1  0
  6  7  1  1
  8  6  1  0
  8  9  2  0
 11 10  1  1
 11 13  1  0
 12 11  1  0
 13 14  1  6
 14  8  1  0
 15 13  1  0
 16 15  2  0
 17 15  1  0
 18 17  1  0
 18 21  1  0
 18 19  1  1
 20 19  1  0
 21 23  1  0
 22 21  2  0
M  END
$$$$
