QVC.pdb
     RDKit          3D

 23 22  0  0  1  0  0  0  0  0999 V2000
   19.8484  -10.5596  -20.3491 N   0  0  0  0  0  0  0  0  0  0  0  0
   18.5076  -11.0488  -20.3484 C   0  0  0  0  0  0  0  0  0  0  0  0
   18.0868  -11.5266  -21.4186 O   0  0  0  0  0  0  0  0  0  0  0  0
   17.7265  -10.9552  -19.0955 C   0  0  0  0  0  0  0  0  0  0  0  0
   18.4638  -10.2965  -17.9647 C   0  0  0  0  0  0  0  0  0  0  0  0
   19.3453  -11.2628  -17.2103 C   0  0  2  0  0  0  0  0  0  0  0  0
   18.4397  -12.2537  -16.6116 N   0  0  0  0  0  0  0  0  0  0  0  0
   20.0718  -10.5225  -16.1421 C   0  0  0  0  0  0  0  0  0  0  0  0
   19.5675  -10.2926  -15.0167 O   0  0  0  0  0  0  0  0  0  0  0  0
   24.3535   -9.6590  -16.5345 C   0  0  0  0  0  0  0  0  0  0  0  0
   23.5638   -9.8578  -15.2555 C   0  0  2  0  0  0  0  0  0  0  0  0
   23.5018  -11.3213  -14.8978 C   0  0  0  0  0  0  0  0  0  0  0  0
   22.1523   -9.3217  -15.4066 C   0  0  2  0  0  0  0  0  0  0  0  0
   21.3885  -10.0433  -16.3712 N   0  0  0  0  0  0  0  0  0  0  0  0
   22.1449   -7.8609  -15.6080 C   0  0  0  0  0  0  0  0  0  0  0  0
   22.0688   -7.4088  -16.7690 O   0  0  0  0  0  0  0  0  0  0  0  0
   22.2239   -7.0066  -14.4844 N   0  0  0  0  0  0  0  0  0  0  0  0
   22.2539   -5.5567  -14.6059 C   0  0  1  0  0  0  0  0  0  0  0  0
   21.0666   -5.0209  -15.3607 C   0  0  0  0  0  0  0  0  0  0  0  0
   19.5835   -5.4788  -14.3868 S   0  0  0  0  0  0  0  0  0  0  0  0
   22.4052   -4.9646  -13.2744 C   0  0  0  0  0  0  0  0  0  0  0  0
   22.3716   -5.6756  -12.2450 O   0  0  0  0  0  0  0  0  0  0  0  0
   22.5913   -3.5968  -13.1001 O   0  0  0  0  0  0  0  0  0  0  0  0
  2  3  2  0
  2  1  1  0
  4  2  1  0
  5  4  1  0
  6  5  1  0
  6  7  1  1
  8  6  1  0
  8  9  2  0
 11 10  1  6
 11 13  1  0
 12 11  1  0
 13 14  1  6
 14  8  1  0
 15 13  1  0
 16 15  2  0
 17 15  1  0
 18 17  1  0
 18 21  1  0
 18 19  1  1
 20 19  1  0
 21 23  1  0
 22 21  2  0
M  END
$$$$
