QVC.pdb
     RDKit          3D

 23 22  0  0  1  0  0  0  0  0999 V2000
   21.0532  -16.0707  -14.1537 N   0  0  0  0  0  0  0  0  0  0  0  0
   20.9108  -17.2226  -14.9846 C   0  0  0  0  0  0  0  0  0  0  0  0
   20.6789  -18.3018  -14.4081 O   0  0  0  0  0  0  0  0  0  0  0  0
   21.0463  -17.0540  -16.4480 C   0  0  0  0  0  0  0  0  0  0  0  0
   21.2537  -15.6309  -16.8816 C   0  0  0  0  0  0  0  0  0  0  0  0
   20.0063  -15.0210  -17.4749 C   0  0  2  0  0  0  0  0  0  0  0  0
   19.7748  -15.7267  -18.7432 N   0  0  0  0  0  0  0  0  0  0  0  0
   20.2495  -13.5746  -17.7311 C   0  0  0  0  0  0  0  0  0  0  0  0
   21.1027  -13.1688  -18.5566 O   0  0  0  0  0  0  0  0  0  0  0  0
   18.3335  -10.9834  -19.3194 C   0  0  0  0  0  0  0  0  0  0  0  0
   18.4660  -10.5346  -17.8771 C   0  0  2  0  0  0  0  0  0  0  0  0
   18.6108   -9.0354  -17.8040 C   0  0  0  0  0  0  0  0  0  0  0  0
   19.6702  -11.1840  -17.2208 C   0  0  2  0  0  0  0  0  0  0  0  0
   19.5052  -12.5881  -17.0321 N   0  0  0  0  0  0  0  0  0  0  0  0
   20.0812  -10.4604  -16.0035 C   0  0  0  0  0  0  0  0  0  0  0  0
   19.3128  -10.4418  -15.0200 O   0  0  0  0  0  0  0  0  0  0  0  0
   21.3336   -9.8051  -15.9770 N   0  0  0  0  0  0  0  0  0  0  0  0
   21.8136   -9.0842  -14.8074 C   0  0  1  0  0  0  0  0  0  0  0  0
   23.3155   -9.0957  -14.7047 C   0  0  0  0  0  0  0  0  0  0  0  0
   23.8011  -10.8362  -14.4004 S   0  0  0  0  0  0  0  0  0  0  0  0
   21.2465   -7.7333  -14.8077 C   0  0  0  0  0  0  0  0  0  0  0  0
   21.0356   -7.1228  -15.8797 O   0  0  0  0  0  0  0  0  0  0  0  0
   20.9209   -7.0777  -13.6246 O   0  0  0  0  0  0  0  0  0  0  0  0
  2  3  2  0
  2  1  1  0
  4  2  1  0
  5  4  1  0
  6  5  1  0
  6  7  1  6
  8  6  1  0
  8  9  2  0
 11 10  1  6
 11 13  1  0
 12 11  1  0
 13 14  1  1
 14  8  1  0
 15 13  1  0
 16 15  2  0
 17 15  1  0
 18 17  1  0
 18 21  1  0
 18 19  1  6
 20 19  1  0
 21 23  1  0
 22 21  2  0
M  END
$$$$
