QVC.pdb
     RDKit          3D

 23 22  0  0  1  0  0  0  0  0999 V2000
   27.5619  -17.3828  -19.9340 N   0  0  0  0  0  0  0  0  0  0  0  0
   28.4015  -16.7854  -18.9463 C   0  0  0  0  0  0  0  0  0  0  0  0
   29.5887  -16.5893  -19.2669 O   0  0  0  0  0  0  0  0  0  0  0  0
   27.8098  -16.4469  -17.6333 C   0  0  0  0  0  0  0  0  0  0  0  0
   26.9513  -17.5340  -17.0524 C   0  0  0  0  0  0  0  0  0  0  0  0
   27.7635  -18.6041  -16.3630 C   0  0  2  0  0  0  0  0  0  0  0  0
   28.4365  -19.3536  -17.4334 N   0  0  0  0  0  0  0  0  0  0  0  0
   26.8432  -19.5011  -15.6110 C   0  0  0  0  0  0  0  0  0  0  0  0
   26.1567  -20.3887  -16.1721 O   0  0  0  0  0  0  0  0  0  0  0  0
   27.7981  -21.0000  -12.1260 C   0  0  0  0  0  0  0  0  0  0  0  0
   26.3827  -20.4647  -12.0313 C   0  0  2  0  0  0  0  0  0  0  0  0
   25.4874  -21.4639  -11.3430 C   0  0  0  0  0  0  0  0  0  0  0  0
   25.8275  -20.1665  -13.4118 C   0  0  2  0  0  0  0  0  0  0  0  0
   26.7121  -19.3752  -14.2029 N   0  0  0  0  0  0  0  0  0  0  0  0
   24.4525  -19.6386  -13.3417 C   0  0  0  0  0  0  0  0  0  0  0  0
   24.2630  -18.4156  -13.5038 O   0  0  0  0  0  0  0  0  0  0  0  0
   23.3815  -20.5273  -13.0930 N   0  0  0  0  0  0  0  0  0  0  0  0
   21.9950  -20.1736  -13.3588 C   0  0  1  0  0  0  0  0  0  0  0  0
   21.7884  -19.6882  -14.7688 C   0  0  0  0  0  0  0  0  0  0  0  0
   19.9969  -19.3444  -14.9416 S   0  0  0  0  0  0  0  0  0  0  0  0
   21.1332  -21.3050  -13.0069 C   0  0  0  0  0  0  0  0  0  0  0  0
   21.3994  -22.4640  -13.3968 O   0  0  0  0  0  0  0  0  0  0  0  0
   19.9910  -21.1390  -12.2300 O   0  0  0  0  0  0  0  0  0  0  0  0
  2  3  2  0
  2  1  1  0
  4  2  1  0
  5  4  1  0
  6  5  1  0
  6  7  1  6
  8  6  1  0
  8  9  2  0
 11 10  1  6
 11 13  1  0
 12 11  1  0
 13 14  1  1
 14  8  1  0
 15 13  1  0
 16 15  2  0
 17 15  1  0
 18 17  1  0
 18 21  1  0
 18 19  1  6
 20 19  1  0
 21 23  1  0
 22 21  2  0
M  END
$$$$
