QVC.pdb
     RDKit          3D

 23 22  0  0  1  0  0  0  0  0999 V2000
   15.9864  -12.4666  -13.3693 N   0  0  0  0  0  0  0  0  0  0  0  0
   14.8934  -12.1585  -14.2341 C   0  0  0  0  0  0  0  0  0  0  0  0
   13.8233  -12.7573  -14.0168 O   0  0  0  0  0  0  0  0  0  0  0  0
   15.1070  -11.1651  -15.3093 C   0  0  0  0  0  0  0  0  0  0  0  0
   16.5008  -10.6071  -15.3563 C   0  0  0  0  0  0  0  0  0  0  0  0
   17.1930  -10.8936  -16.6673 C   0  0  2  0  0  0  0  0  0  0  0  0
   17.4607  -12.3389  -16.6759 N   0  0  0  0  0  0  0  0  0  0  0  0
   18.4737  -10.1357  -16.7142 C   0  0  0  0  0  0  0  0  0  0  0  0
   19.5444  -10.5885  -16.2425 O   0  0  0  0  0  0  0  0  0  0  0  0
   20.1715   -8.5318  -19.7952 C   0  0  0  0  0  0  0  0  0  0  0  0
   19.9102   -7.4483  -18.7672 C   0  0  2  0  0  0  0  0  0  0  0  0
   21.0669   -6.4823  -18.7156 C   0  0  0  0  0  0  0  0  0  0  0  0
   19.7037   -8.0522  -17.3905 C   0  0  2  0  0  0  0  0  0  0  0  0
   18.5223   -8.8472  -17.3086 N   0  0  0  0  0  0  0  0  0  0  0  0
   19.8158   -7.0350  -16.3289 C   0  0  0  0  0  0  0  0  0  0  0  0
   18.8754   -6.2330  -16.1552 O   0  0  0  0  0  0  0  0  0  0  0  0
   20.9834   -6.9906  -15.5330 N   0  0  0  0  0  0  0  0  0  0  0  0
   21.1563   -6.0313  -14.4523 C   0  0  1  0  0  0  0  0  0  0  0  0
   21.8468   -6.6334  -13.2577 C   0  0  0  0  0  0  0  0  0  0  0  0
   22.0908   -5.2698  -12.0582 S   0  0  0  0  0  0  0  0  0  0  0  0
   21.8338   -4.8397  -14.9696 C   0  0  0  0  0  0  0  0  0  0  0  0
   22.7739   -4.9377  -15.7899 O   0  0  0  0  0  0  0  0  0  0  0  0
   21.4629   -3.5588  -14.5731 O   0  0  0  0  0  0  0  0  0  0  0  0
  2  3  2  0
  2  1  1  0
  4  2  1  0
  5  4  1  0
  6  5  1  0
  6  7  1  1
  8  6  1  0
  8  9  2  0
 11 10  1  6
 11 13  1  0
 12 11  1  0
 13 14  1  6
 14  8  1  0
 15 13  1  0
 16 15  2  0
 17 15  1  0
 18 17  1  0
 18 21  1  0
 18 19  1  1
 20 19  1  0
 21 23  1  0
 22 21  2  0
M  END
$$$$
