QVC.pdb
     RDKit          3D

 23 22  0  0  1  0  0  0  0  0999 V2000
   19.9026  -18.3179  -16.9827 N   0  0  0  0  0  0  0  0  0  0  0  0
   18.8005  -17.4550  -16.7029 C   0  0  0  0  0  0  0  0  0  0  0  0
   17.6911  -17.9987  -16.5471 O   0  0  0  0  0  0  0  0  0  0  0  0
   19.0518  -15.9996  -16.6189 C   0  0  0  0  0  0  0  0  0  0  0  0
   20.4740  -15.6085  -16.9030 C   0  0  0  0  0  0  0  0  0  0  0  0
   20.6195  -14.8748  -18.2147 C   0  0  2  0  0  0  0  0  0  0  0  0
   21.4336  -15.7439  -19.0762 N   0  0  0  0  0  0  0  0  0  0  0  0
   21.3264  -13.5869  -17.9730 C   0  0  0  0  0  0  0  0  0  0  0  0
   22.5174  -13.5328  -17.5824 O   0  0  0  0  0  0  0  0  0  0  0  0
   19.9521  -10.0850  -19.9001 C   0  0  0  0  0  0  0  0  0  0  0  0
   21.3412  -10.2964  -19.3301 C   0  0  2  0  0  0  0  0  0  0  0  0
   22.2047  -11.0457  -20.3133 C   0  0  0  0  0  0  0  0  0  0  0  0
   21.2755  -11.0758  -18.0298 C   0  0  2  0  0  0  0  0  0  0  0  0
   20.6574  -12.3522  -18.1824 N   0  0  0  0  0  0  0  0  0  0  0  0
   20.7093  -10.2630  -16.9375 C   0  0  0  0  0  0  0  0  0  0  0  0
   19.4731  -10.2550  -16.7651 O   0  0  0  0  0  0  0  0  0  0  0  0
   21.5770   -9.5125  -16.1114 N   0  0  0  0  0  0  0  0  0  0  0  0
   21.0979   -8.7314  -14.9807 C   0  0  1  0  0  0  0  0  0  0  0  0
   21.9441   -8.9264  -13.7510 C   0  0  0  0  0  0  0  0  0  0  0  0
   21.2312   -7.8455  -12.4543 S   0  0  0  0  0  0  0  0  0  0  0  0
   20.9783   -7.3272  -15.3812 C   0  0  0  0  0  0  0  0  0  0  0  0
   21.8255   -6.7973  -16.1347 O   0  0  0  0  0  0  0  0  0  0  0  0
   19.9254   -6.5301  -14.9435 O   0  0  0  0  0  0  0  0  0  0  0  0
  2  3  2  0
  2  1  1  0
  4  2  1  0
  5  4  1  0
  6  5  1  0
  6  7  1  6
  8  6  1  0
  8  9  2  0
 11 10  1  6
 11 13  1  0
 12 11  1  0
 13 14  1  6
 14  8  1  0
 15 13  1  0
 16 15  2  0
 17 15  1  0
 18 17  1  0
 18 21  1  0
 18 19  1  1
 20 19  1  0
 21 23  1  0
 22 21  2  0
M  END
$$$$
