QVC.pdb
     RDKit          3D

 23 22  0  0  1  0  0  0  0  0999 V2000
   19.1248  -13.4426  -15.1811 N   0  0  0  0  0  0  0  0  0  0  0  0
   17.7609  -13.8186  -15.3699 C   0  0  0  0  0  0  0  0  0  0  0  0
   17.4167  -14.9224  -14.9074 O   0  0  0  0  0  0  0  0  0  0  0  0
   16.8680  -12.8842  -16.0897 C   0  0  0  0  0  0  0  0  0  0  0  0
   17.4856  -11.5440  -16.3701 C   0  0  0  0  0  0  0  0  0  0  0  0
   16.5161  -10.5870  -17.0215 C   0  0  2  0  0  0  0  0  0  0  0  0
   16.2894  -11.1026  -18.3792 N   0  0  0  0  0  0  0  0  0  0  0  0
   17.1384   -9.2359  -17.0846 C   0  0  0  0  0  0  0  0  0  0  0  0
   17.9063   -8.8884  -18.0138 O   0  0  0  0  0  0  0  0  0  0  0  0
   15.4438   -6.0047  -17.4416 C   0  0  0  0  0  0  0  0  0  0  0  0
   16.2091   -5.9190  -16.1355 C   0  0  2  0  0  0  0  0  0  0  0  0
   16.7777   -4.5349  -15.9489 C   0  0  0  0  0  0  0  0  0  0  0  0
   17.3404   -6.9300  -16.1082 C   0  0  2  0  0  0  0  0  0  0  0  0
   16.8748   -8.2778  -16.0706 N   0  0  0  0  0  0  0  0  0  0  0  0
   18.3305   -6.6091  -15.0637 C   0  0  0  0  0  0  0  0  0  0  0  0
   18.0425   -6.8233  -13.8682 O   0  0  0  0  0  0  0  0  0  0  0  0
   19.5813   -6.0671  -15.4383 N   0  0  0  0  0  0  0  0  0  0  0  0
   20.6051   -5.7187  -14.4644 C   0  0  1  0  0  0  0  0  0  0  0  0
   21.7124   -6.7370  -14.4089 C   0  0  0  0  0  0  0  0  0  0  0  0
   22.9181   -6.1253  -13.1720 S   0  0  0  0  0  0  0  0  0  0  0  0
   21.0842   -4.3606  -14.7338 C   0  0  0  0  0  0  0  0  0  0  0  0
   21.0447   -3.8803  -15.8889 O   0  0  0  0  0  0  0  0  0  0  0  0
   21.5993   -3.5540  -13.7239 O   0  0  0  0  0  0  0  0  0  0  0  0
  2  3  2  0
  2  1  1  0
  4  2  1  0
  5  4  1  0
  6  5  1  0
  6  7  1  6
  8  6  1  0
  8  9  2  0
 11 10  1  6
 11 13  1  0
 12 11  1  0
 13 14  1  1
 14  8  1  0
 15 13  1  0
 16 15  2  0
 17 15  1  0
 18 17  1  0
 18 21  1  0
 18 19  1  6
 20 19  1  0
 21 23  1  0
 22 21  2  0
M  END
$$$$
