GAT.pdb
     RDKit          3D

 17 16  0  0  1  0  0  0  0  0999 V2000
    2.8957  -26.3602   31.0788 N   0  0  0  0  0  0  0  0  0  0  0  0
    1.8419  -26.4858   32.0355 C   0  0  0  0  0  0  0  0  0  0  0  0
    0.5494  -26.8863   31.4139 C   0  0  0  0  0  0  0  0  0  0  0  0
    0.3820  -26.9759   30.1719 O   0  0  0  0  0  0  0  0  0  0  0  0
   -2.6092  -28.4207   32.7991 C   0  0  0  0  0  0  0  0  0  0  0  0
   -1.8111  -27.6892   31.7100 C   0  0  2  0  0  0  0  0  0  0  0  0
   -0.5620  -27.1859   32.2575 N   0  0  0  0  0  0  0  0  0  0  0  0
   -2.6496  -26.5321   31.3064 C   0  0  0  0  0  0  0  0  0  0  0  0
   -2.6582  -25.5134   32.0183 O   0  0  0  0  0  0  0  0  0  0  0  0
   -2.9214  -24.7699   27.6756 C   0  0  0  0  0  0  0  0  0  0  0  0
   -4.2531  -25.1895   28.2544 C   0  0  1  0  0  0  0  0  0  0  0  0
   -4.6883  -26.3284   27.6052 O   0  0  0  0  0  0  0  0  0  0  0  0
   -4.1582  -25.3653   29.7558 C   0  0  2  0  0  0  0  0  0  0  0  0
   -3.4475  -26.5494   30.1270 N   0  0  0  0  0  0  0  0  0  0  0  0
   -5.5116  -25.3852   30.3210 C   0  0  0  0  0  0  0  0  0  0  0  0
   -6.0153  -26.3997   30.8819 O   0  0  0  0  0  0  0  0  0  0  0  0
   -6.2920  -24.2398   30.2443 O   0  0  0  0  0  0  0  0  0  0  0  0
  1  2  1  0
  2  3  1  0
  3  4  2  0
  6  5  1  1
  7  6  1  0
  7  3  1  0
  8  9  2  0
  8  6  1  0
 11 10  1  6
 11 13  1  0
 12 11  1  0
 13 15  1  0
 13 14  1  6
 14  8  1  0
 15 17  1  0
 16 15  2  0
M  END
$$$$
