GAT.pdb
     RDKit          3D

 17 16  0  0  1  0  0  0  0  0999 V2000
    4.9824  -22.0284   23.1071 N   0  0  0  0  0  0  0  0  0  0  0  0
    5.7151  -21.9852   24.3330 C   0  0  0  0  0  0  0  0  0  0  0  0
    6.2226  -20.6213   24.6485 C   0  0  0  0  0  0  0  0  0  0  0  0
    6.1223  -19.6500   23.8577 O   0  0  0  0  0  0  0  0  0  0  0  0
    7.4311  -18.9790   27.8259 C   0  0  0  0  0  0  0  0  0  0  0  0
    7.2953  -19.0620   26.2986 C   0  0  2  0  0  0  0  0  0  0  0  0
    6.8560  -20.3912   25.9065 N   0  0  0  0  0  0  0  0  0  0  0  0
    8.6614  -18.8388   25.7611 C   0  0  0  0  0  0  0  0  0  0  0  0
    9.4844  -19.7696   25.7945 O   0  0  0  0  0  0  0  0  0  0  0  0
    9.6906  -16.8001   22.4244 C   0  0  0  0  0  0  0  0  0  0  0  0
   10.5169  -16.4079   23.6277 C   0  0  1  0  0  0  0  0  0  0  0  0
   10.1409  -15.1445   24.0405 O   0  0  0  0  0  0  0  0  0  0  0  0
   10.4014  -17.4465   24.7241 C   0  0  2  0  0  0  0  0  0  0  0  0
    9.0628  -17.5902   25.2065 N   0  0  0  0  0  0  0  0  0  0  0  0
   11.3025  -17.0833   25.8230 C   0  0  0  0  0  0  0  0  0  0  0  0
   10.9000  -16.8050   26.9884 O   0  0  0  0  0  0  0  0  0  0  0  0
   12.6699  -17.0384   25.5878 O   0  0  0  0  0  0  0  0  0  0  0  0
  1  2  1  0
  2  3  1  0
  3  4  2  0
  6  5  1  1
  7  6  1  0
  7  3  1  0
  8  9  2  0
  8  6  1  0
 11 10  1  6
 11 13  1  0
 12 11  1  0
 13 15  1  0
 13 14  1  1
 14  8  1  0
 15 17  1  0
 16 15  2  0
M  END
$$$$
