GAT.pdb
     RDKit          3D

 17 16  0  0  1  0  0  0  0  0999 V2000
    5.9421  -18.5759   19.9996 N   0  0  0  0  0  0  0  0  0  0  0  0
    5.6544  -17.2165   20.3326 C   0  0  0  0  0  0  0  0  0  0  0  0
    6.8697  -16.3559   20.3246 C   0  0  0  0  0  0  0  0  0  0  0  0
    8.0378  -16.8157   20.2718 O   0  0  0  0  0  0  0  0  0  0  0  0
    7.4701  -12.6088   20.2637 C   0  0  0  0  0  0  0  0  0  0  0  0
    7.8584  -14.0615   20.5750 C   0  0  2  0  0  0  0  0  0  0  0  0
    6.7153  -14.9382   20.3792 N   0  0  0  0  0  0  0  0  0  0  0  0
    8.2261  -14.0795   22.0135 C   0  0  0  0  0  0  0  0  0  0  0  0
    8.2261  -13.0129   22.6516 O   0  0  0  0  0  0  0  0  0  0  0  0
    6.5823  -14.8016   24.9687 C   0  0  0  0  0  0  0  0  0  0  0  0
    7.7465  -15.7653   24.9430 C   0  0  1  0  0  0  0  0  0  0  0  0
    7.2981  -17.0032   24.5252 O   0  0  0  0  0  0  0  0  0  0  0  0
    8.8750  -15.2265   24.0883 C   0  0  2  0  0  0  0  0  0  0  0  0
    8.5802  -15.2815   22.6901 N   0  0  0  0  0  0  0  0  0  0  0  0
   10.0982  -15.9811   24.3812 C   0  0  0  0  0  0  0  0  0  0  0  0
   10.7073  -16.6780   23.5205 O   0  0  0  0  0  0  0  0  0  0  0  0
   10.6269  -15.9382   25.6640 O   0  0  0  0  0  0  0  0  0  0  0  0
  1  2  1  0
  2  3  1  0
  3  4  2  0
  6  5  1  1
  7  6  1  0
  7  3  1  0
  8  9  2  0
  8  6  1  0
 11 10  1  6
 11 13  1  0
 12 11  1  0
 13 15  1  0
 13 14  1  6
 14  8  1  0
 15 17  1  0
 16 15  2  0
M  END
$$$$
