GAT.pdb
     RDKit          3D

 17 16  0  0  1  0  0  0  0  0999 V2000
    6.2708  -18.5726   19.9228 N   0  0  0  0  0  0  0  0  0  0  0  0
    5.9370  -17.2778   20.4262 C   0  0  0  0  0  0  0  0  0  0  0  0
    7.1134  -16.3669   20.4877 C   0  0  0  0  0  0  0  0  0  0  0  0
    8.3013  -16.7766   20.4881 O   0  0  0  0  0  0  0  0  0  0  0  0
    7.5346  -12.5940   20.4293 C   0  0  0  0  0  0  0  0  0  0  0  0
    8.0045  -14.0296   20.7053 C   0  0  2  0  0  0  0  0  0  0  0  0
    6.8965  -14.9577   20.5496 N   0  0  0  0  0  0  0  0  0  0  0  0
    8.4367  -14.0447   22.1259 C   0  0  0  0  0  0  0  0  0  0  0  0
    9.5253  -13.5295   22.4327 O   0  0  0  0  0  0  0  0  0  0  0  0
    6.3854  -12.9255   25.3786 C   0  0  0  0  0  0  0  0  0  0  0  0
    6.9385  -14.3284   25.4801 C   0  0  1  0  0  0  0  0  0  0  0  0
    5.9110  -15.2327   25.2950 O   0  0  0  0  0  0  0  0  0  0  0  0
    8.0840  -14.5290   24.5096 C   0  0  2  0  0  0  0  0  0  0  0  0
    7.6437  -14.6313   23.1529 N   0  0  0  0  0  0  0  0  0  0  0  0
    8.8314  -15.7310   24.8946 C   0  0  0  0  0  0  0  0  0  0  0  0
    9.0505  -16.6948   24.1069 O   0  0  0  0  0  0  0  0  0  0  0  0
    9.3303  -15.8307   26.1862 O   0  0  0  0  0  0  0  0  0  0  0  0
  1  2  1  0
  2  3  1  0
  3  4  2  0
  6  5  1  1
  7  6  1  0
  7  3  1  0
  8  9  2  0
  8  6  1  0
 11 10  1  6
 11 13  1  0
 12 11  1  0
 13 15  1  0
 13 14  1  6
 14  8  1  0
 15 17  1  0
 16 15  2  0
M  END
$$$$
