GAT.pdb
     RDKit          3D

 17 16  0  0  1  0  0  0  0  0999 V2000
    7.8235  -12.5536   18.7590 N   0  0  0  0  0  0  0  0  0  0  0  0
    8.6379  -13.3991   19.5735 C   0  0  0  0  0  0  0  0  0  0  0  0
    7.9286  -13.8737   20.7938 C   0  0  0  0  0  0  0  0  0  0  0  0
    6.8421  -13.3842   21.1921 O   0  0  0  0  0  0  0  0  0  0  0  0
    8.2492  -16.9329   22.9571 C   0  0  0  0  0  0  0  0  0  0  0  0
    7.8176  -15.4780   22.7222 C   0  0  2  0  0  0  0  0  0  0  0  0
    8.4989  -14.9355   21.5581 N   0  0  0  0  0  0  0  0  0  0  0  0
    8.2646  -14.7275   23.9230 C   0  0  0  0  0  0  0  0  0  0  0  0
    9.4502  -14.3631   24.0023 O   0  0  0  0  0  0  0  0  0  0  0  0
    6.5641  -11.4941   25.6930 C   0  0  0  0  0  0  0  0  0  0  0  0
    6.7853  -12.6719   26.6141 C   0  0  1  0  0  0  0  0  0  0  0  0
    5.5794  -13.3113   26.8261 O   0  0  0  0  0  0  0  0  0  0  0  0
    7.8542  -13.5938   26.0649 C   0  0  2  0  0  0  0  0  0  0  0  0
    7.3781  -14.4096   24.9911 N   0  0  0  0  0  0  0  0  0  0  0  0
    8.3669  -14.4328   27.1534 C   0  0  0  0  0  0  0  0  0  0  0  0
    8.2738  -15.6933   27.1618 O   0  0  0  0  0  0  0  0  0  0  0  0
    8.9886  -13.8273   28.2368 O   0  0  0  0  0  0  0  0  0  0  0  0
  1  2  1  0
  2  3  1  0
  3  4  2  0
  6  5  1  1
  7  6  1  0
  7  3  1  0
  8  9  2  0
  8  6  1  0
 11 10  1  6
 11 13  1  0
 12 11  1  0
 13 15  1  0
 13 14  1  6
 14  8  1  0
 15 17  1  0
 16 15  2  0
M  END
$$$$
