GAT.pdb
     RDKit          3D

 17 16  0  0  1  0  0  0  0  0999 V2000
    7.8202  -16.7167   19.5077 N   0  0  0  0  0  0  0  0  0  0  0  0
    8.4713  -16.9181   20.7634 C   0  0  0  0  0  0  0  0  0  0  0  0
    7.6226  -16.5160   21.9191 C   0  0  0  0  0  0  0  0  0  0  0  0
    6.7226  -15.6427   21.8406 O   0  0  0  0  0  0  0  0  0  0  0  0
    7.0796  -17.8960   25.3927 C   0  0  0  0  0  0  0  0  0  0  0  0
    7.0493  -16.7686   24.3505 C   0  0  2  0  0  0  0  0  0  0  0  0
    7.8303  -17.1445   23.1834 N   0  0  0  0  0  0  0  0  0  0  0  0
    7.7021  -15.6036   24.9999 C   0  0  0  0  0  0  0  0  0  0  0  0
    8.9257  -15.4387   24.8578 O   0  0  0  0  0  0  0  0  0  0  0  0
    6.4919  -11.6270   25.2854 C   0  0  0  0  0  0  0  0  0  0  0  0
    6.7602  -12.3578   26.5810 C   0  0  1  0  0  0  0  0  0  0  0  0
    5.5554  -12.6999   27.1636 O   0  0  0  0  0  0  0  0  0  0  0  0
    7.6649  -13.5506   26.3509 C   0  0  2  0  0  0  0  0  0  0  0  0
    6.9716  -14.6651   25.7831 N   0  0  0  0  0  0  0  0  0  0  0  0
    8.2858  -13.9318   27.6239 C   0  0  0  0  0  0  0  0  0  0  0  0
    8.1841  -15.0863   28.1282 O   0  0  0  0  0  0  0  0  0  0  0  0
    9.0262  -12.9883   28.3230 O   0  0  0  0  0  0  0  0  0  0  0  0
  1  2  1  0
  2  3  1  0
  3  4  2  0
  6  5  1  1
  7  6  1  0
  7  3  1  0
  8  9  2  0
  8  6  1  0
 11 10  1  6
 11 13  1  0
 12 11  1  0
 13 15  1  0
 13 14  1  1
 14  8  1  0
 15 17  1  0
 16 15  2  0
M  END
$$$$
