GAT.pdb
     RDKit          3D

 17 16  0  0  1  0  0  0  0  0999 V2000
    8.4554  -15.5066   14.8791 N   0  0  0  0  0  0  0  0  0  0  0  0
    7.7161  -15.0713   16.0216 C   0  0  0  0  0  0  0  0  0  0  0  0
    8.5963  -14.6628   17.1511 C   0  0  0  0  0  0  0  0  0  0  0  0
    9.8125  -14.9705   17.2216 O   0  0  0  0  0  0  0  0  0  0  0  0
    8.0876  -12.4661   20.2118 C   0  0  0  0  0  0  0  0  0  0  0  0
    8.8537  -13.4819   19.3519 C   0  0  2  0  0  0  0  0  0  0  0  0
    8.0454  -13.8837   18.2124 N   0  0  0  0  0  0  0  0  0  0  0  0
    9.0647  -14.6664   20.2220 C   0  0  0  0  0  0  0  0  0  0  0  0
    8.0775  -15.3054   20.6244 O   0  0  0  0  0  0  0  0  0  0  0  0
   10.0947  -17.9766   19.7089 C   0  0  0  0  0  0  0  0  0  0  0  0
   11.0683  -17.4415   20.7337 C   0  0  1  0  0  0  0  0  0  0  0  0
   12.2700  -17.1635   20.1120 O   0  0  0  0  0  0  0  0  0  0  0  0
   10.4871  -16.2448   21.4578 C   0  0  2  0  0  0  0  0  0  0  0  0
   10.3644  -15.0974   20.6131 N   0  0  0  0  0  0  0  0  0  0  0  0
   11.3274  -15.9348   22.6193 C   0  0  0  0  0  0  0  0  0  0  0  0
   12.0230  -14.8836   22.7127 O   0  0  0  0  0  0  0  0  0  0  0  0
   11.3722  -16.8310   23.6784 O   0  0  0  0  0  0  0  0  0  0  0  0
  1  2  1  0
  2  3  1  0
  3  4  2  0
  6  5  1  1
  7  6  1  0
  7  3  1  0
  8  9  2  0
  8  6  1  0
 11 10  1  6
 11 13  1  0
 12 11  1  0
 13 15  1  0
 13 14  1  6
 14  8  1  0
 15 17  1  0
 16 15  2  0
M  END
$$$$
