GAT.pdb
     RDKit          3D

 17 16  0  0  1  0  0  0  0  0999 V2000
    8.1388  -14.6379   14.1099 N   0  0  0  0  0  0  0  0  0  0  0  0
    7.6397  -14.7300   15.4455 C   0  0  0  0  0  0  0  0  0  0  0  0
    8.5799  -14.1578   16.4485 C   0  0  0  0  0  0  0  0  0  0  0  0
    9.7496  -13.7956   16.1667 O   0  0  0  0  0  0  0  0  0  0  0  0
    8.2382  -13.1517   20.0946 C   0  0  0  0  0  0  0  0  0  0  0  0
    9.0343  -13.4875   18.8252 C   0  0  2  0  0  0  0  0  0  0  0  0
    8.1451  -14.0077   17.7995 N   0  0  0  0  0  0  0  0  0  0  0  0
    9.9816  -14.5616   19.2175 C   0  0  0  0  0  0  0  0  0  0  0  0
    9.5671  -15.7296   19.3112 O   0  0  0  0  0  0  0  0  0  0  0  0
   13.3715  -15.2885   17.5664 C   0  0  0  0  0  0  0  0  0  0  0  0
   13.5577  -15.2828   19.0664 C   0  0  1  0  0  0  0  0  0  0  0  0
   14.2663  -14.1539   19.4286 O   0  0  0  0  0  0  0  0  0  0  0  0
   12.2247  -15.3967   19.7766 C   0  0  2  0  0  0  0  0  0  0  0  0
   11.3541  -14.2986   19.4913 N   0  0  0  0  0  0  0  0  0  0  0  0
   12.4600  -15.4982   21.2208 C   0  0  0  0  0  0  0  0  0  0  0  0
   12.0410  -14.6457   22.0546 O   0  0  0  0  0  0  0  0  0  0  0  0
   13.1777  -16.5796   21.7133 O   0  0  0  0  0  0  0  0  0  0  0  0
  1  2  1  0
  2  3  1  0
  3  4  2  0
  6  5  1  1
  7  6  1  0
  7  3  1  0
  8  9  2  0
  8  6  1  0
 11 10  1  6
 11 13  1  0
 12 11  1  0
 13 15  1  0
 13 14  1  1
 14  8  1  0
 15 17  1  0
 16 15  2  0
M  END
$$$$
