GAT.pdb
     RDKit          3D

 17 16  0  0  1  0  0  0  0  0999 V2000
    7.5000  -13.3179   18.9837 N   0  0  0  0  0  0  0  0  0  0  0  0
    8.4405  -13.9982   19.8169 C   0  0  0  0  0  0  0  0  0  0  0  0
    7.8594  -14.3968   21.1286 C   0  0  0  0  0  0  0  0  0  0  0  0
    6.7996  -13.9039   21.5898 O   0  0  0  0  0  0  0  0  0  0  0  0
    8.5984  -17.1963   23.5621 C   0  0  0  0  0  0  0  0  0  0  0  0
    7.9784  -15.8455   23.1760 C   0  0  2  0  0  0  0  0  0  0  0  0
    8.5277  -15.3857   21.9110 N   0  0  0  0  0  0  0  0  0  0  0  0
    8.3884  -14.8961   24.2415 C   0  0  0  0  0  0  0  0  0  0  0  0
    9.5161  -14.3763   24.1878 O   0  0  0  0  0  0  0  0  0  0  0  0
    6.5411  -11.6264   25.5283 C   0  0  0  0  0  0  0  0  0  0  0  0
    6.8250  -12.6127   26.6379 C   0  0  1  0  0  0  0  0  0  0  0  0
    5.6573  -13.2753   26.9621 O   0  0  0  0  0  0  0  0  0  0  0  0
    7.9492  -13.5514   26.2516 C   0  0  2  0  0  0  0  0  0  0  0  0
    7.5308  -14.5592   25.3273 N   0  0  0  0  0  0  0  0  0  0  0  0
    8.4948  -14.1684   27.4654 C   0  0  0  0  0  0  0  0  0  0  0  0
    9.0220  -13.5066   28.4043 O   0  0  0  0  0  0  0  0  0  0  0  0
    8.4370  -15.5482   27.6056 O   0  0  0  0  0  0  0  0  0  0  0  0
  1  2  1  0
  2  3  1  0
  3  4  2  0
  6  5  1  1
  7  6  1  0
  7  3  1  0
  8  9  2  0
  8  6  1  0
 11 10  1  6
 11 13  1  0
 12 11  1  0
 13 15  1  0
 13 14  1  6
 14  8  1  0
 15 17  1  0
 16 15  2  0
M  END
$$$$
