GAT.pdb
     RDKit          3D

 17 16  0  0  1  0  0  0  0  0999 V2000
    8.0617  -12.5165   18.7243 N   0  0  0  0  0  0  0  0  0  0  0  0
    8.6569  -13.5918   19.4530 C   0  0  0  0  0  0  0  0  0  0  0  0
    7.8964  -13.9380   20.6855 C   0  0  0  0  0  0  0  0  0  0  0  0
    6.9624  -13.2303   21.1391 O   0  0  0  0  0  0  0  0  0  0  0  0
    7.7098  -17.0348   22.8460 C   0  0  0  0  0  0  0  0  0  0  0  0
    7.4902  -15.5391   22.5766 C   0  0  2  0  0  0  0  0  0  0  0  0
    8.2337  -15.1284   21.3967 N   0  0  0  0  0  0  0  0  0  0  0  0
    8.0494  -14.8321   23.7566 C   0  0  0  0  0  0  0  0  0  0  0  0
    9.2644  -14.5721   23.7865 O   0  0  0  0  0  0  0  0  0  0  0  0
    6.6102  -11.5523   25.8384 C   0  0  0  0  0  0  0  0  0  0  0  0
    6.8599  -12.8056   26.6456 C   0  0  1  0  0  0  0  0  0  0  0  0
    5.6510  -13.4177   26.9135 O   0  0  0  0  0  0  0  0  0  0  0  0
    7.8399  -13.7179   25.9374 C   0  0  2  0  0  0  0  0  0  0  0  0
    7.2385  -14.4401   24.8595 N   0  0  0  0  0  0  0  0  0  0  0  0
    8.4181  -14.6476   26.9135 C   0  0  0  0  0  0  0  0  0  0  0  0
    8.2995  -15.9033   26.8316 O   0  0  0  0  0  0  0  0  0  0  0  0
    9.1349  -14.1387   27.9878 O   0  0  0  0  0  0  0  0  0  0  0  0
  1  2  1  0
  2  3  1  0
  3  4  2  0
  6  5  1  1
  7  6  1  0
  7  3  1  0
  8  9  2  0
  8  6  1  0
 11 10  1  6
 11 13  1  0
 12 11  1  0
 13 15  1  0
 13 14  1  6
 14  8  1  0
 15 17  1  0
 16 15  2  0
M  END
$$$$
