YGV.pdb
     RDKit          3D

 24 24  0  0  1  0  0  0  0  0999 V2000
   28.5401  -19.1338   -3.2871 O   0  0  0  0  0  0  0  0  0  0  0  0
   28.2839  -19.5121   -4.6035 C   0  0  0  0  0  0  0  0  0  0  0  0
   28.4221  -20.8168   -5.0315 C   0  0  0  0  0  0  0  0  0  0  0  0
   28.1650  -21.1780   -6.3389 C   0  0  0  0  0  0  0  0  0  0  0  0
   27.7588  -20.2517   -7.2755 C   0  0  0  0  0  0  0  0  0  0  0  0
   27.4751  -20.6084   -8.6866 C   0  0  0  0  0  0  0  0  0  0  0  0
   26.0309  -20.2637   -8.9557 C   0  0  2  0  0  0  0  0  0  0  0  0
   25.1854  -21.1292   -8.1556 N   0  0  0  0  0  0  0  0  0  0  0  0
   25.6962  -20.3683  -10.4042 C   0  0  0  0  0  0  0  0  0  0  0  0
   26.3957  -21.0891  -11.1573 O   0  0  0  0  0  0  0  0  0  0  0  0
   27.6166  -18.9442   -6.8617 C   0  0  0  0  0  0  0  0  0  0  0  0
   27.8769  -18.5948   -5.5502 C   0  0  0  0  0  0  0  0  0  0  0  0
   24.6005  -19.6771  -10.9865 N   0  0  0  0  0  0  0  0  0  0  0  0
   24.2789  -19.8125  -12.3651 C   0  0  0  0  0  0  0  0  0  0  0  0
   23.2324  -20.7700  -12.7101 C   0  0  0  0  0  0  0  0  0  0  0  0
   23.6456  -21.8990  -13.1557 O   0  0  0  0  0  0  0  0  0  0  0  0
   19.1465  -23.1427  -11.9596 C   0  0  0  0  0  0  0  0  0  0  0  0
   20.1218  -22.0544  -11.6511 C   0  0  2  0  0  0  0  0  0  0  0  0
   19.3879  -20.8805  -11.0640 C   0  0  0  0  0  0  0  0  0  0  0  0
   20.9286  -21.6839  -12.8760 C   0  0  2  0  0  0  0  0  0  0  0  0
   21.8480  -20.6067  -12.6163 N   0  0  0  0  0  0  0  0  0  0  0  0
   20.0680  -21.3919  -14.0418 C   0  0  0  0  0  0  0  0  0  0  0  0
   19.8647  -20.2092  -14.4087 O   0  0  0  0  0  0  0  0  0  0  0  0
   19.4603  -22.4032  -14.7647 O   0  0  0  0  0  0  0  0  0  0  0  0
  2  1  1  0
  2  3  2  0
  4  3  1  0
  5  4  2  0
  6  7  1  0
  6  5  1  0
  7  9  1  0
  7  8  1  1
  9 10  2  0
  9 13  1  0
 11 12  2  0
 11  5  1  0
 12  2  1  0
 13 14  1  0
 15 14  1  0
 15 21  1  0
 16 15  2  0
 18 17  1  6
 19 18  1  0
 20 21  1  1
 20 22  1  0
 20 18  1  0
 22 23  2  0
 22 24  1  0
M  END
$$$$
