YGV.pdb
     RDKit          3D

 24 24  0  0  1  0  0  0  0  0999 V2000
   28.7193  -18.9781   -2.8747 O   0  0  0  0  0  0  0  0  0  0  0  0
   28.6599  -19.3656   -4.2118 C   0  0  0  0  0  0  0  0  0  0  0  0
   28.2073  -18.5171   -5.2016 C   0  0  0  0  0  0  0  0  0  0  0  0
   28.1536  -18.9138   -6.5228 C   0  0  0  0  0  0  0  0  0  0  0  0
   28.5497  -20.1754   -6.9127 C   0  0  0  0  0  0  0  0  0  0  0  0
   28.5039  -20.6310   -8.3231 C   0  0  0  0  0  0  0  0  0  0  0  0
   27.0784  -20.4857   -8.7962 C   0  0  2  0  0  0  0  0  0  0  0  0
   26.2327  -21.3672   -8.0139 N   0  0  0  0  0  0  0  0  0  0  0  0
   26.9469  -20.7627  -10.2546 C   0  0  0  0  0  0  0  0  0  0  0  0
   27.4024  -19.9440  -11.0903 O   0  0  0  0  0  0  0  0  0  0  0  0
   29.0042  -21.0338   -5.9341 C   0  0  0  0  0  0  0  0  0  0  0  0
   29.0533  -20.6251   -4.6148 C   0  0  0  0  0  0  0  0  0  0  0  0
   26.3178  -21.9334  -10.7558 N   0  0  0  0  0  0  0  0  0  0  0  0
   24.9093  -22.0049  -10.9387 C   0  0  0  0  0  0  0  0  0  0  0  0
   24.3123  -21.0480  -11.8654 C   0  0  0  0  0  0  0  0  0  0  0  0
   24.5987  -19.8178  -11.6453 O   0  0  0  0  0  0  0  0  0  0  0  0
   22.8225  -21.5780  -15.7944 C   0  0  0  0  0  0  0  0  0  0  0  0
   23.2167  -20.2827  -15.1637 C   0  0  2  0  0  0  0  0  0  0  0  0
   24.6852  -20.0475  -15.3868 C   0  0  0  0  0  0  0  0  0  0  0  0
   22.8377  -20.2533  -13.6995 C   0  0  2  0  0  0  0  0  0  0  0  0
   23.4731  -21.3071  -12.9519 N   0  0  0  0  0  0  0  0  0  0  0  0
   21.3725  -20.2582  -13.5037 C   0  0  0  0  0  0  0  0  0  0  0  0
   20.6671  -19.3057  -13.9159 O   0  0  0  0  0  0  0  0  0  0  0  0
   20.7310  -21.3043  -12.8644 O   0  0  0  0  0  0  0  0  0  0  0  0
  2  1  1  0
  2  3  2  0
  4  3  1  0
  5  4  2  0
  6  7  1  0
  6  5  1  0
  7  9  1  0
  7  8  1  1
  9 10  2  0
  9 13  1  0
 11 12  2  0
 11  5  1  0
 12  2  1  0
 13 14  1  0
 15 14  1  0
 15 21  1  0
 16 15  2  0
 18 17  1  1
 19 18  1  0
 20 21  1  1
 20 22  1  0
 20 18  1  0
 22 23  2  0
 22 24  1  0
M  END
$$$$
