YGV.pdb
     RDKit          3D

 24 24  0  0  1  0  0  0  0  0999 V2000
   29.4057  -19.5046   -3.2667 O   0  0  0  0  0  0  0  0  0  0  0  0
   28.5946  -19.5793   -4.3973 C   0  0  0  0  0  0  0  0  0  0  0  0
   27.6518  -20.5740   -4.5590 C   0  0  0  0  0  0  0  0  0  0  0  0
   26.8547  -20.6362   -5.6843 C   0  0  0  0  0  0  0  0  0  0  0  0
   26.9647  -19.7075   -6.6972 C   0  0  0  0  0  0  0  0  0  0  0  0
   26.1233  -19.7475   -7.9176 C   0  0  0  0  0  0  0  0  0  0  0  0
   26.6091  -20.9009   -8.7607 C   0  0  2  0  0  0  0  0  0  0  0  0
   27.9265  -20.5819   -9.2771 N   0  0  0  0  0  0  0  0  0  0  0  0
   25.6585  -21.2214   -9.8628 C   0  0  0  0  0  0  0  0  0  0  0  0
   24.4590  -21.4813   -9.5985 O   0  0  0  0  0  0  0  0  0  0  0  0
   27.9026  -18.7080   -6.5490 C   0  0  0  0  0  0  0  0  0  0  0  0
   28.6949  -18.6561   -5.4178 C   0  0  0  0  0  0  0  0  0  0  0  0
   26.0522  -21.2475  -11.2273 N   0  0  0  0  0  0  0  0  0  0  0  0
   25.1701  -21.6898  -12.2514 C   0  0  0  0  0  0  0  0  0  0  0  0
   24.1415  -20.7515  -12.6902 C   0  0  0  0  0  0  0  0  0  0  0  0
   24.1144  -19.6331  -12.0638 O   0  0  0  0  0  0  0  0  0  0  0  0
   21.4877  -18.4062  -15.9190 C   0  0  0  0  0  0  0  0  0  0  0  0
   22.4146  -19.5184  -15.5518 C   0  0  2  0  0  0  0  0  0  0  0  0
   22.1649  -20.6932  -16.4567 C   0  0  0  0  0  0  0  0  0  0  0  0
   22.2847  -19.8731  -14.0870 C   0  0  2  0  0  0  0  0  0  0  0  0
   23.1905  -20.9230  -13.6993 N   0  0  0  0  0  0  0  0  0  0  0  0
   20.8911  -20.1954  -13.7138 C   0  0  0  0  0  0  0  0  0  0  0  0
   20.0072  -19.3048  -13.7052 O   0  0  0  0  0  0  0  0  0  0  0  0
   20.5140  -21.4797  -13.3634 O   0  0  0  0  0  0  0  0  0  0  0  0
  2  1  1  0
  2  3  2  0
  4  3  1  0
  5  4  2  0
  6  7  1  0
  6  5  1  0
  7  9  1  0
  7  8  1  6
  9 10  2  0
  9 13  1  0
 11 12  2  0
 11  5  1  0
 12  2  1  0
 13 14  1  0
 15 14  1  0
 15 21  1  0
 16 15  2  0
 18 17  1  6
 19 18  1  0
 20 21  1  6
 20 22  1  0
 20 18  1  0
 22 23  2  0
 22 24  1  0
M  END
$$$$
