YGV.pdb
     RDKit          3D

 24 24  0  0  1  0  0  0  0  0999 V2000
   15.5839  -17.2804  -16.2377 O   0  0  0  0  0  0  0  0  0  0  0  0
   15.8057  -15.9133  -16.0846 C   0  0  0  0  0  0  0  0  0  0  0  0
   15.7995  -15.0449  -17.1571 C   0  0  0  0  0  0  0  0  0  0  0  0
   16.0208  -13.6924  -16.9914 C   0  0  0  0  0  0  0  0  0  0  0  0
   16.2579  -13.1485  -15.7470 C   0  0  0  0  0  0  0  0  0  0  0  0
   16.4990  -11.7006  -15.5366 C   0  0  0  0  0  0  0  0  0  0  0  0
   17.8089  -11.3614  -16.2046 C   0  0  2  0  0  0  0  0  0  0  0  0
   18.8851  -12.0166  -15.4859 N   0  0  0  0  0  0  0  0  0  0  0  0
   18.0271   -9.8892  -16.2822 C   0  0  0  0  0  0  0  0  0  0  0  0
   17.2342   -9.1733  -16.9417 O   0  0  0  0  0  0  0  0  0  0  0  0
   16.2670  -14.0046  -14.6663 C   0  0  0  0  0  0  0  0  0  0  0  0
   16.0441  -15.3568  -14.8449 C   0  0  0  0  0  0  0  0  0  0  0  0
   19.1121   -9.2428  -15.6323 N   0  0  0  0  0  0  0  0  0  0  0  0
   19.2399   -7.8265  -15.6209 C   0  0  0  0  0  0  0  0  0  0  0  0
   20.3172   -7.2652  -14.8114 C   0  0  0  0  0  0  0  0  0  0  0  0
   20.8616   -8.0773  -13.9818 O   0  0  0  0  0  0  0  0  0  0  0  0
   22.6854   -4.0036  -15.9694 C   0  0  0  0  0  0  0  0  0  0  0  0
   23.1224   -5.1967  -15.1842 C   0  0  2  0  0  0  0  0  0  0  0  0
   23.4933   -6.3057  -16.1297 C   0  0  0  0  0  0  0  0  0  0  0  0
   22.0617   -5.6104  -14.1881 C   0  0  2  0  0  0  0  0  0  0  0  0
   20.8214   -5.9624  -14.8291 N   0  0  0  0  0  0  0  0  0  0  0  0
   21.8577   -4.5914  -13.1370 C   0  0  0  0  0  0  0  0  0  0  0  0
   20.8240   -3.8801  -13.1253 O   0  0  0  0  0  0  0  0  0  0  0  0
   22.7910   -4.3865  -12.1362 O   0  0  0  0  0  0  0  0  0  0  0  0
  2  1  1  0
  2  3  2  0
  4  3  1  0
  5  4  2  0
  6  7  1  0
  6  5  1  0
  7  9  1  0
  7  8  1  1
  9 10  2  0
  9 13  1  0
 11 12  2  0
 11  5  1  0
 12  2  1  0
 13 14  1  0
 15 14  1  0
 15 21  1  0
 16 15  2  0
 18 17  1  6
 19 18  1  0
 20 21  1  6
 20 22  1  0
 20 18  1  0
 22 23  2  0
 22 24  1  0
M  END
$$$$
