YGV.pdb
     RDKit          3D

 24 24  0  0  1  0  0  0  0  0999 V2000
   23.3848  -21.4820   -8.4432 O   0  0  0  0  0  0  0  0  0  0  0  0
   24.1232  -21.4359   -9.6240 C   0  0  0  0  0  0  0  0  0  0  0  0
   23.5229  -21.3010  -10.8593 C   0  0  0  0  0  0  0  0  0  0  0  0
   24.2665  -21.2567  -12.0216 C   0  0  0  0  0  0  0  0  0  0  0  0
   25.6420  -21.3452  -12.0004 C   0  0  0  0  0  0  0  0  0  0  0  0
   26.4682  -21.3008  -13.2311 C   0  0  0  0  0  0  0  0  0  0  0  0
   27.1263  -19.9438  -13.2818 C   0  0  2  0  0  0  0  0  0  0  0  0
   26.1044  -18.9221  -13.1560 N   0  0  0  0  0  0  0  0  0  0  0  0
   27.9248  -19.7607  -14.5267 C   0  0  0  0  0  0  0  0  0  0  0  0
   28.6863  -20.6773  -14.9219 O   0  0  0  0  0  0  0  0  0  0  0  0
   26.2552  -21.4803  -10.7730 C   0  0  0  0  0  0  0  0  0  0  0  0
   25.5000  -21.5235   -9.6163 C   0  0  0  0  0  0  0  0  0  0  0  0
   27.8648  -18.5739  -15.3047 N   0  0  0  0  0  0  0  0  0  0  0  0
   28.6218  -18.4242  -16.4993 C   0  0  0  0  0  0  0  0  0  0  0  0
   27.9766  -18.8233  -17.7464 C   0  0  0  0  0  0  0  0  0  0  0  0
   28.0158  -20.0778  -18.0086 O   0  0  0  0  0  0  0  0  0  0  0  0
   24.6105  -17.0997  -19.3412 C   0  0  0  0  0  0  0  0  0  0  0  0
   25.0782  -18.5075  -19.5149 C   0  0  2  0  0  0  0  0  0  0  0  0
   24.6719  -19.3181  -18.3151 C   0  0  0  0  0  0  0  0  0  0  0  0
   26.5676  -18.5576  -19.7748 C   0  0  2  0  0  0  0  0  0  0  0  0
   27.3291  -18.0118  -18.6815 N   0  0  0  0  0  0  0  0  0  0  0  0
   26.9303  -17.9204  -21.0583 C   0  0  0  0  0  0  0  0  0  0  0  0
   27.3001  -16.7219  -21.0975 O   0  0  0  0  0  0  0  0  0  0  0  0
   26.8756  -18.6162  -22.2531 O   0  0  0  0  0  0  0  0  0  0  0  0
  2  1  1  0
  2  3  2  0
  4  3  1  0
  5  4  2  0
  6  7  1  0
  6  5  1  0
  7  9  1  0
  7  8  1  6
  9 10  2  0
  9 13  1  0
 11 12  2  0
 11  5  1  0
 12  2  1  0
 13 14  1  0
 15 14  1  0
 15 21  1  0
 16 15  2  0
 18 17  1  1
 19 18  1  0
 20 21  1  1
 20 22  1  0
 20 18  1  0
 22 23  2  0
 22 24  1  0
M  END
$$$$
