YGV.pdb
     RDKit          3D

 24 24  0  0  1  0  0  0  0  0999 V2000
   27.9609  -18.5626   -3.7986 O   0  0  0  0  0  0  0  0  0  0  0  0
   27.6533  -19.1635   -5.0176 C   0  0  0  0  0  0  0  0  0  0  0  0
   26.7796  -20.2277   -5.1107 C   0  0  0  0  0  0  0  0  0  0  0  0
   26.4836  -20.8139   -6.3250 C   0  0  0  0  0  0  0  0  0  0  0  0
   27.0476  -20.3625   -7.4991 C   0  0  0  0  0  0  0  0  0  0  0  0
   26.7499  -20.9708   -8.8183 C   0  0  0  0  0  0  0  0  0  0  0  0
   25.7227  -20.0966   -9.4948 C   0  0  2  0  0  0  0  0  0  0  0  0
   24.4242  -20.3543   -8.9018 N   0  0  0  0  0  0  0  0  0  0  0  0
   25.6966  -20.3107  -10.9694 C   0  0  0  0  0  0  0  0  0  0  0  0
   26.7569  -20.2125  -11.6345 O   0  0  0  0  0  0  0  0  0  0  0  0
   27.9225  -19.2998   -7.4210 C   0  0  0  0  0  0  0  0  0  0  0  0
   28.2109  -18.7213   -6.1995 C   0  0  0  0  0  0  0  0  0  0  0  0
   24.5047  -20.6274  -11.6741 N   0  0  0  0  0  0  0  0  0  0  0  0
   24.4954  -20.8051  -13.0850 C   0  0  0  0  0  0  0  0  0  0  0  0
   24.5468  -19.5984  -13.9049 C   0  0  0  0  0  0  0  0  0  0  0  0
   23.7780  -18.6443  -13.5273 O   0  0  0  0  0  0  0  0  0  0  0  0
   27.6782  -18.2199  -16.4103 C   0  0  0  0  0  0  0  0  0  0  0  0
   26.6372  -17.4038  -15.7164 C   0  0  2  0  0  0  0  0  0  0  0  0
   27.1013  -17.0876  -14.3214 C   0  0  0  0  0  0  0  0  0  0  0  0
   25.2948  -18.1008  -15.7400 C   0  0  2  0  0  0  0  0  0  0  0  0
   25.3232  -19.3596  -15.0416 N   0  0  0  0  0  0  0  0  0  0  0  0
   24.7723  -18.2559  -17.1141 C   0  0  0  0  0  0  0  0  0  0  0  0
   24.7492  -19.3816  -17.6682 O   0  0  0  0  0  0  0  0  0  0  0  0
   24.2939  -17.1749  -17.8331 O   0  0  0  0  0  0  0  0  0  0  0  0
  2  1  1  0
  2  3  2  0
  4  3  1  0
  5  4  2  0
  6  7  1  0
  6  5  1  0
  7  9  1  0
  7  8  1  1
  9 10  2  0
  9 13  1  0
 11 12  2  0
 11  5  1  0
 12  2  1  0
 13 14  1  0
 15 14  1  0
 15 21  1  0
 16 15  2  0
 18 17  1  1
 19 18  1  0
 20 21  1  6
 20 22  1  0
 20 18  1  0
 22 23  2  0
 22 24  1  0
M  END
$$$$
