YGV.pdb
     RDKit          3D

 24 24  0  0  1  0  0  0  0  0999 V2000
   28.8553  -19.7070   -3.4737 O   0  0  0  0  0  0  0  0  0  0  0  0
   28.4576  -19.6722   -4.8087 C   0  0  0  0  0  0  0  0  0  0  0  0
   29.1959  -19.0227   -5.7770 C   0  0  0  0  0  0  0  0  0  0  0  0
   28.7903  -18.9960   -7.0963 C   0  0  0  0  0  0  0  0  0  0  0  0
   27.6296  -19.6169   -7.5057 C   0  0  0  0  0  0  0  0  0  0  0  0
   27.1675  -19.6060   -8.9147 C   0  0  0  0  0  0  0  0  0  0  0  0
   27.2452  -21.0242   -9.4242 C   0  0  2  0  0  0  0  0  0  0  0  0
   28.6309  -21.4529   -9.4079 N   0  0  0  0  0  0  0  0  0  0  0  0
   26.6529  -21.1579  -10.7852 C   0  0  0  0  0  0  0  0  0  0  0  0
   27.3534  -20.9163  -11.7987 O   0  0  0  0  0  0  0  0  0  0  0  0
   26.8819  -20.2698   -6.5488 C   0  0  0  0  0  0  0  0  0  0  0  0
   27.2983  -20.2896   -5.2311 C   0  0  0  0  0  0  0  0  0  0  0  0
   25.3053  -21.5540  -10.9959 N   0  0  0  0  0  0  0  0  0  0  0  0
   24.7393  -21.6152  -12.2991 C   0  0  0  0  0  0  0  0  0  0  0  0
   23.6136  -20.7275  -12.5745 C   0  0  0  0  0  0  0  0  0  0  0  0
   23.2322  -20.0015  -11.5889 O   0  0  0  0  0  0  0  0  0  0  0  0
   21.4962  -20.1194  -16.3107 C   0  0  0  0  0  0  0  0  0  0  0  0
   21.6644  -19.0744  -15.2568 C   0  0  2  0  0  0  0  0  0  0  0  0
   22.8510  -18.2143  -15.5943 C   0  0  0  0  0  0  0  0  0  0  0  0
   21.7696  -19.6994  -13.8832 C   0  0  2  0  0  0  0  0  0  0  0  0
   22.9066  -20.5755  -13.7699 N   0  0  0  0  0  0  0  0  0  0  0  0
   20.5197  -20.3804  -13.4845 C   0  0  0  0  0  0  0  0  0  0  0  0
   20.4250  -21.6305  -13.5385 O   0  0  0  0  0  0  0  0  0  0  0  0
   19.4180  -19.6703  -13.0410 O   0  0  0  0  0  0  0  0  0  0  0  0
  2  1  1  0
  2  3  2  0
  4  3  1  0
  5  4  2  0
  6  7  1  0
  6  5  1  0
  7  9  1  0
  7  8  1  6
  9 10  2  0
  9 13  1  0
 11 12  2  0
 11  5  1  0
 12  2  1  0
 13 14  1  0
 15 14  1  0
 15 21  1  0
 16 15  2  0
 18 17  1  6
 19 18  1  0
 20 21  1  6
 20 22  1  0
 20 18  1  0
 22 23  2  0
 22 24  1  0
M  END
$$$$
