YGV.pdb
     RDKit          3D

 24 24  0  0  1  0  0  0  0  0999 V2000
   28.1877  -24.7831  -17.3833 O   0  0  0  0  0  0  0  0  0  0  0  0
   26.9158  -24.5183  -16.8796 C   0  0  0  0  0  0  0  0  0  0  0  0
   26.2486  -25.4119  -16.0667 C   0  0  0  0  0  0  0  0  0  0  0  0
   24.9885  -25.1369  -15.5743 C   0  0  0  0  0  0  0  0  0  0  0  0
   24.3402  -23.9574  -15.8725 C   0  0  0  0  0  0  0  0  0  0  0  0
   22.9873  -23.6332  -15.3592 C   0  0  0  0  0  0  0  0  0  0  0  0
   23.1658  -22.9129  -14.0453 C   0  0  2  0  0  0  0  0  0  0  0  0
   23.9718  -23.7369  -13.1647 N   0  0  0  0  0  0  0  0  0  0  0  0
   21.8579  -22.5695  -13.4188 C   0  0  0  0  0  0  0  0  0  0  0  0
   20.9714  -21.9946  -14.0968 O   0  0  0  0  0  0  0  0  0  0  0  0
   24.9952  -23.0553  -16.6837 C   0  0  0  0  0  0  0  0  0  0  0  0
   26.2565  -23.3418  -17.1705 C   0  0  0  0  0  0  0  0  0  0  0  0
   21.5593  -22.8674  -12.0625 N   0  0  0  0  0  0  0  0  0  0  0  0
   20.3016  -22.5404  -11.4849 C   0  0  0  0  0  0  0  0  0  0  0  0
   19.4415  -23.6541  -11.0967 C   0  0  0  0  0  0  0  0  0  0  0  0
   19.3435  -24.5990  -11.9578 O   0  0  0  0  0  0  0  0  0  0  0  0
   17.4942  -26.7033   -7.8362 C   0  0  0  0  0  0  0  0  0  0  0  0
   18.1586  -25.3978   -8.1279 C   0  0  2  0  0  0  0  0  0  0  0  0
   17.5960  -24.3396   -7.2194 C   0  0  0  0  0  0  0  0  0  0  0  0
   18.0305  -25.0375   -9.5915 C   0  0  2  0  0  0  0  0  0  0  0  0
   18.7174  -23.8135   -9.9125 N   0  0  0  0  0  0  0  0  0  0  0  0
   16.6205  -24.9989  -10.0338 C   0  0  0  0  0  0  0  0  0  0  0  0
   16.0006  -23.9103  -10.1062 O   0  0  0  0  0  0  0  0  0  0  0  0
   15.9389  -26.1519  -10.3811 O   0  0  0  0  0  0  0  0  0  0  0  0
  2  1  1  0
  2  3  2  0
  4  3  1  0
  5  4  2  0
  6  7  1  0
  6  5  1  0
  7  9  1  0
  7  8  1  1
  9 10  2  0
  9 13  1  0
 11 12  2  0
 11  5  1  0
 12  2  1  0
 13 14  1  0
 15 14  1  0
 15 21  1  0
 16 15  2  0
 18 17  1  6
 19 18  1  0
 20 21  1  1
 20 22  1  0
 20 18  1  0
 22 23  2  0
 22 24  1  0
M  END
$$$$
