YGV.pdb
     RDKit          3D

 24 24  0  0  1  0  0  0  0  0999 V2000
   29.0090  -19.1962   -3.4430 O   0  0  0  0  0  0  0  0  0  0  0  0
   28.7063  -19.5842   -4.7466 C   0  0  0  0  0  0  0  0  0  0  0  0
   29.6676  -20.0718   -5.6084 C   0  0  0  0  0  0  0  0  0  0  0  0
   29.3540  -20.4528   -6.8977 C   0  0  0  0  0  0  0  0  0  0  0  0
   28.0665  -20.3631   -7.3822 C   0  0  0  0  0  0  0  0  0  0  0  0
   27.6984  -20.7641   -8.7616 C   0  0  0  0  0  0  0  0  0  0  0  0
   26.2203  -20.5081   -8.9246 C   0  0  2  0  0  0  0  0  0  0  0  0
   25.4858  -21.4995   -8.1617 N   0  0  0  0  0  0  0  0  0  0  0  0
   25.8108  -20.5151  -10.3575 C   0  0  0  0  0  0  0  0  0  0  0  0
   26.1915  -19.5944  -11.1214 O   0  0  0  0  0  0  0  0  0  0  0  0
   27.0958  -19.8775   -6.5321 C   0  0  0  0  0  0  0  0  0  0  0  0
   27.4220  -19.4993   -5.2435 C   0  0  0  0  0  0  0  0  0  0  0  0
   24.9929  -21.5349  -10.9130 N   0  0  0  0  0  0  0  0  0  0  0  0
   24.6268  -21.5338  -12.2872 C   0  0  0  0  0  0  0  0  0  0  0  0
   23.3894  -20.8456  -12.6423 C   0  0  0  0  0  0  0  0  0  0  0  0
   22.6922  -20.4228  -11.6528 O   0  0  0  0  0  0  0  0  0  0  0  0
   22.5737  -18.2256  -15.5649 C   0  0  0  0  0  0  0  0  0  0  0  0
   21.5029  -19.2602  -15.4466 C   0  0  2  0  0  0  0  0  0  0  0  0
   20.1623  -18.6163  -15.6695 C   0  0  0  0  0  0  0  0  0  0  0  0
   21.5891  -19.9827  -14.1203 C   0  0  2  0  0  0  0  0  0  0  0  0
   22.8762  -20.5954  -13.9174 N   0  0  0  0  0  0  0  0  0  0  0  0
   20.4919  -20.9576  -13.9453 C   0  0  0  0  0  0  0  0  0  0  0  0
   20.5684  -22.1060  -14.4455 O   0  0  0  0  0  0  0  0  0  0  0  0
   19.3503  -20.6422  -13.2298 O   0  0  0  0  0  0  0  0  0  0  0  0
  2  1  1  0
  2  3  2  0
  4  3  1  0
  5  4  2  0
  6  7  1  0
  6  5  1  0
  7  9  1  0
  7  8  1  1
  9 10  2  0
  9 13  1  0
 11 12  2  0
 11  5  1  0
 12  2  1  0
 13 14  1  0
 15 14  1  0
 15 21  1  0
 16 15  2  0
 18 17  1  1
 19 18  1  0
 20 21  1  6
 20 22  1  0
 20 18  1  0
 22 23  2  0
 22 24  1  0
M  END
$$$$
