HCR.pdb
     RDKit          3D

 28 28  0  0  1  0  0  0  0  0999 V2000
   10.2521  -14.0578   20.3203 N   0  0  0  0  0  0  0  0  0  0  0  0
    8.9686  -14.0632   20.9590 C   0  0  1  0  0  0  0  0  0  0  0  0
    7.9630  -14.9411   20.2582 C   0  0  0  0  0  0  0  0  0  0  0  0
    7.7095  -14.5509   18.8731 C   0  0  0  0  0  0  0  0  0  0  0  0
    7.6029  -13.2629   18.3898 C   0  0  0  0  0  0  0  0  0  0  0  0
    7.3689  -13.3441   17.0647 N   0  0  0  0  0  0  0  0  0  0  0  0
    7.3242  -14.6238   16.6962 C   0  0  0  0  0  0  0  0  0  0  0  0
    7.5335  -15.3532   17.8088 N   0  0  0  0  0  0  0  0  0  0  0  0
    9.1849  -14.5326   22.3633 C   0  0  0  0  0  0  0  0  0  0  0  0
   10.1494  -15.2900   22.6417 O   0  0  0  0  0  0  0  0  0  0  0  0
    8.3293  -14.1547   23.4332 N   0  0  0  0  0  0  0  0  0  0  0  0
    8.5984  -14.5404   24.8135 C   0  0  1  0  0  0  0  0  0  0  0  0
    7.7076  -13.7050   25.7175 C   0  0  0  0  0  0  0  0  0  0  0  0
    5.9763  -14.1819   25.4395 S   0  0  0  0  0  0  0  0  0  0  0  0
    8.3607  -15.9818   25.0045 C   0  0  0  0  0  0  0  0  0  0  0  0
    7.3175  -16.4951   24.5390 O   0  0  0  0  0  0  0  0  0  0  0  0
   13.4081  -20.9088   21.8631 N   0  0  0  0  0  0  0  0  0  0  0  0
   13.5482  -19.5627   22.2716 C   0  0  0  0  0  0  0  0  0  0  0  0
   14.6541  -18.9601   22.0385 N   0  0  0  0  0  0  0  0  0  0  0  0
   12.4593  -18.9112   22.9307 N   0  0  0  0  0  0  0  0  0  0  0  0
   11.2242  -19.6474   23.1115 C   0  0  0  0  0  0  0  0  0  0  0  0
   10.1910  -18.7957   23.8127 C   0  0  0  0  0  0  0  0  0  0  0  0
   10.1309  -19.0296   25.2780 C   0  0  0  0  0  0  0  0  0  0  0  0
    9.0874  -18.1948   25.9829 C   0  0  2  0  0  0  0  0  0  0  0  0
    9.2821  -16.7869   25.6977 N   0  0  0  0  0  0  0  0  0  0  0  0
    9.0268  -18.3915   27.4231 C   0  0  0  0  0  0  0  0  0  0  0  0
    9.3738  -17.4882   28.2249 O   0  0  0  0  0  0  0  0  0  0  0  0
    8.5803  -19.5919   27.9488 O   0  0  0  0  0  0  0  0  0  0  0  0
  2  1  1  6
  2  9  1  0
  3  2  1  0
  4  3  1  0
  4  5  2  0
  6  5  1  0
  7  6  1  0
  8  7  2  0
  8  4  1  0
  9 10  2  0
 11 12  1  0
 11  9  1  0
 12 15  1  0
 12 13  1  1
 14 13  1  0
 15 16  2  0
 18 17  1  0
 19 18  2  0
 20 18  1  0
 21 20  1  0
 22 21  1  0
 23 22  1  0
 24 23  1  1
 24 26  1  0
 25 15  1  0
 25 24  1  0
 26 27  2  0
 26 28  1  0
M  END
$$$$
