HCR.pdb
     RDKit          3D

 28 28  0  0  1  0  0  0  0  0999 V2000
    6.8063  -14.4041   21.1388 N   0  0  0  0  0  0  0  0  0  0  0  0
    8.2060  -14.7125   21.1068 C   0  0  1  0  0  0  0  0  0  0  0  0
    8.9842  -13.8312   20.1629 C   0  0  0  0  0  0  0  0  0  0  0  0
    8.4613  -13.8285   18.7985 C   0  0  0  0  0  0  0  0  0  0  0  0
    7.4839  -12.9941   18.2961 C   0  0  0  0  0  0  0  0  0  0  0  0
    7.2983  -13.3194   17.0011 N   0  0  0  0  0  0  0  0  0  0  0  0
    8.1146  -14.3191   16.6698 C   0  0  0  0  0  0  0  0  0  0  0  0
    8.8210  -14.6228   17.7753 N   0  0  0  0  0  0  0  0  0  0  0  0
    8.7158  -14.5605   22.5054 C   0  0  0  0  0  0  0  0  0  0  0  0
    9.9486  -14.6218   22.7457 O   0  0  0  0  0  0  0  0  0  0  0  0
    7.8509  -14.3436   23.6121 N   0  0  0  0  0  0  0  0  0  0  0  0
    8.3300  -14.3826   24.9888 C   0  0  1  0  0  0  0  0  0  0  0  0
    7.6291  -13.2784   25.7622 C   0  0  0  0  0  0  0  0  0  0  0  0
    5.8381  -13.5841   25.7296 S   0  0  0  0  0  0  0  0  0  0  0  0
    8.0777  -15.7048   25.5879 C   0  0  0  0  0  0  0  0  0  0  0  0
    7.1520  -16.4146   25.1320 O   0  0  0  0  0  0  0  0  0  0  0  0
   13.2401  -19.8633   21.9588 N   0  0  0  0  0  0  0  0  0  0  0  0
   13.6213  -20.4759   23.1744 C   0  0  0  0  0  0  0  0  0  0  0  0
   14.2652  -21.5822   23.1315 N   0  0  0  0  0  0  0  0  0  0  0  0
   13.2807  -19.8497   24.4141 N   0  0  0  0  0  0  0  0  0  0  0  0
   12.4737  -18.6465   24.3788 C   0  0  0  0  0  0  0  0  0  0  0  0
   11.4780  -18.6362   25.5159 C   0  0  0  0  0  0  0  0  0  0  0  0
   10.5906  -17.4455   25.5112 C   0  0  0  0  0  0  0  0  0  0  0  0
    9.5917  -17.4293   26.6445 C   0  0  2  0  0  0  0  0  0  0  0  0
    8.8558  -16.1804   26.6584 N   0  0  0  0  0  0  0  0  0  0  0  0
   10.1654  -17.6658   27.9604 C   0  0  0  0  0  0  0  0  0  0  0  0
   10.3953  -16.7212   28.7566 O   0  0  0  0  0  0  0  0  0  0  0  0
   10.4746  -18.9518   28.3697 O   0  0  0  0  0  0  0  0  0  0  0  0
  2  1  1  1
  2  9  1  0
  3  2  1  0
  4  3  1  0
  4  5  2  0
  6  5  1  0
  7  6  1  0
  8  7  2  0
  8  4  1  0
  9 10  2  0
 11 12  1  0
 11  9  1  0
 12 15  1  0
 12 13  1  1
 14 13  1  0
 15 16  2  0
 18 17  1  0
 19 18  2  0
 20 18  1  0
 21 20  1  0
 22 21  1  0
 23 22  1  0
 24 23  1  6
 24 26  1  0
 25 15  1  0
 25 24  1  0
 26 27  2  0
 26 28  1  0
M  END
$$$$
