HCR.pdb
     RDKit          3D

 28 28  0  0  1  0  0  0  0  0999 V2000
    9.2748  -12.9866   20.7597 N   0  0  0  0  0  0  0  0  0  0  0  0
    8.1540  -13.5648   21.4416 C   0  0  1  0  0  0  0  0  0  0  0  0
    7.7583  -14.9120   20.8923 C   0  0  0  0  0  0  0  0  0  0  0  0
    7.5278  -14.9115   19.4494 C   0  0  0  0  0  0  0  0  0  0  0  0
    7.6804  -13.8392   18.5944 C   0  0  0  0  0  0  0  0  0  0  0  0
    7.3693  -14.2620   17.3528 N   0  0  0  0  0  0  0  0  0  0  0  0
    7.0289  -15.5497   17.3912 C   0  0  0  0  0  0  0  0  0  0  0  0
    7.1290  -15.9370   18.6770 N   0  0  0  0  0  0  0  0  0  0  0  0
    8.5355  -13.6789   22.8840 C   0  0  0  0  0  0  0  0  0  0  0  0
    9.7457  -13.7266   23.2223 O   0  0  0  0  0  0  0  0  0  0  0  0
    7.5699  -13.7381   23.9250 N   0  0  0  0  0  0  0  0  0  0  0  0
    7.9487  -13.7502   25.3331 C   0  0  1  0  0  0  0  0  0  0  0  0
    7.3080  -12.5463   26.0029 C   0  0  0  0  0  0  0  0  0  0  0  0
    5.5039  -12.7635   26.0002 S   0  0  0  0  0  0  0  0  0  0  0  0
    7.5289  -15.0098   25.9717 C   0  0  0  0  0  0  0  0  0  0  0  0
    6.3408  -15.3877   25.8531 O   0  0  0  0  0  0  0  0  0  0  0  0
    8.1609  -20.6962   21.1817 N   0  0  0  0  0  0  0  0  0  0  0  0
    8.7460  -21.4716   22.2087 C   0  0  0  0  0  0  0  0  0  0  0  0
    8.8779  -22.7330   22.0293 N   0  0  0  0  0  0  0  0  0  0  0  0
    9.1733  -20.8333   23.4148 N   0  0  0  0  0  0  0  0  0  0  0  0
    8.7990  -19.4501   23.6315 C   0  0  0  0  0  0  0  0  0  0  0  0
    9.5106  -18.8860   24.8398 C   0  0  0  0  0  0  0  0  0  0  0  0
    9.1846  -17.4614   25.1037 C   0  0  0  0  0  0  0  0  0  0  0  0
    8.6581  -17.2080   26.4969 C   0  0  2  0  0  0  0  0  0  0  0  0
    8.4365  -15.7912   26.7089 N   0  0  0  0  0  0  0  0  0  0  0  0
    9.4965  -17.7303   27.5650 C   0  0  0  0  0  0  0  0  0  0  0  0
    9.7164  -18.9616   27.6855 O   0  0  0  0  0  0  0  0  0  0  0  0
   10.0778  -16.8725   28.4833 O   0  0  0  0  0  0  0  0  0  0  0  0
  2  1  1  6
  2  9  1  0
  3  2  1  0
  4  3  1  0
  4  5  2  0
  6  5  1  0
  7  6  1  0
  8  7  2  0
  8  4  1  0
  9 10  2  0
 11 12  1  0
 11  9  1  0
 12 15  1  0
 12 13  1  1
 14 13  1  0
 15 16  2  0
 18 17  1  0
 19 18  2  0
 20 18  1  0
 21 20  1  0
 22 21  1  0
 23 22  1  0
 24 23  1  6
 24 26  1  0
 25 15  1  0
 25 24  1  0
 26 27  2  0
 26 28  1  0
M  END
$$$$
