HCR.pdb
     RDKit          3D

 28 28  0  0  1  0  0  0  0  0999 V2000
    9.6955  -12.7929   20.3775 N   0  0  0  0  0  0  0  0  0  0  0  0
    8.5144  -13.4195   20.8949 C   0  0  1  0  0  0  0  0  0  0  0  0
    8.1726  -14.7087   20.1919 C   0  0  0  0  0  0  0  0  0  0  0  0
    7.9398  -14.5502   18.7581 C   0  0  0  0  0  0  0  0  0  0  0  0
    8.0327  -13.3778   18.0365 C   0  0  0  0  0  0  0  0  0  0  0  0
    7.7427  -13.6671   16.7522 N   0  0  0  0  0  0  0  0  0  0  0  0
    7.4725  -14.9668   16.6366 C   0  0  0  0  0  0  0  0  0  0  0  0
    7.5958  -15.4973   17.8682 N   0  0  0  0  0  0  0  0  0  0  0  0
    8.7560  -13.6652   22.3511 C   0  0  0  0  0  0  0  0  0  0  0  0
    9.8567  -14.1274   22.7463 O   0  0  0  0  0  0  0  0  0  0  0  0
    7.7745  -13.3945   23.3425 N   0  0  0  0  0  0  0  0  0  0  0  0
    7.9984  -13.6848   24.7538 C   0  0  1  0  0  0  0  0  0  0  0  0
    7.0215  -12.8516   25.5662 C   0  0  0  0  0  0  0  0  0  0  0  0
    5.3346  -13.4474   25.2475 S   0  0  0  0  0  0  0  0  0  0  0  0
    7.8309  -15.1242   25.0197 C   0  0  0  0  0  0  0  0  0  0  0  0
    7.0618  -15.7936   24.2924 O   0  0  0  0  0  0  0  0  0  0  0  0
   15.9297  -18.8914   23.8843 N   0  0  0  0  0  0  0  0  0  0  0  0
   14.8928  -17.9311   23.9135 C   0  0  0  0  0  0  0  0  0  0  0  0
   15.1836  -16.7191   24.2085 N   0  0  0  0  0  0  0  0  0  0  0  0
   13.5534  -18.3336   23.6152 N   0  0  0  0  0  0  0  0  0  0  0  0
   12.5118  -17.3261   23.6327 C   0  0  0  0  0  0  0  0  0  0  0  0
   11.5081  -17.6127   24.7259 C   0  0  0  0  0  0  0  0  0  0  0  0
   10.4491  -16.5779   24.8394 C   0  0  0  0  0  0  0  0  0  0  0  0
    9.4202  -16.8777   25.9043 C   0  0  2  0  0  0  0  0  0  0  0  0
    8.5175  -15.7559   26.0720 N   0  0  0  0  0  0  0  0  0  0  0  0
    9.9768  -17.2464   27.1969 C   0  0  0  0  0  0  0  0  0  0  0  0
   10.5273  -18.3608   27.3816 O   0  0  0  0  0  0  0  0  0  0  0  0
    9.9117  -16.3677   28.2648 O   0  0  0  0  0  0  0  0  0  0  0  0
  2  1  1  6
  2  9  1  0
  3  2  1  0
  4  3  1  0
  4  5  2  0
  6  5  1  0
  7  6  1  0
  8  7  2  0
  8  4  1  0
  9 10  2  0
 11 12  1  0
 11  9  1  0
 12 15  1  0
 12 13  1  1
 14 13  1  0
 15 16  2  0
 18 17  1  0
 19 18  2  0
 20 18  1  0
 21 20  1  0
 22 21  1  0
 23 22  1  0
 24 23  1  6
 24 26  1  0
 25 15  1  0
 25 24  1  0
 26 27  2  0
 26 28  1  0
M  END
$$$$
