HCR.pdb
     RDKit          3D

 28 28  0  0  1  0  0  0  0  0999 V2000
    8.6633  -14.9800   20.5700 N   0  0  0  0  0  0  0  0  0  0  0  0
    7.7723  -15.1880   21.6737 C   0  0  1  0  0  0  0  0  0  0  0  0
    7.5130  -16.6458   21.9578 C   0  0  0  0  0  0  0  0  0  0  0  0
    6.7405  -17.3174   20.9151 C   0  0  0  0  0  0  0  0  0  0  0  0
    7.0589  -17.3871   19.5743 C   0  0  0  0  0  0  0  0  0  0  0  0
    6.0888  -18.0956   18.9626 N   0  0  0  0  0  0  0  0  0  0  0  0
    5.1777  -18.4727   19.8588 C   0  0  0  0  0  0  0  0  0  0  0  0
    5.5854  -17.9920   21.0489 N   0  0  0  0  0  0  0  0  0  0  0  0
    8.3928  -14.5251   22.8631 C   0  0  0  0  0  0  0  0  0  0  0  0
    9.6413  -14.5224   23.0133 O   0  0  0  0  0  0  0  0  0  0  0  0
    7.6194  -13.8773   23.8640 N   0  0  0  0  0  0  0  0  0  0  0  0
    8.2068  -13.4061   25.1127 C   0  0  1  0  0  0  0  0  0  0  0  0
    7.2475  -12.4061   25.7359 C   0  0  0  0  0  0  0  0  0  0  0  0
    5.7021  -13.2617   26.1622 S   0  0  0  0  0  0  0  0  0  0  0  0
    8.4720  -14.5366   26.0196 C   0  0  0  0  0  0  0  0  0  0  0  0
    7.6844  -15.5103   26.0273 O   0  0  0  0  0  0  0  0  0  0  0  0
   13.9902  -21.1044   26.3646 N   0  0  0  0  0  0  0  0  0  0  0  0
   12.8397  -20.8397   27.1421 C   0  0  0  0  0  0  0  0  0  0  0  0
   11.9426  -21.7482   27.2440 N   0  0  0  0  0  0  0  0  0  0  0  0
   12.7062  -19.5727   27.7914 N   0  0  0  0  0  0  0  0  0  0  0  0
   12.0813  -18.4877   27.0617 C   0  0  0  0  0  0  0  0  0  0  0  0
   12.0084  -17.2415   27.9140 C   0  0  0  0  0  0  0  0  0  0  0  0
   11.4602  -16.0653   27.1921 C   0  0  0  0  0  0  0  0  0  0  0  0
   10.0549  -15.6990   27.6089 C   0  0  2  0  0  0  0  0  0  0  0  0
    9.5900  -14.5400   26.8727 N   0  0  0  0  0  0  0  0  0  0  0  0
    9.8887  -15.4632   29.0349 C   0  0  0  0  0  0  0  0  0  0  0  0
    9.6420  -14.3171   29.4872 O   0  0  0  0  0  0  0  0  0  0  0  0
    9.9999  -16.5084   29.9360 O   0  0  0  0  0  0  0  0  0  0  0  0
  2  1  1  6
  2  9  1  0
  3  2  1  0
  4  3  1  0
  4  5  2  0
  6  5  1  0
  7  6  1  0
  8  7  2  0
  8  4  1  0
  9 10  2  0
 11 12  1  0
 11  9  1  0
 12 15  1  0
 12 13  1  1
 14 13  1  0
 15 16  2  0
 18 17  1  0
 19 18  2  0
 20 18  1  0
 21 20  1  0
 22 21  1  0
 23 22  1  0
 24 23  1  1
 24 26  1  0
 25 15  1  0
 25 24  1  0
 26 27  2  0
 26 28  1  0
M  END
$$$$
