RFT.pdb
     RDKit          3D

 30 30  0  0  1  0  0  0  0  0999 V2000
    8.3109  -20.2808   16.4102 N   0  0  0  0  0  0  0  0  0  0  0  0
    7.0205  -19.6814   16.3478 C   0  0  0  0  0  0  0  0  0  0  0  0
    6.0830  -20.2820   15.7375 N   0  0  0  0  0  0  0  0  0  0  0  0
    6.8778  -18.4247   16.9920 N   0  0  0  0  0  0  0  0  0  0  0  0
    7.0362  -18.3389   18.4280 C   0  0  0  0  0  0  0  0  0  0  0  0
    8.4698  -18.5371   18.8184 C   0  0  0  0  0  0  0  0  0  0  0  0
    9.1070  -17.3573   19.4794 C   0  0  0  0  0  0  0  0  0  0  0  0
    8.0468  -16.4574   20.0492 C   0  0  2  0  0  0  0  0  0  0  0  0
    7.6943  -15.3864   19.1458 N   0  0  0  0  0  0  0  0  0  0  0  0
    8.4994  -15.8264   21.3323 C   0  0  0  0  0  0  0  0  0  0  0  0
    9.7504  -15.7215   21.5769 O   0  0  0  0  0  0  0  0  0  0  0  0
    5.1202  -19.8854   15.7157 N   0  0  0  0  0  0  0  0  0  0  0  0
    7.6082  -15.3317   22.3056 C   0  0  2  0  0  0  0  0  0  0  0  0
    8.1263  -14.6520   23.5290 C   0  0  0  0  0  0  0  0  0  0  0  0
    7.0372  -13.6937   23.9377 C   0  0  0  0  0  0  0  0  0  0  0  0
    7.2273  -12.9873   25.1879 C   0  0  0  0  0  0  0  0  0  0  0  0
    6.3687  -13.1060   26.2561 C   0  0  0  0  0  0  0  0  0  0  0  0
    6.5758  -12.3993   27.4430 C   0  0  0  0  0  0  0  0  0  0  0  0
    7.6527  -11.5531   27.5903 C   0  0  0  0  0  0  0  0  0  0  0  0
    8.5201  -11.4236   26.5328 C   0  0  0  0  0  0  0  0  0  0  0  0
    8.3130  -12.1180   25.3718 C   0  0  0  0  0  0  0  0  0  0  0  0
    8.2672  -15.7074   24.5349 O   0  0  0  0  0  0  0  0  0  0  0  0
    7.2261  -16.3557   24.8924 C   0  0  0  0  0  0  0  0  0  0  0  0
    9.9111  -18.9305   24.5371 C   0  0  2  0  0  0  0  0  0  0  0  0
   10.4851  -18.1927   25.7111 O   0  0  0  0  0  0  0  0  0  0  0  0
   11.6485  -17.4890   25.3725 C   0  0  2  0  0  0  0  0  0  0  0  0
    9.4891  -17.1367   26.1992 N   0  0  0  0  0  0  0  0  0  0  0  0
    9.4697  -16.1048   25.1705 C   0  0  0  0  0  0  0  0  0  0  0  0
    9.9108  -16.6757   27.5075 O   0  0  0  0  0  0  0  0  0  0  0  0
    9.9346  -17.5501   28.5782 O   0  0  0  0  0  0  0  0  0  0  0  0
  2  1  1  0
  3  2  2  0
  4  2  1  0
  5  4  1  0
  6  5  1  0
  7  6  1  0
  8  7  1  0
  8  9  1  6
 10 12  1  0
 10  8  1  0
 11 10  2  0
 13 21  1  0
 13 12  1  0
 13 14  1  6
 15 14  1  0
 16 15  2  0
 17 16  1  0
 18 19  1  0
 18 17  2  0
 19 20  2  0
 20 15  1  0
 21 27  1  0
 22 21  2  0
 24 25  1  0
 24 23  1  1
 24 26  1  0
 26 28  1  0
 26 27  1  1
 28 30  2  0
 28 29  1  0
M  END
$$$$
