RFT.pdb
     RDKit          3D

 30 30  0  0  1  0  0  0  0  0999 V2000
   10.0637  -13.4355   18.3988 N   0  0  0  0  0  0  0  0  0  0  0  0
    8.7022  -13.3050   18.0014 C   0  0  0  0  0  0  0  0  0  0  0  0
    8.1246  -12.1802   18.1157 N   0  0  0  0  0  0  0  0  0  0  0  0
    8.0797  -14.4747   17.4927 N   0  0  0  0  0  0  0  0  0  0  0  0
    7.7015  -15.5336   18.4039 C   0  0  0  0  0  0  0  0  0  0  0  0
    8.7111  -16.6413   18.3815 C   0  0  0  0  0  0  0  0  0  0  0  0
    9.7892  -16.5262   19.4107 C   0  0  0  0  0  0  0  0  0  0  0  0
    9.3916  -17.2743   20.6519 C   0  0  2  0  0  0  0  0  0  0  0  0
    8.0321  -17.7594   20.5868 N   0  0  0  0  0  0  0  0  0  0  0  0
    9.4958  -16.4048   21.8694 C   0  0  0  0  0  0  0  0  0  0  0  0
   10.6044  -15.8263   22.1385 O   0  0  0  0  0  0  0  0  0  0  0  0
    7.1142  -12.0734   17.8870 N   0  0  0  0  0  0  0  0  0  0  0  0
    8.4211  -16.1828   22.7538 C   0  0  1  0  0  0  0  0  0  0  0  0
    8.6005  -15.3238   23.9608 C   0  0  0  0  0  0  0  0  0  0  0  0
    7.2865  -14.6057   24.1316 C   0  0  0  0  0  0  0  0  0  0  0  0
    7.1601  -13.7469   25.2911 C   0  0  0  0  0  0  0  0  0  0  0  0
    7.9524  -12.6416   25.4974 C   0  0  0  0  0  0  0  0  0  0  0  0
    7.8115  -11.8425   26.6344 C   0  0  0  0  0  0  0  0  0  0  0  0
    6.8693  -12.1317   27.5967 C   0  0  0  0  0  0  0  0  0  0  0  0
    6.0694  -13.2322   27.4055 C   0  0  0  0  0  0  0  0  0  0  0  0
    6.2113  -14.0121   26.2900 C   0  0  0  0  0  0  0  0  0  0  0  0
    8.8123  -16.2509   25.0749 O   0  0  0  0  0  0  0  0  0  0  0  0
    7.8545  -17.0226   25.4199 C   0  0  0  0  0  0  0  0  0  0  0  0
   10.6801  -19.1472   25.3168 C   0  0  2  0  0  0  0  0  0  0  0  0
   11.1684  -18.3632   26.4996 O   0  0  0  0  0  0  0  0  0  0  0  0
   12.3093  -17.6087   26.1960 C   0  0  2  0  0  0  0  0  0  0  0  0
   10.1029  -17.3497   26.9276 N   0  0  0  0  0  0  0  0  0  0  0  0
   10.0016  -16.3947   25.8317 C   0  0  0  0  0  0  0  0  0  0  0  0
   10.5006  -16.7714   28.1963 O   0  0  0  0  0  0  0  0  0  0  0  0
   10.5118  -17.5472   29.3407 O   0  0  0  0  0  0  0  0  0  0  0  0
  2  1  1  0
  3  2  2  0
  4  2  1  0
  5  4  1  0
  6  5  1  0
  7  6  1  0
  8  7  1  0
  8  9  1  6
 10 12  1  0
 10  8  1  0
 11 10  2  0
 13 21  1  0
 13 12  1  0
 13 14  1  1
 15 14  1  0
 16 15  2  0
 17 16  1  0
 18 19  1  0
 18 17  2  0
 19 20  2  0
 20 15  1  0
 21 27  1  0
 22 21  2  0
 24 25  1  0
 24 23  1  1
 24 26  1  0
 26 28  1  0
 26 27  1  1
 28 30  2  0
 28 29  1  0
M  END
$$$$
