RFT.pdb
     RDKit          3D

 30 30  0  0  1  0  0  0  0  0999 V2000
    7.4860  -14.8951   15.3841 N   0  0  0  0  0  0  0  0  0  0  0  0
    8.5339  -13.9313   15.4233 C   0  0  0  0  0  0  0  0  0  0  0  0
    9.3431  -13.8504   14.4484 N   0  0  0  0  0  0  0  0  0  0  0  0
    8.5931  -13.1119   16.5808 N   0  0  0  0  0  0  0  0  0  0  0  0
    7.5791  -13.2511   17.6041 C   0  0  0  0  0  0  0  0  0  0  0  0
    7.8416  -14.4580   18.4532 C   0  0  0  0  0  0  0  0  0  0  0  0
    9.0570  -14.3620   19.3183 C   0  0  0  0  0  0  0  0  0  0  0  0
    9.1577  -15.5793   20.1937 C   0  0  2  0  0  0  0  0  0  0  0  0
    7.9892  -16.4234   20.0941 N   0  0  0  0  0  0  0  0  0  0  0  0
    9.3120  -15.2017   21.6369 C   0  0  0  0  0  0  0  0  0  0  0  0
   10.3558  -14.5663   22.0147 O   0  0  0  0  0  0  0  0  0  0  0  0
   10.0806  -13.1153   14.4264 N   0  0  0  0  0  0  0  0  0  0  0  0
    8.3540  -15.5125   22.6229 C   0  0  1  0  0  0  0  0  0  0  0  0
    8.5122  -15.0046   24.0171 C   0  0  0  0  0  0  0  0  0  0  0  0
    7.1536  -14.4763   24.4000 C   0  0  0  0  0  0  0  0  0  0  0  0
    7.0822  -13.6772   25.6060 C   0  0  0  0  0  0  0  0  0  0  0  0
    6.8337  -14.2126   26.8485 C   0  0  0  0  0  0  0  0  0  0  0  0
    6.7588  -13.4099   27.9892 C   0  0  0  0  0  0  0  0  0  0  0  0
    6.9321  -12.0455   27.9134 C   0  0  0  0  0  0  0  0  0  0  0  0
    7.1816  -11.4949   26.6797 C   0  0  0  0  0  0  0  0  0  0  0  0
    7.2540  -12.2854   25.5649 C   0  0  0  0  0  0  0  0  0  0  0  0
    8.8387  -16.1796   24.8286 O   0  0  0  0  0  0  0  0  0  0  0  0
    8.0886  -17.2102   24.7436 C   0  0  0  0  0  0  0  0  0  0  0  0
   11.2379  -18.5230   24.5743 C   0  0  2  0  0  0  0  0  0  0  0  0
   11.4030  -18.1573   26.0203 O   0  0  0  0  0  0  0  0  0  0  0  0
   12.4215  -17.2142   26.2114 C   0  0  2  0  0  0  0  0  0  0  0  0
   10.1227  -17.4957   26.5388 N   0  0  0  0  0  0  0  0  0  0  0  0
    9.9326  -16.3050   25.7206 C   0  0  0  0  0  0  0  0  0  0  0  0
   10.2810  -17.2341   27.9561 O   0  0  0  0  0  0  0  0  0  0  0  0
   10.4205  -18.2837   28.8453 O   0  0  0  0  0  0  0  0  0  0  0  0
  2  1  1  0
  3  2  2  0
  4  2  1  0
  5  4  1  0
  6  5  1  0
  7  6  1  0
  8  7  1  0
  8  9  1  1
 10 12  1  0
 10  8  1  0
 11 10  2  0
 13 21  1  0
 13 12  1  0
 13 14  1  1
 15 14  1  0
 16 15  2  0
 17 16  1  0
 18 19  1  0
 18 17  2  0
 19 20  2  0
 20 15  1  0
 21 27  1  0
 22 21  2  0
 24 25  1  0
 24 23  1  1
 24 26  1  0
 26 28  1  0
 26 27  1  1
 28 30  2  0
 28 29  1  0
M  END
$$$$
