RFT.pdb
     RDKit          3D

 30 30  0  0  1  0  0  0  0  0999 V2000
    7.7703  -12.8050   15.8910 N   0  0  0  0  0  0  0  0  0  0  0  0
    8.3485  -14.0691   15.5811 C   0  0  0  0  0  0  0  0  0  0  0  0
    8.7732  -14.2889   14.4050 N   0  0  0  0  0  0  0  0  0  0  0  0
    8.4085  -15.0112   16.6411 N   0  0  0  0  0  0  0  0  0  0  0  0
    7.6555  -14.7681   17.8529 C   0  0  0  0  0  0  0  0  0  0  0  0
    8.5628  -14.7329   19.0456 C   0  0  0  0  0  0  0  0  0  0  0  0
    9.5653  -15.8405   19.1019 C   0  0  0  0  0  0  0  0  0  0  0  0
    9.3112  -16.6976   20.3099 C   0  0  2  0  0  0  0  0  0  0  0  0
    8.0022  -17.3087   20.2821 N   0  0  0  0  0  0  0  0  0  0  0  0
    9.4017  -15.8972   21.5750 C   0  0  0  0  0  0  0  0  0  0  0  0
   10.4984  -15.3103   21.8732 O   0  0  0  0  0  0  0  0  0  0  0  0
    9.1503  -15.2227   14.1394 N   0  0  0  0  0  0  0  0  0  0  0  0
    8.3265  -15.7505   22.4743 C   0  0  1  0  0  0  0  0  0  0  0  0
    8.5153  -15.0293   23.7670 C   0  0  0  0  0  0  0  0  0  0  0  0
    7.2376  -14.2581   23.9776 C   0  0  0  0  0  0  0  0  0  0  0  0
    7.1411  -13.4784   25.1945 C   0  0  0  0  0  0  0  0  0  0  0  0
    6.2270  -13.7449   26.1872 C   0  0  0  0  0  0  0  0  0  0  0  0
    6.1534  -12.9635   27.3427 C   0  0  0  0  0  0  0  0  0  0  0  0
    6.9971  -11.8916   27.5334 C   0  0  0  0  0  0  0  0  0  0  0  0
    7.9164  -11.6120   26.5514 C   0  0  0  0  0  0  0  0  0  0  0  0
    7.9847  -12.3804   25.4210 C   0  0  0  0  0  0  0  0  0  0  0  0
    8.6421  -16.0747   24.7852 O   0  0  0  0  0  0  0  0  0  0  0  0
    7.6524  -16.8572   24.9861 C   0  0  0  0  0  0  0  0  0  0  0  0
   10.6070  -18.9337   24.7585 C   0  0  2  0  0  0  0  0  0  0  0  0
   10.9416  -18.3444   26.0974 O   0  0  0  0  0  0  0  0  0  0  0  0
   12.0904  -17.5437   26.0475 C   0  0  2  0  0  0  0  0  0  0  0  0
    9.8107  -17.4186   26.5554 N   0  0  0  0  0  0  0  0  0  0  0  0
    9.7792  -16.3252   25.5927 C   0  0  0  0  0  0  0  0  0  0  0  0
   10.0738  -17.0114   27.9218 O   0  0  0  0  0  0  0  0  0  0  0  0
   10.0097  -17.9364   28.9474 O   0  0  0  0  0  0  0  0  0  0  0  0
  2  1  1  0
  3  2  2  0
  4  2  1  0
  5  4  1  0
  6  5  1  0
  7  6  1  0
  8  7  1  0
  8  9  1  6
 10 12  1  0
 10  8  1  0
 11 10  2  0
 13 21  1  0
 13 12  1  0
 13 14  1  1
 15 14  1  0
 16 15  2  0
 17 16  1  0
 18 19  1  0
 18 17  2  0
 19 20  2  0
 20 15  1  0
 21 27  1  0
 22 21  2  0
 24 25  1  0
 24 23  1  1
 24 26  1  0
 26 28  1  0
 26 27  1  1
 28 30  2  0
 28 29  1  0
M  END
$$$$
