RFT.pdb
     RDKit          3D

 30 30  0  0  1  0  0  0  0  0999 V2000
    7.9808  -13.2251   16.8928 N   0  0  0  0  0  0  0  0  0  0  0  0
    8.0189  -13.9829   15.6876 C   0  0  0  0  0  0  0  0  0  0  0  0
    7.3868  -13.5656   14.6686 N   0  0  0  0  0  0  0  0  0  0  0  0
    8.7833  -15.1785   15.7191 N   0  0  0  0  0  0  0  0  0  0  0  0
    9.0090  -15.8459   16.9833 C   0  0  0  0  0  0  0  0  0  0  0  0
    9.3866  -14.8591   18.0465 C   0  0  0  0  0  0  0  0  0  0  0  0
   10.2148  -15.4216   19.1566 C   0  0  0  0  0  0  0  0  0  0  0  0
    9.3405  -16.1919   20.1056 C   0  0  2  0  0  0  0  0  0  0  0  0
    7.9418  -16.1062   19.7534 N   0  0  0  0  0  0  0  0  0  0  0  0
    9.4778  -15.6818   21.5092 C   0  0  0  0  0  0  0  0  0  0  0  0
   10.6433  -15.4818   21.9967 O   0  0  0  0  0  0  0  0  0  0  0  0
    7.4208  -14.0882   13.7684 N   0  0  0  0  0  0  0  0  0  0  0  0
    8.3745  -15.4042   22.3411 C   0  0  1  0  0  0  0  0  0  0  0  0
    8.5790  -14.8108   23.6950 C   0  0  0  0  0  0  0  0  0  0  0  0
    7.3087  -14.0548   23.9893 C   0  0  0  0  0  0  0  0  0  0  0  0
    7.2421  -13.3642   25.2607 C   0  0  0  0  0  0  0  0  0  0  0  0
    8.0268  -12.2767   25.5670 C   0  0  0  0  0  0  0  0  0  0  0  0
    7.9453  -11.6425   26.8090 C   0  0  0  0  0  0  0  0  0  0  0  0
    7.0721  -12.0835   27.7787 C   0  0  0  0  0  0  0  0  0  0  0  0
    6.2808  -13.1685   27.4884 C   0  0  0  0  0  0  0  0  0  0  0  0
    6.3643  -13.7865   26.2703 C   0  0  0  0  0  0  0  0  0  0  0  0
    8.7063  -15.9493   24.6078 O   0  0  0  0  0  0  0  0  0  0  0  0
    7.6874  -16.6950   24.8026 C   0  0  0  0  0  0  0  0  0  0  0  0
   10.5825  -19.0301   24.4714 C   0  0  2  0  0  0  0  0  0  0  0  0
   10.9826  -18.3907   25.7688 O   0  0  0  0  0  0  0  0  0  0  0  0
   12.1251  -17.5915   25.6311 C   0  0  2  0  0  0  0  0  0  0  0  0
    9.8737  -17.4496   26.2485 N   0  0  0  0  0  0  0  0  0  0  0  0
    9.8731  -16.3299   25.3159 C   0  0  0  0  0  0  0  0  0  0  0  0
   10.1419  -17.0863   27.6263 O   0  0  0  0  0  0  0  0  0  0  0  0
   10.0696  -18.0412   28.6236 O   0  0  0  0  0  0  0  0  0  0  0  0
  2  1  1  0
  3  2  2  0
  4  2  1  0
  5  4  1  0
  6  5  1  0
  7  6  1  0
  8  7  1  0
  8  9  1  6
 10 12  1  0
 10  8  1  0
 11 10  2  0
 13 21  1  0
 13 12  1  0
 13 14  1  1
 15 14  1  0
 16 15  2  0
 17 16  1  0
 18 19  1  0
 18 17  2  0
 19 20  2  0
 20 15  1  0
 21 27  1  0
 22 21  2  0
 24 25  1  0
 24 23  1  1
 24 26  1  0
 26 28  1  0
 26 27  1  1
 28 30  2  0
 28 29  1  0
M  END
$$$$
