RFT.pdb
     RDKit          3D

 30 30  0  0  1  0  0  0  0  0999 V2000
    7.7559  -13.2745   16.2794 N   0  0  0  0  0  0  0  0  0  0  0  0
    8.5591  -14.4442   16.4025 C   0  0  0  0  0  0  0  0  0  0  0  0
    9.5080  -14.6380   15.5815 N   0  0  0  0  0  0  0  0  0  0  0  0
    8.2284  -15.3265   17.4640 N   0  0  0  0  0  0  0  0  0  0  0  0
    9.1355  -16.4015   17.8049 C   0  0  0  0  0  0  0  0  0  0  0  0
    8.5556  -17.2656   18.8837 C   0  0  0  0  0  0  0  0  0  0  0  0
    8.3037  -16.5640   20.1795 C   0  0  0  0  0  0  0  0  0  0  0  0
    9.5779  -15.9439   20.6800 C   0  0  2  0  0  0  0  0  0  0  0  0
   10.7059  -16.8390   20.5610 N   0  0  0  0  0  0  0  0  0  0  0  0
    9.4659  -15.5591   22.1252 C   0  0  0  0  0  0  0  0  0  0  0  0
   10.4141  -15.8529   22.9317 O   0  0  0  0  0  0  0  0  0  0  0  0
   10.0512  -15.5265   15.5936 N   0  0  0  0  0  0  0  0  0  0  0  0
    8.3530  -14.8784   22.6587 C   0  0  1  0  0  0  0  0  0  0  0  0
    8.3946  -14.3340   24.0476 C   0  0  0  0  0  0  0  0  0  0  0  0
    7.1752  -13.4558   24.1627 C   0  0  0  0  0  0  0  0  0  0  0  0
    6.9026  -12.8883   25.4671 C   0  0  0  0  0  0  0  0  0  0  0  0
    7.8088  -12.1139   26.1538 C   0  0  0  0  0  0  0  0  0  0  0  0
    7.5171  -11.5931   27.4167 C   0  0  0  0  0  0  0  0  0  0  0  0
    6.3054  -11.8357   28.0254 C   0  0  0  0  0  0  0  0  0  0  0  0
    5.3890  -12.6071   27.3526 C   0  0  0  0  0  0  0  0  0  0  0  0
    5.6794  -13.1152   26.1156 C   0  0  0  0  0  0  0  0  0  0  0  0
    8.2592  -15.4959   24.9293 O   0  0  0  0  0  0  0  0  0  0  0  0
    8.4037  -15.3299   26.1877 C   0  0  0  0  0  0  0  0  0  0  0  0
    6.0210  -18.8203   24.2090 C   0  0  2  0  0  0  0  0  0  0  0  0
    7.3996  -19.1309   24.7140 O   0  0  0  0  0  0  0  0  0  0  0  0
    8.3023  -19.3657   23.6685 C   0  0  2  0  0  0  0  0  0  0  0  0
    7.9563  -17.9271   25.4799 N   0  0  0  0  0  0  0  0  0  0  0  0
    7.9704  -16.8238   24.5280 C   0  0  0  0  0  0  0  0  0  0  0  0
    9.2579  -18.2813   26.0114 O   0  0  0  0  0  0  0  0  0  0  0  0
    9.3746  -19.2906   26.9491 O   0  0  0  0  0  0  0  0  0  0  0  0
  2  1  1  0
  3  2  2  0
  4  2  1  0
  5  4  1  0
  6  5  1  0
  7  6  1  0
  8  7  1  0
  8  9  1  1
 10 12  1  0
 10  8  1  0
 11 10  2  0
 13 21  1  0
 13 12  1  0
 13 14  1  1
 15 14  1  0
 16 15  2  0
 17 16  1  0
 18 19  1  0
 18 17  2  0
 19 20  2  0
 20 15  1  0
 21 27  1  0
 22 21  2  0
 24 25  1  0
 24 23  1  1
 24 26  1  0
 26 28  1  0
 26 27  1  1
 28 30  2  0
 28 29  1  0
M  END
$$$$
