RFT.pdb
     RDKit          3D

 30 30  0  0  1  0  0  0  0  0999 V2000
    6.7788  -14.4962   16.3472 N   0  0  0  0  0  0  0  0  0  0  0  0
    7.7091  -14.3033   15.2862 C   0  0  0  0  0  0  0  0  0  0  0  0
    7.3582  -14.5644   14.0943 N   0  0  0  0  0  0  0  0  0  0  0  0
    8.9918  -13.8190   15.6534 N   0  0  0  0  0  0  0  0  0  0  0  0
    9.2629  -13.5014   17.0391 C   0  0  0  0  0  0  0  0  0  0  0  0
    9.9881  -14.6278   17.7115 C   0  0  0  0  0  0  0  0  0  0  0  0
   10.3103  -14.3928   19.1523 C   0  0  0  0  0  0  0  0  0  0  0  0
    9.8498  -15.5627   19.9754 C   0  0  2  0  0  0  0  0  0  0  0  0
    8.5037  -15.9696   19.6435 N   0  0  0  0  0  0  0  0  0  0  0  0
    9.8686  -15.2399   21.4399 C   0  0  0  0  0  0  0  0  0  0  0  0
   10.9847  -15.0110   22.0212 O   0  0  0  0  0  0  0  0  0  0  0  0
    7.9860  -14.3449   13.2928 N   0  0  0  0  0  0  0  0  0  0  0  0
    8.7039  -15.1727   22.2306 C   0  0  1  0  0  0  0  0  0  0  0  0
    8.7738  -14.6862   23.6396 C   0  0  0  0  0  0  0  0  0  0  0  0
    7.4929  -13.9221   23.8562 C   0  0  0  0  0  0  0  0  0  0  0  0
    7.3544  -13.2289   25.1205 C   0  0  0  0  0  0  0  0  0  0  0  0
    8.1587  -12.1769   25.4926 C   0  0  0  0  0  0  0  0  0  0  0  0
    8.0053  -11.5396   26.7261 C   0  0  0  0  0  0  0  0  0  0  0  0
    7.0382  -11.9415   27.6208 C   0  0  0  0  0  0  0  0  0  0  0  0
    6.2261  -12.9907   27.2642 C   0  0  0  0  0  0  0  0  0  0  0  0
    6.3804  -13.6121   26.0546 C   0  0  0  0  0  0  0  0  0  0  0  0
    8.7836  -15.8918   24.4715 O   0  0  0  0  0  0  0  0  0  0  0  0
    7.7156  -16.5881   24.5534 C   0  0  0  0  0  0  0  0  0  0  0  0
   10.5057  -18.9981   24.1538 C   0  0  2  0  0  0  0  0  0  0  0  0
   10.8417  -18.5471   25.5451 O   0  0  0  0  0  0  0  0  0  0  0  0
   12.0482  -17.8361   25.5906 C   0  0  2  0  0  0  0  0  0  0  0  0
    9.7696  -17.5771   26.0505 N   0  0  0  0  0  0  0  0  0  0  0  0
    9.8833  -16.3897   25.2136 C   0  0  0  0  0  0  0  0  0  0  0  0
    9.9909  -17.3418   27.4639 O   0  0  0  0  0  0  0  0  0  0  0  0
    9.8336  -18.3716   28.3730 O   0  0  0  0  0  0  0  0  0  0  0  0
  2  1  1  0
  3  2  2  0
  4  2  1  0
  5  4  1  0
  6  5  1  0
  7  6  1  0
  8  7  1  0
  8  9  1  6
 10 12  1  0
 10  8  1  0
 11 10  2  0
 13 21  1  0
 13 12  1  0
 13 14  1  1
 15 14  1  0
 16 15  2  0
 17 16  1  0
 18 19  1  0
 18 17  2  0
 19 20  2  0
 20 15  1  0
 21 27  1  0
 22 21  2  0
 24 25  1  0
 24 23  1  1
 24 26  1  0
 26 28  1  0
 26 27  1  1
 28 30  2  0
 28 29  1  0
M  END
$$$$
