KLL.pdb
     RDKit          3D

 26 25  0  0  1  0  0  0  0  0999 V2000
    7.1031  -17.5017   22.3905 N   0  0  0  0  0  0  0  0  0  0  0  0
    8.2414  -16.9687   21.7052 C   0  0  1  0  0  0  0  0  0  0  0  0
    7.7919  -16.5301   20.3245 C   0  0  0  0  0  0  0  0  0  0  0  0
    7.4709  -17.7936   19.5532 C   0  0  0  0  0  0  0  0  0  0  0  0
    7.8160  -17.7023   18.1043 C   0  0  0  0  0  0  0  0  0  0  0  0
    7.4875  -18.9974   17.3840 C   0  0  0  0  0  0  0  0  0  0  0  0
    7.6533  -18.8731   15.9573 N   0  0  0  0  0  0  0  0  0  0  0  0
    8.8899  -15.8625   22.4596 C   0  0  0  0  0  0  0  0  0  0  0  0
    9.9636  -15.3404   22.1353 O   0  0  0  0  0  0  0  0  0  0  0  0
    5.5800  -12.6603   25.6740 C   0  0  0  0  0  0  0  0  0  0  0  0
    6.5296  -13.2209   24.6172 C   0  0  1  0  0  0  0  0  0  0  0  0
    6.8926  -12.0251   23.7287 C   0  0  0  0  0  0  0  0  0  0  0  0
    7.7509  -13.6930   25.3264 C   0  0  0  0  0  0  0  0  0  0  0  0
    8.7796  -14.3058   24.4042 C   0  0  2  0  0  0  0  0  0  0  0  0
    8.2299  -15.3864   23.6166 N   0  0  0  0  0  0  0  0  0  0  0  0
    9.8533  -14.8647   25.2612 C   0  0  0  0  0  0  0  0  0  0  0  0
   10.9018  -14.1745   25.4284 O   0  0  0  0  0  0  0  0  0  0  0  0
    9.9260  -15.2103   30.0675 C   0  0  0  0  0  0  0  0  0  0  0  0
   10.2319  -15.0434   28.5406 C   0  0  1  0  0  0  0  0  0  0  0  0
   11.3122  -14.0088   28.4780 C   0  0  0  0  0  0  0  0  0  0  0  0
   10.5766  -16.4035   28.0819 C   0  0  0  0  0  0  0  0  0  0  0  0
   10.9301  -16.6606   26.6691 C   0  0  2  0  0  0  0  0  0  0  0  0
    9.7769  -16.1109   25.8968 N   0  0  0  0  0  0  0  0  0  0  0  0
   11.0399  -18.0530   26.2523 C   0  0  0  0  0  0  0  0  0  0  0  0
   10.2052  -18.5780   25.2879 O   0  0  0  0  0  0  0  0  0  0  0  0
   11.8895  -18.8149   26.7522 O   0  0  0  0  0  0  0  0  0  0  0  0
  2  1  1  1
  3  2  1  0
  4  5  1  0
  4  3  1  0
  5  6  1  0
  6  7  1  0
  8  2  1  0
  8 15  1  0
  9  8  2  0
 11 10  1  1
 12 11  1  0
 14 13  1  1
 13 11  1  0
 14 15  1  0
 16 14  1  0
 17 16  2  0
 19 18  1  1
 20 19  1  0
 21 19  1  0
 22 21  1  1
 22 24  1  0
 22 23  1  0
 23 16  1  0
 24 25  1  0
 26 24  2  0
M  END
$$$$
