KLL.pdb
     RDKit          3D

 26 25  0  0  1  0  0  0  0  0999 V2000
    7.4111  -16.9519   20.8840 N   0  0  0  0  0  0  0  0  0  0  0  0
    8.5919  -16.1592   20.7208 C   0  0  1  0  0  0  0  0  0  0  0  0
    8.2981  -15.0919   19.6838 C   0  0  0  0  0  0  0  0  0  0  0  0
    8.3082  -15.7844   18.3367 C   0  0  0  0  0  0  0  0  0  0  0  0
    8.4305  -14.8381   17.1894 C   0  0  0  0  0  0  0  0  0  0  0  0
    8.2397  -15.5585   15.8670 C   0  0  0  0  0  0  0  0  0  0  0  0
    8.3978  -14.6677   14.7447 N   0  0  0  0  0  0  0  0  0  0  0  0
    9.0642  -15.5755   22.0053 C   0  0  0  0  0  0  0  0  0  0  0  0
   10.1599  -15.0202   22.1513 O   0  0  0  0  0  0  0  0  0  0  0  0
    5.5880  -13.0444   25.8087 C   0  0  0  0  0  0  0  0  0  0  0  0
    6.6573  -13.3736   24.7690 C   0  0  1  0  0  0  0  0  0  0  0  0
    7.7024  -12.2595   24.9013 C   0  0  0  0  0  0  0  0  0  0  0  0
    7.2720  -14.6715   25.1629 C   0  0  0  0  0  0  0  0  0  0  0  0
    8.5134  -15.0110   24.3706 C   0  0  2  0  0  0  0  0  0  0  0  0
    8.1995  -15.6668   23.1210 N   0  0  0  0  0  0  0  0  0  0  0  0
    9.3102  -15.9528   25.1938 C   0  0  0  0  0  0  0  0  0  0  0  0
    9.7881  -16.9804   24.6287 O   0  0  0  0  0  0  0  0  0  0  0  0
   10.4365  -14.3235   30.3296 C   0  0  0  0  0  0  0  0  0  0  0  0
   10.6732  -14.5429   28.7971 C   0  0  1  0  0  0  0  0  0  0  0  0
   11.9643  -13.8431   28.5056 C   0  0  0  0  0  0  0  0  0  0  0  0
   10.6500  -16.0090   28.6258 C   0  0  0  0  0  0  0  0  0  0  0  0
   10.5682  -16.6140   27.2789 C   0  0  2  0  0  0  0  0  0  0  0  0
    9.5659  -15.7734   26.5596 N   0  0  0  0  0  0  0  0  0  0  0  0
   10.0581  -17.9765   27.1901 C   0  0  0  0  0  0  0  0  0  0  0  0
   10.8744  -19.0621   27.4302 O   0  0  0  0  0  0  0  0  0  0  0  0
    8.8698  -18.2065   26.8946 O   0  0  0  0  0  0  0  0  0  0  0  0
  2  1  1  1
  3  2  1  0
  4  5  1  0
  4  3  1  0
  5  6  1  0
  6  7  1  0
  8  2  1  0
  8 15  1  0
  9  8  2  0
 11 10  1  1
 12 11  1  0
 14 13  1  1
 13 11  1  0
 14 15  1  0
 16 14  1  0
 17 16  2  0
 19 18  1  1
 20 19  1  0
 21 19  1  0
 22 21  1  1
 22 24  1  0
 22 23  1  0
 23 16  1  0
 24 25  1  0
 26 24  2  0
M  END
$$$$
