KLL.pdb
     RDKit          3D

 26 25  0  0  1  0  0  0  0  0999 V2000
    8.0229  -18.7114   21.4008 N   0  0  0  0  0  0  0  0  0  0  0  0
    9.3782  -18.4665   21.0102 C   0  0  1  0  0  0  0  0  0  0  0  0
    9.4890  -18.7276   19.5201 C   0  0  0  0  0  0  0  0  0  0  0  0
    8.8065  -20.0552   19.2624 C   0  0  0  0  0  0  0  0  0  0  0  0
    9.4451  -20.8425   18.1674 C   0  0  0  0  0  0  0  0  0  0  0  0
    8.6981  -22.1413   17.9240 C   0  0  0  0  0  0  0  0  0  0  0  0
    9.3429  -22.9492   16.9192 N   0  0  0  0  0  0  0  0  0  0  0  0
    9.8337  -17.0973   21.3730 C   0  0  0  0  0  0  0  0  0  0  0  0
   11.0212  -16.7552   21.4276 O   0  0  0  0  0  0  0  0  0  0  0  0
    6.5258  -12.7915   20.1429 C   0  0  0  0  0  0  0  0  0  0  0  0
    7.7495  -13.6965   20.2712 C   0  0  1  0  0  0  0  0  0  0  0  0
    8.8822  -12.9428   19.5640 C   0  0  0  0  0  0  0  0  0  0  0  0
    8.0663  -13.8083   21.7219 C   0  0  0  0  0  0  0  0  0  0  0  0
    9.1888  -14.7765   22.0167 C   0  0  2  0  0  0  0  0  0  0  0  0
    8.8397  -16.1364   21.6720 N   0  0  0  0  0  0  0  0  0  0  0  0
    9.4351  -14.7240   23.4783 C   0  0  0  0  0  0  0  0  0  0  0  0
   10.1533  -13.7829   23.9279 O   0  0  0  0  0  0  0  0  0  0  0  0
    6.3192  -12.9340   26.6754 C   0  0  0  0  0  0  0  0  0  0  0  0
    7.7494  -13.2800   26.1393 C   0  0  1  0  0  0  0  0  0  0  0  0
    8.6803  -12.4573   26.9749 C   0  0  0  0  0  0  0  0  0  0  0  0
    7.8480  -14.7471   26.2698 C   0  0  0  0  0  0  0  0  0  0  0  0
    9.0763  -15.4637   25.8640 C   0  0  2  0  0  0  0  0  0  0  0  0
    8.9205  -15.6536   24.3915 N   0  0  0  0  0  0  0  0  0  0  0  0
    9.2752  -16.8033   26.4029 C   0  0  0  0  0  0  0  0  0  0  0  0
    9.3455  -17.9037   25.5741 O   0  0  0  0  0  0  0  0  0  0  0  0
    9.3881  -16.9998   27.6280 O   0  0  0  0  0  0  0  0  0  0  0  0
  2  1  1  6
  3  2  1  0
  4  5  1  0
  4  3  1  0
  5  6  1  0
  6  7  1  0
  8  2  1  0
  8 15  1  0
  9  8  2  0
 11 10  1  1
 12 11  1  0
 14 13  1  1
 13 11  1  0
 14 15  1  0
 16 14  1  0
 17 16  2  0
 19 18  1  1
 20 19  1  0
 21 19  1  0
 22 21  1  1
 22 24  1  0
 22 23  1  0
 23 16  1  0
 24 25  1  0
 26 24  2  0
M  END
$$$$
