KLL.pdb
     RDKit          3D

 26 25  0  0  1  0  0  0  0  0999 V2000
    7.3700  -17.9676   22.2796 N   0  0  0  0  0  0  0  0  0  0  0  0
    8.5694  -17.5123   21.6445 C   0  0  1  0  0  0  0  0  0  0  0  0
    8.2289  -17.1441   20.2130 C   0  0  0  0  0  0  0  0  0  0  0  0
    8.1050  -18.4468   19.4499 C   0  0  0  0  0  0  0  0  0  0  0  0
    7.8378  -18.2533   17.9946 C   0  0  0  0  0  0  0  0  0  0  0  0
    7.5430  -19.5780   17.3146 C   0  0  0  0  0  0  0  0  0  0  0  0
    7.2439  -19.4060   15.9149 N   0  0  0  0  0  0  0  0  0  0  0  0
    9.2041  -16.3829   22.3762 C   0  0  0  0  0  0  0  0  0  0  0  0
   10.2713  -15.8544   22.0414 O   0  0  0  0  0  0  0  0  0  0  0  0
    5.7525  -13.1199   25.2854 C   0  0  0  0  0  0  0  0  0  0  0  0
    6.8023  -13.6227   24.2966 C   0  0  1  0  0  0  0  0  0  0  0  0
    7.2106  -12.3891   23.4826 C   0  0  0  0  0  0  0  0  0  0  0  0
    7.9697  -14.0930   25.0925 C   0  0  0  0  0  0  0  0  0  0  0  0
    9.0413  -14.7496   24.2530 C   0  0  2  0  0  0  0  0  0  0  0  0
    8.5379  -15.8916   23.5233 N   0  0  0  0  0  0  0  0  0  0  0  0
   10.0906  -15.2288   25.1852 C   0  0  0  0  0  0  0  0  0  0  0  0
   11.2378  -14.6970   25.1149 O   0  0  0  0  0  0  0  0  0  0  0  0
    9.8080  -14.8289   30.1224 C   0  0  0  0  0  0  0  0  0  0  0  0
   10.1377  -14.8809   28.5923 C   0  0  1  0  0  0  0  0  0  0  0  0
   11.1144  -13.7674   28.3737 C   0  0  0  0  0  0  0  0  0  0  0  0
   10.6246  -16.2560   28.3657 C   0  0  0  0  0  0  0  0  0  0  0  0
   11.0019  -16.7133   27.0109 C   0  0  2  0  0  0  0  0  0  0  0  0
    9.8885  -16.2348   26.1391 N   0  0  0  0  0  0  0  0  0  0  0  0
   11.0702  -18.1521   26.7881 C   0  0  0  0  0  0  0  0  0  0  0  0
   10.2348  -18.7756   25.8848 O   0  0  0  0  0  0  0  0  0  0  0  0
   11.8837  -18.8663   27.4048 O   0  0  0  0  0  0  0  0  0  0  0  0
  2  1  1  1
  3  2  1  0
  4  5  1  0
  4  3  1  0
  5  6  1  0
  6  7  1  0
  8  2  1  0
  8 15  1  0
  9  8  2  0
 11 10  1  1
 12 11  1  0
 14 13  1  1
 13 11  1  0
 14 15  1  0
 16 14  1  0
 17 16  2  0
 19 18  1  1
 20 19  1  0
 21 19  1  0
 22 21  1  1
 22 24  1  0
 22 23  1  0
 23 16  1  0
 24 25  1  0
 26 24  2  0
M  END
$$$$
