KLL.pdb
     RDKit          3D

 26 25  0  0  1  0  0  0  0  0999 V2000
    8.1376  -18.2635   21.7325 N   0  0  0  0  0  0  0  0  0  0  0  0
    9.3800  -17.6979   21.3015 C   0  0  1  0  0  0  0  0  0  0  0  0
    9.1842  -17.1549   19.8988 C   0  0  0  0  0  0  0  0  0  0  0  0
    9.4005  -18.3172   18.9517 C   0  0  0  0  0  0  0  0  0  0  0  0
    9.3084  -17.9296   17.5137 C   0  0  0  0  0  0  0  0  0  0  0  0
    9.5112  -19.1334   16.6116 C   0  0  0  0  0  0  0  0  0  0  0  0
    9.3199  -18.7993   15.2223 N   0  0  0  0  0  0  0  0  0  0  0  0
    9.8840  -16.6576   22.2382 C   0  0  0  0  0  0  0  0  0  0  0  0
   10.9805  -16.0965   22.1237 O   0  0  0  0  0  0  0  0  0  0  0  0
    6.0604  -13.7488   25.0811 C   0  0  0  0  0  0  0  0  0  0  0  0
    7.1936  -14.2177   24.1708 C   0  0  1  0  0  0  0  0  0  0  0  0
    7.6791  -12.9540   23.4507 C   0  0  0  0  0  0  0  0  0  0  0  0
    8.2820  -14.7305   25.0482 C   0  0  0  0  0  0  0  0  0  0  0  0
    9.4561  -15.2918   24.2798 C   0  0  2  0  0  0  0  0  0  0  0  0
    9.0504  -16.2960   23.3222 N   0  0  0  0  0  0  0  0  0  0  0  0
   10.3531  -15.9385   25.2683 C   0  0  0  0  0  0  0  0  0  0  0  0
   11.4697  -16.3767   24.8621 O   0  0  0  0  0  0  0  0  0  0  0  0
    9.7543  -14.3633   30.3604 C   0  0  0  0  0  0  0  0  0  0  0  0
   10.0142  -14.6670   28.8462 C   0  0  1  0  0  0  0  0  0  0  0  0
   10.7230  -13.4538   28.3291 C   0  0  0  0  0  0  0  0  0  0  0  0
   10.7683  -15.9361   28.8480 C   0  0  0  0  0  0  0  0  0  0  0  0
   11.0226  -16.6689   27.5889 C   0  0  2  0  0  0  0  0  0  0  0  0
   10.0387  -16.0936   26.6247 N   0  0  0  0  0  0  0  0  0  0  0  0
   10.7636  -18.1033   27.5887 C   0  0  0  0  0  0  0  0  0  0  0  0
    9.7522  -18.6465   26.8241 O   0  0  0  0  0  0  0  0  0  0  0  0
   11.4453  -18.8859   28.2779 O   0  0  0  0  0  0  0  0  0  0  0  0
  2  1  1  1
  3  2  1  0
  4  5  1  0
  4  3  1  0
  5  6  1  0
  6  7  1  0
  8  2  1  0
  8 15  1  0
  9  8  2  0
 11 10  1  1
 12 11  1  0
 14 13  1  1
 13 11  1  0
 14 15  1  0
 16 14  1  0
 17 16  2  0
 19 18  1  1
 20 19  1  0
 21 19  1  0
 22 21  1  1
 22 24  1  0
 22 23  1  0
 23 16  1  0
 24 25  1  0
 26 24  2  0
M  END
$$$$
