KQW.pdb
     RDKit          3D

 33 34  0  0  1  0  0  0  0  0999 V2000
   23.6005  -19.2627  -20.3481 N   0  0  0  0  0  0  0  0  0  0  0  0
   24.3783  -18.6966  -19.3089 C   0  0  1  0  0  0  0  0  0  0  0  0
   23.6792  -17.8487  -18.3024 C   0  0  0  0  0  0  0  0  0  0  0  0
   22.5565  -18.4412  -17.5555 C   0  0  0  0  0  0  0  0  0  0  0  0
   21.7259  -17.5623  -16.6987 C   0  0  0  0  0  0  0  0  0  0  0  0
   20.5939  -18.2144  -15.9803 C   0  0  0  0  0  0  0  0  0  0  0  0
   19.7806  -17.2844  -15.2530 N   0  0  0  0  0  0  0  0  0  0  0  0
   25.2764  -19.6813  -18.6468 C   0  0  0  0  0  0  0  0  0  0  0  0
   24.7282  -20.7224  -18.2015 O   0  0  0  0  0  0  0  0  0  0  0  0
   30.1408  -22.5003  -20.0355 N   0  0  0  0  0  0  0  0  0  0  0  0
   30.3297  -22.5876  -18.6319 C   0  0  0  0  0  0  0  0  0  0  0  0
   31.0288  -23.5274  -18.1966 O   0  0  0  0  0  0  0  0  0  0  0  0
   29.7169  -21.5987  -17.7216 C   0  0  0  0  0  0  0  0  0  0  0  0
   28.8031  -20.6157  -18.3847 C   0  0  0  0  0  0  0  0  0  0  0  0
   27.4378  -20.5221  -17.7970 C   0  0  2  0  0  0  0  0  0  0  0  0
   26.6489  -19.5229  -18.4942 N   0  0  0  0  0  0  0  0  0  0  0  0
   27.4285  -20.1986  -16.3472 C   0  0  0  0  0  0  0  0  0  0  0  0
   27.8354  -19.0731  -15.9734 O   0  0  0  0  0  0  0  0  0  0  0  0
   26.9799  -21.1017  -15.3471 N   0  0  0  0  0  0  0  0  0  0  0  0
   26.9927  -20.7000  -13.9702 C   0  0  1  0  0  0  0  0  0  0  0  0
   26.0872  -19.5578  -13.6465 C   0  0  0  0  0  0  0  0  0  0  0  0
   26.1697  -19.1162  -12.2304 C   0  0  0  0  0  0  0  0  0  0  0  0
   26.7571  -17.9304  -11.7979 C   0  0  0  0  0  0  0  0  0  0  0  0
   26.6557  -17.8455  -10.4499 N   0  0  0  0  0  0  0  0  0  0  0  0
   26.0218  -18.9343   -9.9799 C   0  0  0  0  0  0  0  0  0  0  0  0
   25.6577  -19.3553   -8.7035 C   0  0  0  0  0  0  0  0  0  0  0  0
   24.9975  -20.5541   -8.5302 C   0  0  0  0  0  0  0  0  0  0  0  0
   24.7062  -21.3263   -9.6492 C   0  0  0  0  0  0  0  0  0  0  0  0
   25.0588  -20.9244  -10.9134 C   0  0  0  0  0  0  0  0  0  0  0  0
   25.7190  -19.7249  -11.0838 C   0  0  0  0  0  0  0  0  0  0  0  0
   26.5861  -21.8461  -13.0760 C   0  0  0  0  0  0  0  0  0  0  0  0
   25.5048  -22.4173  -13.3682 O   0  0  0  0  0  0  0  0  0  0  0  0
   27.3848  -22.2142  -12.0085 O   0  0  0  0  0  0  0  0  0  0  0  0
  2  1  1  1
  2  3  1  0
  4  3  1  0
  4  5  1  0
  5  6  1  0
  6  7  1  0
  8  9  2  0
  8  2  1  0
 10 11  1  0
 11 13  1  0
 12 11  2  0
 13 14  1  0
 15 14  1  6
 15 16  1  0
 16  8  1  0
 17 15  1  0
 17 19  1  0
 18 17  2  0
 20 19  1  0
 20 31  1  0
 20 21  1  6
 22 21  1  0
 22 30  1  0
 23 24  1  0
 23 22  2  0
 24 25  1  0
 25 26  1  0
 25 30  2  0
 26 27  2  0
 27 28  1  0
 29 28  2  0
 30 29  1  0
 31 32  2  0
 31 33  1  0
M  END
$$$$
