KQW.pdb
     RDKit          3D

 33 34  0  0  1  0  0  0  0  0999 V2000
   25.5194  -18.6157  -16.6738 N   0  0  0  0  0  0  0  0  0  0  0  0
   26.2728  -19.1703  -15.6107 C   0  0  1  0  0  0  0  0  0  0  0  0
   27.6928  -18.7412  -15.4692 C   0  0  0  0  0  0  0  0  0  0  0  0
   28.7020  -19.3883  -16.3249 C   0  0  0  0  0  0  0  0  0  0  0  0
   28.4712  -20.7824  -16.7719 C   0  0  0  0  0  0  0  0  0  0  0  0
   29.5202  -21.3805  -17.6462 C   0  0  0  0  0  0  0  0  0  0  0  0
   30.1278  -22.5472  -17.0760 N   0  0  0  0  0  0  0  0  0  0  0  0
   25.5657  -19.1177  -14.3023 C   0  0  0  0  0  0  0  0  0  0  0  0
   24.8822  -18.0850  -14.0806 O   0  0  0  0  0  0  0  0  0  0  0  0
   21.1908  -18.9778  -13.9276 N   0  0  0  0  0  0  0  0  0  0  0  0
   21.7502  -20.2424  -14.2455 C   0  0  0  0  0  0  0  0  0  0  0  0
   21.2387  -20.8842  -15.1877 O   0  0  0  0  0  0  0  0  0  0  0  0
   22.8973  -20.7770  -13.4836 C   0  0  0  0  0  0  0  0  0  0  0  0
   23.4000  -19.8822  -12.3939 C   0  0  0  0  0  0  0  0  0  0  0  0
   24.8567  -19.9922  -12.1038 C   0  0  2  0  0  0  0  0  0  0  0  0
   25.6150  -20.1150  -13.3354 N   0  0  0  0  0  0  0  0  0  0  0  0
   25.2091  -21.1334  -11.2207 C   0  0  0  0  0  0  0  0  0  0  0  0
   25.8132  -22.1167  -11.7108 O   0  0  0  0  0  0  0  0  0  0  0  0
   24.8973  -21.1761   -9.8357 N   0  0  0  0  0  0  0  0  0  0  0  0
   25.9540  -21.2969   -8.8734 C   0  0  1  0  0  0  0  0  0  0  0  0
   26.9143  -20.1538   -8.8565 C   0  0  0  0  0  0  0  0  0  0  0  0
   28.0833  -20.3720   -7.9660 C   0  0  0  0  0  0  0  0  0  0  0  0
   29.2486  -21.0415   -8.3296 C   0  0  0  0  0  0  0  0  0  0  0  0
   30.1034  -21.0564   -7.2790 N   0  0  0  0  0  0  0  0  0  0  0  0
   29.5413  -20.4200   -6.2364 C   0  0  0  0  0  0  0  0  0  0  0  0
   29.9650  -20.1466   -4.9383 C   0  0  0  0  0  0  0  0  0  0  0  0
   29.1446  -19.4547   -4.0717 C   0  0  0  0  0  0  0  0  0  0  0  0
   27.8953  -19.0398   -4.5194 C   0  0  0  0  0  0  0  0  0  0  0  0
   27.4640  -19.3019   -5.7959 C   0  0  0  0  0  0  0  0  0  0  0  0
   28.2867  -19.9941   -6.6606 C   0  0  0  0  0  0  0  0  0  0  0  0
   25.3932  -21.4163   -7.4771 C   0  0  0  0  0  0  0  0  0  0  0  0
   24.5833  -20.5198   -7.1291 O   0  0  0  0  0  0  0  0  0  0  0  0
   25.7741  -22.4657   -6.6606 O   0  0  0  0  0  0  0  0  0  0  0  0
  2  1  1  6
  2  3  1  0
  4  3  1  0
  4  5  1  0
  5  6  1  0
  6  7  1  0
  8  9  2  0
  8  2  1  0
 10 11  1  0
 11 13  1  0
 12 11  2  0
 13 14  1  0
 15 14  1  6
 15 16  1  0
 16  8  1  0
 17 15  1  0
 17 19  1  0
 18 17  2  0
 20 19  1  0
 20 31  1  0
 20 21  1  1
 22 21  1  0
 22 30  1  0
 23 24  1  0
 23 22  2  0
 24 25  1  0
 25 26  1  0
 25 30  2  0
 26 27  2  0
 27 28  1  0
 29 28  2  0
 30 29  1  0
 31 32  2  0
 31 33  1  0
M  END
$$$$
