KQW.pdb
     RDKit          3D

 33 34  0  0  1  0  0  0  0  0999 V2000
   29.3401  -23.1787  -17.3032 N   0  0  0  0  0  0  0  0  0  0  0  0
   29.0024  -21.8036  -17.2804 C   0  0  1  0  0  0  0  0  0  0  0  0
   28.0659  -21.3020  -18.3254 C   0  0  0  0  0  0  0  0  0  0  0  0
   27.1197  -22.2577  -18.9260 C   0  0  0  0  0  0  0  0  0  0  0  0
   25.9044  -22.6331  -18.1654 C   0  0  0  0  0  0  0  0  0  0  0  0
   24.9874  -23.6091  -18.8203 C   0  0  0  0  0  0  0  0  0  0  0  0
   23.8914  -23.9989  -17.9823 N   0  0  0  0  0  0  0  0  0  0  0  0
   28.6048  -21.3207  -15.9301 C   0  0  0  0  0  0  0  0  0  0  0  0
   29.0117  -22.0018  -14.9537 O   0  0  0  0  0  0  0  0  0  0  0  0
   25.3213  -17.3384  -16.0585 N   0  0  0  0  0  0  0  0  0  0  0  0
   26.6469  -17.0487  -16.4732 C   0  0  0  0  0  0  0  0  0  0  0  0
   26.7963  -16.3829  -17.5200 O   0  0  0  0  0  0  0  0  0  0  0  0
   27.8067  -17.5222  -15.6903 C   0  0  0  0  0  0  0  0  0  0  0  0
   27.4612  -18.1846  -14.3931 C   0  0  0  0  0  0  0  0  0  0  0  0
   27.6992  -19.6541  -14.3479 C   0  0  2  0  0  0  0  0  0  0  0  0
   27.8300  -20.1920  -15.6898 N   0  0  0  0  0  0  0  0  0  0  0  0
   26.6368  -20.4136  -13.6401 C   0  0  0  0  0  0  0  0  0  0  0  0
   25.6453  -20.8207  -14.2906 O   0  0  0  0  0  0  0  0  0  0  0  0
   26.6792  -20.7087  -12.2515 N   0  0  0  0  0  0  0  0  0  0  0  0
   25.5650  -21.3647  -11.6306 C   0  0  1  0  0  0  0  0  0  0  0  0
   25.8567  -21.9518  -10.2891 C   0  0  0  0  0  0  0  0  0  0  0  0
   26.2913  -20.9490   -9.2828 C   0  0  0  0  0  0  0  0  0  0  0  0
   25.5891  -19.7924   -8.9550 C   0  0  0  0  0  0  0  0  0  0  0  0
   26.2693  -19.1096   -8.0033 N   0  0  0  0  0  0  0  0  0  0  0  0
   27.3949  -19.7766   -7.6931 C   0  0  0  0  0  0  0  0  0  0  0  0
   28.4373  -19.5357   -6.8018 C   0  0  0  0  0  0  0  0  0  0  0  0
   29.4858  -20.4267   -6.7030 C   0  0  0  0  0  0  0  0  0  0  0  0
   29.4786  -21.5613   -7.5066 C   0  0  0  0  0  0  0  0  0  0  0  0
   28.4582  -21.8121   -8.3897 C   0  0  0  0  0  0  0  0  0  0  0  0
   27.4107  -20.9192   -8.4864 C   0  0  0  0  0  0  0  0  0  0  0  0
   24.4153  -20.4043  -11.4460 C   0  0  0  0  0  0  0  0  0  0  0  0
   24.6956  -19.1825  -11.5440 O   0  0  0  0  0  0  0  0  0  0  0  0
   23.1435  -20.8817  -11.1857 O   0  0  0  0  0  0  0  0  0  0  0  0
  2  1  1  1
  2  3  1  0
  4  3  1  0
  4  5  1  0
  5  6  1  0
  6  7  1  0
  8  9  2  0
  8  2  1  0
 10 11  1  0
 11 13  1  0
 12 11  2  0
 13 14  1  0
 15 14  1  6
 15 16  1  0
 16  8  1  0
 17 15  1  0
 17 19  1  0
 18 17  2  0
 20 19  1  0
 20 31  1  0
 20 21  1  1
 22 21  1  0
 22 30  1  0
 23 24  1  0
 23 22  2  0
 24 25  1  0
 25 26  1  0
 25 30  2  0
 26 27  2  0
 27 28  1  0
 29 28  2  0
 30 29  1  0
 31 32  2  0
 31 33  1  0
M  END
$$$$
