KQW.pdb
     RDKit          3D

 33 34  0  0  1  0  0  0  0  0999 V2000
   30.0022  -20.8979  -18.3719 N   0  0  0  0  0  0  0  0  0  0  0  0
   29.3753  -21.7096  -17.3955 C   0  0  1  0  0  0  0  0  0  0  0  0
   30.1391  -22.8756  -16.8685 C   0  0  0  0  0  0  0  0  0  0  0  0
   30.2821  -24.0596  -17.7328 C   0  0  0  0  0  0  0  0  0  0  0  0
   31.6186  -24.3830  -18.2856 C   0  0  0  0  0  0  0  0  0  0  0  0
   31.7060  -24.5289  -19.7667 C   0  0  0  0  0  0  0  0  0  0  0  0
   31.3376  -25.8366  -20.2246 N   0  0  0  0  0  0  0  0  0  0  0  0
   28.7640  -20.9263  -16.2876 C   0  0  0  0  0  0  0  0  0  0  0  0
   29.5163  -20.0997  -15.7100 O   0  0  0  0  0  0  0  0  0  0  0  0
   28.2231  -16.4453  -16.0335 N   0  0  0  0  0  0  0  0  0  0  0  0
   27.6756  -17.4055  -16.9231 C   0  0  0  0  0  0  0  0  0  0  0  0
   27.9797  -17.3182  -18.1319 O   0  0  0  0  0  0  0  0  0  0  0  0
   26.7762  -18.4689  -16.4308 C   0  0  0  0  0  0  0  0  0  0  0  0
   26.9735  -18.8443  -14.9952 C   0  0  0  0  0  0  0  0  0  0  0  0
   26.9634  -20.3069  -14.7145 C   0  0  2  0  0  0  0  0  0  0  0  0
   27.4463  -21.0509  -15.8635 N   0  0  0  0  0  0  0  0  0  0  0  0
   25.6275  -20.8378  -14.3401 C   0  0  0  0  0  0  0  0  0  0  0  0
   25.1158  -21.7432  -15.0403 O   0  0  0  0  0  0  0  0  0  0  0  0
   24.8867  -20.3731  -13.2209 N   0  0  0  0  0  0  0  0  0  0  0  0
   24.5575  -21.2813  -12.1607 C   0  0  1  0  0  0  0  0  0  0  0  0
   25.7324  -21.8077  -11.4045 C   0  0  0  0  0  0  0  0  0  0  0  0
   26.1353  -20.9510  -10.2596 C   0  0  0  0  0  0  0  0  0  0  0  0
   25.3001  -20.0488   -9.6062 C   0  0  0  0  0  0  0  0  0  0  0  0
   25.9895  -19.4381   -8.6131 N   0  0  0  0  0  0  0  0  0  0  0  0
   27.2496  -19.9070   -8.5899 C   0  0  0  0  0  0  0  0  0  0  0  0
   28.3596  -19.6342   -7.7945 C   0  0  0  0  0  0  0  0  0  0  0  0
   29.5511  -20.2929   -8.0164 C   0  0  0  0  0  0  0  0  0  0  0  0
   29.6186  -21.2276   -9.0435 C   0  0  0  0  0  0  0  0  0  0  0  0
   28.5330  -21.5069   -9.8358 C   0  0  0  0  0  0  0  0  0  0  0  0
   27.3425  -20.8466   -9.6115 C   0  0  0  0  0  0  0  0  0  0  0  0
   23.6510  -20.6183  -11.1522 C   0  0  0  0  0  0  0  0  0  0  0  0
   23.0023  -21.3906  -10.4015 O   0  0  0  0  0  0  0  0  0  0  0  0
   23.5681  -19.2390  -11.0906 O   0  0  0  0  0  0  0  0  0  0  0  0
  2  1  1  1
  2  3  1  0
  4  3  1  0
  4  5  1  0
  5  6  1  0
  6  7  1  0
  8  9  2  0
  8  2  1  0
 10 11  1  0
 11 13  1  0
 12 11  2  0
 13 14  1  0
 15 14  1  6
 15 16  1  0
 16  8  1  0
 17 15  1  0
 17 19  1  0
 18 17  2  0
 20 19  1  0
 20 31  1  0
 20 21  1  1
 22 21  1  0
 22 30  1  0
 23 24  1  0
 23 22  2  0
 24 25  1  0
 25 26  1  0
 25 30  2  0
 26 27  2  0
 27 28  1  0
 29 28  2  0
 30 29  1  0
 31 32  2  0
 31 33  1  0
M  END
$$$$
