KQW.pdb
     RDKit          3D

 33 34  0  0  1  0  0  0  0  0999 V2000
   29.4679  -25.2402  -16.8887 N   0  0  0  0  0  0  0  0  0  0  0  0
   28.2208  -24.5973  -17.0804 C   0  0  1  0  0  0  0  0  0  0  0  0
   27.0012  -25.4519  -17.1363 C   0  0  0  0  0  0  0  0  0  0  0  0
   27.0122  -26.6190  -18.0346 C   0  0  0  0  0  0  0  0  0  0  0  0
   27.2769  -27.9595  -17.4606 C   0  0  0  0  0  0  0  0  0  0  0  0
   28.2118  -28.8347  -18.2239 C   0  0  0  0  0  0  0  0  0  0  0  0
   28.4034  -30.1180  -17.6139 N   0  0  0  0  0  0  0  0  0  0  0  0
   28.0169  -23.4335  -16.1756 C   0  0  0  0  0  0  0  0  0  0  0  0
   28.3832  -23.5863  -14.9817 O   0  0  0  0  0  0  0  0  0  0  0  0
   28.7245  -17.4271  -16.8989 N   0  0  0  0  0  0  0  0  0  0  0  0
   27.7861  -17.4162  -15.8346 C   0  0  0  0  0  0  0  0  0  0  0  0
   27.6540  -16.3559  -15.1868 O   0  0  0  0  0  0  0  0  0  0  0  0
   26.9964  -18.6210  -15.5079 C   0  0  0  0  0  0  0  0  0  0  0  0
   27.2914  -19.8161  -16.3598 C   0  0  0  0  0  0  0  0  0  0  0  0
   27.3819  -21.1102  -15.6282 C   0  0  2  0  0  0  0  0  0  0  0  0
   27.4594  -22.2199  -16.5607 N   0  0  0  0  0  0  0  0  0  0  0  0
   26.2485  -21.3563  -14.7000 C   0  0  0  0  0  0  0  0  0  0  0  0
   25.1251  -21.6446  -15.1763 O   0  0  0  0  0  0  0  0  0  0  0  0
   26.3650  -21.2829  -13.2864 N   0  0  0  0  0  0  0  0  0  0  0  0
   25.2939  -21.7595  -12.4600 C   0  0  1  0  0  0  0  0  0  0  0  0
   25.7269  -22.3497  -11.1587 C   0  0  0  0  0  0  0  0  0  0  0  0
   26.2132  -21.3424  -10.1811 C   0  0  0  0  0  0  0  0  0  0  0  0
   25.4115  -20.4023   -9.5393 C   0  0  0  0  0  0  0  0  0  0  0  0
   26.1779  -19.6455   -8.7180 N   0  0  0  0  0  0  0  0  0  0  0  0
   27.4564  -20.0548   -8.7967 C   0  0  0  0  0  0  0  0  0  0  0  0
   28.6354  -19.6399   -8.1828 C   0  0  0  0  0  0  0  0  0  0  0  0
   29.8277  -20.2705   -8.4722 C   0  0  0  0  0  0  0  0  0  0  0  0
   29.8260  -21.3210   -9.3831 C   0  0  0  0  0  0  0  0  0  0  0  0
   28.6719  -21.7410   -9.9961 C   0  0  0  0  0  0  0  0  0  0  0  0
   27.4808  -21.1085   -9.7047 C   0  0  0  0  0  0  0  0  0  0  0  0
   24.3334  -20.6417  -12.1340 C   0  0  0  0  0  0  0  0  0  0  0  0
   23.2399  -20.9866  -11.6179 O   0  0  0  0  0  0  0  0  0  0  0  0
   24.6749  -19.3288  -12.4032 O   0  0  0  0  0  0  0  0  0  0  0  0
  2  1  1  1
  2  3  1  0
  4  3  1  0
  4  5  1  0
  5  6  1  0
  6  7  1  0
  8  9  2  0
  8  2  1  0
 10 11  1  0
 11 13  1  0
 12 11  2  0
 13 14  1  0
 15 14  1  6
 15 16  1  0
 16  8  1  0
 17 15  1  0
 17 19  1  0
 18 17  2  0
 20 19  1  0
 20 31  1  0
 20 21  1  1
 22 21  1  0
 22 30  1  0
 23 24  1  0
 23 22  2  0
 24 25  1  0
 25 26  1  0
 25 30  2  0
 26 27  2  0
 27 28  1  0
 29 28  2  0
 30 29  1  0
 31 32  2  0
 31 33  1  0
M  END
$$$$
