KQW.pdb
     RDKit          3D

 33 34  0  0  1  0  0  0  0  0999 V2000
   27.2570  -20.4692  -18.1803 N   0  0  0  0  0  0  0  0  0  0  0  0
   26.1311  -19.6760  -17.8509 C   0  0  1  0  0  0  0  0  0  0  0  0
   25.4469  -18.9493  -18.9575 C   0  0  0  0  0  0  0  0  0  0  0  0
   26.2463  -18.0245  -19.7791 C   0  0  0  0  0  0  0  0  0  0  0  0
   27.2899  -17.2040  -19.1203 C   0  0  0  0  0  0  0  0  0  0  0  0
   27.9767  -16.1937  -19.9748 C   0  0  0  0  0  0  0  0  0  0  0  0
   28.8779  -15.3559  -19.2391 N   0  0  0  0  0  0  0  0  0  0  0  0
   25.1472  -20.3853  -16.9886 C   0  0  0  0  0  0  0  0  0  0  0  0
   24.4769  -21.2949  -17.5419 O   0  0  0  0  0  0  0  0  0  0  0  0
   24.7172  -21.7648  -10.9998 N   0  0  0  0  0  0  0  0  0  0  0  0
   25.7990  -21.1786  -11.7063 C   0  0  0  0  0  0  0  0  0  0  0  0
   26.7749  -20.7706  -11.0411 O   0  0  0  0  0  0  0  0  0  0  0  0
   25.7659  -21.0564  -13.1781 C   0  0  0  0  0  0  0  0  0  0  0  0
   24.5677  -21.6699  -13.8329 C   0  0  0  0  0  0  0  0  0  0  0  0
   23.9269  -20.8388  -14.8896 C   0  0  2  0  0  0  0  0  0  0  0  0
   24.9297  -20.1091  -15.6439 N   0  0  0  0  0  0  0  0  0  0  0  0
   22.9325  -19.8660  -14.3686 C   0  0  0  0  0  0  0  0  0  0  0  0
   23.3408  -18.8299  -13.7925 O   0  0  0  0  0  0  0  0  0  0  0  0
   21.5284  -20.0437  -14.4864 N   0  0  0  0  0  0  0  0  0  0  0  0
   20.6394  -19.0831  -13.8997 C   0  0  1  0  0  0  0  0  0  0  0  0
   20.0734  -18.0903  -14.8606 C   0  0  0  0  0  0  0  0  0  0  0  0
   19.4230  -18.7111  -16.0432 C   0  0  0  0  0  0  0  0  0  0  0  0
   18.1889  -19.3553  -16.0278 C   0  0  0  0  0  0  0  0  0  0  0  0
   17.9002  -19.8008  -17.2740 N   0  0  0  0  0  0  0  0  0  0  0  0
   18.9014  -19.4721  -18.1092 C   0  0  0  0  0  0  0  0  0  0  0  0
   19.1221  -19.6771  -19.4688 C   0  0  0  0  0  0  0  0  0  0  0  0
   20.2768  -19.2111  -20.0624 C   0  0  0  0  0  0  0  0  0  0  0  0
   21.2078  -18.5377  -19.2795 C   0  0  0  0  0  0  0  0  0  0  0  0
   21.0041  -18.3282  -17.9383 C   0  0  0  0  0  0  0  0  0  0  0  0
   19.8482  -18.7953  -17.3471 C   0  0  0  0  0  0  0  0  0  0  0  0
   19.4676  -19.7717  -13.2431 C   0  0  0  0  0  0  0  0  0  0  0  0
   19.3398  -20.9982  -13.4885 O   0  0  0  0  0  0  0  0  0  0  0  0
   18.6087  -19.0587  -12.4263 O   0  0  0  0  0  0  0  0  0  0  0  0
  2  1  1  6
  2  3  1  0
  4  3  1  0
  4  5  1  0
  5  6  1  0
  6  7  1  0
  8  9  2  0
  8  2  1  0
 10 11  1  0
 11 13  1  0
 12 11  2  0
 13 14  1  0
 15 14  1  1
 15 16  1  0
 16  8  1  0
 17 15  1  0
 17 19  1  0
 18 17  2  0
 20 19  1  0
 20 31  1  0
 20 21  1  6
 22 21  1  0
 22 30  1  0
 23 24  1  0
 23 22  2  0
 24 25  1  0
 25 26  1  0
 25 30  2  0
 26 27  2  0
 27 28  1  0
 29 28  2  0
 30 29  1  0
 31 32  2  0
 31 33  1  0
M  END
$$$$
