KQW.pdb
     RDKit          3D

 33 34  0  0  1  0  0  0  0  0999 V2000
   26.3754  -15.8588  -19.5214 N   0  0  0  0  0  0  0  0  0  0  0  0
   26.9075  -16.6916  -18.5071 C   0  0  1  0  0  0  0  0  0  0  0  0
   27.9876  -16.1324  -17.6462 C   0  0  0  0  0  0  0  0  0  0  0  0
   28.7708  -14.9978  -18.1644 C   0  0  0  0  0  0  0  0  0  0  0  0
   29.6923  -15.2267  -19.3024 C   0  0  0  0  0  0  0  0  0  0  0  0
   31.0792  -14.7018  -19.1484 C   0  0  0  0  0  0  0  0  0  0  0  0
   31.8860  -14.8969  -20.3174 N   0  0  0  0  0  0  0  0  0  0  0  0
   25.8596  -17.3563  -17.6857 C   0  0  0  0  0  0  0  0  0  0  0  0
   25.5412  -16.7769  -16.6154 O   0  0  0  0  0  0  0  0  0  0  0  0
   21.9650  -22.2179  -19.1758 N   0  0  0  0  0  0  0  0  0  0  0  0
   21.6671  -21.9299  -17.8187 C   0  0  0  0  0  0  0  0  0  0  0  0
   20.7925  -22.6223  -17.2558 O   0  0  0  0  0  0  0  0  0  0  0  0
   22.3699  -20.8461  -17.1019 C   0  0  0  0  0  0  0  0  0  0  0  0
   23.3792  -20.1026  -17.9201 C   0  0  0  0  0  0  0  0  0  0  0  0
   24.1915  -19.1039  -17.1714 C   0  0  2  0  0  0  0  0  0  0  0  0
   25.2289  -18.5486  -18.0214 N   0  0  0  0  0  0  0  0  0  0  0  0
   24.8310  -19.6468  -15.9454 C   0  0  0  0  0  0  0  0  0  0  0  0
   25.9761  -20.1505  -16.0298 O   0  0  0  0  0  0  0  0  0  0  0  0
   24.2126  -19.6286  -14.6670 N   0  0  0  0  0  0  0  0  0  0  0  0
   24.9423  -20.0827  -13.5187 C   0  0  1  0  0  0  0  0  0  0  0  0
   24.7523  -19.2528  -12.2921 C   0  0  0  0  0  0  0  0  0  0  0  0
   24.9168  -20.0145  -11.0272 C   0  0  0  0  0  0  0  0  0  0  0  0
   26.1392  -20.3360  -10.4434 C   0  0  0  0  0  0  0  0  0  0  0  0
   25.9215  -21.0324   -9.3022 N   0  0  0  0  0  0  0  0  0  0  0  0
   24.5982  -21.1804   -9.1145 C   0  0  0  0  0  0  0  0  0  0  0  0
   23.8330  -21.7974   -8.1282 C   0  0  0  0  0  0  0  0  0  0  0  0
   22.4559  -21.7847   -8.2088 C   0  0  0  0  0  0  0  0  0  0  0  0
   21.8540  -21.1472   -9.2880 C   0  0  0  0  0  0  0  0  0  0  0  0
   22.5951  -20.5348  -10.2677 C   0  0  0  0  0  0  0  0  0  0  0  0
   23.9723  -20.5491  -10.1845 C   0  0  0  0  0  0  0  0  0  0  0  0
   24.5447  -21.4932  -13.1571 C   0  0  0  0  0  0  0  0  0  0  0  0
   23.3550  -21.8129  -13.4086 O   0  0  0  0  0  0  0  0  0  0  0  0
   25.4656  -22.3516  -12.5844 O   0  0  0  0  0  0  0  0  0  0  0  0
  2  1  1  1
  2  3  1  0
  4  3  1  0
  4  5  1  0
  5  6  1  0
  6  7  1  0
  8  9  2  0
  8  2  1  0
 10 11  1  0
 11 13  1  0
 12 11  2  0
 13 14  1  0
 15 14  1  6
 15 16  1  0
 16  8  1  0
 17 15  1  0
 17 19  1  0
 18 17  2  0
 20 19  1  0
 20 31  1  0
 20 21  1  1
 22 21  1  0
 22 30  1  0
 23 24  1  0
 23 22  2  0
 24 25  1  0
 25 26  1  0
 25 30  2  0
 26 27  2  0
 27 28  1  0
 29 28  2  0
 30 29  1  0
 31 32  2  0
 31 33  1  0
M  END
$$$$
