KQW.pdb
     RDKit          3D

 33 34  0  0  1  0  0  0  0  0999 V2000
   27.1390  -19.9646  -15.7002 N   0  0  0  0  0  0  0  0  0  0  0  0
   27.2838  -18.9951  -14.6782 C   0  0  1  0  0  0  0  0  0  0  0  0
   27.4075  -17.5679  -15.0886 C   0  0  0  0  0  0  0  0  0  0  0  0
   28.2193  -17.2553  -16.2771 C   0  0  0  0  0  0  0  0  0  0  0  0
   28.9509  -18.3539  -16.9513 C   0  0  0  0  0  0  0  0  0  0  0  0
   29.8313  -17.9636  -18.0894 C   0  0  0  0  0  0  0  0  0  0  0  0
   29.1202  -17.8227  -19.3263 N   0  0  0  0  0  0  0  0  0  0  0  0
   26.2932  -19.1511  -13.5787 C   0  0  0  0  0  0  0  0  0  0  0  0
   26.1593  -18.1666  -12.8069 O   0  0  0  0  0  0  0  0  0  0  0  0
   20.9240  -20.5080  -11.3057 N   0  0  0  0  0  0  0  0  0  0  0  0
   21.1460  -19.9751  -12.6019 C   0  0  0  0  0  0  0  0  0  0  0  0
   20.2727  -19.2178  -13.0766 O   0  0  0  0  0  0  0  0  0  0  0  0
   22.3693  -20.3091  -13.3596 C   0  0  0  0  0  0  0  0  0  0  0  0
   23.3823  -21.1059  -12.5982 C   0  0  0  0  0  0  0  0  0  0  0  0
   24.6217  -20.3681  -12.2274 C   0  0  2  0  0  0  0  0  0  0  0  0
   25.5278  -20.2903  -13.3588 N   0  0  0  0  0  0  0  0  0  0  0  0
   25.3546  -20.9625  -11.0802 C   0  0  0  0  0  0  0  0  0  0  0  0
   25.6025  -22.1915  -11.0889 O   0  0  0  0  0  0  0  0  0  0  0  0
   25.7961  -20.2100   -9.9595 N   0  0  0  0  0  0  0  0  0  0  0  0
   26.3985  -20.8828   -8.8452 C   0  0  1  0  0  0  0  0  0  0  0  0
   27.5582  -20.1651   -8.2374 C   0  0  0  0  0  0  0  0  0  0  0  0
   27.8309  -20.5592   -6.8311 C   0  0  0  0  0  0  0  0  0  0  0  0
   27.7808  -21.8626   -6.3444 C   0  0  0  0  0  0  0  0  0  0  0  0
   28.0834  -21.8600   -5.0241 N   0  0  0  0  0  0  0  0  0  0  0  0
   28.3311  -20.6000   -4.6249 C   0  0  0  0  0  0  0  0  0  0  0  0
   28.6811  -20.0331   -3.4021 C   0  0  0  0  0  0  0  0  0  0  0  0
   28.8735  -18.6711   -3.2983 C   0  0  0  0  0  0  0  0  0  0  0  0
   28.7115  -17.8834   -4.4325 C   0  0  0  0  0  0  0  0  0  0  0  0
   28.3666  -18.4278   -5.6444 C   0  0  0  0  0  0  0  0  0  0  0  0
   28.1748  -19.7905   -5.7453 C   0  0  0  0  0  0  0  0  0  0  0  0
   25.3906  -21.0961   -7.7420 C   0  0  0  0  0  0  0  0  0  0  0  0
   24.3741  -20.3568   -7.7727 O   0  0  0  0  0  0  0  0  0  0  0  0
   25.6107  -22.0590   -6.7738 O   0  0  0  0  0  0  0  0  0  0  0  0
  2  1  1  6
  2  3  1  0
  4  3  1  0
  4  5  1  0
  5  6  1  0
  6  7  1  0
  8  9  2  0
  8  2  1  0
 10 11  1  0
 11 13  1  0
 12 11  2  0
 13 14  1  0
 15 14  1  6
 15 16  1  0
 16  8  1  0
 17 15  1  0
 17 19  1  0
 18 17  2  0
 20 19  1  0
 20 31  1  0
 20 21  1  1
 22 21  1  0
 22 30  1  0
 23 24  1  0
 23 22  2  0
 24 25  1  0
 25 26  1  0
 25 30  2  0
 26 27  2  0
 27 28  1  0
 29 28  2  0
 30 29  1  0
 31 32  2  0
 31 33  1  0
M  END
$$$$
