KQW.pdb
     RDKit          3D

 33 34  0  0  1  0  0  0  0  0999 V2000
   28.4393  -19.9010  -15.6806 N   0  0  0  0  0  0  0  0  0  0  0  0
   27.8468  -18.7818  -15.0469 C   0  0  1  0  0  0  0  0  0  0  0  0
   27.5256  -17.5964  -15.8909 C   0  0  0  0  0  0  0  0  0  0  0  0
   28.0220  -17.5765  -17.2774 C   0  0  0  0  0  0  0  0  0  0  0  0
   29.2132  -16.7549  -17.5977 C   0  0  0  0  0  0  0  0  0  0  0  0
   29.6143  -16.6998  -19.0325 C   0  0  0  0  0  0  0  0  0  0  0  0
   30.7584  -15.8673  -19.2638 N   0  0  0  0  0  0  0  0  0  0  0  0
   26.6971  -19.1439  -14.1741 C   0  0  0  0  0  0  0  0  0  0  0  0
   25.9366  -18.2003  -13.8362 O   0  0  0  0  0  0  0  0  0  0  0  0
   23.8730  -24.3835  -12.8205 N   0  0  0  0  0  0  0  0  0  0  0  0
   24.7131  -24.0751  -13.9216 C   0  0  0  0  0  0  0  0  0  0  0  0
   25.2271  -25.0279  -14.5456 O   0  0  0  0  0  0  0  0  0  0  0  0
   24.9682  -22.6732  -14.3111 C   0  0  0  0  0  0  0  0  0  0  0  0
   24.3573  -21.6485  -13.4069 C   0  0  0  0  0  0  0  0  0  0  0  0
   25.3147  -20.6737  -12.8142 C   0  0  2  0  0  0  0  0  0  0  0  0
   26.4213  -20.4286  -13.7210 N   0  0  0  0  0  0  0  0  0  0  0  0
   25.8686  -21.0970  -11.5025 C   0  0  0  0  0  0  0  0  0  0  0  0
   27.0525  -21.5060  -11.4466 O   0  0  0  0  0  0  0  0  0  0  0  0
   25.1254  -21.0653  -10.2926 N   0  0  0  0  0  0  0  0  0  0  0  0
   25.8146  -20.9721   -9.0382 C   0  0  1  0  0  0  0  0  0  0  0  0
   26.8196  -19.8706   -8.9603 C   0  0  0  0  0  0  0  0  0  0  0  0
   28.0176  -20.2145   -8.1519 C   0  0  0  0  0  0  0  0  0  0  0  0
   29.0113  -21.1092   -8.5398 C   0  0  0  0  0  0  0  0  0  0  0  0
   29.9514  -21.1842   -7.5677 N   0  0  0  0  0  0  0  0  0  0  0  0
   29.6112  -20.3699   -6.5531 C   0  0  0  0  0  0  0  0  0  0  0  0
   30.2018  -20.0642   -5.3297 C   0  0  0  0  0  0  0  0  0  0  0  0
   29.6001  -19.1650   -4.4739 C   0  0  0  0  0  0  0  0  0  0  0  0
   28.4005  -18.5755   -4.8570 C   0  0  0  0  0  0  0  0  0  0  0  0
   27.8065  -18.8669   -6.0597 C   0  0  0  0  0  0  0  0  0  0  0  0
   28.4106  -19.7667   -6.9137 C   0  0  0  0  0  0  0  0  0  0  0  0
   24.8385  -20.7528   -7.9079 C   0  0  0  0  0  0  0  0  0  0  0  0
   23.8066  -20.0921   -8.1901 O   0  0  0  0  0  0  0  0  0  0  0  0
   25.1017  -21.2655   -6.6506 O   0  0  0  0  0  0  0  0  0  0  0  0
  2  1  1  6
  2  3  1  0
  4  3  1  0
  4  5  1  0
  5  6  1  0
  6  7  1  0
  8  9  2  0
  8  2  1  0
 10 11  1  0
 11 13  1  0
 12 11  2  0
 13 14  1  0
 15 14  1  6
 15 16  1  0
 16  8  1  0
 17 15  1  0
 17 19  1  0
 18 17  2  0
 20 19  1  0
 20 31  1  0
 20 21  1  6
 22 21  1  0
 22 30  1  0
 23 24  1  0
 23 22  2  0
 24 25  1  0
 25 26  1  0
 25 30  2  0
 26 27  2  0
 27 28  1  0
 29 28  2  0
 30 29  1  0
 31 32  2  0
 31 33  1  0
M  END
$$$$
