SKC.pdb
     RDKit          3D

 22 21  0  0  1  0  0  0  0  0999 V2000
   19.7224  -10.7174  -14.8398 O   0  0  0  0  0  0  0  0  0  0  0  0
   18.6383   -9.8182  -14.7680 C   0  0  0  0  0  0  0  0  0  0  0  0
   17.3595  -10.6649  -14.7347 C   0  0  2  0  0  0  0  0  0  0  0  0
   16.9051  -10.9841  -16.0522 N   0  0  0  0  0  0  0  0  0  0  0  0
   16.3616   -9.8765  -13.9734 C   0  0  0  0  0  0  0  0  0  0  0  0
   15.8241   -8.8955  -14.5463 O   0  0  0  0  0  0  0  0  0  0  0  0
   15.9850  -10.1687  -12.6440 N   0  0  0  0  0  0  0  0  0  0  0  0
   15.0839   -9.3550  -11.8561 C   0  0  1  0  0  0  0  0  0  0  0  0
   14.2023  -10.1840  -10.9603 C   0  0  0  0  0  0  0  0  0  0  0  0
   13.2268   -9.3334  -10.1777 C   0  0  0  0  0  0  0  0  0  0  0  0
   12.2363  -10.1803   -9.4136 C   0  0  0  0  0  0  0  0  0  0  0  0
   11.2233   -9.2619   -8.7648 C   0  0  0  0  0  0  0  0  0  0  0  0
   10.2912  -10.0346   -7.9965 N   0  0  0  0  0  0  0  0  0  0  0  0
   15.8800   -8.3621  -11.1063 C   0  0  0  0  0  0  0  0  0  0  0  0
   17.0732   -8.6221  -10.8308 O   0  0  0  0  0  0  0  0  0  0  0  0
   15.3593   -7.1118  -10.6748 N   0  0  0  0  0  0  0  0  0  0  0  0
   16.2292   -6.0476  -10.1787 C   0  0  1  0  0  0  0  0  0  0  0  0
   17.2281   -5.6963  -11.2334 C   0  0  0  0  0  0  0  0  0  0  0  0
   18.1557   -4.2349  -10.6260 S   0  0  0  0  0  0  0  0  0  0  0  0
   15.4354   -4.8477   -9.8076 C   0  0  0  0  0  0  0  0  0  0  0  0
   15.7629   -4.0363   -8.7331 O   0  0  0  0  0  0  0  0  0  0  0  0
   14.4186   -4.5301  -10.4780 O   0  0  0  0  0  0  0  0  0  0  0  0
  1  2  1  0
  2  3  1  0
  3  5  1  0
  3  4  1  6
  5  6  2  0
  7  8  1  0
  7  5  1  0
  9 10  1  0
  8  9  1  1
 11 10  1  0
 12 11  1  0
 13 12  1  0
 14  8  1  0
 14 15  2  0
 16 14  1  0
 17 16  1  0
 17 20  1  0
 17 18  1  6
 19 18  1  0
 20 21  1  0
 22 20  2  0
M  END
$$$$
