SKC.pdb
     RDKit          3D

 22 21  0  0  1  0  0  0  0  0999 V2000
   28.3483  -27.1207  -15.8120 O   0  0  0  0  0  0  0  0  0  0  0  0
   27.0428  -26.5876  -15.8351 C   0  0  0  0  0  0  0  0  0  0  0  0
   26.8344  -25.9812  -17.2287 C   0  0  2  0  0  0  0  0  0  0  0  0
   27.7466  -24.9089  -17.4779 N   0  0  0  0  0  0  0  0  0  0  0  0
   25.4210  -25.5378  -17.2793 C   0  0  0  0  0  0  0  0  0  0  0  0
   25.1853  -24.3073  -17.1793 O   0  0  0  0  0  0  0  0  0  0  0  0
   24.3303  -26.4216  -17.4333 N   0  0  0  0  0  0  0  0  0  0  0  0
   22.9464  -26.0026  -17.4975 C   0  0  1  0  0  0  0  0  0  0  0  0
   22.0570  -27.0609  -18.0941 C   0  0  0  0  0  0  0  0  0  0  0  0
   20.6165  -26.6088  -18.1837 C   0  0  0  0  0  0  0  0  0  0  0  0
   19.7305  -27.6816  -18.7721 C   0  0  0  0  0  0  0  0  0  0  0  0
   18.3145  -27.1507  -18.8336 C   0  0  0  0  0  0  0  0  0  0  0  0
   17.4557  -28.1304  -19.4326 N   0  0  0  0  0  0  0  0  0  0  0  0
   22.5144  -25.5958  -16.1448 C   0  0  0  0  0  0  0  0  0  0  0  0
   22.8591  -26.2902  -15.1619 O   0  0  0  0  0  0  0  0  0  0  0  0
   21.7187  -24.4448  -15.8946 N   0  0  0  0  0  0  0  0  0  0  0  0
   21.3843  -24.0228  -14.5361 C   0  0  1  0  0  0  0  0  0  0  0  0
   21.3497  -22.5297  -14.4787 C   0  0  0  0  0  0  0  0  0  0  0  0
   19.8098  -22.0641  -13.5972 S   0  0  0  0  0  0  0  0  0  0  0  0
   20.0718  -24.5802  -14.1188 C   0  0  0  0  0  0  0  0  0  0  0  0
   19.7383  -24.7973  -12.7915 O   0  0  0  0  0  0  0  0  0  0  0  0
   19.2071  -24.8770  -14.9840 O   0  0  0  0  0  0  0  0  0  0  0  0
  1  2  1  0
  2  3  1  0
  3  5  1  0
  3  4  1  1
  5  6  2  0
  7  8  1  0
  7  5  1  0
  9 10  1  0
  8  9  1  1
 11 10  1  0
 12 11  1  0
 13 12  1  0
 14  8  1  0
 14 15  2  0
 16 14  1  0
 17 16  1  0
 17 20  1  0
 17 18  1  6
 19 18  1  0
 20 21  1  0
 22 20  2  0
M  END
$$$$
