SKC.pdb
     RDKit          3D

 22 21  0  0  1  0  0  0  0  0999 V2000
   27.7485  -11.4029  -15.5036 O   0  0  0  0  0  0  0  0  0  0  0  0
   26.5806  -10.6126  -15.5219 C   0  0  0  0  0  0  0  0  0  0  0  0
   26.0679  -10.6098  -16.9678 C   0  0  2  0  0  0  0  0  0  0  0  0
   26.9784   -9.9462  -17.8478 N   0  0  0  0  0  0  0  0  0  0  0  0
   24.7404   -9.9513  -16.9342 C   0  0  0  0  0  0  0  0  0  0  0  0
   24.6713   -8.7461  -17.2841 O   0  0  0  0  0  0  0  0  0  0  0  0
   23.5547  -10.6042  -16.5314 N   0  0  0  0  0  0  0  0  0  0  0  0
   22.2361  -10.0114  -16.5994 C   0  0  1  0  0  0  0  0  0  0  0  0
   21.1422  -11.0320  -16.4299 C   0  0  0  0  0  0  0  0  0  0  0  0
   19.7661  -10.4128  -16.5313 C   0  0  0  0  0  0  0  0  0  0  0  0
   18.6775  -11.4255  -16.2641 C   0  0  0  0  0  0  0  0  0  0  0  0
   17.3387  -10.7633  -16.5093 C   0  0  0  0  0  0  0  0  0  0  0  0
   16.2816  -11.6940  -16.2401 N   0  0  0  0  0  0  0  0  0  0  0  0
   22.1565   -8.9245  -15.6022 C   0  0  0  0  0  0  0  0  0  0  0  0
   22.6545   -9.1026  -14.4676 O   0  0  0  0  0  0  0  0  0  0  0  0
   21.5378   -7.6717  -15.8634 N   0  0  0  0  0  0  0  0  0  0  0  0
   21.4891   -6.6143  -14.8558 C   0  0  1  0  0  0  0  0  0  0  0  0
   22.8057   -5.9078  -14.8195 C   0  0  0  0  0  0  0  0  0  0  0  0
   22.6538   -4.5568  -13.5879 S   0  0  0  0  0  0  0  0  0  0  0  0
   20.4001   -5.6493  -15.1563 C   0  0  0  0  0  0  0  0  0  0  0  0
   19.6264   -5.7268  -16.3033 O   0  0  0  0  0  0  0  0  0  0  0  0
   20.1466   -4.7124  -14.3549 O   0  0  0  0  0  0  0  0  0  0  0  0
  1  2  1  0
  2  3  1  0
  3  5  1  0
  3  4  1  6
  5  6  2  0
  7  8  1  0
  7  5  1  0
  9 10  1  0
  8  9  1  1
 11 10  1  0
 12 11  1  0
 13 12  1  0
 14  8  1  0
 14 15  2  0
 16 14  1  0
 17 16  1  0
 17 20  1  0
 17 18  1  6
 19 18  1  0
 20 21  1  0
 22 20  2  0
M  END
$$$$
