SKC.pdb
     RDKit          3D

 22 21  0  0  1  0  0  0  0  0999 V2000
   24.5415  -10.9233  -15.1965 O   0  0  0  0  0  0  0  0  0  0  0  0
   23.4655  -11.8135  -15.3936 C   0  0  0  0  0  0  0  0  0  0  0  0
   22.9212  -11.5484  -16.8032 C   0  0  2  0  0  0  0  0  0  0  0  0
   23.9736  -11.2705  -17.7302 N   0  0  0  0  0  0  0  0  0  0  0  0
   21.9743  -10.4153  -16.6741 C   0  0  0  0  0  0  0  0  0  0  0  0
   22.2938   -9.3178  -17.1966 O   0  0  0  0  0  0  0  0  0  0  0  0
   20.7377  -10.5041  -15.9979 N   0  0  0  0  0  0  0  0  0  0  0  0
   19.7650   -9.4341  -15.9371 C   0  0  1  0  0  0  0  0  0  0  0  0
   18.4024   -9.9245  -15.5250 C   0  0  0  0  0  0  0  0  0  0  0  0
   17.7129  -10.6868  -16.6345 C   0  0  0  0  0  0  0  0  0  0  0  0
   16.3272  -11.1309  -16.2288 C   0  0  0  0  0  0  0  0  0  0  0  0
   15.6927  -11.8468  -17.4017 C   0  0  0  0  0  0  0  0  0  0  0  0
   14.4132  -12.3672  -17.0168 N   0  0  0  0  0  0  0  0  0  0  0  0
   20.2817   -8.3783  -15.0426 C   0  0  0  0  0  0  0  0  0  0  0  0
   20.7845   -8.7047  -13.9436 O   0  0  0  0  0  0  0  0  0  0  0  0
   20.2389   -6.9946  -15.3650 N   0  0  0  0  0  0  0  0  0  0  0  0
   20.7835   -5.9794  -14.4660 C   0  0  1  0  0  0  0  0  0  0  0  0
   22.2277   -5.7630  -14.7847 C   0  0  0  0  0  0  0  0  0  0  0  0
   22.8102   -4.3879  -13.7194 S   0  0  0  0  0  0  0  0  0  0  0  0
   20.0351   -4.7026  -14.5973 C   0  0  0  0  0  0  0  0  0  0  0  0
   19.8602   -3.8250  -13.5392 O   0  0  0  0  0  0  0  0  0  0  0  0
   19.5277   -4.3779  -15.7025 O   0  0  0  0  0  0  0  0  0  0  0  0
  1  2  1  0
  2  3  1  0
  3  5  1  0
  3  4  1  6
  5  6  2  0
  7  8  1  0
  7  5  1  0
  9 10  1  0
  8  9  1  1
 11 10  1  0
 12 11  1  0
 13 12  1  0
 14  8  1  0
 14 15  2  0
 16 14  1  0
 17 16  1  0
 17 20  1  0
 17 18  1  6
 19 18  1  0
 20 21  1  0
 22 20  2  0
M  END
$$$$
