SKC.pdb
     RDKit          3D

 22 21  0  0  1  0  0  0  0  0999 V2000
   30.3214  -40.9813   -5.5589 O   0  0  0  0  0  0  0  0  0  0  0  0
   30.5432  -39.7245   -4.9589 C   0  0  0  0  0  0  0  0  0  0  0  0
   30.7489  -38.7177   -6.0980 C   0  0  2  0  0  0  0  0  0  0  0  0
   32.1315  -38.4009   -6.2772 N   0  0  0  0  0  0  0  0  0  0  0  0
   29.9417  -37.5254   -5.7465 C   0  0  0  0  0  0  0  0  0  0  0  0
   30.4472  -36.6809   -4.9648 O   0  0  0  0  0  0  0  0  0  0  0  0
   28.6403  -37.2897   -6.2416 N   0  0  0  0  0  0  0  0  0  0  0  0
   27.9127  -36.0516   -6.0605 C   0  0  1  0  0  0  0  0  0  0  0  0
   27.2389  -35.5953   -7.3273 C   0  0  0  0  0  0  0  0  0  0  0  0
   26.5594  -34.2546   -7.1587 C   0  0  0  0  0  0  0  0  0  0  0  0
   26.0724  -33.7060   -8.4793 C   0  0  0  0  0  0  0  0  0  0  0  0
   25.4846  -32.3322   -8.2380 C   0  0  0  0  0  0  0  0  0  0  0  0
   25.0930  -31.7469   -9.4870 N   0  0  0  0  0  0  0  0  0  0  0  0
   26.9620  -36.2234   -4.9432 C   0  0  0  0  0  0  0  0  0  0  0  0
   26.3334  -37.3011   -4.8398 O   0  0  0  0  0  0  0  0  0  0  0  0
   26.7184  -35.2198   -3.9665 N   0  0  0  0  0  0  0  0  0  0  0  0
   25.8553  -35.4642   -2.8129 C   0  0  1  0  0  0  0  0  0  0  0  0
   26.4396  -36.5626   -1.9847 C   0  0  0  0  0  0  0  0  0  0  0  0
   27.9686  -35.8992   -1.2185 S   0  0  0  0  0  0  0  0  0  0  0  0
   25.7064  -34.2325   -1.9954 C   0  0  0  0  0  0  0  0  0  0  0  0
   24.8329  -34.1466   -0.9230 O   0  0  0  0  0  0  0  0  0  0  0  0
   26.3883  -33.2092   -2.2638 O   0  0  0  0  0  0  0  0  0  0  0  0
  1  2  1  0
  2  3  1  0
  3  5  1  0
  3  4  1  1
  5  6  2  0
  7  8  1  0
  7  5  1  0
  9 10  1  0
  8  9  1  6
 11 10  1  0
 12 11  1  0
 13 12  1  0
 14  8  1  0
 14 15  2  0
 16 14  1  0
 17 16  1  0
 17 20  1  0
 17 18  1  1
 19 18  1  0
 20 21  1  0
 22 20  2  0
M  END
$$$$
