SKC.pdb
     RDKit          3D

 22 21  0  0  1  0  0  0  0  0999 V2000
   24.6952  -36.1499   -8.9329 O   0  0  0  0  0  0  0  0  0  0  0  0
   25.5465  -35.5829   -7.9619 C   0  0  0  0  0  0  0  0  0  0  0  0
   25.6398  -34.0836   -8.2731 C   0  0  2  0  0  0  0  0  0  0  0  0
   26.5615  -33.4219   -7.4032 N   0  0  0  0  0  0  0  0  0  0  0  0
   24.2637  -33.5483   -8.1436 C   0  0  0  0  0  0  0  0  0  0  0  0
   23.8585  -33.2358   -6.9957 O   0  0  0  0  0  0  0  0  0  0  0  0
   23.3883  -33.3718   -9.2376 N   0  0  0  0  0  0  0  0  0  0  0  0
   22.0562  -32.8156   -9.1322 C   0  0  1  0  0  0  0  0  0  0  0  0
   21.5906  -32.2010  -10.4253 C   0  0  0  0  0  0  0  0  0  0  0  0
   20.2327  -31.5492  -10.2886 C   0  0  0  0  0  0  0  0  0  0  0  0
   19.7807  -30.9237  -11.5872 C   0  0  0  0  0  0  0  0  0  0  0  0
   18.4671  -30.2125  -11.3429 C   0  0  0  0  0  0  0  0  0  0  0  0
   17.9961  -29.6316  -12.5664 N   0  0  0  0  0  0  0  0  0  0  0  0
   21.1433  -33.8695   -8.6445 C   0  0  0  0  0  0  0  0  0  0  0  0
   21.3274  -35.0517   -9.0126 O   0  0  0  0  0  0  0  0  0  0  0  0
   20.0533  -33.6119   -7.7692 N   0  0  0  0  0  0  0  0  0  0  0  0
   19.2819  -34.6953   -7.1637 C   0  0  1  0  0  0  0  0  0  0  0  0
   20.1838  -35.5214   -6.3047 C   0  0  0  0  0  0  0  0  0  0  0  0
   20.8680  -36.8492   -7.3695 S   0  0  0  0  0  0  0  0  0  0  0  0
   18.1596  -34.1549   -6.3538 C   0  0  0  0  0  0  0  0  0  0  0  0
   17.2369  -34.9685   -5.7159 O   0  0  0  0  0  0  0  0  0  0  0  0
   18.0155  -32.9113   -6.2235 O   0  0  0  0  0  0  0  0  0  0  0  0
  1  2  1  0
  2  3  1  0
  3  5  1  0
  3  4  1  1
  5  6  2  0
  7  8  1  0
  7  5  1  0
  9 10  1  0
  8  9  1  6
 11 10  1  0
 12 11  1  0
 13 12  1  0
 14  8  1  0
 14 15  2  0
 16 14  1  0
 17 16  1  0
 17 20  1  0
 17 18  1  1
 19 18  1  0
 20 21  1  0
 22 20  2  0
M  END
$$$$
