SKC.pdb
     RDKit          3D

 22 21  0  0  1  0  0  0  0  0999 V2000
   18.6006  -12.6646  -15.1496 O   0  0  0  0  0  0  0  0  0  0  0  0
   17.8065  -13.0976  -14.0676 C   0  0  0  0  0  0  0  0  0  0  0  0
   16.3943  -12.5466  -14.3037 C   0  0  2  0  0  0  0  0  0  0  0  0
   15.9926  -12.6951  -15.6677 N   0  0  0  0  0  0  0  0  0  0  0  0
   16.4289  -11.1264  -13.8810 C   0  0  0  0  0  0  0  0  0  0  0  0
   16.4081  -10.2444  -14.7761 O   0  0  0  0  0  0  0  0  0  0  0  0
   16.4836  -10.7144  -12.5313 N   0  0  0  0  0  0  0  0  0  0  0  0
   16.5115   -9.3321  -12.1031 C   0  0  1  0  0  0  0  0  0  0  0  0
   15.8821   -9.1416  -10.7487 C   0  0  0  0  0  0  0  0  0  0  0  0
   14.3750   -9.2573  -10.8007 C   0  0  0  0  0  0  0  0  0  0  0  0
   13.7484   -8.9955   -9.4512 C   0  0  0  0  0  0  0  0  0  0  0  0
   12.2438   -9.0554   -9.6037 C   0  0  0  0  0  0  0  0  0  0  0  0
   11.6188   -8.8225   -8.3344 N   0  0  0  0  0  0  0  0  0  0  0  0
   17.9076   -8.8522  -12.1518 C   0  0  0  0  0  0  0  0  0  0  0  0
   18.7885   -9.4793  -11.5211 O   0  0  0  0  0  0  0  0  0  0  0  0
   18.3111   -7.7030  -12.8847 N   0  0  0  0  0  0  0  0  0  0  0  0
   19.7157   -7.3146  -12.9919 C   0  0  1  0  0  0  0  0  0  0  0  0
   20.3939   -8.1912  -13.9947 C   0  0  0  0  0  0  0  0  0  0  0  0
   22.1298   -7.6126  -14.1236 S   0  0  0  0  0  0  0  0  0  0  0  0
   19.8396   -5.8894  -13.3933 C   0  0  0  0  0  0  0  0  0  0  0  0
   20.9948   -5.1517  -13.1893 O   0  0  0  0  0  0  0  0  0  0  0  0
   18.8723   -5.3011  -13.9434 O   0  0  0  0  0  0  0  0  0  0  0  0
  1  2  1  0
  2  3  1  0
  3  5  1  0
  3  4  1  6
  5  6  2  0
  7  8  1  0
  7  5  1  0
  9 10  1  0
  8  9  1  1
 11 10  1  0
 12 11  1  0
 13 12  1  0
 14  8  1  0
 14 15  2  0
 16 14  1  0
 17 16  1  0
 17 20  1  0
 17 18  1  6
 19 18  1  0
 20 21  1  0
 22 20  2  0
M  END
$$$$
