SKC.pdb
     RDKit          3D

 22 21  0  0  1  0  0  0  0  0999 V2000
   17.0932  -24.0286   -5.1752 O   0  0  0  0  0  0  0  0  0  0  0  0
   17.9593  -24.9185   -5.8437 C   0  0  0  0  0  0  0  0  0  0  0  0
   17.1750  -26.2175   -6.0692 C   0  0  2  0  0  0  0  0  0  0  0  0
   15.8662  -25.9597   -6.5835 N   0  0  0  0  0  0  0  0  0  0  0  0
   17.1361  -26.9095   -4.7590 C   0  0  0  0  0  0  0  0  0  0  0  0
   16.2495  -26.5659   -3.9371 O   0  0  0  0  0  0  0  0  0  0  0  0
   18.0390  -27.9298   -4.3876 N   0  0  0  0  0  0  0  0  0  0  0  0
   17.9695  -28.6641   -3.1423 C   0  0  1  0  0  0  0  0  0  0  0  0
   18.9028  -29.8455   -3.1237 C   0  0  0  0  0  0  0  0  0  0  0  0
   18.7259  -30.6903   -1.8817 C   0  0  0  0  0  0  0  0  0  0  0  0
   19.6085  -31.9160   -1.9103 C   0  0  0  0  0  0  0  0  0  0  0  0
   19.3554  -32.7161   -0.6507 C   0  0  0  0  0  0  0  0  0  0  0  0
   20.1391  -33.9167   -0.6740 N   0  0  0  0  0  0  0  0  0  0  0  0
   18.2195  -27.7268   -2.0284 C   0  0  0  0  0  0  0  0  0  0  0  0
   18.7658  -26.6267   -2.2704 O   0  0  0  0  0  0  0  0  0  0  0  0
   17.8695  -28.0086   -0.6799 N   0  0  0  0  0  0  0  0  0  0  0  0
   17.9937  -27.0021    0.3722 C   0  0  1  0  0  0  0  0  0  0  0  0
   17.1517  -25.8177    0.0226 C   0  0  0  0  0  0  0  0  0  0  0  0
   17.2679  -24.6452    1.4285 S   0  0  0  0  0  0  0  0  0  0  0  0
   17.5741  -27.5569    1.6851 C   0  0  0  0  0  0  0  0  0  0  0  0
   17.9457  -26.9869    2.8922 O   0  0  0  0  0  0  0  0  0  0  0  0
   16.8512  -28.5862    1.7345 O   0  0  0  0  0  0  0  0  0  0  0  0
  1  2  1  0
  2  3  1  0
  3  5  1  0
  3  4  1  1
  5  6  2  0
  7  8  1  0
  7  5  1  0
  9 10  1  0
  8  9  1  6
 11 10  1  0
 12 11  1  0
 13 12  1  0
 14  8  1  0
 14 15  2  0
 16 14  1  0
 17 16  1  0
 17 20  1  0
 17 18  1  6
 19 18  1  0
 20 21  1  0
 22 20  2  0
M  END
$$$$
