PWI.pdb
     RDKit          3D

 30 32  0  0  1  0  0  0  0  0999 V2000
    9.9424  -17.9087   19.5399 N   0  0  0  0  0  0  0  0  0  0  0  0
    9.6009  -18.1903   18.1476 C   0  0  0  0  0  0  0  0  0  0  0  0
    9.9240  -16.9051   17.3682 C   0  0  0  0  0  0  0  0  0  0  0  0
    9.6760  -15.8508   18.4452 C   0  0  0  0  0  0  0  0  0  0  0  0
   10.3825  -16.5499   19.6195 C   0  0  1  0  0  0  0  0  0  0  0  0
   10.1306  -15.8630   20.9021 C   0  0  0  0  0  0  0  0  0  0  0  0
   10.5858  -14.6773   20.9868 O   0  0  0  0  0  0  0  0  0  0  0  0
    9.4286  -16.4816   21.9775 N   0  0  0  0  0  0  0  0  0  0  0  0
    9.1037  -15.7115   23.1900 C   0  0  1  0  0  0  0  0  0  0  0  0
    7.6259  -15.7436   23.3057 C   0  0  0  0  0  0  0  0  0  0  0  0
    7.0139  -15.0647   24.4548 C   0  0  0  0  0  0  0  0  0  0  0  0
    6.3700  -15.7164   25.5371 C   0  0  0  0  0  0  0  0  0  0  0  0
    5.8835  -14.8029   26.3697 N   0  0  0  0  0  0  0  0  0  0  0  0
    6.1474  -13.5478   25.9374 C   0  0  0  0  0  0  0  0  0  0  0  0
    5.8510  -12.3088   26.4622 C   0  0  0  0  0  0  0  0  0  0  0  0
    6.2494  -11.1764   25.8196 C   0  0  0  0  0  0  0  0  0  0  0  0
    6.9693  -11.3270   24.6154 C   0  0  0  0  0  0  0  0  0  0  0  0
    7.2464  -12.5599   24.1224 C   0  0  0  0  0  0  0  0  0  0  0  0
    6.8553  -13.7287   24.7444 C   0  0  0  0  0  0  0  0  0  0  0  0
    9.8048  -16.4507   24.3305 C   0  0  0  0  0  0  0  0  0  0  0  0
   10.1748  -17.5958   24.0847 O   0  0  0  0  0  0  0  0  0  0  0  0
   10.8014  -13.0504   28.6712 C   0  0  0  0  0  0  0  0  0  0  0  0
   10.7997  -13.9411   27.4347 C   0  0  0  0  0  0  0  0  0  0  0  0
   10.6682  -15.3730   27.9104 C   0  0  2  0  0  0  0  0  0  0  0  0
   11.8198  -15.6854   28.8287 C   0  0  0  0  0  0  0  0  0  0  0  0
   10.5802  -16.3461   26.7505 C   0  0  2  0  0  0  0  0  0  0  0  0
   10.0064  -15.8481   25.5652 N   0  0  0  0  0  0  0  0  0  0  0  0
   10.2833  -17.7033   27.2335 C   0  0  0  0  0  0  0  0  0  0  0  0
   11.4148  -18.4308   27.7078 O   0  0  0  0  0  0  0  0  0  0  0  0
    9.1853  -18.2853   27.2792 O   0  0  0  0  0  0  0  0  0  0  0  0
  1  2  1  0
  3  2  1  0
  4  3  1  0
  5  4  1  0
  5  1  1  0
  5  6  1  1
  7  6  2  0
  8  6  1  0
  9  8  1  0
 10 11  1  0
  9 10  1  1
 11 12  2  0
 13 12  1  0
 14 13  1  0
 15 14  2  0
 16 15  1  0
 17 18  1  0
 17 16  2  0
 18 19  2  0
 19 14  1  0
 19 11  1  0
 20  9  1  0
 20 27  1  0
 21 20  2  0
 23 22  1  0
 24 23  1  0
 24 26  1  0
 24 25  1  1
 26 28  1  0
 26 27  1  6
 28 29  1  0
 30 28  2  0
M  END
$$$$
