PWI.pdb
     RDKit          3D

 30 32  0  0  1  0  0  0  0  0999 V2000
    8.4913  -16.1615   19.2196 N   0  0  0  0  0  0  0  0  0  0  0  0
    7.9088  -15.9535   17.8960 C   0  0  0  0  0  0  0  0  0  0  0  0
    8.2305  -14.4980   17.5200 C   0  0  0  0  0  0  0  0  0  0  0  0
    8.2604  -13.8483   18.9021 C   0  0  0  0  0  0  0  0  0  0  0  0
    9.0704  -14.9246   19.6454 C   0  0  1  0  0  0  0  0  0  0  0  0
    9.0926  -14.6892   21.1029 C   0  0  0  0  0  0  0  0  0  0  0  0
    9.6094  -13.5858   21.4715 O   0  0  0  0  0  0  0  0  0  0  0  0
    8.5747  -15.6312   22.0390 N   0  0  0  0  0  0  0  0  0  0  0  0
    8.4841  -15.2828   23.4671 C   0  0  1  0  0  0  0  0  0  0  0  0
    7.1455  -15.7404   23.9109 C   0  0  0  0  0  0  0  0  0  0  0  0
    6.3471  -14.8246   24.7354 C   0  0  0  0  0  0  0  0  0  0  0  0
    5.0487  -15.1003   25.2341 C   0  0  0  0  0  0  0  0  0  0  0  0
    4.5986  -14.0373   25.8912 N   0  0  0  0  0  0  0  0  0  0  0  0
    5.5036  -13.0308   25.8847 C   0  0  0  0  0  0  0  0  0  0  0  0
    5.4819  -11.7658   26.4300 C   0  0  0  0  0  0  0  0  0  0  0  0
    6.5508  -10.9352   26.2836 C   0  0  0  0  0  0  0  0  0  0  0  0
    7.6627  -11.4215   25.5637 C   0  0  0  0  0  0  0  0  0  0  0  0
    7.6556  -12.6716   25.0376 C   0  0  0  0  0  0  0  0  0  0  0  0
    6.5889  -13.5390   25.1630 C   0  0  0  0  0  0  0  0  0  0  0  0
    9.6257  -16.0490   24.1366 C   0  0  0  0  0  0  0  0  0  0  0  0
   10.4461  -16.5641   23.3814 O   0  0  0  0  0  0  0  0  0  0  0  0
   11.6288  -14.0857   29.5635 C   0  0  0  0  0  0  0  0  0  0  0  0
   11.9335  -14.9761   28.3650 C   0  0  0  0  0  0  0  0  0  0  0  0
   10.6326  -15.1892   27.6191 C   0  0  2  0  0  0  0  0  0  0  0  0
    9.6248  -15.7866   28.5650 C   0  0  0  0  0  0  0  0  0  0  0  0
   10.8274  -16.0390   26.3781 C   0  0  2  0  0  0  0  0  0  0  0  0
    9.7173  -16.1457   25.5188 N   0  0  0  0  0  0  0  0  0  0  0  0
   11.6817  -17.1994   26.6730 C   0  0  0  0  0  0  0  0  0  0  0  0
   11.0990  -18.4649   26.3675 O   0  0  0  0  0  0  0  0  0  0  0  0
   12.8311  -17.2132   27.1476 O   0  0  0  0  0  0  0  0  0  0  0  0
  1  2  1  0
  3  2  1  0
  4  3  1  0
  5  4  1  0
  5  1  1  0
  5  6  1  1
  7  6  2  0
  8  6  1  0
  9  8  1  0
 10 11  1  0
  9 10  1  1
 11 12  2  0
 13 12  1  0
 14 13  1  0
 15 14  2  0
 16 15  1  0
 17 18  1  0
 17 16  2  0
 18 19  2  0
 19 14  1  0
 19 11  1  0
 20  9  1  0
 20 27  1  0
 21 20  2  0
 23 22  1  0
 24 23  1  0
 24 26  1  0
 24 25  1  1
 26 28  1  0
 26 27  1  1
 28 29  1  0
 30 28  2  0
M  END
$$$$
