PWI.pdb
     RDKit          3D

 30 32  0  0  1  0  0  0  0  0999 V2000
   10.0372  -18.2466   19.9521 N   0  0  0  0  0  0  0  0  0  0  0  0
    9.7082  -18.5441   18.5601 C   0  0  0  0  0  0  0  0  0  0  0  0
   10.2026  -17.3379   17.7452 C   0  0  0  0  0  0  0  0  0  0  0  0
   10.0461  -16.2185   18.7726 C   0  0  0  0  0  0  0  0  0  0  0  0
   10.6299  -16.9454   19.9964 C   0  0  1  0  0  0  0  0  0  0  0  0
   10.4203  -16.1818   21.2428 C   0  0  0  0  0  0  0  0  0  0  0  0
   10.9635  -15.0311   21.2778 O   0  0  0  0  0  0  0  0  0  0  0  0
    9.6645  -16.6944   22.3373 N   0  0  0  0  0  0  0  0  0  0  0  0
    9.3721  -15.8394   23.5003 C   0  0  1  0  0  0  0  0  0  0  0  0
    7.9160  -15.9737   23.7451 C   0  0  0  0  0  0  0  0  0  0  0  0
    7.1305  -14.7425   23.8968 C   0  0  0  0  0  0  0  0  0  0  0  0
    6.3047  -14.1749   22.8935 C   0  0  0  0  0  0  0  0  0  0  0  0
    5.7873  -13.0381   23.3455 N   0  0  0  0  0  0  0  0  0  0  0  0
    6.1998  -12.7729   24.6071 C   0  0  0  0  0  0  0  0  0  0  0  0
    5.9267  -11.7331   25.4686 C   0  0  0  0  0  0  0  0  0  0  0  0
    6.4748  -11.7102   26.7148 C   0  0  0  0  0  0  0  0  0  0  0  0
    7.3174  -12.7822   27.0780 C   0  0  0  0  0  0  0  0  0  0  0  0
    7.5686  -13.7924   26.2085 C   0  0  0  0  0  0  0  0  0  0  0  0
    7.0337  -13.8466   24.9370 C   0  0  0  0  0  0  0  0  0  0  0  0
   10.2206  -16.4104   24.6371 C   0  0  0  0  0  0  0  0  0  0  0  0
   11.3119  -16.8739   24.3161 O   0  0  0  0  0  0  0  0  0  0  0  0
   10.6501  -13.3027   28.8392 C   0  0  0  0  0  0  0  0  0  0  0  0
   10.8298  -14.3081   27.7083 C   0  0  0  0  0  0  0  0  0  0  0  0
   10.4039  -15.6621   28.2366 C   0  0  2  0  0  0  0  0  0  0  0  0
   11.2820  -16.0235   29.4052 C   0  0  0  0  0  0  0  0  0  0  0  0
   10.4278  -16.7227   27.1527 C   0  0  2  0  0  0  0  0  0  0  0  0
    9.7711  -16.3962   25.9509 N   0  0  0  0  0  0  0  0  0  0  0  0
   10.3256  -18.0672   27.7403 C   0  0  0  0  0  0  0  0  0  0  0  0
   11.5474  -18.5875   28.2608 O   0  0  0  0  0  0  0  0  0  0  0  0
    9.3217  -18.7944   27.8382 O   0  0  0  0  0  0  0  0  0  0  0  0
  1  2  1  0
  3  2  1  0
  4  3  1  0
  5  4  1  0
  5  1  1  0
  5  6  1  1
  7  6  2  0
  8  6  1  0
  9  8  1  0
 10 11  1  0
  9 10  1  1
 11 12  2  0
 13 12  1  0
 14 13  1  0
 15 14  2  0
 16 15  1  0
 17 18  1  0
 17 16  2  0
 18 19  2  0
 19 14  1  0
 19 11  1  0
 20  9  1  0
 20 27  1  0
 21 20  2  0
 23 22  1  0
 24 23  1  0
 24 26  1  0
 24 25  1  1
 26 28  1  0
 26 27  1  6
 28 29  1  0
 30 28  2  0
M  END
$$$$
