PWI.pdb
     RDKit          3D

 30 32  0  0  1  0  0  0  0  0999 V2000
   10.1743  -18.1167   19.7671 N   0  0  0  0  0  0  0  0  0  0  0  0
   10.0139  -18.3686   18.3369 C   0  0  0  0  0  0  0  0  0  0  0  0
   10.5320  -17.1066   17.6280 C   0  0  0  0  0  0  0  0  0  0  0  0
   10.2082  -16.0412   18.6736 C   0  0  0  0  0  0  0  0  0  0  0  0
   10.6918  -16.7926   19.9260 C   0  0  1  0  0  0  0  0  0  0  0  0
   10.3096  -16.0942   21.1696 C   0  0  0  0  0  0  0  0  0  0  0  0
   10.8835  -14.9753   21.3677 O   0  0  0  0  0  0  0  0  0  0  0  0
    9.3651  -16.6328   22.0914 N   0  0  0  0  0  0  0  0  0  0  0  0
    8.9943  -15.8757   23.2990 C   0  0  1  0  0  0  0  0  0  0  0  0
    7.5410  -16.1008   23.4872 C   0  0  0  0  0  0  0  0  0  0  0  0
    6.8410  -15.2685   24.4738 C   0  0  0  0  0  0  0  0  0  0  0  0
    5.8519  -15.7346   25.3766 C   0  0  0  0  0  0  0  0  0  0  0  0
    5.3904  -14.7103   26.0853 N   0  0  0  0  0  0  0  0  0  0  0  0
    5.9967  -13.5520   25.7348 C   0  0  0  0  0  0  0  0  0  0  0  0
    5.8520  -12.2596   26.1897 C   0  0  0  0  0  0  0  0  0  0  0  0
    6.6080  -11.2566   25.6638 C   0  0  0  0  0  0  0  0  0  0  0  0
    7.5317  -11.5958   24.6525 C   0  0  0  0  0  0  0  0  0  0  0  0
    7.6521  -12.8772   24.2243 C   0  0  0  0  0  0  0  0  0  0  0  0
    6.9002  -13.9180   24.7316 C   0  0  0  0  0  0  0  0  0  0  0  0
    9.8390  -16.4792   24.4218 C   0  0  0  0  0  0  0  0  0  0  0  0
   10.3344  -17.5796   24.1930 O   0  0  0  0  0  0  0  0  0  0  0  0
    9.9375  -13.0103   28.7725 C   0  0  0  0  0  0  0  0  0  0  0  0
   10.0854  -13.8802   27.5301 C   0  0  0  0  0  0  0  0  0  0  0  0
   10.5264  -15.2539   27.9912 C   0  0  2  0  0  0  0  0  0  0  0  0
   11.8503  -15.1255   28.6967 C   0  0  0  0  0  0  0  0  0  0  0  0
   10.5829  -16.2424   26.8424 C   0  0  2  0  0  0  0  0  0  0  0  0
   10.0278  -15.8091   25.6233 N   0  0  0  0  0  0  0  0  0  0  0  0
   10.3828  -17.6157   27.3296 C   0  0  0  0  0  0  0  0  0  0  0  0
   11.5434  -18.2274   27.8895 O   0  0  0  0  0  0  0  0  0  0  0  0
    9.3434  -18.2983   27.3145 O   0  0  0  0  0  0  0  0  0  0  0  0
  1  2  1  0
  3  2  1  0
  4  3  1  0
  5  4  1  0
  5  1  1  0
  5  6  1  1
  7  6  2  0
  8  6  1  0
  9  8  1  0
 10 11  1  0
  9 10  1  1
 11 12  2  0
 13 12  1  0
 14 13  1  0
 15 14  2  0
 16 15  1  0
 17 18  1  0
 17 16  2  0
 18 19  2  0
 19 14  1  0
 19 11  1  0
 20  9  1  0
 20 27  1  0
 21 20  2  0
 23 22  1  0
 24 23  1  0
 24 26  1  0
 24 25  1  6
 26 28  1  0
 26 27  1  6
 28 29  1  0
 30 28  2  0
M  END
$$$$
