PWI.pdb
     RDKit          3D

 30 32  0  0  1  0  0  0  0  0999 V2000
    9.4443  -18.0873   19.5610 N   0  0  0  0  0  0  0  0  0  0  0  0
    9.0833  -18.4307   18.1876 C   0  0  0  0  0  0  0  0  0  0  0  0
    9.3978  -17.1828   17.3466 C   0  0  0  0  0  0  0  0  0  0  0  0
    9.1663  -16.0803   18.3780 C   0  0  0  0  0  0  0  0  0  0  0  0
    9.8877  -16.7272   19.5731 C   0  0  1  0  0  0  0  0  0  0  0  0
    9.6545  -15.9825   20.8266 C   0  0  0  0  0  0  0  0  0  0  0  0
   10.1307  -14.8024   20.8590 O   0  0  0  0  0  0  0  0  0  0  0  0
    8.9476  -16.5427   21.9303 N   0  0  0  0  0  0  0  0  0  0  0  0
    8.6148  -15.7081   23.0972 C   0  0  1  0  0  0  0  0  0  0  0  0
    7.2773  -16.1604   23.5498 C   0  0  0  0  0  0  0  0  0  0  0  0
    6.5032  -15.2561   24.4094 C   0  0  0  0  0  0  0  0  0  0  0  0
    5.3132  -15.6063   25.0965 C   0  0  0  0  0  0  0  0  0  0  0  0
    4.8465  -14.5382   25.7336 N   0  0  0  0  0  0  0  0  0  0  0  0
    5.6380  -13.4582   25.5357 C   0  0  0  0  0  0  0  0  0  0  0  0
    5.5594  -12.1600   25.9905 C   0  0  0  0  0  0  0  0  0  0  0  0
    6.5124  -11.2511   25.6444 C   0  0  0  0  0  0  0  0  0  0  0  0
    7.5663  -11.6922   24.8163 C   0  0  0  0  0  0  0  0  0  0  0  0
    7.6173  -12.9765   24.3833 C   0  0  0  0  0  0  0  0  0  0  0  0
    6.6676  -13.9235   24.7109 C   0  0  0  0  0  0  0  0  0  0  0  0
    9.7160  -15.9955   24.1187 C   0  0  0  0  0  0  0  0  0  0  0  0
   10.5699  -16.8097   23.7774 O   0  0  0  0  0  0  0  0  0  0  0  0
   10.9195  -13.9606   29.9281 C   0  0  0  0  0  0  0  0  0  0  0  0
   11.3700  -14.7758   28.7221 C   0  0  0  0  0  0  0  0  0  0  0  0
   10.2668  -14.6977   27.6873 C   0  0  2  0  0  0  0  0  0  0  0  0
    8.9646  -15.0815   28.3384 C   0  0  0  0  0  0  0  0  0  0  0  0
   10.5730  -15.5515   26.4718 C   0  0  2  0  0  0  0  0  0  0  0  0
    9.7371  -15.3630   25.3547 N   0  0  0  0  0  0  0  0  0  0  0  0
   11.0157  -16.8937   26.8790 C   0  0  0  0  0  0  0  0  0  0  0  0
   10.1053  -17.9456   26.5642 O   0  0  0  0  0  0  0  0  0  0  0  0
   12.0690  -17.2196   27.4541 O   0  0  0  0  0  0  0  0  0  0  0  0
  1  2  1  0
  3  2  1  0
  4  3  1  0
  5  4  1  0
  5  1  1  0
  5  6  1  1
  7  6  2  0
  8  6  1  0
  9  8  1  0
 10 11  1  0
  9 10  1  1
 11 12  2  0
 13 12  1  0
 14 13  1  0
 15 14  2  0
 16 15  1  0
 17 18  1  0
 17 16  2  0
 18 19  2  0
 19 14  1  0
 19 11  1  0
 20  9  1  0
 20 27  1  0
 21 20  2  0
 23 22  1  0
 24 23  1  0
 24 26  1  0
 24 25  1  1
 26 28  1  0
 26 27  1  6
 28 29  1  0
 30 28  2  0
M  END
$$$$
