PWI.pdb
     RDKit          3D

 30 32  0  0  1  0  0  0  0  0999 V2000
    9.0470  -17.4944   19.5256 N   0  0  0  0  0  0  0  0  0  0  0  0
    8.5123  -17.6273   18.1725 C   0  0  0  0  0  0  0  0  0  0  0  0
    8.7306  -16.2625   17.4992 C   0  0  0  0  0  0  0  0  0  0  0  0
    8.6420  -15.3329   18.7080 C   0  0  0  0  0  0  0  0  0  0  0  0
    9.5018  -16.1480   19.6894 C   0  0  1  0  0  0  0  0  0  0  0  0
    9.4359  -15.6059   21.0613 C   0  0  0  0  0  0  0  0  0  0  0  0
   10.0159  -14.4863   21.2361 O   0  0  0  0  0  0  0  0  0  0  0  0
    8.7720  -16.2869   22.1231 N   0  0  0  0  0  0  0  0  0  0  0  0
    8.6061  -15.6337   23.4326 C   0  0  1  0  0  0  0  0  0  0  0  0
    7.2903  -16.0849   23.9458 C   0  0  0  0  0  0  0  0  0  0  0  0
    6.5304  -15.1566   24.7923 C   0  0  0  0  0  0  0  0  0  0  0  0
    5.3109  -15.4645   25.4472 C   0  0  0  0  0  0  0  0  0  0  0  0
    4.8701  -14.3830   26.0801 N   0  0  0  0  0  0  0  0  0  0  0  0
    5.7074  -13.3333   25.9095 C   0  0  0  0  0  0  0  0  0  0  0  0
    5.6677  -12.0359   26.3714 C   0  0  0  0  0  0  0  0  0  0  0  0
    6.6634  -11.1625   26.0555 C   0  0  0  0  0  0  0  0  0  0  0  0
    7.7199  -11.6391   25.2507 C   0  0  0  0  0  0  0  0  0  0  0  0
    7.7321  -12.9218   24.8100 C   0  0  0  0  0  0  0  0  0  0  0  0
    6.7386  -13.8332   25.1072 C   0  0  0  0  0  0  0  0  0  0  0  0
    9.7772  -16.1353   24.2785 C   0  0  0  0  0  0  0  0  0  0  0  0
   10.4045  -17.0873   23.8216 O   0  0  0  0  0  0  0  0  0  0  0  0
   10.0983  -13.2438   29.0877 C   0  0  0  0  0  0  0  0  0  0  0  0
   10.3403  -13.8293   27.7018 C   0  0  0  0  0  0  0  0  0  0  0  0
   10.7009  -15.2888   27.8854 C   0  0  2  0  0  0  0  0  0  0  0  0
   11.9202  -15.3790   28.7643 C   0  0  0  0  0  0  0  0  0  0  0  0
   10.8996  -15.9915   26.5562 C   0  0  2  0  0  0  0  0  0  0  0  0
   10.1016  -15.5372   25.4890 N   0  0  0  0  0  0  0  0  0  0  0  0
   11.1609  -17.4244   26.7610 C   0  0  0  0  0  0  0  0  0  0  0  0
   10.0001  -18.2150   27.0100 O   0  0  0  0  0  0  0  0  0  0  0  0
   12.2511  -18.0223   26.7435 O   0  0  0  0  0  0  0  0  0  0  0  0
  1  2  1  0
  3  2  1  0
  4  3  1  0
  5  4  1  0
  5  1  1  0
  5  6  1  1
  7  6  2  0
  8  6  1  0
  9  8  1  0
 10 11  1  0
  9 10  1  1
 11 12  2  0
 13 12  1  0
 14 13  1  0
 15 14  2  0
 16 15  1  0
 17 18  1  0
 17 16  2  0
 18 19  2  0
 19 14  1  0
 19 11  1  0
 20  9  1  0
 20 27  1  0
 21 20  2  0
 23 22  1  0
 24 23  1  0
 24 26  1  0
 24 25  1  1
 26 28  1  0
 26 27  1  6
 28 29  1  0
 30 28  2  0
M  END
$$$$
