PWI.pdb
     RDKit          3D

 30 32  0  0  1  0  0  0  0  0999 V2000
    8.2313  -16.1938   19.2701 N   0  0  0  0  0  0  0  0  0  0  0  0
    7.5639  -16.0146   17.9829 C   0  0  0  0  0  0  0  0  0  0  0  0
    7.9328  -14.5980   17.5128 C   0  0  0  0  0  0  0  0  0  0  0  0
    8.0992  -13.8884   18.8551 C   0  0  0  0  0  0  0  0  0  0  0  0
    8.9045  -14.9731   19.5912 C   0  0  1  0  0  0  0  0  0  0  0  0
    9.0470  -14.6727   21.0299 C   0  0  0  0  0  0  0  0  0  0  0  0
    9.6310  -13.5756   21.3049 O   0  0  0  0  0  0  0  0  0  0  0  0
    8.5680  -15.5494   22.0467 N   0  0  0  0  0  0  0  0  0  0  0  0
    8.5538  -15.1141   23.4536 C   0  0  1  0  0  0  0  0  0  0  0  0
    7.3360  -15.7134   24.0502 C   0  0  0  0  0  0  0  0  0  0  0  0
    6.5577  -14.8936   24.9872 C   0  0  0  0  0  0  0  0  0  0  0  0
    5.3671  -15.3080   25.6364 C   0  0  0  0  0  0  0  0  0  0  0  0
    4.8964  -14.3039   26.3676 N   0  0  0  0  0  0  0  0  0  0  0  0
    5.6856  -13.2084   26.2714 C   0  0  0  0  0  0  0  0  0  0  0  0
    5.6028  -11.9577   26.8432 C   0  0  0  0  0  0  0  0  0  0  0  0
    6.5542  -11.0186   26.5841 C   0  0  0  0  0  0  0  0  0  0  0  0
    7.6111  -11.3795   25.7217 C   0  0  0  0  0  0  0  0  0  0  0  0
    7.6662  -12.6187   25.1729 C   0  0  0  0  0  0  0  0  0  0  0  0
    6.7181  -13.5938   25.4100 C   0  0  0  0  0  0  0  0  0  0  0  0
    9.8452  -15.6703   24.0550 C   0  0  0  0  0  0  0  0  0  0  0  0
   10.3648  -16.6038   23.4489 O   0  0  0  0  0  0  0  0  0  0  0  0
   11.3175  -14.9197   30.0431 C   0  0  0  0  0  0  0  0  0  0  0  0
   11.6445  -15.6541   28.7485 C   0  0  0  0  0  0  0  0  0  0  0  0
   10.7189  -15.1148   27.6779 C   0  0  2  0  0  0  0  0  0  0  0  0
    9.2953  -15.2898   28.1360 C   0  0  0  0  0  0  0  0  0  0  0  0
   10.9722  -15.7683   26.3329 C   0  0  2  0  0  0  0  0  0  0  0  0
   10.3877  -15.1387   25.2174 N   0  0  0  0  0  0  0  0  0  0  0  0
   10.9901  -17.2332   26.4631 C   0  0  0  0  0  0  0  0  0  0  0  0
   12.2912  -17.8177   26.4717 O   0  0  0  0  0  0  0  0  0  0  0  0
   10.0266  -18.0126   26.5657 O   0  0  0  0  0  0  0  0  0  0  0  0
  1  2  1  0
  3  2  1  0
  4  3  1  0
  5  4  1  0
  5  1  1  0
  5  6  1  1
  7  6  2  0
  8  6  1  0
  9  8  1  0
 10 11  1  0
  9 10  1  1
 11 12  2  0
 13 12  1  0
 14 13  1  0
 15 14  2  0
 16 15  1  0
 17 18  1  0
 17 16  2  0
 18 19  2  0
 19 14  1  0
 19 11  1  0
 20  9  1  0
 20 27  1  0
 21 20  2  0
 23 22  1  0
 24 23  1  0
 24 26  1  0
 24 25  1  1
 26 28  1  0
 26 27  1  6
 28 29  1  0
 30 28  2  0
M  END
$$$$
