HMI.pdb
     RDKit          3D

 27 27  0  0  1  0  0  0  0  0999 V2000
   10.0436  -17.2757   19.5339 N   0  0  0  0  0  0  0  0  0  0  0  0
    9.2564  -17.7325   20.7181 C   0  0  1  0  0  0  0  0  0  0  0  0
    9.8885  -19.0407   21.0857 C   0  0  0  0  0  0  0  0  0  0  0  0
    9.5829  -20.0755   20.1045 C   0  0  0  0  0  0  0  0  0  0  0  0
    9.0198  -19.9523   18.8627 C   0  0  0  0  0  0  0  0  0  0  0  0
    8.9205  -21.1851   18.3585 N   0  0  0  0  0  0  0  0  0  0  0  0
    9.3936  -22.0998   19.2173 C   0  0  0  0  0  0  0  0  0  0  0  0
    9.7998  -21.4039   20.2913 N   0  0  0  0  0  0  0  0  0  0  0  0
    9.4465  -16.7339   21.7950 C   0  0  0  0  0  0  0  0  0  0  0  0
   10.5883  -16.1629   21.9425 O   0  0  0  0  0  0  0  0  0  0  0  0
    6.5210  -11.2143   26.5780 C   0  0  0  0  0  0  0  0  0  0  0  0
    6.1479  -12.4690   25.3478 S   0  0  0  0  0  0  0  0  0  0  0  0
    7.6214  -13.4754   25.0632 C   0  0  0  0  0  0  0  0  0  0  0  0
    7.4934  -14.4785   23.9848 C   0  0  0  0  0  0  0  0  0  0  0  0
    8.7203  -15.3229   23.7115 C   0  0  2  0  0  0  0  0  0  0  0  0
    8.4633  -16.3143   22.7204 N   0  0  0  0  0  0  0  0  0  0  0  0
    9.3225  -15.8224   24.9655 C   0  0  0  0  0  0  0  0  0  0  0  0
    8.7277  -16.5496   25.8108 O   0  0  0  0  0  0  0  0  0  0  0  0
   10.5093  -13.2817   29.7357 C   0  0  0  0  0  0  0  0  0  0  0  0
   11.1110  -14.4191   28.9122 C   0  0  0  0  0  0  0  0  0  0  0  0
   10.5519  -14.4383   27.5186 C   0  0  2  0  0  0  0  0  0  0  0  0
    9.0452  -14.3378   27.4826 C   0  0  0  0  0  0  0  0  0  0  0  0
   11.1298  -15.5551   26.7267 C   0  0  2  0  0  0  0  0  0  0  0  0
   10.6741  -15.5099   25.3324 N   0  0  0  0  0  0  0  0  0  0  0  0
   10.7284  -16.8520   27.2672 C   0  0  0  0  0  0  0  0  0  0  0  0
    9.5361  -17.4184   26.8694 O   0  0  0  0  0  0  0  0  0  0  0  0
   11.4407  -17.4606   28.0822 O   0  0  0  0  0  0  0  0  0  0  0  0
  2  3  1  0
  2  1  1  6
  3  4  1  0
  4  8  1  0
  5  4  2  0
  5  6  1  0
  6  7  1  0
  8  7  2  0
  9 10  2  0
  9  2  1  0
 12 11  1  0
 13 14  1  0
 13 12  1  0
 15 14  1  1
 15 16  1  0
 16  9  1  0
 17 15  1  0
 17 24  1  0
 18 17  2  0
 20 19  1  0
 21 20  1  0
 21 22  1  1
 23 24  1  6
 23 21  1  0
 25 23  1  0
 26 25  1  0
 27 25  2  0
M  END
$$$$
