HMI.pdb
     RDKit          3D

 27 27  0  0  1  0  0  0  0  0999 V2000
   10.6405  -16.4323   19.6280 N   0  0  0  0  0  0  0  0  0  0  0  0
   10.0600  -17.2944   20.7005 C   0  0  1  0  0  0  0  0  0  0  0  0
   11.0897  -18.3655   20.8961 C   0  0  0  0  0  0  0  0  0  0  0  0
   10.8476  -19.5052   20.0188 C   0  0  0  0  0  0  0  0  0  0  0  0
    9.7459  -20.3136   19.9333 C   0  0  0  0  0  0  0  0  0  0  0  0
   10.0106  -21.2312   18.9995 N   0  0  0  0  0  0  0  0  0  0  0  0
   11.2328  -21.0532   18.4774 C   0  0  0  0  0  0  0  0  0  0  0  0
   11.7403  -19.9854   19.1137 N   0  0  0  0  0  0  0  0  0  0  0  0
    9.9249  -16.4639   21.9192 C   0  0  0  0  0  0  0  0  0  0  0  0
   10.9153  -15.7486   22.3178 O   0  0  0  0  0  0  0  0  0  0  0  0
    5.7935  -11.7491   25.1713 C   0  0  0  0  0  0  0  0  0  0  0  0
    5.6438  -13.4591   25.7007 S   0  0  0  0  0  0  0  0  0  0  0  0
    7.2360  -14.2864   25.4871 C   0  0  0  0  0  0  0  0  0  0  0  0
    7.3738  -15.0612   24.2357 C   0  0  0  0  0  0  0  0  0  0  0  0
    8.7530  -15.6135   23.9427 C   0  0  2  0  0  0  0  0  0  0  0  0
    8.7707  -16.3610   22.7294 N   0  0  0  0  0  0  0  0  0  0  0  0
    9.3196  -16.3042   25.1203 C   0  0  0  0  0  0  0  0  0  0  0  0
    9.2173  -17.5433   25.3471 O   0  0  0  0  0  0  0  0  0  0  0  0
    9.8612  -13.7580   29.9592 C   0  0  0  0  0  0  0  0  0  0  0  0
    9.6566  -14.9545   29.0315 C   0  0  0  0  0  0  0  0  0  0  0  0
   10.9473  -15.3721   28.3875 C   0  0  2  0  0  0  0  0  0  0  0  0
   11.8635  -14.2094   28.0869 C   0  0  0  0  0  0  0  0  0  0  0  0
   10.7019  -16.2942   27.2483 C   0  0  2  0  0  0  0  0  0  0  0  0
   10.0540  -15.5979   26.1305 N   0  0  0  0  0  0  0  0  0  0  0  0
    9.8218  -17.3943   27.6362 C   0  0  0  0  0  0  0  0  0  0  0  0
    8.5069  -17.3957   27.2219 O   0  0  0  0  0  0  0  0  0  0  0  0
   10.2328  -18.3346   28.3354 O   0  0  0  0  0  0  0  0  0  0  0  0
  2  3  1  0
  2  1  1  6
  3  4  1  0
  4  8  1  0
  5  4  2  0
  5  6  1  0
  6  7  1  0
  8  7  2  0
  9 10  2  0
  9  2  1  0
 12 11  1  0
 13 14  1  0
 13 12  1  0
 15 14  1  1
 15 16  1  0
 16  9  1  0
 17 15  1  0
 17 24  1  0
 18 17  2  0
 20 19  1  0
 21 20  1  0
 21 22  1  6
 23 24  1  6
 23 21  1  0
 25 23  1  0
 26 25  1  0
 27 25  2  0
M  END
$$$$
