HMI.pdb
     RDKit          3D

 27 27  0  0  1  0  0  0  0  0999 V2000
   10.3748  -16.3976   19.7570 N   0  0  0  0  0  0  0  0  0  0  0  0
    9.3965  -17.0250   20.6951 C   0  0  1  0  0  0  0  0  0  0  0  0
    9.9510  -18.3981   20.9257 C   0  0  0  0  0  0  0  0  0  0  0  0
    9.3889  -19.3649   19.9895 C   0  0  0  0  0  0  0  0  0  0  0  0
    8.0995  -19.4938   19.5476 C   0  0  0  0  0  0  0  0  0  0  0  0
    8.0769  -20.5418   18.7200 N   0  0  0  0  0  0  0  0  0  0  0  0
    9.2924  -21.0966   18.6065 C   0  0  0  0  0  0  0  0  0  0  0  0
   10.0943  -20.3622   19.3942 N   0  0  0  0  0  0  0  0  0  0  0  0
    9.4065  -16.2350   21.9476 C   0  0  0  0  0  0  0  0  0  0  0  0
   10.4271  -15.5099   22.2374 O   0  0  0  0  0  0  0  0  0  0  0  0
    6.1981  -12.6872   26.4049 C   0  0  0  0  0  0  0  0  0  0  0  0
    5.7505  -12.4796   24.6777 S   0  0  0  0  0  0  0  0  0  0  0  0
    6.4322  -13.8522   23.7205 C   0  0  0  0  0  0  0  0  0  0  0  0
    7.0669  -14.9187   24.5237 C   0  0  0  0  0  0  0  0  0  0  0  0
    8.4405  -15.3663   24.0697 C   0  0  2  0  0  0  0  0  0  0  0  0
    8.3662  -16.1826   22.9038 N   0  0  0  0  0  0  0  0  0  0  0  0
    9.2219  -15.9317   25.1898 C   0  0  0  0  0  0  0  0  0  0  0  0
    9.4828  -17.1592   25.3390 O   0  0  0  0  0  0  0  0  0  0  0  0
   11.0305  -14.3465   30.9354 C   0  0  0  0  0  0  0  0  0  0  0  0
   11.1179  -15.2944   29.7405 C   0  0  0  0  0  0  0  0  0  0  0  0
   10.4983  -14.6859   28.5153 C   0  0  2  0  0  0  0  0  0  0  0  0
    9.2077  -13.9560   28.8036 C   0  0  0  0  0  0  0  0  0  0  0  0
   10.4326  -15.6710   27.4047 C   0  0  2  0  0  0  0  0  0  0  0  0
    9.7627  -15.1030   26.2289 N   0  0  0  0  0  0  0  0  0  0  0  0
    9.6788  -16.8607   27.7946 C   0  0  0  0  0  0  0  0  0  0  0  0
    8.3214  -16.9164   27.5603 O   0  0  0  0  0  0  0  0  0  0  0  0
   10.2357  -17.8296   28.3359 O   0  0  0  0  0  0  0  0  0  0  0  0
  2  3  1  0
  2  1  1  6
  3  4  1  0
  4  8  1  0
  5  4  2  0
  5  6  1  0
  6  7  1  0
  8  7  2  0
  9 10  2  0
  9  2  1  0
 12 11  1  0
 13 14  1  0
 13 12  1  0
 15 14  1  1
 15 16  1  0
 16  9  1  0
 17 15  1  0
 17 24  1  0
 18 17  2  0
 20 19  1  0
 21 20  1  0
 21 22  1  1
 23 24  1  6
 23 21  1  0
 25 23  1  0
 26 25  1  0
 27 25  2  0
M  END
$$$$
