HMI.pdb
     RDKit          3D

 27 27  0  0  1  0  0  0  0  0999 V2000
   10.0195  -16.3745   20.0156 N   0  0  0  0  0  0  0  0  0  0  0  0
    9.1620  -17.0793   21.0148 C   0  0  1  0  0  0  0  0  0  0  0  0
    9.8077  -18.4243   21.1561 C   0  0  0  0  0  0  0  0  0  0  0  0
    9.0558  -19.4543   20.4483 C   0  0  0  0  0  0  0  0  0  0  0  0
    7.9311  -19.3300   19.6776 C   0  0  0  0  0  0  0  0  0  0  0  0
    7.6050  -20.5585   19.2675 N   0  0  0  0  0  0  0  0  0  0  0  0
    8.4672  -21.4716   19.7377 C   0  0  0  0  0  0  0  0  0  0  0  0
    9.3583  -20.7790   20.4651 N   0  0  0  0  0  0  0  0  0  0  0  0
    9.2384  -16.3216   22.2849 C   0  0  0  0  0  0  0  0  0  0  0  0
   10.3288  -15.7225   22.6067 O   0  0  0  0  0  0  0  0  0  0  0  0
    7.2845  -11.4719   25.8495 C   0  0  0  0  0  0  0  0  0  0  0  0
    5.8995  -12.5699   25.5289 S   0  0  0  0  0  0  0  0  0  0  0  0
    6.4312  -13.8806   24.4045 C   0  0  0  0  0  0  0  0  0  0  0  0
    7.0604  -15.0473   25.0590 C   0  0  0  0  0  0  0  0  0  0  0  0
    8.3787  -15.5086   24.4737 C   0  0  2  0  0  0  0  0  0  0  0  0
    8.1938  -16.1720   23.2260 N   0  0  0  0  0  0  0  0  0  0  0  0
    9.1833  -16.2465   25.4701 C   0  0  0  0  0  0  0  0  0  0  0  0
    9.0734  -17.4820   25.7127 O   0  0  0  0  0  0  0  0  0  0  0  0
   10.7509  -13.8066   30.2489 C   0  0  0  0  0  0  0  0  0  0  0  0
   10.2634  -14.8556   29.2510 C   0  0  0  0  0  0  0  0  0  0  0  0
   11.3832  -15.3340   28.3721 C   0  0  2  0  0  0  0  0  0  0  0  0
   12.2394  -14.2101   27.8380 C   0  0  0  0  0  0  0  0  0  0  0  0
   10.8877  -16.2917   27.3496 C   0  0  2  0  0  0  0  0  0  0  0  0
   10.1846  -15.5957   26.2655 N   0  0  0  0  0  0  0  0  0  0  0  0
    9.9447  -17.2457   27.9291 C   0  0  0  0  0  0  0  0  0  0  0  0
    8.5934  -17.0942   27.7021 O   0  0  0  0  0  0  0  0  0  0  0  0
   10.3342  -18.1966   28.6264 O   0  0  0  0  0  0  0  0  0  0  0  0
  2  3  1  0
  2  1  1  6
  3  4  1  0
  4  8  1  0
  5  4  2  0
  5  6  1  0
  6  7  1  0
  8  7  2  0
  9 10  2  0
  9  2  1  0
 12 11  1  0
 13 14  1  0
 13 12  1  0
 15 14  1  1
 15 16  1  0
 16  9  1  0
 17 15  1  0
 17 24  1  0
 18 17  2  0
 20 19  1  0
 21 20  1  0
 21 22  1  6
 23 24  1  6
 23 21  1  0
 25 23  1  0
 26 25  1  0
 27 25  2  0
M  END
$$$$
