HMI.pdb
     RDKit          3D

 27 27  0  0  1  0  0  0  0  0999 V2000
   10.1893  -16.5430   19.8849 N   0  0  0  0  0  0  0  0  0  0  0  0
    9.4873  -17.3151   20.9535 C   0  0  1  0  0  0  0  0  0  0  0  0
   10.4005  -18.4736   21.2173 C   0  0  0  0  0  0  0  0  0  0  0  0
   10.2157  -19.5339   20.2331 C   0  0  0  0  0  0  0  0  0  0  0  0
    9.0610  -20.1484   19.8286 C   0  0  0  0  0  0  0  0  0  0  0  0
    9.4085  -21.0711   18.9277 N   0  0  0  0  0  0  0  0  0  0  0  0
   10.7349  -21.0814   18.7310 C   0  0  0  0  0  0  0  0  0  0  0  0
   11.2229  -20.1288   19.5417 N   0  0  0  0  0  0  0  0  0  0  0  0
    9.3861  -16.4413   22.1449 C   0  0  0  0  0  0  0  0  0  0  0  0
   10.4280  -15.8237   22.5745 O   0  0  0  0  0  0  0  0  0  0  0  0
    6.6827  -11.5167   25.0233 C   0  0  0  0  0  0  0  0  0  0  0  0
    5.7214  -12.8615   25.7265 S   0  0  0  0  0  0  0  0  0  0  0  0
    6.7612  -14.3347   25.8425 C   0  0  0  0  0  0  0  0  0  0  0  0
    6.8447  -15.1388   24.6047 C   0  0  0  0  0  0  0  0  0  0  0  0
    8.2381  -15.5208   24.1514 C   0  0  2  0  0  0  0  0  0  0  0  0
    8.2137  -16.1945   22.8957 N   0  0  0  0  0  0  0  0  0  0  0  0
    8.9856  -16.2090   25.2248 C   0  0  0  0  0  0  0  0  0  0  0  0
    9.1922  -17.4548   25.2743 O   0  0  0  0  0  0  0  0  0  0  0  0
   10.3719  -13.0741   29.5657 C   0  0  0  0  0  0  0  0  0  0  0  0
   10.6385  -13.9042   28.3112 C   0  0  0  0  0  0  0  0  0  0  0  0
   10.4757  -15.3720   28.5839 C   0  0  2  0  0  0  0  0  0  0  0  0
   11.4478  -15.8951   29.6148 C   0  0  0  0  0  0  0  0  0  0  0  0
   10.4196  -16.1474   27.3175 C   0  0  2  0  0  0  0  0  0  0  0  0
    9.5534  -15.4921   26.3305 N   0  0  0  0  0  0  0  0  0  0  0  0
    9.8799  -17.4872   27.5391 C   0  0  0  0  0  0  0  0  0  0  0  0
    8.5153  -17.6826   27.5382 O   0  0  0  0  0  0  0  0  0  0  0  0
   10.6266  -18.4609   27.7299 O   0  0  0  0  0  0  0  0  0  0  0  0
  2  3  1  0
  2  1  1  6
  3  4  1  0
  4  8  1  0
  5  4  2  0
  5  6  1  0
  6  7  1  0
  8  7  2  0
  9 10  2  0
  9  2  1  0
 12 11  1  0
 13 14  1  0
 13 12  1  0
 15 14  1  1
 15 16  1  0
 16  9  1  0
 17 15  1  0
 17 24  1  0
 18 17  2  0
 20 19  1  0
 21 20  1  0
 21 22  1  1
 23 24  1  6
 23 21  1  0
 25 23  1  0
 26 25  1  0
 27 25  2  0
M  END
$$$$
