HMI.pdb
     RDKit          3D

 27 27  0  0  1  0  0  0  0  0999 V2000
   11.0831  -16.2076   20.1333 N   0  0  0  0  0  0  0  0  0  0  0  0
    9.8147  -16.6172   20.8072 C   0  0  1  0  0  0  0  0  0  0  0  0
    9.9662  -18.0973   20.9872 C   0  0  0  0  0  0  0  0  0  0  0  0
    9.5083  -18.8278   19.8109 C   0  0  0  0  0  0  0  0  0  0  0  0
    9.0331  -18.3437   18.6216 C   0  0  0  0  0  0  0  0  0  0  0  0
    8.7188  -19.4025   17.8706 N   0  0  0  0  0  0  0  0  0  0  0  0
    8.9689  -20.5489   18.5196 C   0  0  0  0  0  0  0  0  0  0  0  0
    9.4558  -20.1823   19.7160 N   0  0  0  0  0  0  0  0  0  0  0  0
    9.7609  -15.9293   22.1175 C   0  0  0  0  0  0  0  0  0  0  0  0
   10.8516  -15.5853   22.7036 O   0  0  0  0  0  0  0  0  0  0  0  0
    5.8509  -11.2319   25.6920 C   0  0  0  0  0  0  0  0  0  0  0  0
    5.6994  -12.9350   26.2423 S   0  0  0  0  0  0  0  0  0  0  0  0
    7.2349  -13.8143   25.8759 C   0  0  0  0  0  0  0  0  0  0  0  0
    7.3036  -14.4146   24.5267 C   0  0  0  0  0  0  0  0  0  0  0  0
    8.6208  -15.0605   24.1514 C   0  0  2  0  0  0  0  0  0  0  0  0
    8.5870  -15.5875   22.8276 N   0  0  0  0  0  0  0  0  0  0  0  0
    9.0782  -16.0010   25.1958 C   0  0  0  0  0  0  0  0  0  0  0  0
    9.0898  -17.2592   25.0774 O   0  0  0  0  0  0  0  0  0  0  0  0
   10.7212  -13.3045   29.3803 C   0  0  0  0  0  0  0  0  0  0  0  0
   11.1983  -14.2592   28.2872 C   0  0  0  0  0  0  0  0  0  0  0  0
   10.7780  -15.6718   28.5754 C   0  0  2  0  0  0  0  0  0  0  0  0
   11.7482  -16.4087   29.4682 C   0  0  0  0  0  0  0  0  0  0  0  0
   10.4041  -16.3833   27.3255 C   0  0  2  0  0  0  0  0  0  0  0  0
    9.5605  -15.5431   26.4673 N   0  0  0  0  0  0  0  0  0  0  0  0
    9.6462  -17.5990   27.6135 C   0  0  0  0  0  0  0  0  0  0  0  0
    8.2731  -17.5932   27.4907 O   0  0  0  0  0  0  0  0  0  0  0  0
   10.2135  -18.6449   27.9689 O   0  0  0  0  0  0  0  0  0  0  0  0
  2  3  1  0
  2  1  1  6
  3  4  1  0
  4  8  1  0
  5  4  2  0
  5  6  1  0
  6  7  1  0
  8  7  2  0
  9 10  2  0
  9  2  1  0
 12 11  1  0
 13 14  1  0
 13 12  1  0
 15 14  1  1
 15 16  1  0
 16  9  1  0
 17 15  1  0
 17 24  1  0
 18 17  2  0
 20 19  1  0
 21 20  1  0
 21 22  1  6
 23 24  1  6
 23 21  1  0
 25 23  1  0
 26 25  1  0
 27 25  2  0
M  END
$$$$
