HMI.pdb
     RDKit          3D

 27 27  0  0  1  0  0  0  0  0999 V2000
   10.2676  -16.5216   19.9187 N   0  0  0  0  0  0  0  0  0  0  0  0
    9.1367  -16.9625   20.7889 C   0  0  1  0  0  0  0  0  0  0  0  0
    9.3916  -18.4249   20.9945 C   0  0  0  0  0  0  0  0  0  0  0  0
    9.1276  -19.1886   19.7803 C   0  0  0  0  0  0  0  0  0  0  0  0
    7.9833  -19.2568   19.0318 C   0  0  0  0  0  0  0  0  0  0  0  0
    8.2253  -20.1080   18.0314 N   0  0  0  0  0  0  0  0  0  0  0  0
    9.4735  -20.5933   18.0987 C   0  0  0  0  0  0  0  0  0  0  0  0
   10.0212  -20.0192   19.1818 N   0  0  0  0  0  0  0  0  0  0  0  0
    9.2413  -16.2240   22.0683 C   0  0  0  0  0  0  0  0  0  0  0  0
   10.3976  -15.9032   22.5281 O   0  0  0  0  0  0  0  0  0  0  0  0
    5.7722  -11.3098   25.5201 C   0  0  0  0  0  0  0  0  0  0  0  0
    5.7111  -12.8727   26.4035 S   0  0  0  0  0  0  0  0  0  0  0  0
    7.1541  -13.8632   25.9545 C   0  0  0  0  0  0  0  0  0  0  0  0
    7.0867  -14.4950   24.6197 C   0  0  0  0  0  0  0  0  0  0  0  0
    8.3472  -15.1880   24.1464 C   0  0  2  0  0  0  0  0  0  0  0  0
    8.1586  -15.8077   22.8769 N   0  0  0  0  0  0  0  0  0  0  0  0
    8.9123  -16.0589   25.1984 C   0  0  0  0  0  0  0  0  0  0  0  0
    8.5655  -17.2564   25.4057 O   0  0  0  0  0  0  0  0  0  0  0  0
   10.9173  -13.9288   30.0323 C   0  0  0  0  0  0  0  0  0  0  0  0
   10.1877  -14.8158   29.0249 C   0  0  0  0  0  0  0  0  0  0  0  0
   11.1555  -15.6189   28.2042 C   0  0  2  0  0  0  0  0  0  0  0  0
   12.3097  -14.7989   27.6777 C   0  0  0  0  0  0  0  0  0  0  0  0
   10.4440  -16.4349   27.1864 C   0  0  2  0  0  0  0  0  0  0  0  0
    9.9323  -15.5968   26.0957 N   0  0  0  0  0  0  0  0  0  0  0  0
    9.2969  -17.1277   27.7692 C   0  0  0  0  0  0  0  0  0  0  0  0
    9.4973  -18.2578   28.5329 O   0  0  0  0  0  0  0  0  0  0  0  0
    8.1375  -16.7200   27.5915 O   0  0  0  0  0  0  0  0  0  0  0  0
  2  3  1  0
  2  1  1  6
  3  4  1  0
  4  8  1  0
  5  4  2  0
  5  6  1  0
  6  7  1  0
  8  7  2  0
  9 10  2  0
  9  2  1  0
 12 11  1  0
 13 14  1  0
 13 12  1  0
 15 14  1  1
 15 16  1  0
 16  9  1  0
 17 15  1  0
 17 24  1  0
 18 17  2  0
 20 19  1  0
 21 20  1  0
 21 22  1  6
 23 24  1  6
 23 21  1  0
 25 23  1  0
 26 25  1  0
 27 25  2  0
M  END
$$$$
