HMI.pdb
     RDKit          3D

 27 27  0  0  1  0  0  0  0  0999 V2000
    9.9437  -16.3436   19.5846 N   0  0  0  0  0  0  0  0  0  0  0  0
    9.1809  -17.0365   20.6656 C   0  0  1  0  0  0  0  0  0  0  0  0
    9.9028  -18.3388   20.8354 C   0  0  0  0  0  0  0  0  0  0  0  0
    9.4477  -19.3314   19.8686 C   0  0  0  0  0  0  0  0  0  0  0  0
    8.3686  -20.1716   19.9328 C   0  0  0  0  0  0  0  0  0  0  0  0
    8.3859  -20.9096   18.8197 N   0  0  0  0  0  0  0  0  0  0  0  0
    9.4265  -20.5852   18.0388 C   0  0  0  0  0  0  0  0  0  0  0  0
   10.0750  -19.6102   18.6958 N   0  0  0  0  0  0  0  0  0  0  0  0
    9.2883  -16.2105   21.8901 C   0  0  0  0  0  0  0  0  0  0  0  0
   10.3708  -15.5608   22.1296 O   0  0  0  0  0  0  0  0  0  0  0  0
    6.4295  -11.9317   26.1452 C   0  0  0  0  0  0  0  0  0  0  0  0
    5.6235  -12.3183   24.5872 S   0  0  0  0  0  0  0  0  0  0  0  0
    6.6298  -13.5146   23.6810 C   0  0  0  0  0  0  0  0  0  0  0  0
    7.1621  -14.6270   24.4962 C   0  0  0  0  0  0  0  0  0  0  0  0
    8.4682  -15.2320   24.0258 C   0  0  2  0  0  0  0  0  0  0  0  0
    8.2823  -16.0446   22.8698 N   0  0  0  0  0  0  0  0  0  0  0  0
    9.1987  -15.8728   25.1395 C   0  0  0  0  0  0  0  0  0  0  0  0
    9.3715  -17.1184   25.2657 O   0  0  0  0  0  0  0  0  0  0  0  0
   11.3410  -14.5948   30.8061 C   0  0  0  0  0  0  0  0  0  0  0  0
   11.5462  -15.3943   29.5205 C   0  0  0  0  0  0  0  0  0  0  0  0
   10.8639  -14.7374   28.3551 C   0  0  2  0  0  0  0  0  0  0  0  0
    9.7755  -13.7758   28.7702 C   0  0  0  0  0  0  0  0  0  0  0  0
   10.4647  -15.7413   27.3348 C   0  0  2  0  0  0  0  0  0  0  0  0
    9.7878  -15.1048   26.1987 N   0  0  0  0  0  0  0  0  0  0  0  0
    9.5367  -16.7234   27.8914 C   0  0  0  0  0  0  0  0  0  0  0  0
   10.0278  -17.8559   28.5053 O   0  0  0  0  0  0  0  0  0  0  0  0
    8.3074  -16.5611   27.8241 O   0  0  0  0  0  0  0  0  0  0  0  0
  2  3  1  0
  2  1  1  6
  3  4  1  0
  4  8  1  0
  5  4  2  0
  5  6  1  0
  6  7  1  0
  8  7  2  0
  9 10  2  0
  9  2  1  0
 12 11  1  0
 13 14  1  0
 13 12  1  0
 15 14  1  1
 15 16  1  0
 16  9  1  0
 17 15  1  0
 17 24  1  0
 18 17  2  0
 20 19  1  0
 21 20  1  0
 21 22  1  1
 23 24  1  6
 23 21  1  0
 25 23  1  0
 26 25  1  0
 27 25  2  0
M  END
$$$$
