HMI.pdb
     RDKit          3D

 27 27  0  0  1  0  0  0  0  0999 V2000
    6.0064  -18.5783   19.5790 N   0  0  0  0  0  0  0  0  0  0  0  0
    6.9192  -17.4843   20.0270 C   0  0  1  0  0  0  0  0  0  0  0  0
    6.5402  -16.3230   19.1588 C   0  0  0  0  0  0  0  0  0  0  0  0
    7.3977  -15.1695   19.4060 C   0  0  0  0  0  0  0  0  0  0  0  0
    7.3985  -14.3022   20.4654 C   0  0  0  0  0  0  0  0  0  0  0  0
    8.3514  -13.3978   20.2245 N   0  0  0  0  0  0  0  0  0  0  0  0
    8.9666  -13.6405   19.0581 C   0  0  0  0  0  0  0  0  0  0  0  0
    8.3701  -14.7361   18.5615 N   0  0  0  0  0  0  0  0  0  0  0  0
    6.6156  -17.2012   21.4486 C   0  0  0  0  0  0  0  0  0  0  0  0
    5.4229  -16.8697   21.7933 O   0  0  0  0  0  0  0  0  0  0  0  0
    7.2259  -21.1425   26.3788 C   0  0  0  0  0  0  0  0  0  0  0  0
    7.4577  -19.5160   27.1050 S   0  0  0  0  0  0  0  0  0  0  0  0
    6.6648  -18.2795   26.0527 C   0  0  0  0  0  0  0  0  0  0  0  0
    7.0002  -18.3750   24.6161 C   0  0  0  0  0  0  0  0  0  0  0  0
    7.1417  -17.0612   23.8765 C   0  0  2  0  0  0  0  0  0  0  0  0
    7.5345  -17.2630   22.5214 N   0  0  0  0  0  0  0  0  0  0  0  0
    7.9654  -16.0986   24.6379 C   0  0  0  0  0  0  0  0  0  0  0  0
    9.2169  -15.9690   24.5188 O   0  0  0  0  0  0  0  0  0  0  0  0
    5.3248  -11.6692   26.6831 C   0  0  0  0  0  0  0  0  0  0  0  0
    6.3418  -12.5581   25.9694 C   0  0  0  0  0  0  0  0  0  0  0  0
    7.3071  -13.1719   26.9423 C   0  0  2  0  0  0  0  0  0  0  0  0
    8.0298  -12.1486   27.7863 C   0  0  0  0  0  0  0  0  0  0  0  0
    8.1815  -14.1681   26.2707 C   0  0  2  0  0  0  0  0  0  0  0  0
    7.3887  -15.2073   25.6033 N   0  0  0  0  0  0  0  0  0  0  0  0
    9.0518  -14.8432   27.2310 C   0  0  0  0  0  0  0  0  0  0  0  0
   10.2810  -14.3000   27.5383 O   0  0  0  0  0  0  0  0  0  0  0  0
    8.7081  -15.9023   27.7808 O   0  0  0  0  0  0  0  0  0  0  0  0
  2  3  1  0
  2  1  1  6
  3  4  1  0
  4  8  1  0
  5  4  2  0
  5  6  1  0
  6  7  1  0
  8  7  2  0
  9 10  2  0
  9  2  1  0
 12 11  1  0
 13 14  1  0
 13 12  1  0
 15 14  1  1
 15 16  1  0
 16  9  1  0
 17 15  1  0
 17 24  1  0
 18 17  2  0
 20 19  1  0
 21 20  1  0
 21 22  1  6
 23 24  1  1
 23 21  1  0
 25 23  1  0
 26 25  1  0
 27 25  2  0
M  END
$$$$
