SMH.pdb
     RDKit          3D

 25 25  0  0  1  0  0  0  0  0999 V2000
    8.7825  -19.0814   22.2140 O   0  0  0  0  0  0  0  0  0  0  0  0
    7.6586  -18.5603   21.6069 C   0  0  0  0  0  0  0  0  0  0  0  0
    7.9549  -17.2142   20.9824 C   0  0  2  0  0  0  0  0  0  0  0  0
    8.8629  -17.3119   19.8687 N   0  0  0  0  0  0  0  0  0  0  0  0
    8.4779  -16.2565   21.9807 C   0  0  0  0  0  0  0  0  0  0  0  0
    9.6790  -15.9318   22.0151 O   0  0  0  0  0  0  0  0  0  0  0  0
    6.4290  -10.7847   27.3011 C   0  0  0  0  0  0  0  0  0  0  0  0
    5.9358  -12.1759   26.2583 S   0  0  0  0  0  0  0  0  0  0  0  0
    7.4137  -12.8231   25.4088 C   0  0  0  0  0  0  0  0  0  0  0  0
    6.9781  -14.0525   24.6578 C   0  0  0  0  0  0  0  0  0  0  0  0
    8.0586  -14.6776   23.8359 C   0  0  2  0  0  0  0  0  0  0  0  0
    7.5768  -15.6852   22.9383 N   0  0  0  0  0  0  0  0  0  0  0  0
    9.1253  -15.3212   24.6905 C   0  0  0  0  0  0  0  0  0  0  0  0
   10.1774  -15.7888   24.2295 O   0  0  0  0  0  0  0  0  0  0  0  0
    8.9202  -15.4039   26.1099 N   0  0  0  0  0  0  0  0  0  0  0  0
    8.6102  -16.6543   26.7836 C   0  0  1  0  0  0  0  0  0  0  0  0
    7.6473  -17.4824   25.9629 C   0  0  0  0  0  0  0  0  0  0  0  0
    7.3953  -18.8234   26.5686 C   0  0  0  0  0  0  0  0  0  0  0  0
    7.6924  -19.3090   27.8010 C   0  0  0  0  0  0  0  0  0  0  0  0
    7.2946  -20.5960   27.9198 N   0  0  0  0  0  0  0  0  0  0  0  0
    6.7465  -20.9194   26.7555 C   0  0  0  0  0  0  0  0  0  0  0  0
    6.7862  -19.8519   25.8905 N   0  0  0  0  0  0  0  0  0  0  0  0
    9.8501  -17.4224   27.0555 C   0  0  0  0  0  0  0  0  0  0  0  0
   10.2047  -17.5965   28.2435 O   0  0  0  0  0  0  0  0  0  0  0  0
   10.6336  -17.9536   26.0580 O   0  0  0  0  0  0  0  0  0  0  0  0
  2  1  1  0
  2  3  1  0
  3  4  1  6
  5  3  1  0
  5  6  2  0
  7  8  1  0
  8  9  1  0
  9 10  1  0
 11 10  1  1
 11 12  1  0
 11 13  1  0
 12  5  1  0
 13 15  1  0
 13 14  2  0
 15 16  1  0
 16 23  1  0
 17 18  1  0
 16 17  1  6
 18 19  2  0
 19 20  1  0
 21 20  1  0
 22 18  1  0
 22 21  2  0
 23 24  2  0
 23 25  1  0
M  END
$$$$
