SMH.pdb
     RDKit          3D

 25 25  0  0  1  0  0  0  0  0999 V2000
    7.6073  -18.0884   20.7902 O   0  0  0  0  0  0  0  0  0  0  0  0
    6.8805  -16.9879   20.3852 C   0  0  0  0  0  0  0  0  0  0  0  0
    7.7565  -15.7561   20.3149 C   0  0  2  0  0  0  0  0  0  0  0  0
    8.8126  -15.8862   19.3443 N   0  0  0  0  0  0  0  0  0  0  0  0
    8.3229  -15.4171   21.6385 C   0  0  0  0  0  0  0  0  0  0  0  0
    9.5115  -15.6502   21.9250 O   0  0  0  0  0  0  0  0  0  0  0  0
    7.3731  -11.1590   28.2023 C   0  0  0  0  0  0  0  0  0  0  0  0
    6.6335  -11.8387   26.7000 S   0  0  0  0  0  0  0  0  0  0  0  0
    7.8098  -13.0112   25.9474 C   0  0  0  0  0  0  0  0  0  0  0  0
    7.1955  -13.4699   24.6522 C   0  0  0  0  0  0  0  0  0  0  0  0
    8.0349  -14.4463   23.8934 C   0  0  2  0  0  0  0  0  0  0  0  0
    7.4795  -14.8029   22.6216 N   0  0  0  0  0  0  0  0  0  0  0  0
    8.2472  -15.7316   24.6586 C   0  0  0  0  0  0  0  0  0  0  0  0
    7.4003  -16.6355   24.7203 O   0  0  0  0  0  0  0  0  0  0  0  0
    9.4878  -15.9264   25.3561 N   0  0  0  0  0  0  0  0  0  0  0  0
    9.7888  -17.1441   26.0909 C   0  0  1  0  0  0  0  0  0  0  0  0
   11.0145  -17.8244   25.5241 C   0  0  0  0  0  0  0  0  0  0  0  0
   10.7851  -18.3468   24.1445 C   0  0  0  0  0  0  0  0  0  0  0  0
    9.6687  -18.3491   23.3722 C   0  0  0  0  0  0  0  0  0  0  0  0
    9.9070  -18.9486   22.1837 N   0  0  0  0  0  0  0  0  0  0  0  0
   11.1789  -19.3252   22.2115 C   0  0  0  0  0  0  0  0  0  0  0  0
   11.7609  -18.9716   23.4054 N   0  0  0  0  0  0  0  0  0  0  0  0
    9.9814  -16.8503   27.5324 C   0  0  0  0  0  0  0  0  0  0  0  0
   10.2431  -17.7946   28.3116 O   0  0  0  0  0  0  0  0  0  0  0  0
    9.8834  -15.5825   28.0560 O   0  0  0  0  0  0  0  0  0  0  0  0
  2  1  1  0
  2  3  1  0
  3  4  1  6
  5  3  1  0
  5  6  2  0
  7  8  1  0
  8  9  1  0
  9 10  1  0
 11 10  1  1
 11 12  1  0
 11 13  1  0
 12  5  1  0
 13 15  1  0
 13 14  2  0
 15 16  1  0
 16 23  1  0
 17 18  1  0
 16 17  1  6
 18 19  2  0
 19 20  1  0
 21 20  1  0
 22 18  1  0
 22 21  2  0
 23 24  2  0
 23 25  1  0
M  END
$$$$
