SMH.pdb
     RDKit          3D

 25 25  0  0  1  0  0  0  0  0999 V2000
    7.2266  -18.0070   21.5908 O   0  0  0  0  0  0  0  0  0  0  0  0
    6.9354  -16.9505   20.7528 C   0  0  0  0  0  0  0  0  0  0  0  0
    7.9351  -15.8283   20.9283 C   0  0  2  0  0  0  0  0  0  0  0  0
    9.1799  -16.0892   20.2523 N   0  0  0  0  0  0  0  0  0  0  0  0
    8.1845  -15.5426   22.3579 C   0  0  0  0  0  0  0  0  0  0  0  0
    9.2772  -15.7936   22.8984 O   0  0  0  0  0  0  0  0  0  0  0  0
    6.8704  -10.1106   25.8227 C   0  0  0  0  0  0  0  0  0  0  0  0
    5.9832  -11.4386   26.6685 S   0  0  0  0  0  0  0  0  0  0  0  0
    6.8689  -13.0071   26.3851 C   0  0  0  0  0  0  0  0  0  0  0  0
    6.6640  -13.3649   24.9376 C   0  0  0  0  0  0  0  0  0  0  0  0
    7.4113  -14.5833   24.5008 C   0  0  2  0  0  0  0  0  0  0  0  0
    7.1378  -14.9605   23.1458 N   0  0  0  0  0  0  0  0  0  0  0  0
    7.1005  -15.7833   25.3645 C   0  0  0  0  0  0  0  0  0  0  0  0
    5.9542  -16.2284   25.5253 O   0  0  0  0  0  0  0  0  0  0  0  0
    8.1791  -16.4487   26.0409 N   0  0  0  0  0  0  0  0  0  0  0  0
    8.0249  -17.7528   26.6644 C   0  0  1  0  0  0  0  0  0  0  0  0
    7.4785  -18.7592   25.6770 C   0  0  0  0  0  0  0  0  0  0  0  0
    7.2667  -20.1015   26.2952 C   0  0  0  0  0  0  0  0  0  0  0  0
    7.5576  -20.5598   27.5395 C   0  0  0  0  0  0  0  0  0  0  0  0
    7.2079  -21.8598   27.6673 N   0  0  0  0  0  0  0  0  0  0  0  0
    6.6964  -22.2188   26.4969 C   0  0  0  0  0  0  0  0  0  0  0  0
    6.7119  -21.1614   25.6188 N   0  0  0  0  0  0  0  0  0  0  0  0
    9.3183  -18.2230   27.2187 C   0  0  0  0  0  0  0  0  0  0  0  0
    9.3358  -19.2673   27.9090 O   0  0  0  0  0  0  0  0  0  0  0  0
   10.5054  -17.5608   27.0101 O   0  0  0  0  0  0  0  0  0  0  0  0
  2  1  1  0
  2  3  1  0
  3  4  1  1
  5  3  1  0
  5  6  2  0
  7  8  1  0
  8  9  1  0
  9 10  1  0
 11 10  1  1
 11 12  1  0
 11 13  1  0
 12  5  1  0
 13 15  1  0
 13 14  2  0
 15 16  1  0
 16 23  1  0
 17 18  1  0
 16 17  1  6
 18 19  2  0
 19 20  1  0
 21 20  1  0
 22 18  1  0
 22 21  2  0
 23 24  2  0
 23 25  1  0
M  END
$$$$
