SMH.pdb
     RDKit          3D

 25 25  0  0  1  0  0  0  0  0999 V2000
    8.1423  -17.8328   20.4314 O   0  0  0  0  0  0  0  0  0  0  0  0
    7.1861  -16.8460   20.3077 C   0  0  0  0  0  0  0  0  0  0  0  0
    7.8111  -15.4712   20.4016 C   0  0  2  0  0  0  0  0  0  0  0  0
    8.7408  -15.2148   19.3318 N   0  0  0  0  0  0  0  0  0  0  0  0
    8.4721  -15.2639   21.7084 C   0  0  0  0  0  0  0  0  0  0  0  0
    9.7101  -15.2959   21.8322 O   0  0  0  0  0  0  0  0  0  0  0  0
    6.0309  -10.8105   26.8421 C   0  0  0  0  0  0  0  0  0  0  0  0
    6.2049  -12.6062   26.7358 S   0  0  0  0  0  0  0  0  0  0  0  0
    7.0709  -13.0194   25.1853 C   0  0  0  0  0  0  0  0  0  0  0  0
    7.3742  -14.4928   25.2379 C   0  0  0  0  0  0  0  0  0  0  0  0
    8.2906  -14.9638   24.1553 C   0  0  2  0  0  0  0  0  0  0  0  0
    7.6646  -15.0199   22.8676 N   0  0  0  0  0  0  0  0  0  0  0  0
    8.8458  -16.3404   24.4367 C   0  0  0  0  0  0  0  0  0  0  0  0
    8.8937  -17.2425   23.5870 O   0  0  0  0  0  0  0  0  0  0  0  0
    9.3436  -16.6316   25.7524 N   0  0  0  0  0  0  0  0  0  0  0  0
   10.4864  -17.5003   25.9814 C   0  0  1  0  0  0  0  0  0  0  0  0
   11.6842  -17.0336   25.1852 C   0  0  0  0  0  0  0  0  0  0  0  0
   11.7260  -17.6360   23.8198 C   0  0  0  0  0  0  0  0  0  0  0  0
   10.8879  -18.5147   23.2130 C   0  0  0  0  0  0  0  0  0  0  0  0
   11.3200  -18.8090   21.9659 N   0  0  0  0  0  0  0  0  0  0  0  0
   12.4355  -18.1123   21.7904 C   0  0  0  0  0  0  0  0  0  0  0  0
   12.7232  -17.3715   22.9118 N   0  0  0  0  0  0  0  0  0  0  0  0
   10.8176  -17.5578   27.4265 C   0  0  0  0  0  0  0  0  0  0  0  0
   11.6437  -18.4106   27.8235 O   0  0  0  0  0  0  0  0  0  0  0  0
   10.2551  -16.7147   28.3560 O   0  0  0  0  0  0  0  0  0  0  0  0
  2  1  1  0
  2  3  1  0
  3  4  1  6
  5  3  1  0
  5  6  2  0
  7  8  1  0
  8  9  1  0
  9 10  1  0
 11 10  1  1
 11 12  1  0
 11 13  1  0
 12  5  1  0
 13 15  1  0
 13 14  2  0
 15 16  1  0
 16 23  1  0
 17 18  1  0
 16 17  1  6
 18 19  2  0
 19 20  1  0
 21 20  1  0
 22 18  1  0
 22 21  2  0
 23 24  2  0
 23 25  1  0
M  END
$$$$
