SMH.pdb
     RDKit          3D

 25 25  0  0  1  0  0  0  0  0999 V2000
    7.6086  -17.7035   20.5218 O   0  0  0  0  0  0  0  0  0  0  0  0
    6.7545  -16.6205   20.5547 C   0  0  0  0  0  0  0  0  0  0  0  0
    7.5284  -15.3201   20.5529 C   0  0  2  0  0  0  0  0  0  0  0  0
    8.3981  -15.1987   19.4114 N   0  0  0  0  0  0  0  0  0  0  0  0
    8.3028  -15.1480   21.8012 C   0  0  0  0  0  0  0  0  0  0  0  0
    9.5271  -15.3661   21.8515 O   0  0  0  0  0  0  0  0  0  0  0  0
    7.7954  -11.3454   27.5210 C   0  0  0  0  0  0  0  0  0  0  0  0
    6.4293  -11.9159   26.4847 S   0  0  0  0  0  0  0  0  0  0  0  0
    7.1161  -12.6575   24.9671 C   0  0  0  0  0  0  0  0  0  0  0  0
    7.5961  -14.0353   25.3371 C   0  0  0  0  0  0  0  0  0  0  0  0
    8.3249  -14.7403   24.2391 C   0  0  2  0  0  0  0  0  0  0  0  0
    7.6248  -14.7185   22.9891 N   0  0  0  0  0  0  0  0  0  0  0  0
    8.5916  -16.1900   24.5705 C   0  0  0  0  0  0  0  0  0  0  0  0
    8.3943  -17.1187   23.7727 O   0  0  0  0  0  0  0  0  0  0  0  0
    9.0966  -16.5216   25.8738 N   0  0  0  0  0  0  0  0  0  0  0  0
   10.2233  -17.4190   26.0707 C   0  0  1  0  0  0  0  0  0  0  0  0
   11.4865  -16.8324   25.4820 C   0  0  0  0  0  0  0  0  0  0  0  0
   11.7749  -17.3637   24.1169 C   0  0  0  0  0  0  0  0  0  0  0  0
   11.1073  -18.2718   23.3603 C   0  0  0  0  0  0  0  0  0  0  0  0
   11.7385  -18.4730   22.1815 N   0  0  0  0  0  0  0  0  0  0  0  0
   12.8081  -17.6881   22.1996 C   0  0  0  0  0  0  0  0  0  0  0  0
   12.8691  -16.9827   23.3778 N   0  0  0  0  0  0  0  0  0  0  0  0
   10.4127  -17.7109   27.5129 C   0  0  0  0  0  0  0  0  0  0  0  0
   10.1738  -16.8095   28.3482 O   0  0  0  0  0  0  0  0  0  0  0  0
   10.8428  -18.9316   27.9778 O   0  0  0  0  0  0  0  0  0  0  0  0
  2  1  1  0
  2  3  1  0
  3  4  1  6
  5  3  1  0
  5  6  2  0
  7  8  1  0
  8  9  1  0
  9 10  1  0
 11 10  1  1
 11 12  1  0
 11 13  1  0
 12  5  1  0
 13 15  1  0
 13 14  2  0
 15 16  1  0
 16 23  1  0
 17 18  1  0
 16 17  1  1
 18 19  2  0
 19 20  1  0
 21 20  1  0
 22 18  1  0
 22 21  2  0
 23 24  2  0
 23 25  1  0
M  END
$$$$
