SMH.pdb
     RDKit          3D

 25 25  0  0  1  0  0  0  0  0999 V2000
    7.3735  -19.5865   22.1156 O   0  0  0  0  0  0  0  0  0  0  0  0
    6.2866  -18.7412   22.0298 C   0  0  0  0  0  0  0  0  0  0  0  0
    6.6945  -17.3871   21.4915 C   0  0  2  0  0  0  0  0  0  0  0  0
    7.3743  -17.4801   20.2252 N   0  0  0  0  0  0  0  0  0  0  0  0
    7.5294  -16.6466   22.4622 C   0  0  0  0  0  0  0  0  0  0  0  0
    8.7708  -16.6195   22.3766 O   0  0  0  0  0  0  0  0  0  0  0  0
    6.7504  -10.9205   25.7967 C   0  0  0  0  0  0  0  0  0  0  0  0
    6.8353  -12.2285   27.0409 S   0  0  0  0  0  0  0  0  0  0  0  0
    7.8265  -13.6063   26.3747 C   0  0  0  0  0  0  0  0  0  0  0  0
    6.9774  -14.2880   25.3356 C   0  0  0  0  0  0  0  0  0  0  0  0
    7.7013  -15.3322   24.5485 C   0  0  2  0  0  0  0  0  0  0  0  0
    6.8919  -15.9397   23.5342 N   0  0  0  0  0  0  0  0  0  0  0  0
    8.2226  -16.4474   25.4243 C   0  0  0  0  0  0  0  0  0  0  0  0
    7.5191  -17.3895   25.8186 O   0  0  0  0  0  0  0  0  0  0  0  0
    9.6007  -16.4243   25.8293 N   0  0  0  0  0  0  0  0  0  0  0  0
   10.2130  -17.5078   26.5806 C   0  0  1  0  0  0  0  0  0  0  0  0
   11.5640  -17.8654   26.0032 C   0  0  0  0  0  0  0  0  0  0  0  0
   11.4597  -18.4259   24.6234 C   0  0  0  0  0  0  0  0  0  0  0  0
   10.6508  -19.3922   24.1185 C   0  0  0  0  0  0  0  0  0  0  0  0
   10.9092  -19.5992   22.8073 N   0  0  0  0  0  0  0  0  0  0  0  0
   11.8858  -18.7594   22.4889 C   0  0  0  0  0  0  0  0  0  0  0  0
   12.2561  -18.0131   23.5822 N   0  0  0  0  0  0  0  0  0  0  0  0
   10.3439  -17.1418   28.0124 C   0  0  0  0  0  0  0  0  0  0  0  0
   10.8214  -17.9811   28.8093 O   0  0  0  0  0  0  0  0  0  0  0  0
    9.9613  -15.9176   28.5086 O   0  0  0  0  0  0  0  0  0  0  0  0
  2  1  1  0
  2  3  1  0
  3  4  1  6
  5  3  1  0
  5  6  2  0
  7  8  1  0
  8  9  1  0
  9 10  1  0
 11 10  1  1
 11 12  1  0
 11 13  1  0
 12  5  1  0
 13 15  1  0
 13 14  2  0
 15 16  1  0
 16 23  1  0
 17 18  1  0
 16 17  1  6
 18 19  2  0
 19 20  1  0
 21 20  1  0
 22 18  1  0
 22 21  2  0
 23 24  2  0
 23 25  1  0
M  END
$$$$
