VEL.pdb
     RDKit          3D

 25 24  0  0  1  0  0  0  0  0999 V2000
   28.6309  -18.0135  -17.3549 C   0  0  0  0  0  0  0  0  0  0  0  0
   27.7894  -18.0279  -16.1238 C   0  0  2  0  0  0  0  0  0  0  0  0
   28.7270  -18.2748  -14.9426 C   0  0  0  0  0  0  0  0  0  0  0  0
   26.7415  -19.0816  -16.0882 C   0  0  2  0  0  0  0  0  0  0  0  0
   25.9859  -19.0650  -17.3037 N   0  0  0  0  0  0  0  0  0  0  0  0
   25.8119  -18.9444  -14.9375 C   0  0  0  0  0  0  0  0  0  0  0  0
   25.2938  -17.8565  -14.6068 O   0  0  0  0  0  0  0  0  0  0  0  0
   25.5084  -20.0943  -14.1942 N   0  0  0  0  0  0  0  0  0  0  0  0
   24.5326  -20.1257  -13.0867 C   0  0  1  0  0  0  0  0  0  0  0  0
   23.3072  -20.8457  -13.5703 C   0  0  0  0  0  0  0  0  0  0  0  0
   22.1732  -19.9268  -13.9075 C   0  0  0  0  0  0  0  0  0  0  0  0
   21.0260  -20.1144  -12.9840 C   0  0  0  0  0  0  0  0  0  0  0  0
   21.0122  -21.0979  -12.2253 O   0  0  0  0  0  0  0  0  0  0  0  0
   25.1381  -20.7107  -11.8813 C   0  0  0  0  0  0  0  0  0  0  0  0
   25.7029  -21.8434  -12.0185 O   0  0  0  0  0  0  0  0  0  0  0  0
   19.9994  -19.2063  -12.9774 O   0  0  0  0  0  0  0  0  0  0  0  0
   27.8951  -18.3391   -7.6815 C   0  0  0  0  0  0  0  0  0  0  0  0
   27.4959  -19.3446   -8.7652 C   0  0  1  0  0  0  0  0  0  0  0  0
   28.5968  -20.4077   -8.8660 C   0  0  0  0  0  0  0  0  0  0  0  0
   26.1868  -19.9699   -8.3995 C   0  0  0  0  0  0  0  0  0  0  0  0
   25.6929  -20.8987   -9.4557 C   0  0  2  0  0  0  0  0  0  0  0  0
   25.1636  -20.1433  -10.5925 N   0  0  0  0  0  0  0  0  0  0  0  0
   24.6509  -21.7820   -8.9362 C   0  0  0  0  0  0  0  0  0  0  0  0
   24.9182  -22.8877   -8.1404 O   0  0  0  0  0  0  0  0  0  0  0  0
   23.4306  -21.5154   -9.2384 O   0  0  0  0  0  0  0  0  0  0  0  0
  2  1  1  6
  2  3  1  0
  4  2  1  0
  4  5  1  6
  6  4  1  0
  6  7  2  0
  8  6  1  0
  9  8  1  0
  9 10  1  6
 11 10  1  0
 12 11  1  0
 13 12  2  0
 14  9  1  0
 15 14  2  0
 16 12  1  0
 18 17  1  1
 18 20  1  0
 19 18  1  0
 21 20  1  1
 21 23  1  0
 21 22  1  0
 22 14  1  0
 23 24  1  0
 25 23  2  0
M  END
$$$$
