VEL.pdb
     RDKit          3D

 25 24  0  0  1  0  0  0  0  0999 V2000
   17.8607  -15.9678  -16.4776 C   0  0  0  0  0  0  0  0  0  0  0  0
   18.5869  -14.7406  -16.9142 C   0  0  2  0  0  0  0  0  0  0  0  0
   19.2800  -14.1665  -15.6792 C   0  0  0  0  0  0  0  0  0  0  0  0
   17.7284  -13.6680  -17.4819 C   0  0  2  0  0  0  0  0  0  0  0  0
   17.1571  -14.0997  -18.7212 N   0  0  0  0  0  0  0  0  0  0  0  0
   18.4552  -12.3911  -17.7017 C   0  0  0  0  0  0  0  0  0  0  0  0
   19.3231  -12.2457  -18.5889 O   0  0  0  0  0  0  0  0  0  0  0  0
   18.1463  -11.3049  -16.8700 N   0  0  0  0  0  0  0  0  0  0  0  0
   18.7797   -9.9759  -16.9813 C   0  0  1  0  0  0  0  0  0  0  0  0
   17.7369   -8.9398  -16.6767 C   0  0  0  0  0  0  0  0  0  0  0  0
   18.2671   -7.5390  -16.7013 C   0  0  0  0  0  0  0  0  0  0  0  0
   17.1907   -6.5440  -16.4653 C   0  0  0  0  0  0  0  0  0  0  0  0
   16.1127   -6.6609  -17.0716 O   0  0  0  0  0  0  0  0  0  0  0  0
   19.9726   -9.8991  -16.1252 C   0  0  0  0  0  0  0  0  0  0  0  0
   19.8261  -10.2472  -14.9095 O   0  0  0  0  0  0  0  0  0  0  0  0
   17.3953   -5.5125  -15.5863 O   0  0  0  0  0  0  0  0  0  0  0  0
   24.5607  -11.0244  -14.0878 C   0  0  0  0  0  0  0  0  0  0  0  0
   24.7462   -9.9466  -15.1596 C   0  0  1  0  0  0  0  0  0  0  0  0
   26.0733  -10.2085  -15.8825 C   0  0  0  0  0  0  0  0  0  0  0  0
   23.5996  -10.0028  -16.1191 C   0  0  0  0  0  0  0  0  0  0  0  0
   22.3521   -9.4293  -15.5385 C   0  0  2  0  0  0  0  0  0  0  0  0
   21.2620   -9.4869  -16.5140 N   0  0  0  0  0  0  0  0  0  0  0  0
   22.5532   -8.0433  -15.1211 C   0  0  0  0  0  0  0  0  0  0  0  0
   22.9254   -7.6832  -13.8330 O   0  0  0  0  0  0  0  0  0  0  0  0
   22.3718   -7.1193  -15.9958 O   0  0  0  0  0  0  0  0  0  0  0  0
  2  1  1  1
  2  3  1  0
  4  2  1  0
  4  5  1  6
  6  4  1  0
  6  7  2  0
  8  6  1  0
  9  8  1  0
  9 10  1  1
 11 10  1  0
 12 11  1  0
 13 12  2  0
 14  9  1  0
 15 14  2  0
 16 12  1  0
 18 17  1  1
 18 20  1  0
 19 18  1  0
 21 20  1  6
 21 23  1  0
 21 22  1  0
 22 14  1  0
 23 24  1  0
 25 23  2  0
M  END
$$$$
