VEL.pdb
     RDKit          3D

 25 24  0  0  1  0  0  0  0  0999 V2000
   15.4406  -12.4078  -17.4569 C   0  0  0  0  0  0  0  0  0  0  0  0
   16.2045  -12.6857  -16.2066 C   0  0  2  0  0  0  0  0  0  0  0  0
   15.2239  -12.5495  -15.0425 C   0  0  0  0  0  0  0  0  0  0  0  0
   17.3397  -11.7631  -15.9427 C   0  0  2  0  0  0  0  0  0  0  0  0
   18.0735  -12.2022  -14.7949 N   0  0  0  0  0  0  0  0  0  0  0  0
   16.9140  -10.3549  -15.7363 C   0  0  0  0  0  0  0  0  0  0  0  0
   16.2843   -9.7012  -16.5951 O   0  0  0  0  0  0  0  0  0  0  0  0
   17.2389   -9.7395  -14.5187 N   0  0  0  0  0  0  0  0  0  0  0  0
   16.7929   -8.3853  -14.1352 C   0  0  1  0  0  0  0  0  0  0  0  0
   16.8247   -8.2949  -12.6370 C   0  0  0  0  0  0  0  0  0  0  0  0
   16.4707   -6.9355  -12.1167 C   0  0  0  0  0  0  0  0  0  0  0  0
   16.6318   -6.8565  -10.6429 C   0  0  0  0  0  0  0  0  0  0  0  0
   17.0166   -7.8600  -10.0198 O   0  0  0  0  0  0  0  0  0  0  0  0
   17.6004   -7.3632  -14.8172 C   0  0  0  0  0  0  0  0  0  0  0  0
   18.8635   -7.5186  -14.7850 O   0  0  0  0  0  0  0  0  0  0  0  0
   16.3560   -5.6846   -9.9880 O   0  0  0  0  0  0  0  0  0  0  0  0
   16.8013   -5.2039  -19.7768 C   0  0  0  0  0  0  0  0  0  0  0  0
   17.4954   -5.7871  -18.5427 C   0  0  1  0  0  0  0  0  0  0  0  0
   18.9476   -6.1117  -18.9143 C   0  0  0  0  0  0  0  0  0  0  0  0
   17.4433   -4.7886  -17.4297 C   0  0  0  0  0  0  0  0  0  0  0  0
   18.0463   -5.3160  -16.1726 C   0  0  2  0  0  0  0  0  0  0  0  0
   17.1195   -6.2342  -15.5083 N   0  0  0  0  0  0  0  0  0  0  0  0
   18.3897   -4.2305  -15.2563 C   0  0  0  0  0  0  0  0  0  0  0  0
   19.5713   -3.5069  -15.3432 O   0  0  0  0  0  0  0  0  0  0  0  0
   17.5514   -3.9406  -14.3263 O   0  0  0  0  0  0  0  0  0  0  0  0
  2  1  1  6
  2  3  1  0
  4  2  1  0
  4  5  1  1
  6  4  1  0
  6  7  2  0
  8  6  1  0
  9  8  1  0
  9 10  1  1
 11 10  1  0
 12 11  1  0
 13 12  2  0
 14  9  1  0
 15 14  2  0
 16 12  1  0
 18 17  1  6
 18 20  1  0
 19 18  1  0
 21 20  1  6
 21 23  1  0
 21 22  1  0
 22 14  1  0
 23 24  1  0
 25 23  2  0
M  END
$$$$
