VEL.pdb
     RDKit          3D

 25 24  0  0  1  0  0  0  0  0999 V2000
   26.7910  -18.9410  -15.8893 C   0  0  0  0  0  0  0  0  0  0  0  0
   28.1031  -18.7978  -15.1952 C   0  0  2  0  0  0  0  0  0  0  0  0
   29.1884  -19.1572  -16.2092 C   0  0  0  0  0  0  0  0  0  0  0  0
   28.2903  -19.6779  -14.0120 C   0  0  2  0  0  0  0  0  0  0  0  0
   28.2224  -21.0523  -14.4059 N   0  0  0  0  0  0  0  0  0  0  0  0
   27.2958  -19.4322  -12.9361 C   0  0  0  0  0  0  0  0  0  0  0  0
   27.1090  -18.3071  -12.4257 O   0  0  0  0  0  0  0  0  0  0  0  0
   26.5370  -20.5194  -12.4788 N   0  0  0  0  0  0  0  0  0  0  0  0
   25.4971  -20.4175  -11.4357 C   0  0  1  0  0  0  0  0  0  0  0  0
   24.3243  -21.2483  -11.8692 C   0  0  0  0  0  0  0  0  0  0  0  0
   23.1584  -21.1639  -10.9323 C   0  0  0  0  0  0  0  0  0  0  0  0
   22.0421  -20.3811  -11.5198 C   0  0  0  0  0  0  0  0  0  0  0  0
   22.0377  -20.1529  -12.7410 O   0  0  0  0  0  0  0  0  0  0  0  0
   26.0448  -20.7881  -10.1225 C   0  0  0  0  0  0  0  0  0  0  0  0
   26.7754  -21.8300  -10.0822 O   0  0  0  0  0  0  0  0  0  0  0  0
   21.0333  -19.9205  -10.7143 O   0  0  0  0  0  0  0  0  0  0  0  0
   28.5455  -18.3922   -5.5065 C   0  0  0  0  0  0  0  0  0  0  0  0
   28.2102  -19.5721   -6.4232 C   0  0  1  0  0  0  0  0  0  0  0  0
   28.6192  -20.8675   -5.7114 C   0  0  0  0  0  0  0  0  0  0  0  0
   26.7428  -19.5681   -6.7153 C   0  0  0  0  0  0  0  0  0  0  0  0
   26.3525  -20.6622   -7.6493 C   0  0  2  0  0  0  0  0  0  0  0  0
   25.8501  -20.1049   -8.9064 N   0  0  0  0  0  0  0  0  0  0  0  0
   25.3275  -21.5200   -7.0581 C   0  0  0  0  0  0  0  0  0  0  0  0
   24.0281  -21.5958   -7.5408 O   0  0  0  0  0  0  0  0  0  0  0  0
   25.6540  -22.2333   -6.0402 O   0  0  0  0  0  0  0  0  0  0  0  0
  2  1  1  6
  2  3  1  0
  4  2  1  0
  4  5  1  6
  6  4  1  0
  6  7  2  0
  8  6  1  0
  9  8  1  0
  9 10  1  6
 11 10  1  0
 12 11  1  0
 13 12  2  0
 14  9  1  0
 15 14  2  0
 16 12  1  0
 18 17  1  1
 18 20  1  0
 19 18  1  0
 21 20  1  1
 21 23  1  0
 21 22  1  0
 22 14  1  0
 23 24  1  0
 25 23  2  0
M  END
$$$$
