VEL.pdb
     RDKit          3D

 25 24  0  0  1  0  0  0  0  0999 V2000
   16.3922  -11.3814  -19.9691 C   0  0  0  0  0  0  0  0  0  0  0  0
   17.2962  -10.2396  -19.6480 C   0  0  2  0  0  0  0  0  0  0  0  0
   18.7298  -10.7450  -19.8050 C   0  0  0  0  0  0  0  0  0  0  0  0
   17.1635   -9.6980  -18.2701 C   0  0  2  0  0  0  0  0  0  0  0  0
   15.8392   -9.1952  -18.0648 N   0  0  0  0  0  0  0  0  0  0  0  0
   18.1428   -8.6229  -17.9667 C   0  0  0  0  0  0  0  0  0  0  0  0
   19.3574   -8.7094  -18.2470 O   0  0  0  0  0  0  0  0  0  0  0  0
   17.6729   -7.4616  -17.3361 N   0  0  0  0  0  0  0  0  0  0  0  0
   18.5398   -6.3406  -16.9222 C   0  0  1  0  0  0  0  0  0  0  0  0
   17.6621   -5.1536  -16.6491 C   0  0  0  0  0  0  0  0  0  0  0  0
   17.1886   -4.4668  -17.8933 C   0  0  0  0  0  0  0  0  0  0  0  0
   15.8325   -4.9253  -18.2870 C   0  0  0  0  0  0  0  0  0  0  0  0
   15.6702   -5.4557  -19.3986 O   0  0  0  0  0  0  0  0  0  0  0  0
   19.3884   -6.7354  -15.7882 C   0  0  0  0  0  0  0  0  0  0  0  0
   18.8007   -7.2755  -14.7965 O   0  0  0  0  0  0  0  0  0  0  0  0
   14.7792   -4.7600  -17.4258 O   0  0  0  0  0  0  0  0  0  0  0  0
   22.1086   -9.2733  -12.5824 C   0  0  0  0  0  0  0  0  0  0  0  0
   23.1054   -8.6584  -13.5689 C   0  0  1  0  0  0  0  0  0  0  0  0
   24.1351   -9.7307  -13.9457 C   0  0  0  0  0  0  0  0  0  0  0  0
   22.3692   -8.1810  -14.7807 C   0  0  0  0  0  0  0  0  0  0  0  0
   21.4980   -7.0085  -14.4836 C   0  0  2  0  0  0  0  0  0  0  0  0
   20.7852   -6.5839  -15.6897 N   0  0  0  0  0  0  0  0  0  0  0  0
   22.2802   -5.8878  -13.9659 C   0  0  0  0  0  0  0  0  0  0  0  0
   22.6164   -4.7780  -14.7291 O   0  0  0  0  0  0  0  0  0  0  0  0
   22.6739   -5.9428  -12.7437 O   0  0  0  0  0  0  0  0  0  0  0  0
  2  1  1  1
  2  3  1  0
  4  2  1  0
  4  5  1  6
  6  4  1  0
  6  7  2  0
  8  6  1  0
  9  8  1  0
  9 10  1  1
 11 10  1  0
 12 11  1  0
 13 12  2  0
 14  9  1  0
 15 14  2  0
 16 12  1  0
 18 17  1  1
 18 20  1  0
 19 18  1  0
 21 20  1  6
 21 23  1  0
 21 22  1  0
 22 14  1  0
 23 24  1  0
 25 23  2  0
M  END
$$$$
