VEL.pdb
     RDKit          3D

 25 24  0  0  1  0  0  0  0  0999 V2000
   24.2507  -15.1439  -19.2936 C   0  0  0  0  0  0  0  0  0  0  0  0
   23.5606  -16.3933  -18.8614 C   0  0  2  0  0  0  0  0  0  0  0  0
   23.0412  -16.1514  -17.4447 C   0  0  0  0  0  0  0  0  0  0  0  0
   24.4190  -17.6061  -18.8198 C   0  0  2  0  0  0  0  0  0  0  0  0
   24.9512  -17.8767  -20.1207 N   0  0  0  0  0  0  0  0  0  0  0  0
   23.7050  -18.8123  -18.3276 C   0  0  0  0  0  0  0  0  0  0  0  0
   22.6213  -19.2059  -18.8094 O   0  0  0  0  0  0  0  0  0  0  0  0
   24.2814  -19.5354  -17.2732 N   0  0  0  0  0  0  0  0  0  0  0  0
   23.6774  -20.7424  -16.6749 C   0  0  1  0  0  0  0  0  0  0  0  0
   24.7504  -21.7854  -16.5544 C   0  0  0  0  0  0  0  0  0  0  0  0
   24.3078  -23.0094  -15.8130 C   0  0  0  0  0  0  0  0  0  0  0  0
   25.3693  -24.0473  -15.7906 C   0  0  0  0  0  0  0  0  0  0  0  0
   26.4352  -23.8382  -16.3934 O   0  0  0  0  0  0  0  0  0  0  0  0
   23.0134  -20.4124  -15.4053 C   0  0  0  0  0  0  0  0  0  0  0  0
   23.6247  -19.6043  -14.6346 O   0  0  0  0  0  0  0  0  0  0  0  0
   25.1643  -25.2187  -15.1094 O   0  0  0  0  0  0  0  0  0  0  0  0
   19.0111  -17.7242  -12.8948 C   0  0  0  0  0  0  0  0  0  0  0  0
   20.4463  -18.2101  -12.6732 C   0  0  1  0  0  0  0  0  0  0  0  0
   20.4428  -19.2102  -11.5105 C   0  0  0  0  0  0  0  0  0  0  0  0
   20.9474  -18.8556  -13.9266 C   0  0  0  0  0  0  0  0  0  0  0  0
   21.1340  -20.3258  -13.7659 C   0  0  2  0  0  0  0  0  0  0  0  0
   21.7674  -20.8929  -14.9577 N   0  0  0  0  0  0  0  0  0  0  0  0
   19.8571  -20.9972  -13.5323 C   0  0  0  0  0  0  0  0  0  0  0  0
   19.3756  -21.2961  -12.2650 O   0  0  0  0  0  0  0  0  0  0  0  0
   19.1540  -21.3255  -14.5568 O   0  0  0  0  0  0  0  0  0  0  0  0
  2  1  1  1
  2  3  1  0
  4  2  1  0
  4  5  1  6
  6  4  1  0
  6  7  2  0
  8  6  1  0
  9  8  1  0
  9 10  1  1
 11 10  1  0
 12 11  1  0
 13 12  2  0
 14  9  1  0
 15 14  2  0
 16 12  1  0
 18 17  1  6
 18 20  1  0
 19 18  1  0
 21 20  1  6
 21 23  1  0
 21 22  1  0
 22 14  1  0
 23 24  1  0
 25 23  2  0
M  END
$$$$
