VEL.pdb
     RDKit          3D

 25 24  0  0  1  0  0  0  0  0999 V2000
   16.5254  -32.8822   -5.1721 C   0  0  0  0  0  0  0  0  0  0  0  0
   17.9053  -32.6522   -5.6886 C   0  0  2  0  0  0  0  0  0  0  0  0
   18.7427  -32.1394   -4.5177 C   0  0  0  0  0  0  0  0  0  0  0  0
   18.0107  -31.6518   -6.7830 C   0  0  2  0  0  0  0  0  0  0  0  0
   18.8281  -32.1640   -7.8404 N   0  0  0  0  0  0  0  0  0  0  0  0
   18.5612  -30.3474   -6.3331 C   0  0  0  0  0  0  0  0  0  0  0  0
   19.7767  -30.1616   -6.1109 O   0  0  0  0  0  0  0  0  0  0  0  0
   17.6675  -29.2818   -6.1518 N   0  0  0  0  0  0  0  0  0  0  0  0
   18.0823  -27.9101   -5.7969 C   0  0  1  0  0  0  0  0  0  0  0  0
   17.7194  -27.0069   -6.9398 C   0  0  0  0  0  0  0  0  0  0  0  0
   18.0796  -25.5727   -6.7004 C   0  0  0  0  0  0  0  0  0  0  0  0
   17.6082  -24.7001   -7.8053 C   0  0  0  0  0  0  0  0  0  0  0  0
   16.4054  -24.7105   -8.1158 O   0  0  0  0  0  0  0  0  0  0  0  0
   17.5000  -27.5120   -4.5068 C   0  0  0  0  0  0  0  0  0  0  0  0
   16.2697  -27.7853   -4.3272 O   0  0  0  0  0  0  0  0  0  0  0  0
   18.4990  -23.8965   -8.4680 O   0  0  0  0  0  0  0  0  0  0  0  0
   20.0720  -26.9865    0.4795 C   0  0  0  0  0  0  0  0  0  0  0  0
   19.1544  -27.3730   -0.6838 C   0  0  1  0  0  0  0  0  0  0  0  0
   18.1958  -28.4676   -0.1990 C   0  0  0  0  0  0  0  0  0  0  0  0
   18.3953  -26.1653   -1.1355 C   0  0  0  0  0  0  0  0  0  0  0  0
   17.4398  -26.4806   -2.2353 C   0  0  2  0  0  0  0  0  0  0  0  0
   18.1656  -26.8661   -3.4468 N   0  0  0  0  0  0  0  0  0  0  0  0
   16.5801  -25.3365   -2.5314 C   0  0  0  0  0  0  0  0  0  0  0  0
   15.4710  -25.0005   -1.7669 O   0  0  0  0  0  0  0  0  0  0  0  0
   16.8717  -24.6135   -3.5531 O   0  0  0  0  0  0  0  0  0  0  0  0
  2  1  1  1
  2  3  1  0
  4  2  1  0
  4  5  1  6
  6  4  1  0
  6  7  2  0
  8  6  1  0
  9  8  1  0
  9 10  1  6
 11 10  1  0
 12 11  1  0
 13 12  2  0
 14  9  1  0
 15 14  2  0
 16 12  1  0
 18 17  1  1
 18 20  1  0
 19 18  1  0
 21 20  1  1
 21 23  1  0
 21 22  1  0
 22 14  1  0
 23 24  1  0
 25 23  2  0
M  END
$$$$
