VEL.pdb
     RDKit          3D

 25 24  0  0  1  0  0  0  0  0999 V2000
   12.5196   -9.0119  -11.0297 C   0  0  0  0  0  0  0  0  0  0  0  0
   13.3379  -10.2308  -10.7678 C   0  0  2  0  0  0  0  0  0  0  0  0
   12.8521  -10.8212   -9.4447 C   0  0  0  0  0  0  0  0  0  0  0  0
   14.7997   -9.9936  -10.6395 C   0  0  2  0  0  0  0  0  0  0  0  0
   15.0605   -9.1139   -9.5409 N   0  0  0  0  0  0  0  0  0  0  0  0
   15.4114   -9.4279  -11.8694 C   0  0  0  0  0  0  0  0  0  0  0  0
   15.4224  -10.0311  -12.9637 O   0  0  0  0  0  0  0  0  0  0  0  0
   16.0013   -8.1581  -11.7885 N   0  0  0  0  0  0  0  0  0  0  0  0
   16.5768   -7.4418  -12.9441 C   0  0  1  0  0  0  0  0  0  0  0  0
   15.8904   -6.1111  -13.0520 C   0  0  0  0  0  0  0  0  0  0  0  0
   14.5677   -6.1805  -13.7516 C   0  0  0  0  0  0  0  0  0  0  0  0
   13.9995   -4.8279  -13.9796 C   0  0  0  0  0  0  0  0  0  0  0  0
   13.0333   -4.6974  -14.7496 O   0  0  0  0  0  0  0  0  0  0  0  0
   18.0396   -7.3565  -12.8224 C   0  0  0  0  0  0  0  0  0  0  0  0
   18.5075   -7.2178  -11.6466 O   0  0  0  0  0  0  0  0  0  0  0  0
   14.5429   -3.7430  -13.3424 O   0  0  0  0  0  0  0  0  0  0  0  0
   23.1347   -9.8894  -13.2483 C   0  0  0  0  0  0  0  0  0  0  0  0
   22.5688   -8.5150  -13.6166 C   0  0  1  0  0  0  0  0  0  0  0  0
   23.2179   -8.0622  -14.9303 C   0  0  0  0  0  0  0  0  0  0  0  0
   21.0836   -8.6173  -13.7665 C   0  0  0  0  0  0  0  0  0  0  0  0
   20.4097   -7.2980  -13.6010 C   0  0  2  0  0  0  0  0  0  0  0  0
   18.9763   -7.4198  -13.8723 N   0  0  0  0  0  0  0  0  0  0  0  0
   20.9863   -6.2953  -14.4943 C   0  0  0  0  0  0  0  0  0  0  0  0
   22.0665   -5.4964  -14.1447 O   0  0  0  0  0  0  0  0  0  0  0  0
   20.4591   -6.1518  -15.6576 O   0  0  0  0  0  0  0  0  0  0  0  0
  2  1  1  1
  2  3  1  0
  4  2  1  0
  4  5  1  1
  6  4  1  0
  6  7  2  0
  8  6  1  0
  9  8  1  0
  9 10  1  1
 11 10  1  0
 12 11  1  0
 13 12  2  0
 14  9  1  0
 15 14  2  0
 16 12  1  0
 18 17  1  6
 18 20  1  0
 19 18  1  0
 21 20  1  6
 21 23  1  0
 21 22  1  0
 22 14  1  0
 23 24  1  0
 25 23  2  0
M  END
$$$$
