FHN.pdb
     RDKit          3D

 30 31  0  0  1  0  0  0  0  0999 V2000
   21.0748  -15.1022  -17.5865 N   0  0  0  0  0  0  0  0  0  0  0  0
   20.5617  -13.8986  -18.1641 C   0  0  1  0  0  0  0  0  0  0  0  0
   19.2970  -13.4833  -17.3986 C   0  0  0  0  0  0  0  0  0  0  0  0
   18.2295  -14.4442  -17.7126 C   0  0  0  0  0  0  0  0  0  0  0  0
   17.6241  -14.4472  -18.9463 C   0  0  0  0  0  0  0  0  0  0  0  0
   16.6125  -15.3534  -19.2509 C   0  0  0  0  0  0  0  0  0  0  0  0
   16.2066  -16.2646  -18.3054 C   0  0  0  0  0  0  0  0  0  0  0  0
   16.7892  -16.2813  -17.0794 C   0  0  0  0  0  0  0  0  0  0  0  0
   17.7892  -15.3832  -16.7826 C   0  0  0  0  0  0  0  0  0  0  0  0
   21.5308  -12.7959  -17.9847 C   0  0  0  0  0  0  0  0  0  0  0  0
   22.3462  -12.8690  -17.0416 O   0  0  0  0  0  0  0  0  0  0  0  0
   21.4928  -11.7107  -18.8838 N   0  0  0  0  0  0  0  0  0  0  0  0
   22.4387  -10.5803  -18.7122 C   0  0  1  0  0  0  0  0  0  0  0  0
   22.9639  -10.1776  -20.0332 C   0  0  0  0  0  0  0  0  0  0  0  0
   23.9834  -11.0861  -20.5787 C   0  0  0  0  0  0  0  0  0  0  0  0
   24.5720  -12.1726  -19.9108 C   0  0  0  0  0  0  0  0  0  0  0  0
   25.4611  -12.7834  -20.7004 N   0  0  0  0  0  0  0  0  0  0  0  0
   25.4580  -12.1129  -21.8635 C   0  0  0  0  0  0  0  0  0  0  0  0
   24.5773  -11.1037  -21.7867 N   0  0  0  0  0  0  0  0  0  0  0  0
   21.7932   -9.5761  -17.8871 C   0  0  0  0  0  0  0  0  0  0  0  0
   20.6126   -9.1966  -18.2589 O   0  0  0  0  0  0  0  0  0  0  0  0
   20.1427   -6.1964  -14.1954 N   0  0  0  0  0  0  0  0  0  0  0  0
   20.7322   -7.3815  -13.6863 C   0  0  0  0  0  0  0  0  0  0  0  0
   20.6808   -7.5932  -12.4612 O   0  0  0  0  0  0  0  0  0  0  0  0
   21.3845   -8.3272  -14.5948 C   0  0  0  0  0  0  0  0  0  0  0  0
   21.4743   -7.9153  -16.0285 C   0  0  2  0  0  0  0  0  0  0  0  0
   22.2497   -8.9438  -16.7237 N   0  0  0  0  0  0  0  0  0  0  0  0
   22.0872   -6.6054  -16.2780 C   0  0  0  0  0  0  0  0  0  0  0  0
   21.3973   -5.4113  -16.4184 O   0  0  0  0  0  0  0  0  0  0  0  0
   23.3350   -6.5207  -16.3789 O   0  0  0  0  0  0  0  0  0  0  0  0
  2  1  1  1
  2 10  1  0
  3  2  1  0
  3  4  1  0
  4  5  2  0
  4  9  1  0
  5  6  1  0
  6  7  2  0
  8  7  1  0
  9  8  2  0
 10 11  2  0
 12 10  1  0
 12 13  1  0
 13 20  1  0
 13 14  1  6
 14 15  1  0
 15 16  2  0
 15 19  1  0
 16 17  1  0
 17 18  1  0
 19 18  2  0
 20 21  2  0
 22 23  1  0
 23 24  2  0
 25 23  1  0
 26 25  1  1
 26 28  1  0
 27 26  1  0
 27 20  1  0
 28 29  1  0
 30 28  2  0
M  END
$$$$
