FHN.pdb
     RDKit          3D

 30 31  0  0  1  0  0  0  0  0999 V2000
   30.4484  -12.4842  -17.4554 N   0  0  0  0  0  0  0  0  0  0  0  0
   29.5280  -12.9129  -16.4481 C   0  0  1  0  0  0  0  0  0  0  0  0
   29.1499  -11.7054  -15.5782 C   0  0  0  0  0  0  0  0  0  0  0  0
   28.8430  -10.5739  -16.4654 C   0  0  0  0  0  0  0  0  0  0  0  0
   27.5424  -10.2371  -16.7543 C   0  0  0  0  0  0  0  0  0  0  0  0
   27.2439   -9.1676  -17.5937 C   0  0  0  0  0  0  0  0  0  0  0  0
   28.2636   -8.4308  -18.1472 C   0  0  0  0  0  0  0  0  0  0  0  0
   29.5565   -8.7440  -17.8771 C   0  0  0  0  0  0  0  0  0  0  0  0
   29.8469   -9.8025  -17.0464 C   0  0  0  0  0  0  0  0  0  0  0  0
   28.2711  -13.3781  -17.0735 C   0  0  0  0  0  0  0  0  0  0  0  0
   28.1721  -13.3273  -18.3174 O   0  0  0  0  0  0  0  0  0  0  0  0
   27.2397  -13.8575  -16.2407 N   0  0  0  0  0  0  0  0  0  0  0  0
   25.9609  -14.3116  -16.8412 C   0  0  1  0  0  0  0  0  0  0  0  0
   25.7806  -15.7536  -16.5745 C   0  0  0  0  0  0  0  0  0  0  0  0
   24.5701  -16.3311  -17.1776 C   0  0  0  0  0  0  0  0  0  0  0  0
   23.6274  -15.6500  -17.9652 C   0  0  0  0  0  0  0  0  0  0  0  0
   22.6502  -16.4777  -18.3490 N   0  0  0  0  0  0  0  0  0  0  0  0
   22.9436  -17.6784  -17.8247 C   0  0  0  0  0  0  0  0  0  0  0  0
   24.0868  -17.5866  -17.1285 N   0  0  0  0  0  0  0  0  0  0  0  0
   24.9177  -13.3934  -16.4235 C   0  0  0  0  0  0  0  0  0  0  0  0
   23.7327  -13.6140  -16.8958 O   0  0  0  0  0  0  0  0  0  0  0  0
   21.9693   -9.3370  -14.8168 N   0  0  0  0  0  0  0  0  0  0  0  0
   23.3402   -8.9921  -14.9295 C   0  0  0  0  0  0  0  0  0  0  0  0
   23.6687   -7.8011  -14.7810 O   0  0  0  0  0  0  0  0  0  0  0  0
   24.3375  -10.0262  -15.2151 C   0  0  0  0  0  0  0  0  0  0  0  0
   23.8340  -11.4312  -15.2878 C   0  0  2  0  0  0  0  0  0  0  0  0
   24.9877  -12.2877  -15.5666 N   0  0  0  0  0  0  0  0  0  0  0  0
   22.7967  -11.6853  -16.2945 C   0  0  0  0  0  0  0  0  0  0  0  0
   21.5681  -12.2778  -16.0476 O   0  0  0  0  0  0  0  0  0  0  0  0
   23.0037  -11.3529  -17.4866 O   0  0  0  0  0  0  0  0  0  0  0  0
  2  1  1  6
  2 10  1  0
  3  2  1  0
  3  4  1  0
  4  5  2  0
  4  9  1  0
  5  6  1  0
  6  7  2  0
  8  7  1  0
  9  8  2  0
 10 11  2  0
 12 10  1  0
 12 13  1  0
 13 20  1  0
 13 14  1  1
 14 15  1  0
 15 16  2  0
 15 19  1  0
 16 17  1  0
 17 18  1  0
 19 18  2  0
 20 21  2  0
 22 23  1  0
 23 24  2  0
 25 23  1  0
 26 25  1  6
 26 28  1  0
 27 26  1  0
 27 20  1  0
 28 29  1  0
 30 28  2  0
M  END
$$$$
