FHN.pdb
     RDKit          3D

 30 31  0  0  1  0  0  0  0  0999 V2000
   19.0928  -14.8993  -18.9221 N   0  0  0  0  0  0  0  0  0  0  0  0
   20.0784  -14.0635  -19.5350 C   0  0  1  0  0  0  0  0  0  0  0  0
   19.4005  -13.2140  -20.6197 C   0  0  0  0  0  0  0  0  0  0  0  0
   18.0654  -12.8292  -20.1391 C   0  0  0  0  0  0  0  0  0  0  0  0
   17.8694  -11.6395  -19.4797 C   0  0  0  0  0  0  0  0  0  0  0  0
   16.6085  -11.2684  -19.0213 C   0  0  0  0  0  0  0  0  0  0  0  0
   15.5357  -12.1022  -19.2282 C   0  0  0  0  0  0  0  0  0  0  0  0
   15.7041  -13.2828  -19.8767 C   0  0  0  0  0  0  0  0  0  0  0  0
   16.9527  -13.6457  -20.3283 C   0  0  0  0  0  0  0  0  0  0  0  0
   20.6209  -13.1082  -18.5447 C   0  0  0  0  0  0  0  0  0  0  0  0
   20.0166  -12.9688  -17.4607 O   0  0  0  0  0  0  0  0  0  0  0  0
   21.7944  -12.3963  -18.8660 N   0  0  0  0  0  0  0  0  0  0  0  0
   22.4235  -11.5183  -17.8486 C   0  0  1  0  0  0  0  0  0  0  0  0
   23.8817  -11.4674  -18.0813 C   0  0  0  0  0  0  0  0  0  0  0  0
   24.6216  -10.6657  -17.0953 C   0  0  0  0  0  0  0  0  0  0  0  0
   25.1108  -11.1144  -15.8574 C   0  0  0  0  0  0  0  0  0  0  0  0
   25.7345  -10.1237  -15.2119 N   0  0  0  0  0  0  0  0  0  0  0  0
   25.6573   -9.0455  -16.0082 C   0  0  0  0  0  0  0  0  0  0  0  0
   24.9942   -9.3725  -17.1278 N   0  0  0  0  0  0  0  0  0  0  0  0
   21.6832  -10.2707  -17.8126 C   0  0  0  0  0  0  0  0  0  0  0  0
   21.1542   -9.8820  -18.9284 O   0  0  0  0  0  0  0  0  0  0  0  0
   19.1870   -5.7698  -16.4944 N   0  0  0  0  0  0  0  0  0  0  0  0
   19.2008   -6.7104  -15.4332 C   0  0  0  0  0  0  0  0  0  0  0  0
   18.5384   -6.4626  -14.4093 O   0  0  0  0  0  0  0  0  0  0  0  0
   19.9824   -7.9432  -15.5534 C   0  0  0  0  0  0  0  0  0  0  0  0
   20.6367   -8.1876  -16.8745 C   0  0  2  0  0  0  0  0  0  0  0  0
   21.4376   -9.4052  -16.7391 N   0  0  0  0  0  0  0  0  0  0  0  0
   21.4942   -7.1051  -17.3710 C   0  0  0  0  0  0  0  0  0  0  0  0
   21.0634   -6.0198  -18.1182 O   0  0  0  0  0  0  0  0  0  0  0  0
   22.7231   -7.1305  -17.1186 O   0  0  0  0  0  0  0  0  0  0  0  0
  2  1  1  1
  2 10  1  0
  3  2  1  0
  3  4  1  0
  4  5  2  0
  4  9  1  0
  5  6  1  0
  6  7  2  0
  8  7  1  0
  9  8  2  0
 10 11  2  0
 12 10  1  0
 12 13  1  0
 13 20  1  0
 13 14  1  6
 14 15  1  0
 15 16  2  0
 15 19  1  0
 16 17  1  0
 17 18  1  0
 19 18  2  0
 20 21  2  0
 22 23  1  0
 23 24  2  0
 25 23  1  0
 26 25  1  1
 26 28  1  0
 27 26  1  0
 27 20  1  0
 28 29  1  0
 30 28  2  0
M  END
$$$$
