FHN.pdb
     RDKit          3D

 30 31  0  0  1  0  0  0  0  0999 V2000
   28.2711  -20.8006  -11.0867 N   0  0  0  0  0  0  0  0  0  0  0  0
   27.0259  -21.4956  -11.1969 C   0  0  1  0  0  0  0  0  0  0  0  0
   26.5019  -21.7973   -9.7855 C   0  0  0  0  0  0  0  0  0  0  0  0
   27.3206  -21.0514   -8.8186 C   0  0  0  0  0  0  0  0  0  0  0  0
   26.7654  -20.0689   -8.0345 C   0  0  0  0  0  0  0  0  0  0  0  0
   27.5341  -19.3581   -7.1172 C   0  0  0  0  0  0  0  0  0  0  0  0
   28.8734  -19.6387   -6.9882 C   0  0  0  0  0  0  0  0  0  0  0  0
   29.4450  -20.6046   -7.7518 C   0  0  0  0  0  0  0  0  0  0  0  0
   28.6809  -21.3050   -8.6576 C   0  0  0  0  0  0  0  0  0  0  0  0
   26.0134  -20.6255  -11.8335 C   0  0  0  0  0  0  0  0  0  0  0  0
   25.9570  -19.4272  -11.4863 O   0  0  0  0  0  0  0  0  0  0  0  0
   25.1560  -21.1847  -12.8027 N   0  0  0  0  0  0  0  0  0  0  0  0
   24.2762  -20.2989  -13.6048 C   0  0  1  0  0  0  0  0  0  0  0  0
   24.8308  -20.1631  -14.9675 C   0  0  0  0  0  0  0  0  0  0  0  0
   26.1038  -19.4297  -15.0296 C   0  0  0  0  0  0  0  0  0  0  0  0
   27.3839  -19.9947  -15.1518 C   0  0  0  0  0  0  0  0  0  0  0  0
   28.3186  -19.0393  -15.1771 N   0  0  0  0  0  0  0  0  0  0  0  0
   27.6673  -17.8698  -15.0733 C   0  0  0  0  0  0  0  0  0  0  0  0
   26.3496  -18.1069  -14.9858 N   0  0  0  0  0  0  0  0  0  0  0  0
   22.9109  -20.7676  -13.4554 C   0  0  0  0  0  0  0  0  0  0  0  0
   22.7491  -22.0477  -13.3507 O   0  0  0  0  0  0  0  0  0  0  0  0
   18.0633  -21.7206  -11.1668 N   0  0  0  0  0  0  0  0  0  0  0  0
   18.3927  -20.4711  -11.7509 C   0  0  0  0  0  0  0  0  0  0  0  0
   17.4701  -19.6896  -12.0451 O   0  0  0  0  0  0  0  0  0  0  0  0
   19.7934  -20.1209  -11.9970 C   0  0  0  0  0  0  0  0  0  0  0  0
   20.4090  -20.6810  -13.2381 C   0  0  2  0  0  0  0  0  0  0  0  0
   21.7153  -20.0403  -13.3972 N   0  0  0  0  0  0  0  0  0  0  0  0
   19.6348  -20.4989  -14.4716 C   0  0  0  0  0  0  0  0  0  0  0  0
   18.6554  -21.3621  -14.9380 O   0  0  0  0  0  0  0  0  0  0  0  0
   19.8497  -19.4917  -15.1883 O   0  0  0  0  0  0  0  0  0  0  0  0
  2  1  1  1
  2 10  1  0
  3  2  1  0
  3  4  1  0
  4  5  2  0
  4  9  1  0
  5  6  1  0
  6  7  2  0
  8  7  1  0
  9  8  2  0
 10 11  2  0
 12 10  1  0
 12 13  1  0
 13 20  1  0
 13 14  1  6
 14 15  1  0
 15 16  2  0
 15 19  1  0
 16 17  1  0
 17 18  1  0
 19 18  2  0
 20 21  2  0
 22 23  1  0
 23 24  2  0
 25 23  1  0
 26 25  1  1
 26 28  1  0
 27 26  1  0
 27 20  1  0
 28 29  1  0
 30 28  2  0
M  END
$$$$
