FHN.pdb
     RDKit          3D

 30 31  0  0  1  0  0  0  0  0999 V2000
   21.6359   -8.9638  -16.5528 N   0  0  0  0  0  0  0  0  0  0  0  0
   21.0863   -9.0105  -15.2332 C   0  0  1  0  0  0  0  0  0  0  0  0
   21.9976   -8.2121  -14.2899 C   0  0  0  0  0  0  0  0  0  0  0  0
   23.3807   -8.6714  -14.4841 C   0  0  0  0  0  0  0  0  0  0  0  0
   23.8133   -9.8560  -13.9383 C   0  0  0  0  0  0  0  0  0  0  0  0
   25.1213  -10.2973  -14.1172 C   0  0  0  0  0  0  0  0  0  0  0  0
   26.0015   -9.5394  -14.8520 C   0  0  0  0  0  0  0  0  0  0  0  0
   25.5979   -8.3654  -15.4010 C   0  0  0  0  0  0  0  0  0  0  0  0
   24.3035   -7.9330  -15.2214 C   0  0  0  0  0  0  0  0  0  0  0  0
   19.7723   -8.3323  -15.2061 C   0  0  0  0  0  0  0  0  0  0  0  0
   19.3907   -7.7348  -16.2343 O   0  0  0  0  0  0  0  0  0  0  0  0
   19.0079   -8.3882  -14.0229 N   0  0  0  0  0  0  0  0  0  0  0  0
   17.5343   -8.2280  -14.0914 C   0  0  1  0  0  0  0  0  0  0  0  0
   16.9818   -9.1971  -15.0602 C   0  0  0  0  0  0  0  0  0  0  0  0
   15.5221   -9.1223  -15.2215 C   0  0  0  0  0  0  0  0  0  0  0  0
   14.6534   -8.2552  -14.5386 C   0  0  0  0  0  0  0  0  0  0  0  0
   13.3897   -8.4546  -14.9267 N   0  0  0  0  0  0  0  0  0  0  0  0
   13.4259   -9.4327  -15.8457 C   0  0  0  0  0  0  0  0  0  0  0  0
   14.6968   -9.8271  -16.0180 N   0  0  0  0  0  0  0  0  0  0  0  0
   17.0186   -8.2330  -12.7349 C   0  0  0  0  0  0  0  0  0  0  0  0
   17.3168   -9.2624  -12.0087 O   0  0  0  0  0  0  0  0  0  0  0  0
   15.5892   -7.2129   -7.7579 N   0  0  0  0  0  0  0  0  0  0  0  0
   15.4498   -6.0905   -8.6135 C   0  0  0  0  0  0  0  0  0  0  0  0
   14.9114   -5.0626   -8.1643 O   0  0  0  0  0  0  0  0  0  0  0  0
   15.9339   -6.1542   -9.9944 C   0  0  0  0  0  0  0  0  0  0  0  0
   15.7681   -7.4632  -10.6958 C   0  0  2  0  0  0  0  0  0  0  0  0
   16.2398   -7.2782  -12.0690 N   0  0  0  0  0  0  0  0  0  0  0  0
   14.4027   -8.0004  -10.7285 C   0  0  0  0  0  0  0  0  0  0  0  0
   13.9159   -9.0031   -9.9044 O   0  0  0  0  0  0  0  0  0  0  0  0
   13.5812   -7.5390  -11.5571 O   0  0  0  0  0  0  0  0  0  0  0  0
  2  1  1  6
  2 10  1  0
  3  2  1  0
  3  4  1  0
  4  5  2  0
  4  9  1  0
  5  6  1  0
  6  7  2  0
  8  7  1  0
  9  8  2  0
 10 11  2  0
 12 10  1  0
 12 13  1  0
 13 20  1  0
 13 14  1  6
 14 15  1  0
 15 16  2  0
 15 19  1  0
 16 17  1  0
 17 18  1  0
 19 18  2  0
 20 21  2  0
 22 23  1  0
 23 24  2  0
 25 23  1  0
 26 25  1  6
 26 28  1  0
 27 26  1  0
 27 20  1  0
 28 29  1  0
 30 28  2  0
M  END
$$$$
