GPD.pdb
     RDKit          3D

 20 20  0  0  1  0  0  0  0  0999 V2000
    6.7695  -14.5832   21.2770 N   0  0  0  0  0  0  0  0  0  0  0  0
    6.3652  -14.2758   22.6381 C   0  0  0  0  0  0  0  0  0  0  0  0
    7.5253  -14.0356   23.5173 C   0  0  0  0  0  0  0  0  0  0  0  0
    8.6736  -14.2374   23.0855 O   0  0  0  0  0  0  0  0  0  0  0  0
    7.3190  -13.5824   24.8302 N   0  0  0  0  0  0  0  0  0  0  0  0
    6.0189  -13.3224   25.4139 C   0  0  0  0  0  0  0  0  0  0  0  0
    6.2598  -12.8108   26.8097 C   0  0  0  0  0  0  0  0  0  0  0  0
    7.6757  -12.2840   26.7214 C   0  0  0  0  0  0  0  0  0  0  0  0
    8.3450  -13.2942   25.8308 C   0  0  1  0  0  0  0  0  0  0  0  0
    8.7361  -14.5191   26.5629 C   0  0  0  0  0  0  0  0  0  0  0  0
    7.8550  -15.3660   26.8180 O   0  0  0  0  0  0  0  0  0  0  0  0
   10.0806  -14.7114   26.9577 N   0  0  0  0  0  0  0  0  0  0  0  0
   10.5387  -15.9815   27.5503 C   0  0  1  0  0  0  0  0  0  0  0  0
   11.9058  -16.2324   27.0164 C   0  0  0  0  0  0  0  0  0  0  0  0
   12.0871  -16.1354   25.5768 C   0  0  0  0  0  0  0  0  0  0  0  0
   11.3765  -16.7383   24.7463 O   0  0  0  0  0  0  0  0  0  0  0  0
   10.4475  -15.9119   29.0196 C   0  0  0  0  0  0  0  0  0  0  0  0
   10.2208  -14.8963   29.7042 O   0  0  0  0  0  0  0  0  0  0  0  0
   13.1087  -15.3260   25.1018 O   0  0  0  0  0  0  0  0  0  0  0  0
   10.6309  -17.0999   29.7553 O   0  0  0  0  0  0  0  0  0  0  0  0
  2  1  1  0
  3  2  1  0
  4  3  2  0
  5  9  1  0
  5  3  1  0
  6  5  1  0
  7  6  1  0
  7  8  1  0
  8  9  1  0
  9 10  1  1
 10 12  1  0
 11 10  2  0
 13 12  1  0
 13 14  1  1
 14 15  1  0
 15 19  1  0
 16 15  2  0
 17 13  1  0
 18 17  2  0
 20 17  1  0
M  END
$$$$
