GPD.pdb
     RDKit          3D

 20 20  0  0  1  0  0  0  0  0999 V2000
    7.9349  -16.3280   15.4367 N   0  0  0  0  0  0  0  0  0  0  0  0
    7.4694  -15.6532   16.6361 C   0  0  0  0  0  0  0  0  0  0  0  0
    8.5768  -15.3453   17.5611 C   0  0  0  0  0  0  0  0  0  0  0  0
    9.7079  -15.8111   17.3392 O   0  0  0  0  0  0  0  0  0  0  0  0
    8.3402  -14.5306   18.6799 N   0  0  0  0  0  0  0  0  0  0  0  0
    7.0659  -13.9174   18.9939 C   0  0  0  0  0  0  0  0  0  0  0  0
    7.2698  -13.0974   20.2406 C   0  0  0  0  0  0  0  0  0  0  0  0
    8.7626  -12.8496   20.2244 C   0  0  0  0  0  0  0  0  0  0  0  0
    9.3048  -14.1555   19.7123 C   0  0  1  0  0  0  0  0  0  0  0  0
    9.3828  -15.1868   20.7705 C   0  0  0  0  0  0  0  0  0  0  0  0
    8.3530  -15.8377   21.0433 O   0  0  0  0  0  0  0  0  0  0  0  0
   10.6028  -15.4180   21.4479 N   0  0  0  0  0  0  0  0  0  0  0  0
   10.7606  -16.5348   22.3976 C   0  0  1  0  0  0  0  0  0  0  0  0
   12.1945  -16.9332   22.3526 C   0  0  0  0  0  0  0  0  0  0  0  0
   12.6434  -17.9172   23.3247 C   0  0  0  0  0  0  0  0  0  0  0  0
   12.1930  -19.0792   23.3938 O   0  0  0  0  0  0  0  0  0  0  0  0
   10.2668  -16.1365   23.7278 C   0  0  0  0  0  0  0  0  0  0  0  0
   10.0731  -14.9746   24.1328 O   0  0  0  0  0  0  0  0  0  0  0  0
   13.6286  -17.5404   24.2258 O   0  0  0  0  0  0  0  0  0  0  0  0
    9.9744  -17.1512   24.6611 O   0  0  0  0  0  0  0  0  0  0  0  0
  2  1  1  0
  3  2  1  0
  4  3  2  0
  5  9  1  0
  5  3  1  0
  6  5  1  0
  7  6  1  0
  7  8  1  0
  8  9  1  0
  9 10  1  1
 10 12  1  0
 11 10  2  0
 13 12  1  0
 13 14  1  1
 14 15  1  0
 15 19  1  0
 16 15  2  0
 17 13  1  0
 18 17  2  0
 20 17  1  0
M  END
$$$$
