GPD.pdb
     RDKit          3D

 20 20  0  0  1  0  0  0  0  0999 V2000
    6.9677  -14.3691   21.2101 N   0  0  0  0  0  0  0  0  0  0  0  0
    6.4624  -13.9621   22.5100 C   0  0  0  0  0  0  0  0  0  0  0  0
    7.5439  -13.8237   23.5038 C   0  0  0  0  0  0  0  0  0  0  0  0
    8.7008  -14.1644   23.2019 O   0  0  0  0  0  0  0  0  0  0  0  0
    7.2540  -13.3093   24.7777 N   0  0  0  0  0  0  0  0  0  0  0  0
    5.9380  -12.8883   25.2129 C   0  0  0  0  0  0  0  0  0  0  0  0
    6.0879  -12.3629   26.6163 C   0  0  0  0  0  0  0  0  0  0  0  0
    7.5560  -11.9996   26.6707 C   0  0  0  0  0  0  0  0  0  0  0  0
    8.1956  -13.1054   25.8772 C   0  0  1  0  0  0  0  0  0  0  0  0
    8.3659  -14.3425   26.6709 C   0  0  0  0  0  0  0  0  0  0  0  0
    7.3624  -15.0530   26.8870 O   0  0  0  0  0  0  0  0  0  0  0  0
    9.6422  -14.6982   27.1661 N   0  0  0  0  0  0  0  0  0  0  0  0
    9.9185  -16.0466   27.6949 C   0  0  1  0  0  0  0  0  0  0  0  0
   10.7379  -16.7474   26.6680 C   0  0  0  0  0  0  0  0  0  0  0  0
   11.2117  -18.0836   26.9919 C   0  0  0  0  0  0  0  0  0  0  0  0
   10.9513  -18.6711   28.0620 O   0  0  0  0  0  0  0  0  0  0  0  0
   10.5424  -15.9459   29.0263 C   0  0  0  0  0  0  0  0  0  0  0  0
   11.0465  -14.9279   29.5372 O   0  0  0  0  0  0  0  0  0  0  0  0
   11.9978  -18.7407   26.0567 O   0  0  0  0  0  0  0  0  0  0  0  0
   10.5892  -17.1032   29.8291 O   0  0  0  0  0  0  0  0  0  0  0  0
  2  1  1  0
  3  2  1  0
  4  3  2  0
  5  9  1  0
  5  3  1  0
  6  5  1  0
  7  6  1  0
  7  8  1  0
  8  9  1  0
  9 10  1  1
 10 12  1  0
 11 10  2  0
 13 12  1  0
 13 14  1  6
 14 15  1  0
 15 19  1  0
 16 15  2  0
 17 13  1  0
 18 17  2  0
 20 17  1  0
M  END
$$$$
