GPD.pdb
     RDKit          3D

 20 20  0  0  1  0  0  0  0  0999 V2000
    6.7573  -14.3441   21.2646 N   0  0  0  0  0  0  0  0  0  0  0  0
    6.3686  -14.0406   22.6311 C   0  0  0  0  0  0  0  0  0  0  0  0
    7.5393  -13.8527   23.5090 C   0  0  0  0  0  0  0  0  0  0  0  0
    8.6803  -14.0633   23.0623 O   0  0  0  0  0  0  0  0  0  0  0  0
    7.3512  -13.4385   24.8374 N   0  0  0  0  0  0  0  0  0  0  0  0
    6.0637  -13.1346   25.4278 C   0  0  0  0  0  0  0  0  0  0  0  0
    6.3249  -12.6880   26.8422 C   0  0  0  0  0  0  0  0  0  0  0  0
    7.7660  -12.2309   26.7762 C   0  0  0  0  0  0  0  0  0  0  0  0
    8.3867  -13.2401   25.8500 C   0  0  1  0  0  0  0  0  0  0  0  0
    8.7123  -14.5095   26.5368 C   0  0  0  0  0  0  0  0  0  0  0  0
    7.7786  -15.2874   26.8224 O   0  0  0  0  0  0  0  0  0  0  0  0
   10.0549  -14.8201   26.8555 N   0  0  0  0  0  0  0  0  0  0  0  0
   10.4298  -16.1196   27.4426 C   0  0  1  0  0  0  0  0  0  0  0  0
   11.7300  -16.5057   26.8283 C   0  0  0  0  0  0  0  0  0  0  0  0
   11.7610  -16.6730   25.3841 C   0  0  0  0  0  0  0  0  0  0  0  0
   10.8193  -17.1550   24.7216 O   0  0  0  0  0  0  0  0  0  0  0  0
   10.4410  -16.0220   28.9131 C   0  0  0  0  0  0  0  0  0  0  0  0
   10.3923  -14.9777   29.5903 O   0  0  0  0  0  0  0  0  0  0  0  0
   12.9035  -16.2733   24.7062 O   0  0  0  0  0  0  0  0  0  0  0  0
   10.5137  -17.2153   29.6594 O   0  0  0  0  0  0  0  0  0  0  0  0
  2  1  1  0
  3  2  1  0
  4  3  2  0
  5  9  1  0
  5  3  1  0
  6  5  1  0
  7  6  1  0
  7  8  1  0
  8  9  1  0
  9 10  1  1
 10 12  1  0
 11 10  2  0
 13 12  1  0
 13 14  1  6
 14 15  1  0
 15 19  1  0
 16 15  2  0
 17 13  1  0
 18 17  2  0
 20 17  1  0
M  END
$$$$
