GPD.pdb
     RDKit          3D

 20 20  0  0  1  0  0  0  0  0999 V2000
    6.7564  -14.5104   21.3434 N   0  0  0  0  0  0  0  0  0  0  0  0
    6.3732  -13.9995   22.6483 C   0  0  0  0  0  0  0  0  0  0  0  0
    7.5276  -13.8961   23.5612 C   0  0  0  0  0  0  0  0  0  0  0  0
    8.6524  -14.2526   23.1694 O   0  0  0  0  0  0  0  0  0  0  0  0
    7.3423  -13.3967   24.8603 N   0  0  0  0  0  0  0  0  0  0  0  0
    6.0657  -12.9845   25.4069 C   0  0  0  0  0  0  0  0  0  0  0  0
    6.3294  -12.4743   26.7991 C   0  0  0  0  0  0  0  0  0  0  0  0
    7.7962  -12.1072   26.7367 C   0  0  0  0  0  0  0  0  0  0  0  0
    8.3708  -13.2023   25.8809 C   0  0  1  0  0  0  0  0  0  0  0  0
    8.6083  -14.4476   26.6439 C   0  0  0  0  0  0  0  0  0  0  0  0
    7.6230  -15.1392   26.9747 O   0  0  0  0  0  0  0  0  0  0  0  0
    9.9267  -14.8319   26.9828 N   0  0  0  0  0  0  0  0  0  0  0  0
   10.2227  -16.1578   27.5558 C   0  0  1  0  0  0  0  0  0  0  0  0
   11.2946  -16.7566   26.7135 C   0  0  0  0  0  0  0  0  0  0  0  0
   11.8359  -18.0385   27.1358 C   0  0  0  0  0  0  0  0  0  0  0  0
   11.3981  -18.6903   28.1061 O   0  0  0  0  0  0  0  0  0  0  0  0
   10.5561  -16.0243   28.9851 C   0  0  0  0  0  0  0  0  0  0  0  0
   10.8408  -14.9722   29.5881 O   0  0  0  0  0  0  0  0  0  0  0  0
   12.8996  -18.5650   26.4177 O   0  0  0  0  0  0  0  0  0  0  0  0
   10.5620  -17.1885   29.7793 O   0  0  0  0  0  0  0  0  0  0  0  0
  2  1  1  0
  3  2  1  0
  4  3  2  0
  5  9  1  0
  5  3  1  0
  6  5  1  0
  7  6  1  0
  7  8  1  0
  8  9  1  0
  9 10  1  1
 10 12  1  0
 11 10  2  0
 13 12  1  0
 13 14  1  6
 14 15  1  0
 15 19  1  0
 16 15  2  0
 17 13  1  0
 18 17  2  0
 20 17  1  0
M  END
$$$$
