GPD.pdb
     RDKit          3D

 20 20  0  0  1  0  0  0  0  0999 V2000
    7.1756  -17.2960   16.9615 N   0  0  0  0  0  0  0  0  0  0  0  0
    6.8446  -16.6314   18.2102 C   0  0  0  0  0  0  0  0  0  0  0  0
    8.0451  -16.1177   18.8969 C   0  0  0  0  0  0  0  0  0  0  0  0
    9.1723  -16.4089   18.4607 O   0  0  0  0  0  0  0  0  0  0  0  0
    7.9004  -15.3066   20.0339 N   0  0  0  0  0  0  0  0  0  0  0  0
    6.6285  -14.9142   20.6057 C   0  0  0  0  0  0  0  0  0  0  0  0
    6.9327  -14.0142   21.7744 C   0  0  0  0  0  0  0  0  0  0  0  0
    8.3191  -13.5078   21.4405 C   0  0  0  0  0  0  0  0  0  0  0  0
    8.9726  -14.7197   20.8357 C   0  0  1  0  0  0  0  0  0  0  0  0
    9.4545  -15.6708   21.8616 C   0  0  0  0  0  0  0  0  0  0  0  0
    8.6373  -16.4728   22.3592 O   0  0  0  0  0  0  0  0  0  0  0  0
   10.8120  -15.6593   22.2585 N   0  0  0  0  0  0  0  0  0  0  0  0
   11.3833  -16.7332   23.0919 C   0  0  1  0  0  0  0  0  0  0  0  0
   12.8540  -16.7161   22.8599 C   0  0  0  0  0  0  0  0  0  0  0  0
   13.6505  -17.7113   23.5597 C   0  0  0  0  0  0  0  0  0  0  0  0
   14.0378  -17.5849   24.7396 O   0  0  0  0  0  0  0  0  0  0  0  0
   10.9727  -16.5519   24.4956 C   0  0  0  0  0  0  0  0  0  0  0  0
   10.6860  -15.4762   25.0545 O   0  0  0  0  0  0  0  0  0  0  0  0
   13.9986  -18.8664   22.8747 O   0  0  0  0  0  0  0  0  0  0  0  0
   10.8856  -17.6938   25.3170 O   0  0  0  0  0  0  0  0  0  0  0  0
  2  1  1  0
  3  2  1  0
  4  3  2  0
  5  9  1  0
  5  3  1  0
  6  5  1  0
  7  6  1  0
  7  8  1  0
  8  9  1  0
  9 10  1  1
 10 12  1  0
 11 10  2  0
 13 12  1  0
 13 14  1  1
 14 15  1  0
 15 19  1  0
 16 15  2  0
 17 13  1  0
 18 17  2  0
 20 17  1  0
M  END
$$$$
