GPD.pdb
     RDKit          3D

 20 20  0  0  1  0  0  0  0  0999 V2000
    6.7505  -14.6643   21.4045 N   0  0  0  0  0  0  0  0  0  0  0  0
    6.3557  -14.2653   22.7445 C   0  0  0  0  0  0  0  0  0  0  0  0
    7.5217  -14.0548   23.6236 C   0  0  0  0  0  0  0  0  0  0  0  0
    8.6623  -14.3106   23.2002 O   0  0  0  0  0  0  0  0  0  0  0  0
    7.3295  -13.5684   24.9267 N   0  0  0  0  0  0  0  0  0  0  0  0
    6.0370  -13.2707   25.5093 C   0  0  0  0  0  0  0  0  0  0  0  0
    6.2934  -12.7326   26.8923 C   0  0  0  0  0  0  0  0  0  0  0  0
    7.7187  -12.2350   26.7868 C   0  0  0  0  0  0  0  0  0  0  0  0
    8.3650  -13.2775   25.9167 C   0  0  1  0  0  0  0  0  0  0  0  0
    8.7359  -14.4929   26.6747 C   0  0  0  0  0  0  0  0  0  0  0  0
    7.8337  -15.2978   26.9859 O   0  0  0  0  0  0  0  0  0  0  0  0
   10.0852  -14.7232   27.0309 N   0  0  0  0  0  0  0  0  0  0  0  0
   10.5033  -15.9578   27.7201 C   0  0  1  0  0  0  0  0  0  0  0  0
   11.8383  -16.3218   27.1702 C   0  0  0  0  0  0  0  0  0  0  0  0
   12.0170  -16.2173   25.7308 C   0  0  0  0  0  0  0  0  0  0  0  0
   11.4615  -16.9724   24.9065 O   0  0  0  0  0  0  0  0  0  0  0  0
   10.4656  -15.7557   29.1795 C   0  0  0  0  0  0  0  0  0  0  0  0
   10.2848  -14.6781   29.7774 O   0  0  0  0  0  0  0  0  0  0  0  0
   12.8530  -15.2208   25.2487 O   0  0  0  0  0  0  0  0  0  0  0  0
   10.6495  -16.8777   30.0123 O   0  0  0  0  0  0  0  0  0  0  0  0
  2  1  1  0
  3  2  1  0
  4  3  2  0
  5  9  1  0
  5  3  1  0
  6  5  1  0
  7  6  1  0
  7  8  1  0
  8  9  1  0
  9 10  1  1
 10 12  1  0
 11 10  2  0
 13 12  1  0
 13 14  1  6
 14 15  1  0
 15 19  1  0
 16 15  2  0
 17 13  1  0
 18 17  2  0
 20 17  1  0
M  END
$$$$
