KIE.pdb
     RDKit          3D

 27 26  0  0  1  0  0  0  0  0999 V2000
    7.5733  -14.9233   20.4064 N   0  0  0  0  0  0  0  0  0  0  0  0
    7.1722  -15.6003   21.6350 C   0  0  1  0  0  0  0  0  0  0  0  0
    7.5348  -17.0528   21.4395 C   0  0  0  0  0  0  0  0  0  0  0  0
    6.7566  -17.7530   20.3752 C   0  0  0  0  0  0  0  0  0  0  0  0
    7.1038  -19.2215   20.2906 C   0  0  0  0  0  0  0  0  0  0  0  0
    6.2805  -19.9395   19.2543 C   0  0  0  0  0  0  0  0  0  0  0  0
    6.3527  -19.2876   17.9794 N   0  0  0  0  0  0  0  0  0  0  0  0
    7.9637  -15.0687   22.7886 C   0  0  0  0  0  0  0  0  0  0  0  0
    9.1812  -14.8002   22.6252 O   0  0  0  0  0  0  0  0  0  0  0  0
    5.7621  -11.6688   26.3202 C   0  0  0  0  0  0  0  0  0  0  0  0
    6.7214  -12.3212   25.3517 C   0  0  0  0  0  0  0  0  0  0  0  0
    7.3281  -13.5264   26.0758 C   0  0  2  0  0  0  0  0  0  0  0  0
    8.1561  -12.9594   27.2086 C   0  0  0  0  0  0  0  0  0  0  0  0
    8.2489  -14.2795   25.1312 C   0  0  2  0  0  0  0  0  0  0  0  0
    7.4175  -14.8509   24.0549 N   0  0  0  0  0  0  0  0  0  0  0  0
    8.8891  -15.3789   25.8771 C   0  0  0  0  0  0  0  0  0  0  0  0
    8.1004  -16.2948   26.3301 O   0  0  0  0  0  0  0  0  0  0  0  0
   10.2561  -15.5505   26.1473 N   0  0  0  0  0  0  0  0  0  0  0  0
   10.7619  -16.8306   26.7156 C   0  0  1  0  0  0  0  0  0  0  0  0
   12.1775  -17.0048   26.2782 C   0  0  0  0  0  0  0  0  0  0  0  0
   12.4780  -16.8393   24.8415 C   0  0  0  0  0  0  0  0  0  0  0  0
   13.8890  -16.9261   24.5003 C   0  0  0  0  0  0  0  0  0  0  0  0
   14.7475  -16.0418   24.7643 O   0  0  0  0  0  0  0  0  0  0  0  0
   10.4520  -16.8209   28.1305 C   0  0  0  0  0  0  0  0  0  0  0  0
   10.1217  -15.7960   28.7779 O   0  0  0  0  0  0  0  0  0  0  0  0
   14.3421  -18.0758   23.8324 O   0  0  0  0  0  0  0  0  0  0  0  0
   10.4957  -17.9923   28.9173 O   0  0  0  0  0  0  0  0  0  0  0  0
  2  1  1  6
  3  2  1  0
  4  3  1  0
  5  4  1  0
  5  6  1  0
  7  6  1  0
  8  9  2  0
  8  2  1  0
 11 10  1  0
 12 14  1  0
 12 11  1  0
 12 13  1  1
 14 15  1  6
 15  8  1  0
 16 14  1  0
 17 16  2  0
 18 16  1  0
 19 24  1  0
 19 18  1  0
 19 20  1  1
 21 20  1  0
 22 21  1  0
 23 22  2  0
 24 27  1  0
 25 24  2  0
 26 22  1  0
M  END
$$$$
