KIE.pdb
     RDKit          3D

 27 26  0  0  1  0  0  0  0  0999 V2000
    6.8811  -14.2553   20.4233 N   0  0  0  0  0  0  0  0  0  0  0  0
    6.6915  -15.0962   21.6004 C   0  0  1  0  0  0  0  0  0  0  0  0
    7.2349  -16.4540   21.2256 C   0  0  0  0  0  0  0  0  0  0  0  0
    6.4901  -17.1445   20.1314 C   0  0  0  0  0  0  0  0  0  0  0  0
    7.0591  -18.5123   19.8321 C   0  0  0  0  0  0  0  0  0  0  0  0
    6.2914  -19.2203   18.7473 C   0  0  0  0  0  0  0  0  0  0  0  0
    6.7953  -20.5436   18.5228 N   0  0  0  0  0  0  0  0  0  0  0  0
    7.5016  -14.5633   22.7404 C   0  0  0  0  0  0  0  0  0  0  0  0
    8.6696  -14.1514   22.5229 O   0  0  0  0  0  0  0  0  0  0  0  0
    7.2381  -11.2006   25.6788 C   0  0  0  0  0  0  0  0  0  0  0  0
    6.2287  -12.3106   25.8609 C   0  0  0  0  0  0  0  0  0  0  0  0
    7.0139  -13.5570   26.2790 C   0  0  2  0  0  0  0  0  0  0  0  0
    7.8940  -13.1282   27.4331 C   0  0  0  0  0  0  0  0  0  0  0  0
    7.9023  -14.0093   25.1330 C   0  0  2  0  0  0  0  0  0  0  0  0
    7.0258  -14.4968   24.0512 N   0  0  0  0  0  0  0  0  0  0  0  0
    8.7461  -15.1230   25.6046 C   0  0  0  0  0  0  0  0  0  0  0  0
    8.1232  -16.1839   25.9951 O   0  0  0  0  0  0  0  0  0  0  0  0
   10.1477  -15.1681   25.6732 N   0  0  0  0  0  0  0  0  0  0  0  0
   10.8553  -16.4610   25.8868 C   0  0  1  0  0  0  0  0  0  0  0  0
   12.0624  -16.4791   25.0104 C   0  0  0  0  0  0  0  0  0  0  0  0
   13.0363  -17.5725   25.2047 C   0  0  0  0  0  0  0  0  0  0  0  0
   14.1878  -17.5276   24.3176 C   0  0  0  0  0  0  0  0  0  0  0  0
   14.6779  -18.5265   23.7256 O   0  0  0  0  0  0  0  0  0  0  0  0
   11.0133  -16.6293   27.3167 C   0  0  0  0  0  0  0  0  0  0  0  0
   10.9573  -15.6927   28.1523 O   0  0  0  0  0  0  0  0  0  0  0  0
   14.8049  -16.2860   24.0915 O   0  0  0  0  0  0  0  0  0  0  0  0
   11.2480  -17.8919   27.9032 O   0  0  0  0  0  0  0  0  0  0  0  0
  2  1  1  6
  3  2  1  0
  4  3  1  0
  5  4  1  0
  5  6  1  0
  7  6  1  0
  8  9  2  0
  8  2  1  0
 11 10  1  0
 12 14  1  0
 12 11  1  0
 12 13  1  1
 14 15  1  6
 15  8  1  0
 16 14  1  0
 17 16  2  0
 18 16  1  0
 19 24  1  0
 19 18  1  0
 19 20  1  6
 21 20  1  0
 22 21  1  0
 23 22  2  0
 24 27  1  0
 25 24  2  0
 26 22  1  0
M  END
$$$$
