KIE.pdb
     RDKit          3D

 27 26  0  0  1  0  0  0  0  0999 V2000
    7.3424  -15.4321   19.9672 N   0  0  0  0  0  0  0  0  0  0  0  0
    7.0029  -15.9477   21.2892 C   0  0  1  0  0  0  0  0  0  0  0  0
    7.3171  -17.4237   21.2463 C   0  0  0  0  0  0  0  0  0  0  0  0
    6.5334  -18.2001   20.2405 C   0  0  0  0  0  0  0  0  0  0  0  0
    6.7600  -19.6888   20.3698 C   0  0  0  0  0  0  0  0  0  0  0  0
    5.9181  -20.4763   19.4011 C   0  0  0  0  0  0  0  0  0  0  0  0
    6.1922  -21.8811   19.4855 N   0  0  0  0  0  0  0  0  0  0  0  0
    7.8778  -15.3100   22.3224 C   0  0  0  0  0  0  0  0  0  0  0  0
    9.0760  -15.0547   22.0386 O   0  0  0  0  0  0  0  0  0  0  0  0
    5.7023  -12.0171   26.0968 C   0  0  0  0  0  0  0  0  0  0  0  0
    6.5882  -12.5467   24.9927 C   0  0  0  0  0  0  0  0  0  0  0  0
    7.4645  -13.6374   25.6151 C   0  0  2  0  0  0  0  0  0  0  0  0
    8.3665  -12.9335   26.6057 C   0  0  0  0  0  0  0  0  0  0  0  0
    8.3279  -14.2744   24.5399 C   0  0  2  0  0  0  0  0  0  0  0  0
    7.4314  -14.9776   23.6028 N   0  0  0  0  0  0  0  0  0  0  0  0
    9.2217  -15.2588   25.1778 C   0  0  0  0  0  0  0  0  0  0  0  0
    8.6515  -16.2951   25.6945 O   0  0  0  0  0  0  0  0  0  0  0  0
   10.6206  -15.2051   25.2840 N   0  0  0  0  0  0  0  0  0  0  0  0
   11.3850  -16.3624   25.8262 C   0  0  1  0  0  0  0  0  0  0  0  0
   10.7445  -16.7822   27.1064 C   0  0  0  0  0  0  0  0  0  0  0  0
   10.8839  -18.1952   27.5136 C   0  0  0  0  0  0  0  0  0  0  0  0
   10.3812  -18.4982   28.8441 C   0  0  0  0  0  0  0  0  0  0  0  0
   10.1359  -17.6383   29.7324 O   0  0  0  0  0  0  0  0  0  0  0  0
   11.5216  -17.3241   24.7517 C   0  0  0  0  0  0  0  0  0  0  0  0
   10.7051  -17.4522   23.8054 O   0  0  0  0  0  0  0  0  0  0  0  0
   10.1427  -19.8426   29.1746 O   0  0  0  0  0  0  0  0  0  0  0  0
   12.6119  -18.2181   24.6775 O   0  0  0  0  0  0  0  0  0  0  0  0
  2  1  1  6
  3  2  1  0
  4  3  1  0
  5  4  1  0
  5  6  1  0
  7  6  1  0
  8  9  2  0
  8  2  1  0
 11 10  1  0
 12 14  1  0
 12 11  1  0
 12 13  1  1
 14 15  1  6
 15  8  1  0
 16 14  1  0
 17 16  2  0
 18 16  1  0
 19 24  1  0
 19 18  1  0
 19 20  1  1
 21 20  1  0
 22 21  1  0
 23 22  2  0
 24 27  1  0
 25 24  2  0
 26 22  1  0
M  END
$$$$
