KIE.pdb
     RDKit          3D

 27 26  0  0  1  0  0  0  0  0999 V2000
    7.8482  -18.5332   18.0169 N   0  0  0  0  0  0  0  0  0  0  0  0
    9.2682  -18.2219   17.8928 C   0  0  1  0  0  0  0  0  0  0  0  0
    9.4532  -17.7063   16.4860 C   0  0  0  0  0  0  0  0  0  0  0  0
   10.3174  -18.5588   15.6170 C   0  0  0  0  0  0  0  0  0  0  0  0
   11.4348  -17.7679   14.9765 C   0  0  0  0  0  0  0  0  0  0  0  0
   12.3256  -18.6334   14.1251 C   0  0  0  0  0  0  0  0  0  0  0  0
   13.4553  -17.9017   13.6312 N   0  0  0  0  0  0  0  0  0  0  0  0
    9.6329  -17.1280   18.8469 C   0  0  0  0  0  0  0  0  0  0  0  0
   10.8432  -16.8194   18.9924 O   0  0  0  0  0  0  0  0  0  0  0  0
    6.5052  -12.6557   19.9273 C   0  0  0  0  0  0  0  0  0  0  0  0
    7.7510  -13.4564   19.6260 C   0  0  0  0  0  0  0  0  0  0  0  0
    7.9229  -14.4542   20.7748 C   0  0  2  0  0  0  0  0  0  0  0  0
    8.2027  -13.6250   22.0096 C   0  0  0  0  0  0  0  0  0  0  0  0
    9.1248  -15.3427   20.5042 C   0  0  2  0  0  0  0  0  0  0  0  0
    8.6904  -16.4204   19.5953 N   0  0  0  0  0  0  0  0  0  0  0  0
    9.5641  -15.9393   21.7793 C   0  0  0  0  0  0  0  0  0  0  0  0
    8.8990  -16.9682   22.1858 O   0  0  0  0  0  0  0  0  0  0  0  0
   10.6244  -15.5241   22.6006 N   0  0  0  0  0  0  0  0  0  0  0  0
   11.2845  -16.4829   23.5294 C   0  0  1  0  0  0  0  0  0  0  0  0
   12.7529  -16.4447   23.2684 C   0  0  0  0  0  0  0  0  0  0  0  0
   13.6325  -17.2059   24.1786 C   0  0  0  0  0  0  0  0  0  0  0  0
   15.0561  -17.0284   23.9399 C   0  0  0  0  0  0  0  0  0  0  0  0
   15.5637  -16.0618   23.3101 O   0  0  0  0  0  0  0  0  0  0  0  0
   10.7921  -16.1944   24.8606 C   0  0  0  0  0  0  0  0  0  0  0  0
   10.1974  -15.1359   25.1837 O   0  0  0  0  0  0  0  0  0  0  0  0
   15.9409  -17.9944   24.4470 O   0  0  0  0  0  0  0  0  0  0  0  0
   10.9432  -17.1028   25.9309 O   0  0  0  0  0  0  0  0  0  0  0  0
  2  1  1  6
  3  2  1  0
  4  3  1  0
  5  4  1  0
  5  6  1  0
  7  6  1  0
  8  9  2  0
  8  2  1  0
 11 10  1  0
 12 14  1  0
 12 11  1  0
 12 13  1  1
 14 15  1  6
 15  8  1  0
 16 14  1  0
 17 16  2  0
 18 16  1  0
 19 24  1  0
 19 18  1  0
 19 20  1  1
 21 20  1  0
 22 21  1  0
 23 22  2  0
 24 27  1  0
 25 24  2  0
 26 22  1  0
M  END
$$$$
