KIE.pdb
     RDKit          3D

 27 26  0  0  1  0  0  0  0  0999 V2000
    5.4064  -17.1317   21.8199 N   0  0  0  0  0  0  0  0  0  0  0  0
    5.6043  -17.2519   23.2603 C   0  0  1  0  0  0  0  0  0  0  0  0
    6.0455  -18.6764   23.4958 C   0  0  0  0  0  0  0  0  0  0  0  0
    4.9803  -19.7021   23.2906 C   0  0  0  0  0  0  0  0  0  0  0  0
    5.0187  -20.2904   21.8990 C   0  0  0  0  0  0  0  0  0  0  0  0
    4.0920  -21.4686   21.7563 C   0  0  0  0  0  0  0  0  0  0  0  0
    2.9874  -21.1689   20.8928 N   0  0  0  0  0  0  0  0  0  0  0  0
    6.7064  -16.3392   23.6988 C   0  0  0  0  0  0  0  0  0  0  0  0
    7.7055  -16.1812   22.9519 O   0  0  0  0  0  0  0  0  0  0  0  0
    5.8797  -12.1845   27.1673 C   0  0  0  0  0  0  0  0  0  0  0  0
    6.5424  -12.8055   25.9593 C   0  0  0  0  0  0  0  0  0  0  0  0
    7.4160  -13.9522   26.4758 C   0  0  2  0  0  0  0  0  0  0  0  0
    8.6448  -13.3033   27.0756 C   0  0  0  0  0  0  0  0  0  0  0  0
    7.8485  -14.8287   25.3131 C   0  0  2  0  0  0  0  0  0  0  0  0
    6.6867  -15.6429   24.9088 N   0  0  0  0  0  0  0  0  0  0  0  0
    8.9242  -15.7251   25.7759 C   0  0  0  0  0  0  0  0  0  0  0  0
    8.5692  -16.6774   26.5716 O   0  0  0  0  0  0  0  0  0  0  0  0
   10.2882  -15.6690   25.4481 N   0  0  0  0  0  0  0  0  0  0  0  0
   11.1896  -16.8140   25.7548 C   0  0  1  0  0  0  0  0  0  0  0  0
   12.3371  -16.7687   24.8026 C   0  0  0  0  0  0  0  0  0  0  0  0
   13.4147  -17.7636   24.9774 C   0  0  0  0  0  0  0  0  0  0  0  0
   14.5331  -17.6179   24.0593 C   0  0  0  0  0  0  0  0  0  0  0  0
   15.5815  -16.9620   24.3027 O   0  0  0  0  0  0  0  0  0  0  0  0
   11.4476  -16.7836   27.1798 C   0  0  0  0  0  0  0  0  0  0  0  0
   11.3560  -15.7554   27.8961 O   0  0  0  0  0  0  0  0  0  0  0  0
   14.4541  -18.2533   22.8090 O   0  0  0  0  0  0  0  0  0  0  0  0
   11.8319  -17.9364   27.8986 O   0  0  0  0  0  0  0  0  0  0  0  0
  2  1  1  6
  3  2  1  0
  4  3  1  0
  5  4  1  0
  5  6  1  0
  7  6  1  0
  8  9  2  0
  8  2  1  0
 11 10  1  0
 12 14  1  0
 12 11  1  0
 12 13  1  6
 14 15  1  1
 15  8  1  0
 16 14  1  0
 17 16  2  0
 18 16  1  0
 19 24  1  0
 19 18  1  0
 19 20  1  6
 21 20  1  0
 22 21  1  0
 23 22  2  0
 24 27  1  0
 25 24  2  0
 26 22  1  0
M  END
$$$$
