KIE.pdb
     RDKit          3D

 27 26  0  0  1  0  0  0  0  0999 V2000
    7.8143  -14.6440   19.8175 N   0  0  0  0  0  0  0  0  0  0  0  0
    7.1220  -15.1928   20.9786 C   0  0  1  0  0  0  0  0  0  0  0  0
    7.2087  -16.6933   20.8358 C   0  0  0  0  0  0  0  0  0  0  0  0
    6.3717  -17.2658   19.7401 C   0  0  0  0  0  0  0  0  0  0  0  0
    7.2066  -17.7163   18.5636 C   0  0  0  0  0  0  0  0  0  0  0  0
    6.3593  -18.2478   17.4381 C   0  0  0  0  0  0  0  0  0  0  0  0
    7.1646  -18.7312   16.3549 N   0  0  0  0  0  0  0  0  0  0  0  0
    7.8395  -14.7969   22.2309 C   0  0  0  0  0  0  0  0  0  0  0  0
    9.0966  -14.7670   22.2341 O   0  0  0  0  0  0  0  0  0  0  0  0
    5.5757  -11.3972   25.8456 C   0  0  0  0  0  0  0  0  0  0  0  0
    6.6044  -12.0103   24.9237 C   0  0  0  0  0  0  0  0  0  0  0  0
    7.0247  -13.3410   25.5542 C   0  0  2  0  0  0  0  0  0  0  0  0
    7.7899  -12.9845   26.8103 C   0  0  0  0  0  0  0  0  0  0  0  0
    7.9575  -14.0811   24.6112 C   0  0  2  0  0  0  0  0  0  0  0  0
    7.1813  -14.4538   23.4133 N   0  0  0  0  0  0  0  0  0  0  0  0
    8.4244  -15.3092   25.2808 C   0  0  0  0  0  0  0  0  0  0  0  0
    7.5151  -16.1737   25.5837 O   0  0  0  0  0  0  0  0  0  0  0  0
    9.7423  -15.6521   25.6224 N   0  0  0  0  0  0  0  0  0  0  0  0
   10.0661  -17.0184   26.1185 C   0  0  1  0  0  0  0  0  0  0  0  0
   11.2025  -17.5479   25.3099 C   0  0  0  0  0  0  0  0  0  0  0  0
   11.8204  -18.8179   25.7423 C   0  0  0  0  0  0  0  0  0  0  0  0
   12.9617  -19.2419   24.9469 C   0  0  0  0  0  0  0  0  0  0  0  0
   13.9412  -18.5074   24.6474 O   0  0  0  0  0  0  0  0  0  0  0  0
   10.1998  -16.9288   27.5579 C   0  0  0  0  0  0  0  0  0  0  0  0
    9.9825  -17.8782   28.3516 O   0  0  0  0  0  0  0  0  0  0  0  0
   12.9894  -20.5652   24.4763 O   0  0  0  0  0  0  0  0  0  0  0  0
   10.5964  -15.7372   28.2030 O   0  0  0  0  0  0  0  0  0  0  0  0
  2  1  1  6
  3  2  1  0
  4  3  1  0
  5  4  1  0
  5  6  1  0
  7  6  1  0
  8  9  2  0
  8  2  1  0
 11 10  1  0
 12 14  1  0
 12 11  1  0
 12 13  1  1
 14 15  1  6
 15  8  1  0
 16 14  1  0
 17 16  2  0
 18 16  1  0
 19 24  1  0
 19 18  1  0
 19 20  1  6
 21 20  1  0
 22 21  1  0
 23 22  2  0
 24 27  1  0
 25 24  2  0
 26 22  1  0
M  END
$$$$
