KIE.pdb
     RDKit          3D

 27 26  0  0  1  0  0  0  0  0999 V2000
    7.4824  -14.9006   20.1290 N   0  0  0  0  0  0  0  0  0  0  0  0
    6.9164  -15.4608   21.3514 C   0  0  1  0  0  0  0  0  0  0  0  0
    7.0957  -16.9556   21.2385 C   0  0  0  0  0  0  0  0  0  0  0  0
    6.3540  -17.5899   20.1088 C   0  0  0  0  0  0  0  0  0  0  0  0
    5.1122  -18.3120   20.5788 C   0  0  0  0  0  0  0  0  0  0  0  0
    4.3399  -18.9142   19.4351 C   0  0  0  0  0  0  0  0  0  0  0  0
    3.0830  -19.4487   19.8713 N   0  0  0  0  0  0  0  0  0  0  0  0
    7.6946  -14.9816   22.5367 C   0  0  0  0  0  0  0  0  0  0  0  0
    8.9505  -14.9618   22.4784 O   0  0  0  0  0  0  0  0  0  0  0  0
    5.5723  -11.4681   26.2065 C   0  0  0  0  0  0  0  0  0  0  0  0
    6.5291  -12.0897   25.2153 C   0  0  0  0  0  0  0  0  0  0  0  0
    7.0304  -13.3931   25.8437 C   0  0  2  0  0  0  0  0  0  0  0  0
    7.8567  -12.9867   27.0447 C   0  0  0  0  0  0  0  0  0  0  0  0
    7.9295  -14.1217   24.8599 C   0  0  2  0  0  0  0  0  0  0  0  0
    7.0950  -14.5489   23.7209 N   0  0  0  0  0  0  0  0  0  0  0  0
    8.4812  -15.3169   25.5246 C   0  0  0  0  0  0  0  0  0  0  0  0
    7.6380  -16.2533   25.8043 O   0  0  0  0  0  0  0  0  0  0  0  0
    9.8166  -15.5594   25.8837 N   0  0  0  0  0  0  0  0  0  0  0  0
   10.2387  -16.9013   26.3726 C   0  0  1  0  0  0  0  0  0  0  0  0
   11.4023  -17.3484   25.5529 C   0  0  0  0  0  0  0  0  0  0  0  0
   12.0960  -18.5864   25.9623 C   0  0  0  0  0  0  0  0  0  0  0  0
   13.2894  -18.8992   25.1922 C   0  0  0  0  0  0  0  0  0  0  0  0
   13.6014  -18.3559   24.0985 O   0  0  0  0  0  0  0  0  0  0  0  0
   10.3781  -16.8065   27.8111 C   0  0  0  0  0  0  0  0  0  0  0  0
   10.3167  -15.7331   28.4612 O   0  0  0  0  0  0  0  0  0  0  0  0
   14.1692  -19.8719   25.6951 O   0  0  0  0  0  0  0  0  0  0  0  0
   10.5989  -17.9417   28.6211 O   0  0  0  0  0  0  0  0  0  0  0  0
  2  1  1  6
  3  2  1  0
  4  3  1  0
  5  4  1  0
  5  6  1  0
  7  6  1  0
  8  9  2  0
  8  2  1  0
 11 10  1  0
 12 14  1  0
 12 11  1  0
 12 13  1  1
 14 15  1  6
 15  8  1  0
 16 14  1  0
 17 16  2  0
 18 16  1  0
 19 24  1  0
 19 18  1  0
 19 20  1  6
 21 20  1  0
 22 21  1  0
 23 22  2  0
 24 27  1  0
 25 24  2  0
 26 22  1  0
M  END
$$$$
