KIE.pdb
     RDKit          3D

 27 26  0  0  1  0  0  0  0  0999 V2000
    8.5871  -15.6989   19.8400 N   0  0  0  0  0  0  0  0  0  0  0  0
    7.8252  -16.1217   21.0102 C   0  0  1  0  0  0  0  0  0  0  0  0
    7.9520  -17.6252   21.0603 C   0  0  0  0  0  0  0  0  0  0  0  0
    7.1096  -18.3564   20.0681 C   0  0  0  0  0  0  0  0  0  0  0  0
    7.2086  -19.8554   20.2338 C   0  0  0  0  0  0  0  0  0  0  0  0
    6.3634  -20.5935   19.2298 C   0  0  0  0  0  0  0  0  0  0  0  0
    4.9641  -20.4131   19.4846 N   0  0  0  0  0  0  0  0  0  0  0  0
    8.4438  -15.5555   22.2499 C   0  0  0  0  0  0  0  0  0  0  0  0
    9.6930  -15.5995   22.3870 O   0  0  0  0  0  0  0  0  0  0  0  0
    7.0678  -11.6998   26.8130 C   0  0  0  0  0  0  0  0  0  0  0  0
    8.0693  -12.6903   26.2654 C   0  0  0  0  0  0  0  0  0  0  0  0
    7.4044  -13.3733   25.0669 C   0  0  2  0  0  0  0  0  0  0  0  0
    6.2489  -14.1723   25.6300 C   0  0  0  0  0  0  0  0  0  0  0  0
    8.3862  -14.3324   24.4161 C   0  0  2  0  0  0  0  0  0  0  0  0
    7.7003  -14.9726   23.2777 N   0  0  0  0  0  0  0  0  0  0  0  0
    8.7519  -15.3687   25.3995 C   0  0  0  0  0  0  0  0  0  0  0  0
    7.8170  -16.1945   25.7311 O   0  0  0  0  0  0  0  0  0  0  0  0
    9.9990  -15.5672   26.0131 N   0  0  0  0  0  0  0  0  0  0  0  0
   10.2428  -16.7637   26.8657 C   0  0  1  0  0  0  0  0  0  0  0  0
   11.5065  -17.4102   26.4068 C   0  0  0  0  0  0  0  0  0  0  0  0
   11.6718  -17.6443   24.9579 C   0  0  0  0  0  0  0  0  0  0  0  0
   13.0305  -17.4818   24.4655 C   0  0  0  0  0  0  0  0  0  0  0  0
   14.0292  -17.2169   25.1873 O   0  0  0  0  0  0  0  0  0  0  0  0
   10.1239  -16.3361   28.2444 C   0  0  0  0  0  0  0  0  0  0  0  0
    9.9806  -15.1419   28.6076 O   0  0  0  0  0  0  0  0  0  0  0  0
   13.2612  -17.6335   23.0882 O   0  0  0  0  0  0  0  0  0  0  0  0
   10.1590  -17.2498   29.3202 O   0  0  0  0  0  0  0  0  0  0  0  0
  2  1  1  6
  3  2  1  0
  4  3  1  0
  5  4  1  0
  5  6  1  0
  7  6  1  0
  8  9  2  0
  8  2  1  0
 11 10  1  0
 12 14  1  0
 12 11  1  0
 12 13  1  1
 14 15  1  6
 15  8  1  0
 16 14  1  0
 17 16  2  0
 18 16  1  0
 19 24  1  0
 19 18  1  0
 19 20  1  1
 21 20  1  0
 22 21  1  0
 23 22  2  0
 24 27  1  0
 25 24  2  0
 26 22  1  0
M  END
$$$$
