KIE.pdb
     RDKit          3D

 27 26  0  0  1  0  0  0  0  0999 V2000
    7.9387  -15.2487   20.4707 N   0  0  0  0  0  0  0  0  0  0  0  0
    7.5243  -15.8503   21.7336 C   0  0  1  0  0  0  0  0  0  0  0  0
    7.9677  -17.2918   21.6658 C   0  0  0  0  0  0  0  0  0  0  0  0
    7.3544  -18.0824   20.5579 C   0  0  0  0  0  0  0  0  0  0  0  0
    7.8339  -19.5157   20.5497 C   0  0  0  0  0  0  0  0  0  0  0  0
    7.1579  -20.3332   19.4811 C   0  0  0  0  0  0  0  0  0  0  0  0
    7.6192  -21.6906   19.4849 N   0  0  0  0  0  0  0  0  0  0  0  0
    8.2413  -15.1901   22.8694 C   0  0  0  0  0  0  0  0  0  0  0  0
    9.4639  -14.9215   22.7494 O   0  0  0  0  0  0  0  0  0  0  0  0
    5.7607  -11.7995   26.3208 C   0  0  0  0  0  0  0  0  0  0  0  0
    6.7861  -12.3831   25.3763 C   0  0  0  0  0  0  0  0  0  0  0  0
    7.4417  -13.5579   26.1078 C   0  0  2  0  0  0  0  0  0  0  0  0
    8.2292  -12.9518   27.2493 C   0  0  0  0  0  0  0  0  0  0  0  0
    8.4076  -14.2663   25.1739 C   0  0  2  0  0  0  0  0  0  0  0  0
    7.6195  -14.8508   24.0724 N   0  0  0  0  0  0  0  0  0  0  0  0
    9.0690  -15.3535   25.9193 C   0  0  0  0  0  0  0  0  0  0  0  0
    8.2968  -16.2782   26.3826 O   0  0  0  0  0  0  0  0  0  0  0  0
   10.4403  -15.5049   26.1791 N   0  0  0  0  0  0  0  0  0  0  0  0
   10.9540  -16.7306   26.8512 C   0  0  1  0  0  0  0  0  0  0  0  0
   12.3355  -16.9891   26.3511 C   0  0  0  0  0  0  0  0  0  0  0  0
   12.5757  -16.8624   24.8992 C   0  0  0  0  0  0  0  0  0  0  0  0
   13.9380  -17.1501   24.4796 C   0  0  0  0  0  0  0  0  0  0  0  0
   14.9503  -16.4788   24.8163 O   0  0  0  0  0  0  0  0  0  0  0  0
   10.7334  -16.5615   28.2727 C   0  0  0  0  0  0  0  0  0  0  0  0
   10.4401  -15.4697   28.8208 O   0  0  0  0  0  0  0  0  0  0  0  0
   14.1561  -18.2567   23.6423 O   0  0  0  0  0  0  0  0  0  0  0  0
   10.8314  -17.6376   29.1815 O   0  0  0  0  0  0  0  0  0  0  0  0
  2  1  1  6
  3  2  1  0
  4  3  1  0
  5  4  1  0
  5  6  1  0
  7  6  1  0
  8  9  2  0
  8  2  1  0
 11 10  1  0
 12 14  1  0
 12 11  1  0
 12 13  1  1
 14 15  1  6
 15  8  1  0
 16 14  1  0
 17 16  2  0
 18 16  1  0
 19 24  1  0
 19 18  1  0
 19 20  1  1
 21 20  1  0
 22 21  1  0
 23 22  2  0
 24 27  1  0
 25 24  2  0
 26 22  1  0
M  END
$$$$
