KIE.pdb
     RDKit          3D

 27 26  0  0  1  0  0  0  0  0999 V2000
    6.6254  -16.0180   21.7183 N   0  0  0  0  0  0  0  0  0  0  0  0
    8.0784  -16.1468   21.6919 C   0  0  1  0  0  0  0  0  0  0  0  0
    8.5362  -15.3746   20.4781 C   0  0  0  0  0  0  0  0  0  0  0  0
    7.9508  -15.8385   19.1854 C   0  0  0  0  0  0  0  0  0  0  0  0
    8.9545  -16.5951   18.3462 C   0  0  0  0  0  0  0  0  0  0  0  0
    8.4122  -16.9344   16.9831 C   0  0  0  0  0  0  0  0  0  0  0  0
    9.4656  -17.2059   16.0493 N   0  0  0  0  0  0  0  0  0  0  0  0
    8.6668  -15.5037   22.9085 C   0  0  0  0  0  0  0  0  0  0  0  0
    9.9139  -15.3617   22.9846 O   0  0  0  0  0  0  0  0  0  0  0  0
    6.1015  -11.7640   25.9222 C   0  0  0  0  0  0  0  0  0  0  0  0
    7.2316  -12.4560   25.1955 C   0  0  0  0  0  0  0  0  0  0  0  0
    7.5432  -13.7340   25.9795 C   0  0  2  0  0  0  0  0  0  0  0  0
    8.1760  -13.2831   27.2783 C   0  0  0  0  0  0  0  0  0  0  0  0
    8.5527  -14.5705   25.2124 C   0  0  2  0  0  0  0  0  0  0  0  0
    7.8970  -15.0457   23.9794 N   0  0  0  0  0  0  0  0  0  0  0  0
    8.9216  -15.7352   26.0384 C   0  0  0  0  0  0  0  0  0  0  0  0
    7.9735  -16.5710   26.3002 O   0  0  0  0  0  0  0  0  0  0  0  0
   10.1839  -16.0457   26.5687 N   0  0  0  0  0  0  0  0  0  0  0  0
   10.4558  -17.3938   27.1399 C   0  0  1  0  0  0  0  0  0  0  0  0
   11.3023  -18.1465   26.1691 C   0  0  0  0  0  0  0  0  0  0  0  0
   11.7656  -19.4931   26.5612 C   0  0  0  0  0  0  0  0  0  0  0  0
   12.5855  -20.1685   25.5680 C   0  0  0  0  0  0  0  0  0  0  0  0
   12.8911  -19.6895   24.4429 O   0  0  0  0  0  0  0  0  0  0  0  0
   10.9327  -17.1953   28.4931 C   0  0  0  0  0  0  0  0  0  0  0  0
   11.3345  -16.0961   28.9501 O   0  0  0  0  0  0  0  0  0  0  0  0
   13.0834  -21.4458   25.8741 O   0  0  0  0  0  0  0  0  0  0  0  0
   10.9852  -18.2473   29.4332 O   0  0  0  0  0  0  0  0  0  0  0  0
  2  1  1  1
  3  2  1  0
  4  3  1  0
  5  4  1  0
  5  6  1  0
  7  6  1  0
  8  9  2  0
  8  2  1  0
 11 10  1  0
 12 14  1  0
 12 11  1  0
 12 13  1  1
 14 15  1  6
 15  8  1  0
 16 14  1  0
 17 16  2  0
 18 16  1  0
 19 24  1  0
 19 18  1  0
 19 20  1  6
 21 20  1  0
 22 21  1  0
 23 22  2  0
 24 27  1  0
 25 24  2  0
 26 22  1  0
M  END
$$$$
