KIE.pdb
     RDKit          3D

 27 26  0  0  1  0  0  0  0  0999 V2000
    6.8351  -15.3362   21.3388 N   0  0  0  0  0  0  0  0  0  0  0  0
    7.8597  -16.2392   21.8521 C   0  0  1  0  0  0  0  0  0  0  0  0
    8.8572  -16.4065   20.7313 C   0  0  0  0  0  0  0  0  0  0  0  0
    8.3270  -17.1033   19.5222 C   0  0  0  0  0  0  0  0  0  0  0  0
    9.4144  -17.4014   18.5157 C   0  0  0  0  0  0  0  0  0  0  0  0
    8.8644  -17.9990   17.2477 C   0  0  0  0  0  0  0  0  0  0  0  0
    9.8703  -18.0947   16.2306 N   0  0  0  0  0  0  0  0  0  0  0  0
    8.5587  -15.6054   23.0138 C   0  0  0  0  0  0  0  0  0  0  0  0
    9.8141  -15.6491   23.0723 O   0  0  0  0  0  0  0  0  0  0  0  0
    6.1774  -11.6475   25.8815 C   0  0  0  0  0  0  0  0  0  0  0  0
    7.2749  -12.3681   25.1329 C   0  0  0  0  0  0  0  0  0  0  0  0
    7.7039  -13.5493   26.0078 C   0  0  2  0  0  0  0  0  0  0  0  0
    8.4768  -12.9531   27.1644 C   0  0  0  0  0  0  0  0  0  0  0  0
    8.6324  -14.4576   25.2204 C   0  0  2  0  0  0  0  0  0  0  0  0
    7.8849  -14.9585   24.0514 N   0  0  0  0  0  0  0  0  0  0  0  0
    9.0075  -15.5997   26.0746 C   0  0  0  0  0  0  0  0  0  0  0  0
    8.0418  -16.3653   26.4584 O   0  0  0  0  0  0  0  0  0  0  0  0
   10.2921  -15.9564   26.5149 N   0  0  0  0  0  0  0  0  0  0  0  0
   10.5109  -17.2210   27.2703 C   0  0  1  0  0  0  0  0  0  0  0  0
   11.5563  -18.0116   26.5578 C   0  0  0  0  0  0  0  0  0  0  0  0
   12.0820  -19.2178   27.2289 C   0  0  0  0  0  0  0  0  0  0  0  0
   13.1318  -19.9117   26.5001 C   0  0  0  0  0  0  0  0  0  0  0  0
   14.3648  -19.7997   26.7362 O   0  0  0  0  0  0  0  0  0  0  0  0
   10.7169  -16.8587   28.6575 C   0  0  0  0  0  0  0  0  0  0  0  0
   10.7247  -17.6766   29.6112 O   0  0  0  0  0  0  0  0  0  0  0  0
   12.7579  -20.7765   25.4582 O   0  0  0  0  0  0  0  0  0  0  0  0
   10.9323  -15.5231   29.0612 O   0  0  0  0  0  0  0  0  0  0  0  0
  2  1  1  6
  3  2  1  0
  4  3  1  0
  5  4  1  0
  5  6  1  0
  7  6  1  0
  8  9  2  0
  8  2  1  0
 11 10  1  0
 12 14  1  0
 12 11  1  0
 12 13  1  1
 14 15  1  6
 15  8  1  0
 16 14  1  0
 17 16  2  0
 18 16  1  0
 19 24  1  0
 19 18  1  0
 19 20  1  6
 21 20  1  0
 22 21  1  0
 23 22  2  0
 24 27  1  0
 25 24  2  0
 26 22  1  0
M  END
$$$$
