IPM.pdb
     RDKit          3D

 24 24  0  0  1  0  0  0  0  0999 V2000
    8.0160  -12.1707   27.0191 C   0  0  0  0  0  0  0  0  0  0  0  0
    7.4739  -13.5895   26.8565 C   0  0  0  0  0  0  0  0  0  0  0  0
    6.7153  -13.6057   25.5513 C   0  0  2  0  0  0  0  0  0  0  0  0
    5.4144  -12.8428   25.7933 C   0  0  0  0  0  0  0  0  0  0  0  0
    6.3277  -15.0010   25.1135 C   0  0  2  0  0  0  0  0  0  0  0  0
    5.7448  -15.7433   26.1781 N   0  0  0  0  0  0  0  0  0  0  0  0
    7.4232  -15.6967   24.4166 C   0  0  0  0  0  0  0  0  0  0  0  0
    8.0538  -16.6357   24.9810 O   0  0  0  0  0  0  0  0  0  0  0  0
    7.8223  -15.3387   23.0669 N   0  0  0  0  0  0  0  0  0  0  0  0
    7.0534  -14.4410   22.2392 C   0  0  0  0  0  0  0  0  0  0  0  0
    7.7276  -14.4480   20.8628 C   0  0  0  0  0  0  0  0  0  0  0  0
    9.1401  -14.8541   21.1985 C   0  0  0  0  0  0  0  0  0  0  0  0
    8.9644  -15.7823   22.3608 C   0  0  1  0  0  0  0  0  0  0  0  0
   10.2241  -15.6876   23.1846 C   0  0  0  0  0  0  0  0  0  0  0  0
   11.0447  -14.7513   23.1010 O   0  0  0  0  0  0  0  0  0  0  0  0
   10.9596  -12.8492   28.1452 C   0  0  0  0  0  0  0  0  0  0  0  0
   11.2966  -14.4877   28.8465 S   0  0  0  0  0  0  0  0  0  0  0  0
   11.8618  -15.5668   27.5422 C   0  0  0  0  0  0  0  0  0  0  0  0
   10.9423  -15.6986   26.3653 C   0  0  0  0  0  0  0  0  0  0  0  0
   11.4356  -16.5190   25.2270 C   0  0  2  0  0  0  0  0  0  0  0  0
   10.5366  -16.7202   24.1380 N   0  0  0  0  0  0  0  0  0  0  0  0
   11.7960  -17.8631   25.7706 C   0  0  0  0  0  0  0  0  0  0  0  0
   11.0973  -19.0051   25.4191 O   0  0  0  0  0  0  0  0  0  0  0  0
   12.7562  -17.9898   26.5716 O   0  0  0  0  0  0  0  0  0  0  0  0
  2  3  1  0
  2  1  1  0
  3  5  1  0
  3  4  1  1
  5  6  1  1
  7  5  1  0
  8  7  2  0
  9  7  1  0
  9 10  1  0
 10 11  1  0
 12 11  1  0
 13 12  1  0
 13  9  1  0
 13 14  1  1
 15 14  2  0
 17 16  1  0
 17 18  1  0
 18 19  1  0
 20 19  1  1
 20 21  1  0
 21 14  1  0
 22 20  1  0
 22 23  1  0
 24 22  2  0
M  END
$$$$
