IPM.pdb
     RDKit          3D

 24 24  0  0  1  0  0  0  0  0999 V2000
   11.2808  -14.9915   30.1563 C   0  0  0  0  0  0  0  0  0  0  0  0
    9.8991  -15.6385   30.0806 C   0  0  0  0  0  0  0  0  0  0  0  0
    9.5337  -15.6857   28.6165 C   0  0  2  0  0  0  0  0  0  0  0  0
    9.5087  -14.2393   28.1263 C   0  0  0  0  0  0  0  0  0  0  0  0
    8.1524  -16.2527   28.3730 C   0  0  2  0  0  0  0  0  0  0  0  0
    8.0574  -17.6071   28.7980 N   0  0  0  0  0  0  0  0  0  0  0  0
    7.6800  -16.0128   26.9985 C   0  0  0  0  0  0  0  0  0  0  0  0
    7.5796  -16.9665   26.1749 O   0  0  0  0  0  0  0  0  0  0  0  0
    7.3135  -14.6863   26.5347 N   0  0  0  0  0  0  0  0  0  0  0  0
    7.2820  -13.5370   27.4067 C   0  0  0  0  0  0  0  0  0  0  0  0
    6.7104  -12.3852   26.5727 C   0  0  0  0  0  0  0  0  0  0  0  0
    7.0410  -12.8121   25.1651 C   0  0  0  0  0  0  0  0  0  0  0  0
    6.9388  -14.3052   25.2254 C   0  0  1  0  0  0  0  0  0  0  0  0
    7.8782  -14.8460   24.1768 C   0  0  0  0  0  0  0  0  0  0  0  0
    8.9695  -15.3945   24.4327 O   0  0  0  0  0  0  0  0  0  0  0  0
    8.1967  -11.4191   18.0795 C   0  0  0  0  0  0  0  0  0  0  0  0
    7.8430  -13.1839   18.3036 S   0  0  0  0  0  0  0  0  0  0  0  0
    8.2404  -13.6419   19.9821 C   0  0  0  0  0  0  0  0  0  0  0  0
    7.9427  -15.0634   20.3543 C   0  0  0  0  0  0  0  0  0  0  0  0
    8.2281  -15.4544   21.7607 C   0  0  2  0  0  0  0  0  0  0  0  0
    7.5325  -14.7434   22.7830 N   0  0  0  0  0  0  0  0  0  0  0  0
    9.6915  -15.2585   21.9886 C   0  0  0  0  0  0  0  0  0  0  0  0
   10.1751  -14.2615   22.8181 O   0  0  0  0  0  0  0  0  0  0  0  0
   10.5299  -16.0056   21.4241 O   0  0  0  0  0  0  0  0  0  0  0  0
  2  3  1  0
  2  1  1  0
  3  5  1  0
  3  4  1  1
  5  6  1  6
  7  5  1  0
  8  7  2  0
  9  7  1  0
  9 10  1  0
 10 11  1  0
 12 11  1  0
 13 12  1  0
 13  9  1  0
 13 14  1  6
 15 14  2  0
 17 16  1  0
 17 18  1  0
 18 19  1  0
 20 19  1  6
 20 21  1  0
 21 14  1  0
 22 20  1  0
 22 23  1  0
 24 22  2  0
M  END
$$$$
