IPM.pdb
     RDKit          3D

 24 24  0  0  1  0  0  0  0  0999 V2000
    6.0586  -11.0833   26.7377 C   0  0  0  0  0  0  0  0  0  0  0  0
    5.5171  -12.3507   26.0791 C   0  0  0  0  0  0  0  0  0  0  0  0
    6.7193  -13.2007   25.7450 C   0  0  2  0  0  0  0  0  0  0  0  0
    7.5022  -12.4465   24.6721 C   0  0  0  0  0  0  0  0  0  0  0  0
    6.3453  -14.5409   25.1510 C   0  0  2  0  0  0  0  0  0  0  0  0
    5.4881  -15.2782   26.0145 N   0  0  0  0  0  0  0  0  0  0  0  0
    7.5191  -15.2921   24.6740 C   0  0  0  0  0  0  0  0  0  0  0  0
    8.2071  -15.9898   25.4729 O   0  0  0  0  0  0  0  0  0  0  0  0
    7.9329  -15.2647   23.2822 N   0  0  0  0  0  0  0  0  0  0  0  0
    7.2006  -14.5489   22.2657 C   0  0  0  0  0  0  0  0  0  0  0  0
    7.8748  -14.8933   20.9330 C   0  0  0  0  0  0  0  0  0  0  0  0
    9.2699  -15.2667   21.3653 C   0  0  0  0  0  0  0  0  0  0  0  0
    9.0570  -15.9002   22.7057 C   0  0  1  0  0  0  0  0  0  0  0  0
   10.3189  -15.6699   23.4987 C   0  0  0  0  0  0  0  0  0  0  0  0
   11.0619  -14.6775   23.3565 O   0  0  0  0  0  0  0  0  0  0  0  0
    9.6205  -14.8328   29.1060 C   0  0  0  0  0  0  0  0  0  0  0  0
   11.1553  -14.1055   28.4696 S   0  0  0  0  0  0  0  0  0  0  0  0
   11.3825  -14.6292   26.7786 C   0  0  0  0  0  0  0  0  0  0  0  0
   11.8990  -16.0248   26.5958 C   0  0  0  0  0  0  0  0  0  0  0  0
   11.9619  -16.5308   25.1986 C   0  0  2  0  0  0  0  0  0  0  0  0
   10.7274  -16.6298   24.4909 N   0  0  0  0  0  0  0  0  0  0  0  0
   12.5668  -17.8960   25.2467 C   0  0  0  0  0  0  0  0  0  0  0  0
   13.8583  -18.1078   25.6972 O   0  0  0  0  0  0  0  0  0  0  0  0
   11.9071  -18.8987   24.8736 O   0  0  0  0  0  0  0  0  0  0  0  0
  2  3  1  0
  2  1  1  0
  3  5  1  0
  3  4  1  6
  5  6  1  1
  7  5  1  0
  8  7  2  0
  9  7  1  0
  9 10  1  0
 10 11  1  0
 12 11  1  0
 13 12  1  0
 13  9  1  0
 13 14  1  1
 15 14  2  0
 17 16  1  0
 17 18  1  0
 18 19  1  0
 20 19  1  1
 20 21  1  0
 21 14  1  0
 22 20  1  0
 22 23  1  0
 24 22  2  0
M  END
$$$$
