IPM.pdb
     RDKit          3D

 24 24  0  0  1  0  0  0  0  0999 V2000
    7.5670  -11.8718   19.5336 C   0  0  0  0  0  0  0  0  0  0  0  0
    7.6637  -13.3834   19.3365 C   0  0  0  0  0  0  0  0  0  0  0  0
    7.7812  -13.9835   20.7169 C   0  0  2  0  0  0  0  0  0  0  0  0
    9.1480  -13.5685   21.2580 C   0  0  0  0  0  0  0  0  0  0  0  0
    7.7579  -15.4961   20.7047 C   0  0  2  0  0  0  0  0  0  0  0  0
    6.6511  -15.9991   19.9658 N   0  0  0  0  0  0  0  0  0  0  0  0
    7.9002  -16.0719   22.0530 C   0  0  0  0  0  0  0  0  0  0  0  0
    7.1276  -15.7203   22.9898 O   0  0  0  0  0  0  0  0  0  0  0  0
    8.9220  -17.0566   22.3619 N   0  0  0  0  0  0  0  0  0  0  0  0
    9.6460  -17.7747   21.3410 C   0  0  0  0  0  0  0  0  0  0  0  0
   10.5082  -18.8067   22.0764 C   0  0  0  0  0  0  0  0  0  0  0  0
   10.6624  -18.1836   23.4405 C   0  0  0  0  0  0  0  0  0  0  0  0
    9.3617  -17.4685   23.6413 C   0  0  1  0  0  0  0  0  0  0  0  0
    9.6450  -16.3034   24.5560 C   0  0  0  0  0  0  0  0  0  0  0  0
   10.3074  -15.2995   24.2238 O   0  0  0  0  0  0  0  0  0  0  0  0
    6.4743  -11.3493   25.5325 C   0  0  0  0  0  0  0  0  0  0  0  0
    6.6208  -12.9729   26.3279 S   0  0  0  0  0  0  0  0  0  0  0  0
    8.3220  -13.2299   26.8023 C   0  0  0  0  0  0  0  0  0  0  0  0
    8.6062  -14.5097   27.5298 C   0  0  0  0  0  0  0  0  0  0  0  0
    9.6095  -15.4161   26.9101 C   0  0  2  0  0  0  0  0  0  0  0  0
    9.1382  -16.3101   25.9036 N   0  0  0  0  0  0  0  0  0  0  0  0
   10.2017  -16.2402   28.0064 C   0  0  0  0  0  0  0  0  0  0  0  0
   10.9364  -15.6721   29.0327 O   0  0  0  0  0  0  0  0  0  0  0  0
   10.0441  -17.4871   28.0225 O   0  0  0  0  0  0  0  0  0  0  0  0
  2  3  1  0
  2  1  1  0
  3  5  1  0
  3  4  1  6
  5  6  1  1
  7  5  1  0
  8  7  2  0
  9  7  1  0
  9 10  1  0
 10 11  1  0
 12 11  1  0
 13 12  1  0
 13  9  1  0
 13 14  1  1
 15 14  2  0
 17 16  1  0
 17 18  1  0
 18 19  1  0
 20 19  1  1
 20 21  1  0
 21 14  1  0
 22 20  1  0
 22 23  1  0
 24 22  2  0
M  END
$$$$
