IPM.pdb
     RDKit          3D

 24 24  0  0  1  0  0  0  0  0999 V2000
    6.2241  -11.6528   27.3039 C   0  0  0  0  0  0  0  0  0  0  0  0
    5.6171  -12.7915   26.4866 C   0  0  0  0  0  0  0  0  0  0  0  0
    6.7785  -13.5931   25.9499 C   0  0  2  0  0  0  0  0  0  0  0  0
    7.5447  -12.6709   25.0037 C   0  0  0  0  0  0  0  0  0  0  0  0
    6.3404  -14.7891   25.1335 C   0  0  2  0  0  0  0  0  0  0  0  0
    5.4143  -15.6012   25.8456 N   0  0  0  0  0  0  0  0  0  0  0  0
    7.4793  -15.5265   24.5601 C   0  0  0  0  0  0  0  0  0  0  0  0
    8.1790  -16.2949   25.2800 O   0  0  0  0  0  0  0  0  0  0  0  0
    7.8444  -15.4046   23.1598 N   0  0  0  0  0  0  0  0  0  0  0  0
    7.0151  -14.7240   22.1948 C   0  0  0  0  0  0  0  0  0  0  0  0
    7.6768  -14.9490   20.8307 C   0  0  0  0  0  0  0  0  0  0  0  0
    9.1142  -15.2019   21.2082 C   0  0  0  0  0  0  0  0  0  0  0  0
    9.0054  -15.9050   22.5262 C   0  0  1  0  0  0  0  0  0  0  0  0
   10.2639  -15.5846   23.2930 C   0  0  0  0  0  0  0  0  0  0  0  0
   10.7576  -14.4418   23.3789 O   0  0  0  0  0  0  0  0  0  0  0  0
   11.3281  -13.3904   27.9855 C   0  0  0  0  0  0  0  0  0  0  0  0
   10.7708  -15.0628   28.4126 S   0  0  0  0  0  0  0  0  0  0  0  0
   11.1246  -16.1541   27.0454 C   0  0  0  0  0  0  0  0  0  0  0  0
   12.0159  -15.5904   25.9797 C   0  0  0  0  0  0  0  0  0  0  0  0
   12.1566  -16.3970   24.7379 C   0  0  2  0  0  0  0  0  0  0  0  0
   10.9699  -16.6329   23.9826 N   0  0  0  0  0  0  0  0  0  0  0  0
   12.7143  -17.7260   25.1314 C   0  0  0  0  0  0  0  0  0  0  0  0
   13.9976  -17.8609   25.6320 O   0  0  0  0  0  0  0  0  0  0  0  0
   12.0208  -18.7677   25.0152 O   0  0  0  0  0  0  0  0  0  0  0  0
  2  3  1  0
  2  1  1  0
  3  5  1  0
  3  4  1  6
  5  6  1  1
  7  5  1  0
  8  7  2  0
  9  7  1  0
  9 10  1  0
 10 11  1  0
 12 11  1  0
 13 12  1  0
 13  9  1  0
 13 14  1  1
 15 14  2  0
 17 16  1  0
 17 18  1  0
 18 19  1  0
 20 19  1  1
 20 21  1  0
 21 14  1  0
 22 20  1  0
 22 23  1  0
 24 22  2  0
M  END
$$$$
