IPM.pdb
     RDKit          3D

 24 24  0  0  1  0  0  0  0  0999 V2000
   12.0965  -16.3048   16.5842 C   0  0  0  0  0  0  0  0  0  0  0  0
   11.2399  -15.1127   17.0065 C   0  0  0  0  0  0  0  0  0  0  0  0
   11.1100  -15.1959   18.5084 C   0  0  2  0  0  0  0  0  0  0  0  0
   10.3997  -16.5134   18.8124 C   0  0  0  0  0  0  0  0  0  0  0  0
   10.2502  -14.0933   19.0863 C   0  0  2  0  0  0  0  0  0  0  0  0
   10.7048  -12.8065   18.6846 N   0  0  0  0  0  0  0  0  0  0  0  0
   10.0478  -14.2402   20.5379 C   0  0  0  0  0  0  0  0  0  0  0  0
   10.9984  -14.0366   21.3460 O   0  0  0  0  0  0  0  0  0  0  0  0
    8.7630  -14.6207   21.0979 N   0  0  0  0  0  0  0  0  0  0  0  0
    7.5918  -14.8382   20.2837 C   0  0  0  0  0  0  0  0  0  0  0  0
    6.4326  -15.0721   21.2588 C   0  0  0  0  0  0  0  0  0  0  0  0
    7.1442  -15.5701   22.4910 C   0  0  0  0  0  0  0  0  0  0  0  0
    8.4455  -14.8291   22.4601 C   0  0  1  0  0  0  0  0  0  0  0  0
    9.4570  -15.7012   23.1607 C   0  0  0  0  0  0  0  0  0  0  0  0
    9.9262  -16.7522   22.6786 O   0  0  0  0  0  0  0  0  0  0  0  0
    9.6914  -13.1611   29.7167 C   0  0  0  0  0  0  0  0  0  0  0  0
   10.9260  -14.2376   28.9378 S   0  0  0  0  0  0  0  0  0  0  0  0
   10.2662  -14.8486   27.3962 C   0  0  0  0  0  0  0  0  0  0  0  0
   11.2024  -15.6845   26.5760 C   0  0  0  0  0  0  0  0  0  0  0  0
   10.6597  -16.2348   25.3052 C   0  0  2  0  0  0  0  0  0  0  0  0
    9.9370  -15.3345   24.4676 N   0  0  0  0  0  0  0  0  0  0  0  0
    9.7406  -17.3570   25.6630 C   0  0  0  0  0  0  0  0  0  0  0  0
    8.3643  -17.2181   25.6150 O   0  0  0  0  0  0  0  0  0  0  0  0
   10.2027  -18.4696   26.0211 O   0  0  0  0  0  0  0  0  0  0  0  0
  2  3  1  0
  2  1  1  0
  3  5  1  0
  3  4  1  6
  5  6  1  1
  7  5  1  0
  8  7  2  0
  9  7  1  0
  9 10  1  0
 10 11  1  0
 12 11  1  0
 13 12  1  0
 13  9  1  0
 13 14  1  6
 15 14  2  0
 17 16  1  0
 17 18  1  0
 18 19  1  0
 20 19  1  1
 20 21  1  0
 21 14  1  0
 22 20  1  0
 22 23  1  0
 24 22  2  0
M  END
$$$$
