IPM.pdb
     RDKit          3D

 24 24  0  0  1  0  0  0  0  0999 V2000
    7.5763  -11.8592   27.0241 C   0  0  0  0  0  0  0  0  0  0  0  0
    7.2476  -13.3437   26.8773 C   0  0  0  0  0  0  0  0  0  0  0  0
    6.5488  -13.4929   25.5474 C   0  0  2  0  0  0  0  0  0  0  0  0
    5.1928  -12.8041   25.6874 C   0  0  0  0  0  0  0  0  0  0  0  0
    6.2700  -14.9358   25.1880 C   0  0  2  0  0  0  0  0  0  0  0  0
    5.7439  -15.6608   26.2933 N   0  0  0  0  0  0  0  0  0  0  0  0
    7.4167  -15.5828   24.5276 C   0  0  0  0  0  0  0  0  0  0  0  0
    8.1089  -16.4474   25.1370 O   0  0  0  0  0  0  0  0  0  0  0  0
    7.7981  -15.2598   23.1641 N   0  0  0  0  0  0  0  0  0  0  0  0
    7.0068  -14.4012   22.3163 C   0  0  0  0  0  0  0  0  0  0  0  0
    7.6693  -14.4390   20.9347 C   0  0  0  0  0  0  0  0  0  0  0  0
    9.0915  -14.8104   21.2699 C   0  0  0  0  0  0  0  0  0  0  0  0
    8.9417  -15.7053   22.4616 C   0  0  1  0  0  0  0  0  0  0  0  0
   10.2065  -15.5638   23.2708 C   0  0  0  0  0  0  0  0  0  0  0  0
   10.8554  -14.5029   23.3729 O   0  0  0  0  0  0  0  0  0  0  0  0
   11.6987  -13.0224   28.3167 C   0  0  0  0  0  0  0  0  0  0  0  0
   11.5679  -14.7634   28.8083 S   0  0  0  0  0  0  0  0  0  0  0  0
   12.0919  -15.7876   27.4439 C   0  0  0  0  0  0  0  0  0  0  0  0
   11.2075  -15.7576   26.2336 C   0  0  0  0  0  0  0  0  0  0  0  0
   11.6492  -16.5710   25.0692 C   0  0  2  0  0  0  0  0  0  0  0  0
   10.7316  -16.6985   23.9846 N   0  0  0  0  0  0  0  0  0  0  0  0
   11.9471  -17.9452   25.5740 C   0  0  0  0  0  0  0  0  0  0  0  0
   11.1732  -19.0372   25.2213 O   0  0  0  0  0  0  0  0  0  0  0  0
   12.9219  -18.1445   26.3419 O   0  0  0  0  0  0  0  0  0  0  0  0
  2  3  1  0
  2  1  1  0
  3  5  1  0
  3  4  1  1
  5  6  1  1
  7  5  1  0
  8  7  2  0
  9  7  1  0
  9 10  1  0
 10 11  1  0
 12 11  1  0
 13 12  1  0
 13  9  1  0
 13 14  1  1
 15 14  2  0
 17 16  1  0
 17 18  1  0
 18 19  1  0
 20 19  1  1
 20 21  1  0
 21 14  1  0
 22 20  1  0
 22 23  1  0
 24 22  2  0
M  END
$$$$
