IPM.pdb
     RDKit          3D

 24 24  0  0  1  0  0  0  0  0999 V2000
    6.1072  -11.2112   26.8435 C   0  0  0  0  0  0  0  0  0  0  0  0
    5.5219  -12.4764   26.2190 C   0  0  0  0  0  0  0  0  0  0  0  0
    6.6925  -13.2620   25.6784 C   0  0  2  0  0  0  0  0  0  0  0  0
    7.3135  -12.4129   24.5710 C   0  0  0  0  0  0  0  0  0  0  0  0
    6.2792  -14.5717   25.0440 C   0  0  2  0  0  0  0  0  0  0  0  0
    5.4121  -15.3161   25.8914 N   0  0  0  0  0  0  0  0  0  0  0  0
    7.4290  -15.3354   24.5299 C   0  0  0  0  0  0  0  0  0  0  0  0
    8.1430  -16.0295   25.3087 O   0  0  0  0  0  0  0  0  0  0  0  0
    7.7889  -15.3246   23.1229 N   0  0  0  0  0  0  0  0  0  0  0  0
    6.9945  -14.6564   22.1206 C   0  0  0  0  0  0  0  0  0  0  0  0
    7.6296  -15.0070   20.7705 C   0  0  0  0  0  0  0  0  0  0  0  0
    9.0521  -15.3235   21.1565 C   0  0  0  0  0  0  0  0  0  0  0  0
    8.9118  -15.9342   22.5169 C   0  0  1  0  0  0  0  0  0  0  0  0
   10.1940  -15.6440   23.2561 C   0  0  0  0  0  0  0  0  0  0  0  0
   10.6438  -14.4964   23.4503 O   0  0  0  0  0  0  0  0  0  0  0  0
   10.4702  -14.2756   29.1902 C   0  0  0  0  0  0  0  0  0  0  0  0
   12.0021  -14.6294   28.2859 S   0  0  0  0  0  0  0  0  0  0  0  0
   11.8426  -16.2146   27.4815 C   0  0  0  0  0  0  0  0  0  0  0  0
   11.0373  -16.2219   26.2169 C   0  0  0  0  0  0  0  0  0  0  0  0
   11.7572  -16.6102   24.9745 C   0  0  2  0  0  0  0  0  0  0  0  0
   10.9774  -16.7294   23.7862 N   0  0  0  0  0  0  0  0  0  0  0  0
   12.4006  -17.9343   25.2285 C   0  0  0  0  0  0  0  0  0  0  0  0
   11.7183  -19.1251   25.0482 O   0  0  0  0  0  0  0  0  0  0  0  0
   13.5939  -17.9987   25.6176 O   0  0  0  0  0  0  0  0  0  0  0  0
  2  3  1  0
  2  1  1  0
  3  5  1  0
  3  4  1  6
  5  6  1  1
  7  5  1  0
  8  7  2  0
  9  7  1  0
  9 10  1  0
 10 11  1  0
 12 11  1  0
 13 12  1  0
 13  9  1  0
 13 14  1  1
 15 14  2  0
 17 16  1  0
 17 18  1  0
 18 19  1  0
 20 19  1  1
 20 21  1  0
 21 14  1  0
 22 20  1  0
 22 23  1  0
 24 22  2  0
M  END
$$$$
