EDR.pdb
     RDKit          3D

 29 28  0  0  1  0  0  0  0  0999 V2000
   25.5723  -22.7995  -15.4049 N   0  0  0  0  0  0  0  0  0  0  0  0
   25.7084  -21.3893  -14.9613 C   0  0  1  0  0  0  0  0  0  0  0  0
   26.7616  -20.7283  -15.8082 C   0  0  0  0  0  0  0  0  0  0  0  0
   27.1064  -21.5775  -16.9878 C   0  0  0  0  0  0  0  0  0  0  0  0
   28.5464  -21.3682  -17.3970 C   0  0  0  0  0  0  0  0  0  0  0  0
   28.9572  -20.3287  -17.9552 O   0  0  0  0  0  0  0  0  0  0  0  0
   24.3885  -20.7834  -15.2201 C   0  0  0  0  0  0  0  0  0  0  0  0
   24.2006  -19.5879  -14.8724 O   0  0  0  0  0  0  0  0  0  0  0  0
   29.4436  -22.3850  -17.1352 O   0  0  0  0  0  0  0  0  0  0  0  0
   23.3088  -21.5016  -15.8520 N   0  0  0  0  0  0  0  0  0  0  0  0
   22.0372  -20.8435  -15.9589 C   0  0  1  0  0  0  0  0  0  0  0  0
   21.4711  -20.9626  -17.3432 C   0  0  0  0  0  0  0  0  0  0  0  0
   22.2960  -20.2015  -18.2842 C   0  0  0  0  0  0  0  0  0  0  0  0
   22.5689  -20.6284  -19.4537 O   0  0  0  0  0  0  0  0  0  0  0  0
   21.0372  -21.4674  -15.0338 C   0  0  0  0  0  0  0  0  0  0  0  0
   20.9243  -22.6849  -14.8435 O   0  0  0  0  0  0  0  0  0  0  0  0
   22.8129  -18.9764  -17.9247 O   0  0  0  0  0  0  0  0  0  0  0  0
   23.3994  -21.3074   -8.3029 N   0  0  0  0  0  0  0  0  0  0  0  0
   23.9513  -20.5761   -9.3864 C   0  0  0  0  0  0  0  0  0  0  0  0
   25.1849  -20.2014   -9.3414 N   0  0  0  0  0  0  0  0  0  0  0  0
   23.1034  -20.2844  -10.4920 N   0  0  0  0  0  0  0  0  0  0  0  0
   21.9123  -21.1117  -10.6670 C   0  0  0  0  0  0  0  0  0  0  0  0
   21.1847  -20.6706  -11.9285 C   0  0  0  0  0  0  0  0  0  0  0  0
   19.9689  -21.5390  -12.1346 C   0  0  0  0  0  0  0  0  0  0  0  0
   19.2167  -21.0706  -13.3464 C   0  0  2  0  0  0  0  0  0  0  0  0
   20.1640  -20.5896  -14.3318 N   0  0  0  0  0  0  0  0  0  0  0  0
   18.2786  -19.9711  -13.0071 C   0  0  0  0  0  0  0  0  0  0  0  0
   18.4135  -18.7951  -13.4425 O   0  0  0  0  0  0  0  0  0  0  0  0
   17.1834  -20.2007  -12.1728 O   0  0  0  0  0  0  0  0  0  0  0  0
  2  1  1  6
  2  7  1  0
  3  2  1  0
  3  4  1  0
  4  5  1  0
  5  6  2  0
  7  8  2  0
  9  5  1  0
 10  7  1  0
 10 11  1  0
 11 15  1  0
 12 13  1  0
 11 12  1  6
 13 17  1  0
 14 13  2  0
 15 26  1  0
 15 16  2  0
 19 18  1  0
 19 21  1  0
 20 19  2  0
 22 21  1  0
 23 22  1  0
 23 24  1  0
 25 24  1  1
 25 27  1  0
 26 25  1  0
 27 29  1  0
 28 27  2  0
M  END
$$$$
