EDR.pdb
     RDKit          3D

 29 28  0  0  1  0  0  0  0  0999 V2000
   26.9132  -22.6074  -16.8142 N   0  0  0  0  0  0  0  0  0  0  0  0
   25.9292  -21.5024  -16.9357 C   0  0  1  0  0  0  0  0  0  0  0  0
   25.3191  -21.5635  -18.3096 C   0  0  0  0  0  0  0  0  0  0  0  0
   25.9764  -22.6189  -19.1375 C   0  0  0  0  0  0  0  0  0  0  0  0
   24.9539  -23.5941  -19.6744 C   0  0  0  0  0  0  0  0  0  0  0  0
   24.2771  -23.3820  -20.7029 O   0  0  0  0  0  0  0  0  0  0  0  0
   24.9096  -21.7906  -15.9092 C   0  0  0  0  0  0  0  0  0  0  0  0
   25.0389  -22.8321  -15.2136 O   0  0  0  0  0  0  0  0  0  0  0  0
   24.7677  -24.7757  -18.9841 O   0  0  0  0  0  0  0  0  0  0  0  0
   23.7751  -20.9320  -15.6714 N   0  0  0  0  0  0  0  0  0  0  0  0
   22.9288  -21.2334  -14.5514 C   0  0  1  0  0  0  0  0  0  0  0  0
   22.4426  -19.9840  -13.8778 C   0  0  0  0  0  0  0  0  0  0  0  0
   21.7395  -20.3286  -12.6401 C   0  0  0  0  0  0  0  0  0  0  0  0
   21.7163  -21.5151  -12.1750 O   0  0  0  0  0  0  0  0  0  0  0  0
   21.7086  -21.9817  -14.9944 C   0  0  0  0  0  0  0  0  0  0  0  0
   20.7974  -21.4942  -15.6750 O   0  0  0  0  0  0  0  0  0  0  0  0
   21.0673  -19.3601  -11.9278 O   0  0  0  0  0  0  0  0  0  0  0  0
   18.3833  -25.1162   -8.1094 N   0  0  0  0  0  0  0  0  0  0  0  0
   17.4443  -25.6591   -9.0243 C   0  0  0  0  0  0  0  0  0  0  0  0
   16.4115  -26.2913   -8.5795 N   0  0  0  0  0  0  0  0  0  0  0  0
   17.6899  -25.4783  -10.4147 N   0  0  0  0  0  0  0  0  0  0  0  0
   18.9033  -24.7617  -10.7990 C   0  0  0  0  0  0  0  0  0  0  0  0
   18.9790  -24.6961  -12.3174 C   0  0  0  0  0  0  0  0  0  0  0  0
   20.2427  -23.9807  -12.7250 C   0  0  0  0  0  0  0  0  0  0  0  0
   20.3370  -23.9419  -14.2229 C   0  0  2  0  0  0  0  0  0  0  0  0
   21.6025  -23.3451  -14.5997 N   0  0  0  0  0  0  0  0  0  0  0  0
   19.2350  -23.1403  -14.8119 C   0  0  0  0  0  0  0  0  0  0  0  0
   18.0485  -23.5604  -14.8933 O   0  0  0  0  0  0  0  0  0  0  0  0
   19.4737  -21.8588  -15.3108 O   0  0  0  0  0  0  0  0  0  0  0  0
  2  1  1  6
  2  7  1  0
  3  2  1  0
  3  4  1  0
  4  5  1  0
  5  6  2  0
  7  8  2  0
  9  5  1  0
 10  7  1  0
 10 11  1  0
 11 15  1  0
 12 13  1  0
 11 12  1  6
 13 17  1  0
 14 13  2  0
 15 26  1  0
 15 16  2  0
 19 18  1  0
 19 21  1  0
 20 19  2  0
 22 21  1  0
 23 22  1  0
 23 24  1  0
 25 24  1  1
 25 27  1  0
 26 25  1  0
 27 29  1  0
 28 27  2  0
M  END
$$$$
