EDR.pdb
     RDKit          3D

 29 28  0  0  1  0  0  0  0  0999 V2000
   28.4382  -21.1804  -17.4118 N   0  0  0  0  0  0  0  0  0  0  0  0
   28.9401  -20.1738  -16.4429 C   0  0  1  0  0  0  0  0  0  0  0  0
   28.4135  -18.8245  -16.8498 C   0  0  0  0  0  0  0  0  0  0  0  0
   26.9634  -18.9024  -17.1996 C   0  0  0  0  0  0  0  0  0  0  0  0
   26.4463  -17.5545  -17.6476 C   0  0  0  0  0  0  0  0  0  0  0  0
   27.1856  -16.5674  -17.8468 O   0  0  0  0  0  0  0  0  0  0  0  0
   28.3646  -20.5784  -15.1463 C   0  0  0  0  0  0  0  0  0  0  0  0
   27.3019  -21.2537  -15.1481 O   0  0  0  0  0  0  0  0  0  0  0  0
   25.0857  -17.4203  -17.8431 O   0  0  0  0  0  0  0  0  0  0  0  0
   28.9667  -20.2331  -13.8818 N   0  0  0  0  0  0  0  0  0  0  0  0
   28.4203  -20.8267  -12.6941 C   0  0  1  0  0  0  0  0  0  0  0  0
   29.3003  -20.5841  -11.5033 C   0  0  0  0  0  0  0  0  0  0  0  0
   30.4130  -21.5363  -11.5059 C   0  0  0  0  0  0  0  0  0  0  0  0
   31.3876  -21.4505  -10.6889 O   0  0  0  0  0  0  0  0  0  0  0  0
   27.0858  -20.2288  -12.3675 C   0  0  0  0  0  0  0  0  0  0  0  0
   26.8439  -19.0152  -12.3674 O   0  0  0  0  0  0  0  0  0  0  0  0
   30.4401  -22.5739  -12.4113 O   0  0  0  0  0  0  0  0  0  0  0  0
   19.5490  -22.8644  -11.8421 N   0  0  0  0  0  0  0  0  0  0  0  0
   19.1445  -21.5920  -12.3225 C   0  0  0  0  0  0  0  0  0  0  0  0
   18.0014  -21.1098  -11.9689 N   0  0  0  0  0  0  0  0  0  0  0  0
   20.0341  -20.8946  -13.1876 N   0  0  0  0  0  0  0  0  0  0  0  0
   21.3634  -21.4643  -13.3920 C   0  0  0  0  0  0  0  0  0  0  0  0
   22.3319  -20.8260  -12.4071 C   0  0  0  0  0  0  0  0  0  0  0  0
   23.7320  -21.3034  -12.7013 C   0  0  0  0  0  0  0  0  0  0  0  0
   24.6922  -20.6679  -11.7379 C   0  0  2  0  0  0  0  0  0  0  0  0
   26.0333  -21.1280  -12.0371 N   0  0  0  0  0  0  0  0  0  0  0  0
   24.3646  -21.0261  -10.3349 C   0  0  0  0  0  0  0  0  0  0  0  0
   23.4263  -20.4841   -9.6895 O   0  0  0  0  0  0  0  0  0  0  0  0
   25.0996  -22.0005   -9.6579 O   0  0  0  0  0  0  0  0  0  0  0  0
  2  1  1  6
  2  7  1  0
  3  2  1  0
  3  4  1  0
  4  5  1  0
  5  6  2  0
  7  8  2  0
  9  5  1  0
 10  7  1  0
 10 11  1  0
 11 15  1  0
 12 13  1  0
 11 12  1  1
 13 17  1  0
 14 13  2  0
 15 26  1  0
 15 16  2  0
 19 18  1  0
 19 21  1  0
 20 19  2  0
 22 21  1  0
 23 22  1  0
 23 24  1  0
 25 24  1  6
 25 27  1  0
 26 25  1  0
 27 29  1  0
 28 27  2  0
M  END
$$$$
