EDR.pdb
     RDKit          3D

 29 28  0  0  1  0  0  0  0  0999 V2000
   19.6968  -21.7874  -10.3491 N   0  0  0  0  0  0  0  0  0  0  0  0
   19.6641  -22.0388  -11.8118 C   0  0  1  0  0  0  0  0  0  0  0  0
   18.3315  -21.5808  -12.3391 C   0  0  0  0  0  0  0  0  0  0  0  0
   17.2483  -22.5312  -11.9459 C   0  0  0  0  0  0  0  0  0  0  0  0
   15.9188  -22.0961  -12.5187 C   0  0  0  0  0  0  0  0  0  0  0  0
   14.9327  -21.7957  -11.8128 O   0  0  0  0  0  0  0  0  0  0  0  0
   20.7476  -21.2029  -12.3627 C   0  0  0  0  0  0  0  0  0  0  0  0
   21.0841  -20.1671  -11.7308 O   0  0  0  0  0  0  0  0  0  0  0  0
   15.8009  -22.0316  -13.8931 O   0  0  0  0  0  0  0  0  0  0  0  0
   21.4340  -21.5220  -13.5906 N   0  0  0  0  0  0  0  0  0  0  0  0
   22.4633  -20.6257  -14.0364 C   0  0  1  0  0  0  0  0  0  0  0  0
   23.7110  -21.3669  -14.4168 C   0  0  0  0  0  0  0  0  0  0  0  0
   24.7556  -20.4156  -14.8030 C   0  0  0  0  0  0  0  0  0  0  0  0
   24.5794  -19.1539  -14.7627 O   0  0  0  0  0  0  0  0  0  0  0  0
   22.0228  -19.8767  -15.2571 C   0  0  0  0  0  0  0  0  0  0  0  0
   21.4528  -20.3925  -16.2268 O   0  0  0  0  0  0  0  0  0  0  0  0
   25.9846  -20.8663  -15.2312 O   0  0  0  0  0  0  0  0  0  0  0  0
   17.8714  -13.7197  -16.5234 N   0  0  0  0  0  0  0  0  0  0  0  0
   18.4327  -13.7510  -15.2206 C   0  0  0  0  0  0  0  0  0  0  0  0
   17.6760  -13.5545  -14.1944 N   0  0  0  0  0  0  0  0  0  0  0  0
   19.8291  -14.0015  -15.1042 N   0  0  0  0  0  0  0  0  0  0  0  0
   20.6070  -14.0788  -16.3381 C   0  0  0  0  0  0  0  0  0  0  0  0
   20.7039  -15.5343  -16.7713 C   0  0  0  0  0  0  0  0  0  0  0  0
   21.7670  -16.2290  -15.9577 C   0  0  0  0  0  0  0  0  0  0  0  0
   21.9037  -17.6510  -16.4193 C   0  0  2  0  0  0  0  0  0  0  0  0
   22.2828  -18.4778  -15.2913 N   0  0  0  0  0  0  0  0  0  0  0  0
   22.9389  -17.7778  -17.4758 C   0  0  0  0  0  0  0  0  0  0  0  0
   24.1738  -17.8277  -17.2239 O   0  0  0  0  0  0  0  0  0  0  0  0
   22.5783  -17.8489  -18.8222 O   0  0  0  0  0  0  0  0  0  0  0  0
  2  1  1  1
  2  7  1  0
  3  2  1  0
  3  4  1  0
  4  5  1  0
  5  6  2  0
  7  8  2  0
  9  5  1  0
 10  7  1  0
 10 11  1  0
 11 15  1  0
 12 13  1  0
 11 12  1  6
 13 17  1  0
 14 13  2  0
 15 26  1  0
 15 16  2  0
 19 18  1  0
 19 21  1  0
 20 19  2  0
 22 21  1  0
 23 22  1  0
 23 24  1  0
 25 24  1  1
 25 27  1  0
 26 25  1  0
 27 29  1  0
 28 27  2  0
M  END
$$$$
