EDR.pdb
     RDKit          3D

 29 28  0  0  1  0  0  0  0  0999 V2000
   19.2124   -9.1642  -16.4953 N   0  0  0  0  0  0  0  0  0  0  0  0
   19.5960  -10.0241  -15.3475 C   0  0  1  0  0  0  0  0  0  0  0  0
   20.8358  -10.7884  -15.7248 C   0  0  0  0  0  0  0  0  0  0  0  0
   20.5650  -11.7111  -16.8679 C   0  0  0  0  0  0  0  0  0  0  0  0
   21.8434  -12.3579  -17.3498 C   0  0  0  0  0  0  0  0  0  0  0  0
   22.7754  -12.6886  -16.5863 O   0  0  0  0  0  0  0  0  0  0  0  0
   19.8893   -9.0814  -14.2513 C   0  0  0  0  0  0  0  0  0  0  0  0
   20.0737   -9.5464  -13.0958 O   0  0  0  0  0  0  0  0  0  0  0  0
   21.9757  -12.5899  -18.7048 O   0  0  0  0  0  0  0  0  0  0  0  0
   19.9727   -7.6549  -14.4482 N   0  0  0  0  0  0  0  0  0  0  0  0
   20.2255   -6.8326  -13.2987 C   0  0  1  0  0  0  0  0  0  0  0  0
   20.9770   -5.5875  -13.6679 C   0  0  0  0  0  0  0  0  0  0  0  0
   21.2588   -4.8022  -12.4641 C   0  0  0  0  0  0  0  0  0  0  0  0
   20.9191   -5.1919  -11.2991 O   0  0  0  0  0  0  0  0  0  0  0  0
   18.9397   -6.3852  -12.6729 C   0  0  0  0  0  0  0  0  0  0  0  0
   18.0246   -5.8182  -13.2830 O   0  0  0  0  0  0  0  0  0  0  0  0
   21.9121   -3.5933  -12.5580 O   0  0  0  0  0  0  0  0  0  0  0  0
   12.5969  -10.2436   -9.1775 N   0  0  0  0  0  0  0  0  0  0  0  0
   12.4130   -9.0033   -8.5132 C   0  0  0  0  0  0  0  0  0  0  0  0
   11.3924   -8.8373   -7.7417 N   0  0  0  0  0  0  0  0  0  0  0  0
   13.3796   -7.9817   -8.7329 N   0  0  0  0  0  0  0  0  0  0  0  0
   14.6329   -8.3647   -9.3780 C   0  0  0  0  0  0  0  0  0  0  0  0
   15.4836   -7.1200   -9.5840 C   0  0  0  0  0  0  0  0  0  0  0  0
   16.7613   -7.4984  -10.2906 C   0  0  0  0  0  0  0  0  0  0  0  0
   17.5646   -6.2618  -10.5722 C   0  0  2  0  0  0  0  0  0  0  0  0
   18.7714   -6.6357  -11.2820 N   0  0  0  0  0  0  0  0  0  0  0  0
   17.9434   -5.5672   -9.3160 C   0  0  0  0  0  0  0  0  0  0  0  0
   19.0612   -5.7267   -8.7540 O   0  0  0  0  0  0  0  0  0  0  0  0
   17.0564   -4.6887   -8.6920 O   0  0  0  0  0  0  0  0  0  0  0  0
  2  1  1  6
  2  7  1  0
  3  2  1  0
  3  4  1  0
  4  5  1  0
  5  6  2  0
  7  8  2  0
  9  5  1  0
 10  7  1  0
 10 11  1  0
 11 15  1  0
 12 13  1  0
 11 12  1  6
 13 17  1  0
 14 13  2  0
 15 26  1  0
 15 16  2  0
 19 18  1  0
 19 21  1  0
 20 19  2  0
 22 21  1  0
 23 22  1  0
 23 24  1  0
 25 24  1  1
 25 27  1  0
 26 25  1  0
 27 29  1  0
 28 27  2  0
M  END
$$$$
