EDR.pdb
     RDKit          3D

 29 28  0  0  1  0  0  0  0  0999 V2000
   15.5034  -21.0401    7.7706 N   0  0  0  0  0  0  0  0  0  0  0  0
   16.9144  -21.4831    7.6412 C   0  0  1  0  0  0  0  0  0  0  0  0
   17.3331  -21.3097    6.2066 C   0  0  0  0  0  0  0  0  0  0  0  0
   16.8911  -22.4720    5.3789 C   0  0  0  0  0  0  0  0  0  0  0  0
   17.9842  -23.5119    5.2869 C   0  0  0  0  0  0  0  0  0  0  0  0
   18.7363  -23.6314    4.2965 O   0  0  0  0  0  0  0  0  0  0  0  0
   17.6781  -20.5691    8.5117 C   0  0  0  0  0  0  0  0  0  0  0  0
   17.1799  -19.4449    8.7821 O   0  0  0  0  0  0  0  0  0  0  0  0
   18.1498  -24.3673    6.3585 O   0  0  0  0  0  0  0  0  0  0  0  0
   18.9670  -20.9092    9.0629 N   0  0  0  0  0  0  0  0  0  0  0  0
   19.5804  -19.9728    9.9620 C   0  0  1  0  0  0  0  0  0  0  0  0
   20.6523  -20.6233   10.7861 C   0  0  0  0  0  0  0  0  0  0  0  0
   20.1744  -20.8202   12.1564 C   0  0  0  0  0  0  0  0  0  0  0  0
   19.0655  -20.3455   12.5682 O   0  0  0  0  0  0  0  0  0  0  0  0
   20.2405  -18.8624    9.2029 C   0  0  0  0  0  0  0  0  0  0  0  0
   20.6713  -18.9641    8.0474 O   0  0  0  0  0  0  0  0  0  0  0  0
   20.9259  -21.5387   13.0599 O   0  0  0  0  0  0  0  0  0  0  0  0
   18.6132  -12.0505    5.9747 N   0  0  0  0  0  0  0  0  0  0  0  0
   20.0021  -11.7957    6.1146 C   0  0  0  0  0  0  0  0  0  0  0  0
   20.5983  -11.0253    5.2689 N   0  0  0  0  0  0  0  0  0  0  0  0
   20.6852  -12.4131    7.2002 N   0  0  0  0  0  0  0  0  0  0  0  0
   20.0810  -13.6060    7.7881 C   0  0  0  0  0  0  0  0  0  0  0  0
   20.8827  -14.0125    9.0159 C   0  0  0  0  0  0  0  0  0  0  0  0
   20.2447  -15.2221    9.6521 C   0  0  0  0  0  0  0  0  0  0  0  0
   20.9798  -16.4599    9.2265 C   0  0  2  0  0  0  0  0  0  0  0  0
   20.3747  -17.6105    9.8666 N   0  0  0  0  0  0  0  0  0  0  0  0
   22.4122  -16.3957    9.6115 C   0  0  0  0  0  0  0  0  0  0  0  0
   22.8420  -16.8011   10.7258 O   0  0  0  0  0  0  0  0  0  0  0  0
   23.3631  -15.8716    8.7346 O   0  0  0  0  0  0  0  0  0  0  0  0
  2  1  1  6
  2  7  1  0
  3  2  1  0
  3  4  1  0
  4  5  1  0
  5  6  2  0
  7  8  2  0
  9  5  1  0
 10  7  1  0
 10 11  1  0
 11 15  1  0
 12 13  1  0
 11 12  1  6
 13 17  1  0
 14 13  2  0
 15 26  1  0
 15 16  2  0
 19 18  1  0
 19 21  1  0
 20 19  2  0
 22 21  1  0
 23 22  1  0
 23 24  1  0
 25 24  1  1
 25 27  1  0
 26 25  1  0
 27 29  1  0
 28 27  2  0
M  END
$$$$
