EDR.pdb
     RDKit          3D

 29 28  0  0  1  0  0  0  0  0999 V2000
   12.6939   -9.9789  -10.6141 N   0  0  0  0  0  0  0  0  0  0  0  0
   14.0756  -10.1790  -10.1094 C   0  0  1  0  0  0  0  0  0  0  0  0
   14.7116  -11.2872  -10.9037 C   0  0  0  0  0  0  0  0  0  0  0  0
   14.0938  -12.6051  -10.5679 C   0  0  0  0  0  0  0  0  0  0  0  0
   14.6622  -13.7017  -11.4393 C   0  0  0  0  0  0  0  0  0  0  0  0
   15.8871  -13.8729  -11.6155 O   0  0  0  0  0  0  0  0  0  0  0  0
   14.7625   -8.9004  -10.3733 C   0  0  0  0  0  0  0  0  0  0  0  0
   14.4334   -8.2447  -11.3966 O   0  0  0  0  0  0  0  0  0  0  0  0
   13.7720  -14.5507  -12.0670 O   0  0  0  0  0  0  0  0  0  0  0  0
   15.7915   -8.3732   -9.5108 N   0  0  0  0  0  0  0  0  0  0  0  0
   16.4203   -7.1401   -9.8926 C   0  0  1  0  0  0  0  0  0  0  0  0
   16.3779   -6.1340   -8.7804 C   0  0  0  0  0  0  0  0  0  0  0  0
   16.9738   -4.8733   -9.2283 C   0  0  0  0  0  0  0  0  0  0  0  0
   17.2245   -4.6338  -10.4548 O   0  0  0  0  0  0  0  0  0  0  0  0
   17.8671   -7.3595  -10.2147 C   0  0  0  0  0  0  0  0  0  0  0  0
   18.6322   -8.0694   -9.5499 O   0  0  0  0  0  0  0  0  0  0  0  0
   17.2884   -3.8890   -8.3176 O   0  0  0  0  0  0  0  0  0  0  0  0
   21.5170  -11.3821  -16.2578 N   0  0  0  0  0  0  0  0  0  0  0  0
   22.6641  -10.6977  -15.7791 C   0  0  0  0  0  0  0  0  0  0  0  0
   23.8224  -10.9647  -16.2803 N   0  0  0  0  0  0  0  0  0  0  0  0
   22.4805   -9.7318  -14.7497 N   0  0  0  0  0  0  0  0  0  0  0  0
   21.1148   -9.4749  -14.2998 C   0  0  0  0  0  0  0  0  0  0  0  0
   21.1319   -8.3330  -13.2943 C   0  0  0  0  0  0  0  0  0  0  0  0
   19.7315   -8.0893  -12.7898 C   0  0  0  0  0  0  0  0  0  0  0  0
   19.7350   -6.9265  -11.8402 C   0  0  2  0  0  0  0  0  0  0  0  0
   18.3843   -6.7018  -11.3660 N   0  0  0  0  0  0  0  0  0  0  0  0
   20.2220   -5.6906  -12.5029 C   0  0  0  0  0  0  0  0  0  0  0  0
   19.4597   -4.8956  -13.1174 O   0  0  0  0  0  0  0  0  0  0  0  0
   21.5754   -5.3509  -12.4715 O   0  0  0  0  0  0  0  0  0  0  0  0
  2  1  1  6
  2  7  1  0
  3  2  1  0
  3  4  1  0
  4  5  1  0
  5  6  2  0
  7  8  2  0
  9  5  1  0
 10  7  1  0
 10 11  1  0
 11 15  1  0
 12 13  1  0
 11 12  1  1
 13 17  1  0
 14 13  2  0
 15 26  1  0
 15 16  2  0
 19 18  1  0
 19 21  1  0
 20 19  2  0
 22 21  1  0
 23 22  1  0
 23 24  1  0
 25 24  1  6
 25 27  1  0
 26 25  1  0
 27 29  1  0
 28 27  2  0
M  END
$$$$
