EDR.pdb
     RDKit          3D

 29 28  0  0  1  0  0  0  0  0999 V2000
   26.9883  -12.1314  -21.6552 N   0  0  0  0  0  0  0  0  0  0  0  0
   25.7869  -12.0115  -20.7915 C   0  0  1  0  0  0  0  0  0  0  0  0
   26.0185  -12.8237  -19.5464 C   0  0  0  0  0  0  0  0  0  0  0  0
   25.8441  -14.2815  -19.8218 C   0  0  0  0  0  0  0  0  0  0  0  0
   24.5480  -14.7879  -19.2314 C   0  0  0  0  0  0  0  0  0  0  0  0
   24.3232  -14.8293  -18.0031 O   0  0  0  0  0  0  0  0  0  0  0  0
   25.7031  -10.5767  -20.4587 C   0  0  0  0  0  0  0  0  0  0  0  0
   26.6694   -9.8327  -20.7717 O   0  0  0  0  0  0  0  0  0  0  0  0
   23.5707  -15.2240  -20.1043 O   0  0  0  0  0  0  0  0  0  0  0  0
   24.5644   -9.9940  -19.7919 N   0  0  0  0  0  0  0  0  0  0  0  0
   24.5525   -8.5705  -19.6050 C   0  0  1  0  0  0  0  0  0  0  0  0
   24.8202   -7.8449  -20.8907 C   0  0  0  0  0  0  0  0  0  0  0  0
   24.8538   -6.4009  -20.6483 C   0  0  0  0  0  0  0  0  0  0  0  0
   23.8541   -5.6454  -20.8814 O   0  0  0  0  0  0  0  0  0  0  0  0
   23.2097   -8.1092  -19.1263 C   0  0  0  0  0  0  0  0  0  0  0  0
   22.1325   -8.4439  -19.6350 O   0  0  0  0  0  0  0  0  0  0  0  0
   25.9916   -5.8041  -20.1517 O   0  0  0  0  0  0  0  0  0  0  0  0
   18.7759   -9.6112  -12.4639 N   0  0  0  0  0  0  0  0  0  0  0  0
   17.9264   -8.6777  -13.1122 C   0  0  0  0  0  0  0  0  0  0  0  0
   16.6968   -8.5661  -12.7380 N   0  0  0  0  0  0  0  0  0  0  0  0
   18.4796   -7.8944  -14.1641 N   0  0  0  0  0  0  0  0  0  0  0  0
   19.7905   -8.2825  -14.6783 C   0  0  0  0  0  0  0  0  0  0  0  0
   20.1984   -7.3115  -15.7766 C   0  0  0  0  0  0  0  0  0  0  0  0
   21.5500   -7.7063  -16.3170 C   0  0  0  0  0  0  0  0  0  0  0  0
   21.9443   -6.7662  -17.4191 C   0  0  2  0  0  0  0  0  0  0  0  0
   23.1848   -7.2269  -18.0097 N   0  0  0  0  0  0  0  0  0  0  0  0
   22.1409   -5.3868  -16.9068 C   0  0  0  0  0  0  0  0  0  0  0  0
   23.2760   -4.8449  -16.8130 O   0  0  0  0  0  0  0  0  0  0  0  0
   21.0512   -4.6160  -16.4987 O   0  0  0  0  0  0  0  0  0  0  0  0
  2  1  1  6
  2  7  1  0
  3  2  1  0
  3  4  1  0
  4  5  1  0
  5  6  2  0
  7  8  2  0
  9  5  1  0
 10  7  1  0
 10 11  1  0
 11 15  1  0
 12 13  1  0
 11 12  1  6
 13 17  1  0
 14 13  2  0
 15 26  1  0
 15 16  2  0
 19 18  1  0
 19 21  1  0
 20 19  2  0
 22 21  1  0
 23 22  1  0
 23 24  1  0
 25 24  1  1
 25 27  1  0
 26 25  1  0
 27 29  1  0
 28 27  2  0
M  END
$$$$
