EDR.pdb
     RDKit          3D

 29 28  0  0  1  0  0  0  0  0999 V2000
   27.5074  -19.8231  -14.5399 N   0  0  0  0  0  0  0  0  0  0  0  0
   26.5971  -20.7647  -15.2388 C   0  0  1  0  0  0  0  0  0  0  0  0
   27.3992  -21.9614  -15.6723 C   0  0  0  0  0  0  0  0  0  0  0  0
   28.5533  -21.5479  -16.5258 C   0  0  0  0  0  0  0  0  0  0  0  0
   29.3295  -22.7551  -17.0002 C   0  0  0  0  0  0  0  0  0  0  0  0
   28.9039  -23.5474  -17.8673 O   0  0  0  0  0  0  0  0  0  0  0  0
   25.6040  -21.1555  -14.2202 C   0  0  0  0  0  0  0  0  0  0  0  0
   24.8819  -22.1624  -14.4442 O   0  0  0  0  0  0  0  0  0  0  0  0
   30.5707  -22.9827  -16.4390 O   0  0  0  0  0  0  0  0  0  0  0  0
   25.4270  -20.4341  -12.9837 N   0  0  0  0  0  0  0  0  0  0  0  0
   24.3847  -20.8684  -12.0969 C   0  0  1  0  0  0  0  0  0  0  0  0
   24.5087  -20.2264  -10.7465 C   0  0  0  0  0  0  0  0  0  0  0  0
   25.6310  -20.8194  -10.0159 C   0  0  0  0  0  0  0  0  0  0  0  0
   26.0839  -21.9802  -10.2841 O   0  0  0  0  0  0  0  0  0  0  0  0
   23.0387  -20.4829  -12.6306 C   0  0  0  0  0  0  0  0  0  0  0  0
   22.7303  -19.3404  -12.9923 O   0  0  0  0  0  0  0  0  0  0  0  0
   26.2421  -20.1257   -8.9949 O   0  0  0  0  0  0  0  0  0  0  0  0
   16.9195  -26.0143  -15.0257 N   0  0  0  0  0  0  0  0  0  0  0  0
   18.3001  -25.7318  -15.1913 C   0  0  0  0  0  0  0  0  0  0  0  0
   19.0853  -26.6393  -15.6646 N   0  0  0  0  0  0  0  0  0  0  0  0
   18.7630  -24.4377  -14.8206 N   0  0  0  0  0  0  0  0  0  0  0  0
   17.8547  -23.5892  -14.0534 C   0  0  0  0  0  0  0  0  0  0  0  0
   18.5500  -22.2710  -13.7464 C   0  0  0  0  0  0  0  0  0  0  0  0
   19.9834  -22.5390  -13.3611 C   0  0  0  0  0  0  0  0  0  0  0  0
   20.6928  -21.2366  -13.1282 C   0  0  2  0  0  0  0  0  0  0  0  0
   22.0573  -21.5095  -12.7237 N   0  0  0  0  0  0  0  0  0  0  0  0
   20.0274  -20.4428  -12.0648 C   0  0  0  0  0  0  0  0  0  0  0  0
   20.2620  -20.6082  -10.8366 O   0  0  0  0  0  0  0  0  0  0  0  0
   19.0933  -19.4579  -12.3895 O   0  0  0  0  0  0  0  0  0  0  0  0
  2  1  1  1
  2  7  1  0
  3  2  1  0
  3  4  1  0
  4  5  1  0
  5  6  2  0
  7  8  2  0
  9  5  1  0
 10  7  1  0
 10 11  1  0
 11 15  1  0
 12 13  1  0
 11 12  1  1
 13 17  1  0
 14 13  2  0
 15 26  1  0
 15 16  2  0
 19 18  1  0
 19 21  1  0
 20 19  2  0
 22 21  1  0
 23 22  1  0
 23 24  1  0
 25 24  1  1
 25 27  1  0
 26 25  1  0
 27 29  1  0
 28 27  2  0
M  END
$$$$
