EDR.pdb
     RDKit          3D

 29 28  0  0  1  0  0  0  0  0999 V2000
   22.7718  -20.5614  -16.4300 N   0  0  0  0  0  0  0  0  0  0  0  0
   23.4485  -20.7232  -15.1186 C   0  0  1  0  0  0  0  0  0  0  0  0
   24.5621  -19.7150  -15.0353 C   0  0  0  0  0  0  0  0  0  0  0  0
   25.0738  -19.3735  -16.3966 C   0  0  0  0  0  0  0  0  0  0  0  0
   24.8808  -17.9030  -16.6890 C   0  0  0  0  0  0  0  0  0  0  0  0
   24.3222  -17.1135  -15.8982 O   0  0  0  0  0  0  0  0  0  0  0  0
   22.4081  -20.4209  -14.1173 C   0  0  0  0  0  0  0  0  0  0  0  0
   22.3056  -19.2374  -13.6999 O   0  0  0  0  0  0  0  0  0  0  0  0
   25.3500  -17.4202  -17.8948 O   0  0  0  0  0  0  0  0  0  0  0  0
   21.5077  -21.4215  -13.5989 N   0  0  0  0  0  0  0  0  0  0  0  0
   20.5060  -21.0010  -12.6601 C   0  0  1  0  0  0  0  0  0  0  0  0
   19.4812  -20.1176  -13.3084 C   0  0  0  0  0  0  0  0  0  0  0  0
   18.4760  -19.7161  -12.3217 C   0  0  0  0  0  0  0  0  0  0  0  0
   18.6596  -18.7466  -11.5150 O   0  0  0  0  0  0  0  0  0  0  0  0
   19.7651  -22.1815  -12.1099 C   0  0  0  0  0  0  0  0  0  0  0  0
   19.2848  -23.0896  -12.7996 O   0  0  0  0  0  0  0  0  0  0  0  0
   17.2778  -20.3897  -12.2341 O   0  0  0  0  0  0  0  0  0  0  0  0
   17.2268  -26.9495   -6.8273 N   0  0  0  0  0  0  0  0  0  0  0  0
   17.7466  -26.3942   -5.6295 C   0  0  0  0  0  0  0  0  0  0  0  0
   17.8959  -27.1438   -4.5902 N   0  0  0  0  0  0  0  0  0  0  0  0
   18.0848  -25.0114   -5.6298 N   0  0  0  0  0  0  0  0  0  0  0  0
   17.8014  -24.2467   -6.8416 C   0  0  0  0  0  0  0  0  0  0  0  0
   18.8391  -24.5933   -7.8992 C   0  0  0  0  0  0  0  0  0  0  0  0
   19.3109  -23.3280   -8.5710 C   0  0  0  0  0  0  0  0  0  0  0  0
   19.0222  -23.4029  -10.0423 C   0  0  2  0  0  0  0  0  0  0  0  0
   19.6106  -22.2517  -10.6968 N   0  0  0  0  0  0  0  0  0  0  0  0
   17.5612  -23.4088  -10.3056 C   0  0  0  0  0  0  0  0  0  0  0  0
   16.9042  -22.3609  -10.5522 O   0  0  0  0  0  0  0  0  0  0  0  0
   16.8391  -24.6031  -10.2904 O   0  0  0  0  0  0  0  0  0  0  0  0
  2  1  1  6
  2  7  1  0
  3  2  1  0
  3  4  1  0
  4  5  1  0
  5  6  2  0
  7  8  2  0
  9  5  1  0
 10  7  1  0
 10 11  1  0
 11 15  1  0
 12 13  1  0
 11 12  1  6
 13 17  1  0
 14 13  2  0
 15 26  1  0
 15 16  2  0
 19 18  1  0
 19 21  1  0
 20 19  2  0
 22 21  1  0
 23 22  1  0
 23 24  1  0
 25 24  1  1
 25 27  1  0
 26 25  1  0
 27 29  1  0
 28 27  2  0
M  END
$$$$
