EDR.pdb
     RDKit          3D

 29 28  0  0  1  0  0  0  0  0999 V2000
   20.0693   -7.1308  -14.5244 N   0  0  0  0  0  0  0  0  0  0  0  0
   20.1993   -8.3754  -13.7256 C   0  0  1  0  0  0  0  0  0  0  0  0
   21.6639   -8.6655  -13.5401 C   0  0  0  0  0  0  0  0  0  0  0  0
   22.3503   -8.8047  -14.8595 C   0  0  0  0  0  0  0  0  0  0  0  0
   22.1676  -10.1986  -15.4149 C   0  0  0  0  0  0  0  0  0  0  0  0
   21.0505  -10.6902  -15.6815 O   0  0  0  0  0  0  0  0  0  0  0  0
   19.5717   -8.0586  -12.4287 C   0  0  0  0  0  0  0  0  0  0  0  0
   19.4677   -8.9775  -11.5742 O   0  0  0  0  0  0  0  0  0  0  0  0
   23.3007  -10.9570  -15.6344 O   0  0  0  0  0  0  0  0  0  0  0  0
   19.0739   -6.7449  -12.1011 N   0  0  0  0  0  0  0  0  0  0  0  0
   18.3642   -6.5858  -10.8632 C   0  0  1  0  0  0  0  0  0  0  0  0
   18.6475   -5.2534  -10.2344 C   0  0  0  0  0  0  0  0  0  0  0  0
   18.0098   -5.1799   -8.9179 C   0  0  0  0  0  0  0  0  0  0  0  0
   17.1275   -4.3051   -8.6339 O   0  0  0  0  0  0  0  0  0  0  0  0
   16.8840   -6.6453  -11.0885 C   0  0  0  0  0  0  0  0  0  0  0  0
   16.3143   -6.2353  -12.1076 O   0  0  0  0  0  0  0  0  0  0  0  0
   18.3532   -6.0725   -7.9267 O   0  0  0  0  0  0  0  0  0  0  0  0
   10.7291  -10.1843   -5.7943 N   0  0  0  0  0  0  0  0  0  0  0  0
    9.9828   -9.8279   -6.9473 C   0  0  0  0  0  0  0  0  0  0  0  0
    8.7258  -10.1118   -7.0073 N   0  0  0  0  0  0  0  0  0  0  0  0
   10.6676   -9.1624   -8.0029 N   0  0  0  0  0  0  0  0  0  0  0  0
   12.1118   -8.9898   -7.8686 C   0  0  0  0  0  0  0  0  0  0  0  0
   12.6395   -8.2628   -9.0968 C   0  0  0  0  0  0  0  0  0  0  0  0
   14.1297   -8.0722   -8.9638 C   0  0  0  0  0  0  0  0  0  0  0  0
   14.6509   -7.3361  -10.1639 C   0  0  2  0  0  0  0  0  0  0  0  0
   16.0907   -7.2147  -10.0531 N   0  0  0  0  0  0  0  0  0  0  0  0
   14.0615   -5.9770  -10.2608 C   0  0  0  0  0  0  0  0  0  0  0  0
   14.5445   -4.9756   -9.6651 O   0  0  0  0  0  0  0  0  0  0  0  0
   12.9222   -5.7476  -11.0337 O   0  0  0  0  0  0  0  0  0  0  0  0
  2  1  1  6
  2  7  1  0
  3  2  1  0
  3  4  1  0
  4  5  1  0
  5  6  2  0
  7  8  2  0
  9  5  1  0
 10  7  1  0
 10 11  1  0
 11 15  1  0
 12 13  1  0
 11 12  1  6
 13 17  1  0
 14 13  2  0
 15 26  1  0
 15 16  2  0
 19 18  1  0
 19 21  1  0
 20 19  2  0
 22 21  1  0
 23 22  1  0
 23 24  1  0
 25 24  1  1
 25 27  1  0
 26 25  1  0
 27 29  1  0
 28 27  2  0
M  END
$$$$
