EDR.pdb
     RDKit          3D

 29 28  0  0  1  0  0  0  0  0999 V2000
   25.8212  -21.5641  -13.5054 N   0  0  0  0  0  0  0  0  0  0  0  0
   24.7923  -21.7747  -14.5546 C   0  0  1  0  0  0  0  0  0  0  0  0
   24.7999  -23.2299  -14.9368 C   0  0  0  0  0  0  0  0  0  0  0  0
   26.0736  -23.5919  -15.6283 C   0  0  0  0  0  0  0  0  0  0  0  0
   25.9752  -23.3188  -17.1117 C   0  0  0  0  0  0  0  0  0  0  0  0
   24.9606  -22.8317  -17.6541 O   0  0  0  0  0  0  0  0  0  0  0  0
   23.5148  -21.4222  -13.9065 C   0  0  0  0  0  0  0  0  0  0  0  0
   23.3931  -21.6316  -12.6709 O   0  0  0  0  0  0  0  0  0  0  0  0
   27.0688  -23.6277  -17.8964 O   0  0  0  0  0  0  0  0  0  0  0  0
   22.4041  -20.8501  -14.6276 N   0  0  0  0  0  0  0  0  0  0  0  0
   21.2193  -20.5233  -13.8853 C   0  0  1  0  0  0  0  0  0  0  0  0
   20.4673  -19.3911  -14.5207 C   0  0  0  0  0  0  0  0  0  0  0  0
   19.3263  -19.0196  -13.6810 C   0  0  0  0  0  0  0  0  0  0  0  0
   19.2335  -19.3718  -12.4595 O   0  0  0  0  0  0  0  0  0  0  0  0
   20.2798  -21.6898  -13.8444 C   0  0  0  0  0  0  0  0  0  0  0  0
   19.8418  -22.2710  -14.8452 O   0  0  0  0  0  0  0  0  0  0  0  0
   18.2975  -18.2637  -14.1981 O   0  0  0  0  0  0  0  0  0  0  0  0
   18.3208  -24.7603   -6.3898 N   0  0  0  0  0  0  0  0  0  0  0  0
   17.2512  -24.2151   -7.1463 C   0  0  0  0  0  0  0  0  0  0  0  0
   16.1634  -23.8603   -6.5504 N   0  0  0  0  0  0  0  0  0  0  0  0
   17.4310  -24.0829   -8.5522 N   0  0  0  0  0  0  0  0  0  0  0  0
   17.9998  -25.2204   -9.2706 C   0  0  0  0  0  0  0  0  0  0  0  0
   18.0810  -24.8797  -10.7514 C   0  0  0  0  0  0  0  0  0  0  0  0
   18.9203  -23.6400  -10.9344 C   0  0  0  0  0  0  0  0  0  0  0  0
   19.0166  -23.3099  -12.3958 C   0  0  2  0  0  0  0  0  0  0  0  0
   19.8715  -22.1517  -12.5615 N   0  0  0  0  0  0  0  0  0  0  0  0
   17.6813  -23.0057  -12.9689 C   0  0  0  0  0  0  0  0  0  0  0  0
   16.9711  -23.8705  -13.5506 O   0  0  0  0  0  0  0  0  0  0  0  0
   17.1457  -21.7195  -12.8847 O   0  0  0  0  0  0  0  0  0  0  0  0
  2  1  1  1
  2  7  1  0
  3  2  1  0
  3  4  1  0
  4  5  1  0
  5  6  2  0
  7  8  2  0
  9  5  1  0
 10  7  1  0
 10 11  1  0
 11 15  1  0
 12 13  1  0
 11 12  1  6
 13 17  1  0
 14 13  2  0
 15 26  1  0
 15 16  2  0
 19 18  1  0
 19 21  1  0
 20 19  2  0
 22 21  1  0
 23 22  1  0
 23 24  1  0
 25 24  1  1
 25 27  1  0
 26 25  1  0
 27 29  1  0
 28 27  2  0
M  END
$$$$
