FGN.pdb
     RDKit          3D

 24 24  0  0  1  0  0  0  0  0999 V2000
    7.3356  -15.5697   24.8615 N   0  0  0  0  0  0  0  0  0  0  0  0
    7.6880  -14.8977   23.6261 C   0  0  1  0  0  0  0  0  0  0  0  0
    8.1610  -13.4916   23.9763 C   0  0  0  0  0  0  0  0  0  0  0  0
    7.4776  -12.9698   25.1718 C   0  0  0  0  0  0  0  0  0  0  0  0
    6.1043  -12.7057   25.2066 C   0  0  0  0  0  0  0  0  0  0  0  0
    5.5359  -12.2195   26.3521 C   0  0  0  0  0  0  0  0  0  0  0  0
    6.3107  -11.9943   27.4557 C   0  0  0  0  0  0  0  0  0  0  0  0
    7.6721  -12.2480   27.4457 C   0  0  0  0  0  0  0  0  0  0  0  0
    8.2518  -12.7378   26.2954 C   0  0  0  0  0  0  0  0  0  0  0  0
    8.8084  -15.6009   22.9339 C   0  0  0  0  0  0  0  0  0  0  0  0
    9.3656  -15.0729   21.9391 O   0  0  0  0  0  0  0  0  0  0  0  0
    9.2750  -16.8765   23.3745 N   0  0  0  0  0  0  0  0  0  0  0  0
   10.6334  -17.2143   23.1143 C   0  0  0  0  0  0  0  0  0  0  0  0
   11.5551  -17.1309   24.2413 C   0  0  0  0  0  0  0  0  0  0  0  0
   12.7842  -17.4434   24.0619 O   0  0  0  0  0  0  0  0  0  0  0  0
   10.5426  -15.0501   29.3515 N   0  0  0  0  0  0  0  0  0  0  0  0
   10.7171  -15.3914   27.9700 C   0  0  0  0  0  0  0  0  0  0  0  0
    9.6754  -15.5241   27.2969 O   0  0  0  0  0  0  0  0  0  0  0  0
   12.0986  -15.5520   27.4804 C   0  0  0  0  0  0  0  0  0  0  0  0
   12.2192  -16.7856   26.6510 C   0  0  2  0  0  0  0  0  0  0  0  0
   11.2271  -16.7285   25.5557 N   0  0  0  0  0  0  0  0  0  0  0  0
   11.9716  -17.9975   27.4468 C   0  0  0  0  0  0  0  0  0  0  0  0
   12.7164  -18.2352   28.5822 O   0  0  0  0  0  0  0  0  0  0  0  0
   11.0960  -18.8185   27.1121 O   0  0  0  0  0  0  0  0  0  0  0  0
  2  1  1  1
  3  2  1  0
  4  9  2  0
  4  3  1  0
  5  4  1  0
  6  7  1  0
  6  5  2  0
  7  8  2  0
  8  9  1  0
 10  2  1  0
 10 12  1  0
 11 10  2  0
 13 12  1  0
 14 13  1  0
 15 14  2  0
 17 16  1  0
 17 18  2  0
 20 19  1  1
 19 17  1  0
 20 21  1  0
 21 14  1  0
 22 23  1  0
 22 20  1  0
 24 22  2  0
M  END
$$$$
