FGN.pdb
     RDKit          3D

 24 24  0  0  1  0  0  0  0  0999 V2000
    9.1893  -14.5250   23.7542 N   0  0  0  0  0  0  0  0  0  0  0  0
    7.8374  -15.0481   23.7308 C   0  0  1  0  0  0  0  0  0  0  0  0
    6.8791  -13.8655   23.6489 C   0  0  0  0  0  0  0  0  0  0  0  0
    6.9324  -13.0370   24.8651 C   0  0  0  0  0  0  0  0  0  0  0  0
    6.1271  -13.2774   25.9834 C   0  0  0  0  0  0  0  0  0  0  0  0
    6.2285  -12.4650   27.0795 C   0  0  0  0  0  0  0  0  0  0  0  0
    7.1145  -11.4239   27.0774 C   0  0  0  0  0  0  0  0  0  0  0  0
    7.9222  -11.1659   25.9826 C   0  0  0  0  0  0  0  0  0  0  0  0
    7.8259  -11.9798   24.8747 C   0  0  0  0  0  0  0  0  0  0  0  0
    7.6146  -15.9047   22.5284 C   0  0  0  0  0  0  0  0  0  0  0  0
    6.7145  -16.7814   22.5366 O   0  0  0  0  0  0  0  0  0  0  0  0
    8.4057  -15.7564   21.3490 N   0  0  0  0  0  0  0  0  0  0  0  0
    9.3851  -16.7528   21.0750 C   0  0  0  0  0  0  0  0  0  0  0  0
   10.7163  -16.5300   21.6272 C   0  0  0  0  0  0  0  0  0  0  0  0
   10.9707  -15.4138   22.2016 O   0  0  0  0  0  0  0  0  0  0  0  0
   10.0372  -17.0275   25.3300 N   0  0  0  0  0  0  0  0  0  0  0  0
   11.1188  -17.8935   24.9620 C   0  0  0  0  0  0  0  0  0  0  0  0
   12.0242  -18.0384   25.8075 O   0  0  0  0  0  0  0  0  0  0  0  0
   11.0590  -18.5250   23.6308 C   0  0  0  0  0  0  0  0  0  0  0  0
   12.2490  -18.1429   22.8172 C   0  0  2  0  0  0  0  0  0  0  0  0
   11.7933  -17.4445   21.5958 N   0  0  0  0  0  0  0  0  0  0  0  0
   13.0325  -19.3225   22.4195 C   0  0  0  0  0  0  0  0  0  0  0  0
   12.8494  -19.8770   21.1709 O   0  0  0  0  0  0  0  0  0  0  0  0
   13.8636  -19.8333   23.1948 O   0  0  0  0  0  0  0  0  0  0  0  0
  2  1  1  6
  3  2  1  0
  4  9  2  0
  4  3  1  0
  5  4  1  0
  6  7  1  0
  6  5  2  0
  7  8  2  0
  8  9  1  0
 10  2  1  0
 10 12  1  0
 11 10  2  0
 13 12  1  0
 14 13  1  0
 15 14  2  0
 17 16  1  0
 17 18  2  0
 20 19  1  6
 19 17  1  0
 20 21  1  0
 21 14  1  0
 22 23  1  0
 22 20  1  0
 24 22  2  0
M  END
$$$$
