FGN.pdb
     RDKit          3D

 24 24  0  0  1  0  0  0  0  0999 V2000
    7.8898  -16.3535   26.2278 N   0  0  0  0  0  0  0  0  0  0  0  0
    6.8266  -16.4345   25.2454 C   0  0  1  0  0  0  0  0  0  0  0  0
    5.8510  -15.2951   25.5163 C   0  0  0  0  0  0  0  0  0  0  0  0
    6.5542  -14.0386   25.8248 C   0  0  0  0  0  0  0  0  0  0  0  0
    7.2879  -13.3253   24.8710 C   0  0  0  0  0  0  0  0  0  0  0  0
    7.9180  -12.1648   25.2287 C   0  0  0  0  0  0  0  0  0  0  0  0
    7.8282  -11.7081   26.5141 C   0  0  0  0  0  0  0  0  0  0  0  0
    7.1079  -12.3964   27.4759 C   0  0  0  0  0  0  0  0  0  0  0  0
    6.4704  -13.5661   27.1232 C   0  0  0  0  0  0  0  0  0  0  0  0
    7.3609  -16.2635   23.8618 C   0  0  0  0  0  0  0  0  0  0  0  0
    6.7747  -15.5059   23.0485 O   0  0  0  0  0  0  0  0  0  0  0  0
    8.5375  -16.9451   23.4262 N   0  0  0  0  0  0  0  0  0  0  0  0
    9.3299  -16.3267   22.4178 C   0  0  0  0  0  0  0  0  0  0  0  0
   10.6124  -16.9530   22.1187 C   0  0  0  0  0  0  0  0  0  0  0  0
   11.3616  -17.3261   23.0883 O   0  0  0  0  0  0  0  0  0  0  0  0
   13.4137  -13.8242   18.4508 N   0  0  0  0  0  0  0  0  0  0  0  0
   13.3630  -14.4062   19.7600 C   0  0  0  0  0  0  0  0  0  0  0  0
   14.3831  -14.2725   20.4651 O   0  0  0  0  0  0  0  0  0  0  0  0
   12.1211  -15.1015   20.1455 C   0  0  0  0  0  0  0  0  0  0  0  0
   12.3814  -16.5536   20.3642 C   0  0  2  0  0  0  0  0  0  0  0  0
   11.1360  -17.2014   20.8297 N   0  0  0  0  0  0  0  0  0  0  0  0
   13.4288  -16.7681   21.3743 C   0  0  0  0  0  0  0  0  0  0  0  0
   14.4310  -17.6845   21.1376 O   0  0  0  0  0  0  0  0  0  0  0  0
   13.4273  -16.1333   22.4466 O   0  0  0  0  0  0  0  0  0  0  0  0
  2  1  1  1
  3  2  1  0
  4  9  2  0
  4  3  1  0
  5  4  1  0
  6  7  1  0
  6  5  2  0
  7  8  2  0
  8  9  1  0
 10  2  1  0
 10 12  1  0
 11 10  2  0
 13 12  1  0
 14 13  1  0
 15 14  2  0
 17 16  1  0
 17 18  2  0
 20 19  1  1
 19 17  1  0
 20 21  1  0
 21 14  1  0
 22 23  1  0
 22 20  1  0
 24 22  2  0
M  END
$$$$
