FGN.pdb
     RDKit          3D

 24 24  0  0  1  0  0  0  0  0999 V2000
    6.6458  -14.0566   22.2021 N   0  0  0  0  0  0  0  0  0  0  0  0
    7.6614  -14.8585   22.8560 C   0  0  1  0  0  0  0  0  0  0  0  0
    8.4978  -13.9321   23.7310 C   0  0  0  0  0  0  0  0  0  0  0  0
    7.6753  -13.2545   24.7473 C   0  0  0  0  0  0  0  0  0  0  0  0
    6.8527  -12.1620   24.4532 C   0  0  0  0  0  0  0  0  0  0  0  0
    6.1166  -11.5798   25.4486 C   0  0  0  0  0  0  0  0  0  0  0  0
    6.1880  -12.0670   26.7239 C   0  0  0  0  0  0  0  0  0  0  0  0
    6.9949  -13.1472   27.0397 C   0  0  0  0  0  0  0  0  0  0  0  0
    7.7393  -13.7390   26.0424 C   0  0  0  0  0  0  0  0  0  0  0  0
    7.0429  -15.8913   23.7390 C   0  0  0  0  0  0  0  0  0  0  0  0
    5.7999  -15.9013   23.9230 O   0  0  0  0  0  0  0  0  0  0  0  0
    7.8329  -16.8854   24.3921 N   0  0  0  0  0  0  0  0  0  0  0  0
    7.2259  -17.6359   25.4387 C   0  0  0  0  0  0  0  0  0  0  0  0
    8.0331  -18.6921   26.0385 C   0  0  0  0  0  0  0  0  0  0  0  0
    7.5689  -19.3304   27.0473 O   0  0  0  0  0  0  0  0  0  0  0  0
   11.2654  -16.2662   25.0400 N   0  0  0  0  0  0  0  0  0  0  0  0
   11.2453  -17.6887   24.8630 C   0  0  0  0  0  0  0  0  0  0  0  0
   10.9019  -18.1015   23.7372 O   0  0  0  0  0  0  0  0  0  0  0  0
   11.6290  -18.5214   26.0178 C   0  0  0  0  0  0  0  0  0  0  0  0
   10.4400  -19.2369   26.5642 C   0  0  2  0  0  0  0  0  0  0  0  0
    9.3167  -19.1015   25.6119 N   0  0  0  0  0  0  0  0  0  0  0  0
   10.0256  -18.6825   27.8620 C   0  0  0  0  0  0  0  0  0  0  0  0
   10.8115  -18.8863   28.9761 O   0  0  0  0  0  0  0  0  0  0  0  0
    8.9711  -18.0282   27.9742 O   0  0  0  0  0  0  0  0  0  0  0  0
  2  1  1  1
  3  2  1  0
  4  9  2  0
  4  3  1  0
  5  4  1  0
  6  7  1  0
  6  5  2  0
  7  8  2  0
  8  9  1  0
 10  2  1  0
 10 12  1  0
 11 10  2  0
 13 12  1  0
 14 13  1  0
 15 14  2  0
 17 16  1  0
 17 18  2  0
 20 19  1  6
 19 17  1  0
 20 21  1  0
 21 14  1  0
 22 23  1  0
 22 20  1  0
 24 22  2  0
M  END
$$$$
