FGN.pdb
     RDKit          3D

 24 24  0  0  1  0  0  0  0  0999 V2000
    8.9550  -15.5621   25.4228 N   0  0  0  0  0  0  0  0  0  0  0  0
    7.7049  -16.2814   25.2753 C   0  0  1  0  0  0  0  0  0  0  0  0
    6.7929  -15.8764   26.4274 C   0  0  0  0  0  0  0  0  0  0  0  0
    6.7342  -14.4136   26.5864 C   0  0  0  0  0  0  0  0  0  0  0  0
    5.7015  -13.6331   26.0561 C   0  0  0  0  0  0  0  0  0  0  0  0
    5.7122  -12.2776   26.2411 C   0  0  0  0  0  0  0  0  0  0  0  0
    6.7297  -11.6928   26.9420 C   0  0  0  0  0  0  0  0  0  0  0  0
    7.7629  -12.4441   27.4766 C   0  0  0  0  0  0  0  0  0  0  0  0
    7.7592  -13.8101   27.2944 C   0  0  0  0  0  0  0  0  0  0  0  0
    7.0232  -15.9156   23.9984 C   0  0  0  0  0  0  0  0  0  0  0  0
    5.9266  -16.4481   23.6939 O   0  0  0  0  0  0  0  0  0  0  0  0
    7.5877  -14.9630   23.0969 N   0  0  0  0  0  0  0  0  0  0  0  0
    8.0973  -15.4413   21.8565 C   0  0  0  0  0  0  0  0  0  0  0  0
    9.5083  -15.8087   21.8277 C   0  0  0  0  0  0  0  0  0  0  0  0
   10.0191  -16.2231   20.7286 O   0  0  0  0  0  0  0  0  0  0  0  0
   14.8243  -15.0188   22.1889 N   0  0  0  0  0  0  0  0  0  0  0  0
   14.1069  -15.5290   23.3205 C   0  0  0  0  0  0  0  0  0  0  0  0
   14.7530  -16.2513   24.1057 O   0  0  0  0  0  0  0  0  0  0  0  0
   12.6863  -15.1549   23.4478 C   0  0  0  0  0  0  0  0  0  0  0  0
   11.8176  -16.1664   22.7796 C   0  0  2  0  0  0  0  0  0  0  0  0
   10.4040  -15.7550   22.9196 N   0  0  0  0  0  0  0  0  0  0  0  0
   11.9810  -17.4992   23.3798 C   0  0  0  0  0  0  0  0  0  0  0  0
   11.3861  -17.7825   24.5906 O   0  0  0  0  0  0  0  0  0  0  0  0
   12.6510  -18.3825   22.8110 O   0  0  0  0  0  0  0  0  0  0  0  0
  2  1  1  1
  3  2  1  0
  4  9  2  0
  4  3  1  0
  5  4  1  0
  6  7  1  0
  6  5  2  0
  7  8  2  0
  8  9  1  0
 10  2  1  0
 10 12  1  0
 11 10  2  0
 13 12  1  0
 14 13  1  0
 15 14  2  0
 17 16  1  0
 17 18  2  0
 20 19  1  1
 19 17  1  0
 20 21  1  0
 21 14  1  0
 22 23  1  0
 22 20  1  0
 24 22  2  0
M  END
$$$$
