FGN.pdb
     RDKit          3D

 24 24  0  0  1  0  0  0  0  0999 V2000
    8.0709  -16.2215   25.9981 N   0  0  0  0  0  0  0  0  0  0  0  0
    7.4226  -16.2385   24.7014 C   0  0  1  0  0  0  0  0  0  0  0  0
    6.1999  -15.3314   24.7773 C   0  0  0  0  0  0  0  0  0  0  0  0
    6.4958  -14.0783   25.4918 C   0  0  0  0  0  0  0  0  0  0  0  0
    7.2823  -13.0594   24.9438 C   0  0  0  0  0  0  0  0  0  0  0  0
    7.5177  -11.9216   25.6659 C   0  0  0  0  0  0  0  0  0  0  0  0
    6.9845  -11.7852   26.9173 C   0  0  0  0  0  0  0  0  0  0  0  0
    6.2029  -12.7796   27.4810 C   0  0  0  0  0  0  0  0  0  0  0  0
    5.9612  -13.9288   26.7598 C   0  0  0  0  0  0  0  0  0  0  0  0
    8.3279  -15.7026   23.6421 C   0  0  0  0  0  0  0  0  0  0  0  0
    9.3392  -15.0274   23.9591 O   0  0  0  0  0  0  0  0  0  0  0  0
    8.0769  -15.9375   22.2562 N   0  0  0  0  0  0  0  0  0  0  0  0
    8.9919  -15.3911   21.3123 C   0  0  0  0  0  0  0  0  0  0  0  0
   10.3142  -16.0034   21.2539 C   0  0  0  0  0  0  0  0  0  0  0  0
   10.4472  -17.1384   20.6754 O   0  0  0  0  0  0  0  0  0  0  0  0
   12.8809  -13.8101   19.1225 N   0  0  0  0  0  0  0  0  0  0  0  0
   13.4125  -15.0770   19.5321 C   0  0  0  0  0  0  0  0  0  0  0  0
   13.5306  -15.9419   18.6412 O   0  0  0  0  0  0  0  0  0  0  0  0
   13.7660  -15.2361   20.9548 C   0  0  0  0  0  0  0  0  0  0  0  0
   12.8044  -16.1523   21.6330 C   0  0  2  0  0  0  0  0  0  0  0  0
   11.5060  -15.4608   21.7853 N   0  0  0  0  0  0  0  0  0  0  0  0
   13.2849  -16.5491   22.9653 C   0  0  0  0  0  0  0  0  0  0  0  0
   14.4599  -17.2597   23.0859 O   0  0  0  0  0  0  0  0  0  0  0  0
   12.6459  -16.2532   23.9934 O   0  0  0  0  0  0  0  0  0  0  0  0
  2  1  1  1
  3  2  1  0
  4  9  2  0
  4  3  1  0
  5  4  1  0
  6  7  1  0
  6  5  2  0
  7  8  2  0
  8  9  1  0
 10  2  1  0
 10 12  1  0
 11 10  2  0
 13 12  1  0
 14 13  1  0
 15 14  2  0
 17 16  1  0
 17 18  2  0
 20 19  1  1
 19 17  1  0
 20 21  1  0
 21 14  1  0
 22 23  1  0
 22 20  1  0
 24 22  2  0
M  END
$$$$
