FGN.pdb
     RDKit          3D

 24 24  0  0  1  0  0  0  0  0999 V2000
    5.9424  -15.8228   25.4142 N   0  0  0  0  0  0  0  0  0  0  0  0
    7.1456  -15.5899   24.6395 C   0  0  1  0  0  0  0  0  0  0  0  0
    8.0063  -14.5887   25.4011 C   0  0  0  0  0  0  0  0  0  0  0  0
    7.3170  -13.2990   25.5734 C   0  0  0  0  0  0  0  0  0  0  0  0
    6.9908  -12.4631   24.5002 C   0  0  0  0  0  0  0  0  0  0  0  0
    6.3511  -11.2767   24.7345 C   0  0  0  0  0  0  0  0  0  0  0  0
    6.0339  -10.9137   26.0138 C   0  0  0  0  0  0  0  0  0  0  0  0
    6.3463  -11.7242   27.0924 C   0  0  0  0  0  0  0  0  0  0  0  0
    6.9907  -12.9207   26.8644 C   0  0  0  0  0  0  0  0  0  0  0  0
    7.9337  -16.8481   24.4820 C   0  0  0  0  0  0  0  0  0  0  0  0
    9.0215  -16.8363   23.8530 O   0  0  0  0  0  0  0  0  0  0  0  0
    7.4829  -18.0857   25.0333 N   0  0  0  0  0  0  0  0  0  0  0  0
    8.2575  -19.2516   24.7731 C   0  0  0  0  0  0  0  0  0  0  0  0
    9.3787  -19.5050   25.6704 C   0  0  0  0  0  0  0  0  0  0  0  0
    9.1986  -19.3977   26.9339 O   0  0  0  0  0  0  0  0  0  0  0  0
   10.0289  -23.1723   26.8643 N   0  0  0  0  0  0  0  0  0  0  0  0
   10.9359  -22.1787   27.3597 C   0  0  0  0  0  0  0  0  0  0  0  0
   10.8155  -21.8697   28.5621 O   0  0  0  0  0  0  0  0  0  0  0  0
   11.9161  -21.6212   26.4097 C   0  0  0  0  0  0  0  0  0  0  0  0
   11.7410  -20.1454   26.2838 C   0  0  2  0  0  0  0  0  0  0  0  0
   10.6882  -19.8689   25.2828 N   0  0  0  0  0  0  0  0  0  0  0  0
   12.9844  -19.4892   25.8519 C   0  0  0  0  0  0  0  0  0  0  0  0
   13.3047  -19.4432   24.5119 O   0  0  0  0  0  0  0  0  0  0  0  0
   13.7586  -18.9709   26.6794 O   0  0  0  0  0  0  0  0  0  0  0  0
  2  1  1  1
  3  2  1  0
  4  9  2  0
  4  3  1  0
  5  4  1  0
  6  7  1  0
  6  5  2  0
  7  8  2  0
  8  9  1  0
 10  2  1  0
 10 12  1  0
 11 10  2  0
 13 12  1  0
 14 13  1  0
 15 14  2  0
 17 16  1  0
 17 18  2  0
 20 19  1  6
 19 17  1  0
 20 21  1  0
 21 14  1  0
 22 23  1  0
 22 20  1  0
 24 22  2  0
M  END
$$$$
