FGN.pdb
     RDKit          3D

 24 24  0  0  1  0  0  0  0  0999 V2000
    7.9850  -15.8199   25.4730 N   0  0  0  0  0  0  0  0  0  0  0  0
    7.2642  -15.3775   24.2954 C   0  0  1  0  0  0  0  0  0  0  0  0
    7.4669  -13.8728   24.1602 C   0  0  0  0  0  0  0  0  0  0  0  0
    6.9620  -13.1479   25.3383 C   0  0  0  0  0  0  0  0  0  0  0  0
    5.6281  -12.7475   25.4693 C   0  0  0  0  0  0  0  0  0  0  0  0
    5.2288  -12.0751   26.5918 C   0  0  0  0  0  0  0  0  0  0  0  0
    6.1331  -11.7978   27.5788 C   0  0  0  0  0  0  0  0  0  0  0  0
    7.4588  -12.1838   27.4721 C   0  0  0  0  0  0  0  0  0  0  0  0
    7.8686  -12.8615   26.3444 C   0  0  0  0  0  0  0  0  0  0  0  0
    7.8010  -16.0267   23.0628 C   0  0  0  0  0  0  0  0  0  0  0  0
    7.2728  -17.0784   22.6227 O   0  0  0  0  0  0  0  0  0  0  0  0
    8.9148  -15.4803   22.3557 N   0  0  0  0  0  0  0  0  0  0  0  0
    9.4353  -16.2228   21.2581 C   0  0  0  0  0  0  0  0  0  0  0  0
   10.4119  -17.2587   21.5743 C   0  0  0  0  0  0  0  0  0  0  0  0
   10.9473  -17.9196   20.6166 O   0  0  0  0  0  0  0  0  0  0  0  0
   14.6888  -15.1456   24.0933 N   0  0  0  0  0  0  0  0  0  0  0  0
   14.2694  -16.1747   23.1875 C   0  0  0  0  0  0  0  0  0  0  0  0
   15.1641  -16.9262   22.7510 O   0  0  0  0  0  0  0  0  0  0  0  0
   12.8334  -16.2465   22.8606 C   0  0  0  0  0  0  0  0  0  0  0  0
   12.2753  -17.5747   23.2460 C   0  0  2  0  0  0  0  0  0  0  0  0
   10.8464  -17.6248   22.8684 N   0  0  0  0  0  0  0  0  0  0  0  0
   12.3874  -17.8078   24.6940 C   0  0  0  0  0  0  0  0  0  0  0  0
   13.2548  -18.7685   25.1679 O   0  0  0  0  0  0  0  0  0  0  0  0
   11.7087  -17.1490   25.5054 O   0  0  0  0  0  0  0  0  0  0  0  0
  2  1  1  1
  3  2  1  0
  4  9  2  0
  4  3  1  0
  5  4  1  0
  6  7  1  0
  6  5  2  0
  7  8  2  0
  8  9  1  0
 10  2  1  0
 10 12  1  0
 11 10  2  0
 13 12  1  0
 14 13  1  0
 15 14  2  0
 17 16  1  0
 17 18  2  0
 20 19  1  1
 19 17  1  0
 20 21  1  0
 21 14  1  0
 22 23  1  0
 22 20  1  0
 24 22  2  0
M  END
$$$$
