FGN.pdb
     RDKit          3D

 24 24  0  0  1  0  0  0  0  0999 V2000
    7.7973  -16.3871   25.9050 N   0  0  0  0  0  0  0  0  0  0  0  0
    7.4212  -16.5368   24.5128 C   0  0  1  0  0  0  0  0  0  0  0  0
    6.2405  -15.6108   24.2446 C   0  0  0  0  0  0  0  0  0  0  0  0
    6.4452  -14.2810   24.8429 C   0  0  0  0  0  0  0  0  0  0  0  0
    5.8814  -13.9041   26.0664 C   0  0  0  0  0  0  0  0  0  0  0  0
    6.1126  -12.6501   26.5621 C   0  0  0  0  0  0  0  0  0  0  0  0
    6.8919  -11.7724   25.8612 C   0  0  0  0  0  0  0  0  0  0  0  0
    7.4609  -12.1223   24.6481 C   0  0  0  0  0  0  0  0  0  0  0  0
    7.2326  -13.3837   24.1423 C   0  0  0  0  0  0  0  0  0  0  0  0
    8.5384  -16.1315   23.6090 C   0  0  0  0  0  0  0  0  0  0  0  0
    8.5514  -16.5134   22.4120 O   0  0  0  0  0  0  0  0  0  0  0  0
    9.6107  -15.3090   24.0699 N   0  0  0  0  0  0  0  0  0  0  0  0
   10.9376  -15.8062   23.9314 C   0  0  0  0  0  0  0  0  0  0  0  0
   11.5248  -16.4381   25.1072 C   0  0  0  0  0  0  0  0  0  0  0  0
   12.7243  -16.8822   25.0389 O   0  0  0  0  0  0  0  0  0  0  0  0
    9.8241  -14.6672   28.7031 N   0  0  0  0  0  0  0  0  0  0  0  0
   11.0803  -15.3545   28.7732 C   0  0  0  0  0  0  0  0  0  0  0  0
   12.0998  -14.6389   28.8385 O   0  0  0  0  0  0  0  0  0  0  0  0
   11.0485  -16.8286   28.7614 C   0  0  0  0  0  0  0  0  0  0  0  0
   11.5525  -17.3519   27.4590 C   0  0  2  0  0  0  0  0  0  0  0  0
   10.8912  -16.6197   26.3573 N   0  0  0  0  0  0  0  0  0  0  0  0
   11.2677  -18.7869   27.3072 C   0  0  0  0  0  0  0  0  0  0  0  0
   11.7646  -19.6848   28.2277 O   0  0  0  0  0  0  0  0  0  0  0  0
   10.5816  -19.2090   26.3565 O   0  0  0  0  0  0  0  0  0  0  0  0
  2  1  1  1
  3  2  1  0
  4  9  2  0
  4  3  1  0
  5  4  1  0
  6  7  1  0
  6  5  2  0
  7  8  2  0
  8  9  1  0
 10  2  1  0
 10 12  1  0
 11 10  2  0
 13 12  1  0
 14 13  1  0
 15 14  2  0
 17 16  1  0
 17 18  2  0
 20 19  1  1
 19 17  1  0
 20 21  1  0
 21 14  1  0
 22 23  1  0
 22 20  1  0
 24 22  2  0
M  END
$$$$
