IHS.pdb
     RDKit          3D

 25 25  0  0  1  0  0  0  0  0999 V2000
    7.8260  -12.0575   19.4644 C   0  0  0  0  0  0  0  0  0  0  0  0
    7.4407  -13.4850   19.6715 C   0  0  0  0  0  0  0  0  0  0  0  0
    7.6455  -13.9501   21.0970 C   0  0  2  0  0  0  0  0  0  0  0  0
    9.0907  -13.7753   21.4467 C   0  0  0  0  0  0  0  0  0  0  0  0
    7.1477  -15.3619   21.2983 C   0  0  2  0  0  0  0  0  0  0  0  0
    5.7618  -15.4112   20.8699 N   0  0  0  0  0  0  0  0  0  0  0  0
    7.2237  -15.7710   22.7089 C   0  0  0  0  0  0  0  0  0  0  0  0
    6.4216  -15.2298   23.5374 O   0  0  0  0  0  0  0  0  0  0  0  0
    8.1225  -16.7269   23.2342 N   0  0  0  0  0  0  0  0  0  0  0  0
    8.1769  -17.0807   24.6245 C   0  0  1  0  0  0  0  0  0  0  0  0
    8.2792  -18.5637   24.8288 C   0  0  0  0  0  0  0  0  0  0  0  0
    8.3281  -18.9734   26.2442 C   0  0  0  0  0  0  0  0  0  0  0  0
    8.2638  -18.1425   27.3390 C   0  0  0  0  0  0  0  0  0  0  0  0
    8.3374  -18.8692   28.4919 N   0  0  0  0  0  0  0  0  0  0  0  0
    8.4469  -20.1461   28.1103 C   0  0  0  0  0  0  0  0  0  0  0  0
    8.4429  -20.2249   26.7798 N   0  0  0  0  0  0  0  0  0  0  0  0
    9.1576  -16.2744   25.3817 C   0  0  0  0  0  0  0  0  0  0  0  0
   10.2848  -16.0914   24.8498 O   0  0  0  0  0  0  0  0  0  0  0  0
    8.1027  -13.3772   28.1159 O   0  0  0  0  0  0  0  0  0  0  0  0
    9.3414  -13.4503   27.5281 C   0  0  0  0  0  0  0  0  0  0  0  0
    9.8400  -14.8724   27.3639 C   0  0  2  0  0  0  0  0  0  0  0  0
    8.9133  -15.6999   26.6519 N   0  0  0  0  0  0  0  0  0  0  0  0
   10.1806  -15.3892   28.7079 C   0  0  0  0  0  0  0  0  0  0  0  0
    9.6677  -16.5650   29.2230 O   0  0  0  0  0  0  0  0  0  0  0  0
   10.9745  -14.7277   29.4160 O   0  0  0  0  0  0  0  0  0  0  0  0
  2  3  1  0
  2  1  1  0
  3  5  1  0
  3  4  1  6
  5  7  1  0
  5  6  1  1
  7  8  2  0
  9 10  1  0
  9  7  1  0
 10 11  1  6
 12 11  1  0
 13 12  2  0
 14 13  1  0
 15 14  1  0
 15 16  2  0
 16 12  1  0
 17 22  1  0
 17 10  1  0
 18 17  2  0
 20 19  1  0
 21 20  1  1
 21 22  1  0
 23 24  1  0
 23 21  1  0
 25 23  2  0
M  END
$$$$
