IHS.pdb
     RDKit          3D

 25 25  0  0  1  0  0  0  0  0999 V2000
    6.7265  -12.8023   19.8962 C   0  0  0  0  0  0  0  0  0  0  0  0
    7.6426  -13.2146   18.7917 C   0  0  0  0  0  0  0  0  0  0  0  0
    8.9329  -13.8259   19.2933 C   0  0  2  0  0  0  0  0  0  0  0  0
    9.5849  -12.8520   20.2249 C   0  0  0  0  0  0  0  0  0  0  0  0
    9.8264  -14.2526   18.1525 C   0  0  2  0  0  0  0  0  0  0  0  0
    9.0551  -15.1227   17.2838 N   0  0  0  0  0  0  0  0  0  0  0  0
   11.0086  -14.9853   18.6305 C   0  0  0  0  0  0  0  0  0  0  0  0
   10.8591  -16.1953   18.9997 O   0  0  0  0  0  0  0  0  0  0  0  0
   12.3164  -14.4566   18.7175 N   0  0  0  0  0  0  0  0  0  0  0  0
   13.4480  -15.2165   19.1684 C   0  0  1  0  0  0  0  0  0  0  0  0
   14.7418  -14.6818   18.6284 C   0  0  0  0  0  0  0  0  0  0  0  0
   14.9815  -15.0072   17.2106 C   0  0  0  0  0  0  0  0  0  0  0  0
   14.3804  -16.0129   16.4892 C   0  0  0  0  0  0  0  0  0  0  0  0
   14.8439  -16.0192   15.2055 N   0  0  0  0  0  0  0  0  0  0  0  0
   15.7294  -15.0196   15.1340 C   0  0  0  0  0  0  0  0  0  0  0  0
   15.8225  -14.4094   16.3153 N   0  0  0  0  0  0  0  0  0  0  0  0
   13.4296  -15.4589   20.6265 C   0  0  0  0  0  0  0  0  0  0  0  0
   13.6556  -14.4724   21.3765 O   0  0  0  0  0  0  0  0  0  0  0  0
   11.6855  -18.8757   22.2840 O   0  0  0  0  0  0  0  0  0  0  0  0
   11.8402  -17.7257   23.0182 C   0  0  0  0  0  0  0  0  0  0  0  0
   13.0787  -16.9385   22.6385 C   0  0  2  0  0  0  0  0  0  0  0  0
   13.1755  -16.7149   21.2274 N   0  0  0  0  0  0  0  0  0  0  0  0
   14.2511  -17.6401   23.2066 C   0  0  0  0  0  0  0  0  0  0  0  0
   14.4139  -17.8770   24.5587 O   0  0  0  0  0  0  0  0  0  0  0  0
   15.1424  -18.0402   22.4225 O   0  0  0  0  0  0  0  0  0  0  0  0
  2  3  1  0
  2  1  1  0
  3  5  1  0
  3  4  1  6
  5  7  1  0
  5  6  1  6
  7  8  2  0
  9 10  1  0
  9  7  1  0
 10 11  1  1
 12 11  1  0
 13 12  2  0
 14 13  1  0
 15 14  1  0
 15 16  2  0
 16 12  1  0
 17 22  1  0
 17 10  1  0
 18 17  2  0
 20 19  1  0
 21 20  1  6
 21 22  1  0
 23 24  1  0
 23 21  1  0
 25 23  2  0
M  END
$$$$
