IHS.pdb
     RDKit          3D

 25 25  0  0  1  0  0  0  0  0999 V2000
    7.0555  -12.1828   19.6531 C   0  0  0  0  0  0  0  0  0  0  0  0
    8.1380  -12.8138   18.8411 C   0  0  0  0  0  0  0  0  0  0  0  0
    8.9200  -13.8566   19.6101 C   0  0  2  0  0  0  0  0  0  0  0  0
    9.4268  -13.2303   20.8718 C   0  0  0  0  0  0  0  0  0  0  0  0
   10.0125  -14.4678   18.7646 C   0  0  2  0  0  0  0  0  0  0  0  0
    9.4022  -14.9845   17.5533 N   0  0  0  0  0  0  0  0  0  0  0  0
   10.6899  -15.5706   19.4629 C   0  0  0  0  0  0  0  0  0  0  0  0
   10.1193  -16.7093   19.4875 O   0  0  0  0  0  0  0  0  0  0  0  0
   11.9380  -15.4766   20.1194 N   0  0  0  0  0  0  0  0  0  0  0  0
   12.5494  -16.5730   20.8161 C   0  0  1  0  0  0  0  0  0  0  0  0
   13.9998  -16.7299   20.4652 C   0  0  0  0  0  0  0  0  0  0  0  0
   14.2363  -17.2617   19.1106 C   0  0  0  0  0  0  0  0  0  0  0  0
   13.5405  -18.2785   18.4980 C   0  0  0  0  0  0  0  0  0  0  0  0
   14.0329  -18.5037   17.2452 N   0  0  0  0  0  0  0  0  0  0  0  0
   15.0307  -17.6280   17.0842 C   0  0  0  0  0  0  0  0  0  0  0  0
   15.1641  -16.8838   18.1818 N   0  0  0  0  0  0  0  0  0  0  0  0
   12.2518  -16.5675   22.2640 C   0  0  0  0  0  0  0  0  0  0  0  0
   12.5835  -15.5417   22.9156 O   0  0  0  0  0  0  0  0  0  0  0  0
    9.0297  -18.2758   23.9061 O   0  0  0  0  0  0  0  0  0  0  0  0
   10.1311  -18.5118   24.6914 C   0  0  0  0  0  0  0  0  0  0  0  0
   11.3065  -17.6159   24.3540 C   0  0  2  0  0  0  0  0  0  0  0  0
   11.6233  -17.6292   22.9575 N   0  0  0  0  0  0  0  0  0  0  0  0
   12.4391  -18.0121   25.2198 C   0  0  0  0  0  0  0  0  0  0  0  0
   12.3835  -17.9929   26.6009 O   0  0  0  0  0  0  0  0  0  0  0  0
   13.5034  -18.3842   24.6739 O   0  0  0  0  0  0  0  0  0  0  0  0
  2  3  1  0
  2  1  1  0
  3  5  1  0
  3  4  1  1
  5  7  1  0
  5  6  1  6
  7  8  2  0
  9 10  1  0
  9  7  1  0
 10 11  1  1
 12 11  1  0
 13 12  2  0
 14 13  1  0
 15 14  1  0
 15 16  2  0
 16 12  1  0
 17 22  1  0
 17 10  1  0
 18 17  2  0
 20 19  1  0
 21 20  1  6
 21 22  1  0
 23 24  1  0
 23 21  1  0
 25 23  2  0
M  END
$$$$
