IHS.pdb
     RDKit          3D

 25 25  0  0  1  0  0  0  0  0999 V2000
    7.1567  -11.9624   19.1303 C   0  0  0  0  0  0  0  0  0  0  0  0
    8.1325  -12.8521   18.4336 C   0  0  0  0  0  0  0  0  0  0  0  0
    8.9090  -13.7354   19.3860 C   0  0  2  0  0  0  0  0  0  0  0  0
    9.6259  -12.8579   20.3645 C   0  0  0  0  0  0  0  0  0  0  0  0
    9.8262  -14.6801   18.6457 C   0  0  2  0  0  0  0  0  0  0  0  0
    9.0293  -15.4030   17.6716 N   0  0  0  0  0  0  0  0  0  0  0  0
   10.4599  -15.6482   19.5535 C   0  0  0  0  0  0  0  0  0  0  0  0
    9.7839  -16.6647   19.9177 O   0  0  0  0  0  0  0  0  0  0  0  0
   11.7735  -15.5483   20.0653 N   0  0  0  0  0  0  0  0  0  0  0  0
   12.3768  -16.5519   20.8960 C   0  0  1  0  0  0  0  0  0  0  0  0
   13.7624  -16.9060   20.4421 C   0  0  0  0  0  0  0  0  0  0  0  0
   13.8063  -17.6513   19.1709 C   0  0  0  0  0  0  0  0  0  0  0  0
   14.1340  -17.1424   17.9352 C   0  0  0  0  0  0  0  0  0  0  0  0
   14.0704  -18.1212   16.9862 N   0  0  0  0  0  0  0  0  0  0  0  0
   13.7044  -19.2323   17.6341 C   0  0  0  0  0  0  0  0  0  0  0  0
   13.5437  -18.9703   18.9310 N   0  0  0  0  0  0  0  0  0  0  0  0
   12.2463  -16.2544   22.3382 C   0  0  0  0  0  0  0  0  0  0  0  0
   12.9153  -15.2869   22.7888 O   0  0  0  0  0  0  0  0  0  0  0  0
    9.2677  -18.0073   24.7458 O   0  0  0  0  0  0  0  0  0  0  0  0
    9.8453  -16.8139   25.1028 C   0  0  0  0  0  0  0  0  0  0  0  0
   11.2786  -16.6801   24.6280 C   0  0  2  0  0  0  0  0  0  0  0  0
   11.4253  -16.9788   23.2352 N   0  0  0  0  0  0  0  0  0  0  0  0
   12.1247  -17.5206   25.5040 C   0  0  0  0  0  0  0  0  0  0  0  0
   12.8967  -18.5682   25.0377 O   0  0  0  0  0  0  0  0  0  0  0  0
   12.1426  -17.2706   26.7313 O   0  0  0  0  0  0  0  0  0  0  0  0
  2  3  1  0
  2  1  1  0
  3  5  1  0
  3  4  1  1
  5  7  1  0
  5  6  1  6
  7  8  2  0
  9 10  1  0
  9  7  1  0
 10 11  1  6
 12 11  1  0
 13 12  2  0
 14 13  1  0
 15 14  1  0
 15 16  2  0
 16 12  1  0
 17 22  1  0
 17 10  1  0
 18 17  2  0
 20 19  1  0
 21 20  1  1
 21 22  1  0
 23 24  1  0
 23 21  1  0
 25 23  2  0
M  END
$$$$
