IHS.pdb
     RDKit          3D

 25 25  0  0  1  0  0  0  0  0999 V2000
    6.5779  -11.9075   28.1434 C   0  0  0  0  0  0  0  0  0  0  0  0
    6.0573  -12.7365   27.0161 C   0  0  0  0  0  0  0  0  0  0  0  0
    7.1303  -13.5764   26.3575 C   0  0  2  0  0  0  0  0  0  0  0  0
    8.2637  -12.6767   25.9736 C   0  0  0  0  0  0  0  0  0  0  0  0
    6.5795  -14.3729   25.1983 C   0  0  2  0  0  0  0  0  0  0  0  0
    5.5009  -15.2039   25.7010 N   0  0  0  0  0  0  0  0  0  0  0  0
    7.6045  -15.2384   24.5955 C   0  0  0  0  0  0  0  0  0  0  0  0
    7.7818  -16.3982   25.0917 O   0  0  0  0  0  0  0  0  0  0  0  0
    8.4228  -14.8909   23.4968 N   0  0  0  0  0  0  0  0  0  0  0  0
    9.4270  -15.7608   22.9525 C   0  0  1  0  0  0  0  0  0  0  0  0
    9.9353  -15.2797   21.6253 C   0  0  0  0  0  0  0  0  0  0  0  0
    8.9061  -15.2267   20.5710 C   0  0  0  0  0  0  0  0  0  0  0  0
    7.6050  -15.6619   20.6753 C   0  0  0  0  0  0  0  0  0  0  0  0
    6.9391  -15.4547   19.5021 N   0  0  0  0  0  0  0  0  0  0  0  0
    7.8269  -14.8927   18.6748 C   0  0  0  0  0  0  0  0  0  0  0  0
    8.9987  -14.7507   19.2938 N   0  0  0  0  0  0  0  0  0  0  0  0
   10.4741  -16.1106   23.9356 C   0  0  0  0  0  0  0  0  0  0  0  0
   11.0414  -15.1588   24.5350 O   0  0  0  0  0  0  0  0  0  0  0  0
   10.6656  -19.7496   25.8254 O   0  0  0  0  0  0  0  0  0  0  0  0
   11.3863  -18.6784   26.2930 C   0  0  0  0  0  0  0  0  0  0  0  0
   11.8962  -17.7752   25.1876 C   0  0  2  0  0  0  0  0  0  0  0  0
   10.8749  -17.4325   24.2442 N   0  0  0  0  0  0  0  0  0  0  0  0
   13.0706  -18.4328   24.5731 C   0  0  0  0  0  0  0  0  0  0  0  0
   14.1802  -18.8349   25.2928 O   0  0  0  0  0  0  0  0  0  0  0  0
   13.0594  -18.6360   23.3370 O   0  0  0  0  0  0  0  0  0  0  0  0
  2  3  1  0
  2  1  1  0
  3  5  1  0
  3  4  1  6
  5  7  1  0
  5  6  1  1
  7  8  2  0
  9 10  1  0
  9  7  1  0
 10 11  1  6
 12 11  1  0
 13 12  2  0
 14 13  1  0
 15 14  1  0
 15 16  2  0
 16 12  1  0
 17 22  1  0
 17 10  1  0
 18 17  2  0
 20 19  1  0
 21 20  1  1
 21 22  1  0
 23 24  1  0
 23 21  1  0
 25 23  2  0
M  END
$$$$
