IHS.pdb
     RDKit          3D

 25 25  0  0  1  0  0  0  0  0999 V2000
    6.4544  -11.9170   27.6645 C   0  0  0  0  0  0  0  0  0  0  0  0
    6.1898  -12.7197   26.4338 C   0  0  0  0  0  0  0  0  0  0  0  0
    7.2534  -13.7637   26.1709 C   0  0  2  0  0  0  0  0  0  0  0  0
    8.5884  -13.0861   26.1680 C   0  0  0  0  0  0  0  0  0  0  0  0
    6.9723  -14.5372   24.9043 C   0  0  2  0  0  0  0  0  0  0  0  0
    5.6269  -15.0735   24.9989 N   0  0  0  0  0  0  0  0  0  0  0  0
    7.9159  -15.6508   24.7246 C   0  0  0  0  0  0  0  0  0  0  0  0
    7.6424  -16.7672   25.2740 O   0  0  0  0  0  0  0  0  0  0  0  0
    9.1184  -15.5904   23.9844 N   0  0  0  0  0  0  0  0  0  0  0  0
    9.9549  -16.7314   23.7405 C   0  0  1  0  0  0  0  0  0  0  0  0
   10.5114  -16.7392   22.3472 C   0  0  0  0  0  0  0  0  0  0  0  0
    9.4852  -16.6906   21.2898 C   0  0  0  0  0  0  0  0  0  0  0  0
    9.1606  -15.6013   20.5143 C   0  0  0  0  0  0  0  0  0  0  0  0
    8.1649  -15.9219   19.6377 N   0  0  0  0  0  0  0  0  0  0  0  0
    7.8749  -17.2063   19.8711 C   0  0  0  0  0  0  0  0  0  0  0  0
    8.6494  -17.6769   20.8484 N   0  0  0  0  0  0  0  0  0  0  0  0
   10.9476  -16.9522   24.8134 C   0  0  0  0  0  0  0  0  0  0  0  0
   11.7824  -16.0323   25.0229 O   0  0  0  0  0  0  0  0  0  0  0  0
   10.5586  -19.4963   28.0906 O   0  0  0  0  0  0  0  0  0  0  0  0
   11.7518  -19.6042   27.4197 C   0  0  0  0  0  0  0  0  0  0  0  0
   12.0601  -18.3983   26.5546 C   0  0  2  0  0  0  0  0  0  0  0  0
   11.0185  -18.1181   25.6127 N   0  0  0  0  0  0  0  0  0  0  0  0
   13.3808  -18.6201   25.9253 C   0  0  0  0  0  0  0  0  0  0  0  0
   13.5419  -19.1889   24.6758 O   0  0  0  0  0  0  0  0  0  0  0  0
   14.4061  -18.2748   26.5567 O   0  0  0  0  0  0  0  0  0  0  0  0
  2  3  1  0
  2  1  1  0
  3  5  1  0
  3  4  1  6
  5  7  1  0
  5  6  1  1
  7  8  2  0
  9 10  1  0
  9  7  1  0
 10 11  1  6
 12 11  1  0
 13 12  2  0
 14 13  1  0
 15 14  1  0
 15 16  2  0
 16 12  1  0
 17 22  1  0
 17 10  1  0
 18 17  2  0
 20 19  1  0
 21 20  1  6
 21 22  1  0
 23 24  1  0
 23 21  1  0
 25 23  2  0
M  END
$$$$
