IHS.pdb
     RDKit          3D

 25 25  0  0  1  0  0  0  0  0999 V2000
    7.7511  -12.8159   28.5688 C   0  0  0  0  0  0  0  0  0  0  0  0
    6.7632  -13.5597   27.7321 C   0  0  0  0  0  0  0  0  0  0  0  0
    7.3034  -13.9238   26.3661 C   0  0  2  0  0  0  0  0  0  0  0  0
    7.7636  -12.6691   25.6914 C   0  0  0  0  0  0  0  0  0  0  0  0
    6.2921  -14.7017   25.5575 C   0  0  2  0  0  0  0  0  0  0  0  0
    5.9870  -15.9224   26.2809 N   0  0  0  0  0  0  0  0  0  0  0  0
    6.8123  -15.0548   24.2280 C   0  0  0  0  0  0  0  0  0  0  0  0
    7.1649  -16.2610   24.0196 O   0  0  0  0  0  0  0  0  0  0  0  0
    6.9577  -14.1594   23.1442 N   0  0  0  0  0  0  0  0  0  0  0  0
    7.4893  -14.5435   21.8671 C   0  0  1  0  0  0  0  0  0  0  0  0
    7.1945  -13.5290   20.8016 C   0  0  0  0  0  0  0  0  0  0  0  0
    7.7045  -13.8934   19.4672 C   0  0  0  0  0  0  0  0  0  0  0  0
    8.5289  -13.1325   18.6707 C   0  0  0  0  0  0  0  0  0  0  0  0
    8.7982  -13.7866   17.5035 N   0  0  0  0  0  0  0  0  0  0  0  0
    8.1416  -14.9492   17.5788 C   0  0  0  0  0  0  0  0  0  0  0  0
    7.4878  -15.0280   18.7376 N   0  0  0  0  0  0  0  0  0  0  0  0
    8.8993  -14.9812   21.9431 C   0  0  0  0  0  0  0  0  0  0  0  0
    9.6941  -14.2509   22.5924 O   0  0  0  0  0  0  0  0  0  0  0  0
   10.1635  -18.6821   20.3963 O   0  0  0  0  0  0  0  0  0  0  0  0
   10.9284  -18.0797   21.3646 C   0  0  0  0  0  0  0  0  0  0  0  0
   10.7771  -16.5717   21.3910 C   0  0  2  0  0  0  0  0  0  0  0  0
    9.4075  -16.1567   21.3404 N   0  0  0  0  0  0  0  0  0  0  0  0
   11.6028  -16.0161   20.2960 C   0  0  0  0  0  0  0  0  0  0  0  0
   12.9688  -16.2063   20.2019 O   0  0  0  0  0  0  0  0  0  0  0  0
   11.0355  -15.3384   19.4082 O   0  0  0  0  0  0  0  0  0  0  0  0
  2  3  1  0
  2  1  1  0
  3  5  1  0
  3  4  1  6
  5  7  1  0
  5  6  1  1
  7  8  2  0
  9 10  1  0
  9  7  1  0
 10 11  1  6
 12 11  1  0
 13 12  2  0
 14 13  1  0
 15 14  1  0
 15 16  2  0
 16 12  1  0
 17 22  1  0
 17 10  1  0
 18 17  2  0
 20 19  1  0
 21 20  1  6
 21 22  1  0
 23 24  1  0
 23 21  1  0
 25 23  2  0
M  END
$$$$
