IHS.pdb
     RDKit          3D

 25 25  0  0  1  0  0  0  0  0999 V2000
    6.2687  -11.4961   26.6140 C   0  0  0  0  0  0  0  0  0  0  0  0
    6.0088  -12.6840   25.7477 C   0  0  0  0  0  0  0  0  0  0  0  0
    7.1116  -13.7180   25.8187 C   0  0  2  0  0  0  0  0  0  0  0  0
    8.4161  -13.0351   25.5481 C   0  0  0  0  0  0  0  0  0  0  0  0
    6.8426  -14.8821   24.8945 C   0  0  2  0  0  0  0  0  0  0  0  0
    5.5773  -15.4772   25.2839 N   0  0  0  0  0  0  0  0  0  0  0  0
    7.8960  -15.9045   24.9846 C   0  0  0  0  0  0  0  0  0  0  0  0
    7.7683  -16.8264   25.8545 O   0  0  0  0  0  0  0  0  0  0  0  0
    9.0556  -15.9549   24.1782 N   0  0  0  0  0  0  0  0  0  0  0  0
    9.9322  -17.0906   24.1240 C   0  0  1  0  0  0  0  0  0  0  0  0
   10.5641  -17.2553   22.7731 C   0  0  0  0  0  0  0  0  0  0  0  0
    9.6018  -17.5170   21.6873 C   0  0  0  0  0  0  0  0  0  0  0  0
    8.5393  -18.3902   21.7287 C   0  0  0  0  0  0  0  0  0  0  0  0
    7.8636  -18.3729   20.5431 N   0  0  0  0  0  0  0  0  0  0  0  0
    8.5071  -17.4910   19.7709 C   0  0  0  0  0  0  0  0  0  0  0  0
    9.5408  -16.9743   20.4351 N   0  0  0  0  0  0  0  0  0  0  0  0
   10.8698  -17.1441   25.2656 C   0  0  0  0  0  0  0  0  0  0  0  0
   11.6307  -16.1540   25.4319 O   0  0  0  0  0  0  0  0  0  0  0  0
   10.3729  -19.7317   28.4970 O   0  0  0  0  0  0  0  0  0  0  0  0
   11.1697  -18.6170   28.5865 C   0  0  0  0  0  0  0  0  0  0  0  0
   11.8686  -18.2782   27.2847 C   0  0  2  0  0  0  0  0  0  0  0  0
   10.9653  -18.2245   26.1749 N   0  0  0  0  0  0  0  0  0  0  0  0
   12.9731  -19.2455   27.1004 C   0  0  0  0  0  0  0  0  0  0  0  0
   14.0093  -19.3975   28.0026 O   0  0  0  0  0  0  0  0  0  0  0  0
   12.9695  -19.9639   26.0742 O   0  0  0  0  0  0  0  0  0  0  0  0
  2  3  1  0
  2  1  1  0
  3  5  1  0
  3  4  1  6
  5  7  1  0
  5  6  1  1
  7  8  2  0
  9 10  1  0
  9  7  1  0
 10 11  1  6
 12 11  1  0
 13 12  2  0
 14 13  1  0
 15 14  1  0
 15 16  2  0
 16 12  1  0
 17 22  1  0
 17 10  1  0
 18 17  2  0
 20 19  1  0
 21 20  1  1
 21 22  1  0
 23 24  1  0
 23 21  1  0
 25 23  2  0
M  END
$$$$
