PTP.pdb
     RDKit          3D

 22 23  0  0  1  0  0  0  0  0999 V2000
    9.2590  -14.7871   20.1293 N   0  0  0  0  0  0  0  0  0  0  0  0
    8.4014  -14.9874   18.9913 C   0  0  0  0  0  0  0  0  0  0  0  0
    7.9927  -13.5821   18.5894 C   0  0  0  0  0  0  0  0  0  0  0  0
    7.7547  -12.9526   19.9576 C   0  0  0  0  0  0  0  0  0  0  0  0
    8.8761  -13.5678   20.7673 C   0  0  1  0  0  0  0  0  0  0  0  0
    8.3384  -13.8302   22.1212 C   0  0  0  0  0  0  0  0  0  0  0  0
    7.7080  -12.9093   22.7064 O   0  0  0  0  0  0  0  0  0  0  0  0
    6.1640  -16.4878   23.3206 C   0  0  0  0  0  0  0  0  0  0  0  0
    7.3969  -16.6309   24.1696 C   0  0  1  0  0  0  0  0  0  0  0  0
    8.2093  -17.5992   23.5494 O   0  0  0  0  0  0  0  0  0  0  0  0
    8.1402  -15.2926   24.1398 C   0  0  2  0  0  0  0  0  0  0  0  0
    8.5308  -15.0984   22.7482 N   0  0  0  0  0  0  0  0  0  0  0  0
    9.3378  -15.3262   25.0170 C   0  0  0  0  0  0  0  0  0  0  0  0
   10.4323  -15.6966   24.5200 O   0  0  0  0  0  0  0  0  0  0  0  0
    9.2375  -14.9528   26.3571 N   0  0  0  0  0  0  0  0  0  0  0  0
    8.0993  -14.5528   27.1463 C   0  0  0  0  0  0  0  0  0  0  0  0
    8.6281  -13.5417   28.1512 C   0  0  0  0  0  0  0  0  0  0  0  0
   10.1054  -13.5865   27.9700 C   0  0  0  0  0  0  0  0  0  0  0  0
   10.3680  -14.8884   27.2968 C   0  0  1  0  0  0  0  0  0  0  0  0
   10.3070  -16.0525   28.1951 C   0  0  0  0  0  0  0  0  0  0  0  0
    9.3419  -16.8517   28.2315 O   0  0  0  0  0  0  0  0  0  0  0  0
   11.3690  -16.2933   29.0567 O   0  0  0  0  0  0  0  0  0  0  0  0
  1  2  1  0
  3  4  1  0
  3  2  1  0
  4  5  1  0
  5  1  1  0
  5  6  1  1
  7  6  2  0
  9  8  1  6
  9 11  1  0
 10  9  1  0
 11 12  1  6
 11 13  1  0
 12  6  1  0
 13 15  1  0
 14 13  2  0
 15 16  1  0
 15 19  1  0
 16 17  1  0
 17 18  1  0
 19 20  1  1
 19 18  1  0
 20 22  1  0
 21 20  2  0
M  END
$$$$
