PTP.pdb
     RDKit          3D

 22 23  0  0  1  0  0  0  0  0999 V2000
    9.2114  -14.9464   20.2778 N   0  0  0  0  0  0  0  0  0  0  0  0
    8.3284  -15.1396   19.1582 C   0  0  0  0  0  0  0  0  0  0  0  0
    7.9418  -13.7299   18.7497 C   0  0  0  0  0  0  0  0  0  0  0  0
    7.7431  -13.0822   20.1156 C   0  0  0  0  0  0  0  0  0  0  0  0
    8.8664  -13.7130   20.9104 C   0  0  1  0  0  0  0  0  0  0  0  0
    8.3491  -13.9507   22.2767 C   0  0  0  0  0  0  0  0  0  0  0  0
    7.7965  -12.9952   22.8849 O   0  0  0  0  0  0  0  0  0  0  0  0
    6.1227  -16.5855   23.5537 C   0  0  0  0  0  0  0  0  0  0  0  0
    7.3747  -16.7321   24.3738 C   0  0  1  0  0  0  0  0  0  0  0  0
    8.1555  -17.7252   23.7523 O   0  0  0  0  0  0  0  0  0  0  0  0
    8.1379  -15.4068   24.2986 C   0  0  2  0  0  0  0  0  0  0  0  0
    8.4743  -15.2339   22.8901 N   0  0  0  0  0  0  0  0  0  0  0  0
    9.3697  -15.4513   25.1265 C   0  0  0  0  0  0  0  0  0  0  0  0
   10.4444  -15.8101   24.5801 O   0  0  0  0  0  0  0  0  0  0  0  0
    9.3223  -15.1003   26.4756 N   0  0  0  0  0  0  0  0  0  0  0  0
    8.2332  -14.6288   27.2939 C   0  0  0  0  0  0  0  0  0  0  0  0
    8.8577  -13.6847   28.3090 C   0  0  0  0  0  0  0  0  0  0  0  0
   10.3235  -13.8422   28.0993 C   0  0  0  0  0  0  0  0  0  0  0  0
   10.4703  -15.1459   27.3951 C   0  0  1  0  0  0  0  0  0  0  0  0
   10.3323  -16.3207   28.2705 C   0  0  0  0  0  0  0  0  0  0  0  0
    9.3101  -17.0455   28.3040 O   0  0  0  0  0  0  0  0  0  0  0  0
   11.3834  -16.6590   29.1125 O   0  0  0  0  0  0  0  0  0  0  0  0
  1  2  1  0
  3  4  1  0
  3  2  1  0
  4  5  1  0
  5  1  1  0
  5  6  1  1
  7  6  2  0
  9  8  1  6
  9 11  1  0
 10  9  1  0
 11 12  1  6
 11 13  1  0
 12  6  1  0
 13 15  1  0
 14 13  2  0
 15 16  1  0
 15 19  1  0
 16 17  1  0
 17 18  1  0
 19 20  1  1
 19 18  1  0
 20 22  1  0
 21 20  2  0
M  END
$$$$
