PTP.pdb
     RDKit          3D

 22 23  0  0  1  0  0  0  0  0999 V2000
    8.1032  -15.0999   19.1344 N   0  0  0  0  0  0  0  0  0  0  0  0
    7.4271  -14.2368   18.2024 C   0  0  0  0  0  0  0  0  0  0  0  0
    8.1841  -12.9252   18.3031 C   0  0  0  0  0  0  0  0  0  0  0  0
    8.4055  -12.8392   19.8091 C   0  0  0  0  0  0  0  0  0  0  0  0
    8.6896  -14.2861   20.1514 C   0  0  1  0  0  0  0  0  0  0  0  0
    8.0599  -14.5519   21.4642 C   0  0  0  0  0  0  0  0  0  0  0  0
    6.8266  -14.8090   21.4982 O   0  0  0  0  0  0  0  0  0  0  0  0
    6.5112  -16.0649   22.6596 C   0  0  0  0  0  0  0  0  0  0  0  0
    7.5640  -16.2275   23.7211 C   0  0  1  0  0  0  0  0  0  0  0  0
    8.5365  -17.1023   23.2004 O   0  0  0  0  0  0  0  0  0  0  0  0
    8.2184  -14.8607   23.9406 C   0  0  2  0  0  0  0  0  0  0  0  0
    8.8335  -14.5172   22.6637 N   0  0  0  0  0  0  0  0  0  0  0  0
    9.2441  -14.9247   25.0123 C   0  0  0  0  0  0  0  0  0  0  0  0
   10.4086  -15.2866   24.7040 O   0  0  0  0  0  0  0  0  0  0  0  0
    8.9110  -14.5881   26.3243 N   0  0  0  0  0  0  0  0  0  0  0  0
    7.6322  -14.3492   26.9453 C   0  0  0  0  0  0  0  0  0  0  0  0
    7.8814  -13.2946   28.0118 C   0  0  0  0  0  0  0  0  0  0  0  0
    9.3628  -13.1473   28.0393 C   0  0  0  0  0  0  0  0  0  0  0  0
    9.8820  -14.3943   27.4128 C   0  0  1  0  0  0  0  0  0  0  0  0
    9.8470  -15.5705   28.2966 C   0  0  0  0  0  0  0  0  0  0  0  0
    9.0075  -16.4952   28.1889 O   0  0  0  0  0  0  0  0  0  0  0  0
   10.7888  -15.6774   29.3113 O   0  0  0  0  0  0  0  0  0  0  0  0
  1  2  1  0
  3  4  1  0
  3  2  1  0
  4  5  1  0
  5  1  1  0
  5  6  1  1
  7  6  2  0
  9  8  1  6
  9 11  1  0
 10  9  1  0
 11 12  1  6
 11 13  1  0
 12  6  1  0
 13 15  1  0
 14 13  2  0
 15 16  1  0
 15 19  1  0
 16 17  1  0
 17 18  1  0
 19 20  1  1
 19 18  1  0
 20 22  1  0
 21 20  2  0
M  END
$$$$
