PTP.pdb
     RDKit          3D

 22 23  0  0  1  0  0  0  0  0999 V2000
    8.6002  -15.0900   19.0583 N   0  0  0  0  0  0  0  0  0  0  0  0
    7.9718  -14.3731   17.9805 C   0  0  0  0  0  0  0  0  0  0  0  0
    8.4220  -12.9380   18.1842 C   0  0  0  0  0  0  0  0  0  0  0  0
    8.3126  -12.8178   19.7002 C   0  0  0  0  0  0  0  0  0  0  0  0
    8.7982  -14.1815   20.1427 C   0  0  1  0  0  0  0  0  0  0  0  0
    7.9798  -14.5737   21.3120 C   0  0  0  0  0  0  0  0  0  0  0  0
    6.7356  -14.3783   21.2675 O   0  0  0  0  0  0  0  0  0  0  0  0
    6.3267  -16.7779   22.8050 C   0  0  0  0  0  0  0  0  0  0  0  0
    7.3186  -16.5537   23.9128 C   0  0  1  0  0  0  0  0  0  0  0  0
    8.3619  -17.4792   23.7197 O   0  0  0  0  0  0  0  0  0  0  0  0
    7.8925  -15.1441   23.7451 C   0  0  2  0  0  0  0  0  0  0  0  0
    8.5878  -15.1598   22.4632 N   0  0  0  0  0  0  0  0  0  0  0  0
    8.8349  -14.8160   24.8446 C   0  0  0  0  0  0  0  0  0  0  0  0
   10.0678  -14.9514   24.6354 O   0  0  0  0  0  0  0  0  0  0  0  0
    8.3514  -14.3686   26.0741 N   0  0  0  0  0  0  0  0  0  0  0  0
    7.0060  -14.2630   26.5810 C   0  0  0  0  0  0  0  0  0  0  0  0
    7.0042  -13.0506   27.4985 C   0  0  0  0  0  0  0  0  0  0  0  0
    8.4382  -12.6599   27.5888 C   0  0  0  0  0  0  0  0  0  0  0  0
    9.1917  -13.8765   27.1772 C   0  0  1  0  0  0  0  0  0  0  0  0
    9.2693  -14.9156   28.2164 C   0  0  0  0  0  0  0  0  0  0  0  0
    9.9747  -14.8149   29.2477 O   0  0  0  0  0  0  0  0  0  0  0  0
    8.5263  -16.0783   28.0613 O   0  0  0  0  0  0  0  0  0  0  0  0
  1  2  1  0
  3  4  1  0
  3  2  1  0
  4  5  1  0
  5  1  1  0
  5  6  1  1
  7  6  2  0
  9  8  1  6
  9 11  1  0
 10  9  1  0
 11 12  1  6
 11 13  1  0
 12  6  1  0
 13 15  1  0
 14 13  2  0
 15 16  1  0
 15 19  1  0
 16 17  1  0
 17 18  1  0
 19 20  1  1
 19 18  1  0
 20 22  1  0
 21 20  2  0
M  END
$$$$
