PTP.pdb
     RDKit          3D

 22 23  0  0  1  0  0  0  0  0999 V2000
    8.5690  -15.0837   18.8790 N   0  0  0  0  0  0  0  0  0  0  0  0
    7.8281  -14.5914   17.7480 C   0  0  0  0  0  0  0  0  0  0  0  0
    8.1495  -13.1085   17.7175 C   0  0  0  0  0  0  0  0  0  0  0  0
    8.0973  -12.7753   19.2044 C   0  0  0  0  0  0  0  0  0  0  0  0
    8.7288  -14.0111   19.8088 C   0  0  1  0  0  0  0  0  0  0  0  0
    8.0043  -14.2956   21.0677 C   0  0  0  0  0  0  0  0  0  0  0  0
    6.7464  -14.3647   21.0348 O   0  0  0  0  0  0  0  0  0  0  0  0
    6.3302  -15.9406   22.2005 C   0  0  0  0  0  0  0  0  0  0  0  0
    7.2941  -16.0735   23.3471 C   0  0  1  0  0  0  0  0  0  0  0  0
    8.2651  -17.0153   22.9567 O   0  0  0  0  0  0  0  0  0  0  0  0
    7.9869  -14.7206   23.5318 C   0  0  2  0  0  0  0  0  0  0  0  0
    8.7159  -14.4871   22.2905 N   0  0  0  0  0  0  0  0  0  0  0  0
    8.9203  -14.7508   24.6862 C   0  0  0  0  0  0  0  0  0  0  0  0
   10.1032  -15.1300   24.4884 O   0  0  0  0  0  0  0  0  0  0  0  0
    8.4832  -14.3648   25.9532 N   0  0  0  0  0  0  0  0  0  0  0  0
    7.1625  -14.0706   26.4506 C   0  0  0  0  0  0  0  0  0  0  0  0
    7.3491  -12.9913   27.5052 C   0  0  0  0  0  0  0  0  0  0  0  0
    8.8261  -12.8855   27.6607 C   0  0  0  0  0  0  0  0  0  0  0  0
    9.3597  -14.1655   27.1183 C   0  0  1  0  0  0  0  0  0  0  0  0
    9.2100  -15.3125   28.0280 C   0  0  0  0  0  0  0  0  0  0  0  0
    8.3336  -16.1982   27.8904 O   0  0  0  0  0  0  0  0  0  0  0  0
   10.0795  -15.4355   29.1036 O   0  0  0  0  0  0  0  0  0  0  0  0
  1  2  1  0
  3  4  1  0
  3  2  1  0
  4  5  1  0
  5  1  1  0
  5  6  1  1
  7  6  2  0
  9  8  1  6
  9 11  1  0
 10  9  1  0
 11 12  1  6
 11 13  1  0
 12  6  1  0
 13 15  1  0
 14 13  2  0
 15 16  1  0
 15 19  1  0
 16 17  1  0
 17 18  1  0
 19 20  1  1
 19 18  1  0
 20 22  1  0
 21 20  2  0
M  END
$$$$
