PTP.pdb
     RDKit          3D

 22 23  0  0  1  0  0  0  0  0999 V2000
    8.6502  -14.9430   18.8904 N   0  0  0  0  0  0  0  0  0  0  0  0
    8.1291  -14.3003   17.7132 C   0  0  0  0  0  0  0  0  0  0  0  0
    8.5373  -12.8478   17.8783 C   0  0  0  0  0  0  0  0  0  0  0  0
    8.2683  -12.6438   19.3651 C   0  0  0  0  0  0  0  0  0  0  0  0
    8.7221  -13.9709   19.9346 C   0  0  1  0  0  0  0  0  0  0  0  0
    7.7908  -14.3113   21.0335 C   0  0  0  0  0  0  0  0  0  0  0  0
    6.5745  -14.0067   20.9066 O   0  0  0  0  0  0  0  0  0  0  0  0
    6.1283  -16.7212   22.5066 C   0  0  0  0  0  0  0  0  0  0  0  0
    6.9860  -16.3356   23.6801 C   0  0  1  0  0  0  0  0  0  0  0  0
    8.0994  -17.1974   23.6723 O   0  0  0  0  0  0  0  0  0  0  0  0
    7.4847  -14.9076   23.4426 C   0  0  2  0  0  0  0  0  0  0  0  0
    8.2615  -14.9695   22.2098 N   0  0  0  0  0  0  0  0  0  0  0  0
    8.3325  -14.4427   24.5694 C   0  0  0  0  0  0  0  0  0  0  0  0
    9.5800  -14.4220   24.4098 O   0  0  0  0  0  0  0  0  0  0  0  0
    7.7468  -14.0408   25.7698 N   0  0  0  0  0  0  0  0  0  0  0  0
    6.3739  -14.0658   26.2089 C   0  0  0  0  0  0  0  0  0  0  0  0
    6.2078  -12.8563   27.1151 C   0  0  0  0  0  0  0  0  0  0  0  0
    7.5904  -12.3267   27.2728 C   0  0  0  0  0  0  0  0  0  0  0  0
    8.4789  -13.4648   26.9089 C   0  0  1  0  0  0  0  0  0  0  0  0
    8.6057  -14.4878   27.9592 C   0  0  0  0  0  0  0  0  0  0  0  0
    8.0167  -15.5938   27.9260 O   0  0  0  0  0  0  0  0  0  0  0  0
    9.4190  -14.2295   29.0547 O   0  0  0  0  0  0  0  0  0  0  0  0
  1  2  1  0
  3  4  1  0
  3  2  1  0
  4  5  1  0
  5  1  1  0
  5  6  1  1
  7  6  2  0
  9  8  1  6
  9 11  1  0
 10  9  1  0
 11 12  1  6
 11 13  1  0
 12  6  1  0
 13 15  1  0
 14 13  2  0
 15 16  1  0
 15 19  1  0
 16 17  1  0
 17 18  1  0
 19 20  1  1
 19 18  1  0
 20 22  1  0
 21 20  2  0
M  END
$$$$
