MYF.pdb
     RDKit          3D

 32 33  0  0  1  0  0  0  0  0999 V2000
    8.4155  -11.4830   20.6599 C   0  0  0  0  0  0  0  0  0  0  0  0
    7.0781  -12.1680   19.6674 S   0  0  0  0  0  0  0  0  0  0  0  0
    7.3781  -13.9134   19.3165 C   0  0  0  0  0  0  0  0  0  0  0  0
    7.8861  -14.5674   20.6024 C   0  0  0  0  0  0  0  0  0  0  0  0
    8.1839  -16.0170   20.2948 C   0  0  2  0  0  0  0  0  0  0  0  0
    6.9771  -16.6512   19.7832 N   0  0  0  0  0  0  0  0  0  0  0  0
    8.6657  -16.6783   21.5195 C   0  0  0  0  0  0  0  0  0  0  0  0
    7.8199  -17.2687   22.2348 O   0  0  0  0  0  0  0  0  0  0  0  0
   14.1662  -21.8666   26.1529 O   0  0  0  0  0  0  0  0  0  0  0  0
   13.6249  -20.8870   25.3155 C   0  0  0  0  0  0  0  0  0  0  0  0
   14.2048  -19.6459   25.1729 C   0  0  0  0  0  0  0  0  0  0  0  0
   13.6524  -18.6976   24.3418 C   0  0  0  0  0  0  0  0  0  0  0  0
   12.4861  -18.9359   23.6038 C   0  0  0  0  0  0  0  0  0  0  0  0
   11.8849  -17.9178   22.7484 C   0  0  0  0  0  0  0  0  0  0  0  0
   10.5091  -17.4707   23.0556 C   0  0  2  0  0  0  0  0  0  0  0  0
   10.0140  -16.6685   21.9032 N   0  0  0  0  0  0  0  0  0  0  0  0
   10.2936  -16.6268   24.2192 C   0  0  0  0  0  0  0  0  0  0  0  0
   10.7984  -15.4720   24.3604 O   0  0  0  0  0  0  0  0  0  0  0  0
   11.9290  -20.1869   23.7674 C   0  0  0  0  0  0  0  0  0  0  0  0
   12.4781  -21.1405   24.5987 C   0  0  0  0  0  0  0  0  0  0  0  0
    9.4746  -17.0615   25.2933 N   0  0  0  0  0  0  0  0  0  0  0  0
    9.4449  -16.3228   26.5534 C   0  0  1  0  0  0  0  0  0  0  0  0
    8.0036  -15.9072   26.7663 C   0  0  0  0  0  0  0  0  0  0  0  0
    7.7411  -14.4912   26.4192 C   0  0  0  0  0  0  0  0  0  0  0  0
    6.7484  -14.1346   25.5049 C   0  0  0  0  0  0  0  0  0  0  0  0
    6.4887  -12.8201   25.1792 C   0  0  0  0  0  0  0  0  0  0  0  0
    7.2133  -11.7978   25.7559 C   0  0  0  0  0  0  0  0  0  0  0  0
    8.1932  -12.1347   26.6574 C   0  0  0  0  0  0  0  0  0  0  0  0
    8.4482  -13.4480   26.9787 C   0  0  0  0  0  0  0  0  0  0  0  0
   10.0474  -17.0233   27.6799 C   0  0  0  0  0  0  0  0  0  0  0  0
   10.4601  -16.4816   28.8725 O   0  0  0  0  0  0  0  0  0  0  0  0
   10.2189  -18.2881   27.5608 O   0  0  0  0  0  0  0  0  0  0  0  0
  1  2  1  0
  3  2  1  0
  4  3  1  0
  5  6  1  1
  5  4  1  0
  7  5  1  0
  7  8  2  0
  9 10  1  0
 10 20  2  0
 10 11  1  0
 11 12  2  0
 12 13  1  0
 13 14  1  0
 15 14  1  6
 15 17  1  0
 15 16  1  0
 16  7  1  0
 17 18  2  0
 19 13  2  0
 20 19  1  0
 21 22  1  0
 21 17  1  0
 22 30  1  0
 22 23  1  1
 24 29  1  0
 24 23  1  0
 25 24  2  0
 26 27  2  0
 26 25  1  0
 27 28  1  0
 28 29  2  0
 30 32  2  0
 30 31  1  0
M  END
$$$$
