MYF.pdb
     RDKit          3D

 32 33  0  0  1  0  0  0  0  0999 V2000
    9.2516  -12.1769   19.4653 C   0  0  0  0  0  0  0  0  0  0  0  0
    8.5072  -12.7284   17.9210 S   0  0  0  0  0  0  0  0  0  0  0  0
    8.3184  -14.5239   17.9134 C   0  0  0  0  0  0  0  0  0  0  0  0
    8.1306  -14.9796   19.3613 C   0  0  0  0  0  0  0  0  0  0  0  0
    8.1816  -16.4901   19.3786 C   0  0  2  0  0  0  0  0  0  0  0  0
    7.0287  -17.0121   18.6585 N   0  0  0  0  0  0  0  0  0  0  0  0
    8.2024  -16.9536   20.7765 C   0  0  0  0  0  0  0  0  0  0  0  0
    7.1118  -16.9836   21.3972 O   0  0  0  0  0  0  0  0  0  0  0  0
   11.1088  -21.4923   27.9579 O   0  0  0  0  0  0  0  0  0  0  0  0
   10.8016  -20.9178   26.7213 C   0  0  0  0  0  0  0  0  0  0  0  0
    9.5076  -20.8300   26.2577 C   0  0  0  0  0  0  0  0  0  0  0  0
    9.2306  -20.2595   25.0358 C   0  0  0  0  0  0  0  0  0  0  0  0
   10.2332  -19.7429   24.2053 C   0  0  0  0  0  0  0  0  0  0  0  0
    9.9398  -19.1680   22.8965 C   0  0  0  0  0  0  0  0  0  0  0  0
    9.3855  -17.7980   22.8436 C   0  0  2  0  0  0  0  0  0  0  0  0
    9.3803  -17.3544   21.4224 N   0  0  0  0  0  0  0  0  0  0  0  0
   10.0736  -16.7392   23.5635 C   0  0  0  0  0  0  0  0  0  0  0  0
   11.1781  -16.2351   23.1975 O   0  0  0  0  0  0  0  0  0  0  0  0
   11.5178  -19.8453   24.6966 C   0  0  0  0  0  0  0  0  0  0  0  0
   11.8010  -20.4158   25.9198 C   0  0  0  0  0  0  0  0  0  0  0  0
    9.5252  -16.1900   24.7515 N   0  0  0  0  0  0  0  0  0  0  0  0
   10.3516  -15.3910   25.6531 C   0  0  1  0  0  0  0  0  0  0  0  0
    9.9541  -13.9472   25.4234 C   0  0  0  0  0  0  0  0  0  0  0  0
    8.6211  -13.6081   25.9736 C   0  0  0  0  0  0  0  0  0  0  0  0
    7.4534  -13.8066   25.2349 C   0  0  0  0  0  0  0  0  0  0  0  0
    6.2062  -13.5027   25.7384 C   0  0  0  0  0  0  0  0  0  0  0  0
    6.0695  -12.9841   27.0092 C   0  0  0  0  0  0  0  0  0  0  0  0
    7.2105  -12.7838   27.7470 C   0  0  0  0  0  0  0  0  0  0  0  0
    8.4526  -13.0888   27.2398 C   0  0  0  0  0  0  0  0  0  0  0  0
   10.3137  -15.8168   27.0458 C   0  0  0  0  0  0  0  0  0  0  0  0
    9.4894  -16.7623   27.6051 O   0  0  0  0  0  0  0  0  0  0  0  0
   11.1355  -15.2555   27.8539 O   0  0  0  0  0  0  0  0  0  0  0  0
  1  2  1  0
  3  2  1  0
  4  3  1  0
  5  6  1  1
  5  4  1  0
  7  5  1  0
  7  8  2  0
  9 10  1  0
 10 20  2  0
 10 11  1  0
 11 12  2  0
 12 13  1  0
 13 14  1  0
 15 14  1  6
 15 17  1  0
 15 16  1  0
 16  7  1  0
 17 18  2  0
 19 13  2  0
 20 19  1  0
 21 22  1  0
 21 17  1  0
 22 30  1  0
 22 23  1  1
 24 29  1  0
 24 23  1  0
 25 24  2  0
 26 27  2  0
 26 25  1  0
 27 28  1  0
 28 29  2  0
 30 32  2  0
 30 31  1  0
M  END
$$$$
