MYF.pdb
     RDKit          3D

 32 33  0  0  1  0  0  0  0  0999 V2000
    9.4320  -18.1369   20.0923 C   0  0  0  0  0  0  0  0  0  0  0  0
    7.7457  -17.7128   19.6237 S   0  0  0  0  0  0  0  0  0  0  0  0
    6.5807  -18.2451   20.8961 C   0  0  0  0  0  0  0  0  0  0  0  0
    7.2390  -19.3759   21.6881 C   0  0  0  0  0  0  0  0  0  0  0  0
    6.2606  -19.8247   22.7492 C   0  0  2  0  0  0  0  0  0  0  0  0
    4.9735  -20.0949   22.1241 N   0  0  0  0  0  0  0  0  0  0  0  0
    6.1537  -18.7758   23.7778 C   0  0  0  0  0  0  0  0  0  0  0  0
    5.1802  -17.9866   23.7068 O   0  0  0  0  0  0  0  0  0  0  0  0
    6.9345  -23.3018   28.8442 O   0  0  0  0  0  0  0  0  0  0  0  0
    7.1292  -21.9956   28.3865 C   0  0  0  0  0  0  0  0  0  0  0  0
    8.2407  -21.6349   27.6574 C   0  0  0  0  0  0  0  0  0  0  0  0
    8.4098  -20.3414   27.2178 C   0  0  0  0  0  0  0  0  0  0  0  0
    7.4756  -19.3318   27.4822 C   0  0  0  0  0  0  0  0  0  0  0  0
    7.6732  -17.9543   27.0426 C   0  0  0  0  0  0  0  0  0  0  0  0
    7.0112  -17.5176   25.7944 C   0  0  2  0  0  0  0  0  0  0  0  0
    7.0879  -18.6348   24.8134 N   0  0  0  0  0  0  0  0  0  0  0  0
    7.5441  -16.3635   25.0896 C   0  0  0  0  0  0  0  0  0  0  0  0
    6.9212  -15.2675   24.9515 O   0  0  0  0  0  0  0  0  0  0  0  0
    6.3741  -19.7234   28.2138 C   0  0  0  0  0  0  0  0  0  0  0  0
    6.1997  -21.0178   28.6567 C   0  0  0  0  0  0  0  0  0  0  0  0
    8.8359  -16.3999   24.5034 N   0  0  0  0  0  0  0  0  0  0  0  0
    9.4225  -15.1964   23.9187 C   0  0  1  0  0  0  0  0  0  0  0  0
    9.5975  -14.2143   25.0588 C   0  0  0  0  0  0  0  0  0  0  0  0
    8.3188  -13.6598   25.5606 C   0  0  0  0  0  0  0  0  0  0  0  0
    7.3243  -13.2119   24.6895 C   0  0  0  0  0  0  0  0  0  0  0  0
    6.1266  -12.7012   25.1435 C   0  0  0  0  0  0  0  0  0  0  0  0
    5.8680  -12.6147   26.4956 C   0  0  0  0  0  0  0  0  0  0  0  0
    6.8381  -13.0519   27.3640 C   0  0  0  0  0  0  0  0  0  0  0  0
    8.0314  -13.5607   26.9056 C   0  0  0  0  0  0  0  0  0  0  0  0
   10.6246  -15.4310   23.1297 C   0  0  0  0  0  0  0  0  0  0  0  0
   11.3230  -14.5134   22.3838 O   0  0  0  0  0  0  0  0  0  0  0  0
   11.0967  -16.6228   23.1194 O   0  0  0  0  0  0  0  0  0  0  0  0
  1  2  1  0
  3  2  1  0
  4  3  1  0
  5  6  1  6
  5  4  1  0
  7  5  1  0
  7  8  2  0
  9 10  1  0
 10 20  2  0
 10 11  1  0
 11 12  2  0
 12 13  1  0
 13 14  1  0
 15 14  1  1
 15 17  1  0
 15 16  1  0
 16  7  1  0
 17 18  2  0
 19 13  2  0
 20 19  1  0
 21 22  1  0
 21 17  1  0
 22 30  1  0
 22 23  1  1
 24 29  1  0
 24 23  1  0
 25 24  2  0
 26 27  2  0
 26 25  1  0
 27 28  1  0
 28 29  2  0
 30 32  2  0
 30 31  1  0
M  END
$$$$
