MYF.pdb
     RDKit          3D

 32 33  0  0  1  0  0  0  0  0999 V2000
    7.6492  -11.9616   20.7540 C   0  0  0  0  0  0  0  0  0  0  0  0
    7.6169  -13.6147   20.0403 S   0  0  0  0  0  0  0  0  0  0  0  0
    6.6963  -14.7469   21.1035 C   0  0  0  0  0  0  0  0  0  0  0  0
    6.7493  -16.1351   20.4637 C   0  0  0  0  0  0  0  0  0  0  0  0
    8.1286  -16.3172   19.8731 C   0  0  2  0  0  0  0  0  0  0  0  0
    8.1133  -17.4648   18.9769 N   0  0  0  0  0  0  0  0  0  0  0  0
    9.0990  -16.4968   20.9665 C   0  0  0  0  0  0  0  0  0  0  0  0
    9.1746  -17.6311   21.4986 O   0  0  0  0  0  0  0  0  0  0  0  0
   15.1469  -15.3963   17.3893 O   0  0  0  0  0  0  0  0  0  0  0  0
   14.3825  -15.2311   18.5478 C   0  0  0  0  0  0  0  0  0  0  0  0
   13.3082  -14.3707   18.5979 C   0  0  0  0  0  0  0  0  0  0  0  0
   12.5708  -14.2254   19.7512 C   0  0  0  0  0  0  0  0  0  0  0  0
   12.8654  -14.9333   20.9234 C   0  0  0  0  0  0  0  0  0  0  0  0
   12.1019  -14.7531   22.1539 C   0  0  0  0  0  0  0  0  0  0  0  0
   10.9935  -15.6918   22.4321 C   0  0  2  0  0  0  0  0  0  0  0  0
    9.9246  -15.4595   21.4222 N   0  0  0  0  0  0  0  0  0  0  0  0
   10.3183  -15.6122   23.7168 C   0  0  0  0  0  0  0  0  0  0  0  0
    9.5243  -14.6789   24.0436 O   0  0  0  0  0  0  0  0  0  0  0  0
   13.9459  -15.7864   20.8422 C   0  0  0  0  0  0  0  0  0  0  0  0
   14.6882  -15.9357   19.6894 C   0  0  0  0  0  0  0  0  0  0  0  0
   10.5130  -16.6111   24.7057 N   0  0  0  0  0  0  0  0  0  0  0  0
    9.8564  -16.5089   26.0068 C   0  0  1  0  0  0  0  0  0  0  0  0
    8.3890  -16.2621   25.7219 C   0  0  0  0  0  0  0  0  0  0  0  0
    7.9778  -14.8536   25.9251 C   0  0  0  0  0  0  0  0  0  0  0  0
    8.5614  -14.0568   26.9116 C   0  0  0  0  0  0  0  0  0  0  0  0
    8.1933  -12.7421   27.1057 C   0  0  0  0  0  0  0  0  0  0  0  0
    7.2205  -12.1620   26.3186 C   0  0  0  0  0  0  0  0  0  0  0  0
    6.6380  -12.9348   25.3440 C   0  0  0  0  0  0  0  0  0  0  0  0
    7.0090  -14.2461   25.1545 C   0  0  0  0  0  0  0  0  0  0  0  0
   10.1209  -17.6231   26.9074 C   0  0  0  0  0  0  0  0  0  0  0  0
    9.9798  -17.6408   28.2734 O   0  0  0  0  0  0  0  0  0  0  0  0
   10.5326  -18.7175   26.3820 O   0  0  0  0  0  0  0  0  0  0  0  0
  1  2  1  0
  3  2  1  0
  4  3  1  0
  5  6  1  6
  5  4  1  0
  7  5  1  0
  7  8  2  0
  9 10  1  0
 10 20  2  0
 10 11  1  0
 11 12  2  0
 12 13  1  0
 13 14  1  0
 15 14  1  1
 15 17  1  0
 15 16  1  0
 16  7  1  0
 17 18  2  0
 19 13  2  0
 20 19  1  0
 21 22  1  0
 21 17  1  0
 22 30  1  0
 22 23  1  6
 24 29  1  0
 24 23  1  0
 25 24  2  0
 26 27  2  0
 26 25  1  0
 27 28  1  0
 28 29  2  0
 30 32  2  0
 30 31  1  0
M  END
$$$$
