MYF.pdb
     RDKit          3D

 32 33  0  0  1  0  0  0  0  0999 V2000
   12.9613  -18.2847   16.2806 C   0  0  0  0  0  0  0  0  0  0  0  0
   12.2682  -19.9333   16.4927 S   0  0  0  0  0  0  0  0  0  0  0  0
   10.6738  -19.8475   17.3355 C   0  0  0  0  0  0  0  0  0  0  0  0
   10.7482  -18.7152   18.3611 C   0  0  0  0  0  0  0  0  0  0  0  0
    9.4380  -18.6898   19.1142 C   0  0  2  0  0  0  0  0  0  0  0  0
    8.3481  -18.5142   18.1647 N   0  0  0  0  0  0  0  0  0  0  0  0
    9.4747  -17.5997   20.1042 C   0  0  0  0  0  0  0  0  0  0  0  0
   10.2953  -16.6686   19.9161 O   0  0  0  0  0  0  0  0  0  0  0  0
    6.4276  -12.3597   26.7351 O   0  0  0  0  0  0  0  0  0  0  0  0
    6.6221  -13.2674   25.6901 C   0  0  0  0  0  0  0  0  0  0  0  0
    6.2071  -14.5780   25.7738 C   0  0  0  0  0  0  0  0  0  0  0  0
    6.4103  -15.4530   24.7307 C   0  0  0  0  0  0  0  0  0  0  0  0
    7.0414  -15.0674   23.5412 C   0  0  0  0  0  0  0  0  0  0  0  0
    7.2843  -16.0053   22.4499 C   0  0  0  0  0  0  0  0  0  0  0  0
    8.6737  -16.4498   22.2069 C   0  0  2  0  0  0  0  0  0  0  0  0
    8.6374  -17.5711   21.2282 N   0  0  0  0  0  0  0  0  0  0  0  0
    9.4498  -16.9556   23.3269 C   0  0  0  0  0  0  0  0  0  0  0  0
    9.3519  -18.1353   23.7819 O   0  0  0  0  0  0  0  0  0  0  0  0
    7.4453  -13.7499   23.4872 C   0  0  0  0  0  0  0  0  0  0  0  0
    7.2443  -12.8691   24.5293 C   0  0  0  0  0  0  0  0  0  0  0  0
   10.3952  -16.1310   23.9902 N   0  0  0  0  0  0  0  0  0  0  0  0
   10.6535  -16.2947   25.4188 C   0  0  1  0  0  0  0  0  0  0  0  0
   10.6886  -14.8982   26.0051 C   0  0  0  0  0  0  0  0  0  0  0  0
   10.6390  -14.8790   27.4855 C   0  0  0  0  0  0  0  0  0  0  0  0
    9.6252  -14.2110   28.1744 C   0  0  0  0  0  0  0  0  0  0  0  0
    9.5632  -14.1923   29.5518 C   0  0  0  0  0  0  0  0  0  0  0  0
   10.5166  -14.8437   30.3062 C   0  0  0  0  0  0  0  0  0  0  0  0
   11.5198  -15.5051   29.6411 C   0  0  0  0  0  0  0  0  0  0  0  0
   11.5770  -15.5206   28.2664 C   0  0  0  0  0  0  0  0  0  0  0  0
    9.7492  -17.2147   26.0957 C   0  0  0  0  0  0  0  0  0  0  0  0
    8.3868  -17.3033   25.9468 O   0  0  0  0  0  0  0  0  0  0  0  0
   10.2671  -18.0413   26.9276 O   0  0  0  0  0  0  0  0  0  0  0  0
  1  2  1  0
  3  2  1  0
  4  3  1  0
  5  6  1  6
  5  4  1  0
  7  5  1  0
  7  8  2  0
  9 10  1  0
 10 20  2  0
 10 11  1  0
 11 12  2  0
 12 13  1  0
 13 14  1  0
 15 14  1  1
 15 17  1  0
 15 16  1  0
 16  7  1  0
 17 18  2  0
 19 13  2  0
 20 19  1  0
 21 22  1  0
 21 17  1  0
 22 30  1  0
 22 23  1  1
 24 29  1  0
 24 23  1  0
 25 24  2  0
 26 27  2  0
 26 25  1  0
 27 28  1  0
 28 29  2  0
 30 32  2  0
 30 31  1  0
M  END
$$$$
