KVM.pdb
     RDKit          3D

 25 24  0  0  1  0  0  0  0  0999 V2000
   12.0904  -16.8128   18.6875 N   0  0  0  0  0  0  0  0  0  0  0  0
   10.8473  -17.1815   19.3269 C   0  0  1  0  0  0  0  0  0  0  0  0
   10.9549  -18.5536   19.9960 C   0  0  0  0  0  0  0  0  0  0  0  0
   11.5970  -19.5226   19.0588 C   0  0  0  0  0  0  0  0  0  0  0  0
   11.6572  -20.8992   19.6278 C   0  0  0  0  0  0  0  0  0  0  0  0
   12.1927  -21.8859   18.6183 C   0  0  0  0  0  0  0  0  0  0  0  0
   12.2507  -23.1990   19.2784 N   0  0  0  0  0  0  0  0  0  0  0  0
   10.4883  -16.1664   20.3451 C   0  0  0  0  0  0  0  0  0  0  0  0
   11.3893  -15.5342   20.9858 O   0  0  0  0  0  0  0  0  0  0  0  0
    7.5008  -13.5532   19.8889 C   0  0  0  0  0  0  0  0  0  0  0  0
    7.4367  -14.3442   21.1461 C   0  0  2  0  0  0  0  0  0  0  0  0
    6.7120  -13.5528   22.2143 C   0  0  0  0  0  0  0  0  0  0  0  0
    8.7392  -14.8999   21.6355 C   0  0  2  0  0  0  0  0  0  0  0  0
    9.1379  -15.8897   20.6157 N   0  0  0  0  0  0  0  0  0  0  0  0
    8.6700  -15.5965   22.9319 C   0  0  0  0  0  0  0  0  0  0  0  0
    8.2786  -16.7897   23.0004 O   0  0  0  0  0  0  0  0  0  0  0  0
    9.8674  -13.0523   29.0545 C   0  0  0  0  0  0  0  0  0  0  0  0
   10.7485  -14.5968   28.8444 S   0  0  0  0  0  0  0  0  0  0  0  0
   10.2470  -15.5219   27.4034 C   0  0  0  0  0  0  0  0  0  0  0  0
    9.1615  -14.8109   26.5919 C   0  0  0  0  0  0  0  0  0  0  0  0
    8.9278  -15.7184   25.3775 C   0  0  2  0  0  0  0  0  0  0  0  0
    9.0360  -14.9684   24.1497 N   0  0  0  0  0  0  0  0  0  0  0  0
    7.6159  -16.3794   25.4470 C   0  0  0  0  0  0  0  0  0  0  0  0
    7.4559  -17.6652   25.9334 O   0  0  0  0  0  0  0  0  0  0  0  0
    6.5987  -15.7649   25.0542 O   0  0  0  0  0  0  0  0  0  0  0  0
  2  1  1  1
  3  2  1  0
  3  4  1  0
  4  5  1  0
  5  6  1  0
  7  6  1  0
  8  9  2  0
  8  2  1  0
 11 10  1  6
 11 13  1  0
 11 12  1  0
 13 14  1  6
 14  8  1  0
 15 22  1  0
 15 13  1  0
 16 15  2  0
 17 18  1  0
 18 19  1  0
 19 20  1  0
 21 20  1  1
 21 23  1  0
 21 22  1  0
 23 24  1  0
 25 23  2  0
M  END
$$$$
