KVM.pdb
     RDKit          3D

 25 24  0  0  1  0  0  0  0  0999 V2000
   11.1641  -17.2385   18.1335 N   0  0  0  0  0  0  0  0  0  0  0  0
   10.8924  -17.7065   19.4742 C   0  0  1  0  0  0  0  0  0  0  0  0
   12.1321  -18.3530   20.0964 C   0  0  0  0  0  0  0  0  0  0  0  0
   12.0578  -19.8365   19.9432 C   0  0  0  0  0  0  0  0  0  0  0  0
   13.1983  -20.5281   20.6091 C   0  0  0  0  0  0  0  0  0  0  0  0
   13.1528  -22.0174   20.3655 C   0  0  0  0  0  0  0  0  0  0  0  0
   14.3731  -22.5937   20.9503 N   0  0  0  0  0  0  0  0  0  0  0  0
   10.4541  -16.5719   20.3207 C   0  0  0  0  0  0  0  0  0  0  0  0
   11.1281  -15.4923   20.3695 O   0  0  0  0  0  0  0  0  0  0  0  0
    7.1029  -14.9660   20.0733 C   0  0  0  0  0  0  0  0  0  0  0  0
    7.3369  -15.3990   21.4762 C   0  0  2  0  0  0  0  0  0  0  0  0
    6.5581  -14.5117   22.4242 C   0  0  0  0  0  0  0  0  0  0  0  0
    8.7711  -15.5461   21.8840 C   0  0  2  0  0  0  0  0  0  0  0  0
    9.2799  -16.6778   21.0846 N   0  0  0  0  0  0  0  0  0  0  0  0
    8.9830  -15.8714   23.3052 C   0  0  0  0  0  0  0  0  0  0  0  0
    9.2913  -17.0384   23.6585 O   0  0  0  0  0  0  0  0  0  0  0  0
    5.1911  -11.9447   26.9125 C   0  0  0  0  0  0  0  0  0  0  0  0
    6.7453  -12.5913   27.5227 S   0  0  0  0  0  0  0  0  0  0  0  0
    7.3465  -14.0019   26.6102 C   0  0  0  0  0  0  0  0  0  0  0  0
    8.8707  -14.1320   26.6582 C   0  0  0  0  0  0  0  0  0  0  0  0
    9.1937  -15.2719   25.6840 C   0  0  2  0  0  0  0  0  0  0  0  0
    8.8536  -14.9013   24.3317 N   0  0  0  0  0  0  0  0  0  0  0  0
    8.4922  -16.5098   26.0559 C   0  0  0  0  0  0  0  0  0  0  0  0
    8.9924  -17.3944   26.9954 O   0  0  0  0  0  0  0  0  0  0  0  0
    7.4005  -16.7834   25.5084 O   0  0  0  0  0  0  0  0  0  0  0  0
  2  1  1  6
  3  2  1  0
  3  4  1  0
  4  5  1  0
  5  6  1  0
  7  6  1  0
  8  9  2  0
  8  2  1  0
 11 10  1  6
 11 13  1  0
 11 12  1  0
 13 14  1  6
 14  8  1  0
 15 22  1  0
 15 13  1  0
 16 15  2  0
 17 18  1  0
 18 19  1  0
 19 20  1  0
 21 20  1  1
 21 23  1  0
 21 22  1  0
 23 24  1  0
 25 23  2  0
M  END
$$$$
