KVM.pdb
     RDKit          3D

 25 24  0  0  1  0  0  0  0  0999 V2000
    7.1642  -17.4580   20.7413 N   0  0  0  0  0  0  0  0  0  0  0  0
    8.2931  -16.7659   21.3216 C   0  0  1  0  0  0  0  0  0  0  0  0
    8.1202  -15.2484   21.2267 C   0  0  0  0  0  0  0  0  0  0  0  0
    8.2122  -14.8187   19.7996 C   0  0  0  0  0  0  0  0  0  0  0  0
    8.1034  -13.3394   19.6498 C   0  0  0  0  0  0  0  0  0  0  0  0
    8.1160  -12.9341   18.1956 C   0  0  0  0  0  0  0  0  0  0  0  0
    7.9572  -11.4727   18.1475 N   0  0  0  0  0  0  0  0  0  0  0  0
    8.4405  -17.1545   22.7440 C   0  0  0  0  0  0  0  0  0  0  0  0
    7.4196  -17.3911   23.4677 O   0  0  0  0  0  0  0  0  0  0  0  0
   10.8156  -19.8617   24.0202 C   0  0  0  0  0  0  0  0  0  0  0  0
   11.0456  -18.5866   24.7494 C   0  0  2  0  0  0  0  0  0  0  0  0
   11.5353  -18.8783   26.1521 C   0  0  0  0  0  0  0  0  0  0  0  0
    9.9081  -17.6117   24.7355 C   0  0  2  0  0  0  0  0  0  0  0  0
    9.7202  -17.2662   23.3129 N   0  0  0  0  0  0  0  0  0  0  0  0
   10.1538  -16.3591   25.4712 C   0  0  0  0  0  0  0  0  0  0  0  0
   11.0538  -15.5623   25.1013 O   0  0  0  0  0  0  0  0  0  0  0  0
    6.6162  -10.7225   25.5145 C   0  0  0  0  0  0  0  0  0  0  0  0
    6.7225  -12.3398   26.2753 S   0  0  0  0  0  0  0  0  0  0  0  0
    8.3375  -12.7227   26.9306 C   0  0  0  0  0  0  0  0  0  0  0  0
    8.3674  -14.0492   27.6934 C   0  0  0  0  0  0  0  0  0  0  0  0
    9.6707  -14.7240   27.2475 C   0  0  2  0  0  0  0  0  0  0  0  0
    9.4001  -15.9924   26.6153 N   0  0  0  0  0  0  0  0  0  0  0  0
   10.5902  -14.9141   28.3794 C   0  0  0  0  0  0  0  0  0  0  0  0
   10.9349  -16.1672   28.8551 O   0  0  0  0  0  0  0  0  0  0  0  0
   11.0859  -13.9114   28.9411 O   0  0  0  0  0  0  0  0  0  0  0  0
  2  1  1  1
  3  2  1  0
  3  4  1  0
  4  5  1  0
  5  6  1  0
  7  6  1  0
  8  9  2  0
  8  2  1  0
 11 10  1  1
 11 13  1  0
 11 12  1  0
 13 14  1  6
 14  8  1  0
 15 22  1  0
 15 13  1  0
 16 15  2  0
 17 18  1  0
 18 19  1  0
 19 20  1  0
 21 20  1  1
 21 23  1  0
 21 22  1  0
 23 24  1  0
 25 23  2  0
M  END
$$$$
