KVM.pdb
     RDKit          3D

 25 24  0  0  1  0  0  0  0  0999 V2000
    6.8636  -19.4610   20.6510 N   0  0  0  0  0  0  0  0  0  0  0  0
    6.4052  -18.3052   21.3888 C   0  0  1  0  0  0  0  0  0  0  0  0
    6.2259  -18.6318   22.8731 C   0  0  0  0  0  0  0  0  0  0  0  0
    5.6609  -20.0059   23.0224 C   0  0  0  0  0  0  0  0  0  0  0  0
    6.7241  -21.0330   23.2154 C   0  0  0  0  0  0  0  0  0  0  0  0
    6.3979  -21.9479   24.3711 C   0  0  0  0  0  0  0  0  0  0  0  0
    7.4104  -23.0147   24.3837 N   0  0  0  0  0  0  0  0  0  0  0  0
    7.3819  -17.2001   21.2445 C   0  0  0  0  0  0  0  0  0  0  0  0
    8.6183  -17.4393   21.0545 O   0  0  0  0  0  0  0  0  0  0  0  0
    7.1193  -14.0796   19.0427 C   0  0  0  0  0  0  0  0  0  0  0  0
    7.3046  -13.6945   20.4667 C   0  0  2  0  0  0  0  0  0  0  0  0
    8.0460  -12.3770   20.5500 C   0  0  0  0  0  0  0  0  0  0  0  0
    7.9048  -14.7418   21.3540 C   0  0  2  0  0  0  0  0  0  0  0  0
    6.9487  -15.8657   21.3169 N   0  0  0  0  0  0  0  0  0  0  0  0
    8.0712  -14.3426   22.7624 C   0  0  0  0  0  0  0  0  0  0  0  0
    7.6056  -13.2517   23.1807 O   0  0  0  0  0  0  0  0  0  0  0  0
    6.1018  -11.5257   26.5842 C   0  0  0  0  0  0  0  0  0  0  0  0
    7.5149  -12.3745   27.2833 S   0  0  0  0  0  0  0  0  0  0  0  0
    7.4740  -14.1446   27.0616 C   0  0  0  0  0  0  0  0  0  0  0  0
    7.3148  -14.5539   25.5954 C   0  0  0  0  0  0  0  0  0  0  0  0
    8.7491  -14.7603   25.0923 C   0  0  2  0  0  0  0  0  0  0  0  0
    8.7528  -15.1547   23.7044 N   0  0  0  0  0  0  0  0  0  0  0  0
    9.4614  -15.7620   25.8999 C   0  0  0  0  0  0  0  0  0  0  0  0
   10.0317  -15.4609   27.1244 O   0  0  0  0  0  0  0  0  0  0  0  0
    9.5613  -16.9343   25.4732 O   0  0  0  0  0  0  0  0  0  0  0  0
  2  1  1  6
  3  2  1  0
  3  4  1  0
  4  5  1  0
  5  6  1  0
  7  6  1  0
  8  9  2  0
  8  2  1  0
 11 10  1  6
 11 13  1  0
 11 12  1  0
 13 14  1  1
 14  8  1  0
 15 22  1  0
 15 13  1  0
 16 15  2  0
 17 18  1  0
 18 19  1  0
 19 20  1  0
 21 20  1  1
 21 23  1  0
 21 22  1  0
 23 24  1  0
 25 23  2  0
M  END
$$$$
