KVM.pdb
     RDKit          3D

 25 24  0  0  1  0  0  0  0  0999 V2000
   10.1898  -18.6637   19.7918 N   0  0  0  0  0  0  0  0  0  0  0  0
   11.2691  -17.8098   20.2348 C   0  0  1  0  0  0  0  0  0  0  0  0
   12.1723  -17.4085   19.0664 C   0  0  0  0  0  0  0  0  0  0  0  0
   12.5229  -18.6167   18.2620 C   0  0  0  0  0  0  0  0  0  0  0  0
   13.9819  -18.9195   18.3094 C   0  0  0  0  0  0  0  0  0  0  0  0
   14.3110  -20.1543   17.5054 C   0  0  0  0  0  0  0  0  0  0  0  0
   15.7265  -20.4707   17.7495 N   0  0  0  0  0  0  0  0  0  0  0  0
   10.7143  -16.5898   20.8670 C   0  0  0  0  0  0  0  0  0  0  0  0
   11.4768  -15.6395   21.2378 O   0  0  0  0  0  0  0  0  0  0  0  0
    7.3583  -14.6940   19.7360 C   0  0  0  0  0  0  0  0  0  0  0  0
    7.3847  -15.1365   21.1551 C   0  0  2  0  0  0  0  0  0  0  0  0
    6.4915  -14.2420   21.9886 C   0  0  0  0  0  0  0  0  0  0  0  0
    8.7441  -15.3064   21.7614 C   0  0  2  0  0  0  0  0  0  0  0  0
    9.3288  -16.4692   21.0652 N   0  0  0  0  0  0  0  0  0  0  0  0
    8.7486  -15.6009   23.2050 C   0  0  0  0  0  0  0  0  0  0  0  0
    9.0424  -16.7491   23.6260 O   0  0  0  0  0  0  0  0  0  0  0  0
    7.3553  -10.7670   27.2791 C   0  0  0  0  0  0  0  0  0  0  0  0
    6.1219  -12.0594   27.1596 S   0  0  0  0  0  0  0  0  0  0  0  0
    6.6784  -13.5067   26.2765 C   0  0  0  0  0  0  0  0  0  0  0  0
    8.1730  -13.7768   26.4652 C   0  0  0  0  0  0  0  0  0  0  0  0
    8.4637  -14.9904   25.5732 C   0  0  2  0  0  0  0  0  0  0  0  0
    8.4281  -14.6210   24.1789 N   0  0  0  0  0  0  0  0  0  0  0  0
    7.5116  -16.0823   25.8269 C   0  0  0  0  0  0  0  0  0  0  0  0
    7.7230  -17.0416   26.8017 O   0  0  0  0  0  0  0  0  0  0  0  0
    6.4673  -16.1561   25.1411 O   0  0  0  0  0  0  0  0  0  0  0  0
  2  1  1  6
  3  2  1  0
  3  4  1  0
  4  5  1  0
  5  6  1  0
  7  6  1  0
  8  9  2  0
  8  2  1  0
 11 10  1  6
 11 13  1  0
 11 12  1  0
 13 14  1  6
 14  8  1  0
 15 22  1  0
 15 13  1  0
 16 15  2  0
 17 18  1  0
 18 19  1  0
 19 20  1  0
 21 20  1  1
 21 23  1  0
 21 22  1  0
 23 24  1  0
 25 23  2  0
M  END
$$$$
