KVM.pdb
     RDKit          3D

 25 24  0  0  1  0  0  0  0  0999 V2000
    8.6890  -18.9809   18.9197 N   0  0  0  0  0  0  0  0  0  0  0  0
    7.8926  -18.2260   19.8610 C   0  0  1  0  0  0  0  0  0  0  0  0
    7.5776  -19.0543   21.1086 C   0  0  0  0  0  0  0  0  0  0  0  0
    7.7533  -20.5063   20.8074 C   0  0  0  0  0  0  0  0  0  0  0  0
    7.4136  -21.3678   21.9757 C   0  0  0  0  0  0  0  0  0  0  0  0
    7.5953  -22.8304   21.6484 C   0  0  0  0  0  0  0  0  0  0  0  0
    7.3065  -23.5918   22.8732 N   0  0  0  0  0  0  0  0  0  0  0  0
    8.6196  -16.9975   20.2589 C   0  0  0  0  0  0  0  0  0  0  0  0
    9.8886  -16.9933   20.3673 O   0  0  0  0  0  0  0  0  0  0  0  0
    7.2670  -13.3449   19.1639 C   0  0  0  0  0  0  0  0  0  0  0  0
    7.6338  -13.4734   20.5989 C   0  0  2  0  0  0  0  0  0  0  0  0
    8.0878  -12.1322   21.1350 C   0  0  0  0  0  0  0  0  0  0  0  0
    8.5949  -14.5736   20.9316 C   0  0  2  0  0  0  0  0  0  0  0  0
    7.9088  -15.8149   20.5230 N   0  0  0  0  0  0  0  0  0  0  0  0
    8.9281  -14.6967   22.3615 C   0  0  0  0  0  0  0  0  0  0  0  0
    9.9791  -14.1830   22.8232 O   0  0  0  0  0  0  0  0  0  0  0  0
    6.4368  -11.0626   26.4370 C   0  0  0  0  0  0  0  0  0  0  0  0
    6.4423  -12.6008   27.3534 S   0  0  0  0  0  0  0  0  0  0  0  0
    7.4658  -13.8688   26.6264 C   0  0  0  0  0  0  0  0  0  0  0  0
    7.2107  -14.0485   25.1280 C   0  0  0  0  0  0  0  0  0  0  0  0
    8.2274  -15.1084   24.6856 C   0  0  2  0  0  0  0  0  0  0  0  0
    8.0943  -15.3887   23.2766 N   0  0  0  0  0  0  0  0  0  0  0  0
    8.0786  -16.3499   25.4599 C   0  0  0  0  0  0  0  0  0  0  0  0
    8.4758  -16.4542   26.7815 O   0  0  0  0  0  0  0  0  0  0  0  0
    7.5745  -17.3564   24.9127 O   0  0  0  0  0  0  0  0  0  0  0  0
  2  1  1  6
  3  2  1  0
  3  4  1  0
  4  5  1  0
  5  6  1  0
  7  6  1  0
  8  9  2  0
  8  2  1  0
 11 10  1  6
 11 13  1  0
 11 12  1  0
 13 14  1  1
 14  8  1  0
 15 22  1  0
 15 13  1  0
 16 15  2  0
 17 18  1  0
 18 19  1  0
 19 20  1  0
 21 20  1  1
 21 23  1  0
 21 22  1  0
 23 24  1  0
 25 23  2  0
M  END
$$$$
