KVM.pdb
     RDKit          3D

 25 24  0  0  1  0  0  0  0  0999 V2000
    9.3502  -18.8701   19.2000 N   0  0  0  0  0  0  0  0  0  0  0  0
    8.5350  -18.2897   20.2435 C   0  0  1  0  0  0  0  0  0  0  0  0
    8.5484  -19.1581   21.5035 C   0  0  0  0  0  0  0  0  0  0  0  0
    8.3219  -20.5869   21.1335 C   0  0  0  0  0  0  0  0  0  0  0  0
    8.2647  -21.4750   22.3296 C   0  0  0  0  0  0  0  0  0  0  0  0
    8.0095  -22.9096   21.9345 C   0  0  0  0  0  0  0  0  0  0  0  0
    6.5935  -23.0122   21.5503 N   0  0  0  0  0  0  0  0  0  0  0  0
    9.0376  -16.9359   20.5759 C   0  0  0  0  0  0  0  0  0  0  0  0
   10.2625  -16.6316   20.4054 O   0  0  0  0  0  0  0  0  0  0  0  0
    7.4387  -13.8252   19.2157 C   0  0  0  0  0  0  0  0  0  0  0  0
    7.5460  -13.7226   20.6951 C   0  0  2  0  0  0  0  0  0  0  0  0
    7.6631  -12.2689   21.1018 C   0  0  0  0  0  0  0  0  0  0  0  0
    8.5961  -14.5784   21.3350 C   0  0  2  0  0  0  0  0  0  0  0  0
    8.1590  -15.9663   21.0873 N   0  0  0  0  0  0  0  0  0  0  0  0
    8.7355  -14.4066   22.7916 C   0  0  0  0  0  0  0  0  0  0  0  0
    9.0084  -13.2816   23.2830 O   0  0  0  0  0  0  0  0  0  0  0  0
    7.1394  -12.0594   28.0595 C   0  0  0  0  0  0  0  0  0  0  0  0
    6.8841  -11.7312   26.3179 S   0  0  0  0  0  0  0  0  0  0  0  0
    7.7324  -12.8710   25.2384 C   0  0  0  0  0  0  0  0  0  0  0  0
    7.2062  -14.3031   25.3587 C   0  0  0  0  0  0  0  0  0  0  0  0
    8.4323  -15.1895   25.1062 C   0  0  2  0  0  0  0  0  0  0  0  0
    8.5710  -15.4830   23.7004 N   0  0  0  0  0  0  0  0  0  0  0  0
    8.3559  -16.4413   25.8744 C   0  0  0  0  0  0  0  0  0  0  0  0
    8.7471  -16.5258   27.1992 O   0  0  0  0  0  0  0  0  0  0  0  0
    7.9221  -17.4755   25.3187 O   0  0  0  0  0  0  0  0  0  0  0  0
  2  1  1  6
  3  2  1  0
  3  4  1  0
  4  5  1  0
  5  6  1  0
  7  6  1  0
  8  9  2  0
  8  2  1  0
 11 10  1  6
 11 13  1  0
 11 12  1  0
 13 14  1  1
 14  8  1  0
 15 22  1  0
 15 13  1  0
 16 15  2  0
 17 18  1  0
 18 19  1  0
 19 20  1  0
 21 20  1  6
 21 23  1  0
 21 22  1  0
 23 24  1  0
 25 23  2  0
M  END
$$$$
