NWI.pdb
     RDKit          3D

 31 32  0  0  1  0  0  0  0  0999 V2000
   14.1847  -18.3925   18.5592 N   0  0  0  0  0  0  0  0  0  0  0  0
   12.7799  -18.2649   18.6137 C   0  0  0  0  0  0  0  0  0  0  0  0
   12.0901  -18.9155   17.8043 O   0  0  0  0  0  0  0  0  0  0  0  0
   12.1557  -17.3931   19.5940 C   0  0  0  0  0  0  0  0  0  0  0  0
   11.7822  -18.1225   20.8859 C   0  0  2  0  0  0  0  0  0  0  0  0
   10.7470  -19.0624   20.5263 N   0  0  0  0  0  0  0  0  0  0  0  0
   11.2185  -17.0898   21.7958 C   0  0  0  0  0  0  0  0  0  0  0  0
   11.8958  -16.0356   22.0453 O   0  0  0  0  0  0  0  0  0  0  0  0
    9.9590  -17.2026   22.4135 N   0  0  0  0  0  0  0  0  0  0  0  0
    9.4412  -16.2040   23.3834 C   0  0  1  0  0  0  0  0  0  0  0  0
    8.0710  -15.7972   23.0869 C   0  0  0  0  0  0  0  0  0  0  0  0
    7.6476  -14.4320   23.4133 C   0  0  0  0  0  0  0  0  0  0  0  0
    7.7684  -13.3240   22.5577 C   0  0  0  0  0  0  0  0  0  0  0  0
    7.2418  -12.2616   23.1603 N   0  0  0  0  0  0  0  0  0  0  0  0
    6.7701  -12.5867   24.3807 C   0  0  0  0  0  0  0  0  0  0  0  0
    6.1641  -11.8782   25.3937 C   0  0  0  0  0  0  0  0  0  0  0  0
    5.8133  -12.5027   26.5542 C   0  0  0  0  0  0  0  0  0  0  0  0
    6.0554  -13.8428   26.7362 C   0  0  0  0  0  0  0  0  0  0  0  0
    6.6548  -14.5246   25.7207 C   0  0  0  0  0  0  0  0  0  0  0  0
    7.0325  -13.9523   24.5243 C   0  0  0  0  0  0  0  0  0  0  0  0
    9.9029  -16.5690   24.7064 C   0  0  0  0  0  0  0  0  0  0  0  0
   10.1802  -17.8233   24.9512 O   0  0  0  0  0  0  0  0  0  0  0  0
    9.7182  -12.9540   29.0267 C   0  0  0  0  0  0  0  0  0  0  0  0
   10.1238  -13.8740   27.9016 C   0  0  0  0  0  0  0  0  0  0  0  0
   10.1103  -15.3234   28.2343 C   0  0  2  0  0  0  0  0  0  0  0  0
   11.1132  -15.5322   29.3744 C   0  0  0  0  0  0  0  0  0  0  0  0
   10.4884  -16.2679   27.1526 C   0  0  2  0  0  0  0  0  0  0  0  0
   10.1239  -15.7465   25.8374 N   0  0  0  0  0  0  0  0  0  0  0  0
   10.1620  -17.6769   27.3608 C   0  0  0  0  0  0  0  0  0  0  0  0
   11.1515  -18.5899   27.7958 O   0  0  0  0  0  0  0  0  0  0  0  0
    9.0097  -18.1080   27.1597 O   0  0  0  0  0  0  0  0  0  0  0  0
  2  3  2  0
  2  1  1  0
  4  2  1  0
  5  6  1  6
  5  4  1  0
  7  5  1  0
  8  7  2  0
  9  7  1  0
 10  9  1  0
 10 11  1  1
 11 12  1  0
 12 13  2  0
 13 14  1  0
 15 16  2  0
 15 14  1  0
 17 16  1  0
 18 19  1  0
 18 17  2  0
 19 20  2  0
 20 12  1  0
 20 15  1  0
 21 22  2  0
 21 10  1  0
 23 24  1  0
 24 25  1  0
 25 27  1  0
 25 26  1  1
 27 29  1  0
 27 28  1  6
 28 21  1  0
 29 30  1  0
 31 29  2  0
M  END
$$$$
