NWI.pdb
     RDKit          3D

 31 32  0  0  1  0  0  0  0  0999 V2000
   12.2654  -18.9200   18.5700 N   0  0  0  0  0  0  0  0  0  0  0  0
   12.8726  -17.7747   19.1287 C   0  0  0  0  0  0  0  0  0  0  0  0
   14.0596  -17.5273   18.8386 O   0  0  0  0  0  0  0  0  0  0  0  0
   12.1264  -16.9054   20.0220 C   0  0  0  0  0  0  0  0  0  0  0  0
   10.7121  -17.4161   20.3045 C   0  0  2  0  0  0  0  0  0  0  0  0
    9.9081  -17.0015   19.1792 N   0  0  0  0  0  0  0  0  0  0  0  0
   10.2531  -16.7071   21.5286 C   0  0  0  0  0  0  0  0  0  0  0  0
   10.4369  -15.4469   21.6306 O   0  0  0  0  0  0  0  0  0  0  0  0
    9.6154  -17.3502   22.6059 N   0  0  0  0  0  0  0  0  0  0  0  0
    9.0581  -16.6166   23.7709 C   0  0  1  0  0  0  0  0  0  0  0  0
    7.6332  -16.8708   23.9603 C   0  0  0  0  0  0  0  0  0  0  0  0
    6.8095  -15.8510   24.6165 C   0  0  0  0  0  0  0  0  0  0  0  0
    5.4550  -16.0050   24.9573 C   0  0  0  0  0  0  0  0  0  0  0  0
    5.0440  -14.9025   25.5774 N   0  0  0  0  0  0  0  0  0  0  0  0
    6.0459  -14.0056   25.6761 C   0  0  0  0  0  0  0  0  0  0  0  0
    6.1463  -12.7347   26.1958 C   0  0  0  0  0  0  0  0  0  0  0  0
    7.3254  -12.0535   26.1214 C   0  0  0  0  0  0  0  0  0  0  0  0
    8.4305  -12.6166   25.5305 C   0  0  0  0  0  0  0  0  0  0  0  0
    8.3090  -13.8752   25.0239 C   0  0  0  0  0  0  0  0  0  0  0  0
    7.1468  -14.6161   25.0683 C   0  0  0  0  0  0  0  0  0  0  0  0
   10.0307  -16.6541   24.8431 C   0  0  0  0  0  0  0  0  0  0  0  0
   10.9590  -17.5747   24.8173 O   0  0  0  0  0  0  0  0  0  0  0  0
   10.1803  -14.6093   30.2579 C   0  0  0  0  0  0  0  0  0  0  0  0
   10.0007  -14.5243   28.7622 C   0  0  0  0  0  0  0  0  0  0  0  0
   11.2029  -14.8755   27.9602 C   0  0  2  0  0  0  0  0  0  0  0  0
   11.5183  -13.6679   27.0706 C   0  0  0  0  0  0  0  0  0  0  0  0
   11.0948  -16.0530   27.0620 C   0  0  2  0  0  0  0  0  0  0  0  0
   10.1545  -15.8076   25.9712 N   0  0  0  0  0  0  0  0  0  0  0  0
   10.9598  -17.3609   27.6994 C   0  0  0  0  0  0  0  0  0  0  0  0
   12.0461  -17.9382   28.3984 O   0  0  0  0  0  0  0  0  0  0  0  0
    9.8901  -17.9984   27.6422 O   0  0  0  0  0  0  0  0  0  0  0  0
  2  3  2  0
  2  1  1  0
  4  2  1  0
  5  6  1  6
  5  4  1  0
  7  5  1  0
  8  7  2  0
  9  7  1  0
 10  9  1  0
 10 11  1  1
 11 12  1  0
 12 13  2  0
 13 14  1  0
 15 16  2  0
 15 14  1  0
 17 16  1  0
 18 19  1  0
 18 17  2  0
 19 20  2  0
 20 12  1  0
 20 15  1  0
 21 22  2  0
 21 10  1  0
 23 24  1  0
 24 25  1  0
 25 27  1  0
 25 26  1  6
 27 29  1  0
 27 28  1  6
 28 21  1  0
 29 30  1  0
 31 29  2  0
M  END
$$$$
