NWI.pdb
     RDKit          3D

 31 32  0  0  1  0  0  0  0  0999 V2000
   11.0934  -15.9719   17.0590 N   0  0  0  0  0  0  0  0  0  0  0  0
   10.7299  -16.8856   18.0719 C   0  0  0  0  0  0  0  0  0  0  0  0
   10.8628  -18.1053   17.8506 O   0  0  0  0  0  0  0  0  0  0  0  0
   10.2128  -16.4101   19.3435 C   0  0  0  0  0  0  0  0  0  0  0  0
   10.7942  -17.1640   20.5411 C   0  0  2  0  0  0  0  0  0  0  0  0
   10.2659  -18.5052   20.4605 N   0  0  0  0  0  0  0  0  0  0  0  0
   10.2559  -16.4922   21.7538 C   0  0  0  0  0  0  0  0  0  0  0  0
   10.4824  -15.2480   21.9352 O   0  0  0  0  0  0  0  0  0  0  0  0
    9.4964  -17.1545   22.7365 N   0  0  0  0  0  0  0  0  0  0  0  0
    8.9197  -16.4614   23.9167 C   0  0  1  0  0  0  0  0  0  0  0  0
    7.4881  -16.7061   24.0626 C   0  0  0  0  0  0  0  0  0  0  0  0
    6.6236  -15.6165   24.5260 C   0  0  0  0  0  0  0  0  0  0  0  0
    5.2421  -15.7262   24.7577 C   0  0  0  0  0  0  0  0  0  0  0  0
    4.7930  -14.5602   25.2136 N   0  0  0  0  0  0  0  0  0  0  0  0
    5.7946  -13.6622   25.3035 C   0  0  0  0  0  0  0  0  0  0  0  0
    5.8663  -12.3421   25.6878 C   0  0  0  0  0  0  0  0  0  0  0  0
    7.0568  -11.6783   25.6460 C   0  0  0  0  0  0  0  0  0  0  0  0
    8.2022  -12.3079   25.2227 C   0  0  0  0  0  0  0  0  0  0  0  0
    8.1086  -13.6142   24.8482 C   0  0  0  0  0  0  0  0  0  0  0  0
    6.9367  -14.3408   24.8683 C   0  0  0  0  0  0  0  0  0  0  0  0
    9.8663  -16.5532   25.0087 C   0  0  0  0  0  0  0  0  0  0  0  0
   11.1439  -16.5826   24.7319 O   0  0  0  0  0  0  0  0  0  0  0  0
    9.7748  -13.2028   29.1300 C   0  0  0  0  0  0  0  0  0  0  0  0
   10.0717  -14.1810   28.0202 C   0  0  0  0  0  0  0  0  0  0  0  0
   10.3851  -15.5652   28.4647 C   0  0  2  0  0  0  0  0  0  0  0  0
   11.6284  -15.4800   29.3569 C   0  0  0  0  0  0  0  0  0  0  0  0
   10.6847  -16.5626   27.4061 C   0  0  2  0  0  0  0  0  0  0  0  0
    9.6242  -16.6106   26.4025 N   0  0  0  0  0  0  0  0  0  0  0  0
   11.1658  -17.8702   27.8465 C   0  0  0  0  0  0  0  0  0  0  0  0
   12.5319  -18.0692   28.1565 O   0  0  0  0  0  0  0  0  0  0  0  0
   10.3889  -18.8386   27.9580 O   0  0  0  0  0  0  0  0  0  0  0  0
  2  3  2  0
  2  1  1  0
  4  2  1  0
  5  6  1  6
  5  4  1  0
  7  5  1  0
  8  7  2  0
  9  7  1  0
 10  9  1  0
 10 11  1  1
 11 12  1  0
 12 13  2  0
 13 14  1  0
 15 16  2  0
 15 14  1  0
 17 16  1  0
 18 19  1  0
 18 17  2  0
 19 20  2  0
 20 12  1  0
 20 15  1  0
 21 22  2  0
 21 10  1  0
 23 24  1  0
 24 25  1  0
 25 27  1  0
 25 26  1  1
 27 29  1  0
 27 28  1  1
 28 21  1  0
 29 30  1  0
 31 29  2  0
M  END
$$$$
