NWI.pdb
     RDKit          3D

 31 32  0  0  1  0  0  0  0  0999 V2000
   12.6550  -18.5292   18.1350 N   0  0  0  0  0  0  0  0  0  0  0  0
   12.3723  -17.1479   18.0661 C   0  0  0  0  0  0  0  0  0  0  0  0
   12.6654  -16.5304   17.0234 O   0  0  0  0  0  0  0  0  0  0  0  0
   11.7526  -16.4646   19.1884 C   0  0  0  0  0  0  0  0  0  0  0  0
   11.5330  -17.3803   20.3942 C   0  0  2  0  0  0  0  0  0  0  0  0
   10.6297  -18.4145   19.9483 N   0  0  0  0  0  0  0  0  0  0  0  0
   10.8613  -16.5487   21.4283 C   0  0  0  0  0  0  0  0  0  0  0  0
   11.3677  -15.4219   21.7542 O   0  0  0  0  0  0  0  0  0  0  0  0
    9.6775  -16.9326   22.0855 N   0  0  0  0  0  0  0  0  0  0  0  0
    9.0526  -16.1252   23.1642 C   0  0  1  0  0  0  0  0  0  0  0  0
    7.5958  -16.1063   23.0740 C   0  0  0  0  0  0  0  0  0  0  0  0
    6.8254  -15.4545   24.1374 C   0  0  0  0  0  0  0  0  0  0  0  0
    6.0181  -16.1224   25.0736 C   0  0  0  0  0  0  0  0  0  0  0  0
    5.5098  -15.2256   25.9141 N   0  0  0  0  0  0  0  0  0  0  0  0
    5.9270  -13.9827   25.5995 C   0  0  0  0  0  0  0  0  0  0  0  0
    5.6884  -12.7312   26.1213 C   0  0  0  0  0  0  0  0  0  0  0  0
    6.2546  -11.6297   25.5505 C   0  0  0  0  0  0  0  0  0  0  0  0
    7.0697  -11.7442   24.4504 C   0  0  0  0  0  0  0  0  0  0  0  0
    7.2930  -12.9918   23.9514 C   0  0  0  0  0  0  0  0  0  0  0  0
    6.7518  -14.1436   24.4824 C   0  0  0  0  0  0  0  0  0  0  0  0
    9.7787  -16.3647   24.3939 C   0  0  0  0  0  0  0  0  0  0  0  0
   10.4309  -17.4899   24.5295 O   0  0  0  0  0  0  0  0  0  0  0  0
   11.2770  -14.0872   30.0730 C   0  0  0  0  0  0  0  0  0  0  0  0
   11.4863  -15.0874   28.9629 C   0  0  0  0  0  0  0  0  0  0  0  0
   10.6998  -14.8333   27.7265 C   0  0  2  0  0  0  0  0  0  0  0  0
    9.2795  -14.4607   28.1660 C   0  0  0  0  0  0  0  0  0  0  0  0
   10.5700  -15.9581   26.7659 C   0  0  2  0  0  0  0  0  0  0  0  0
    9.9138  -15.5330   25.5318 N   0  0  0  0  0  0  0  0  0  0  0  0
   10.0952  -17.2327   27.3000 C   0  0  0  0  0  0  0  0  0  0  0  0
   11.0082  -18.1870   27.8076 O   0  0  0  0  0  0  0  0  0  0  0  0
    8.8801  -17.5103   27.3203 O   0  0  0  0  0  0  0  0  0  0  0  0
  2  3  2  0
  2  1  1  0
  4  2  1  0
  5  6  1  6
  5  4  1  0
  7  5  1  0
  8  7  2  0
  9  7  1  0
 10  9  1  0
 10 11  1  1
 11 12  1  0
 12 13  2  0
 13 14  1  0
 15 16  2  0
 15 14  1  0
 17 16  1  0
 18 19  1  0
 18 17  2  0
 19 20  2  0
 20 12  1  0
 20 15  1  0
 21 22  2  0
 21 10  1  0
 23 24  1  0
 24 25  1  0
 25 27  1  0
 25 26  1  1
 27 29  1  0
 27 28  1  6
 28 21  1  0
 29 30  1  0
 31 29  2  0
M  END
$$$$
