NWI.pdb
     RDKit          3D

 31 32  0  0  1  0  0  0  0  0999 V2000
   13.5807  -18.4197   18.9181 N   0  0  0  0  0  0  0  0  0  0  0  0
   12.6897  -17.3680   18.6136 C   0  0  0  0  0  0  0  0  0  0  0  0
   12.8258  -16.7657   17.5304 O   0  0  0  0  0  0  0  0  0  0  0  0
   11.6380  -16.9988   19.5453 C   0  0  0  0  0  0  0  0  0  0  0  0
   11.7249  -17.7574   20.8710 C   0  0  2  0  0  0  0  0  0  0  0  0
   10.9222  -18.9455   20.7020 N   0  0  0  0  0  0  0  0  0  0  0  0
   11.0976  -16.8776   21.8930 C   0  0  0  0  0  0  0  0  0  0  0  0
   11.6088  -15.7319   22.1342 O   0  0  0  0  0  0  0  0  0  0  0  0
    9.9516  -17.2349   22.6278 N   0  0  0  0  0  0  0  0  0  0  0  0
    9.3564  -16.3634   23.6729 C   0  0  1  0  0  0  0  0  0  0  0  0
    7.9143  -16.2048   23.5119 C   0  0  0  0  0  0  0  0  0  0  0  0
    7.3466  -14.8536   23.4763 C   0  0  0  0  0  0  0  0  0  0  0  0
    7.0954  -14.1151   22.3076 C   0  0  0  0  0  0  0  0  0  0  0  0
    6.5378  -12.9565   22.6478 N   0  0  0  0  0  0  0  0  0  0  0  0
    6.3968  -12.8663   23.9857 C   0  0  0  0  0  0  0  0  0  0  0  0
    5.9091  -11.8984   24.8346 C   0  0  0  0  0  0  0  0  0  0  0  0
    5.9222  -12.0980   26.1836 C   0  0  0  0  0  0  0  0  0  0  0  0
    6.4189  -13.2610   26.7208 C   0  0  0  0  0  0  0  0  0  0  0  0
    6.8954  -14.2054   25.8626 C   0  0  0  0  0  0  0  0  0  0  0  0
    6.9092  -14.0648   24.4908 C   0  0  0  0  0  0  0  0  0  0  0  0
    9.9959  -16.6629   24.9370 C   0  0  0  0  0  0  0  0  0  0  0  0
   10.6864  -17.7681   25.0455 O   0  0  0  0  0  0  0  0  0  0  0  0
   11.0382  -12.8974   28.9767 C   0  0  0  0  0  0  0  0  0  0  0  0
   11.0727  -13.9873   27.9338 C   0  0  0  0  0  0  0  0  0  0  0  0
   10.6526  -15.3319   28.4107 C   0  0  2  0  0  0  0  0  0  0  0  0
   11.6896  -15.7865   29.4438 C   0  0  0  0  0  0  0  0  0  0  0  0
   10.5594  -16.4100   27.3939 C   0  0  2  0  0  0  0  0  0  0  0  0
   10.0048  -15.9121   26.1374 N   0  0  0  0  0  0  0  0  0  0  0  0
   10.0116  -17.6906   27.8360 C   0  0  0  0  0  0  0  0  0  0  0  0
   10.8696  -18.7486   28.2185 O   0  0  0  0  0  0  0  0  0  0  0  0
    8.7809  -17.8824   27.8854 O   0  0  0  0  0  0  0  0  0  0  0  0
  2  3  2  0
  2  1  1  0
  4  2  1  0
  5  6  1  6
  5  4  1  0
  7  5  1  0
  8  7  2  0
  9  7  1  0
 10  9  1  0
 10 11  1  1
 11 12  1  0
 12 13  2  0
 13 14  1  0
 15 16  2  0
 15 14  1  0
 17 16  1  0
 18 19  1  0
 18 17  2  0
 19 20  2  0
 20 12  1  0
 20 15  1  0
 21 22  2  0
 21 10  1  0
 23 24  1  0
 24 25  1  0
 25 27  1  0
 25 26  1  1
 27 29  1  0
 27 28  1  6
 28 21  1  0
 29 30  1  0
 31 29  2  0
M  END
$$$$
