NWI.pdb
     RDKit          3D

 31 32  0  0  1  0  0  0  0  0999 V2000
   13.7941  -17.9154   18.7992 N   0  0  0  0  0  0  0  0  0  0  0  0
   13.3234  -16.5853   18.7553 C   0  0  0  0  0  0  0  0  0  0  0  0
   13.8289  -15.8007   17.9287 O   0  0  0  0  0  0  0  0  0  0  0  0
   12.2721  -16.1445   19.6559 C   0  0  0  0  0  0  0  0  0  0  0  0
   11.8370  -17.2324   20.6395 C   0  0  2  0  0  0  0  0  0  0  0  0
   10.8566  -18.0299   19.9415 N   0  0  0  0  0  0  0  0  0  0  0  0
   11.1839  -16.5269   21.7743 C   0  0  0  0  0  0  0  0  0  0  0  0
   11.8179  -15.6028   22.3876 O   0  0  0  0  0  0  0  0  0  0  0  0
    9.8833  -16.8193   22.2258 N   0  0  0  0  0  0  0  0  0  0  0  0
    9.2252  -16.0782   23.3320 C   0  0  1  0  0  0  0  0  0  0  0  0
    7.7716  -16.0559   23.2009 C   0  0  0  0  0  0  0  0  0  0  0  0
    6.9760  -15.3609   24.2175 C   0  0  0  0  0  0  0  0  0  0  0  0
    6.0770  -15.9815   25.1012 C   0  0  0  0  0  0  0  0  0  0  0  0
    5.5700  -15.0568   25.9118 N   0  0  0  0  0  0  0  0  0  0  0  0
    6.0750  -13.8397   25.6265 C   0  0  0  0  0  0  0  0  0  0  0  0
    5.8761  -12.5764   26.1363 C   0  0  0  0  0  0  0  0  0  0  0  0
    6.5371  -11.5090   25.6039 C   0  0  0  0  0  0  0  0  0  0  0  0
    7.4097  -11.6701   24.5549 C   0  0  0  0  0  0  0  0  0  0  0  0
    7.5922  -12.9286   24.0669 C   0  0  0  0  0  0  0  0  0  0  0  0
    6.9557  -14.0477   24.5610 C   0  0  0  0  0  0  0  0  0  0  0  0
    9.9164  -16.3892   24.5658 C   0  0  0  0  0  0  0  0  0  0  0  0
   10.7069  -17.4303   24.5979 O   0  0  0  0  0  0  0  0  0  0  0  0
    9.6504  -13.0920   29.1571 C   0  0  0  0  0  0  0  0  0  0  0  0
   10.1162  -13.8862   27.9617 C   0  0  0  0  0  0  0  0  0  0  0  0
   10.2466  -15.3503   28.1875 C   0  0  2  0  0  0  0  0  0  0  0  0
   11.3840  -15.5502   29.1951 C   0  0  0  0  0  0  0  0  0  0  0  0
   10.5686  -16.1895   27.0055 C   0  0  2  0  0  0  0  0  0  0  0  0
    9.8825  -15.7106   25.8079 N   0  0  0  0  0  0  0  0  0  0  0  0
   10.5279  -17.6383   27.1921 C   0  0  0  0  0  0  0  0  0  0  0  0
    9.3169  -18.3523   27.0323 O   0  0  0  0  0  0  0  0  0  0  0  0
   11.5536  -18.2778   27.4967 O   0  0  0  0  0  0  0  0  0  0  0  0
  2  3  2  0
  2  1  1  0
  4  2  1  0
  5  6  1  6
  5  4  1  0
  7  5  1  0
  8  7  2  0
  9  7  1  0
 10  9  1  0
 10 11  1  1
 11 12  1  0
 12 13  2  0
 13 14  1  0
 15 16  2  0
 15 14  1  0
 17 16  1  0
 18 19  1  0
 18 17  2  0
 19 20  2  0
 20 12  1  0
 20 15  1  0
 21 22  2  0
 21 10  1  0
 23 24  1  0
 24 25  1  0
 25 27  1  0
 25 26  1  1
 27 29  1  0
 27 28  1  6
 28 21  1  0
 29 30  1  0
 31 29  2  0
M  END
$$$$
