NWI.pdb
     RDKit          3D

 31 32  0  0  1  0  0  0  0  0999 V2000
   14.4413  -18.3707   19.4265 N   0  0  0  0  0  0  0  0  0  0  0  0
   13.8099  -17.1509   19.1005 C   0  0  0  0  0  0  0  0  0  0  0  0
   13.9592  -16.6904   17.9516 O   0  0  0  0  0  0  0  0  0  0  0  0
   13.0040  -16.4508   20.0859 C   0  0  0  0  0  0  0  0  0  0  0  0
   11.6763  -17.1533   20.3758 C   0  0  2  0  0  0  0  0  0  0  0  0
   10.8839  -17.0152   19.1769 N   0  0  0  0  0  0  0  0  0  0  0  0
   11.0376  -16.3909   21.4816 C   0  0  0  0  0  0  0  0  0  0  0  0
   11.2836  -15.1436   21.6082 O   0  0  0  0  0  0  0  0  0  0  0  0
   10.1605  -16.9687   22.4184 N   0  0  0  0  0  0  0  0  0  0  0  0
    9.4409  -16.1769   23.4486 C   0  0  1  0  0  0  0  0  0  0  0  0
    8.0026  -16.1222   23.2057 C   0  0  0  0  0  0  0  0  0  0  0  0
    7.1427  -15.4373   24.1756 C   0  0  0  0  0  0  0  0  0  0  0  0
    6.2678  -16.0765   25.0702 C   0  0  0  0  0  0  0  0  0  0  0  0
    5.6852  -15.1527   25.8292 N   0  0  0  0  0  0  0  0  0  0  0  0
    6.1158  -13.9186   25.4986 C   0  0  0  0  0  0  0  0  0  0  0  0
    5.8247  -12.6500   25.9474 C   0  0  0  0  0  0  0  0  0  0  0  0
    6.4259  -11.5657   25.3794 C   0  0  0  0  0  0  0  0  0  0  0  0
    7.3286  -11.7147   24.3544 C   0  0  0  0  0  0  0  0  0  0  0  0
    7.6026  -12.9786   23.9268 C   0  0  0  0  0  0  0  0  0  0  0  0
    7.0300  -14.1146   24.4593 C   0  0  0  0  0  0  0  0  0  0  0  0
   10.0275  -16.4664   24.7404 C   0  0  0  0  0  0  0  0  0  0  0  0
   10.7407  -17.5538   24.8771 O   0  0  0  0  0  0  0  0  0  0  0  0
    9.6720  -12.9491   29.1800 C   0  0  0  0  0  0  0  0  0  0  0  0
   10.1982  -13.8123   28.0599 C   0  0  0  0  0  0  0  0  0  0  0  0
   10.1763  -15.2753   28.3257 C   0  0  2  0  0  0  0  0  0  0  0  0
   11.1777  -15.5420   29.4550 C   0  0  0  0  0  0  0  0  0  0  0  0
   10.5493  -16.1713   27.2017 C   0  0  2  0  0  0  0  0  0  0  0  0
    9.9599  -15.7218   25.9428 N   0  0  0  0  0  0  0  0  0  0  0  0
   10.4500  -17.6093   27.4413 C   0  0  0  0  0  0  0  0  0  0  0  0
    9.2421  -18.3011   27.1877 O   0  0  0  0  0  0  0  0  0  0  0  0
   11.4217  -18.2591   27.8744 O   0  0  0  0  0  0  0  0  0  0  0  0
  2  3  2  0
  2  1  1  0
  4  2  1  0
  5  6  1  6
  5  4  1  0
  7  5  1  0
  8  7  2  0
  9  7  1  0
 10  9  1  0
 10 11  1  1
 11 12  1  0
 12 13  2  0
 13 14  1  0
 15 16  2  0
 15 14  1  0
 17 16  1  0
 18 19  1  0
 18 17  2  0
 19 20  2  0
 20 12  1  0
 20 15  1  0
 21 22  2  0
 21 10  1  0
 23 24  1  0
 24 25  1  0
 25 27  1  0
 25 26  1  1
 27 29  1  0
 27 28  1  6
 28 21  1  0
 29 30  1  0
 31 29  2  0
M  END
$$$$
