NWI.pdb
     RDKit          3D

 31 32  0  0  1  0  0  0  0  0999 V2000
   12.9135  -18.0442   18.4677 N   0  0  0  0  0  0  0  0  0  0  0  0
   12.3025  -16.7723   18.4270 C   0  0  0  0  0  0  0  0  0  0  0  0
   12.5503  -16.0221   17.4625 O   0  0  0  0  0  0  0  0  0  0  0  0
   11.4047  -16.3507   19.4885 C   0  0  0  0  0  0  0  0  0  0  0  0
   11.3330  -17.3550   20.6404 C   0  0  2  0  0  0  0  0  0  0  0  0
   10.4401  -18.4007   20.2004 N   0  0  0  0  0  0  0  0  0  0  0  0
   10.7194  -16.6292   21.7843 C   0  0  0  0  0  0  0  0  0  0  0  0
   11.2864  -15.5780   22.2379 O   0  0  0  0  0  0  0  0  0  0  0  0
    9.5277  -17.0358   22.4133 N   0  0  0  0  0  0  0  0  0  0  0  0
    8.9514  -16.3316   23.5871 C   0  0  1  0  0  0  0  0  0  0  0  0
    7.5152  -16.5552   23.7216 C   0  0  0  0  0  0  0  0  0  0  0  0
    6.7187  -15.6101   24.5101 C   0  0  0  0  0  0  0  0  0  0  0  0
    5.4644  -15.8902   25.0782 C   0  0  0  0  0  0  0  0  0  0  0  0
    5.0581  -14.8231   25.7603 N   0  0  0  0  0  0  0  0  0  0  0  0
    5.9682  -13.8311   25.6862 C   0  0  0  0  0  0  0  0  0  0  0  0
    6.0295  -12.5481   26.1818 C   0  0  0  0  0  0  0  0  0  0  0  0
    7.1051  -11.7562   25.9066 C   0  0  0  0  0  0  0  0  0  0  0  0
    8.1433  -12.2182   25.1344 C   0  0  0  0  0  0  0  0  0  0  0  0
    8.0625  -13.4908   24.6554 C   0  0  0  0  0  0  0  0  0  0  0  0
    7.0042  -14.3410   24.8981 C   0  0  0  0  0  0  0  0  0  0  0  0
    9.8874  -16.4343   24.6872 C   0  0  0  0  0  0  0  0  0  0  0  0
   11.0205  -17.0571   24.4919 O   0  0  0  0  0  0  0  0  0  0  0  0
    9.6544  -13.2154   29.2999 C   0  0  0  0  0  0  0  0  0  0  0  0
   10.0961  -13.9405   28.0526 C   0  0  0  0  0  0  0  0  0  0  0  0
   10.5066  -15.3555   28.2560 C   0  0  2  0  0  0  0  0  0  0  0  0
   11.7985  -15.3346   29.0805 C   0  0  0  0  0  0  0  0  0  0  0  0
   10.7878  -16.1584   27.0389 C   0  0  2  0  0  0  0  0  0  0  0  0
    9.7762  -15.9374   26.0083 N   0  0  0  0  0  0  0  0  0  0  0  0
   11.1560  -17.5580   27.2404 C   0  0  0  0  0  0  0  0  0  0  0  0
   10.1600  -18.5555   27.3629 O   0  0  0  0  0  0  0  0  0  0  0  0
   12.3508  -17.9063   27.3106 O   0  0  0  0  0  0  0  0  0  0  0  0
  2  3  2  0
  2  1  1  0
  4  2  1  0
  5  6  1  6
  5  4  1  0
  7  5  1  0
  8  7  2  0
  9  7  1  0
 10  9  1  0
 10 11  1  1
 11 12  1  0
 12 13  2  0
 13 14  1  0
 15 16  2  0
 15 14  1  0
 17 16  1  0
 18 19  1  0
 18 17  2  0
 19 20  2  0
 20 12  1  0
 20 15  1  0
 21 22  2  0
 21 10  1  0
 23 24  1  0
 24 25  1  0
 25 27  1  0
 25 26  1  1
 27 29  1  0
 27 28  1  6
 28 21  1  0
 29 30  1  0
 31 29  2  0
M  END
$$$$
