QGA.pdb
     RDKit          3D

 19 18  0  0  1  0  0  0  0  0999 V2000
   15.0805  -12.3007  -16.8549 N   0  0  0  0  0  0  0  0  0  0  0  0
   15.4417  -13.4354  -16.0537 C   0  0  0  0  0  0  0  0  0  0  0  0
   14.5522  -14.2651  -15.7950 O   0  0  0  0  0  0  0  0  0  0  0  0
   16.8287  -13.5311  -15.6069 C   0  0  0  0  0  0  0  0  0  0  0  0
   17.6304  -12.3409  -16.0128 C   0  0  0  0  0  0  0  0  0  0  0  0
   17.9023  -11.3339  -14.9324 C   0  0  2  0  0  0  0  0  0  0  0  0
   16.7253  -10.7217  -14.3940 N   0  0  0  0  0  0  0  0  0  0  0  0
   18.7945  -10.2719  -15.4929 C   0  0  0  0  0  0  0  0  0  0  0  0
   19.9232  -10.6011  -15.9273 O   0  0  0  0  0  0  0  0  0  0  0  0
   18.3813   -8.9111  -15.5376 N   0  0  0  0  0  0  0  0  0  0  0  0
   19.2978   -7.9322  -16.0823 C   0  0  0  0  0  0  0  0  0  0  0  0
   20.1570   -7.3482  -15.0309 C   0  0  0  0  0  0  0  0  0  0  0  0
   19.9377   -7.6652  -13.8382 O   0  0  0  0  0  0  0  0  0  0  0  0
   23.3664   -5.5219  -15.0977 C   0  0  0  0  0  0  0  0  0  0  0  0
   22.0688   -5.8850  -14.4126 C   0  0  2  0  0  0  0  0  0  0  0  0
   21.1917   -6.4556  -15.4131 N   0  0  0  0  0  0  0  0  0  0  0  0
   21.4159   -4.7025  -13.7947 C   0  0  0  0  0  0  0  0  0  0  0  0
   20.4712   -4.0797  -14.3431 O   0  0  0  0  0  0  0  0  0  0  0  0
   21.8584   -4.2666  -12.5735 O   0  0  0  0  0  0  0  0  0  0  0  0
  1  2  1  0
  2  3  2  0
  4  5  1  0
  4  2  1  0
  6  7  1  6
  6  5  1  0
  8  9  2  0
  8  6  1  0
 10  8  1  0
 11 10  1  0
 11 12  1  0
 12 16  1  0
 13 12  2  0
 15 14  1  6
 15 17  1  0
 16 15  1  0
 17 18  2  0
 17 19  1  0
M  END
$$$$
