QGA.pdb
     RDKit          3D

 19 18  0  0  1  0  0  0  0  0999 V2000
   34.3671  -36.7836   -0.6889 N   0  0  0  0  0  0  0  0  0  0  0  0
   33.5962  -36.1638   -1.7289 C   0  0  0  0  0  0  0  0  0  0  0  0
   32.4221  -35.8492   -1.4666 O   0  0  0  0  0  0  0  0  0  0  0  0
   34.2519  -35.9460   -3.0155 C   0  0  0  0  0  0  0  0  0  0  0  0
   33.3888  -35.1802   -3.9604 C   0  0  0  0  0  0  0  0  0  0  0  0
   32.9209  -35.9291   -5.1751 C   0  0  2  0  0  0  0  0  0  0  0  0
   33.9639  -36.2496   -6.1021 N   0  0  0  0  0  0  0  0  0  0  0  0
   31.8861  -35.1008   -5.8687 C   0  0  0  0  0  0  0  0  0  0  0  0
   32.1122  -34.7098   -7.0379 O   0  0  0  0  0  0  0  0  0  0  0  0
   30.6650  -34.7568   -5.2243 N   0  0  0  0  0  0  0  0  0  0  0  0
   29.6712  -34.0252   -5.9806 C   0  0  0  0  0  0  0  0  0  0  0  0
   28.4232  -33.8478   -5.2089 C   0  0  0  0  0  0  0  0  0  0  0  0
   28.3632  -34.3310   -4.0539 O   0  0  0  0  0  0  0  0  0  0  0  0
   25.2266  -32.0490   -5.9178 C   0  0  0  0  0  0  0  0  0  0  0  0
   26.1204  -32.9228   -5.0678 C   0  0  2  0  0  0  0  0  0  0  0  0
   27.3473  -33.1402   -5.8049 N   0  0  0  0  0  0  0  0  0  0  0  0
   25.4880  -34.2306   -4.7576 C   0  0  0  0  0  0  0  0  0  0  0  0
   25.6740  -35.2612   -5.4535 O   0  0  0  0  0  0  0  0  0  0  0  0
   24.6648  -34.3238   -3.6664 O   0  0  0  0  0  0  0  0  0  0  0  0
  1  2  1  0
  2  3  2  0
  4  5  1  0
  4  2  1  0
  6  7  1  6
  6  5  1  0
  8  9  2  0
  8  6  1  0
 10  8  1  0
 11 10  1  0
 11 12  1  0
 12 16  1  0
 13 12  2  0
 15 14  1  6
 15 17  1  0
 16 15  1  0
 17 18  2  0
 17 19  1  0
M  END
$$$$
