QGA.pdb
     RDKit          3D

 19 18  0  0  1  0  0  0  0  0999 V2000
   24.0270  -23.9503  -18.2872 N   0  0  0  0  0  0  0  0  0  0  0  0
   25.3974  -24.2253  -18.6136 C   0  0  0  0  0  0  0  0  0  0  0  0
   25.7852  -25.4037  -18.5275 O   0  0  0  0  0  0  0  0  0  0  0  0
   26.2311  -23.0997  -19.0265 C   0  0  0  0  0  0  0  0  0  0  0  0
   27.5680  -23.1221  -18.3661 C   0  0  0  0  0  0  0  0  0  0  0  0
   27.5672  -22.9279  -16.8770 C   0  0  2  0  0  0  0  0  0  0  0  0
   27.1022  -21.6411  -16.4554 N   0  0  0  0  0  0  0  0  0  0  0  0
   28.9613  -23.1339  -16.3750 C   0  0  0  0  0  0  0  0  0  0  0  0
   29.7144  -22.1382  -16.2629 O   0  0  0  0  0  0  0  0  0  0  0  0
   29.4352  -24.4301  -16.0284 N   0  0  0  0  0  0  0  0  0  0  0  0
   30.7352  -24.5417  -15.4020 C   0  0  0  0  0  0  0  0  0  0  0  0
   31.7807  -24.9054  -16.3813 C   0  0  0  0  0  0  0  0  0  0  0  0
   31.6236  -24.5606  -17.5761 O   0  0  0  0  0  0  0  0  0  0  0  0
   35.0923  -26.6025  -16.0493 C   0  0  0  0  0  0  0  0  0  0  0  0
   33.9941  -25.9365  -16.8463 C   0  0  2  0  0  0  0  0  0  0  0  0
   32.9161  -25.6275  -15.9307 N   0  0  0  0  0  0  0  0  0  0  0  0
   33.4873  -26.8114  -17.9344 C   0  0  0  0  0  0  0  0  0  0  0  0
   33.9441  -26.7790  -19.1054 O   0  0  0  0  0  0  0  0  0  0  0  0
   32.4776  -27.6946  -17.6556 O   0  0  0  0  0  0  0  0  0  0  0  0
  1  2  1  0
  2  3  2  0
  4  5  1  0
  4  2  1  0
  6  7  1  6
  6  5  1  0
  8  9  2  0
  8  6  1  0
 10  8  1  0
 11 10  1  0
 11 12  1  0
 12 16  1  0
 13 12  2  0
 15 14  1  1
 15 17  1  0
 16 15  1  0
 17 18  2  0
 17 19  1  0
M  END
$$$$
