QGA.pdb
     RDKit          3D

 19 18  0  0  1  0  0  0  0  0999 V2000
   17.1862  -15.5567  -16.4270 N   0  0  0  0  0  0  0  0  0  0  0  0
   18.4544  -15.2101  -15.8513 C   0  0  0  0  0  0  0  0  0  0  0  0
   19.1324  -16.1271  -15.3555 O   0  0  0  0  0  0  0  0  0  0  0  0
   18.8539  -13.8061  -15.8958 C   0  0  0  0  0  0  0  0  0  0  0  0
   17.7764  -12.9353  -16.4479 C   0  0  0  0  0  0  0  0  0  0  0  0
   18.2363  -11.7414  -17.2342 C   0  0  2  0  0  0  0  0  0  0  0  0
   19.4908  -11.9269  -17.8989 N   0  0  0  0  0  0  0  0  0  0  0  0
   18.3434  -10.5768  -16.3014 C   0  0  0  0  0  0  0  0  0  0  0  0
   17.3660  -10.3021  -15.5662 O   0  0  0  0  0  0  0  0  0  0  0  0
   19.5264   -9.7884  -16.2405 N   0  0  0  0  0  0  0  0  0  0  0  0
   19.5465   -8.6470  -15.3507 C   0  0  0  0  0  0  0  0  0  0  0  0
   20.8552   -7.9607  -15.3769 C   0  0  0  0  0  0  0  0  0  0  0  0
   21.7972   -8.4980  -16.0054 O   0  0  0  0  0  0  0  0  0  0  0  0
   22.5345   -5.6804  -16.1847 C   0  0  0  0  0  0  0  0  0  0  0  0
   22.2447   -6.0017  -14.7363 C   0  0  2  0  0  0  0  0  0  0  0  0
   20.9917   -6.7254  -14.6920 N   0  0  0  0  0  0  0  0  0  0  0  0
   22.1408   -4.7756  -13.9044 C   0  0  0  0  0  0  0  0  0  0  0  0
   21.0441   -4.3258  -13.4850 O   0  0  0  0  0  0  0  0  0  0  0  0
   23.2873   -4.1009  -13.5764 O   0  0  0  0  0  0  0  0  0  0  0  0
  1  2  1  0
  2  3  2  0
  4  5  1  0
  4  2  1  0
  6  7  1  1
  6  5  1  0
  8  9  2  0
  8  6  1  0
 10  8  1  0
 11 10  1  0
 11 12  1  0
 12 16  1  0
 13 12  2  0
 15 14  1  6
 15 17  1  0
 16 15  1  0
 17 18  2  0
 17 19  1  0
M  END
$$$$
