QGA.pdb
     RDKit          3D

 19 18  0  0  1  0  0  0  0  0999 V2000
   29.8456   -9.3434  -17.1219 N   0  0  0  0  0  0  0  0  0  0  0  0
   30.3457  -10.5996  -17.6034 C   0  0  0  0  0  0  0  0  0  0  0  0
   31.5775  -10.7702  -17.5972 O   0  0  0  0  0  0  0  0  0  0  0  0
   29.3684  -11.5840  -18.0600 C   0  0  0  0  0  0  0  0  0  0  0  0
   27.9700  -11.0787  -17.9448 C   0  0  0  0  0  0  0  0  0  0  0  0
   27.3469  -11.1781  -16.5821 C   0  0  2  0  0  0  0  0  0  0  0  0
   27.4341  -12.4801  -15.9928 N   0  0  0  0  0  0  0  0  0  0  0  0
   25.9076  -10.7858  -16.6932 C   0  0  0  0  0  0  0  0  0  0  0  0
   25.0642  -11.6661  -16.9847 O   0  0  0  0  0  0  0  0  0  0  0  0
   25.4914   -9.4428  -16.4746 N   0  0  0  0  0  0  0  0  0  0  0  0
   24.0974   -9.1130  -16.6816 C   0  0  0  0  0  0  0  0  0  0  0  0
   23.8038   -7.7201  -16.2840 C   0  0  0  0  0  0  0  0  0  0  0  0
   24.7425   -7.0158  -15.8437 O   0  0  0  0  0  0  0  0  0  0  0  0
   20.7081   -5.6332  -16.4331 C   0  0  0  0  0  0  0  0  0  0  0  0
   22.1652   -5.8600  -16.1008 C   0  0  2  0  0  0  0  0  0  0  0  0
   22.4756   -7.2383  -16.4163 N   0  0  0  0  0  0  0  0  0  0  0  0
   22.4561   -5.6000  -14.6676 C   0  0  0  0  0  0  0  0  0  0  0  0
   22.3831   -6.4911  -13.7834 O   0  0  0  0  0  0  0  0  0  0  0  0
   22.8204   -4.3355  -14.2863 O   0  0  0  0  0  0  0  0  0  0  0  0
  1  2  1  0
  2  3  2  0
  4  5  1  0
  4  2  1  0
  6  7  1  6
  6  5  1  0
  8  9  2  0
  8  6  1  0
 10  8  1  0
 11 10  1  0
 11 12  1  0
 12 16  1  0
 13 12  2  0
 15 14  1  1
 15 17  1  0
 16 15  1  0
 17 18  2  0
 17 19  1  0
M  END
$$$$
