QGA.pdb
     RDKit          3D

 19 18  0  0  1  0  0  0  0  0999 V2000
   16.4005  -14.4709  -16.0062 N   0  0  0  0  0  0  0  0  0  0  0  0
   17.5896  -14.4798  -15.2026 C   0  0  0  0  0  0  0  0  0  0  0  0
   17.6622  -15.3210  -14.2896 O   0  0  0  0  0  0  0  0  0  0  0  0
   18.6264  -13.5020  -15.5218 C   0  0  0  0  0  0  0  0  0  0  0  0
   18.1751  -12.5255  -16.5548 C   0  0  0  0  0  0  0  0  0  0  0  0
   19.2634  -11.7787  -17.2711 C   0  0  2  0  0  0  0  0  0  0  0  0
   20.5846  -12.0934  -16.8178 N   0  0  0  0  0  0  0  0  0  0  0  0
   19.0214  -10.3128  -17.0965 C   0  0  0  0  0  0  0  0  0  0  0  0
   17.9339   -9.8307  -17.4916 O   0  0  0  0  0  0  0  0  0  0  0  0
   19.9989   -9.4716  -16.4952 N   0  0  0  0  0  0  0  0  0  0  0  0
   19.7065   -8.0597  -16.3690 C   0  0  0  0  0  0  0  0  0  0  0  0
   20.7948   -7.3393  -15.6755 C   0  0  0  0  0  0  0  0  0  0  0  0
   21.6284   -8.0075  -15.0199 O   0  0  0  0  0  0  0  0  0  0  0  0
   21.8069   -3.7461  -15.5801 C   0  0  0  0  0  0  0  0  0  0  0  0
   21.9308   -5.1910  -15.1532 C   0  0  2  0  0  0  0  0  0  0  0  0
   20.8518   -5.9252  -15.7796 N   0  0  0  0  0  0  0  0  0  0  0  0
   21.8466   -5.3446  -13.6782 C   0  0  0  0  0  0  0  0  0  0  0  0
   20.8093   -5.7456  -13.0915 O   0  0  0  0  0  0  0  0  0  0  0  0
   22.9445   -5.0372  -12.9184 O   0  0  0  0  0  0  0  0  0  0  0  0
  1  2  1  0
  2  3  2  0
  4  5  1  0
  4  2  1  0
  6  7  1  1
  6  5  1  0
  8  9  2  0
  8  6  1  0
 10  8  1  0
 11 10  1  0
 11 12  1  0
 12 16  1  0
 13 12  2  0
 15 14  1  1
 15 17  1  0
 16 15  1  0
 17 18  2  0
 17 19  1  0
M  END
$$$$
