ITT.pdb
     RDKit          3D

 23 22  0  0  1  0  0  0  0  0999 V2000
   29.5951  -20.8789  -10.0220 C   0  0  0  0  0  0  0  0  0  0  0  0
   29.0083  -21.4138  -11.3104 C   0  0  0  0  0  0  0  0  0  0  0  0
   27.6674  -20.7777  -11.5943 C   0  0  2  0  0  0  0  0  0  0  0  0
   26.7170  -21.1348  -10.5139 C   0  0  0  0  0  0  0  0  0  0  0  0
   27.2121  -21.1462  -12.9768 C   0  0  2  0  0  0  0  0  0  0  0  0
   28.3489  -21.0019  -13.8636 N   0  0  0  0  0  0  0  0  0  0  0  0
   26.0508  -20.3544  -13.4324 C   0  0  0  0  0  0  0  0  0  0  0  0
   26.1029  -19.2093  -13.8909 O   0  0  0  0  0  0  0  0  0  0  0  0
   22.5882  -19.7883  -16.2046 C   0  0  0  0  0  0  0  0  0  0  0  0
   23.8484  -20.1565  -15.4581 C   0  0  1  0  0  0  0  0  0  0  0  0
   24.8802  -19.2865  -15.6677 O   0  0  0  0  0  0  0  0  0  0  0  0
   23.5993  -20.2891  -13.9655 C   0  0  2  0  0  0  0  0  0  0  0  0
   24.7570  -20.9603  -13.3363 N   0  0  0  0  0  0  0  0  0  0  0  0
   22.3547  -20.9983  -13.6348 C   0  0  0  0  0  0  0  0  0  0  0  0
   22.2396  -22.2287  -13.9216 O   0  0  0  0  0  0  0  0  0  0  0  0
   19.7882  -19.3626  -10.7251 C   0  0  0  0  0  0  0  0  0  0  0  0
   20.0121  -20.8202  -10.9839 C   0  0  1  0  0  0  0  0  0  0  0  0
   18.8800  -21.5043  -10.5168 O   0  0  0  0  0  0  0  0  0  0  0  0
   20.1350  -21.1366  -12.4570 C   0  0  2  0  0  0  0  0  0  0  0  0
   21.2498  -20.3866  -13.0022 N   0  0  0  0  0  0  0  0  0  0  0  0
   18.9172  -20.7747  -13.2091 C   0  0  0  0  0  0  0  0  0  0  0  0
   17.7385  -21.5025  -13.1488 O   0  0  0  0  0  0  0  0  0  0  0  0
   18.9332  -19.7609  -13.9440 O   0  0  0  0  0  0  0  0  0  0  0  0
  1  2  1  0
  3  2  1  0
  3  5  1  0
  3  4  1  1
  5  7  1  0
  5  6  1  6
  7  8  2  0
  7 13  1  0
 10  9  1  6
 11 10  1  0
 12 14  1  0
 12 10  1  0
 12 13  1  1
 14 15  2  0
 17 19  1  0
 17 16  1  6
 17 18  1  0
 19 20  1  6
 20 14  1  0
 21 22  1  0
 21 19  1  0
 23 21  2  0
M  END
$$$$
