ITT.pdb
     RDKit          3D

 23 22  0  0  1  0  0  0  0  0999 V2000
   21.0834  -15.4322  -18.2542 C   0  0  0  0  0  0  0  0  0  0  0  0
   22.3533  -16.2505  -18.3450 C   0  0  0  0  0  0  0  0  0  0  0  0
   22.3557  -17.3543  -17.3131 C   0  0  2  0  0  0  0  0  0  0  0  0
   22.1488  -16.7674  -15.9674 C   0  0  0  0  0  0  0  0  0  0  0  0
   23.6030  -18.1783  -17.4527 C   0  0  2  0  0  0  0  0  0  0  0  0
   23.6717  -18.6369  -18.8254 N   0  0  0  0  0  0  0  0  0  0  0  0
   23.6653  -19.2986  -16.4912 C   0  0  0  0  0  0  0  0  0  0  0  0
   22.8400  -20.2127  -16.4053 O   0  0  0  0  0  0  0  0  0  0  0  0
   25.8644  -21.9443  -16.4734 C   0  0  0  0  0  0  0  0  0  0  0  0
   26.0990  -21.3292  -15.1142 C   0  0  1  0  0  0  0  0  0  0  0  0
   27.2406  -20.5828  -15.0431 O   0  0  0  0  0  0  0  0  0  0  0  0
   24.9184  -20.4839  -14.6682 C   0  0  2  0  0  0  0  0  0  0  0  0
   24.7717  -19.3312  -15.5827 N   0  0  0  0  0  0  0  0  0  0  0  0
   25.0140  -20.0232  -13.2753 C   0  0  0  0  0  0  0  0  0  0  0  0
   25.1271  -18.7833  -13.0319 O   0  0  0  0  0  0  0  0  0  0  0  0
   23.9660  -20.4880   -8.5706 C   0  0  0  0  0  0  0  0  0  0  0  0
   23.8750  -20.8228  -10.0271 C   0  0  1  0  0  0  0  0  0  0  0  0
   22.8145  -20.0751  -10.5602 O   0  0  0  0  0  0  0  0  0  0  0  0
   25.1162  -20.4256  -10.7932 C   0  0  2  0  0  0  0  0  0  0  0  0
   24.9870  -20.8904  -12.1607 N   0  0  0  0  0  0  0  0  0  0  0  0
   26.3410  -21.0130  -10.2148 C   0  0  0  0  0  0  0  0  0  0  0  0
   27.0424  -20.4366   -9.1667 O   0  0  0  0  0  0  0  0  0  0  0  0
   26.7822  -22.0871  -10.6836 O   0  0  0  0  0  0  0  0  0  0  0  0
  1  2  1  0
  3  2  1  0
  3  5  1  0
  3  4  1  1
  5  7  1  0
  5  6  1  6
  7  8  2  0
  7 13  1  0
 10  9  1  6
 11 10  1  0
 12 14  1  0
 12 10  1  0
 12 13  1  6
 14 15  2  0
 17 19  1  0
 17 16  1  1
 17 18  1  0
 19 20  1  6
 20 14  1  0
 21 22  1  0
 21 19  1  0
 23 21  2  0
M  END
$$$$
