ITT.pdb
     RDKit          3D

 23 22  0  0  1  0  0  0  0  0999 V2000
   24.8253  -13.6453  -15.3268 C   0  0  0  0  0  0  0  0  0  0  0  0
   23.3211  -13.6172  -15.4909 C   0  0  0  0  0  0  0  0  0  0  0  0
   22.8468  -12.2299  -15.8569 C   0  0  2  0  0  0  0  0  0  0  0  0
   23.3185  -11.2652  -14.8346 C   0  0  0  0  0  0  0  0  0  0  0  0
   21.3607  -12.2404  -16.0705 C   0  0  2  0  0  0  0  0  0  0  0  0
   21.0675  -13.2692  -17.0478 N   0  0  0  0  0  0  0  0  0  0  0  0
   20.8265  -10.9237  -16.4758 C   0  0  0  0  0  0  0  0  0  0  0  0
   21.0386  -10.3695  -17.5584 O   0  0  0  0  0  0  0  0  0  0  0  0
   17.4005   -7.5053  -15.9593 C   0  0  0  0  0  0  0  0  0  0  0  0
   17.9770   -8.9004  -15.9107 C   0  0  1  0  0  0  0  0  0  0  0  0
   17.5554   -9.7005  -16.9342 O   0  0  0  0  0  0  0  0  0  0  0  0
   19.4956   -8.8804  -15.8824 C   0  0  2  0  0  0  0  0  0  0  0  0
   19.9940  -10.2298  -15.5398 N   0  0  0  0  0  0  0  0  0  0  0  0
   20.0564   -7.8792  -14.9634 C   0  0  0  0  0  0  0  0  0  0  0  0
   20.0772   -8.1149  -13.7170 O   0  0  0  0  0  0  0  0  0  0  0  0
   23.1617   -5.4840  -15.9663 C   0  0  0  0  0  0  0  0  0  0  0  0
   22.6695   -5.7425  -14.5761 C   0  0  1  0  0  0  0  0  0  0  0  0
   23.1789   -4.7230  -13.7582 O   0  0  0  0  0  0  0  0  0  0  0  0
   21.1630   -5.6733  -14.4708 C   0  0  2  0  0  0  0  0  0  0  0  0
   20.5882   -6.6406  -15.3854 N   0  0  0  0  0  0  0  0  0  0  0  0
   20.6401   -4.3366  -14.8165 C   0  0  0  0  0  0  0  0  0  0  0  0
   19.8338   -4.0940  -15.9181 O   0  0  0  0  0  0  0  0  0  0  0  0
   20.9307   -3.3609  -14.0871 O   0  0  0  0  0  0  0  0  0  0  0  0
  1  2  1  0
  3  2  1  0
  3  5  1  0
  3  4  1  1
  5  7  1  0
  5  6  1  6
  7  8  2  0
  7 13  1  0
 10  9  1  6
 11 10  1  0
 12 14  1  0
 12 10  1  0
 12 13  1  1
 14 15  2  0
 17 19  1  0
 17 16  1  6
 17 18  1  0
 19 20  1  6
 20 14  1  0
 21 22  1  0
 21 19  1  0
 23 21  2  0
M  END
$$$$
