ITT.pdb
     RDKit          3D

 23 22  0  0  1  0  0  0  0  0999 V2000
   17.2194  -14.0264  -17.8660 C   0  0  0  0  0  0  0  0  0  0  0  0
   17.7702  -13.3639  -16.6217 C   0  0  0  0  0  0  0  0  0  0  0  0
   17.9556  -11.8803  -16.8408 C   0  0  2  0  0  0  0  0  0  0  0  0
   18.7306  -11.6619  -18.0856 C   0  0  0  0  0  0  0  0  0  0  0  0
   18.5525  -11.2556  -15.6129 C   0  0  2  0  0  0  0  0  0  0  0  0
   17.7175  -11.6221  -14.4869 N   0  0  0  0  0  0  0  0  0  0  0  0
   18.7124   -9.7914  -15.7297 C   0  0  0  0  0  0  0  0  0  0  0  0
   19.4286   -9.2147  -16.5535 O   0  0  0  0  0  0  0  0  0  0  0  0
   16.7368   -5.3942  -14.5727 C   0  0  0  0  0  0  0  0  0  0  0  0
   16.6893   -6.9032  -14.6135 C   0  0  1  0  0  0  0  0  0  0  0  0
   15.7486   -7.3961  -15.4723 O   0  0  0  0  0  0  0  0  0  0  0  0
   18.0436   -7.4992  -14.9570 C   0  0  2  0  0  0  0  0  0  0  0  0
   17.9788   -8.9697  -14.8148 N   0  0  0  0  0  0  0  0  0  0  0  0
   19.1491   -6.9557  -14.1546 C   0  0  0  0  0  0  0  0  0  0  0  0
   19.2111   -7.2175  -12.9148 O   0  0  0  0  0  0  0  0  0  0  0  0
   22.5181   -7.7589  -13.8939 C   0  0  0  0  0  0  0  0  0  0  0  0
   22.5359   -6.3047  -14.2501 C   0  0  1  0  0  0  0  0  0  0  0  0
   22.6546   -6.2197  -15.6453 O   0  0  0  0  0  0  0  0  0  0  0  0
   21.2511   -5.5998  -13.8788 C   0  0  2  0  0  0  0  0  0  0  0  0
   20.1741   -6.1411  -14.6847 N   0  0  0  0  0  0  0  0  0  0  0  0
   21.3246   -4.1443  -14.1155 C   0  0  0  0  0  0  0  0  0  0  0  0
   22.1043   -3.2859  -13.3554 O   0  0  0  0  0  0  0  0  0  0  0  0
   20.6541   -3.6436  -15.0471 O   0  0  0  0  0  0  0  0  0  0  0  0
  1  2  1  0
  3  2  1  0
  3  5  1  0
  3  4  1  6
  5  7  1  0
  5  6  1  1
  7  8  2  0
  7 13  1  0
 10  9  1  6
 11 10  1  0
 12 14  1  0
 12 10  1  0
 12 13  1  1
 14 15  2  0
 17 19  1  0
 17 16  1  6
 17 18  1  0
 19 20  1  6
 20 14  1  0
 21 22  1  0
 21 19  1  0
 23 21  2  0
M  END
$$$$
