ITT.pdb
     RDKit          3D

 23 22  0  0  1  0  0  0  0  0999 V2000
   28.7410  -19.0376  -17.5615 C   0  0  0  0  0  0  0  0  0  0  0  0
   27.9953  -19.9595  -16.6210 C   0  0  0  0  0  0  0  0  0  0  0  0
   26.8764  -19.2227  -15.9222 C   0  0  2  0  0  0  0  0  0  0  0  0
   27.4187  -17.9990  -15.2844 C   0  0  0  0  0  0  0  0  0  0  0  0
   26.1615  -20.1535  -14.9857 C   0  0  2  0  0  0  0  0  0  0  0  0
   26.1652  -21.4697  -15.5915 N   0  0  0  0  0  0  0  0  0  0  0  0
   24.7947  -19.7009  -14.6536 C   0  0  0  0  0  0  0  0  0  0  0  0
   24.5145  -18.6724  -14.0309 O   0  0  0  0  0  0  0  0  0  0  0  0
   20.2751  -19.3925  -16.2108 C   0  0  0  0  0  0  0  0  0  0  0  0
   21.7762  -19.5554  -16.2430 C   0  0  1  0  0  0  0  0  0  0  0  0
   22.4394  -18.4241  -16.6247 O   0  0  0  0  0  0  0  0  0  0  0  0
   22.3193  -20.0282  -14.9055 C   0  0  2  0  0  0  0  0  0  0  0  0
   23.7023  -20.5188  -15.0874 N   0  0  0  0  0  0  0  0  0  0  0  0
   21.4911  -21.0587  -14.2623 C   0  0  0  0  0  0  0  0  0  0  0  0
   21.5798  -22.2642  -14.6475 O   0  0  0  0  0  0  0  0  0  0  0  0
   18.8687  -22.5084  -10.3511 C   0  0  0  0  0  0  0  0  0  0  0  0
   19.7662  -21.5629  -11.0874 C   0  0  1  0  0  0  0  0  0  0  0  0
   21.0717  -21.7823  -10.6236 O   0  0  0  0  0  0  0  0  0  0  0  0
   19.7843  -21.8199  -12.5770 C   0  0  2  0  0  0  0  0  0  0  0  0
   20.5801  -20.7904  -13.2168 N   0  0  0  0  0  0  0  0  0  0  0  0
   18.4299  -21.7947  -13.1642 C   0  0  0  0  0  0  0  0  0  0  0  0
   17.6693  -22.9342  -13.3777 O   0  0  0  0  0  0  0  0  0  0  0  0
   17.9277  -20.6953  -13.4918 O   0  0  0  0  0  0  0  0  0  0  0  0
  1  2  1  0
  3  2  1  0
  3  5  1  0
  3  4  1  1
  5  7  1  0
  5  6  1  6
  7  8  2  0
  7 13  1  0
 10  9  1  1
 11 10  1  0
 12 14  1  0
 12 10  1  0
 12 13  1  6
 14 15  2  0
 17 19  1  0
 17 16  1  1
 17 18  1  0
 19 20  1  6
 20 14  1  0
 21 22  1  0
 21 19  1  0
 23 21  2  0
M  END
$$$$
