ITT.pdb
     RDKit          3D

 23 22  0  0  1  0  0  0  0  0999 V2000
   25.4417  -14.0518  -15.3361 C   0  0  0  0  0  0  0  0  0  0  0  0
   23.9502  -13.8380  -15.4785 C   0  0  0  0  0  0  0  0  0  0  0  0
   23.6438  -12.3956  -15.8087 C   0  0  2  0  0  0  0  0  0  0  0  0
   24.2010  -11.5213  -14.7488 C   0  0  0  0  0  0  0  0  0  0  0  0
   22.1707  -12.2305  -16.0475 C   0  0  2  0  0  0  0  0  0  0  0  0
   21.7481  -13.3025  -16.9259 N   0  0  0  0  0  0  0  0  0  0  0  0
   21.8190  -10.9010  -16.5881 C   0  0  0  0  0  0  0  0  0  0  0  0
   21.7569  -10.6110  -17.7865 O   0  0  0  0  0  0  0  0  0  0  0  0
   20.0426   -9.7188  -18.1226 C   0  0  0  0  0  0  0  0  0  0  0  0
   19.8052   -8.7529  -16.9861 C   0  0  1  0  0  0  0  0  0  0  0  0
   18.7712   -9.1144  -16.1703 O   0  0  0  0  0  0  0  0  0  0  0  0
   21.0569   -8.5504  -16.1497 C   0  0  2  0  0  0  0  0  0  0  0  0
   21.5254   -9.8606  -15.6491 N   0  0  0  0  0  0  0  0  0  0  0  0
   20.8762   -7.6109  -15.0334 C   0  0  0  0  0  0  0  0  0  0  0  0
   21.3163   -7.9132  -13.8826 O   0  0  0  0  0  0  0  0  0  0  0  0
   22.6605   -6.1369  -13.6753 C   0  0  0  0  0  0  0  0  0  0  0  0
   21.8154   -4.9511  -14.0236 C   0  0  1  0  0  0  0  0  0  0  0  0
   22.2494   -4.4836  -15.2730 O   0  0  0  0  0  0  0  0  0  0  0  0
   20.3531   -5.3039  -14.1747 C   0  0  2  0  0  0  0  0  0  0  0  0
   20.2294   -6.3615  -15.1590 N   0  0  0  0  0  0  0  0  0  0  0  0
   19.5446   -4.1527  -14.6230 C   0  0  0  0  0  0  0  0  0  0  0  0
   19.1189   -3.1424  -13.7742 O   0  0  0  0  0  0  0  0  0  0  0  0
   19.2183   -4.0697  -15.8292 O   0  0  0  0  0  0  0  0  0  0  0  0
  1  2  1  0
  3  2  1  0
  3  5  1  0
  3  4  1  1
  5  7  1  0
  5  6  1  6
  7  8  2  0
  7 13  1  0
 10  9  1  6
 11 10  1  0
 12 14  1  0
 12 10  1  0
 12 13  1  1
 14 15  2  0
 17 19  1  0
 17 16  1  6
 17 18  1  0
 19 20  1  6
 20 14  1  0
 21 22  1  0
 21 19  1  0
 23 21  2  0
M  END
$$$$
