ITT.pdb
     RDKit          3D

 23 22  0  0  1  0  0  0  0  0999 V2000
   27.8185  -19.2404   -6.0466 C   0  0  0  0  0  0  0  0  0  0  0  0
   26.5431  -19.5119   -6.8148 C   0  0  0  0  0  0  0  0  0  0  0  0
   26.8489  -20.1045   -8.1708 C   0  0  2  0  0  0  0  0  0  0  0  0
   27.8567  -19.2617   -8.8579 C   0  0  0  0  0  0  0  0  0  0  0  0
   25.5734  -20.3068   -8.9367 C   0  0  2  0  0  0  0  0  0  0  0  0
   24.6813  -21.0850   -8.1013 N   0  0  0  0  0  0  0  0  0  0  0  0
   25.7862  -20.9369  -10.2562 C   0  0  0  0  0  0  0  0  0  0  0  0
   26.0236  -22.1334  -10.4463 O   0  0  0  0  0  0  0  0  0  0  0  0
   24.6994  -22.8312  -11.9783 C   0  0  0  0  0  0  0  0  0  0  0  0
   24.6167  -21.6637  -12.9329 C   0  0  1  0  0  0  0  0  0  0  0  0
   23.4459  -20.9664  -12.8414 O   0  0  0  0  0  0  0  0  0  0  0  0
   25.7846  -20.7088  -12.7555 C   0  0  2  0  0  0  0  0  0  0  0  0
   25.7121  -20.0949  -11.4121 N   0  0  0  0  0  0  0  0  0  0  0  0
   25.8590  -19.6674  -13.7906 C   0  0  0  0  0  0  0  0  0  0  0  0
   25.5195  -18.4780  -13.5082 O   0  0  0  0  0  0  0  0  0  0  0  0
   28.1069  -17.9988  -17.7920 C   0  0  0  0  0  0  0  0  0  0  0  0
   27.8136  -19.0582  -16.7754 C   0  0  1  0  0  0  0  0  0  0  0  0
   28.8001  -18.9663  -15.7824 O   0  0  0  0  0  0  0  0  0  0  0  0
   26.4832  -18.8514  -16.0879 C   0  0  2  0  0  0  0  0  0  0  0  0
   26.2948  -19.9077  -15.1125 N   0  0  0  0  0  0  0  0  0  0  0  0
   25.3530  -18.8863  -17.0373 C   0  0  0  0  0  0  0  0  0  0  0  0
   24.7966  -17.7496  -17.6036 O   0  0  0  0  0  0  0  0  0  0  0  0
   24.8600  -19.9920  -17.3579 O   0  0  0  0  0  0  0  0  0  0  0  0
  1  2  1  0
  3  2  1  0
  3  5  1  0
  3  4  1  6
  5  7  1  0
  5  6  1  1
  7  8  2  0
  7 13  1  0
 10  9  1  1
 11 10  1  0
 12 14  1  0
 12 10  1  0
 12 13  1  1
 14 15  2  0
 17 19  1  0
 17 16  1  6
 17 18  1  0
 19 20  1  1
 20 14  1  0
 21 22  1  0
 21 19  1  0
 23 21  2  0
M  END
$$$$
