ITT.pdb
     RDKit          3D

 23 22  0  0  1  0  0  0  0  0999 V2000
   28.6032  -20.7391   -7.2943 C   0  0  0  0  0  0  0  0  0  0  0  0
   27.2461  -20.4229   -7.8847 C   0  0  0  0  0  0  0  0  0  0  0  0
   27.1285  -20.9748   -9.2865 C   0  0  2  0  0  0  0  0  0  0  0  0
   28.3710  -20.6738  -10.0374 C   0  0  0  0  0  0  0  0  0  0  0  0
   25.8695  -20.4681   -9.9287 C   0  0  2  0  0  0  0  0  0  0  0  0
   24.7750  -20.7427   -9.0198 N   0  0  0  0  0  0  0  0  0  0  0  0
   25.6333  -21.0432  -11.2690 C   0  0  0  0  0  0  0  0  0  0  0  0
   25.8481  -22.2156  -11.5911 O   0  0  0  0  0  0  0  0  0  0  0  0
   24.4641  -23.0362  -12.6096 C   0  0  0  0  0  0  0  0  0  0  0  0
   23.7879  -21.9174  -13.3660 C   0  0  1  0  0  0  0  0  0  0  0  0
   22.6412  -21.4728  -12.7720 O   0  0  0  0  0  0  0  0  0  0  0  0
   24.7251  -20.7430  -13.5893 C   0  0  2  0  0  0  0  0  0  0  0  0
   25.1129  -20.1737  -12.2808 N   0  0  0  0  0  0  0  0  0  0  0  0
   24.1650  -19.6966  -14.4569 C   0  0  0  0  0  0  0  0  0  0  0  0
   23.7372  -18.6188  -13.9423 O   0  0  0  0  0  0  0  0  0  0  0  0
   23.7359  -17.8401  -19.0400 C   0  0  0  0  0  0  0  0  0  0  0  0
   24.1739  -18.9120  -18.0909 C   0  0  1  0  0  0  0  0  0  0  0  0
   25.5644  -18.7964  -17.9459 O   0  0  0  0  0  0  0  0  0  0  0  0
   23.5770  -18.7466  -16.7118 C   0  0  2  0  0  0  0  0  0  0  0  0
   24.0692  -19.8129  -15.8613 N   0  0  0  0  0  0  0  0  0  0  0  0
   22.1020  -18.8084  -16.7310 C   0  0  0  0  0  0  0  0  0  0  0  0
   21.2908  -17.6841  -16.7122 O   0  0  0  0  0  0  0  0  0  0  0  0
   21.5391  -19.9265  -16.7660 O   0  0  0  0  0  0  0  0  0  0  0  0
  1  2  1  0
  3  2  1  0
  3  5  1  0
  3  4  1  6
  5  7  1  0
  5  6  1  1
  7  8  2  0
  7 13  1  0
 10  9  1  1
 11 10  1  0
 12 14  1  0
 12 10  1  0
 12 13  1  1
 14 15  2  0
 17 19  1  0
 17 16  1  6
 17 18  1  0
 19 20  1  1
 20 14  1  0
 21 22  1  0
 21 19  1  0
 23 21  2  0
M  END
$$$$
