ITT.pdb
     RDKit          3D

 23 22  0  0  1  0  0  0  0  0999 V2000
   18.7930  -13.4092  -20.5133 C   0  0  0  0  0  0  0  0  0  0  0  0
   19.8903  -13.0061  -19.5521 C   0  0  0  0  0  0  0  0  0  0  0  0
   19.4405  -11.8624  -18.6729 C   0  0  2  0  0  0  0  0  0  0  0  0
   18.9535  -10.7513  -19.5253 C   0  0  0  0  0  0  0  0  0  0  0  0
   20.5412  -11.4877  -17.7230 C   0  0  2  0  0  0  0  0  0  0  0  0
   21.0287  -12.7098  -17.1161 N   0  0  0  0  0  0  0  0  0  0  0  0
   20.1181  -10.4978  -16.7108 C   0  0  0  0  0  0  0  0  0  0  0  0
   19.2261  -10.6681  -15.8745 O   0  0  0  0  0  0  0  0  0  0  0  0
   21.2527   -9.3973  -13.7407 C   0  0  0  0  0  0  0  0  0  0  0  0
   21.3142   -8.1387  -14.5733 C   0  0  1  0  0  0  0  0  0  0  0  0
   22.5675   -7.8495  -15.0326 O   0  0  0  0  0  0  0  0  0  0  0  0
   20.3503   -8.1927  -15.7460 C   0  0  2  0  0  0  0  0  0  0  0  0
   20.7952   -9.2362  -16.6946 N   0  0  0  0  0  0  0  0  0  0  0  0
   20.1899   -6.9060  -16.4389 C   0  0  0  0  0  0  0  0  0  0  0  0
   21.0254   -6.5666  -17.3313 O   0  0  0  0  0  0  0  0  0  0  0  0
   17.5959   -5.6937  -18.7061 C   0  0  0  0  0  0  0  0  0  0  0  0
   17.6566   -4.7201  -17.5703 C   0  0  1  0  0  0  0  0  0  0  0  0
   16.6979   -5.1205  -16.6277 O   0  0  0  0  0  0  0  0  0  0  0  0
   18.9933   -4.7333  -16.8644 C   0  0  2  0  0  0  0  0  0  0  0  0
   19.1408   -5.9987  -16.1718 N   0  0  0  0  0  0  0  0  0  0  0  0
   19.1131   -3.6436  -15.8754 C   0  0  0  0  0  0  0  0  0  0  0  0
   19.3433   -2.3209  -16.2215 O   0  0  0  0  0  0  0  0  0  0  0  0
   19.0034   -3.9113  -14.6570 O   0  0  0  0  0  0  0  0  0  0  0  0
  1  2  1  0
  3  2  1  0
  3  5  1  0
  3  4  1  6
  5  7  1  0
  5  6  1  1
  7  8  2  0
  7 13  1  0
 10  9  1  6
 11 10  1  0
 12 14  1  0
 12 10  1  0
 12 13  1  6
 14 15  2  0
 17 19  1  0
 17 16  1  6
 17 18  1  0
 19 20  1  1
 20 14  1  0
 21 22  1  0
 21 19  1  0
 23 21  2  0
M  END
$$$$
