ITT.pdb
     RDKit          3D

 23 22  0  0  1  0  0  0  0  0999 V2000
   28.6071  -13.0072  -15.2334 C   0  0  0  0  0  0  0  0  0  0  0  0
   27.6417  -13.5939  -16.2405 C   0  0  0  0  0  0  0  0  0  0  0  0
   26.6498  -12.5522  -16.7033 C   0  0  2  0  0  0  0  0  0  0  0  0
   27.3459  -11.2542  -16.8733 C   0  0  0  0  0  0  0  0  0  0  0  0
   25.4761  -12.5163  -15.7677 C   0  0  2  0  0  0  0  0  0  0  0  0
   25.0375  -13.8824  -15.5653 N   0  0  0  0  0  0  0  0  0  0  0  0
   24.3808  -11.6490  -16.2487 C   0  0  0  0  0  0  0  0  0  0  0  0
   23.5945  -11.9297  -17.1582 O   0  0  0  0  0  0  0  0  0  0  0  0
   21.7202  -11.5117  -16.6613 C   0  0  0  0  0  0  0  0  0  0  0  0
   21.7811  -10.2594  -15.8192 C   0  0  1  0  0  0  0  0  0  0  0  0
   21.5921  -10.4890  -14.4862 O   0  0  0  0  0  0  0  0  0  0  0  0
   23.0875   -9.5106  -16.0190 C   0  0  2  0  0  0  0  0  0  0  0  0
   24.2134  -10.3779  -15.6109 N   0  0  0  0  0  0  0  0  0  0  0  0
   23.1470   -8.2257  -15.3068 C   0  0  0  0  0  0  0  0  0  0  0  0
   23.6704   -8.1731  -14.1523 O   0  0  0  0  0  0  0  0  0  0  0  0
   24.9070   -5.1960  -16.4450 C   0  0  0  0  0  0  0  0  0  0  0  0
   23.5026   -4.7834  -16.1303 C   0  0  1  0  0  0  0  0  0  0  0  0
   22.7780   -4.8248  -17.3307 O   0  0  0  0  0  0  0  0  0  0  0  0
   22.8177   -5.7343  -15.1752 C   0  0  2  0  0  0  0  0  0  0  0  0
   22.6486   -7.0143  -15.8352 N   0  0  0  0  0  0  0  0  0  0  0  0
   21.4885   -5.2454  -14.7582 C   0  0  0  0  0  0  0  0  0  0  0  0
   21.3050   -4.2238  -13.8388 O   0  0  0  0  0  0  0  0  0  0  0  0
   20.4637   -5.7700  -15.2510 O   0  0  0  0  0  0  0  0  0  0  0  0
  1  2  1  0
  3  2  1  0
  3  5  1  0
  3  4  1  1
  5  7  1  0
  5  6  1  6
  7  8  2  0
  7 13  1  0
 10  9  1  6
 11 10  1  0
 12 14  1  0
 12 10  1  0
 12 13  1  1
 14 15  2  0
 17 19  1  0
 17 16  1  6
 17 18  1  0
 19 20  1  6
 20 14  1  0
 21 22  1  0
 21 19  1  0
 23 21  2  0
M  END
$$$$
