ITT.pdb
     RDKit          3D

 23 22  0  0  1  0  0  0  0  0999 V2000
   25.7117  -17.8321  -16.5600 C   0  0  0  0  0  0  0  0  0  0  0  0
   24.5501  -16.9567  -16.1418 C   0  0  0  0  0  0  0  0  0  0  0  0
   24.9736  -15.5089  -16.0530 C   0  0  2  0  0  0  0  0  0  0  0  0
   26.0863  -15.3825  -15.0814 C   0  0  0  0  0  0  0  0  0  0  0  0
   23.7806  -14.6473  -15.7554 C   0  0  2  0  0  0  0  0  0  0  0  0
   22.6763  -15.1401  -16.5537 N   0  0  0  0  0  0  0  0  0  0  0  0
   24.0337  -13.2104  -15.9882 C   0  0  0  0  0  0  0  0  0  0  0  0
   24.9375  -12.5507  -15.4665 O   0  0  0  0  0  0  0  0  0  0  0  0
   25.0310  -11.2891  -18.8861 C   0  0  0  0  0  0  0  0  0  0  0  0
   23.6612  -10.7688  -18.5203 C   0  0  1  0  0  0  0  0  0  0  0  0
   22.6649  -11.2432  -19.3252 O   0  0  0  0  0  0  0  0  0  0  0  0
   23.3171  -11.0623  -17.0702 C   0  0  2  0  0  0  0  0  0  0  0  0
   23.1621  -12.5220  -16.8922 N   0  0  0  0  0  0  0  0  0  0  0  0
   22.1176  -10.3584  -16.5933 C   0  0  0  0  0  0  0  0  0  0  0  0
   20.9977  -10.9544  -16.5992 O   0  0  0  0  0  0  0  0  0  0  0  0
   21.5066   -9.1821  -13.2574 C   0  0  0  0  0  0  0  0  0  0  0  0
   20.4906   -9.1601  -14.3569 C   0  0  1  0  0  0  0  0  0  0  0  0
   19.3558   -8.5009  -13.8614 O   0  0  0  0  0  0  0  0  0  0  0  0
   20.9567   -8.3774  -15.5633 C   0  0  2  0  0  0  0  0  0  0  0  0
   22.1283   -9.0291  -16.1159 N   0  0  0  0  0  0  0  0  0  0  0  0
   21.3145   -6.9862  -15.2219 C   0  0  0  0  0  0  0  0  0  0  0  0
   20.3820   -6.0240  -14.8653 O   0  0  0  0  0  0  0  0  0  0  0  0
   22.5180   -6.6415  -15.2510 O   0  0  0  0  0  0  0  0  0  0  0  0
  1  2  1  0
  3  2  1  0
  3  5  1  0
  3  4  1  1
  5  7  1  0
  5  6  1  6
  7  8  2  0
  7 13  1  0
 10  9  1  6
 11 10  1  0
 12 14  1  0
 12 10  1  0
 12 13  1  6
 14 15  2  0
 17 19  1  0
 17 16  1  1
 17 18  1  0
 19 20  1  1
 20 14  1  0
 21 22  1  0
 21 19  1  0
 23 21  2  0
M  END
$$$$
