DTQ.pdb
     RDKit          3D

 25 24  0  0  1  0  0  0  0  0999 V2000
   12.1858  -14.6010   17.8394 N   0  0  0  0  0  0  0  0  0  0  0  0
   12.0965  -15.3092   19.1526 C   0  0  1  0  0  0  0  0  0  0  0  0
   13.4578  -15.3201   19.7679 C   0  0  0  0  0  0  0  0  0  0  0  0
   14.3966  -16.1169   18.9687 C   0  0  0  0  0  0  0  0  0  0  0  0
   14.1329  -17.3516   18.7860 O   0  0  0  0  0  0  0  0  0  0  0  0
   11.1870  -14.5028   20.0089 C   0  0  0  0  0  0  0  0  0  0  0  0
   11.3814  -13.2799   20.1641 O   0  0  0  0  0  0  0  0  0  0  0  0
   15.5478  -15.6461   18.3958 O   0  0  0  0  0  0  0  0  0  0  0  0
    7.6378  -13.7450   19.8372 C   0  0  0  0  0  0  0  0  0  0  0  0
    7.8192  -14.5337   21.1094 C   0  0  1  0  0  0  0  0  0  0  0  0
    7.5386  -15.8891   20.9572 O   0  0  0  0  0  0  0  0  0  0  0  0
    9.2632  -14.4065   21.6069 C   0  0  2  0  0  0  0  0  0  0  0  0
   10.0905  -15.1375   20.6515 N   0  0  0  0  0  0  0  0  0  0  0  0
    9.3706  -14.9435   22.9643 C   0  0  0  0  0  0  0  0  0  0  0  0
    9.9667  -16.0167   23.1776 O   0  0  0  0  0  0  0  0  0  0  0  0
    7.1504  -11.6302   27.5760 N   0  0  0  0  0  0  0  0  0  0  0  0
    6.2322  -12.4947   26.8963 C   0  0  0  0  0  0  0  0  0  0  0  0
    5.0290  -12.2089   26.9718 O   0  0  0  0  0  0  0  0  0  0  0  0
    6.8225  -13.6382   26.1790 C   0  0  0  0  0  0  0  0  0  0  0  0
    8.2873  -13.7834   26.3801 C   0  0  0  0  0  0  0  0  0  0  0  0
    8.9200  -14.7612   25.4178 C   0  0  2  0  0  0  0  0  0  0  0  0
    8.7862  -14.2292   24.0443 N   0  0  0  0  0  0  0  0  0  0  0  0
    8.2822  -16.0844   25.4732 C   0  0  0  0  0  0  0  0  0  0  0  0
    8.4342  -17.0005   26.4783 O   0  0  0  0  0  0  0  0  0  0  0  0
    7.5115  -16.4435   24.5130 O   0  0  0  0  0  0  0  0  0  0  0  0
  2  3  1  0
  2  1  1  6
  3  4  1  0
  4  8  1  0
  4  5  2  0
  6  2  1  0
  7  6  2  0
 10  9  1  6
 10 12  1  0
 11 10  1  0
 12 13  1  6
 13  6  1  0
 14 12  1  0
 14 15  2  0
 16 17  1  0
 17 18  2  0
 19 17  1  0
 19 20  1  0
 21 20  1  1
 21 22  1  0
 22 14  1  0
 23 21  1  0
 24 23  1  0
 25 23  2  0
M  END
$$$$
