DTQ.pdb
     RDKit          3D

 25 24  0  0  1  0  0  0  0  0999 V2000
   10.3155  -18.4651   17.4652 N   0  0  0  0  0  0  0  0  0  0  0  0
   10.7215  -18.3698   18.9005 C   0  0  1  0  0  0  0  0  0  0  0  0
   11.9789  -17.5665   18.9752 C   0  0  0  0  0  0  0  0  0  0  0  0
   13.1434  -18.3618   18.5673 C   0  0  0  0  0  0  0  0  0  0  0  0
   12.9359  -19.4532   17.9403 O   0  0  0  0  0  0  0  0  0  0  0  0
    9.6364  -17.6327   19.6007 C   0  0  0  0  0  0  0  0  0  0  0  0
    8.8963  -16.8479   18.9732 O   0  0  0  0  0  0  0  0  0  0  0  0
   14.4510  -18.0327   18.8059 O   0  0  0  0  0  0  0  0  0  0  0  0
    6.6621  -18.7498   20.9262 C   0  0  0  0  0  0  0  0  0  0  0  0
    7.3749  -18.1982   22.1350 C   0  0  1  0  0  0  0  0  0  0  0  0
    8.0636  -19.1711   22.8549 O   0  0  0  0  0  0  0  0  0  0  0  0
    8.3849  -17.1275   21.7083 C   0  0  2  0  0  0  0  0  0  0  0  0
    9.4478  -17.8295   20.9948 N   0  0  0  0  0  0  0  0  0  0  0  0
    8.8799  -16.4133   22.8861 C   0  0  0  0  0  0  0  0  0  0  0  0
   10.0612  -16.5463   23.2598 O   0  0  0  0  0  0  0  0  0  0  0  0
    5.5898  -12.1064   26.1729 N   0  0  0  0  0  0  0  0  0  0  0  0
    6.8391  -12.0867   26.8738 C   0  0  0  0  0  0  0  0  0  0  0  0
    6.9520  -11.2718   27.8002 O   0  0  0  0  0  0  0  0  0  0  0  0
    7.8611  -13.0421   26.4118 C   0  0  0  0  0  0  0  0  0  0  0  0
    7.4451  -13.8449   25.2330 C   0  0  0  0  0  0  0  0  0  0  0  0
    8.5175  -14.7992   24.7622 C   0  0  2  0  0  0  0  0  0  0  0  0
    7.9992  -15.5625   23.6062 N   0  0  0  0  0  0  0  0  0  0  0  0
    8.9143  -15.7485   25.8120 C   0  0  0  0  0  0  0  0  0  0  0  0
    8.3919  -17.0002   25.9930 O   0  0  0  0  0  0  0  0  0  0  0  0
    9.8251  -15.4060   26.6476 O   0  0  0  0  0  0  0  0  0  0  0  0
  2  3  1  0
  2  1  1  6
  3  4  1  0
  4  8  1  0
  4  5  2  0
  6  2  1  0
  7  6  2  0
 10  9  1  6
 10 12  1  0
 11 10  1  0
 12 13  1  1
 13  6  1  0
 14 12  1  0
 14 15  2  0
 16 17  1  0
 17 18  2  0
 19 17  1  0
 19 20  1  0
 21 20  1  1
 21 22  1  0
 22 14  1  0
 23 21  1  0
 24 23  1  0
 25 23  2  0
M  END
$$$$
