DTQ.pdb
     RDKit          3D

 25 24  0  0  1  0  0  0  0  0999 V2000
   11.3327  -18.3802   15.0764 N   0  0  0  0  0  0  0  0  0  0  0  0
   10.5681  -17.1301   14.7822 C   0  0  1  0  0  0  0  0  0  0  0  0
    9.8341  -17.3264   13.4959 C   0  0  0  0  0  0  0  0  0  0  0  0
   10.7292  -17.1682   12.3431 C   0  0  0  0  0  0  0  0  0  0  0  0
   11.6940  -17.9927   12.2138 O   0  0  0  0  0  0  0  0  0  0  0  0
    9.5798  -16.9682   15.8812 C   0  0  0  0  0  0  0  0  0  0  0  0
    8.7994  -15.9944   15.8933 O   0  0  0  0  0  0  0  0  0  0  0  0
   10.6200  -16.1990   11.3820 O   0  0  0  0  0  0  0  0  0  0  0  0
    7.3314  -19.7241   17.0856 C   0  0  0  0  0  0  0  0  0  0  0  0
    8.0361  -19.1911   18.3073 C   0  0  1  0  0  0  0  0  0  0  0  0
    9.0973  -19.9930   18.7198 O   0  0  0  0  0  0  0  0  0  0  0  0
    8.5885  -17.7893   18.0276 C   0  0  2  0  0  0  0  0  0  0  0  0
    9.5304  -17.9343   16.9215 N   0  0  0  0  0  0  0  0  0  0  0  0
    9.2218  -17.2545   19.2339 C   0  0  0  0  0  0  0  0  0  0  0  0
   10.4450  -17.3956   19.4253 O   0  0  0  0  0  0  0  0  0  0  0  0
    7.6820  -11.8427   19.8438 N   0  0  0  0  0  0  0  0  0  0  0  0
    7.7483  -12.4782   21.1260 C   0  0  0  0  0  0  0  0  0  0  0  0
    7.7962  -11.7387   22.1190 O   0  0  0  0  0  0  0  0  0  0  0  0
    7.7551  -13.9515   21.1239 C   0  0  0  0  0  0  0  0  0  0  0  0
    9.0949  -14.5473   21.3626 C   0  0  0  0  0  0  0  0  0  0  0  0
    9.0659  -16.0566   21.4242 C   0  0  2  0  0  0  0  0  0  0  0  0
    8.4278  -16.5695   20.1924 N   0  0  0  0  0  0  0  0  0  0  0  0
    8.3104  -16.5494   22.5848 C   0  0  0  0  0  0  0  0  0  0  0  0
    8.6953  -16.4345   23.8930 O   0  0  0  0  0  0  0  0  0  0  0  0
    7.1905  -17.1437   22.3907 O   0  0  0  0  0  0  0  0  0  0  0  0
  2  3  1  0
  2  1  1  1
  3  4  1  0
  4  8  1  0
  4  5  2  0
  6  2  1  0
  7  6  2  0
 10  9  1  6
 10 12  1  0
 11 10  1  0
 12 13  1  6
 13  6  1  0
 14 12  1  0
 14 15  2  0
 16 17  1  0
 17 18  2  0
 19 17  1  0
 19 20  1  0
 21 20  1  6
 21 22  1  0
 22 14  1  0
 23 21  1  0
 24 23  1  0
 25 23  2  0
M  END
$$$$
