DTQ.pdb
     RDKit          3D

 25 24  0  0  1  0  0  0  0  0999 V2000
   10.6129  -19.3774   14.8875 N   0  0  0  0  0  0  0  0  0  0  0  0
   10.9361  -18.1554   15.6853 C   0  0  1  0  0  0  0  0  0  0  0  0
    9.6773  -17.3711   15.8641 C   0  0  0  0  0  0  0  0  0  0  0  0
    9.2528  -16.7515   14.6029 C   0  0  0  0  0  0  0  0  0  0  0  0
    9.9567  -16.9662   13.5610 O   0  0  0  0  0  0  0  0  0  0  0  0
   11.4027  -18.6280   17.0156 C   0  0  0  0  0  0  0  0  0  0  0  0
   10.7382  -19.4655   17.6595 O   0  0  0  0  0  0  0  0  0  0  0  0
    8.1539  -15.9500   14.4440 O   0  0  0  0  0  0  0  0  0  0  0  0
   15.4321  -18.3638   18.0290 C   0  0  0  0  0  0  0  0  0  0  0  0
   14.4046  -19.2973   18.6174 C   0  0  1  0  0  0  0  0  0  0  0  0
   14.8059  -19.8600   19.8264 O   0  0  0  0  0  0  0  0  0  0  0  0
   13.0904  -18.5479   18.8620 C   0  0  2  0  0  0  0  0  0  0  0  0
   12.6155  -18.1169   17.5503 N   0  0  0  0  0  0  0  0  0  0  0  0
   13.3209  -17.4232   19.7698 C   0  0  0  0  0  0  0  0  0  0  0  0
   13.7564  -16.3380   19.3391 O   0  0  0  0  0  0  0  0  0  0  0  0
   10.5859  -16.8626   25.2540 N   0  0  0  0  0  0  0  0  0  0  0  0
   10.1984  -15.9588   24.2122 C   0  0  0  0  0  0  0  0  0  0  0  0
    9.1118  -15.3786   24.3457 O   0  0  0  0  0  0  0  0  0  0  0  0
   11.1391  -15.8188   23.0870 C   0  0  0  0  0  0  0  0  0  0  0  0
   12.4113  -16.5637   23.2702 C   0  0  0  0  0  0  0  0  0  0  0  0
   13.3326  -16.4584   22.0774 C   0  0  2  0  0  0  0  0  0  0  0  0
   13.0439  -17.5775   21.1546 N   0  0  0  0  0  0  0  0  0  0  0  0
   14.7493  -16.5220   22.4643 C   0  0  0  0  0  0  0  0  0  0  0  0
   15.6147  -17.5360   22.1551 O   0  0  0  0  0  0  0  0  0  0  0  0
   15.2496  -15.5618   23.1517 O   0  0  0  0  0  0  0  0  0  0  0  0
  2  3  1  0
  2  1  1  6
  3  4  1  0
  4  8  1  0
  4  5  2  0
  6  2  1  0
  7  6  2  0
 10  9  1  1
 10 12  1  0
 11 10  1  0
 12 13  1  6
 13  6  1  0
 14 12  1  0
 14 15  2  0
 16 17  1  0
 17 18  2  0
 19 17  1  0
 19 20  1  0
 21 20  1  1
 21 22  1  0
 22 14  1  0
 23 21  1  0
 24 23  1  0
 25 23  2  0
M  END
$$$$
