DTQ.pdb
     RDKit          3D

 25 24  0  0  1  0  0  0  0  0999 V2000
    8.6863  -17.3137   17.5589 N   0  0  0  0  0  0  0  0  0  0  0  0
   10.1384  -17.2095   17.8975 C   0  0  1  0  0  0  0  0  0  0  0  0
   10.8448  -16.5999   16.7308 C   0  0  0  0  0  0  0  0  0  0  0  0
   10.9294  -17.5423   15.6084 C   0  0  0  0  0  0  0  0  0  0  0  0
   11.0499  -18.7841   15.8742 O   0  0  0  0  0  0  0  0  0  0  0  0
   10.2385  -16.2854   19.0581 C   0  0  0  0  0  0  0  0  0  0  0  0
   11.3531  -15.9681   19.5212 O   0  0  0  0  0  0  0  0  0  0  0  0
   10.8922  -17.2014   14.2827 O   0  0  0  0  0  0  0  0  0  0  0  0
    8.2025  -13.0260   19.6771 C   0  0  0  0  0  0  0  0  0  0  0  0
    7.9651  -13.9850   20.8162 C   0  0  1  0  0  0  0  0  0  0  0  0
    6.7665  -14.6845   20.7013 O   0  0  0  0  0  0  0  0  0  0  0  0
    9.1018  -15.0105   20.8874 C   0  0  2  0  0  0  0  0  0  0  0  0
    9.0510  -15.7643   19.6380 N   0  0  0  0  0  0  0  0  0  0  0  0
    8.9276  -15.8650   22.0628 C   0  0  0  0  0  0  0  0  0  0  0  0
    8.2335  -16.8980   22.0001 O   0  0  0  0  0  0  0  0  0  0  0  0
   11.3171  -20.0860   23.8225 N   0  0  0  0  0  0  0  0  0  0  0  0
   12.1816  -18.9459   23.8943 C   0  0  0  0  0  0  0  0  0  0  0  0
   13.3977  -19.1535   23.7794 O   0  0  0  0  0  0  0  0  0  0  0  0
   11.5263  -17.6427   24.1008 C   0  0  0  0  0  0  0  0  0  0  0  0
   10.0440  -17.7182   24.1659 C   0  0  0  0  0  0  0  0  0  0  0  0
    9.3988  -16.3850   24.4636 C   0  0  2  0  0  0  0  0  0  0  0  0
    9.5583  -15.5067   23.2843 N   0  0  0  0  0  0  0  0  0  0  0  0
   10.0056  -15.7233   25.6276 C   0  0  0  0  0  0  0  0  0  0  0  0
    9.8971  -16.1395   26.9267 O   0  0  0  0  0  0  0  0  0  0  0  0
   10.7024  -14.6620   25.4458 O   0  0  0  0  0  0  0  0  0  0  0  0
  2  3  1  0
  2  1  1  6
  3  4  1  0
  4  8  1  0
  4  5  2  0
  6  2  1  0
  7  6  2  0
 10  9  1  6
 10 12  1  0
 11 10  1  0
 12 13  1  6
 13  6  1  0
 14 12  1  0
 14 15  2  0
 16 17  1  0
 17 18  2  0
 19 17  1  0
 19 20  1  0
 21 20  1  6
 21 22  1  0
 22 14  1  0
 23 21  1  0
 24 23  1  0
 25 23  2  0
M  END
$$$$
