DTQ.pdb
     RDKit          3D

 25 24  0  0  1  0  0  0  0  0999 V2000
   11.8787  -14.0575   17.2384 N   0  0  0  0  0  0  0  0  0  0  0  0
   11.8995  -14.9873   18.4085 C   0  0  1  0  0  0  0  0  0  0  0  0
   13.3168  -15.1398   18.8554 C   0  0  0  0  0  0  0  0  0  0  0  0
   14.1207  -15.8391   17.8457 C   0  0  0  0  0  0  0  0  0  0  0  0
   13.5084  -16.4857   16.9323 O   0  0  0  0  0  0  0  0  0  0  0  0
   11.1216  -14.3265   19.4898 C   0  0  0  0  0  0  0  0  0  0  0  0
   11.2596  -13.1068   19.7151 O   0  0  0  0  0  0  0  0  0  0  0  0
   15.4891  -15.8612   17.7981 O   0  0  0  0  0  0  0  0  0  0  0  0
    7.9625  -13.2110   19.8765 C   0  0  0  0  0  0  0  0  0  0  0  0
    8.0411  -14.3190   20.8961 C   0  0  1  0  0  0  0  0  0  0  0  0
    7.6064  -15.5469   20.4037 O   0  0  0  0  0  0  0  0  0  0  0  0
    9.4860  -14.4913   21.3769 C   0  0  2  0  0  0  0  0  0  0  0  0
   10.2165  -15.0972   20.2674 N   0  0  0  0  0  0  0  0  0  0  0  0
    9.5133  -15.3205   22.5827 C   0  0  0  0  0  0  0  0  0  0  0  0
    9.7445  -16.5427   22.5082 O   0  0  0  0  0  0  0  0  0  0  0  0
    9.2236  -13.1076   28.5113 N   0  0  0  0  0  0  0  0  0  0  0  0
    9.5103  -14.4917   28.7449 C   0  0  0  0  0  0  0  0  0  0  0  0
    9.7177  -14.8335   29.9176 O   0  0  0  0  0  0  0  0  0  0  0  0
    9.5298  -15.3630   27.5570 C   0  0  0  0  0  0  0  0  0  0  0  0
    9.4340  -14.6275   26.2698 C   0  0  0  0  0  0  0  0  0  0  0  0
    9.3779  -15.5444   25.0703 C   0  0  2  0  0  0  0  0  0  0  0  0
    9.2720  -14.7195   23.8472 N   0  0  0  0  0  0  0  0  0  0  0  0
    8.2262  -16.4561   25.1232 C   0  0  0  0  0  0  0  0  0  0  0  0
    8.2142  -17.6911   25.7126 O   0  0  0  0  0  0  0  0  0  0  0  0
    7.1222  -16.0950   24.5793 O   0  0  0  0  0  0  0  0  0  0  0  0
  2  3  1  0
  2  1  1  6
  3  4  1  0
  4  8  1  0
  4  5  2  0
  6  2  1  0
  7  6  2  0
 10  9  1  6
 10 12  1  0
 11 10  1  0
 12 13  1  6
 13  6  1  0
 14 12  1  0
 14 15  2  0
 16 17  1  0
 17 18  2  0
 19 17  1  0
 19 20  1  0
 21 20  1  1
 21 22  1  0
 22 14  1  0
 23 21  1  0
 24 23  1  0
 25 23  2  0
M  END
$$$$
