ITY.pdb
     RDKit          3D

 28 28  0  0  1  0  0  0  0  0999 V2000
   27.5577  -14.5128  -16.2136 C   0  0  0  0  0  0  0  0  0  0  0  0
   26.9956  -15.8856  -16.6287 C   0  0  0  0  0  0  0  0  0  0  0  0
   26.4162  -16.5233  -15.3942 C   0  0  2  0  0  0  0  0  0  0  0  0
   27.4322  -16.5588  -14.2681 C   0  0  0  0  0  0  0  0  0  0  0  0
   25.7187  -17.7963  -15.6065 C   0  0  2  0  0  0  0  0  0  0  0  0
   24.7182  -17.7660  -16.6851 N   0  0  0  0  0  0  0  0  0  0  0  0
   25.2763  -18.5956  -14.4686 C   0  0  0  0  0  0  0  0  0  0  0  0
   24.1901  -18.2325  -13.8780 O   0  0  0  0  0  0  0  0  0  0  0  0
   24.8877  -22.8679  -12.1660 C   0  0  0  0  0  0  0  0  0  0  0  0
   25.4375  -21.9509  -13.2274 C   0  0  1  0  0  0  0  0  0  0  0  0
   24.6118  -22.0840  -14.3658 O   0  0  0  0  0  0  0  0  0  0  0  0
   25.3416  -20.4936  -12.8169 C   0  0  2  0  0  0  0  0  0  0  0  0
   25.8915  -19.7224  -13.9220 N   0  0  0  0  0  0  0  0  0  0  0  0
   26.1746  -20.3499  -11.5948 C   0  0  0  0  0  0  0  0  0  0  0  0
   27.4243  -20.3311  -11.7002 O   0  0  0  0  0  0  0  0  0  0  0  0
   29.4231  -19.2905   -3.4820 O   0  0  0  0  0  0  0  0  0  0  0  0
   28.7003  -19.2327   -4.6768 C   0  0  0  0  0  0  0  0  0  0  0  0
   28.7574  -18.1451   -5.5110 C   0  0  0  0  0  0  0  0  0  0  0  0
   28.0334  -18.1191   -6.6805 C   0  0  0  0  0  0  0  0  0  0  0  0
   27.2173  -19.1756   -7.0747 C   0  0  0  0  0  0  0  0  0  0  0  0
   26.4472  -19.1268   -8.3122 C   0  0  0  0  0  0  0  0  0  0  0  0
   26.3275  -20.4020   -9.0739 C   0  0  2  0  0  0  0  0  0  0  0  0
   25.5815  -20.2337  -10.3108 N   0  0  0  0  0  0  0  0  0  0  0  0
   25.7905  -21.4653   -8.2327 C   0  0  0  0  0  0  0  0  0  0  0  0
   24.4231  -21.7363   -8.1095 O   0  0  0  0  0  0  0  0  0  0  0  0
   27.1748  -20.2679   -6.2139 C   0  0  0  0  0  0  0  0  0  0  0  0
   27.8988  -20.2924   -5.0461 C   0  0  0  0  0  0  0  0  0  0  0  0
   26.5614  -22.1964   -7.5699 O   0  0  0  0  0  0  0  0  0  0  0  0
  1  2  1  0
  2  3  1  0
  3  4  1  1
  5  3  1  0
  5  7  1  0
  5  6  1  6
  7  8  2  0
 10 12  1  0
 10  9  1  1
 11 10  1  0
 12 14  1  0
 13  7  1  0
 12 13  1  6
 14 15  2  0
 16 17  1  0
 17 18  2  0
 18 19  1  0
 20 19  2  0
 20 21  1  0
 22 21  1  1
 22 24  1  0
 23 22  1  0
 23 14  1  0
 24 28  2  0
 24 25  1  0
 26 20  1  0
 27 17  1  0
 27 26  2  0
M  END
$$$$
