ITY.pdb
     RDKit          3D

 28 28  0  0  1  0  0  0  0  0999 V2000
   24.9737  -21.4301  -22.5908 C   0  0  0  0  0  0  0  0  0  0  0  0
   24.8081  -19.9354  -22.2572 C   0  0  0  0  0  0  0  0  0  0  0  0
   24.7532  -19.8155  -20.7575 C   0  0  2  0  0  0  0  0  0  0  0  0
   23.7572  -20.7952  -20.1660 C   0  0  0  0  0  0  0  0  0  0  0  0
   24.6267  -18.4504  -20.2352 C   0  0  2  0  0  0  0  0  0  0  0  0
   25.6665  -17.5226  -20.7079 N   0  0  0  0  0  0  0  0  0  0  0  0
   24.2824  -18.2234  -18.8355 C   0  0  0  0  0  0  0  0  0  0  0  0
   25.1884  -18.4777  -17.9552 O   0  0  0  0  0  0  0  0  0  0  0  0
   21.6343  -15.9865  -15.3582 C   0  0  0  0  0  0  0  0  0  0  0  0
   22.0924  -16.2425  -16.7704 C   0  0  1  0  0  0  0  0  0  0  0  0
   23.0455  -15.2497  -17.0890 O   0  0  0  0  0  0  0  0  0  0  0  0
   22.8207  -17.5675  -16.8943 C   0  0  2  0  0  0  0  0  0  0  0  0
   23.0730  -17.7621  -18.3145 N   0  0  0  0  0  0  0  0  0  0  0  0
   21.8940  -18.6025  -16.3667 C   0  0  0  0  0  0  0  0  0  0  0  0
   20.9109  -18.9591  -17.0591 O   0  0  0  0  0  0  0  0  0  0  0  0
   18.6043  -24.7498  -10.7177 O   0  0  0  0  0  0  0  0  0  0  0  0
   19.3591  -23.7508  -11.3388 C   0  0  0  0  0  0  0  0  0  0  0  0
   20.1448  -24.0060  -12.4340 C   0  0  0  0  0  0  0  0  0  0  0  0
   20.8761  -23.0005  -13.0227 C   0  0  0  0  0  0  0  0  0  0  0  0
   20.8599  -21.6920  -12.5478 C   0  0  0  0  0  0  0  0  0  0  0  0
   21.6505  -20.6402  -13.1767 C   0  0  0  0  0  0  0  0  0  0  0  0
   21.1962  -20.1760  -14.5178 C   0  0  2  0  0  0  0  0  0  0  0  0
   22.1015  -19.1943  -15.0937 N   0  0  0  0  0  0  0  0  0  0  0  0
   19.8157  -19.7086  -14.4697 C   0  0  0  0  0  0  0  0  0  0  0  0
   19.4377  -18.4701  -13.9390 O   0  0  0  0  0  0  0  0  0  0  0  0
   20.0562  -21.4560  -11.4368 C   0  0  0  0  0  0  0  0  0  0  0  0
   19.3261  -22.4617  -10.8502 C   0  0  0  0  0  0  0  0  0  0  0  0
   18.8907  -20.4246  -14.9169 O   0  0  0  0  0  0  0  0  0  0  0  0
  1  2  1  0
  2  3  1  0
  3  4  1  6
  5  3  1  0
  5  7  1  0
  5  6  1  1
  7  8  2  0
 10 12  1  0
 10  9  1  1
 11 10  1  0
 12 14  1  0
 13  7  1  0
 12 13  1  6
 14 15  2  0
 16 17  1  0
 17 18  2  0
 18 19  1  0
 20 19  2  0
 20 21  1  0
 22 21  1  1
 22 24  1  0
 23 22  1  0
 23 14  1  0
 24 28  2  0
 24 25  1  0
 26 20  1  0
 27 17  1  0
 27 26  2  0
M  END
$$$$
