ITY.pdb
     RDKit          3D

 28 28  0  0  1  0  0  0  0  0999 V2000
   26.9756  -20.1993   -3.5654 C   0  0  0  0  0  0  0  0  0  0  0  0
   28.0149  -19.8618   -4.6510 C   0  0  0  0  0  0  0  0  0  0  0  0
   27.3044  -19.9008   -5.9777 C   0  0  2  0  0  0  0  0  0  0  0  0
   26.4527  -21.1498   -6.1061 C   0  0  0  0  0  0  0  0  0  0  0  0
   28.1399  -19.6273   -7.1522 C   0  0  2  0  0  0  0  0  0  0  0  0
   29.0900  -18.5178   -6.9742 N   0  0  0  0  0  0  0  0  0  0  0  0
   27.5611  -19.6459   -8.4916 C   0  0  0  0  0  0  0  0  0  0  0  0
   27.0102  -18.5597   -8.9126 O   0  0  0  0  0  0  0  0  0  0  0  0
   29.5634  -21.0907  -11.3840 C   0  0  0  0  0  0  0  0  0  0  0  0
   28.1222  -21.4946  -11.5560 C   0  0  1  0  0  0  0  0  0  0  0  0
   27.9686  -22.7660  -10.9598 O   0  0  0  0  0  0  0  0  0  0  0  0
   27.1848  -20.5702  -10.8023 C   0  0  2  0  0  0  0  0  0  0  0  0
   27.5211  -20.7102   -9.3931 N   0  0  0  0  0  0  0  0  0  0  0  0
   25.8087  -21.0588  -11.0771 C   0  0  0  0  0  0  0  0  0  0  0  0
   25.3127  -21.9469  -10.3434 O   0  0  0  0  0  0  0  0  0  0  0  0
   19.9949  -23.2587   -7.7111 O   0  0  0  0  0  0  0  0  0  0  0  0
   20.6301  -22.5418   -8.7291 C   0  0  0  0  0  0  0  0  0  0  0  0
   20.1611  -22.5365  -10.0183 C   0  0  0  0  0  0  0  0  0  0  0  0
   20.8094  -21.8205  -10.9978 C   0  0  0  0  0  0  0  0  0  0  0  0
   21.9567  -21.0757  -10.7397 C   0  0  0  0  0  0  0  0  0  0  0  0
   22.6386  -20.3316  -11.7926 C   0  0  0  0  0  0  0  0  0  0  0  0
   23.7305  -21.0451  -12.5132 C   0  0  2  0  0  0  0  0  0  0  0  0
   25.0458  -20.5387  -12.1549 N   0  0  0  0  0  0  0  0  0  0  0  0
   23.4980  -21.0393  -13.9528 C   0  0  0  0  0  0  0  0  0  0  0  0
   24.3583  -20.4275  -14.8715 O   0  0  0  0  0  0  0  0  0  0  0  0
   22.4143  -21.0953   -9.4259 C   0  0  0  0  0  0  0  0  0  0  0  0
   21.7652  -21.8109   -8.4486 C   0  0  0  0  0  0  0  0  0  0  0  0
   22.4862  -21.6009  -14.4313 O   0  0  0  0  0  0  0  0  0  0  0  0
  1  2  1  0
  2  3  1  0
  3  4  1  6
  5  3  1  0
  5  7  1  0
  5  6  1  1
  7  8  2  0
 10 12  1  0
 10  9  1  1
 11 10  1  0
 12 14  1  0
 13  7  1  0
 12 13  1  1
 14 15  2  0
 16 17  1  0
 17 18  2  0
 18 19  1  0
 20 19  2  0
 20 21  1  0
 22 21  1  1
 22 24  1  0
 23 22  1  0
 23 14  1  0
 24 28  2  0
 24 25  1  0
 26 20  1  0
 27 17  1  0
 27 26  2  0
M  END
$$$$
