ITY.pdb
     RDKit          3D

 28 28  0  0  1  0  0  0  0  0999 V2000
   27.9286  -28.3293  -20.1340 C   0  0  0  0  0  0  0  0  0  0  0  0
   28.9563  -27.5050  -19.3359 C   0  0  0  0  0  0  0  0  0  0  0  0
   28.2059  -26.7932  -18.2420 C   0  0  2  0  0  0  0  0  0  0  0  0
   26.9933  -26.0668  -18.7931 C   0  0  0  0  0  0  0  0  0  0  0  0
   29.0255  -25.9803  -17.3366 C   0  0  2  0  0  0  0  0  0  0  0  0
   29.9107  -26.7600  -16.4569 N   0  0  0  0  0  0  0  0  0  0  0  0
   28.4501  -24.8260  -16.6542 C   0  0  0  0  0  0  0  0  0  0  0  0
   28.0833  -24.9858  -15.4293 O   0  0  0  0  0  0  0  0  0  0  0  0
   27.5200  -19.9426  -16.4695 C   0  0  0  0  0  0  0  0  0  0  0  0
   28.0373  -21.1765  -17.1621 C   0  0  1  0  0  0  0  0  0  0  0  0
   29.4476  -21.0959  -17.1651 O   0  0  0  0  0  0  0  0  0  0  0  0
   27.6984  -22.4384  -16.3912 C   0  0  2  0  0  0  0  0  0  0  0  0
   28.2361  -23.5461  -17.1672 N   0  0  0  0  0  0  0  0  0  0  0  0
   26.2152  -22.4994  -16.3244 C   0  0  0  0  0  0  0  0  0  0  0  0
   25.5556  -22.6203  -17.3844 O   0  0  0  0  0  0  0  0  0  0  0  0
   18.0323  -22.9572  -12.7165 O   0  0  0  0  0  0  0  0  0  0  0  0
   19.4114  -22.8497  -12.9163 C   0  0  0  0  0  0  0  0  0  0  0  0
   20.0681  -21.6481  -12.8334 C   0  0  0  0  0  0  0  0  0  0  0  0
   21.4269  -21.5756  -13.0357 C   0  0  0  0  0  0  0  0  0  0  0  0
   22.1966  -22.6973  -13.3307 C   0  0  0  0  0  0  0  0  0  0  0  0
   23.6347  -22.6011  -13.5539 C   0  0  0  0  0  0  0  0  0  0  0  0
   24.0830  -22.4803  -14.9699 C   0  0  2  0  0  0  0  0  0  0  0  0
   25.5317  -22.4232  -15.0830 N   0  0  0  0  0  0  0  0  0  0  0  0
   23.4220  -21.3631  -15.6343 C   0  0  0  0  0  0  0  0  0  0  0  0
   22.2733  -21.5028  -16.4213 O   0  0  0  0  0  0  0  0  0  0  0  0
   21.5101  -23.9050  -13.4096 C   0  0  0  0  0  0  0  0  0  0  0  0
   20.1527  -23.9755  -13.2071 C   0  0  0  0  0  0  0  0  0  0  0  0
   23.8758  -20.2016  -15.5189 O   0  0  0  0  0  0  0  0  0  0  0  0
  1  2  1  0
  2  3  1  0
  3  4  1  6
  5  3  1  0
  5  7  1  0
  5  6  1  1
  7  8  2  0
 10 12  1  0
 10  9  1  1
 11 10  1  0
 12 14  1  0
 13  7  1  0
 12 13  1  6
 14 15  2  0
 16 17  1  0
 17 18  2  0
 18 19  1  0
 20 19  2  0
 20 21  1  0
 22 21  1  1
 22 24  1  0
 23 22  1  0
 23 14  1  0
 24 28  2  0
 24 25  1  0
 26 20  1  0
 27 17  1  0
 27 26  2  0
M  END
$$$$
