ITY.pdb
     RDKit          3D

 28 28  0  0  1  0  0  0  0  0999 V2000
   21.5918  -15.2261  -17.5136 C   0  0  0  0  0  0  0  0  0  0  0  0
   21.1614  -16.6544  -17.8976 C   0  0  0  0  0  0  0  0  0  0  0  0
   21.1494  -17.4726  -16.6339 C   0  0  2  0  0  0  0  0  0  0  0  0
   20.5198  -16.7020  -15.4887 C   0  0  0  0  0  0  0  0  0  0  0  0
   22.4184  -18.1219  -16.2873 C   0  0  2  0  0  0  0  0  0  0  0  0
   23.0889  -18.7829  -17.4181 N   0  0  0  0  0  0  0  0  0  0  0  0
   22.5443  -18.8860  -15.0506 C   0  0  0  0  0  0  0  0  0  0  0  0
   21.6208  -18.7334  -14.1649 O   0  0  0  0  0  0  0  0  0  0  0  0
   22.4158  -22.4869  -14.6157 C   0  0  0  0  0  0  0  0  0  0  0  0
   23.6611  -22.0184  -13.9092 C   0  0  1  0  0  0  0  0  0  0  0  0
   24.7157  -22.0557  -14.8484 O   0  0  0  0  0  0  0  0  0  0  0  0
   23.5493  -20.5698  -13.4727 C   0  0  2  0  0  0  0  0  0  0  0  0
   23.5580  -19.7753  -14.6921 N   0  0  0  0  0  0  0  0  0  0  0  0
   24.7495  -20.2918  -12.6419 C   0  0  0  0  0  0  0  0  0  0  0  0
   25.7943  -19.8684  -13.1918 O   0  0  0  0  0  0  0  0  0  0  0  0
   29.6860  -18.8887   -5.3080 O   0  0  0  0  0  0  0  0  0  0  0  0
   28.6571  -19.1822   -6.2072 C   0  0  0  0  0  0  0  0  0  0  0  0
   27.8047  -18.2165   -6.6794 C   0  0  0  0  0  0  0  0  0  0  0  0
   26.8014  -18.5379   -7.5640 C   0  0  0  0  0  0  0  0  0  0  0  0
   26.5991  -19.8373   -8.0204 C   0  0  0  0  0  0  0  0  0  0  0  0
   25.5230  -20.1629   -8.9494 C   0  0  0  0  0  0  0  0  0  0  0  0
   25.8928  -20.2631  -10.3895 C   0  0  2  0  0  0  0  0  0  0  0  0
   24.7349  -20.4968  -11.2377 N   0  0  0  0  0  0  0  0  0  0  0  0
   26.9470  -21.2503  -10.5914 C   0  0  0  0  0  0  0  0  0  0  0  0
   28.3048  -20.9232  -10.6787 O   0  0  0  0  0  0  0  0  0  0  0  0
   27.4751  -20.8001   -7.5288 C   0  0  0  0  0  0  0  0  0  0  0  0
   28.4769  -20.4773   -6.6453 C   0  0  0  0  0  0  0  0  0  0  0  0
   26.6626  -22.4653  -10.6969 O   0  0  0  0  0  0  0  0  0  0  0  0
  1  2  1  0
  2  3  1  0
  3  4  1  1
  5  3  1  0
  5  7  1  0
  5  6  1  6
  7  8  2  0
 10 12  1  0
 10  9  1  6
 11 10  1  0
 12 14  1  0
 13  7  1  0
 12 13  1  6
 14 15  2  0
 16 17  1  0
 17 18  2  0
 18 19  1  0
 20 19  2  0
 20 21  1  0
 22 21  1  1
 22 24  1  0
 23 22  1  0
 23 14  1  0
 24 28  2  0
 24 25  1  0
 26 20  1  0
 27 17  1  0
 27 26  2  0
M  END
$$$$
