ITY.pdb
     RDKit          3D

 28 28  0  0  1  0  0  0  0  0999 V2000
   19.6288  -14.9664  -21.8440 C   0  0  0  0  0  0  0  0  0  0  0  0
   20.0326  -15.1248  -20.3660 C   0  0  0  0  0  0  0  0  0  0  0  0
   20.2996  -16.5875  -20.1298 C   0  0  2  0  0  0  0  0  0  0  0  0
   19.1777  -17.4453  -20.6841 C   0  0  0  0  0  0  0  0  0  0  0  0
   20.7039  -16.9456  -18.7658 C   0  0  2  0  0  0  0  0  0  0  0  0
   21.9265  -16.2719  -18.3002 N   0  0  0  0  0  0  0  0  0  0  0  0
   20.6335  -18.3312  -18.3136 C   0  0  0  0  0  0  0  0  0  0  0  0
   19.7762  -19.0991  -18.8931 O   0  0  0  0  0  0  0  0  0  0  0  0
   23.2680  -20.8767  -18.5314 C   0  0  0  0  0  0  0  0  0  0  0  0
   22.7701  -20.8675  -17.1095 C   0  0  1  0  0  0  0  0  0  0  0  0
   23.5500  -19.9290  -16.3978 O   0  0  0  0  0  0  0  0  0  0  0  0
   21.3402  -20.3694  -17.0171 C   0  0  2  0  0  0  0  0  0  0  0  0
   21.3855  -18.9447  -17.3111 N   0  0  0  0  0  0  0  0  0  0  0  0
   20.9035  -20.6155  -15.6182 C   0  0  0  0  0  0  0  0  0  0  0  0
   21.0670  -19.7197  -14.7556 O   0  0  0  0  0  0  0  0  0  0  0  0
   17.0455  -24.8187   -8.6969 O   0  0  0  0  0  0  0  0  0  0  0  0
   17.4810  -24.4122   -9.9612 C   0  0  0  0  0  0  0  0  0  0  0  0
   16.8392  -23.4298  -10.6718 C   0  0  0  0  0  0  0  0  0  0  0  0
   17.2929  -23.0524  -11.9145 C   0  0  0  0  0  0  0  0  0  0  0  0
   18.4081  -23.6361  -12.5089 C   0  0  0  0  0  0  0  0  0  0  0  0
   18.8689  -23.2322  -13.8324 C   0  0  0  0  0  0  0  0  0  0  0  0
   19.8769  -22.1359  -13.8816 C   0  0  2  0  0  0  0  0  0  0  0  0
   20.3051  -21.8457  -15.2407 N   0  0  0  0  0  0  0  0  0  0  0  0
   20.9943  -22.4120  -12.9861 C   0  0  0  0  0  0  0  0  0  0  0  0
   21.0662  -21.9367  -11.6718 O   0  0  0  0  0  0  0  0  0  0  0  0
   19.0434  -24.6297  -11.7705 C   0  0  0  0  0  0  0  0  0  0  0  0
   18.5888  -25.0053  -10.5292 C   0  0  0  0  0  0  0  0  0  0  0  0
   21.9597  -23.1074  -13.3767 O   0  0  0  0  0  0  0  0  0  0  0  0
  1  2  1  0
  2  3  1  0
  3  4  1  1
  5  3  1  0
  5  7  1  0
  5  6  1  6
  7  8  2  0
 10 12  1  0
 10  9  1  6
 11 10  1  0
 12 14  1  0
 13  7  1  0
 12 13  1  1
 14 15  2  0
 16 17  1  0
 17 18  2  0
 18 19  1  0
 20 19  2  0
 20 21  1  0
 22 21  1  6
 22 24  1  0
 23 22  1  0
 23 14  1  0
 24 28  2  0
 24 25  1  0
 26 20  1  0
 27 17  1  0
 27 26  2  0
M  END
$$$$
