ITY.pdb
     RDKit          3D

 28 28  0  0  1  0  0  0  0  0999 V2000
   17.5886  -17.0400  -16.7805 C   0  0  0  0  0  0  0  0  0  0  0  0
   18.9520  -16.4956  -17.2468 C   0  0  0  0  0  0  0  0  0  0  0  0
   19.2248  -15.2408  -16.4609 C   0  0  2  0  0  0  0  0  0  0  0  0
   18.5652  -14.0365  -17.1061 C   0  0  0  0  0  0  0  0  0  0  0  0
   20.6254  -15.0210  -16.0840 C   0  0  2  0  0  0  0  0  0  0  0  0
   21.2723  -16.1831  -15.4543 N   0  0  0  0  0  0  0  0  0  0  0  0
   21.0371  -13.7629  -15.4700 C   0  0  0  0  0  0  0  0  0  0  0  0
   20.8250  -13.6246  -14.2066 O   0  0  0  0  0  0  0  0  0  0  0  0
   24.2531  -12.0427  -14.7483 C   0  0  0  0  0  0  0  0  0  0  0  0
   23.4044  -11.1450  -15.6105 C   0  0  1  0  0  0  0  0  0  0  0  0
   23.6746  -11.4780  -16.9565 O   0  0  0  0  0  0  0  0  0  0  0  0
   21.9238  -11.4081  -15.4103 C   0  0  2  0  0  0  0  0  0  0  0  0
   21.6386  -12.6651  -16.0864 N   0  0  0  0  0  0  0  0  0  0  0  0
   21.2091  -10.2767  -16.0562 C   0  0  0  0  0  0  0  0  0  0  0  0
   20.9435  -10.3349  -17.2807 O   0  0  0  0  0  0  0  0  0  0  0  0
   15.6300   -3.5203  -17.2630 O   0  0  0  0  0  0  0  0  0  0  0  0
   16.4015   -4.5929  -16.8074 C   0  0  0  0  0  0  0  0  0  0  0  0
   17.0625   -5.4323  -17.6681 C   0  0  0  0  0  0  0  0  0  0  0  0
   17.8140   -6.4797  -17.1878 C   0  0  0  0  0  0  0  0  0  0  0  0
   17.9426   -6.7413  -15.8267 C   0  0  0  0  0  0  0  0  0  0  0  0
   18.7339   -7.8633  -15.3348 C   0  0  0  0  0  0  0  0  0  0  0  0
   20.1055   -8.0099  -15.8985 C   0  0  2  0  0  0  0  0  0  0  0  0
   20.8219   -9.1316  -15.3126 N   0  0  0  0  0  0  0  0  0  0  0  0
   20.8465   -6.7574  -15.8039 C   0  0  0  0  0  0  0  0  0  0  0  0
   20.9100   -5.8176  -16.8389 O   0  0  0  0  0  0  0  0  0  0  0  0
   17.2642   -5.8776  -14.9725 C   0  0  0  0  0  0  0  0  0  0  0  0
   16.5141   -4.8316  -15.4539 C   0  0  0  0  0  0  0  0  0  0  0  0
   21.4721   -6.4713  -14.7575 O   0  0  0  0  0  0  0  0  0  0  0  0
  1  2  1  0
  2  3  1  0
  3  4  1  6
  5  3  1  0
  5  7  1  0
  5  6  1  1
  7  8  2  0
 10 12  1  0
 10  9  1  1
 11 10  1  0
 12 14  1  0
 13  7  1  0
 12 13  1  6
 14 15  2  0
 16 17  1  0
 17 18  2  0
 18 19  1  0
 20 19  2  0
 20 21  1  0
 22 21  1  1
 22 24  1  0
 23 22  1  0
 23 14  1  0
 24 28  2  0
 24 25  1  0
 26 20  1  0
 27 17  1  0
 27 26  2  0
M  END
$$$$
