VTL.pdb
     RDKit          3D

 23 22  0  0  1  0  0  0  0  0999 V2000
   12.5400  -12.4128  -10.5025 C   0  0  0  0  0  0  0  0  0  0  0  0
   12.6306  -12.1802  -11.9980 C   0  0  2  0  0  0  0  0  0  0  0  0
   11.6282  -13.0940  -12.6552 C   0  0  0  0  0  0  0  0  0  0  0  0
   14.0445  -12.4500  -12.4196 C   0  0  2  0  0  0  0  0  0  0  0  0
   14.3111  -13.8560  -12.1944 N   0  0  0  0  0  0  0  0  0  0  0  0
   15.0413  -11.6161  -11.7615 C   0  0  0  0  0  0  0  0  0  0  0  0
   15.6711  -11.9305  -10.7197 O   0  0  0  0  0  0  0  0  0  0  0  0
   18.2783  -10.5733  -12.8683 C   0  0  0  0  0  0  0  0  0  0  0  0
   17.5243   -9.2873  -12.6555 C   0  0  1  0  0  0  0  0  0  0  0  0
   17.0933   -8.8289  -13.8977 O   0  0  0  0  0  0  0  0  0  0  0  0
   16.3443   -9.4904  -11.7127 C   0  0  2  0  0  0  0  0  0  0  0  0
   15.3436  -10.3432  -12.3208 N   0  0  0  0  0  0  0  0  0  0  0  0
   15.7371   -8.1857  -11.3504 C   0  0  0  0  0  0  0  0  0  0  0  0
   14.7509   -7.7358  -11.9819 O   0  0  0  0  0  0  0  0  0  0  0  0
   13.3879   -6.1906   -8.1003 C   0  0  0  0  0  0  0  0  0  0  0  0
   14.7884   -6.6208   -7.6933 C   0  0  2  0  0  0  0  0  0  0  0  0
   14.8970   -6.2616   -6.2198 C   0  0  0  0  0  0  0  0  0  0  0  0
   15.7534   -5.8577   -8.5209 C   0  0  0  0  0  0  0  0  0  0  0  0
   15.7036   -6.1133   -9.9969 C   0  0  2  0  0  0  0  0  0  0  0  0
   16.2418   -7.4164  -10.2969 N   0  0  0  0  0  0  0  0  0  0  0  0
   16.2863   -5.0468  -10.8269 C   0  0  0  0  0  0  0  0  0  0  0  0
   17.3941   -5.0715  -11.3773 O   0  0  0  0  0  0  0  0  0  0  0  0
   15.5402   -3.8890  -11.0274 O   0  0  0  0  0  0  0  0  0  0  0  0
  2  1  1  1
  2  4  1  0
  2  3  1  0
  4  6  1  0
  4  5  1  1
  6  7  2  0
  9  8  1  6
  9 11  1  0
 10  9  1  0
 11 12  1  6
 12  6  1  0
 13 11  1  0
 13 20  1  0
 14 13  2  0
 16 15  1  6
 16 17  1  0
 18 16  1  0
 19 20  1  0
 19 18  1  1
 21 19  1  0
 22 21  2  0
 23 21  1  0
M  END
$$$$
