VTL.pdb
     RDKit          3D

 23 22  0  0  1  0  0  0  0  0999 V2000
   16.9593   -9.7653  -16.7726 C   0  0  0  0  0  0  0  0  0  0  0  0
   18.3626  -10.2564  -16.4756 C   0  0  2  0  0  0  0  0  0  0  0  0
   18.4539  -11.6774  -16.9698 C   0  0  0  0  0  0  0  0  0  0  0  0
   18.5915  -10.1264  -14.9991 C   0  0  2  0  0  0  0  0  0  0  0  0
   17.6347  -10.9819  -14.3275 N   0  0  0  0  0  0  0  0  0  0  0  0
   18.5190   -8.7620  -14.4938 C   0  0  0  0  0  0  0  0  0  0  0  0
   19.2760   -7.8214  -14.8445 O   0  0  0  0  0  0  0  0  0  0  0  0
   18.3366   -6.0498  -15.0593 C   0  0  0  0  0  0  0  0  0  0  0  0
   17.1833   -6.0879  -14.0919 C   0  0  1  0  0  0  0  0  0  0  0  0
   16.0303   -6.4015  -14.8069 O   0  0  0  0  0  0  0  0  0  0  0  0
   17.4278   -7.1047  -12.9834 C   0  0  2  0  0  0  0  0  0  0  0  0
   17.5235   -8.4435  -13.5283 N   0  0  0  0  0  0  0  0  0  0  0  0
   16.3379   -7.0502  -11.9777 C   0  0  0  0  0  0  0  0  0  0  0  0
   15.4265   -7.9120  -11.9670 O   0  0  0  0  0  0  0  0  0  0  0  0
   15.2364   -5.4220   -6.4312 C   0  0  0  0  0  0  0  0  0  0  0  0
   14.5746   -6.0405   -7.6524 C   0  0  2  0  0  0  0  0  0  0  0  0
   14.0502   -7.3859   -7.1760 C   0  0  0  0  0  0  0  0  0  0  0  0
   15.6125   -6.1914   -8.7005 C   0  0  0  0  0  0  0  0  0  0  0  0
   15.1735   -5.9207  -10.1077 C   0  0  2  0  0  0  0  0  0  0  0  0
   16.2902   -6.0400  -11.0114 N   0  0  0  0  0  0  0  0  0  0  0  0
   14.4205   -4.6693  -10.2883 C   0  0  0  0  0  0  0  0  0  0  0  0
   13.2124   -4.5059  -10.0772 O   0  0  0  0  0  0  0  0  0  0  0  0
   15.1101   -3.5472  -10.7387 O   0  0  0  0  0  0  0  0  0  0  0  0
  2  1  1  1
  2  4  1  0
  2  3  1  0
  4  6  1  0
  4  5  1  1
  6  7  2  0
  9  8  1  6
  9 11  1  0
 10  9  1  0
 11 12  1  6
 12  6  1  0
 13 11  1  0
 13 20  1  0
 14 13  2  0
 16 15  1  1
 16 17  1  0
 18 16  1  0
 19 20  1  0
 19 18  1  1
 21 19  1  0
 22 21  2  0
 23 21  1  0
M  END
$$$$
