VTL.pdb
     RDKit          3D

 23 22  0  0  1  0  0  0  0  0999 V2000
   19.9342  -19.2381  -17.9517 C   0  0  0  0  0  0  0  0  0  0  0  0
   18.9883  -18.6455  -16.9256 C   0  0  2  0  0  0  0  0  0  0  0  0
   18.3282  -17.4496  -17.5628 C   0  0  0  0  0  0  0  0  0  0  0  0
   19.7911  -18.3002  -15.7067 C   0  0  2  0  0  0  0  0  0  0  0  0
   20.5956  -17.1378  -16.0233 N   0  0  0  0  0  0  0  0  0  0  0  0
   20.6180  -19.3869  -15.1995 C   0  0  0  0  0  0  0  0  0  0  0  0
   20.1810  -20.4752  -14.7462 O   0  0  0  0  0  0  0  0  0  0  0  0
   22.8025  -21.8310  -16.6522 C   0  0  0  0  0  0  0  0  0  0  0  0
   23.6801  -20.9270  -15.8275 C   0  0  1  0  0  0  0  0  0  0  0  0
   24.2212  -19.9619  -16.6729 O   0  0  0  0  0  0  0  0  0  0  0  0
   22.8924  -20.2773  -14.6961 C   0  0  2  0  0  0  0  0  0  0  0  0
   22.0322  -19.2295  -15.2067 N   0  0  0  0  0  0  0  0  0  0  0  0
   23.8130  -19.7167  -13.6762 C   0  0  0  0  0  0  0  0  0  0  0  0
   23.4281  -18.8280  -12.8788 O   0  0  0  0  0  0  0  0  0  0  0  0
   23.9622  -20.8424   -8.9407 C   0  0  0  0  0  0  0  0  0  0  0  0
   25.1805  -20.6486   -9.8296 C   0  0  2  0  0  0  0  0  0  0  0  0
   25.8995  -19.4395   -9.2525 C   0  0  0  0  0  0  0  0  0  0  0  0
   24.6976  -20.3982  -11.2090 C   0  0  0  0  0  0  0  0  0  0  0  0
   25.7407  -20.4078  -12.2852 C   0  0  2  0  0  0  0  0  0  0  0  0
   25.1359  -20.1584  -13.5697 N   0  0  0  0  0  0  0  0  0  0  0  0
   26.6168  -21.5902  -12.2835 C   0  0  0  0  0  0  0  0  0  0  0  0
   26.2667  -22.7601  -12.4824 O   0  0  0  0  0  0  0  0  0  0  0  0
   27.9738  -21.4016  -12.0370 O   0  0  0  0  0  0  0  0  0  0  0  0
  2  1  1  6
  2  4  1  0
  2  3  1  0
  4  6  1  0
  4  5  1  6
  6  7  2  0
  9  8  1  6
  9 11  1  0
 10  9  1  0
 11 12  1  6
 12  6  1  0
 13 11  1  0
 13 20  1  0
 14 13  2  0
 16 15  1  1
 16 17  1  0
 18 16  1  0
 19 20  1  0
 19 18  1  1
 21 19  1  0
 22 21  2  0
 23 21  1  0
M  END
$$$$
