VTL.pdb
     RDKit          3D

 23 22  0  0  1  0  0  0  0  0999 V2000
   14.0742  -14.2093  -17.6891 C   0  0  0  0  0  0  0  0  0  0  0  0
   14.9911  -15.2933  -17.1573 C   0  0  2  0  0  0  0  0  0  0  0  0
   14.1211  -16.3313  -16.4957 C   0  0  0  0  0  0  0  0  0  0  0  0
   15.9655  -14.6494  -16.2163 C   0  0  2  0  0  0  0  0  0  0  0  0
   15.2172  -14.1474  -15.0821 N   0  0  0  0  0  0  0  0  0  0  0  0
   16.7786  -13.5986  -16.8137 C   0  0  0  0  0  0  0  0  0  0  0  0
   17.6181  -13.7707  -17.7337 O   0  0  0  0  0  0  0  0  0  0  0  0
   15.8082  -10.6810  -18.7420 C   0  0  0  0  0  0  0  0  0  0  0  0
   16.5199  -10.1351  -17.5324 C   0  0  1  0  0  0  0  0  0  0  0  0
   15.5575   -9.6970  -16.6264 O   0  0  0  0  0  0  0  0  0  0  0  0
   17.4198  -11.1902  -16.9003 C   0  0  2  0  0  0  0  0  0  0  0  0
   16.6301  -12.2661  -16.3370 N   0  0  0  0  0  0  0  0  0  0  0  0
   18.2679  -10.5852  -15.8435 C   0  0  0  0  0  0  0  0  0  0  0  0
   17.9427  -10.6598  -14.6342 O   0  0  0  0  0  0  0  0  0  0  0  0
   23.1757   -8.3423  -14.5098 C   0  0  0  0  0  0  0  0  0  0  0  0
   22.5093   -9.5974  -13.9690 C   0  0  2  0  0  0  0  0  0  0  0  0
   23.6484  -10.5766  -13.7334 C   0  0  0  0  0  0  0  0  0  0  0  0
   21.5639  -10.0871  -15.0011 C   0  0  0  0  0  0  0  0  0  0  0  0
   20.2781   -9.3282  -15.1313 C   0  0  2  0  0  0  0  0  0  0  0  0
   19.4538   -9.9139  -16.1586 N   0  0  0  0  0  0  0  0  0  0  0  0
   20.4342   -7.8726  -15.2815 C   0  0  0  0  0  0  0  0  0  0  0  0
   20.6141   -7.2621  -16.3426 O   0  0  0  0  0  0  0  0  0  0  0  0
   20.3782   -7.0844  -14.1356 O   0  0  0  0  0  0  0  0  0  0  0  0
  2  1  1  1
  2  4  1  0
  2  3  1  0
  4  6  1  0
  4  5  1  1
  6  7  2  0
  9  8  1  6
  9 11  1  0
 10  9  1  0
 11 12  1  1
 12  6  1  0
 13 11  1  0
 13 20  1  0
 14 13  2  0
 16 15  1  6
 16 17  1  0
 18 16  1  0
 19 20  1  0
 19 18  1  6
 21 19  1  0
 22 21  2  0
 23 21  1  0
M  END
$$$$
