VTL.pdb
     RDKit          3D

 23 22  0  0  1  0  0  0  0  0999 V2000
   15.2633  -10.6947  -17.7228 C   0  0  0  0  0  0  0  0  0  0  0  0
   16.4193  -11.6032  -18.0929 C   0  0  2  0  0  0  0  0  0  0  0  0
   15.9222  -13.0228  -17.9959 C   0  0  0  0  0  0  0  0  0  0  0  0
   17.5535  -11.3070  -17.1573 C   0  0  2  0  0  0  0  0  0  0  0  0
   17.1290  -11.6703  -15.8207 N   0  0  0  0  0  0  0  0  0  0  0  0
   18.0287   -9.9306  -17.1998 C   0  0  0  0  0  0  0  0  0  0  0  0
   18.5748   -9.3860  -18.1927 O   0  0  0  0  0  0  0  0  0  0  0  0
   16.5914   -6.8620  -17.4930 C   0  0  0  0  0  0  0  0  0  0  0  0
   17.2627   -6.7534  -16.1494 C   0  0  1  0  0  0  0  0  0  0  0  0
   16.2970   -6.9548  -15.1667 O   0  0  0  0  0  0  0  0  0  0  0  0
   18.3932   -7.7666  -16.0152 C   0  0  2  0  0  0  0  0  0  0  0  0
   17.8746   -9.1190  -16.0412 N   0  0  0  0  0  0  0  0  0  0  0  0
   19.1455   -7.5430  -14.7558 C   0  0  0  0  0  0  0  0  0  0  0  0
   18.8374   -8.1524  -13.7035 O   0  0  0  0  0  0  0  0  0  0  0  0
   22.5090   -8.3628  -15.2128 C   0  0  0  0  0  0  0  0  0  0  0  0
   22.8615   -8.0970  -13.7578 C   0  0  2  0  0  0  0  0  0  0  0  0
   23.4361   -9.4088  -13.2469 C   0  0  0  0  0  0  0  0  0  0  0  0
   21.6115   -7.7283  -13.0506 C   0  0  0  0  0  0  0  0  0  0  0  0
   20.9631   -6.4475  -13.4811 C   0  0  2  0  0  0  0  0  0  0  0  0
   20.2195   -6.6487  -14.6996 N   0  0  0  0  0  0  0  0  0  0  0  0
   21.8692   -5.2897  -13.5465 C   0  0  0  0  0  0  0  0  0  0  0  0
   22.1726   -4.6552  -14.5644 O   0  0  0  0  0  0  0  0  0  0  0  0
   22.4539   -4.8460  -12.3638 O   0  0  0  0  0  0  0  0  0  0  0  0
  2  1  1  1
  2  4  1  0
  2  3  1  0
  4  6  1  0
  4  5  1  1
  6  7  2  0
  9  8  1  6
  9 11  1  0
 10  9  1  0
 11 12  1  1
 12  6  1  0
 13 11  1  0
 13 20  1  0
 14 13  2  0
 16 15  1  6
 16 17  1  0
 18 16  1  0
 19 20  1  0
 19 18  1  6
 21 19  1  0
 22 21  2  0
 23 21  1  0
M  END
$$$$
