VTL.pdb
     RDKit          3D

 23 22  0  0  1  0  0  0  0  0999 V2000
   27.1847  -16.8772  -17.9684 C   0  0  0  0  0  0  0  0  0  0  0  0
   28.3975  -17.1359  -17.0960 C   0  0  2  0  0  0  0  0  0  0  0  0
   29.5755  -17.3365  -18.0146 C   0  0  0  0  0  0  0  0  0  0  0  0
   28.1014  -18.3324  -16.2416 C   0  0  2  0  0  0  0  0  0  0  0  0
   27.6902  -19.4096  -17.1185 N   0  0  0  0  0  0  0  0  0  0  0  0
   27.1120  -18.1002  -15.1979 C   0  0  0  0  0  0  0  0  0  0  0  0
   26.3140  -17.1292  -15.1632 O   0  0  0  0  0  0  0  0  0  0  0  0
   24.4130  -17.8647  -14.7826 C   0  0  0  0  0  0  0  0  0  0  0  0
   24.5993  -18.9791  -13.7871 C   0  0  1  0  0  0  0  0  0  0  0  0
   24.4317  -20.1885  -14.4566 O   0  0  0  0  0  0  0  0  0  0  0  0
   25.9732  -18.9077  -13.1315 C   0  0  2  0  0  0  0  0  0  0  0  0
   27.0214  -19.0292  -14.1240 N   0  0  0  0  0  0  0  0  0  0  0  0
   26.1205  -19.9779  -12.1141 C   0  0  0  0  0  0  0  0  0  0  0  0
   26.5813  -21.1029  -12.4234 O   0  0  0  0  0  0  0  0  0  0  0  0
   28.6296  -20.5143   -8.3368 C   0  0  0  0  0  0  0  0  0  0  0  0
   27.4845  -19.5183   -8.4290 C   0  0  2  0  0  0  0  0  0  0  0  0
   27.5939  -18.6761   -7.1677 C   0  0  0  0  0  0  0  0  0  0  0  0
   26.2183  -20.2887   -8.4712 C   0  0  0  0  0  0  0  0  0  0  0  0
   25.8213  -20.8327   -9.8101 C   0  0  2  0  0  0  0  0  0  0  0  0
   25.7519  -19.7694  -10.7810 N   0  0  0  0  0  0  0  0  0  0  0  0
   24.6173  -21.6789   -9.7990 C   0  0  0  0  0  0  0  0  0  0  0  0
   23.5455  -21.4331  -10.3663 O   0  0  0  0  0  0  0  0  0  0  0  0
   24.6624  -22.8757   -9.0897 O   0  0  0  0  0  0  0  0  0  0  0  0
  2  1  1  6
  2  4  1  0
  2  3  1  0
  4  6  1  0
  4  5  1  6
  6  7  2  0
  9  8  1  6
  9 11  1  0
 10  9  1  0
 11 12  1  6
 12  6  1  0
 13 11  1  0
 13 20  1  0
 14 13  2  0
 16 15  1  1
 16 17  1  0
 18 16  1  0
 19 20  1  0
 19 18  1  1
 21 19  1  0
 22 21  2  0
 23 21  1  0
M  END
$$$$
