VTL.pdb
     RDKit          3D

 23 22  0  0  1  0  0  0  0  0999 V2000
   28.7151  -18.7537  -16.6261 C   0  0  0  0  0  0  0  0  0  0  0  0
   28.0371  -18.5120  -15.2917 C   0  0  2  0  0  0  0  0  0  0  0  0
   29.0348  -18.8514  -14.2142 C   0  0  0  0  0  0  0  0  0  0  0  0
   26.8015  -19.3607  -15.2443 C   0  0  2  0  0  0  0  0  0  0  0  0
   26.0212  -19.0703  -16.4298 N   0  0  0  0  0  0  0  0  0  0  0  0
   26.0015  -19.1971  -14.0379 C   0  0  0  0  0  0  0  0  0  0  0  0
   25.3458  -18.1662  -13.7411 O   0  0  0  0  0  0  0  0  0  0  0  0
   23.0166  -20.6786  -13.0821 C   0  0  0  0  0  0  0  0  0  0  0  0
   23.9361  -21.0690  -11.9553 C   0  0  1  0  0  0  0  0  0  0  0  0
   24.3189  -22.3936  -12.1496 O   0  0  0  0  0  0  0  0  0  0  0  0
   25.1543  -20.1551  -11.8970 C   0  0  2  0  0  0  0  0  0  0  0  0
   25.9410  -20.2722  -13.1077 N   0  0  0  0  0  0  0  0  0  0  0  0
   25.9955  -20.4839  -10.7195 C   0  0  0  0  0  0  0  0  0  0  0  0
   26.9331  -21.3126  -10.8079 O   0  0  0  0  0  0  0  0  0  0  0  0
   28.0331  -18.4457   -5.5104 C   0  0  0  0  0  0  0  0  0  0  0  0
   27.7200  -19.7354   -6.2524 C   0  0  2  0  0  0  0  0  0  0  0  0
   29.0527  -20.4593   -6.3615 C   0  0  0  0  0  0  0  0  0  0  0  0
   27.1786  -19.3703   -7.5837 C   0  0  0  0  0  0  0  0  0  0  0  0
   26.3562  -20.4176   -8.2713 C   0  0  2  0  0  0  0  0  0  0  0  0
   25.7724  -19.8834   -9.4762 N   0  0  0  0  0  0  0  0  0  0  0  0
   25.3740  -21.0942   -7.4090 C   0  0  0  0  0  0  0  0  0  0  0  0
   24.1444  -20.9670   -7.4618 O   0  0  0  0  0  0  0  0  0  0  0  0
   25.8477  -21.9657   -6.4326 O   0  0  0  0  0  0  0  0  0  0  0  0
  2  1  1  6
  2  4  1  0
  2  3  1  0
  4  6  1  0
  4  5  1  6
  6  7  2  0
  9  8  1  6
  9 11  1  0
 10  9  1  0
 11 12  1  6
 12  6  1  0
 13 11  1  0
 13 20  1  0
 14 13  2  0
 16 15  1  1
 16 17  1  0
 18 16  1  0
 19 20  1  0
 19 18  1  1
 21 19  1  0
 22 21  2  0
 23 21  1  0
M  END
$$$$
