LML.pdb
     RDKit          3D

 25 24  0  0  1  0  0  0  0  0999 V2000
    5.9518  -20.2721   27.5828 C   0  0  0  0  0  0  0  0  0  0  0  0
    7.1534  -20.9197   26.8917 C   0  0  2  0  0  0  0  0  0  0  0  0
    8.0617  -21.4361   27.9730 C   0  0  0  0  0  0  0  0  0  0  0  0
    7.8315  -19.9453   25.9658 C   0  0  0  0  0  0  0  0  0  0  0  0
    6.8680  -19.4226   24.9496 C   0  0  2  0  0  0  0  0  0  0  0  0
    6.7949  -20.3660   23.8499 N   0  0  0  0  0  0  0  0  0  0  0  0
    7.2525  -18.1080   24.4045 C   0  0  0  0  0  0  0  0  0  0  0  0
    7.9993  -18.0150   23.3821 O   0  0  0  0  0  0  0  0  0  0  0  0
    5.9567  -11.5088   26.9453 C   0  0  0  0  0  0  0  0  0  0  0  0
    5.6808  -11.8652   25.2107 S   0  0  0  0  0  0  0  0  0  0  0  0
    6.8381  -13.1381   24.5799 C   0  0  0  0  0  0  0  0  0  0  0  0
    6.4071  -14.5014   24.9800 C   0  0  0  0  0  0  0  0  0  0  0  0
    7.3452  -15.5718   24.4995 C   0  0  2  0  0  0  0  0  0  0  0  0
    6.8318  -16.8716   24.9619 N   0  0  0  0  0  0  0  0  0  0  0  0
    8.7476  -15.4015   24.9764 C   0  0  0  0  0  0  0  0  0  0  0  0
    9.4271  -14.4654   24.5001 O   0  0  0  0  0  0  0  0  0  0  0  0
   10.1354  -14.8100   29.8856 C   0  0  0  0  0  0  0  0  0  0  0  0
    9.8671  -14.7424   28.3314 C   0  0  1  0  0  0  0  0  0  0  0  0
   10.1999  -13.2808   28.0384 C   0  0  0  0  0  0  0  0  0  0  0  0
   10.8000  -15.7181   27.7522 C   0  0  0  0  0  0  0  0  0  0  0  0
   10.7419  -16.0152   26.3094 C   0  0  2  0  0  0  0  0  0  0  0  0
    9.3258  -16.2498   25.9338 N   0  0  0  0  0  0  0  0  0  0  0  0
   11.4880  -17.1894   25.8954 C   0  0  0  0  0  0  0  0  0  0  0  0
   12.7573  -17.1978   26.0383 O   0  0  0  0  0  0  0  0  0  0  0  0
   10.9569  -18.3356   25.3558 O   0  0  0  0  0  0  0  0  0  0  0  0
  2  1  1  1
  3  2  1  0
  4  2  1  0
  4  5  1  0
  5  6  1  6
  7  5  1  0
  7  8  2  0
  9 10  1  0
 10 11  1  0
 11 12  1  0
 13 12  1  1
 13 14  1  0
 14  7  1  0
 15 13  1  0
 16 15  2  0
 18 17  1  1
 18 19  1  0
 21 20  1  1
 20 18  1  0
 21 22  1  0
 22 15  1  0
 23 21  1  0
 24 23  2  0
 25 23  1  0
M  END
$$$$
