LML.pdb
     RDKit          3D

 25 24  0  0  1  0  0  0  0  0999 V2000
    9.8028  -20.0332   19.3113 C   0  0  0  0  0  0  0  0  0  0  0  0
    8.6795  -19.0525   18.9687 C   0  0  2  0  0  0  0  0  0  0  0  0
    8.6316  -18.9391   17.4701 C   0  0  0  0  0  0  0  0  0  0  0  0
    8.8920  -17.7294   19.6548 C   0  0  0  0  0  0  0  0  0  0  0  0
    8.9432  -17.9047   21.1383 C   0  0  2  0  0  0  0  0  0  0  0  0
    7.6749  -18.4480   21.5864 N   0  0  0  0  0  0  0  0  0  0  0  0
    9.1883  -16.6460   21.8654 C   0  0  0  0  0  0  0  0  0  0  0  0
   10.2448  -15.9700   21.6686 O   0  0  0  0  0  0  0  0  0  0  0  0
    6.2059  -11.3160   26.9409 C   0  0  0  0  0  0  0  0  0  0  0  0
    6.0618  -12.8536   26.0316 S   0  0  0  0  0  0  0  0  0  0  0  0
    7.3673  -13.0212   24.7568 C   0  0  0  0  0  0  0  0  0  0  0  0
    7.2269  -14.2959   24.0085 C   0  0  0  0  0  0  0  0  0  0  0  0
    8.5430  -14.8317   23.5214 C   0  0  2  0  0  0  0  0  0  0  0  0
    8.2891  -16.1004   22.8194 N   0  0  0  0  0  0  0  0  0  0  0  0
    9.5376  -15.0637   24.6077 C   0  0  0  0  0  0  0  0  0  0  0  0
   10.2429  -14.1009   24.9825 O   0  0  0  0  0  0  0  0  0  0  0  0
    9.8532  -14.5234   29.3154 C   0  0  0  0  0  0  0  0  0  0  0  0
   10.2145  -14.5993   27.7806 C   0  0  1  0  0  0  0  0  0  0  0  0
   11.5100  -13.7911   27.7427 C   0  0  0  0  0  0  0  0  0  0  0  0
   10.3715  -16.0341   27.5080 C   0  0  0  0  0  0  0  0  0  0  0  0
   10.8274  -16.4783   26.1782 C   0  0  2  0  0  0  0  0  0  0  0  0
    9.7075  -16.3162   25.2184 N   0  0  0  0  0  0  0  0  0  0  0  0
   11.2467  -17.8660   26.1065 C   0  0  0  0  0  0  0  0  0  0  0  0
   10.4899  -18.7112   25.5194 O   0  0  0  0  0  0  0  0  0  0  0  0
   12.4140  -18.3847   26.6117 O   0  0  0  0  0  0  0  0  0  0  0  0
  2  1  1  6
  3  2  1  0
  4  2  1  0
  4  5  1  0
  5  6  1  1
  7  5  1  0
  7  8  2  0
  9 10  1  0
 10 11  1  0
 11 12  1  0
 13 12  1  1
 13 14  1  0
 14  7  1  0
 15 13  1  0
 16 15  2  0
 18 17  1  1
 18 19  1  0
 21 20  1  1
 20 18  1  0
 21 22  1  0
 22 15  1  0
 23 21  1  0
 24 23  2  0
 25 23  1  0
M  END
$$$$
