LML.pdb
     RDKit          3D

 25 24  0  0  1  0  0  0  0  0999 V2000
    9.5630  -19.8776   19.2915 C   0  0  0  0  0  0  0  0  0  0  0  0
    8.6492  -18.6813   19.0185 C   0  0  2  0  0  0  0  0  0  0  0  0
    8.6643  -18.4412   17.5342 C   0  0  0  0  0  0  0  0  0  0  0  0
    9.0824  -17.4798   19.8156 C   0  0  0  0  0  0  0  0  0  0  0  0
    9.0059  -17.7617   21.2816 C   0  0  2  0  0  0  0  0  0  0  0  0
    7.6875  -18.2848   21.5863 N   0  0  0  0  0  0  0  0  0  0  0  0
    9.2328  -16.5683   22.1168 C   0  0  0  0  0  0  0  0  0  0  0  0
   10.3102  -15.9023   22.0298 O   0  0  0  0  0  0  0  0  0  0  0  0
    5.5190  -11.3715   25.3732 C   0  0  0  0  0  0  0  0  0  0  0  0
    5.9315  -12.8604   26.2816 S   0  0  0  0  0  0  0  0  0  0  0  0
    7.5344  -13.5684   25.7459 C   0  0  0  0  0  0  0  0  0  0  0  0
    7.3372  -14.6500   24.7480 C   0  0  0  0  0  0  0  0  0  0  0  0
    8.5882  -14.9660   23.9788 C   0  0  2  0  0  0  0  0  0  0  0  0
    8.2925  -16.0785   23.0613 N   0  0  0  0  0  0  0  0  0  0  0  0
    9.7471  -15.3368   24.8406 C   0  0  0  0  0  0  0  0  0  0  0  0
   10.7098  -14.5416   24.9153 O   0  0  0  0  0  0  0  0  0  0  0  0
   11.1026  -15.1478   29.4989 C   0  0  0  0  0  0  0  0  0  0  0  0
   10.3730  -15.0882   28.1004 C   0  0  1  0  0  0  0  0  0  0  0  0
   10.1106  -13.5892   27.9687 C   0  0  0  0  0  0  0  0  0  0  0  0
   11.3516  -15.6315   27.1491 C   0  0  0  0  0  0  0  0  0  0  0  0
   11.0129  -16.8287   26.3581 C   0  0  2  0  0  0  0  0  0  0  0  0
    9.7933  -16.5388   25.5644 N   0  0  0  0  0  0  0  0  0  0  0  0
   10.7344  -18.0200   27.1390 C   0  0  0  0  0  0  0  0  0  0  0  0
   11.6726  -18.5364   27.8354 O   0  0  0  0  0  0  0  0  0  0  0  0
    9.5267  -18.6695   27.2196 O   0  0  0  0  0  0  0  0  0  0  0  0
  2  1  1  6
  3  2  1  0
  4  2  1  0
  4  5  1  0
  5  6  1  6
  7  5  1  0
  7  8  2  0
  9 10  1  0
 10 11  1  0
 11 12  1  0
 13 12  1  1
 13 14  1  0
 14  7  1  0
 15 13  1  0
 16 15  2  0
 18 17  1  1
 18 19  1  0
 21 20  1  1
 20 18  1  0
 21 22  1  0
 22 15  1  0
 23 21  1  0
 24 23  2  0
 25 23  1  0
M  END
$$$$
