LML.pdb
     RDKit          3D

 25 24  0  0  1  0  0  0  0  0999 V2000
    6.6918  -12.6308   19.2904 C   0  0  0  0  0  0  0  0  0  0  0  0
    7.6415  -13.4834   20.1343 C   0  0  2  0  0  0  0  0  0  0  0  0
    9.0210  -12.9095   19.9656 C   0  0  0  0  0  0  0  0  0  0  0  0
    7.5535  -14.9346   19.7433 C   0  0  0  0  0  0  0  0  0  0  0  0
    8.4162  -15.7746   20.6290 C   0  0  2  0  0  0  0  0  0  0  0  0
    8.3968  -17.1395   20.1379 N   0  0  0  0  0  0  0  0  0  0  0  0
    7.9728  -15.7840   22.0349 C   0  0  0  0  0  0  0  0  0  0  0  0
    7.7892  -14.7012   22.6718 O   0  0  0  0  0  0  0  0  0  0  0  0
    6.4071  -21.3423   25.2785 C   0  0  0  0  0  0  0  0  0  0  0  0
    6.7678  -20.2287   26.6356 S   0  0  0  0  0  0  0  0  0  0  0  0
    6.8313  -18.4807   26.0897 C   0  0  0  0  0  0  0  0  0  0  0  0
    7.1980  -18.3791   24.6545 C   0  0  0  0  0  0  0  0  0  0  0  0
    7.2509  -16.9590   24.1675 C   0  0  2  0  0  0  0  0  0  0  0  0
    7.7217  -16.9709   22.7728 N   0  0  0  0  0  0  0  0  0  0  0  0
    8.1403  -16.0778   24.9771 C   0  0  0  0  0  0  0  0  0  0  0  0
    9.3651  -16.0757   24.7228 O   0  0  0  0  0  0  0  0  0  0  0  0
    5.9742  -11.5719   27.2165 C   0  0  0  0  0  0  0  0  0  0  0  0
    6.6802  -12.6427   26.2962 C   0  0  1  0  0  0  0  0  0  0  0  0
    7.0561  -11.7895   25.0865 C   0  0  0  0  0  0  0  0  0  0  0  0
    7.8172  -13.1229   27.0927 C   0  0  0  0  0  0  0  0  0  0  0  0
    8.5895  -14.2910   26.6313 C   0  0  2  0  0  0  0  0  0  0  0  0
    7.6528  -15.2575   26.0068 N   0  0  0  0  0  0  0  0  0  0  0  0
    9.2998  -15.0067   27.6753 C   0  0  0  0  0  0  0  0  0  0  0  0
   10.2266  -14.4055   28.3167 O   0  0  0  0  0  0  0  0  0  0  0  0
    9.0690  -16.3028   28.0674 O   0  0  0  0  0  0  0  0  0  0  0  0
  2  1  1  6
  3  2  1  0
  4  2  1  0
  4  5  1  0
  5  6  1  6
  7  5  1  0
  7  8  2  0
  9 10  1  0
 10 11  1  0
 11 12  1  0
 13 12  1  1
 13 14  1  0
 14  7  1  0
 15 13  1  0
 16 15  2  0
 18 17  1  1
 18 19  1  0
 21 20  1  1
 20 18  1  0
 21 22  1  0
 22 15  1  0
 23 21  1  0
 24 23  2  0
 25 23  1  0
M  END
$$$$
