LML.pdb
     RDKit          3D

 25 24  0  0  1  0  0  0  0  0999 V2000
    9.3618  -13.5037   18.8821 C   0  0  0  0  0  0  0  0  0  0  0  0
    7.8762  -13.7584   18.6194 C   0  0  2  0  0  0  0  0  0  0  0  0
    7.2786  -12.4588   18.1557 C   0  0  0  0  0  0  0  0  0  0  0  0
    7.2007  -14.3155   19.8441 C   0  0  0  0  0  0  0  0  0  0  0  0
    8.1419  -15.1780   20.6215 C   0  0  2  0  0  0  0  0  0  0  0  0
    8.3845  -16.3955   19.8709 N   0  0  0  0  0  0  0  0  0  0  0  0
    7.6265  -15.5512   21.9513 C   0  0  0  0  0  0  0  0  0  0  0  0
    7.1002  -14.6861   22.7171 O   0  0  0  0  0  0  0  0  0  0  0  0
    6.3255  -21.7396   24.4605 C   0  0  0  0  0  0  0  0  0  0  0  0
    5.7275  -21.0499   22.9183 S   0  0  0  0  0  0  0  0  0  0  0  0
    5.8370  -19.2210   22.8970 C   0  0  0  0  0  0  0  0  0  0  0  0
    6.9177  -18.7371   23.7928 C   0  0  0  0  0  0  0  0  0  0  0  0
    7.0722  -17.2432   23.7625 C   0  0  2  0  0  0  0  0  0  0  0  0
    7.6746  -16.8715   22.4717 N   0  0  0  0  0  0  0  0  0  0  0  0
    7.9128  -16.7024   24.8689 C   0  0  0  0  0  0  0  0  0  0  0  0
    9.1541  -16.6818   24.7158 O   0  0  0  0  0  0  0  0  0  0  0  0
    6.4856  -12.2784   27.3840 C   0  0  0  0  0  0  0  0  0  0  0  0
    7.2899  -13.3460   26.5442 C   0  0  1  0  0  0  0  0  0  0  0  0
    8.4172  -12.4859   25.9766 C   0  0  0  0  0  0  0  0  0  0  0  0
    7.7128  -14.3496   27.5299 C   0  0  0  0  0  0  0  0  0  0  0  0
    8.2820  -15.6294   27.0696 C   0  0  2  0  0  0  0  0  0  0  0  0
    7.3619  -16.2200   26.0666 N   0  0  0  0  0  0  0  0  0  0  0  0
    8.4688  -16.6255   28.1086 C   0  0  0  0  0  0  0  0  0  0  0  0
    7.6624  -17.6143   28.1696 O   0  0  0  0  0  0  0  0  0  0  0  0
    9.4589  -16.6242   29.0609 O   0  0  0  0  0  0  0  0  0  0  0  0
  2  1  1  1
  3  2  1  0
  4  2  1  0
  4  5  1  0
  5  6  1  6
  7  5  1  0
  7  8  2  0
  9 10  1  0
 10 11  1  0
 11 12  1  0
 13 12  1  1
 13 14  1  0
 14  7  1  0
 15 13  1  0
 16 15  2  0
 18 17  1  1
 18 19  1  0
 21 20  1  1
 20 18  1  0
 21 22  1  0
 22 15  1  0
 23 21  1  0
 24 23  2  0
 25 23  1  0
M  END
$$$$
