LML.pdb
     RDKit          3D

 25 24  0  0  1  0  0  0  0  0999 V2000
    9.4369  -14.1286   18.2237 C   0  0  0  0  0  0  0  0  0  0  0  0
    8.0844  -13.6708   18.7734 C   0  0  2  0  0  0  0  0  0  0  0  0
    7.6787  -12.4508   17.9937 C   0  0  0  0  0  0  0  0  0  0  0  0
    8.1614  -13.4252   20.2567 C   0  0  0  0  0  0  0  0  0  0  0  0
    8.7535  -14.6048   20.9585 C   0  0  2  0  0  0  0  0  0  0  0  0
    7.9388  -15.7713   20.6754 N   0  0  0  0  0  0  0  0  0  0  0  0
    8.8255  -14.4365   22.4212 C   0  0  0  0  0  0  0  0  0  0  0  0
    9.5747  -13.5547   22.9438 O   0  0  0  0  0  0  0  0  0  0  0  0
    6.5690  -11.5448   26.1099 C   0  0  0  0  0  0  0  0  0  0  0  0
    5.4615  -12.9413   26.2974 S   0  0  0  0  0  0  0  0  0  0  0  0
    5.6018  -14.1198   24.9013 C   0  0  0  0  0  0  0  0  0  0  0  0
    6.5658  -15.2060   25.2100 C   0  0  0  0  0  0  0  0  0  0  0  0
    7.9651  -14.8838   24.7685 C   0  0  2  0  0  0  0  0  0  0  0  0
    8.0843  -15.2242   23.3413 N   0  0  0  0  0  0  0  0  0  0  0  0
    9.0197  -15.6080   25.5344 C   0  0  0  0  0  0  0  0  0  0  0  0
    9.6348  -16.5366   24.9651 O   0  0  0  0  0  0  0  0  0  0  0  0
   13.1796  -15.3607   29.1855 C   0  0  0  0  0  0  0  0  0  0  0  0
   11.7924  -15.9364   29.6714 C   0  0  1  0  0  0  0  0  0  0  0  0
   11.7458  -15.4194   31.1079 C   0  0  0  0  0  0  0  0  0  0  0  0
   10.8047  -15.3361   28.7648 C   0  0  0  0  0  0  0  0  0  0  0  0
   10.4530  -16.0252   27.5098 C   0  0  2  0  0  0  0  0  0  0  0  0
    9.3421  -15.2851   26.8619 N   0  0  0  0  0  0  0  0  0  0  0  0
   10.0090  -17.3980   27.6686 C   0  0  0  0  0  0  0  0  0  0  0  0
    8.7883  -17.6222   27.9705 O   0  0  0  0  0  0  0  0  0  0  0  0
   10.7849  -18.5212   27.5151 O   0  0  0  0  0  0  0  0  0  0  0  0
  2  1  1  6
  3  2  1  0
  4  2  1  0
  4  5  1  0
  5  6  1  1
  7  5  1  0
  7  8  2  0
  9 10  1  0
 10 11  1  0
 11 12  1  0
 13 12  1  1
 13 14  1  0
 14  7  1  0
 15 13  1  0
 16 15  2  0
 18 17  1  6
 18 19  1  0
 21 20  1  1
 20 18  1  0
 21 22  1  0
 22 15  1  0
 23 21  1  0
 24 23  2  0
 25 23  1  0
M  END
$$$$
