QPH.pdb
     RDKit          3D

 27 28  0  0  1  0  0  0  0  0999 V2000
   20.8106  -12.9030  -19.2437 N   0  0  0  0  0  0  0  0  0  0  0  0
   20.6887  -11.5371  -18.9134 C   0  0  0  0  0  0  0  0  0  0  0  0
   19.8203  -10.8510  -19.4892 O   0  0  0  0  0  0  0  0  0  0  0  0
   21.5881  -10.9744  -17.9025 C   0  0  0  0  0  0  0  0  0  0  0  0
   20.9067  -10.1912  -16.8105 C   0  0  0  0  0  0  0  0  0  0  0  0
   21.8832   -9.4960  -15.9247 C   0  0  2  0  0  0  0  0  0  0  0  0
   22.6007  -10.5383  -15.2017 N   0  0  0  0  0  0  0  0  0  0  0  0
   21.2891   -8.5143  -14.9915 C   0  0  0  0  0  0  0  0  0  0  0  0
   20.5583   -8.9517  -14.0345 O   0  0  0  0  0  0  0  0  0  0  0  0
   21.4584   -7.1079  -15.0587 N   0  0  0  0  0  0  0  0  0  0  0  0
   22.4153   -6.4821  -15.9452 C   0  0  0  0  0  0  0  0  0  0  0  0
   22.6957   -5.1301  -15.2886 C   0  0  0  0  0  0  0  0  0  0  0  0
   21.3078   -4.7882  -14.7875 C   0  0  0  0  0  0  0  0  0  0  0  0
   20.7910   -6.1085  -14.3226 C   0  0  1  0  0  0  0  0  0  0  0  0
   19.3054   -6.1882  -14.3941 C   0  0  0  0  0  0  0  0  0  0  0  0
   18.7988   -6.9775  -15.2177 O   0  0  0  0  0  0  0  0  0  0  0  0
   18.4780   -5.3986  -13.5592 N   0  0  0  0  0  0  0  0  0  0  0  0
   17.0240   -5.3878  -13.6607 C   0  0  1  0  0  0  0  0  0  0  0  0
   16.4347   -6.7355  -13.4401 C   0  0  0  0  0  0  0  0  0  0  0  0
   16.5752   -7.1268  -12.0268 C   0  0  0  0  0  0  0  0  0  0  0  0
   16.9501   -6.2922  -10.9801 C   0  0  0  0  0  0  0  0  0  0  0  0
   16.9635   -7.0224   -9.8375 N   0  0  0  0  0  0  0  0  0  0  0  0
   16.6124   -8.2699  -10.1403 C   0  0  0  0  0  0  0  0  0  0  0  0
   16.3778   -8.3302  -11.4671 N   0  0  0  0  0  0  0  0  0  0  0  0
   16.4180   -4.3739  -12.7963 C   0  0  0  0  0  0  0  0  0  0  0  0
   17.1930   -3.8016  -11.9472 O   0  0  0  0  0  0  0  0  0  0  0  0
   15.1194   -3.9547  -12.7801 O   0  0  0  0  0  0  0  0  0  0  0  0
  2  3  2  0
  2  1  1  0
  4  2  1  0
  5  4  1  0
  6  5  1  0
  6  8  1  0
  6  7  1  1
  8  9  2  0
  8 10  1  0
 10 14  1  0
 10 11  1  0
 11 12  1  0
 13 12  1  0
 14 13  1  0
 15 16  2  0
 14 15  1  6
 17 15  1  0
 18 17  1  0
 18 25  1  0
 18 19  1  1
 20 24  1  0
 20 19  1  0
 21 20  2  0
 22 21  1  0
 22 23  1  0
 23 24  2  0
 25 27  1  0
 26 25  2  0
M  END
$$$$
