QPH.pdb
     RDKit          3D

 27 28  0  0  1  0  0  0  0  0999 V2000
   18.6219  -18.8689  -14.6483 N   0  0  0  0  0  0  0  0  0  0  0  0
   19.8747  -18.5909  -15.2338 C   0  0  0  0  0  0  0  0  0  0  0  0
   19.9150  -17.9246  -16.2878 O   0  0  0  0  0  0  0  0  0  0  0  0
   21.0850  -19.0952  -14.5793 C   0  0  0  0  0  0  0  0  0  0  0  0
   20.8511  -19.8108  -13.2743 C   0  0  0  0  0  0  0  0  0  0  0  0
   22.0185  -20.6468  -12.8748 C   0  0  2  0  0  0  0  0  0  0  0  0
   22.3049  -21.5236  -14.0032 N   0  0  0  0  0  0  0  0  0  0  0  0
   21.8315  -21.4250  -11.6310 C   0  0  0  0  0  0  0  0  0  0  0  0
   21.0965  -22.4733  -11.6756 O   0  0  0  0  0  0  0  0  0  0  0  0
   22.4025  -21.1127  -10.3710 N   0  0  0  0  0  0  0  0  0  0  0  0
   23.3591  -20.0416  -10.1957 C   0  0  0  0  0  0  0  0  0  0  0  0
   24.1269  -20.4368   -8.9339 C   0  0  0  0  0  0  0  0  0  0  0  0
   22.9967  -21.0173   -8.1094 C   0  0  0  0  0  0  0  0  0  0  0  0
   22.1835  -21.7420   -9.1292 C   0  0  1  0  0  0  0  0  0  0  0  0
   20.7492  -21.8394   -8.7397 C   0  0  0  0  0  0  0  0  0  0  0  0
   19.9386  -21.0630   -9.2856 O   0  0  0  0  0  0  0  0  0  0  0  0
   20.3022  -22.7798   -7.7800 N   0  0  0  0  0  0  0  0  0  0  0  0
   18.9533  -23.3321   -7.7752 C   0  0  1  0  0  0  0  0  0  0  0  0
   18.6208  -24.0156   -9.0537 C   0  0  0  0  0  0  0  0  0  0  0  0
   18.0308  -23.0572  -10.0041 C   0  0  0  0  0  0  0  0  0  0  0  0
   17.4724  -21.8251   -9.6833 C   0  0  0  0  0  0  0  0  0  0  0  0
   17.0405  -21.2423  -10.8291 N   0  0  0  0  0  0  0  0  0  0  0  0
   17.3109  -22.0659  -11.8389 C   0  0  0  0  0  0  0  0  0  0  0  0
   17.9107  -23.1644  -11.3362 N   0  0  0  0  0  0  0  0  0  0  0  0
   18.7122  -24.1895   -6.6137 C   0  0  0  0  0  0  0  0  0  0  0  0
   17.4860  -24.4436   -6.3287 O   0  0  0  0  0  0  0  0  0  0  0  0
   19.6365  -24.7603   -5.7877 O   0  0  0  0  0  0  0  0  0  0  0  0
  2  3  2  0
  2  1  1  0
  4  2  1  0
  5  4  1  0
  6  5  1  0
  6  8  1  0
  6  7  1  6
  8  9  2  0
  8 10  1  0
 10 14  1  0
 10 11  1  0
 11 12  1  0
 13 12  1  0
 14 13  1  0
 15 16  2  0
 14 15  1  1
 17 15  1  0
 18 17  1  0
 18 25  1  0
 18 19  1  6
 20 24  1  0
 20 19  1  0
 21 20  2  0
 22 21  1  0
 22 23  1  0
 23 24  2  0
 25 27  1  0
 26 25  2  0
M  END
$$$$
