QPH.pdb
     RDKit          3D

 27 28  0  0  1  0  0  0  0  0999 V2000
   26.5279  -15.9302  -20.1833 N   0  0  0  0  0  0  0  0  0  0  0  0
   25.4796  -15.0153  -20.4146 C   0  0  0  0  0  0  0  0  0  0  0  0
   25.6597  -14.0807  -21.2212 O   0  0  0  0  0  0  0  0  0  0  0  0
   24.2146  -15.1983  -19.6980 C   0  0  0  0  0  0  0  0  0  0  0  0
   23.7979  -14.0349  -18.8361 C   0  0  0  0  0  0  0  0  0  0  0  0
   24.1342  -14.2506  -17.4002 C   0  0  2  0  0  0  0  0  0  0  0  0
   23.3729  -15.4156  -16.9675 N   0  0  0  0  0  0  0  0  0  0  0  0
   23.8780  -13.0908  -16.5189 C   0  0  0  0  0  0  0  0  0  0  0  0
   22.6744  -12.8715  -16.1386 O   0  0  0  0  0  0  0  0  0  0  0  0
   24.8601  -12.1835  -16.0460 N   0  0  0  0  0  0  0  0  0  0  0  0
   26.2755  -12.3867  -16.2662 C   0  0  0  0  0  0  0  0  0  0  0  0
   26.9404  -11.5933  -15.1409 C   0  0  0  0  0  0  0  0  0  0  0  0
   26.0203  -10.3914  -15.0873 C   0  0  0  0  0  0  0  0  0  0  0  0
   24.6746  -10.9967  -15.3093 C   0  0  1  0  0  0  0  0  0  0  0  0
   23.7210  -10.0360  -15.9308 C   0  0  0  0  0  0  0  0  0  0  0  0
   23.6130  -10.0375  -17.1743 O   0  0  0  0  0  0  0  0  0  0  0  0
   22.9523   -9.1407  -15.1480 N   0  0  0  0  0  0  0  0  0  0  0  0
   22.1251   -8.0881  -15.7245 C   0  0  1  0  0  0  0  0  0  0  0  0
   21.1599   -8.6159  -16.7255 C   0  0  0  0  0  0  0  0  0  0  0  0
   20.2520   -9.5882  -16.0928 C   0  0  0  0  0  0  0  0  0  0  0  0
   20.3088  -10.0224  -14.7733 C   0  0  0  0  0  0  0  0  0  0  0  0
   19.3060  -10.9135  -14.5750 N   0  0  0  0  0  0  0  0  0  0  0  0
   18.6368  -11.0436  -15.7181 C   0  0  0  0  0  0  0  0  0  0  0  0
   19.2121  -10.2398  -16.6356 N   0  0  0  0  0  0  0  0  0  0  0  0
   21.4664   -7.2793  -14.6978 C   0  0  0  0  0  0  0  0  0  0  0  0
   20.9210   -6.1840  -15.0880 O   0  0  0  0  0  0  0  0  0  0  0  0
   21.3562   -7.5463  -13.3641 O   0  0  0  0  0  0  0  0  0  0  0  0
  2  3  2  0
  2  1  1  0
  4  2  1  0
  5  4  1  0
  6  5  1  0
  6  8  1  0
  6  7  1  1
  8  9  2  0
  8 10  1  0
 10 14  1  0
 10 11  1  0
 11 12  1  0
 13 12  1  0
 14 13  1  0
 15 16  2  0
 14 15  1  6
 17 15  1  0
 18 17  1  0
 18 25  1  0
 18 19  1  6
 20 24  1  0
 20 19  1  0
 21 20  2  0
 22 21  1  0
 22 23  1  0
 23 24  2  0
 25 27  1  0
 26 25  2  0
M  END
$$$$
