QPH.pdb
     RDKit          3D

 27 28  0  0  1  0  0  0  0  0999 V2000
   31.5437  -26.4969  -16.3479 N   0  0  0  0  0  0  0  0  0  0  0  0
   32.1691  -25.7074  -17.3354 C   0  0  0  0  0  0  0  0  0  0  0  0
   33.4141  -25.7118  -17.4141 O   0  0  0  0  0  0  0  0  0  0  0  0
   31.3303  -24.9109  -18.2352 C   0  0  0  0  0  0  0  0  0  0  0  0
   29.8470  -25.0482  -18.0096 C   0  0  0  0  0  0  0  0  0  0  0  0
   29.2057  -23.7439  -17.6796 C   0  0  2  0  0  0  0  0  0  0  0  0
   29.9338  -23.2018  -16.5394 N   0  0  0  0  0  0  0  0  0  0  0  0
   27.7554  -23.8157  -17.3988 C   0  0  0  0  0  0  0  0  0  0  0  0
   27.3740  -24.3853  -16.3165 O   0  0  0  0  0  0  0  0  0  0  0  0
   26.7293  -23.3012  -18.2317 N   0  0  0  0  0  0  0  0  0  0  0  0
   27.0091  -22.5998  -19.4658 C   0  0  0  0  0  0  0  0  0  0  0  0
   25.7660  -21.7381  -19.6892 C   0  0  0  0  0  0  0  0  0  0  0  0
   24.6932  -22.6959  -19.2140 C   0  0  0  0  0  0  0  0  0  0  0  0
   25.3345  -23.3511  -18.0367 C   0  0  1  0  0  0  0  0  0  0  0  0
   24.8013  -24.7206  -17.7951 C   0  0  0  0  0  0  0  0  0  0  0  0
   25.6026  -25.6771  -17.8292 O   0  0  0  0  0  0  0  0  0  0  0  0
   23.4284  -24.9478  -17.5330 N   0  0  0  0  0  0  0  0  0  0  0  0
   22.8538  -26.2806  -17.3988 C   0  0  1  0  0  0  0  0  0  0  0  0
   23.5365  -27.0847  -16.3502 C   0  0  0  0  0  0  0  0  0  0  0  0
   24.3385  -28.1533  -16.9706 C   0  0  0  0  0  0  0  0  0  0  0  0
   24.4178  -28.4325  -18.3302 C   0  0  0  0  0  0  0  0  0  0  0  0
   25.2561  -29.4848  -18.5004 N   0  0  0  0  0  0  0  0  0  0  0  0
   25.6941  -29.8622  -17.3016 C   0  0  0  0  0  0  0  0  0  0  0  0
   25.1366  -29.0539  -16.3769 N   0  0  0  0  0  0  0  0  0  0  0  0
   21.4037  -26.2393  -17.2038 C   0  0  0  0  0  0  0  0  0  0  0  0
   20.7956  -27.3694  -17.1559 O   0  0  0  0  0  0  0  0  0  0  0  0
   20.6085  -25.1392  -17.0634 O   0  0  0  0  0  0  0  0  0  0  0  0
  2  3  2  0
  2  1  1  0
  4  2  1  0
  5  4  1  0
  6  5  1  0
  6  8  1  0
  6  7  1  1
  8  9  2  0
  8 10  1  0
 10 14  1  0
 10 11  1  0
 11 12  1  0
 13 12  1  0
 14 13  1  0
 15 16  2  0
 14 15  1  6
 17 15  1  0
 18 17  1  0
 18 25  1  0
 18 19  1  1
 20 24  1  0
 20 19  1  0
 21 20  2  0
 22 21  1  0
 22 23  1  0
 23 24  2  0
 25 27  1  0
 26 25  2  0
M  END
$$$$
