QPH.pdb
     RDKit          3D

 27 28  0  0  1  0  0  0  0  0999 V2000
   16.0393  -24.3405   -6.2425 N   0  0  0  0  0  0  0  0  0  0  0  0
   17.2341  -24.8659   -6.7772 C   0  0  0  0  0  0  0  0  0  0  0  0
   17.5325  -24.6062   -7.9604 O   0  0  0  0  0  0  0  0  0  0  0  0
   18.0829  -25.6979   -5.9200 C   0  0  0  0  0  0  0  0  0  0  0  0
   17.6105  -25.8324   -4.4957 C   0  0  0  0  0  0  0  0  0  0  0  0
   17.5950  -27.2516   -4.0405 C   0  0  2  0  0  0  0  0  0  0  0  0
   16.6509  -27.9520   -4.9020 N   0  0  0  0  0  0  0  0  0  0  0  0
   17.2571  -27.4449   -2.6137 C   0  0  0  0  0  0  0  0  0  0  0  0
   16.0839  -27.1165   -2.2177 O   0  0  0  0  0  0  0  0  0  0  0  0
   18.1277  -27.9715   -1.6257 N   0  0  0  0  0  0  0  0  0  0  0  0
   19.4645  -28.4311   -1.9336 C   0  0  0  0  0  0  0  0  0  0  0  0
   19.7809  -29.4205   -0.8116 C   0  0  0  0  0  0  0  0  0  0  0  0
   19.1282  -28.7109    0.3565 C   0  0  0  0  0  0  0  0  0  0  0  0
   17.8836  -28.1544   -0.2499 C   0  0  1  0  0  0  0  0  0  0  0  0
   17.4138  -26.9288    0.4542 C   0  0  0  0  0  0  0  0  0  0  0  0
   17.3853  -25.8582   -0.1867 O   0  0  0  0  0  0  0  0  0  0  0  0
   17.0081  -26.9606    1.8105 N   0  0  0  0  0  0  0  0  0  0  0  0
   16.6495  -25.7644    2.5621 C   0  0  1  0  0  0  0  0  0  0  0  0
   15.5277  -25.0188    1.9312 C   0  0  0  0  0  0  0  0  0  0  0  0
   14.3216  -25.8631    1.8795 C   0  0  0  0  0  0  0  0  0  0  0  0
   14.2969  -27.2505    1.7944 C   0  0  0  0  0  0  0  0  0  0  0  0
   13.0020  -27.6524    1.7703 N   0  0  0  0  0  0  0  0  0  0  0  0
   12.2318  -26.5690    1.8372 C   0  0  0  0  0  0  0  0  0  0  0  0
   13.0338  -25.4867    1.9032 N   0  0  0  0  0  0  0  0  0  0  0  0
   16.3920  -26.0558    3.9732 C   0  0  0  0  0  0  0  0  0  0  0  0
   16.1155  -25.0543    4.7281 O   0  0  0  0  0  0  0  0  0  0  0  0
   16.4076  -27.2710    4.5939 O   0  0  0  0  0  0  0  0  0  0  0  0
  2  3  2  0
  2  1  1  0
  4  2  1  0
  5  4  1  0
  6  5  1  0
  6  8  1  0
  6  7  1  6
  8  9  2  0
  8 10  1  0
 10 14  1  0
 10 11  1  0
 11 12  1  0
 13 12  1  0
 14 13  1  0
 15 16  2  0
 14 15  1  1
 17 15  1  0
 18 17  1  0
 18 25  1  0
 18 19  1  6
 20 24  1  0
 20 19  1  0
 21 20  2  0
 22 21  1  0
 22 23  1  0
 23 24  2  0
 25 27  1  0
 26 25  2  0
M  END
$$$$
