QPH.pdb
     RDKit          3D

 27 28  0  0  1  0  0  0  0  0999 V2000
   25.9405  -15.5957  -16.7150 N   0  0  0  0  0  0  0  0  0  0  0  0
   27.1093  -15.8733  -17.4541 C   0  0  0  0  0  0  0  0  0  0  0  0
   27.5737  -14.9916  -18.2047 O   0  0  0  0  0  0  0  0  0  0  0  0
   27.7366  -17.1899  -17.3110 C   0  0  0  0  0  0  0  0  0  0  0  0
   27.0394  -18.1263  -16.3586 C   0  0  0  0  0  0  0  0  0  0  0  0
   27.7082  -19.4564  -16.2879 C   0  0  2  0  0  0  0  0  0  0  0  0
   27.4077  -20.1376  -17.5408 N   0  0  0  0  0  0  0  0  0  0  0  0
   27.3235  -20.2865  -15.1258 C   0  0  0  0  0  0  0  0  0  0  0  0
   26.2347  -20.9581  -15.1934 O   0  0  0  0  0  0  0  0  0  0  0  0
   28.0634  -20.4111  -13.9224 N   0  0  0  0  0  0  0  0  0  0  0  0
   29.4257  -19.9408  -13.7958 C   0  0  0  0  0  0  0  0  0  0  0  0
   29.9992  -20.7781  -12.6522 C   0  0  0  0  0  0  0  0  0  0  0  0
   28.7917  -20.8394  -11.7399 C   0  0  0  0  0  0  0  0  0  0  0  0
   27.6599  -20.9869  -12.7010 C   0  0  1  0  0  0  0  0  0  0  0  0
   26.3861  -20.4371  -12.1592 C   0  0  0  0  0  0  0  0  0  0  0  0
   26.2091  -19.2027  -12.2140 O   0  0  0  0  0  0  0  0  0  0  0  0
   25.3950  -21.2765  -11.5951 N   0  0  0  0  0  0  0  0  0  0  0  0
   24.1101  -20.7810  -11.1175 C   0  0  1  0  0  0  0  0  0  0  0  0
   22.9670  -21.3692  -11.8656 C   0  0  0  0  0  0  0  0  0  0  0  0
   21.6921  -20.8809  -11.3122 C   0  0  0  0  0  0  0  0  0  0  0  0
   21.5322  -19.7915  -10.4635 C   0  0  0  0  0  0  0  0  0  0  0  0
   20.2126  -19.6643  -10.1781 N   0  0  0  0  0  0  0  0  0  0  0  0
   19.5568  -20.6305  -10.8167 C   0  0  0  0  0  0  0  0  0  0  0  0
   20.4555  -21.3658  -11.5028 N   0  0  0  0  0  0  0  0  0  0  0  0
   23.9608  -20.9398   -9.6702 C   0  0  0  0  0  0  0  0  0  0  0  0
   24.5383  -21.9563   -9.1386 O   0  0  0  0  0  0  0  0  0  0  0  0
   23.2792  -20.1341   -8.8050 O   0  0  0  0  0  0  0  0  0  0  0  0
  2  3  2  0
  2  1  1  0
  4  2  1  0
  5  4  1  0
  6  5  1  0
  6  8  1  0
  6  7  1  6
  8  9  2  0
  8 10  1  0
 10 14  1  0
 10 11  1  0
 11 12  1  0
 13 12  1  0
 14 13  1  0
 15 16  2  0
 14 15  1  1
 17 15  1  0
 18 17  1  0
 18 25  1  0
 18 19  1  6
 20 24  1  0
 20 19  1  0
 21 20  2  0
 22 21  1  0
 22 23  1  0
 23 24  2  0
 25 27  1  0
 26 25  2  0
M  END
$$$$
