QPH.pdb
     RDKit          3D

 27 28  0  0  1  0  0  0  0  0999 V2000
   18.0538  -14.3279  -20.5257 N   0  0  0  0  0  0  0  0  0  0  0  0
   18.6447  -15.5892  -20.3032 C   0  0  0  0  0  0  0  0  0  0  0  0
   18.5820  -16.4531  -21.2011 O   0  0  0  0  0  0  0  0  0  0  0  0
   19.3130  -15.8375  -19.0229 C   0  0  0  0  0  0  0  0  0  0  0  0
   19.4022  -14.6423  -18.1099 C   0  0  0  0  0  0  0  0  0  0  0  0
   20.1678  -14.9410  -16.8665 C   0  0  2  0  0  0  0  0  0  0  0  0
   19.3893  -15.9275  -16.1283 N   0  0  0  0  0  0  0  0  0  0  0  0
   20.4712  -13.7642  -16.0234 C   0  0  0  0  0  0  0  0  0  0  0  0
   19.5141  -13.2290  -15.3611 O   0  0  0  0  0  0  0  0  0  0  0  0
   21.7477  -13.1639  -15.8768 N   0  0  0  0  0  0  0  0  0  0  0  0
   22.9541  -13.7660  -16.4013 C   0  0  0  0  0  0  0  0  0  0  0  0
   24.0674  -13.1707  -15.5388 C   0  0  0  0  0  0  0  0  0  0  0  0
   23.5502  -11.7558  -15.3814 C   0  0  0  0  0  0  0  0  0  0  0  0
   22.0798  -11.9579  -15.2278 C   0  0  1  0  0  0  0  0  0  0  0  0
   21.2979  -10.7791  -15.6945 C   0  0  0  0  0  0  0  0  0  0  0  0
   20.7996  -10.8206  -16.8381 O   0  0  0  0  0  0  0  0  0  0  0  0
   21.1162   -9.6373  -14.8770 N   0  0  0  0  0  0  0  0  0  0  0  0
   20.3572   -8.4674  -15.3013 C   0  0  1  0  0  0  0  0  0  0  0  0
   18.9906   -8.4404  -14.7148 C   0  0  0  0  0  0  0  0  0  0  0  0
   18.2377   -7.2851  -15.2329 C   0  0  0  0  0  0  0  0  0  0  0  0
   18.6921   -6.3672  -16.1731 C   0  0  0  0  0  0  0  0  0  0  0  0
   17.7106   -5.4564  -16.3875 N   0  0  0  0  0  0  0  0  0  0  0  0
   16.6734   -5.7777  -15.6179 C   0  0  0  0  0  0  0  0  0  0  0  0
   16.9956   -6.8858  -14.9198 N   0  0  0  0  0  0  0  0  0  0  0  0
   21.0845   -7.2204  -15.0599 C   0  0  0  0  0  0  0  0  0  0  0  0
   21.6741   -7.1068  -13.9246 O   0  0  0  0  0  0  0  0  0  0  0  0
   21.2176   -6.1525  -15.8990 O   0  0  0  0  0  0  0  0  0  0  0  0
  2  3  2  0
  2  1  1  0
  4  2  1  0
  5  4  1  0
  6  5  1  0
  6  8  1  0
  6  7  1  1
  8  9  2  0
  8 10  1  0
 10 14  1  0
 10 11  1  0
 11 12  1  0
 13 12  1  0
 14 13  1  0
 15 16  2  0
 14 15  1  6
 17 15  1  0
 18 17  1  0
 18 25  1  0
 18 19  1  1
 20 24  1  0
 20 19  1  0
 21 20  2  0
 22 21  1  0
 22 23  1  0
 23 24  2  0
 25 27  1  0
 26 25  2  0
M  END
$$$$
