QPH.pdb
     RDKit          3D

 27 28  0  0  1  0  0  0  0  0999 V2000
   22.0538  -13.2386  -22.1240 N   0  0  0  0  0  0  0  0  0  0  0  0
   22.9546  -13.6508  -21.1199 C   0  0  0  0  0  0  0  0  0  0  0  0
   23.0514  -14.8664  -20.8565 O   0  0  0  0  0  0  0  0  0  0  0  0
   23.7458  -12.6331  -20.4231 C   0  0  0  0  0  0  0  0  0  0  0  0
   23.0011  -11.8645  -19.3626 C   0  0  0  0  0  0  0  0  0  0  0  0
   23.2669  -12.3931  -17.9946 C   0  0  2  0  0  0  0  0  0  0  0  0
   22.1971  -13.3384  -17.7013 N   0  0  0  0  0  0  0  0  0  0  0  0
   23.3712  -11.3635  -16.9379 C   0  0  0  0  0  0  0  0  0  0  0  0
   22.2937  -10.8089  -16.5223 O   0  0  0  0  0  0  0  0  0  0  0  0
   24.5758  -10.9270  -16.3301 N   0  0  0  0  0  0  0  0  0  0  0  0
   25.8332  -11.6189  -16.5126 C   0  0  0  0  0  0  0  0  0  0  0  0
   26.6513  -11.2263  -15.2821 C   0  0  0  0  0  0  0  0  0  0  0  0
   26.2296   -9.7788  -15.1367 C   0  0  0  0  0  0  0  0  0  0  0  0
   24.7776   -9.8230  -15.4777 C   0  0  1  0  0  0  0  0  0  0  0  0
   24.2896   -8.5288  -16.0305 C   0  0  0  0  0  0  0  0  0  0  0  0
   24.4079   -8.3326  -17.2574 O   0  0  0  0  0  0  0  0  0  0  0  0
   23.7064   -7.5397  -15.2018 N   0  0  0  0  0  0  0  0  0  0  0  0
   23.3063   -6.2263  -15.6911 C   0  0  1  0  0  0  0  0  0  0  0  0
   22.3366   -6.3162  -16.8153 C   0  0  0  0  0  0  0  0  0  0  0  0
   21.0843   -6.9428  -16.3577 C   0  0  0  0  0  0  0  0  0  0  0  0
   20.9431   -7.7811  -15.2577 C   0  0  0  0  0  0  0  0  0  0  0  0
   19.6411   -8.1494  -15.1676 N   0  0  0  0  0  0  0  0  0  0  0  0
   18.9783   -7.5717  -16.1668 C   0  0  0  0  0  0  0  0  0  0  0  0
   19.8550   -6.8415  -16.8859 N   0  0  0  0  0  0  0  0  0  0  0  0
   22.8225   -5.3603  -14.6149 C   0  0  0  0  0  0  0  0  0  0  0  0
   22.5851   -4.1361  -14.9220 O   0  0  0  0  0  0  0  0  0  0  0  0
   22.5882   -5.6940  -13.3125 O   0  0  0  0  0  0  0  0  0  0  0  0
  2  3  2  0
  2  1  1  0
  4  2  1  0
  5  4  1  0
  6  5  1  0
  6  8  1  0
  6  7  1  1
  8  9  2  0
  8 10  1  0
 10 14  1  0
 10 11  1  0
 11 12  1  0
 13 12  1  0
 14 13  1  0
 15 16  2  0
 14 15  1  6
 17 15  1  0
 18 17  1  0
 18 25  1  0
 18 19  1  6
 20 24  1  0
 20 19  1  0
 21 20  2  0
 22 21  1  0
 22 23  1  0
 23 24  2  0
 25 27  1  0
 26 25  2  0
M  END
$$$$
