QPH.pdb
     RDKit          3D

 27 28  0  0  1  0  0  0  0  0999 V2000
   14.8415  -12.7242  -17.3293 N   0  0  0  0  0  0  0  0  0  0  0  0
   15.4967  -13.6772  -18.1368 C   0  0  0  0  0  0  0  0  0  0  0  0
   14.8133  -14.5185  -18.7545 O   0  0  0  0  0  0  0  0  0  0  0  0
   16.9593  -13.6421  -18.2210 C   0  0  0  0  0  0  0  0  0  0  0  0
   17.6054  -12.4481  -17.5677 C   0  0  0  0  0  0  0  0  0  0  0  0
   18.8282  -12.8202  -16.8011 C   0  0  2  0  0  0  0  0  0  0  0  0
   18.4777  -13.9902  -16.0059 N   0  0  0  0  0  0  0  0  0  0  0  0
   19.3814  -11.7449  -15.9495 C   0  0  0  0  0  0  0  0  0  0  0  0
   18.7584  -11.4430  -14.8716 O   0  0  0  0  0  0  0  0  0  0  0  0
   20.5605  -11.0049  -16.2204 N   0  0  0  0  0  0  0  0  0  0  0  0
   21.4392  -11.3208  -17.3255 C   0  0  0  0  0  0  0  0  0  0  0  0
   22.7884  -10.7406  -16.9002 C   0  0  0  0  0  0  0  0  0  0  0  0
   22.3254   -9.4679  -16.2220 C   0  0  0  0  0  0  0  0  0  0  0  0
   21.0857   -9.9037  -15.5151 C   0  0  1  0  0  0  0  0  0  0  0  0
   20.1216   -8.7839  -15.3275 C   0  0  0  0  0  0  0  0  0  0  0  0
   19.2656   -8.5913  -16.2152 O   0  0  0  0  0  0  0  0  0  0  0  0
   20.1618   -7.9531  -14.1814 N   0  0  0  0  0  0  0  0  0  0  0  0
   19.2807   -6.8065  -13.9985 C   0  0  1  0  0  0  0  0  0  0  0  0
   18.8612   -6.6398  -12.5812 C   0  0  0  0  0  0  0  0  0  0  0  0
   18.0679   -7.8022  -12.1458 C   0  0  0  0  0  0  0  0  0  0  0  0
   16.7632   -8.0922  -12.5285 C   0  0  0  0  0  0  0  0  0  0  0  0
   16.3861   -9.2425  -11.9172 N   0  0  0  0  0  0  0  0  0  0  0  0
   17.4054   -9.6697  -11.1758 C   0  0  0  0  0  0  0  0  0  0  0  0
   18.4227   -8.7954  -11.3162 N   0  0  0  0  0  0  0  0  0  0  0  0
   19.8522   -5.5776  -14.5514 C   0  0  0  0  0  0  0  0  0  0  0  0
   19.0863   -4.5471  -14.5802 O   0  0  0  0  0  0  0  0  0  0  0  0
   21.1104   -5.3868  -15.0442 O   0  0  0  0  0  0  0  0  0  0  0  0
  2  3  2  0
  2  1  1  0
  4  2  1  0
  5  4  1  0
  6  5  1  0
  6  8  1  0
  6  7  1  1
  8  9  2  0
  8 10  1  0
 10 14  1  0
 10 11  1  0
 11 12  1  0
 13 12  1  0
 14 13  1  0
 15 16  2  0
 14 15  1  6
 17 15  1  0
 18 17  1  0
 18 25  1  0
 18 19  1  1
 20 24  1  0
 20 19  1  0
 21 20  2  0
 22 21  1  0
 22 23  1  0
 23 24  2  0
 25 27  1  0
 26 25  2  0
M  END
$$$$
