QPH.pdb
     RDKit          3D

 27 28  0  0  1  0  0  0  0  0999 V2000
   20.5623  -13.3770  -20.5825 N   0  0  0  0  0  0  0  0  0  0  0  0
   21.7676  -14.0697  -20.8210 C   0  0  0  0  0  0  0  0  0  0  0  0
   21.7834  -14.9794  -21.6746 O   0  0  0  0  0  0  0  0  0  0  0  0
   22.9593  -13.6927  -20.0561 C   0  0  0  0  0  0  0  0  0  0  0  0
   22.7745  -12.5208  -19.1274 C   0  0  0  0  0  0  0  0  0  0  0  0
   24.0360  -12.1594  -18.4208 C   0  0  2  0  0  0  0  0  0  0  0  0
   24.4235  -13.3288  -17.6421 N   0  0  0  0  0  0  0  0  0  0  0  0
   23.9485  -10.9561  -17.5652 C   0  0  0  0  0  0  0  0  0  0  0  0
   23.0174  -10.9021  -16.6870 O   0  0  0  0  0  0  0  0  0  0  0  0
   24.8173   -9.8369  -17.6276 N   0  0  0  0  0  0  0  0  0  0  0  0
   25.9764   -9.8006  -18.4926 C   0  0  0  0  0  0  0  0  0  0  0  0
   26.8988   -8.7776  -17.8289 C   0  0  0  0  0  0  0  0  0  0  0  0
   25.8743   -7.7664  -17.3578 C   0  0  0  0  0  0  0  0  0  0  0  0
   24.7440   -8.6291  -16.9053 C   0  0  1  0  0  0  0  0  0  0  0  0
   23.4300   -7.9355  -17.0091 C   0  0  0  0  0  0  0  0  0  0  0  0
   22.7567   -8.1055  -18.0462 O   0  0  0  0  0  0  0  0  0  0  0  0
   22.9447   -7.1041  -15.9705 N   0  0  0  0  0  0  0  0  0  0  0  0
   21.6917   -6.3652  -16.0625 C   0  0  1  0  0  0  0  0  0  0  0  0
   20.8294   -6.5690  -14.8679 C   0  0  0  0  0  0  0  0  0  0  0  0
   20.3481   -7.9604  -14.8197 C   0  0  0  0  0  0  0  0  0  0  0  0
   20.0307   -8.7549  -15.9155 C   0  0  0  0  0  0  0  0  0  0  0  0
   19.6277   -9.9670  -15.4600 N   0  0  0  0  0  0  0  0  0  0  0  0
   19.6848   -9.9485  -14.1304 C   0  0  0  0  0  0  0  0  0  0  0  0
   20.1215   -8.7319  -13.7454 N   0  0  0  0  0  0  0  0  0  0  0  0
   21.9076   -4.9463  -16.3499 C   0  0  0  0  0  0  0  0  0  0  0  0
   23.1198   -4.5252  -16.2989 O   0  0  0  0  0  0  0  0  0  0  0  0
   20.9729   -4.0049  -16.6701 O   0  0  0  0  0  0  0  0  0  0  0  0
  2  3  2  0
  2  1  1  0
  4  2  1  0
  5  4  1  0
  6  5  1  0
  6  8  1  0
  6  7  1  1
  8  9  2  0
  8 10  1  0
 10 14  1  0
 10 11  1  0
 11 12  1  0
 13 12  1  0
 14 13  1  0
 15 16  2  0
 14 15  1  6
 17 15  1  0
 18 17  1  0
 18 25  1  0
 18 19  1  1
 20 24  1  0
 20 19  1  0
 21 20  2  0
 22 21  1  0
 22 23  1  0
 23 24  2  0
 25 27  1  0
 26 25  2  0
M  END
$$$$
