PNM.pdb
     RDKit          3D

 24 24  0  0  1  0  0  0  0  0999 V2000
   28.5480  -18.5992  -16.0963 N   0  0  0  0  0  0  0  0  0  0  0  0
   27.8286  -18.3781  -17.3013 C   0  0  0  0  0  0  0  0  0  0  0  0
   27.0579  -17.0777  -17.1181 C   0  0  0  0  0  0  0  0  0  0  0  0
   27.4265  -16.5754  -15.7365 C   0  0  0  0  0  0  0  0  0  0  0  0
   27.9724  -17.8274  -15.0621 C   0  0  1  0  0  0  0  0  0  0  0  0
   26.9492  -18.5443  -14.3154 C   0  0  0  0  0  0  0  0  0  0  0  0
   26.1222  -17.9857  -13.5380 O   0  0  0  0  0  0  0  0  0  0  0  0
   23.7091  -22.1500  -12.6929 N   0  0  0  0  0  0  0  0  0  0  0  0
   24.4309  -22.7225  -13.7896 C   0  0  0  0  0  0  0  0  0  0  0  0
   24.0289  -23.8262  -14.2035 O   0  0  0  0  0  0  0  0  0  0  0  0
   25.5769  -22.0117  -14.3639 C   0  0  0  0  0  0  0  0  0  0  0  0
   25.8319  -20.6989  -13.6836 C   0  0  2  0  0  0  0  0  0  0  0  0
   26.8295  -19.9647  -14.4336 N   0  0  0  0  0  0  0  0  0  0  0  0
   26.2544  -20.9673  -12.2943 C   0  0  0  0  0  0  0  0  0  0  0  0
   27.1530  -21.8200  -12.0948 O   0  0  0  0  0  0  0  0  0  0  0  0
   29.7514  -19.5586   -7.3216 C   0  0  0  0  0  0  0  0  0  0  0  0
   28.0967  -19.3912   -6.6541 S   0  0  0  0  0  0  0  0  0  0  0  0
   26.8148  -20.2474   -7.5388 C   0  0  0  0  0  0  0  0  0  0  0  0
   26.7111  -20.0801   -8.9882 C   0  0  0  0  0  0  0  0  0  0  0  0
   25.7356  -20.7758   -9.8232 C   0  0  2  0  0  0  0  0  0  0  0  0
   25.6737  -20.2901  -11.1989 N   0  0  0  0  0  0  0  0  0  0  0  0
   24.3570  -20.9111   -9.3373 C   0  0  0  0  0  0  0  0  0  0  0  0
   23.3610  -20.3931   -9.9484 O   0  0  0  0  0  0  0  0  0  0  0  0
   24.0289  -21.6168   -8.1609 O   0  0  0  0  0  0  0  0  0  0  0  0
  1  2  1  0
  3  2  1  0
  4  3  1  0
  5  4  1  0
  5  1  1  0
  5  6  1  6
  7  6  2  0
  8  9  1  0
  9 10  2  0
 11  9  1  0
 12 11  1  6
 12 13  1  0
 13  6  1  0
 14 15  2  0
 14 12  1  0
 17 16  1  0
 18 17  1  0
 18 19  1  0
 20 19  1  1
 20 22  1  0
 20 21  1  0
 21 14  1  0
 22 24  1  0
 23 22  2  0
M  END
$$$$
