PNM.pdb
     RDKit          3D

 24 24  0  0  1  0  0  0  0  0999 V2000
   28.0678  -20.0792  -15.9736 N   0  0  0  0  0  0  0  0  0  0  0  0
   27.4900  -19.5224  -17.1460 C   0  0  0  0  0  0  0  0  0  0  0  0
   27.6853  -18.0149  -17.0563 C   0  0  0  0  0  0  0  0  0  0  0  0
   28.4420  -17.7771  -15.7649 C   0  0  0  0  0  0  0  0  0  0  0  0
   28.1997  -19.0687  -14.9947 C   0  0  1  0  0  0  0  0  0  0  0  0
   27.0484  -18.9770  -14.1089 C   0  0  0  0  0  0  0  0  0  0  0  0
   26.8385  -18.0075  -13.3238 O   0  0  0  0  0  0  0  0  0  0  0  0
   22.5215  -19.5819  -11.9059 N   0  0  0  0  0  0  0  0  0  0  0  0
   22.4853  -20.2832  -13.1544 C   0  0  0  0  0  0  0  0  0  0  0  0
   21.3677  -20.6770  -13.5380 O   0  0  0  0  0  0  0  0  0  0  0  0
   23.7231  -20.5034  -13.9077 C   0  0  0  0  0  0  0  0  0  0  0  0
   24.9265  -19.9559  -13.1984 C   0  0  2  0  0  0  0  0  0  0  0  0
   26.0673  -20.0176  -14.0881 N   0  0  0  0  0  0  0  0  0  0  0  0
   25.1332  -20.7342  -11.9606 C   0  0  0  0  0  0  0  0  0  0  0  0
   25.2425  -21.9811  -12.0474 O   0  0  0  0  0  0  0  0  0  0  0  0
   28.4451  -18.4922   -6.7558 C   0  0  0  0  0  0  0  0  0  0  0  0
   27.8467  -20.0808   -6.1813 S   0  0  0  0  0  0  0  0  0  0  0  0
   26.6285  -20.8670   -7.2092 C   0  0  0  0  0  0  0  0  0  0  0  0
   26.3474  -20.3162   -8.5347 C   0  0  0  0  0  0  0  0  0  0  0  0
   25.3270  -20.8414   -9.4380 C   0  0  2  0  0  0  0  0  0  0  0  0
   25.2099  -20.1091  -10.6960 N   0  0  0  0  0  0  0  0  0  0  0  0
   23.9699  -21.0588   -8.9225 C   0  0  0  0  0  0  0  0  0  0  0  0
   22.9603  -20.4031   -9.3521 O   0  0  0  0  0  0  0  0  0  0  0  0
   23.6790  -22.0015   -7.9143 O   0  0  0  0  0  0  0  0  0  0  0  0
  1  2  1  0
  3  2  1  0
  4  3  1  0
  5  4  1  0
  5  1  1  0
  5  6  1  6
  7  6  2  0
  8  9  1  0
  9 10  2  0
 11  9  1  0
 12 11  1  6
 12 13  1  0
 13  6  1  0
 14 15  2  0
 14 12  1  0
 17 16  1  0
 18 17  1  0
 18 19  1  0
 20 19  1  1
 20 22  1  0
 20 21  1  0
 21 14  1  0
 22 24  1  0
 23 22  2  0
M  END
$$$$
