PNM.pdb
     RDKit          3D

 24 24  0  0  1  0  0  0  0  0999 V2000
   16.5830  -10.8956  -15.5905 N   0  0  0  0  0  0  0  0  0  0  0  0
   17.6534  -10.9825  -16.5205 C   0  0  0  0  0  0  0  0  0  0  0  0
   18.6080  -12.0439  -15.9906 C   0  0  0  0  0  0  0  0  0  0  0  0
   17.9744  -12.5634  -14.7156 C   0  0  0  0  0  0  0  0  0  0  0  0
   16.9892  -11.4577  -14.3594 C   0  0  1  0  0  0  0  0  0  0  0  0
   17.5616  -10.4800  -13.4456 C   0  0  0  0  0  0  0  0  0  0  0  0
   18.0926  -10.7778  -12.3366 O   0  0  0  0  0  0  0  0  0  0  0  0
   20.4783   -7.2205  -11.8092 N   0  0  0  0  0  0  0  0  0  0  0  0
   20.0692   -6.6430  -13.0545 C   0  0  0  0  0  0  0  0  0  0  0  0
   20.8442   -5.8105  -13.5619 O   0  0  0  0  0  0  0  0  0  0  0  0
   18.7968   -7.0403  -13.6639 C   0  0  0  0  0  0  0  0  0  0  0  0
   18.0896   -8.0973  -12.8679 C   0  0  2  0  0  0  0  0  0  0  0  0
   17.5488   -9.0882  -13.7748 N   0  0  0  0  0  0  0  0  0  0  0  0
   17.0436   -7.4469  -12.0534 C   0  0  0  0  0  0  0  0  0  0  0  0
   15.9798   -7.0915  -12.6159 O   0  0  0  0  0  0  0  0  0  0  0  0
   13.8081  -10.2862  -10.4761 C   0  0  0  0  0  0  0  0  0  0  0  0
   13.5806   -9.4136   -8.9275 S   0  0  0  0  0  0  0  0  0  0  0  0
   14.1218   -7.7208   -8.9061 C   0  0  0  0  0  0  0  0  0  0  0  0
   15.5545   -7.4278   -8.8790 C   0  0  0  0  0  0  0  0  0  0  0  0
   16.2267   -6.5480   -9.8314 C   0  0  2  0  0  0  0  0  0  0  0  0
   17.2155   -7.2205  -10.6695 N   0  0  0  0  0  0  0  0  0  0  0  0
   16.8326   -5.3046   -9.3401 C   0  0  0  0  0  0  0  0  0  0  0  0
   18.0880   -5.0767   -9.4175 O   0  0  0  0  0  0  0  0  0  0  0  0
   16.0786   -4.2726   -8.7433 O   0  0  0  0  0  0  0  0  0  0  0  0
  1  2  1  0
  3  2  1  0
  4  3  1  0
  5  4  1  0
  5  1  1  0
  5  6  1  1
  7  6  2  0
  8  9  1  0
  9 10  2  0
 11  9  1  0
 12 11  1  6
 12 13  1  0
 13  6  1  0
 14 15  2  0
 14 12  1  0
 17 16  1  0
 18 17  1  0
 18 19  1  0
 20 19  1  1
 20 22  1  0
 20 21  1  0
 21 14  1  0
 22 24  1  0
 23 22  2  0
M  END
$$$$
