PNM.pdb
     RDKit          3D

 24 24  0  0  1  0  0  0  0  0999 V2000
   27.8109  -21.2736  -16.6118 N   0  0  0  0  0  0  0  0  0  0  0  0
   27.1787  -20.6950  -17.7449 C   0  0  0  0  0  0  0  0  0  0  0  0
   27.7471  -19.2901  -17.8930 C   0  0  0  0  0  0  0  0  0  0  0  0
   28.7646  -19.1416  -16.7796 C   0  0  0  0  0  0  0  0  0  0  0  0
   28.3631  -20.2476  -15.8123 C   0  0  1  0  0  0  0  0  0  0  0  0
   27.4530  -19.7755  -14.7791 C   0  0  0  0  0  0  0  0  0  0  0  0
   27.6584  -18.7437  -14.0766 O   0  0  0  0  0  0  0  0  0  0  0  0
   22.0397  -18.6048  -13.4552 N   0  0  0  0  0  0  0  0  0  0  0  0
   22.9194  -19.6618  -13.0543 C   0  0  0  0  0  0  0  0  0  0  0  0
   22.7823  -20.0879  -11.8921 O   0  0  0  0  0  0  0  0  0  0  0  0
   23.9142  -20.1842  -13.9955 C   0  0  0  0  0  0  0  0  0  0  0  0
   25.3172  -20.0243  -13.4884 C   0  0  2  0  0  0  0  0  0  0  0  0
   26.2413  -20.4839  -14.5040 N   0  0  0  0  0  0  0  0  0  0  0  0
   25.4459  -20.7781  -12.2252 C   0  0  0  0  0  0  0  0  0  0  0  0
   25.4575  -22.0319  -12.2735 O   0  0  0  0  0  0  0  0  0  0  0  0
   28.1719  -18.3047   -6.3852 C   0  0  0  0  0  0  0  0  0  0  0  0
   28.2015  -20.0946   -6.4686 S   0  0  0  0  0  0  0  0  0  0  0  0
   26.9385  -20.8438   -7.4698 C   0  0  0  0  0  0  0  0  0  0  0  0
   26.6749  -20.3113   -8.8062 C   0  0  0  0  0  0  0  0  0  0  0  0
   25.6409  -20.8245   -9.7009 C   0  0  2  0  0  0  0  0  0  0  0  0
   25.5554  -20.1226  -10.9786 N   0  0  0  0  0  0  0  0  0  0  0  0
   24.2746  -20.9804   -9.1872 C   0  0  0  0  0  0  0  0  0  0  0  0
   23.9752  -21.8339   -8.2841 O   0  0  0  0  0  0  0  0  0  0  0  0
   23.1916  -20.2059   -9.6532 O   0  0  0  0  0  0  0  0  0  0  0  0
  1  2  1  0
  3  2  1  0
  4  3  1  0
  5  4  1  0
  5  1  1  0
  5  6  1  1
  7  6  2  0
  8  9  1  0
  9 10  2  0
 11  9  1  0
 12 11  1  6
 12 13  1  0
 13  6  1  0
 14 15  2  0
 14 12  1  0
 17 16  1  0
 18 17  1  0
 18 19  1  0
 20 19  1  1
 20 22  1  0
 20 21  1  0
 21 14  1  0
 22 24  1  0
 23 22  2  0
M  END
$$$$
