PNM.pdb
     RDKit          3D

 24 24  0  0  1  0  0  0  0  0999 V2000
   28.8965  -20.5956  -15.0831 N   0  0  0  0  0  0  0  0  0  0  0  0
   28.3311  -21.3490  -16.1466 C   0  0  0  0  0  0  0  0  0  0  0  0
   27.6985  -20.3479  -17.1037 C   0  0  0  0  0  0  0  0  0  0  0  0
   27.9814  -18.9817  -16.5117 C   0  0  0  0  0  0  0  0  0  0  0  0
   28.3114  -19.3095  -15.0613 C   0  0  1  0  0  0  0  0  0  0  0  0
   27.1439  -19.2272  -14.1961 C   0  0  0  0  0  0  0  0  0  0  0  0
   26.0943  -18.5840  -14.4877 O   0  0  0  0  0  0  0  0  0  0  0  0
   22.4875  -19.7507  -12.6437 N   0  0  0  0  0  0  0  0  0  0  0  0
   23.5580  -20.5838  -12.1837 C   0  0  0  0  0  0  0  0  0  0  0  0
   23.3317  -21.2694  -11.1690 O   0  0  0  0  0  0  0  0  0  0  0  0
   24.8363  -20.5973  -12.9007 C   0  0  0  0  0  0  0  0  0  0  0  0
   25.9354  -19.9415  -12.1178 C   0  0  2  0  0  0  0  0  0  0  0  0
   27.1321  -19.8959  -12.9318 N   0  0  0  0  0  0  0  0  0  0  0  0
   26.1328  -20.6988  -10.8656 C   0  0  0  0  0  0  0  0  0  0  0  0
   26.4277  -21.9161  -10.9411 O   0  0  0  0  0  0  0  0  0  0  0  0
   29.8764  -19.7880   -5.4531 C   0  0  0  0  0  0  0  0  0  0  0  0
   28.2142  -19.2812   -5.0151 S   0  0  0  0  0  0  0  0  0  0  0  0
   26.9093  -19.9644   -6.0097 C   0  0  0  0  0  0  0  0  0  0  0  0
   27.1423  -20.1964   -7.4349 C   0  0  0  0  0  0  0  0  0  0  0  0
   26.1627  -20.7983   -8.3355 C   0  0  2  0  0  0  0  0  0  0  0  0
   25.9980  -20.0863   -9.5998 N   0  0  0  0  0  0  0  0  0  0  0  0
   24.8228  -21.1051   -7.8204 C   0  0  0  0  0  0  0  0  0  0  0  0
   24.6293  -21.9247   -6.8589 O   0  0  0  0  0  0  0  0  0  0  0  0
   23.6511  -20.5240   -8.3488 O   0  0  0  0  0  0  0  0  0  0  0  0
  1  2  1  0
  3  2  1  0
  4  3  1  0
  5  4  1  0
  5  1  1  0
  5  6  1  1
  7  6  2  0
  8  9  1  0
  9 10  2  0
 11  9  1  0
 12 11  1  6
 12 13  1  0
 13  6  1  0
 14 15  2  0
 14 12  1  0
 17 16  1  0
 18 17  1  0
 18 19  1  0
 20 19  1  1
 20 22  1  0
 20 21  1  0
 21 14  1  0
 22 24  1  0
 23 22  2  0
M  END
$$$$
