PNM.pdb
     RDKit          3D

 24 24  0  0  1  0  0  0  0  0999 V2000
   15.9908  -12.6642  -14.5441 N   0  0  0  0  0  0  0  0  0  0  0  0
   14.6938  -13.1201  -14.1859 C   0  0  0  0  0  0  0  0  0  0  0  0
   13.7476  -12.6537  -15.2840 C   0  0  0  0  0  0  0  0  0  0  0  0
   14.6178  -11.9336  -16.2945 C   0  0  0  0  0  0  0  0  0  0  0  0
   15.8728  -11.6211  -15.4900 C   0  0  1  0  0  0  0  0  0  0  0  0
   15.8249  -10.2999  -14.8811 C   0  0  0  0  0  0  0  0  0  0  0  0
   15.5588   -9.2395  -15.5176 O   0  0  0  0  0  0  0  0  0  0  0  0
   13.5291  -10.0596  -10.5529 N   0  0  0  0  0  0  0  0  0  0  0  0
   14.1080   -9.1552  -11.5008 C   0  0  0  0  0  0  0  0  0  0  0  0
   13.3238   -8.6141  -12.3028 O   0  0  0  0  0  0  0  0  0  0  0  0
   15.5529   -8.9091  -11.4913 C   0  0  0  0  0  0  0  0  0  0  0  0
   16.1253   -8.8242  -12.8756 C   0  0  2  0  0  0  0  0  0  0  0  0
   16.0854  -10.1376  -13.4841 N   0  0  0  0  0  0  0  0  0  0  0  0
   17.4976   -8.2871  -12.7813 C   0  0  0  0  0  0  0  0  0  0  0  0
   18.2425   -8.7029  -11.8612 O   0  0  0  0  0  0  0  0  0  0  0  0
   23.1591  -10.2336  -13.0042 C   0  0  0  0  0  0  0  0  0  0  0  0
   22.7984   -9.2173  -14.4354 S   0  0  0  0  0  0  0  0  0  0  0  0
   21.7662   -7.8011  -14.1388 C   0  0  0  0  0  0  0  0  0  0  0  0
   20.3149   -7.9731  -14.0798 C   0  0  0  0  0  0  0  0  0  0  0  0
   19.3774   -6.9003  -13.7587 C   0  0  2  0  0  0  0  0  0  0  0  0
   17.9820   -7.3261  -13.6965 N   0  0  0  0  0  0  0  0  0  0  0  0
   19.4287   -5.6585  -14.5398 C   0  0  0  0  0  0  0  0  0  0  0  0
   20.4368   -4.8731  -14.5129 O   0  0  0  0  0  0  0  0  0  0  0  0
   18.3712   -5.2372  -15.3728 O   0  0  0  0  0  0  0  0  0  0  0  0
  1  2  1  0
  3  2  1  0
  4  3  1  0
  5  4  1  0
  5  1  1  0
  5  6  1  1
  7  6  2  0
  8  9  1  0
  9 10  2  0
 11  9  1  0
 12 11  1  1
 12 13  1  0
 13  6  1  0
 14 15  2  0
 14 12  1  0
 17 16  1  0
 18 17  1  0
 18 19  1  0
 20 19  1  6
 20 22  1  0
 20 21  1  0
 21 14  1  0
 22 24  1  0
 23 22  2  0
M  END
$$$$
