WEE.pdb
     RDKit          3D

 33 34  0  0  1  0  0  0  0  0999 V2000
    7.2597  -17.9109   24.2588 N   0  0  0  0  0  0  0  0  0  0  0  0
    8.1541  -16.8132   24.2556 C   0  0  1  0  0  0  0  0  0  0  0  0
    8.4076  -16.1392   25.5585 C   0  0  0  0  0  0  0  0  0  0  0  0
    7.3308  -15.2034   25.8957 C   0  0  0  0  0  0  0  0  0  0  0  0
    6.0618  -15.5889   26.2819 C   0  0  0  0  0  0  0  0  0  0  0  0
    5.3840  -14.4613   26.5253 N   0  0  0  0  0  0  0  0  0  0  0  0
    6.1679  -13.3854   26.3097 C   0  0  0  0  0  0  0  0  0  0  0  0
    5.9565  -12.0232   26.4092 C   0  0  0  0  0  0  0  0  0  0  0  0
    6.9663  -11.1470   26.1122 C   0  0  0  0  0  0  0  0  0  0  0  0
    8.2149  -11.5682   25.7084 C   0  0  0  0  0  0  0  0  0  0  0  0
    8.4340  -12.9321   25.6066 C   0  0  0  0  0  0  0  0  0  0  0  0
    7.4168  -13.8168   25.9066 C   0  0  0  0  0  0  0  0  0  0  0  0
    9.4633  -17.0731   23.5956 C   0  0  0  0  0  0  0  0  0  0  0  0
   10.0105  -18.1520   23.8940 O   0  0  0  0  0  0  0  0  0  0  0  0
   10.1082  -16.2273   22.6951 N   0  0  0  0  0  0  0  0  0  0  0  0
   11.3332  -16.4863   22.0475 C   0  0  1  0  0  0  0  0  0  0  0  0
   11.6016  -15.9195   20.7068 C   0  0  0  0  0  0  0  0  0  0  0  0
   10.6551  -16.4037   19.6632 C   0  0  0  0  0  0  0  0  0  0  0  0
   11.1619  -17.7059   19.1185 C   0  0  0  0  0  0  0  0  0  0  0  0
   12.3420  -17.8906   18.7683 O   0  0  0  0  0  0  0  0  0  0  0  0
   12.4511  -16.4334   23.0005 C   0  0  0  0  0  0  0  0  0  0  0  0
   12.6563  -15.3466   23.6520 O   0  0  0  0  0  0  0  0  0  0  0  0
   10.3057  -18.7999   18.9765 O   0  0  0  0  0  0  0  0  0  0  0  0
   13.3312  -17.4998   23.2606 N   0  0  0  0  0  0  0  0  0  0  0  0
   14.4217  -17.3073   24.1935 C   0  0  1  0  0  0  0  0  0  0  0  0
   14.8078  -18.6517   24.7282 C   0  0  0  0  0  0  0  0  0  0  0  0
   13.7512  -19.3659   25.4891 C   0  0  0  0  0  0  0  0  0  0  0  0
   14.1963  -20.0926   26.6831 C   0  0  0  0  0  0  0  0  0  0  0  0
   14.5122  -21.3058   26.5886 O   0  0  0  0  0  0  0  0  0  0  0  0
   15.5447  -16.6992   23.3981 C   0  0  0  0  0  0  0  0  0  0  0  0
   16.6686  -16.1589   24.0216 O   0  0  0  0  0  0  0  0  0  0  0  0
   14.2911  -19.5068   27.9363 O   0  0  0  0  0  0  0  0  0  0  0  0
   15.5144  -16.6542   22.1441 O   0  0  0  0  0  0  0  0  0  0  0  0
  2  1  1  1
  2  3  1  0
  4  5  2  0
  4  3  1  0
  6  5  1  0
  7 12  2  0
  7  6  1  0
  8  7  1  0
  9 10  1  0
  9  8  2  0
 10 11  2  0
 11 12  1  0
 12  4  1  0
 13  2  1  0
 14 13  2  0
 15 13  1  0
 16 15  1  0
 16 17  1  6
 18 19  1  0
 18 17  1  0
 19 23  1  0
 20 19  2  0
 21 24  1  0
 21 16  1  0
 22 21  2  0
 25 24  1  0
 25 30  1  0
 25 26  1  6
 26 27  1  0
 27 28  1  0
 28 29  2  0
 30 31  1  0
 32 28  1  0
 33 30  2  0
M  END
$$$$
