WEE.pdb
     RDKit          3D

 33 34  0  0  1  0  0  0  0  0999 V2000
    6.7852  -16.1499   22.5712 N   0  0  0  0  0  0  0  0  0  0  0  0
    8.1665  -16.0432   22.8640 C   0  0  1  0  0  0  0  0  0  0  0  0
    8.5392  -15.4414   24.1736 C   0  0  0  0  0  0  0  0  0  0  0  0
    7.3716  -14.8719   24.8528 C   0  0  0  0  0  0  0  0  0  0  0  0
    6.3299  -15.6219   25.3632 C   0  0  0  0  0  0  0  0  0  0  0  0
    5.4796  -14.7529   25.9220 N   0  0  0  0  0  0  0  0  0  0  0  0
    5.9384  -13.4922   25.7861 C   0  0  0  0  0  0  0  0  0  0  0  0
    5.4496  -12.2586   26.1728 C   0  0  0  0  0  0  0  0  0  0  0  0
    6.1520  -11.1190   25.8835 C   0  0  0  0  0  0  0  0  0  0  0  0
    7.3530  -11.1430   25.2080 C   0  0  0  0  0  0  0  0  0  0  0  0
    7.8491  -12.3759   24.8175 C   0  0  0  0  0  0  0  0  0  0  0  0
    7.1423  -13.5259   25.1094 C   0  0  0  0  0  0  0  0  0  0  0  0
    8.9447  -17.2997   22.6829 C   0  0  0  0  0  0  0  0  0  0  0  0
    8.4846  -18.1008   21.8468 O   0  0  0  0  0  0  0  0  0  0  0  0
   10.1154  -17.6417   23.3571 N   0  0  0  0  0  0  0  0  0  0  0  0
   11.4169  -17.6287   22.8156 C   0  0  1  0  0  0  0  0  0  0  0  0
   11.6669  -17.0159   21.4917 C   0  0  0  0  0  0  0  0  0  0  0  0
   12.4350  -15.7417   21.5688 C   0  0  0  0  0  0  0  0  0  0  0  0
   13.2923  -15.6199   20.3443 C   0  0  0  0  0  0  0  0  0  0  0  0
   13.5993  -16.5864   19.6224 O   0  0  0  0  0  0  0  0  0  0  0  0
   12.4140  -17.3361   23.8552 C   0  0  0  0  0  0  0  0  0  0  0  0
   13.6551  -17.3044   23.5290 O   0  0  0  0  0  0  0  0  0  0  0  0
   13.7982  -14.3796   19.9496 O   0  0  0  0  0  0  0  0  0  0  0  0
   12.1106  -17.0830   25.2055 N   0  0  0  0  0  0  0  0  0  0  0  0
   13.0340  -17.5171   26.2328 C   0  0  1  0  0  0  0  0  0  0  0  0
   12.5001  -17.0526   27.5525 C   0  0  0  0  0  0  0  0  0  0  0  0
   11.5866  -15.8830   27.4980 C   0  0  0  0  0  0  0  0  0  0  0  0
   10.9737  -15.4841   28.7697 C   0  0  0  0  0  0  0  0  0  0  0  0
    9.7258  -15.3488   28.8408 O   0  0  0  0  0  0  0  0  0  0  0  0
   13.0596  -19.0196   26.1588 C   0  0  0  0  0  0  0  0  0  0  0  0
   13.9765  -19.7689   26.8947 O   0  0  0  0  0  0  0  0  0  0  0  0
   11.7060  -15.2427   29.9221 O   0  0  0  0  0  0  0  0  0  0  0  0
   12.2582  -19.6568   25.4328 O   0  0  0  0  0  0  0  0  0  0  0  0
  2  1  1  1
  2  3  1  0
  4  5  2  0
  4  3  1  0
  6  5  1  0
  7 12  2  0
  7  6  1  0
  8  7  1  0
  9 10  1  0
  9  8  2  0
 10 11  2  0
 11 12  1  0
 12  4  1  0
 13  2  1  0
 14 13  2  0
 15 13  1  0
 16 15  1  0
 16 17  1  6
 18 19  1  0
 18 17  1  0
 19 23  1  0
 20 19  2  0
 21 24  1  0
 21 16  1  0
 22 21  2  0
 25 24  1  0
 25 30  1  0
 25 26  1  1
 26 27  1  0
 27 28  1  0
 28 29  2  0
 30 31  1  0
 32 28  1  0
 33 30  2  0
M  END
$$$$
