WEE.pdb
     RDKit          3D

 33 34  0  0  1  0  0  0  0  0999 V2000
    6.9788  -17.3343   23.9554 N   0  0  0  0  0  0  0  0  0  0  0  0
    7.9699  -16.3669   23.6606 C   0  0  1  0  0  0  0  0  0  0  0  0
    8.4281  -15.5001   24.7808 C   0  0  0  0  0  0  0  0  0  0  0  0
    7.3177  -14.7332   25.3531 C   0  0  0  0  0  0  0  0  0  0  0  0
    6.1611  -15.2996   25.8528 C   0  0  0  0  0  0  0  0  0  0  0  0
    5.4109  -14.2874   26.3031 N   0  0  0  0  0  0  0  0  0  0  0  0
    6.0419  -13.1116   26.1094 C   0  0  0  0  0  0  0  0  0  0  0  0
    5.7069  -11.7992   26.3844 C   0  0  0  0  0  0  0  0  0  0  0  0
    6.5700  -10.7865   26.0597 C   0  0  0  0  0  0  0  0  0  0  0  0
    7.7872  -11.0183   25.4565 C   0  0  0  0  0  0  0  0  0  0  0  0
    8.1297  -12.3312   25.1781 C   0  0  0  0  0  0  0  0  0  0  0  0
    7.2608  -13.3534   25.5057 C   0  0  0  0  0  0  0  0  0  0  0  0
    9.1680  -16.8931   22.9500 C   0  0  0  0  0  0  0  0  0  0  0  0
    9.6744  -17.9209   23.4394 O   0  0  0  0  0  0  0  0  0  0  0  0
    9.7524  -16.3412   21.8116 N   0  0  0  0  0  0  0  0  0  0  0  0
   11.1240  -16.3713   21.4874 C   0  0  1  0  0  0  0  0  0  0  0  0
   11.6311  -15.6112   20.3230 C   0  0  0  0  0  0  0  0  0  0  0  0
   13.0839  -15.8230   20.0696 C   0  0  0  0  0  0  0  0  0  0  0  0
   13.4894  -15.0097   18.8765 C   0  0  0  0  0  0  0  0  0  0  0  0
   13.3262  -15.3865   17.7014 O   0  0  0  0  0  0  0  0  0  0  0  0
   11.9508  -16.3103   22.7012 C   0  0  0  0  0  0  0  0  0  0  0  0
   11.7607  -15.3487   23.5301 O   0  0  0  0  0  0  0  0  0  0  0  0
   14.0856  -13.7573   19.0376 O   0  0  0  0  0  0  0  0  0  0  0  0
   12.9533  -17.2397   23.0334 N   0  0  0  0  0  0  0  0  0  0  0  0
   13.6606  -17.1008   24.2892 C   0  0  1  0  0  0  0  0  0  0  0  0
   13.3026  -18.2750   25.1470 C   0  0  0  0  0  0  0  0  0  0  0  0
   14.0258  -18.3673   26.4408 C   0  0  0  0  0  0  0  0  0  0  0  0
   13.6595  -19.4946   27.3050 C   0  0  0  0  0  0  0  0  0  0  0  0
   14.1788  -20.6221   27.1065 O   0  0  0  0  0  0  0  0  0  0  0  0
   15.1247  -17.1107   23.9433 C   0  0  0  0  0  0  0  0  0  0  0  0
   15.5691  -17.4611   22.6691 O   0  0  0  0  0  0  0  0  0  0  0  0
   12.7550  -19.3864   28.3504 O   0  0  0  0  0  0  0  0  0  0  0  0
   16.0026  -16.8045   24.7865 O   0  0  0  0  0  0  0  0  0  0  0  0
  2  1  1  1
  2  3  1  0
  4  5  2  0
  4  3  1  0
  6  5  1  0
  7 12  2  0
  7  6  1  0
  8  7  1  0
  9 10  1  0
  9  8  2  0
 10 11  2  0
 11 12  1  0
 12  4  1  0
 13  2  1  0
 14 13  2  0
 15 13  1  0
 16 15  1  0
 16 17  1  6
 18 19  1  0
 18 17  1  0
 19 23  1  0
 20 19  2  0
 21 24  1  0
 21 16  1  0
 22 21  2  0
 25 24  1  0
 25 30  1  0
 25 26  1  1
 26 27  1  0
 27 28  1  0
 28 29  2  0
 30 31  1  0
 32 28  1  0
 33 30  2  0
M  END
$$$$
