WEE.pdb
     RDKit          3D

 33 34  0  0  1  0  0  0  0  0999 V2000
    6.4306  -18.4449   24.9600 N   0  0  0  0  0  0  0  0  0  0  0  0
    6.7315  -17.6422   23.8331 C   0  0  1  0  0  0  0  0  0  0  0  0
    6.1333  -16.2797   23.7898 C   0  0  0  0  0  0  0  0  0  0  0  0
    6.4263  -15.5272   25.0132 C   0  0  0  0  0  0  0  0  0  0  0  0
    6.1917  -16.0012   26.2894 C   0  0  0  0  0  0  0  0  0  0  0  0
    6.6094  -15.0459   27.1279 N   0  0  0  0  0  0  0  0  0  0  0  0
    7.0951  -13.9939   26.4382 C   0  0  0  0  0  0  0  0  0  0  0  0
    7.6331  -12.7785   26.8173 C   0  0  0  0  0  0  0  0  0  0  0  0
    8.0469  -11.8832   25.8670 C   0  0  0  0  0  0  0  0  0  0  0  0
    7.9505  -12.1417   24.5168 C   0  0  0  0  0  0  0  0  0  0  0  0
    7.4126  -13.3579   24.1295 C   0  0  0  0  0  0  0  0  0  0  0  0
    6.9956  -14.2620   25.0866 C   0  0  0  0  0  0  0  0  0  0  0  0
    8.1811  -17.5320   23.5107 C   0  0  0  0  0  0  0  0  0  0  0  0
    8.9541  -18.0837   24.3173 O   0  0  0  0  0  0  0  0  0  0  0  0
    8.7270  -16.8776   22.4082 N   0  0  0  0  0  0  0  0  0  0  0  0
   10.0494  -17.0096   21.9378 C   0  0  1  0  0  0  0  0  0  0  0  0
   10.3661  -16.7345   20.5183 C   0  0  0  0  0  0  0  0  0  0  0  0
   11.7773  -17.0491   20.1588 C   0  0  0  0  0  0  0  0  0  0  0  0
   11.9753  -16.7769   18.6973 C   0  0  0  0  0  0  0  0  0  0  0  0
   13.0508  -16.3798   18.2125 O   0  0  0  0  0  0  0  0  0  0  0  0
   11.0097  -16.4880   22.9208 C   0  0  0  0  0  0  0  0  0  0  0  0
   10.6083  -15.6169   23.7740 O   0  0  0  0  0  0  0  0  0  0  0  0
   10.9299  -16.9630   17.7902 O   0  0  0  0  0  0  0  0  0  0  0  0
   12.3598  -16.8749   23.0028 N   0  0  0  0  0  0  0  0  0  0  0  0
   13.2268  -16.2233   23.9621 C   0  0  1  0  0  0  0  0  0  0  0  0
   12.7560  -16.6005   25.3328 C   0  0  0  0  0  0  0  0  0  0  0  0
   12.7029  -18.0578   25.6133 C   0  0  0  0  0  0  0  0  0  0  0  0
   12.4081  -18.4371   26.9993 C   0  0  0  0  0  0  0  0  0  0  0  0
   13.3516  -18.5718   27.8192 O   0  0  0  0  0  0  0  0  0  0  0  0
   14.6092  -16.7562   23.6999 C   0  0  0  0  0  0  0  0  0  0  0  0
   15.7233  -16.2491   24.3673 O   0  0  0  0  0  0  0  0  0  0  0  0
   11.1222  -18.6602   27.4677 O   0  0  0  0  0  0  0  0  0  0  0  0
   14.8139  -17.6765   22.8713 O   0  0  0  0  0  0  0  0  0  0  0  0
  2  1  1  1
  2  3  1  0
  4  5  2  0
  4  3  1  0
  6  5  1  0
  7 12  2  0
  7  6  1  0
  8  7  1  0
  9 10  1  0
  9  8  2  0
 10 11  2  0
 11 12  1  0
 12  4  1  0
 13  2  1  0
 14 13  2  0
 15 13  1  0
 16 15  1  0
 16 17  1  6
 18 19  1  0
 18 17  1  0
 19 23  1  0
 20 19  2  0
 21 24  1  0
 21 16  1  0
 22 21  2  0
 25 24  1  0
 25 30  1  0
 25 26  1  1
 26 27  1  0
 27 28  1  0
 28 29  2  0
 30 31  1  0
 32 28  1  0
 33 30  2  0
M  END
$$$$
