WEE.pdb
     RDKit          3D

 33 34  0  0  1  0  0  0  0  0999 V2000
    6.6253  -17.6667   24.4893 N   0  0  0  0  0  0  0  0  0  0  0  0
    7.6940  -16.8186   24.1107 C   0  0  1  0  0  0  0  0  0  0  0  0
    8.1773  -15.8406   25.1237 C   0  0  0  0  0  0  0  0  0  0  0  0
    7.1224  -14.8955   25.5014 C   0  0  0  0  0  0  0  0  0  0  0  0
    5.9006  -15.2677   26.0276 C   0  0  0  0  0  0  0  0  0  0  0  0
    5.2313  -14.1334   26.2630 N   0  0  0  0  0  0  0  0  0  0  0  0
    5.9755  -13.0660   25.9091 C   0  0  0  0  0  0  0  0  0  0  0  0
    5.7537  -11.7022   25.9436 C   0  0  0  0  0  0  0  0  0  0  0  0
    6.7183  -10.8371   25.5000 C   0  0  0  0  0  0  0  0  0  0  0  0
    7.9303  -11.2713   25.0082 C   0  0  0  0  0  0  0  0  0  0  0  0
    8.1596  -12.6367   24.9708 C   0  0  0  0  0  0  0  0  0  0  0  0
    7.1881  -13.5102   25.4186 C   0  0  0  0  0  0  0  0  0  0  0  0
    8.8731  -17.5173   23.5285 C   0  0  0  0  0  0  0  0  0  0  0  0
    9.3321  -18.4544   24.2093 O   0  0  0  0  0  0  0  0  0  0  0  0
    9.4876  -17.2137   22.3153 N   0  0  0  0  0  0  0  0  0  0  0  0
   10.7549  -17.6644   21.8932 C   0  0  1  0  0  0  0  0  0  0  0  0
   11.1473  -17.5584   20.4699 C   0  0  0  0  0  0  0  0  0  0  0  0
   12.5247  -18.0583   20.2006 C   0  0  0  0  0  0  0  0  0  0  0  0
   12.8438  -17.8375   18.7519 C   0  0  0  0  0  0  0  0  0  0  0  0
   13.0539  -16.7140   18.2589 O   0  0  0  0  0  0  0  0  0  0  0  0
   11.7914  -17.3051   22.8716 C   0  0  0  0  0  0  0  0  0  0  0  0
   11.8830  -16.0830   23.2534 O   0  0  0  0  0  0  0  0  0  0  0  0
   12.9211  -18.9153   17.8674 O   0  0  0  0  0  0  0  0  0  0  0  0
   12.7088  -18.2115   23.4338 N   0  0  0  0  0  0  0  0  0  0  0  0
   13.6662  -17.7366   24.4108 C   0  0  1  0  0  0  0  0  0  0  0  0
   13.1289  -18.0594   25.7708 C   0  0  0  0  0  0  0  0  0  0  0  0
   12.8764  -19.4989   26.0347 C   0  0  0  0  0  0  0  0  0  0  0  0
   12.5596  -19.8540   27.4222 C   0  0  0  0  0  0  0  0  0  0  0  0
   13.0762  -20.8799   27.9330 O   0  0  0  0  0  0  0  0  0  0  0  0
   14.9410  -18.4885   24.1409 C   0  0  0  0  0  0  0  0  0  0  0  0
   16.1093  -18.2192   24.8525 O   0  0  0  0  0  0  0  0  0  0  0  0
   11.7055  -19.1078   28.2201 O   0  0  0  0  0  0  0  0  0  0  0  0
   15.0034  -19.3862   23.2659 O   0  0  0  0  0  0  0  0  0  0  0  0
  2  1  1  1
  2  3  1  0
  4  5  2  0
  4  3  1  0
  6  5  1  0
  7 12  2  0
  7  6  1  0
  8  7  1  0
  9 10  1  0
  9  8  2  0
 10 11  2  0
 11 12  1  0
 12  4  1  0
 13  2  1  0
 14 13  2  0
 15 13  1  0
 16 15  1  0
 16 17  1  6
 18 19  1  0
 18 17  1  0
 19 23  1  0
 20 19  2  0
 21 24  1  0
 21 16  1  0
 22 21  2  0
 25 24  1  0
 25 30  1  0
 25 26  1  1
 26 27  1  0
 27 28  1  0
 28 29  2  0
 30 31  1  0
 32 28  1  0
 33 30  2  0
M  END
$$$$
