WEE.pdb
     RDKit          3D

 33 34  0  0  1  0  0  0  0  0999 V2000
    7.0078  -17.6294   23.7474 N   0  0  0  0  0  0  0  0  0  0  0  0
    8.0976  -16.7333   23.6277 C   0  0  1  0  0  0  0  0  0  0  0  0
    8.4962  -15.9809   24.8488 C   0  0  0  0  0  0  0  0  0  0  0  0
    7.3978  -15.1477   25.3467 C   0  0  0  0  0  0  0  0  0  0  0  0
    6.1785  -15.6429   25.7666 C   0  0  0  0  0  0  0  0  0  0  0  0
    5.4616  -14.5867   26.1675 N   0  0  0  0  0  0  0  0  0  0  0  0
    6.1735  -13.4512   26.0187 C   0  0  0  0  0  0  0  0  0  0  0  0
    5.8998  -12.1205   26.2731 C   0  0  0  0  0  0  0  0  0  0  0  0
    6.8417  -11.1619   26.0090 C   0  0  0  0  0  0  0  0  0  0  0  0
    8.0807  -11.4674   25.4884 C   0  0  0  0  0  0  0  0  0  0  0  0
    8.3620  -12.7990   25.2311 C   0  0  0  0  0  0  0  0  0  0  0  0
    7.4134  -13.7667   25.4977 C   0  0  0  0  0  0  0  0  0  0  0  0
    9.3218  -17.3138   23.0099 C   0  0  0  0  0  0  0  0  0  0  0  0
    9.8199  -18.2834   23.6135 O   0  0  0  0  0  0  0  0  0  0  0  0
    9.9382  -16.8700   21.8416 N   0  0  0  0  0  0  0  0  0  0  0  0
   11.1895  -17.2966   21.3519 C   0  0  1  0  0  0  0  0  0  0  0  0
   11.5482  -17.0772   19.9327 C   0  0  0  0  0  0  0  0  0  0  0  0
   10.9541  -18.0874   19.0128 C   0  0  0  0  0  0  0  0  0  0  0  0
   11.3279  -17.7359   17.6035 C   0  0  0  0  0  0  0  0  0  0  0  0
   10.7883  -16.8178   16.9589 O   0  0  0  0  0  0  0  0  0  0  0  0
   12.2536  -17.0295   22.3300 C   0  0  0  0  0  0  0  0  0  0  0  0
   12.2962  -15.8788   22.8973 O   0  0  0  0  0  0  0  0  0  0  0  0
   12.3275  -18.4448   16.9340 O   0  0  0  0  0  0  0  0  0  0  0  0
   13.2485  -17.9523   22.7013 N   0  0  0  0  0  0  0  0  0  0  0  0
   14.2317  -17.5734   23.6944 C   0  0  1  0  0  0  0  0  0  0  0  0
   14.4692  -18.7594   24.5774 C   0  0  0  0  0  0  0  0  0  0  0  0
   15.6052  -18.6348   25.5256 C   0  0  0  0  0  0  0  0  0  0  0  0
   15.8945  -19.8173   26.3440 C   0  0  0  0  0  0  0  0  0  0  0  0
   15.0134  -20.2637   27.1216 O   0  0  0  0  0  0  0  0  0  0  0  0
   15.4754  -17.2117   22.9291 C   0  0  0  0  0  0  0  0  0  0  0  0
   16.4203  -16.3293   23.4510 O   0  0  0  0  0  0  0  0  0  0  0  0
   17.1089  -20.4857   26.3087 O   0  0  0  0  0  0  0  0  0  0  0  0
   15.7113  -17.6890   21.7924 O   0  0  0  0  0  0  0  0  0  0  0  0
  2  1  1  1
  2  3  1  0
  4  5  2  0
  4  3  1  0
  6  5  1  0
  7 12  2  0
  7  6  1  0
  8  7  1  0
  9 10  1  0
  9  8  2  0
 10 11  2  0
 11 12  1  0
 12  4  1  0
 13  2  1  0
 14 13  2  0
 15 13  1  0
 16 15  1  0
 16 17  1  6
 18 19  1  0
 18 17  1  0
 19 23  1  0
 20 19  2  0
 21 24  1  0
 21 16  1  0
 22 21  2  0
 25 24  1  0
 25 30  1  0
 25 26  1  1
 26 27  1  0
 27 28  1  0
 28 29  2  0
 30 31  1  0
 32 28  1  0
 33 30  2  0
M  END
$$$$
