WEE.pdb
     RDKit          3D

 33 34  0  0  1  0  0  0  0  0999 V2000
    7.0902  -16.4282   22.8503 N   0  0  0  0  0  0  0  0  0  0  0  0
    8.3013  -16.2378   23.5588 C   0  0  1  0  0  0  0  0  0  0  0  0
    8.2219  -16.2086   25.0450 C   0  0  0  0  0  0  0  0  0  0  0  0
    7.2807  -15.1859   25.5109 C   0  0  0  0  0  0  0  0  0  0  0  0
    6.0412  -15.4633   26.0538 C   0  0  0  0  0  0  0  0  0  0  0  0
    5.4993  -14.2833   26.3762 N   0  0  0  0  0  0  0  0  0  0  0  0
    6.3404  -13.2775   26.0610 C   0  0  0  0  0  0  0  0  0  0  0  0
    6.2619  -11.9029   26.1817 C   0  0  0  0  0  0  0  0  0  0  0  0
    7.2989  -11.1149   25.7582 C   0  0  0  0  0  0  0  0  0  0  0  0
    8.4462  -11.6393   25.2032 C   0  0  0  0  0  0  0  0  0  0  0  0
    8.5319  -13.0162   25.0792 C   0  0  0  0  0  0  0  0  0  0  0  0
    7.4873  -13.8120   25.5066 C   0  0  0  0  0  0  0  0  0  0  0  0
    9.4095  -17.1502   23.1628 C   0  0  0  0  0  0  0  0  0  0  0  0
   10.0065  -17.7096   24.1026 O   0  0  0  0  0  0  0  0  0  0  0  0
    9.8212  -17.4202   21.8592 N   0  0  0  0  0  0  0  0  0  0  0  0
   11.1445  -17.6735   21.4442 C   0  0  1  0  0  0  0  0  0  0  0  0
   11.5660  -17.3534   20.0620 C   0  0  0  0  0  0  0  0  0  0  0  0
   13.0105  -17.6180   19.8113 C   0  0  0  0  0  0  0  0  0  0  0  0
   13.1314  -18.6773   18.7565 C   0  0  0  0  0  0  0  0  0  0  0  0
   13.0008  -19.8936   18.9870 O   0  0  0  0  0  0  0  0  0  0  0  0
   12.1018  -17.3227   22.5031 C   0  0  0  0  0  0  0  0  0  0  0  0
   12.4249  -16.0903   22.6599 O   0  0  0  0  0  0  0  0  0  0  0  0
   13.4038  -18.3341   17.4305 O   0  0  0  0  0  0  0  0  0  0  0  0
   12.7039  -18.2479   23.3753 N   0  0  0  0  0  0  0  0  0  0  0  0
   13.7166  -17.7912   24.3040 C   0  0  1  0  0  0  0  0  0  0  0  0
   13.2202  -18.0626   25.6905 C   0  0  0  0  0  0  0  0  0  0  0  0
   12.7849  -19.4578   25.9534 C   0  0  0  0  0  0  0  0  0  0  0  0
   12.4312  -19.7719   27.3419 C   0  0  0  0  0  0  0  0  0  0  0  0
   13.3075  -20.2354   28.1151 O   0  0  0  0  0  0  0  0  0  0  0  0
   14.9492  -18.5998   24.0033 C   0  0  0  0  0  0  0  0  0  0  0  0
   16.1418  -18.3931   24.6952 O   0  0  0  0  0  0  0  0  0  0  0  0
   11.1599  -19.5831   27.8623 O   0  0  0  0  0  0  0  0  0  0  0  0
   14.9527  -19.4908   23.1192 O   0  0  0  0  0  0  0  0  0  0  0  0
  2  1  1  6
  2  3  1  0
  4  5  2  0
  4  3  1  0
  6  5  1  0
  7 12  2  0
  7  6  1  0
  8  7  1  0
  9 10  1  0
  9  8  2  0
 10 11  2  0
 11 12  1  0
 12  4  1  0
 13  2  1  0
 14 13  2  0
 15 13  1  0
 16 15  1  0
 16 17  1  6
 18 19  1  0
 18 17  1  0
 19 23  1  0
 20 19  2  0
 21 24  1  0
 21 16  1  0
 22 21  2  0
 25 24  1  0
 25 30  1  0
 25 26  1  1
 26 27  1  0
 27 28  1  0
 28 29  2  0
 30 31  1  0
 32 28  1  0
 33 30  2  0
M  END
$$$$
