KVI.pdb
     RDKit          3D

 25 24  0  0  1  0  0  0  0  0999 V2000
   18.9329  -24.6239   -9.5278 N   0  0  0  0  0  0  0  0  0  0  0  0
   18.2181  -25.6796   -8.8366 C   0  0  1  0  0  0  0  0  0  0  0  0
   18.9798  -26.9329   -8.9191 C   0  0  0  0  0  0  0  0  0  0  0  0
   18.8745  -27.8527  -10.0443 C   0  0  0  0  0  0  0  0  0  0  0  0
   17.9369  -27.7041  -11.1538 C   0  0  0  0  0  0  0  0  0  0  0  0
   17.9133  -28.8294  -12.1317 C   0  0  0  0  0  0  0  0  0  0  0  0
   16.9359  -28.4826  -13.2076 N   0  0  0  0  0  0  0  0  0  0  0  0
   18.1488  -25.3398   -7.3548 C   0  0  0  0  0  0  0  0  0  0  0  0
   19.0275  -24.6248   -6.8610 O   0  0  0  0  0  0  0  0  0  0  0  0
   15.4306  -23.4208   -5.7483 C   0  0  0  0  0  0  0  0  0  0  0  0
   15.5732  -24.6945   -4.9427 C   0  0  2  0  0  0  0  0  0  0  0  0
   15.2822  -24.4601   -3.4734 C   0  0  0  0  0  0  0  0  0  0  0  0
   16.8760  -25.3882   -5.1770 C   0  0  2  0  0  0  0  0  0  0  0  0
   17.1268  -25.8037   -6.5185 N   0  0  0  0  0  0  0  0  0  0  0  0
   16.9853  -26.5080   -4.1990 C   0  0  0  0  0  0  0  0  0  0  0  0
   16.3500  -27.5919   -4.3579 O   0  0  0  0  0  0  0  0  0  0  0  0
   21.4561  -27.4316   -1.0523 C   0  0  0  0  0  0  0  0  0  0  0  0
   20.2613  -27.7230   -1.9306 C   0  0  0  0  0  0  0  0  0  0  0  0
   19.0164  -27.3949   -1.1526 C   0  0  2  0  0  0  0  0  0  0  0  0
   18.8302  -28.4403   -0.0788 C   0  0  0  0  0  0  0  0  0  0  0  0
   17.7720  -27.4880   -2.0518 C   0  0  2  0  0  0  0  0  0  0  0  0
   17.7968  -26.4367   -3.0418 N   0  0  0  0  0  0  0  0  0  0  0  0
   16.6164  -27.2556   -1.1599 C   0  0  0  0  0  0  0  0  0  0  0  0
   16.2618  -26.1164   -0.7629 O   0  0  0  0  0  0  0  0  0  0  0  0
   15.8773  -28.3421   -0.7321 O   0  0  0  0  0  0  0  0  0  0  0  0
  2  1  1  6
  3  2  1  0
  4  3  1  0
  5  6  1  0
  5  4  1  0
  7  6  1  0
  8  2  1  0
  8  9  2  0
 11 10  1  6
 11 12  1  0
 13 14  1  6
 13 11  1  0
 14  8  1  0
 15 13  1  0
 16 15  2  0
 18 19  1  0
 18 17  1  0
 19 21  1  0
 19 20  1  1
 21 22  1  6
 22 15  1  0
 23 21  1  0
 23 25  1  0
 24 23  2  0
M  END
$$$$
