KVI.pdb
     RDKit          3D

 25 24  0  0  1  0  0  0  0  0999 V2000
   28.6884  -22.5567  -18.0495 N   0  0  0  0  0  0  0  0  0  0  0  0
   27.6639  -23.0791  -17.1660 C   0  0  1  0  0  0  0  0  0  0  0  0
   28.2638  -24.0178  -16.2085 C   0  0  0  0  0  0  0  0  0  0  0  0
   28.5123  -25.4192  -16.5211 C   0  0  0  0  0  0  0  0  0  0  0  0
   27.5632  -26.3011  -17.1944 C   0  0  0  0  0  0  0  0  0  0  0  0
   27.9950  -27.7209  -17.3392 C   0  0  0  0  0  0  0  0  0  0  0  0
   27.0031  -28.5782  -16.6222 N   0  0  0  0  0  0  0  0  0  0  0  0
   27.1082  -21.9378  -16.3264 C   0  0  0  0  0  0  0  0  0  0  0  0
   27.8913  -21.1211  -15.8298 O   0  0  0  0  0  0  0  0  0  0  0  0
   22.9434  -19.5040  -15.2191 C   0  0  0  0  0  0  0  0  0  0  0  0
   24.1363  -19.8831  -16.0707 C   0  0  2  0  0  0  0  0  0  0  0  0
   23.7074  -20.4935  -17.3904 C   0  0  0  0  0  0  0  0  0  0  0  0
   25.1328  -20.7201  -15.3361 C   0  0  2  0  0  0  0  0  0  0  0  0
   25.7390  -21.7693  -16.0890 N   0  0  0  0  0  0  0  0  0  0  0  0
   24.4905  -21.2096  -14.0831 C   0  0  0  0  0  0  0  0  0  0  0  0
   23.6663  -22.1710  -14.0919 O   0  0  0  0  0  0  0  0  0  0  0  0
   26.7673  -20.2108   -9.0704 C   0  0  0  0  0  0  0  0  0  0  0  0
   26.1423  -20.9793  -10.2117 C   0  0  0  0  0  0  0  0  0  0  0  0
   24.7238  -20.5059  -10.3743 C   0  0  2  0  0  0  0  0  0  0  0  0
   23.9109  -21.0105   -9.2059 C   0  0  0  0  0  0  0  0  0  0  0  0
   24.0846  -21.1227  -11.6300 C   0  0  2  0  0  0  0  0  0  0  0  0
   24.7556  -20.6407  -12.8147 N   0  0  0  0  0  0  0  0  0  0  0  0
   22.6921  -20.6273  -11.6539 C   0  0  0  0  0  0  0  0  0  0  0  0
   22.3685  -19.4798  -12.0536 O   0  0  0  0  0  0  0  0  0  0  0  0
   21.6817  -21.4617  -11.2152 O   0  0  0  0  0  0  0  0  0  0  0  0
  2  1  1  6
  3  2  1  0
  4  3  1  0
  5  6  1  0
  5  4  1  0
  7  6  1  0
  8  2  1  0
  8  9  2  0
 11 10  1  1
 11 12  1  0
 13 14  1  6
 13 11  1  0
 14  8  1  0
 15 13  1  0
 16 15  2  0
 18 19  1  0
 18 17  1  0
 19 21  1  0
 19 20  1  1
 21 22  1  6
 22 15  1  0
 23 21  1  0
 23 25  1  0
 24 23  2  0
M  END
$$$$
