KVI.pdb
     RDKit          3D

 25 24  0  0  1  0  0  0  0  0999 V2000
   24.4382  -19.1048  -18.9945 N   0  0  0  0  0  0  0  0  0  0  0  0
   23.9645  -18.5564  -17.7383 C   0  0  1  0  0  0  0  0  0  0  0  0
   22.4958  -18.5706  -17.7115 C   0  0  0  0  0  0  0  0  0  0  0  0
   21.6822  -17.4849  -18.2430 C   0  0  0  0  0  0  0  0  0  0  0  0
   21.9722  -16.0650  -18.0642 C   0  0  0  0  0  0  0  0  0  0  0  0
   20.9181  -15.1271  -18.5460 C   0  0  0  0  0  0  0  0  0  0  0  0
   21.3566  -13.7363  -18.2195 N   0  0  0  0  0  0  0  0  0  0  0  0
   24.4032  -19.4716  -16.6043 C   0  0  0  0  0  0  0  0  0  0  0  0
   23.6297  -20.3501  -16.2082 O   0  0  0  0  0  0  0  0  0  0  0  0
   28.3178  -19.0248  -14.4479 C   0  0  0  0  0  0  0  0  0  0  0  0
   27.6446  -20.3154  -14.8639 C   0  0  2  0  0  0  0  0  0  0  0  0
   28.2608  -20.8832  -16.1273 C   0  0  0  0  0  0  0  0  0  0  0  0
   26.1569  -20.1967  -14.9417 C   0  0  2  0  0  0  0  0  0  0  0  0
   25.6533  -19.3630  -15.9841 N   0  0  0  0  0  0  0  0  0  0  0  0
   25.6543  -19.7999  -13.5955 C   0  0  0  0  0  0  0  0  0  0  0  0
   25.4728  -18.5852  -13.2868 O   0  0  0  0  0  0  0  0  0  0  0  0
   21.4866  -20.4886   -9.6028 C   0  0  0  0  0  0  0  0  0  0  0  0
   22.9679  -20.2090   -9.7101 C   0  0  0  0  0  0  0  0  0  0  0  0
   23.4200  -20.6004  -11.0903 C   0  0  2  0  0  0  0  0  0  0  0  0
   23.2646  -22.0949  -11.2422 C   0  0  0  0  0  0  0  0  0  0  0  0
   24.9195  -20.3118  -11.2743 C   0  0  2  0  0  0  0  0  0  0  0  0
   25.3493  -20.7419  -12.5844 N   0  0  0  0  0  0  0  0  0  0  0  0
   25.6127  -21.1405  -10.2655 C   0  0  0  0  0  0  0  0  0  0  0  0
   26.1718  -22.2355  -10.5296 O   0  0  0  0  0  0  0  0  0  0  0  0
   25.6554  -20.6983   -8.9570 O   0  0  0  0  0  0  0  0  0  0  0  0
  2  1  1  6
  3  2  1  0
  4  3  1  0
  5  6  1  0
  5  4  1  0
  7  6  1  0
  8  2  1  0
  8  9  2  0
 11 10  1  6
 11 12  1  0
 13 14  1  6
 13 11  1  0
 14  8  1  0
 15 13  1  0
 16 15  2  0
 18 19  1  0
 18 17  1  0
 19 21  1  0
 19 20  1  1
 21 22  1  6
 22 15  1  0
 23 21  1  0
 23 25  1  0
 24 23  2  0
M  END
$$$$
