KVI.pdb
     RDKit          3D

 25 24  0  0  1  0  0  0  0  0999 V2000
   27.7942  -30.2398  -17.4163 N   0  0  0  0  0  0  0  0  0  0  0  0
   29.0187  -30.9274  -17.0544 C   0  0  1  0  0  0  0  0  0  0  0  0
   28.7286  -32.3358  -16.7546 C   0  0  0  0  0  0  0  0  0  0  0  0
   28.0535  -32.7648  -15.5366 C   0  0  0  0  0  0  0  0  0  0  0  0
   27.8447  -34.1570  -15.1488 C   0  0  0  0  0  0  0  0  0  0  0  0
   27.1348  -34.3650  -13.8543 C   0  0  0  0  0  0  0  0  0  0  0  0
   27.1697  -35.8257  -13.5408 N   0  0  0  0  0  0  0  0  0  0  0  0
   29.9469  -30.9486  -18.2602 C   0  0  0  0  0  0  0  0  0  0  0  0
   29.4919  -30.6641  -19.3733 O   0  0  0  0  0  0  0  0  0  0  0  0
   34.1325  -30.2386  -17.8404 C   0  0  0  0  0  0  0  0  0  0  0  0
   33.2832  -30.1121  -19.0873 C   0  0  2  0  0  0  0  0  0  0  0  0
   32.6822  -28.7261  -19.2140 C   0  0  0  0  0  0  0  0  0  0  0  0
   32.2692  -31.2026  -19.2133 C   0  0  2  0  0  0  0  0  0  0  0  0
   31.3040  -31.2783  -18.1655 N   0  0  0  0  0  0  0  0  0  0  0  0
   32.9961  -32.4878  -19.4185 C   0  0  0  0  0  0  0  0  0  0  0  0
   33.4455  -33.1587  -18.4430 O   0  0  0  0  0  0  0  0  0  0  0  0
   32.2004  -35.3140  -24.0811 C   0  0  0  0  0  0  0  0  0  0  0  0
   32.3167  -34.8350  -22.6524 C   0  0  0  0  0  0  0  0  0  0  0  0
   33.7737  -34.8243  -22.2787 C   0  0  2  0  0  0  0  0  0  0  0  0
   34.2710  -36.2497  -22.2388 C   0  0  0  0  0  0  0  0  0  0  0  0
   33.9671  -34.2704  -20.8569 C   0  0  2  0  0  0  0  0  0  0  0  0
   33.2297  -33.0384  -20.7011 N   0  0  0  0  0  0  0  0  0  0  0  0
   35.4084  -33.9642  -20.7400 C   0  0  0  0  0  0  0  0  0  0  0  0
   36.2582  -34.7760  -20.2926 O   0  0  0  0  0  0  0  0  0  0  0  0
   35.8590  -32.7209  -21.1410 O   0  0  0  0  0  0  0  0  0  0  0  0
  2  1  1  6
  3  2  1  0
  4  3  1  0
  5  6  1  0
  5  4  1  0
  7  6  1  0
  8  2  1  0
  8  9  2  0
 11 10  1  1
 11 12  1  0
 13 14  1  1
 13 11  1  0
 14  8  1  0
 15 13  1  0
 16 15  2  0
 18 19  1  0
 18 17  1  0
 19 21  1  0
 19 20  1  1
 21 22  1  6
 22 15  1  0
 23 21  1  0
 23 25  1  0
 24 23  2  0
M  END
$$$$
