KVI.pdb
     RDKit          3D

 25 24  0  0  1  0  0  0  0  0999 V2000
   27.1838  -25.3103  -17.3496 N   0  0  0  0  0  0  0  0  0  0  0  0
   26.1238  -24.4430  -16.8726 C   0  0  1  0  0  0  0  0  0  0  0  0
   25.2392  -25.1894  -15.9682 C   0  0  0  0  0  0  0  0  0  0  0  0
   24.0781  -25.9374  -16.4327 C   0  0  0  0  0  0  0  0  0  0  0  0
   23.5660  -25.9118  -17.7999 C   0  0  0  0  0  0  0  0  0  0  0  0
   22.0946  -26.1082  -17.9399 C   0  0  0  0  0  0  0  0  0  0  0  0
   21.4538  -24.7592  -17.9899 N   0  0  0  0  0  0  0  0  0  0  0  0
   26.7358  -23.3367  -16.0254 C   0  0  0  0  0  0  0  0  0  0  0  0
   27.7941  -23.5551  -15.4261 O   0  0  0  0  0  0  0  0  0  0  0  0
   26.8416  -18.5874  -14.5287 C   0  0  0  0  0  0  0  0  0  0  0  0
   26.2831  -19.6381  -15.4647 C   0  0  2  0  0  0  0  0  0  0  0  0
   24.8148  -19.3997  -15.7575 C   0  0  0  0  0  0  0  0  0  0  0  0
   26.5694  -21.0328  -15.0107 C   0  0  2  0  0  0  0  0  0  0  0  0
   26.1499  -22.0724  -15.8929 N   0  0  0  0  0  0  0  0  0  0  0  0
   26.0209  -21.1920  -13.6337 C   0  0  0  0  0  0  0  0  0  0  0  0
   24.8700  -21.6797  -13.4304 O   0  0  0  0  0  0  0  0  0  0  0  0
   29.4639  -20.7148   -9.3104 C   0  0  0  0  0  0  0  0  0  0  0  0
   28.3330  -21.4322  -10.0107 C   0  0  0  0  0  0  0  0  0  0  0  0
   27.1597  -20.4941  -10.0884 C   0  0  2  0  0  0  0  0  0  0  0  0
   26.4136  -20.5465   -8.7764 C   0  0  0  0  0  0  0  0  0  0  0  0
   26.1601  -20.9601  -11.1605 C   0  0  2  0  0  0  0  0  0  0  0  0
   26.7403  -20.8142  -12.4750 N   0  0  0  0  0  0  0  0  0  0  0  0
   25.0077  -20.0400  -11.0593 C   0  0  0  0  0  0  0  0  0  0  0  0
   24.9949  -18.8838  -11.5538 O   0  0  0  0  0  0  0  0  0  0  0  0
   23.8766  -20.4619  -10.3868 O   0  0  0  0  0  0  0  0  0  0  0  0
  2  1  1  1
  3  2  1  0
  4  3  1  0
  5  6  1  0
  5  4  1  0
  7  6  1  0
  8  2  1  0
  8  9  2  0
 11 10  1  1
 11 12  1  0
 13 14  1  6
 13 11  1  0
 14  8  1  0
 15 13  1  0
 16 15  2  0
 18 19  1  0
 18 17  1  0
 19 21  1  0
 19 20  1  1
 21 22  1  6
 22 15  1  0
 23 21  1  0
 23 25  1  0
 24 23  2  0
M  END
$$$$
