KVI.pdb
     RDKit          3D

 25 24  0  0  1  0  0  0  0  0999 V2000
   25.8511  -18.5682  -15.4361 N   0  0  0  0  0  0  0  0  0  0  0  0
   26.6393  -19.4085  -14.5553 C   0  0  1  0  0  0  0  0  0  0  0  0
   28.0549  -19.0250  -14.6369 C   0  0  0  0  0  0  0  0  0  0  0  0
   29.0459  -19.8007  -15.3713 C   0  0  0  0  0  0  0  0  0  0  0  0
   29.0584  -21.2579  -15.4637 C   0  0  0  0  0  0  0  0  0  0  0  0
   30.1852  -21.8437  -16.2449 C   0  0  0  0  0  0  0  0  0  0  0  0
   30.0922  -23.3314  -16.1401 N   0  0  0  0  0  0  0  0  0  0  0  0
   26.2248  -19.1393  -13.1159 C   0  0  0  0  0  0  0  0  0  0  0  0
   26.1205  -17.9701  -12.7298 O   0  0  0  0  0  0  0  0  0  0  0  0
   24.0054  -22.0900  -10.8403 C   0  0  0  0  0  0  0  0  0  0  0  0
   24.0389  -20.5839  -10.6906 C   0  0  2  0  0  0  0  0  0  0  0  0
   22.9801  -19.9153  -11.5451 C   0  0  0  0  0  0  0  0  0  0  0  0
   25.4032  -20.0093  -10.8947 C   0  0  2  0  0  0  0  0  0  0  0  0
   25.9540  -20.1640  -12.2016 N   0  0  0  0  0  0  0  0  0  0  0  0
   26.2952  -20.5473   -9.8283 C   0  0  0  0  0  0  0  0  0  0  0  0
   26.9760  -21.6009  -10.0020 O   0  0  0  0  0  0  0  0  0  0  0  0
   29.5522  -18.8662   -4.9515 C   0  0  0  0  0  0  0  0  0  0  0  0
   28.8641  -19.9986   -5.6783 C   0  0  0  0  0  0  0  0  0  0  0  0
   27.9659  -19.4044   -6.7285 C   0  0  2  0  0  0  0  0  0  0  0  0
   26.8605  -18.6397   -6.0400 C   0  0  0  0  0  0  0  0  0  0  0  0
   27.2709  -20.5108   -7.5400 C   0  0  2  0  0  0  0  0  0  0  0  0
   26.4402  -19.9247   -8.5658 N   0  0  0  0  0  0  0  0  0  0  0  0
   26.3937  -21.2174   -6.5828 C   0  0  0  0  0  0  0  0  0  0  0  0
   26.8231  -21.9542   -5.6587 O   0  0  0  0  0  0  0  0  0  0  0  0
   25.0249  -21.0679   -6.6997 O   0  0  0  0  0  0  0  0  0  0  0  0
  2  1  1  6
  3  2  1  0
  4  3  1  0
  5  6  1  0
  5  4  1  0
  7  6  1  0
  8  2  1  0
  8  9  2  0
 11 10  1  6
 11 12  1  0
 13 14  1  6
 13 11  1  0
 14  8  1  0
 15 13  1  0
 16 15  2  0
 18 19  1  0
 18 17  1  0
 19 21  1  0
 19 20  1  1
 21 22  1  6
 22 15  1  0
 23 21  1  0
 23 25  1  0
 24 23  2  0
M  END
$$$$
