KVI.pdb
     RDKit          3D

 25 24  0  0  1  0  0  0  0  0999 V2000
   25.1097  -30.9266  -16.1361 N   0  0  0  0  0  0  0  0  0  0  0  0
   23.7327  -30.6336  -16.4846 C   0  0  1  0  0  0  0  0  0  0  0  0
   22.8566  -31.7066  -15.9958 C   0  0  0  0  0  0  0  0  0  0  0  0
   22.3517  -32.7710  -16.8534 C   0  0  0  0  0  0  0  0  0  0  0  0
   21.8044  -32.5701  -18.1921 C   0  0  0  0  0  0  0  0  0  0  0  0
   20.3500  -32.8613  -18.3433 C   0  0  0  0  0  0  0  0  0  0  0  0
   19.9616  -32.5430  -19.7507 N   0  0  0  0  0  0  0  0  0  0  0  0
   23.2935  -29.3781  -15.7453 C   0  0  0  0  0  0  0  0  0  0  0  0
   23.7038  -29.1835  -14.5960 O   0  0  0  0  0  0  0  0  0  0  0  0
   20.6677  -26.1832  -17.5630 C   0  0  0  0  0  0  0  0  0  0  0  0
   21.8589  -26.0414  -16.6394 C   0  0  2  0  0  0  0  0  0  0  0  0
   23.1253  -25.7208  -17.4086 C   0  0  0  0  0  0  0  0  0  0  0  0
   22.0168  -27.2022  -15.7115 C   0  0  2  0  0  0  0  0  0  0  0  0
   22.4388  -28.4255  -16.3121 N   0  0  0  0  0  0  0  0  0  0  0  0
   20.7519  -27.3493  -14.9365 C   0  0  0  0  0  0  0  0  0  0  0  0
   19.7552  -27.9738  -15.4058 O   0  0  0  0  0  0  0  0  0  0  0  0
   18.8013  -27.9258   -9.2294 C   0  0  0  0  0  0  0  0  0  0  0  0
   18.4221  -27.5059  -10.6307 C   0  0  0  0  0  0  0  0  0  0  0  0
   19.6824  -27.3957  -11.4443 C   0  0  2  0  0  0  0  0  0  0  0  0
   20.5096  -26.2560  -10.8987 C   0  0  0  0  0  0  0  0  0  0  0  0
   19.3593  -27.0222  -12.9009 C   0  0  2  0  0  0  0  0  0  0  0  0
   20.5816  -26.8083  -13.6399 N   0  0  0  0  0  0  0  0  0  0  0  0
   18.6304  -25.7381  -12.8319 C   0  0  0  0  0  0  0  0  0  0  0  0
   19.1697  -24.6201  -13.0333 O   0  0  0  0  0  0  0  0  0  0  0  0
   17.2819  -25.7541  -12.5304 O   0  0  0  0  0  0  0  0  0  0  0  0
  2  1  1  1
  3  2  1  0
  4  3  1  0
  5  6  1  0
  5  4  1  0
  7  6  1  0
  8  2  1  0
  8  9  2  0
 11 10  1  6
 11 12  1  0
 13 14  1  6
 13 11  1  0
 14  8  1  0
 15 13  1  0
 16 15  2  0
 18 19  1  0
 18 17  1  0
 19 21  1  0
 19 20  1  1
 21 22  1  6
 22 15  1  0
 23 21  1  0
 23 25  1  0
 24 23  2  0
M  END
$$$$
