KVI.pdb
     RDKit          3D

 25 24  0  0  1  0  0  0  0  0999 V2000
   21.2403  -15.3776  -16.8553 N   0  0  0  0  0  0  0  0  0  0  0  0
   20.9950  -14.0867  -17.4690 C   0  0  1  0  0  0  0  0  0  0  0  0
   19.6418  -14.0562  -18.0397 C   0  0  0  0  0  0  0  0  0  0  0  0
   19.0932  -15.1439  -18.8391 C   0  0  0  0  0  0  0  0  0  0  0  0
   19.4722  -15.4338  -20.2191 C   0  0  0  0  0  0  0  0  0  0  0  0
   18.7317  -16.5532  -20.8685 C   0  0  0  0  0  0  0  0  0  0  0  0
   19.6902  -17.6815  -21.0713 N   0  0  0  0  0  0  0  0  0  0  0  0
   21.0071  -13.0163  -16.3873 C   0  0  0  0  0  0  0  0  0  0  0  0
   20.3750  -13.2105  -15.3434 O   0  0  0  0  0  0  0  0  0  0  0  0
   24.0106   -9.8132  -16.1260 C   0  0  0  0  0  0  0  0  0  0  0  0
   23.1058  -10.3883  -15.0571 C   0  0  2  0  0  0  0  0  0  0  0  0
   23.7762  -11.5261  -14.3126 C   0  0  0  0  0  0  0  0  0  0  0  0
   21.7501  -10.7466  -15.5737 C   0  0  2  0  0  0  0  0  0  0  0  0
   21.7073  -11.8118  -16.5217 N   0  0  0  0  0  0  0  0  0  0  0  0
   21.1047   -9.5016  -16.0793 C   0  0  0  0  0  0  0  0  0  0  0  0
   21.2680   -9.1068  -17.2715 O   0  0  0  0  0  0  0  0  0  0  0  0
   16.1322   -8.5975  -16.5703 C   0  0  0  0  0  0  0  0  0  0  0  0
   17.6321   -8.5165  -16.7371 C   0  0  0  0  0  0  0  0  0  0  0  0
   18.1645   -7.5412  -15.7233 C   0  0  2  0  0  0  0  0  0  0  0  0
   17.6691   -6.1594  -16.0781 C   0  0  0  0  0  0  0  0  0  0  0  0
   19.6994   -7.4689  -15.7910 C   0  0  2  0  0  0  0  0  0  0  0  0
   20.2757   -8.6872  -15.2717 N   0  0  0  0  0  0  0  0  0  0  0  0
   20.0869   -6.3569  -14.8975 C   0  0  0  0  0  0  0  0  0  0  0  0
   20.4620   -6.5184  -13.7081 O   0  0  0  0  0  0  0  0  0  0  0  0
   20.0383   -5.0646  -15.3843 O   0  0  0  0  0  0  0  0  0  0  0  0
  2  1  1  1
  3  2  1  0
  4  3  1  0
  5  6  1  0
  5  4  1  0
  7  6  1  0
  8  2  1  0
  8  9  2  0
 11 10  1  6
 11 12  1  0
 13 14  1  6
 13 11  1  0
 14  8  1  0
 15 13  1  0
 16 15  2  0
 18 19  1  0
 18 17  1  0
 19 21  1  0
 19 20  1  6
 21 22  1  1
 22 15  1  0
 23 21  1  0
 23 25  1  0
 24 23  2  0
M  END
$$$$
