KVI.pdb
     RDKit          3D

 25 24  0  0  1  0  0  0  0  0999 V2000
   21.1386  -31.9153  -12.5186 N   0  0  0  0  0  0  0  0  0  0  0  0
   21.7064  -31.3220  -11.3233 C   0  0  1  0  0  0  0  0  0  0  0  0
   20.6857  -30.5244  -10.6307 C   0  0  0  0  0  0  0  0  0  0  0  0
   20.1695  -29.2673  -11.1565 C   0  0  0  0  0  0  0  0  0  0  0  0
   20.3211  -27.9695  -10.5049 C   0  0  0  0  0  0  0  0  0  0  0  0
   19.5968  -26.8369  -11.1498 C   0  0  0  0  0  0  0  0  0  0  0  0
   19.9906  -25.5792  -10.4454 N   0  0  0  0  0  0  0  0  0  0  0  0
   22.0852  -32.4324  -10.3540 C   0  0  0  0  0  0  0  0  0  0  0  0
   21.3500  -33.4209  -10.2563 O   0  0  0  0  0  0  0  0  0  0  0  0
   25.9397  -32.4080   -8.1099 C   0  0  0  0  0  0  0  0  0  0  0  0
   25.2179  -33.5985   -8.7045 C   0  0  2  0  0  0  0  0  0  0  0  0
   25.7888  -33.9780  -10.0567 C   0  0  0  0  0  0  0  0  0  0  0  0
   23.7333  -33.4283   -8.7239 C   0  0  2  0  0  0  0  0  0  0  0  0
   23.2379  -32.3851   -9.5613 N   0  0  0  0  0  0  0  0  0  0  0  0
   23.2642  -33.3049   -7.3143 C   0  0  0  0  0  0  0  0  0  0  0  0
   23.2552  -32.1902   -6.7134 O   0  0  0  0  0  0  0  0  0  0  0  0
   19.3388  -36.5924   -5.4095 C   0  0  0  0  0  0  0  0  0  0  0  0
   20.2087  -35.4121   -5.7760 C   0  0  0  0  0  0  0  0  0  0  0  0
   21.3763  -35.3782   -4.8284 C   0  0  2  0  0  0  0  0  0  0  0  0
   20.8653  -35.0472   -3.4463 C   0  0  0  0  0  0  0  0  0  0  0  0
   22.3474  -34.2452   -5.2012 C   0  0  2  0  0  0  0  0  0  0  0  0
   22.8023  -34.4109   -6.5619 N   0  0  0  0  0  0  0  0  0  0  0  0
   23.5103  -34.4038   -4.3026 C   0  0  0  0  0  0  0  0  0  0  0  0
   24.4927  -35.1454   -4.5602 O   0  0  0  0  0  0  0  0  0  0  0  0
   23.5306  -33.7040   -3.1112 O   0  0  0  0  0  0  0  0  0  0  0  0
  2  1  1  6
  3  2  1  0
  4  3  1  0
  5  6  1  0
  5  4  1  0
  7  6  1  0
  8  2  1  0
  8  9  2  0
 11 10  1  6
 11 12  1  0
 13 14  1  6
 13 11  1  0
 14  8  1  0
 15 13  1  0
 16 15  2  0
 18 19  1  0
 18 17  1  0
 19 21  1  0
 19 20  1  1
 21 22  1  6
 22 15  1  0
 23 21  1  0
 23 25  1  0
 24 23  2  0
M  END
$$$$
