ICI.pdb
     RDKit          3D

 23 22  0  0  1  0  0  0  0  0999 V2000
   17.5768  -13.5220  -20.8494 C   0  0  0  0  0  0  0  0  0  0  0  0
   18.6092  -13.9647  -19.7918 C   0  0  0  0  0  0  0  0  0  0  0  0
   18.7132  -12.8480  -18.7696 C   0  0  2  0  0  0  0  0  0  0  0  0
   19.1492  -11.5758  -19.5247 C   0  0  0  0  0  0  0  0  0  0  0  0
   19.5564  -13.1225  -17.5910 C   0  0  2  0  0  0  0  0  0  0  0  0
   19.0812  -14.3883  -17.0138 N   0  0  0  0  0  0  0  0  0  0  0  0
   19.6680  -12.0809  -16.5686 C   0  0  0  0  0  0  0  0  0  0  0  0
   18.6294  -11.8288  -15.8612 O   0  0  0  0  0  0  0  0  0  0  0  0
   20.8181  -11.3372  -16.2944 N   0  0  0  0  0  0  0  0  0  0  0  0
   20.9483  -10.1956  -15.3906 C   0  0  1  0  0  0  0  0  0  0  0  0
   22.2024  -10.2660  -14.5550 C   0  0  0  0  0  0  0  0  0  0  0  0
   22.3322   -8.8689  -13.4032 S   0  0  0  0  0  0  0  0  0  0  0  0
   20.8321   -8.9457  -16.1358 C   0  0  0  0  0  0  0  0  0  0  0  0
   21.5259   -8.8056  -17.2192 O   0  0  0  0  0  0  0  0  0  0  0  0
   17.3456   -5.3280  -19.0175 C   0  0  0  0  0  0  0  0  0  0  0  0
   18.6064   -5.2469  -18.1791 C   0  0  0  0  0  0  0  0  0  0  0  0
   18.7607   -6.5355  -17.4353 C   0  0  2  0  0  0  0  0  0  0  0  0
   17.5489   -6.6984  -16.5309 C   0  0  0  0  0  0  0  0  0  0  0  0
   20.0430   -6.6144  -16.6429 C   0  0  2  0  0  0  0  0  0  0  0  0
   20.0325   -7.8406  -15.8172 N   0  0  0  0  0  0  0  0  0  0  0  0
   20.2548   -5.4997  -15.7142 C   0  0  0  0  0  0  0  0  0  0  0  0
   20.4840   -4.3126  -16.0979 O   0  0  0  0  0  0  0  0  0  0  0  0
   20.2067   -5.7109  -14.3582 O   0  0  0  0  0  0  0  0  0  0  0  0
  1  2  1  0
  2  3  1  0
  3  5  1  0
  3  4  1  6
  5  7  1  0
  5  6  1  1
  7  9  1  0
  8  7  2  0
  9 10  1  0
 10 13  1  0
 10 11  1  6
 11 12  1  0
 13 20  1  0
 14 13  2  0
 15 16  1  0
 17 19  1  0
 17 16  1  0
 17 18  1  1
 19 21  1  0
 19 20  1  1
 21 22  2  0
 21 23  1  0
M  END
$$$$
