ICI.pdb
     RDKit          3D

 23 22  0  0  1  0  0  0  0  0999 V2000
   12.0069  -12.7683  -13.5554 C   0  0  0  0  0  0  0  0  0  0  0  0
   13.1536  -13.6832  -13.0773 C   0  0  0  0  0  0  0  0  0  0  0  0
   14.2007  -12.7932  -12.4338 C   0  0  2  0  0  0  0  0  0  0  0  0
   13.4979  -11.9927  -11.3184 C   0  0  0  0  0  0  0  0  0  0  0  0
   14.9714  -11.9305  -13.3488 C   0  0  2  0  0  0  0  0  0  0  0  0
   15.5895  -12.8149  -14.3474 N   0  0  0  0  0  0  0  0  0  0  0  0
   15.9557  -11.0171  -12.7659 C   0  0  0  0  0  0  0  0  0  0  0  0
   17.1937  -11.3316  -12.8711 O   0  0  0  0  0  0  0  0  0  0  0  0
   15.6585   -9.8232  -12.1048 N   0  0  0  0  0  0  0  0  0  0  0  0
   16.5889   -8.7694  -11.7039 C   0  0  1  0  0  0  0  0  0  0  0  0
   17.5326   -8.3840  -12.8162 C   0  0  0  0  0  0  0  0  0  0  0  0
   18.5615   -6.9561  -12.3717 S   0  0  0  0  0  0  0  0  0  0  0  0
   15.8571   -7.6295  -11.1598 C   0  0  0  0  0  0  0  0  0  0  0  0
   14.9327   -7.0861  -11.8845 O   0  0  0  0  0  0  0  0  0  0  0  0
   12.2245   -5.9393   -7.0632 C   0  0  0  0  0  0  0  0  0  0  0  0
   13.3083   -5.3060   -7.9138 C   0  0  0  0  0  0  0  0  0  0  0  0
   14.1652   -6.3968   -8.4733 C   0  0  2  0  0  0  0  0  0  0  0  0
   14.8344   -7.1071   -7.3068 C   0  0  0  0  0  0  0  0  0  0  0  0
   15.1892   -5.8992   -9.4643 C   0  0  2  0  0  0  0  0  0  0  0  0
   16.0322   -7.0306   -9.9058 N   0  0  0  0  0  0  0  0  0  0  0  0
   16.1093   -4.8883   -8.9338 C   0  0  0  0  0  0  0  0  0  0  0  0
   17.3262   -5.1300   -8.6698 O   0  0  0  0  0  0  0  0  0  0  0  0
   15.6708   -3.6077   -8.7023 O   0  0  0  0  0  0  0  0  0  0  0  0
  1  2  1  0
  2  3  1  0
  3  5  1  0
  3  4  1  1
  5  7  1  0
  5  6  1  6
  7  9  1  0
  8  7  2  0
  9 10  1  0
 10 13  1  0
 10 11  1  6
 11 12  1  0
 13 20  1  0
 14 13  2  0
 15 16  1  0
 17 19  1  0
 17 16  1  0
 17 18  1  1
 19 21  1  0
 19 20  1  1
 21 22  2  0
 21 23  1  0
M  END
$$$$
