ICI.pdb
     RDKit          3D

 23 22  0  0  1  0  0  0  0  0999 V2000
   18.0532  -15.0715  -17.2166 C   0  0  0  0  0  0  0  0  0  0  0  0
   19.3718  -14.2728  -17.2781 C   0  0  0  0  0  0  0  0  0  0  0  0
   19.1933  -13.0419  -16.4088 C   0  0  2  0  0  0  0  0  0  0  0  0
   17.8754  -12.3656  -16.8385 C   0  0  0  0  0  0  0  0  0  0  0  0
   20.3274  -12.0995  -16.3760 C   0  0  2  0  0  0  0  0  0  0  0  0
   21.5251  -12.8870  -16.0493 N   0  0  0  0  0  0  0  0  0  0  0  0
   20.2159  -10.9201  -15.5162 C   0  0  0  0  0  0  0  0  0  0  0  0
   19.7551  -11.0890  -14.3322 O   0  0  0  0  0  0  0  0  0  0  0  0
   20.5751   -9.6195  -15.8774 N   0  0  0  0  0  0  0  0  0  0  0  0
   20.5377   -8.4192  -15.0439 C   0  0  1  0  0  0  0  0  0  0  0  0
   21.9152   -7.8694  -14.7680 C   0  0  0  0  0  0  0  0  0  0  0  0
   22.9437   -9.0437  -13.8414 S   0  0  0  0  0  0  0  0  0  0  0  0
   19.6370   -7.4284  -15.6255 C   0  0  0  0  0  0  0  0  0  0  0  0
   19.6059   -7.3024  -16.9132 O   0  0  0  0  0  0  0  0  0  0  0  0
   15.5557   -7.0145  -17.1575 C   0  0  0  0  0  0  0  0  0  0  0  0
   15.8686   -7.1500  -15.6801 C   0  0  0  0  0  0  0  0  0  0  0  0
   16.4513   -5.8580  -15.2020 C   0  0  2  0  0  0  0  0  0  0  0  0
   15.5441   -4.7340  -15.6783 C   0  0  0  0  0  0  0  0  0  0  0  0
   17.8719   -5.6400  -15.6632 C   0  0  2  0  0  0  0  0  0  0  0  0
   18.7679   -6.5687  -14.9417 N   0  0  0  0  0  0  0  0  0  0  0  0
   18.3940   -4.2931  -15.4124 C   0  0  0  0  0  0  0  0  0  0  0  0
   18.8732   -3.9330  -14.2945 O   0  0  0  0  0  0  0  0  0  0  0  0
   18.3841   -3.3507  -16.4113 O   0  0  0  0  0  0  0  0  0  0  0  0
  1  2  1  0
  2  3  1  0
  3  5  1  0
  3  4  1  6
  5  7  1  0
  5  6  1  1
  7  9  1  0
  8  7  2  0
  9 10  1  0
 10 13  1  0
 10 11  1  6
 11 12  1  0
 13 20  1  0
 14 13  2  0
 15 16  1  0
 17 19  1  0
 17 16  1  0
 17 18  1  6
 19 21  1  0
 19 20  1  1
 21 22  2  0
 21 23  1  0
M  END
$$$$
