ICI.pdb
     RDKit          3D

 23 22  0  0  1  0  0  0  0  0999 V2000
   19.6445  -16.1216  -20.7818 C   0  0  0  0  0  0  0  0  0  0  0  0
   21.0509  -16.0715  -20.1494 C   0  0  0  0  0  0  0  0  0  0  0  0
   20.9302  -15.3080  -18.8436 C   0  0  2  0  0  0  0  0  0  0  0  0
   20.2418  -13.9647  -19.1611 C   0  0  0  0  0  0  0  0  0  0  0  0
   22.1765  -15.1361  -18.0738 C   0  0  2  0  0  0  0  0  0  0  0  0
   22.7240  -16.4813  -17.8454 N   0  0  0  0  0  0  0  0  0  0  0  0
   22.1146  -14.3689  -16.8287 C   0  0  0  0  0  0  0  0  0  0  0  0
   21.5775  -14.9315  -15.8101 O   0  0  0  0  0  0  0  0  0  0  0  0
   22.5978  -13.0700  -16.6546 N   0  0  0  0  0  0  0  0  0  0  0  0
   22.4899  -12.2298  -15.4633 C   0  0  1  0  0  0  0  0  0  0  0  0
   23.6333  -12.4465  -14.5033 C   0  0  0  0  0  0  0  0  0  0  0  0
   24.7672  -13.7429  -15.0767 S   0  0  0  0  0  0  0  0  0  0  0  0
   22.3268  -10.8304  -15.8454 C   0  0  0  0  0  0  0  0  0  0  0  0
   23.0977  -10.3475  -16.7660 O   0  0  0  0  0  0  0  0  0  0  0  0
   19.3390   -6.8201  -18.3740 C   0  0  0  0  0  0  0  0  0  0  0  0
   19.8465   -6.8657  -16.9459 C   0  0  0  0  0  0  0  0  0  0  0  0
   20.0735   -8.2963  -16.5726 C   0  0  2  0  0  0  0  0  0  0  0  0
   18.8686   -8.7647  -15.7714 C   0  0  0  0  0  0  0  0  0  0  0  0
   21.3537   -8.5138  -15.8032 C   0  0  2  0  0  0  0  0  0  0  0  0
   21.4055   -9.9121  -15.3258 N   0  0  0  0  0  0  0  0  0  0  0  0
   21.4994   -7.6711  -14.6122 C   0  0  0  0  0  0  0  0  0  0  0  0
   21.6951   -6.4192  -14.6693 O   0  0  0  0  0  0  0  0  0  0  0  0
   21.4226   -8.2265  -13.3586 O   0  0  0  0  0  0  0  0  0  0  0  0
  1  2  1  0
  2  3  1  0
  3  5  1  0
  3  4  1  6
  5  7  1  0
  5  6  1  1
  7  9  1  0
  8  7  2  0
  9 10  1  0
 10 13  1  0
 10 11  1  1
 11 12  1  0
 13 20  1  0
 14 13  2  0
 15 16  1  0
 17 19  1  0
 17 16  1  0
 17 18  1  1
 19 21  1  0
 19 20  1  1
 21 22  2  0
 21 23  1  0
M  END
$$$$
