ICI.pdb
     RDKit          3D

 23 22  0  0  1  0  0  0  0  0999 V2000
   31.3000  -29.6188  -22.6836 C   0  0  0  0  0  0  0  0  0  0  0  0
   31.1989  -28.2972  -21.8939 C   0  0  0  0  0  0  0  0  0  0  0  0
   30.2631  -28.5422  -20.7247 C   0  0  2  0  0  0  0  0  0  0  0  0
   28.9471  -29.1027  -21.3017 C   0  0  0  0  0  0  0  0  0  0  0  0
   30.0415  -27.3992  -19.8192 C   0  0  2  0  0  0  0  0  0  0  0  0
   31.3639  -26.9797  -19.3328 N   0  0  0  0  0  0  0  0  0  0  0  0
   29.0985  -27.5718  -18.7131 C   0  0  0  0  0  0  0  0  0  0  0  0
   29.0293  -28.7288  -18.1661 O   0  0  0  0  0  0  0  0  0  0  0  0
   28.2659  -26.5758  -18.1977 N   0  0  0  0  0  0  0  0  0  0  0  0
   27.3198  -26.6887  -17.0891 C   0  0  1  0  0  0  0  0  0  0  0  0
   26.9672  -25.3466  -16.4972 C   0  0  0  0  0  0  0  0  0  0  0  0
   28.4439  -24.3650  -16.1085 S   0  0  0  0  0  0  0  0  0  0  0  0
   26.1466  -27.4529  -17.5022 C   0  0  0  0  0  0  0  0  0  0  0  0
   25.5797  -27.1546  -18.6268 O   0  0  0  0  0  0  0  0  0  0  0  0
   25.6049  -32.4018  -18.9976 C   0  0  0  0  0  0  0  0  0  0  0  0
   25.2936  -30.9207  -18.9046 C   0  0  0  0  0  0  0  0  0  0  0  0
   24.6665  -30.6542  -17.5731 C   0  0  2  0  0  0  0  0  0  0  0  0
   23.4157  -31.5129  -17.4678 C   0  0  0  0  0  0  0  0  0  0  0  0
   24.3438  -29.1969  -17.3491 C   0  0  2  0  0  0  0  0  0  0  0  0
   25.5373  -28.5088  -16.8126 N   0  0  0  0  0  0  0  0  0  0  0  0
   23.2655  -28.9527  -16.3860 C   0  0  0  0  0  0  0  0  0  0  0  0
   23.4667  -28.8153  -15.1412 O   0  0  0  0  0  0  0  0  0  0  0  0
   21.9642  -28.8583  -16.8143 O   0  0  0  0  0  0  0  0  0  0  0  0
  1  2  1  0
  2  3  1  0
  3  5  1  0
  3  4  1  6
  5  7  1  0
  5  6  1  1
  7  9  1  0
  8  7  2  0
  9 10  1  0
 10 13  1  0
 10 11  1  6
 11 12  1  0
 13 20  1  0
 14 13  2  0
 15 16  1  0
 17 19  1  0
 17 16  1  0
 17 18  1  6
 19 21  1  0
 19 20  1  1
 21 22  2  0
 21 23  1  0
M  END
$$$$
