ICI.pdb
     RDKit          3D

 23 22  0  0  1  0  0  0  0  0999 V2000
   16.8722   -9.8722  -18.9642 C   0  0  0  0  0  0  0  0  0  0  0  0
   18.1984  -10.1078  -18.2118 C   0  0  0  0  0  0  0  0  0  0  0  0
   18.3272   -9.0097  -17.1724 C   0  0  2  0  0  0  0  0  0  0  0  0
   18.2718   -7.6624  -17.9211 C   0  0  0  0  0  0  0  0  0  0  0  0
   19.4872   -9.1054  -16.2665 C   0  0  2  0  0  0  0  0  0  0  0  0
   19.4178  -10.4265  -15.6251 N   0  0  0  0  0  0  0  0  0  0  0  0
   19.6754   -8.0434  -15.2768 C   0  0  0  0  0  0  0  0  0  0  0  0
   18.8070   -7.9437  -14.3395 O   0  0  0  0  0  0  0  0  0  0  0  0
   20.7293   -7.1269  -15.2651 N   0  0  0  0  0  0  0  0  0  0  0  0
   20.9014   -5.9759  -14.3805 C   0  0  1  0  0  0  0  0  0  0  0  0
   22.2836   -5.9165  -13.7790 C   0  0  0  0  0  0  0  0  0  0  0  0
   22.5939   -4.3366  -12.9407 S   0  0  0  0  0  0  0  0  0  0  0  0
   20.5308   -4.7460  -15.0741 C   0  0  0  0  0  0  0  0  0  0  0  0
   21.0036   -4.5397  -16.2611 O   0  0  0  0  0  0  0  0  0  0  0  0
   16.1763   -1.6020  -17.2257 C   0  0  0  0  0  0  0  0  0  0  0  0
   17.5709   -1.3727  -16.6766 C   0  0  0  0  0  0  0  0  0  0  0  0
   17.9949   -2.6035  -15.9398 C   0  0  2  0  0  0  0  0  0  0  0  0
   17.0031   -2.8342  -14.8102 C   0  0  0  0  0  0  0  0  0  0  0  0
   19.4072   -2.5239  -15.4132 C   0  0  2  0  0  0  0  0  0  0  0  0
   19.6948   -3.7260  -14.6021 N   0  0  0  0  0  0  0  0  0  0  0  0
   19.6691   -1.3732  -14.5431 C   0  0  0  0  0  0  0  0  0  0  0  0
   19.8234   -1.4748  -13.2882 O   0  0  0  0  0  0  0  0  0  0  0  0
   19.7622   -0.1108  -15.0756 O   0  0  0  0  0  0  0  0  0  0  0  0
  1  2  1  0
  2  3  1  0
  3  5  1  0
  3  4  1  6
  5  7  1  0
  5  6  1  1
  7  9  1  0
  8  7  2  0
  9 10  1  0
 10 13  1  0
 10 11  1  6
 11 12  1  0
 13 20  1  0
 14 13  2  0
 15 16  1  0
 17 19  1  0
 17 16  1  0
 17 18  1  1
 19 21  1  0
 19 20  1  1
 21 22  2  0
 21 23  1  0
M  END
$$$$
