ICI.pdb
     RDKit          3D

 23 22  0  0  1  0  0  0  0  0999 V2000
   13.7363  -13.7769  -14.8594 C   0  0  0  0  0  0  0  0  0  0  0  0
   15.0015  -13.0288  -15.3284 C   0  0  0  0  0  0  0  0  0  0  0  0
   15.3920  -12.0671  -14.2215 C   0  0  2  0  0  0  0  0  0  0  0  0
   14.1504  -11.2099  -13.9012 C   0  0  0  0  0  0  0  0  0  0  0  0
   16.5953  -11.2498  -14.4652 C   0  0  2  0  0  0  0  0  0  0  0  0
   17.6954  -12.1850  -14.7425 N   0  0  0  0  0  0  0  0  0  0  0  0
   16.9761  -10.2676  -13.4489 C   0  0  0  0  0  0  0  0  0  0  0  0
   17.4216  -10.7105  -12.3318 O   0  0  0  0  0  0  0  0  0  0  0  0
   16.8984   -8.8808  -13.5958 N   0  0  0  0  0  0  0  0  0  0  0  0
   17.2980   -7.8573  -12.6316 C   0  0  1  0  0  0  0  0  0  0  0  0
   18.1547   -6.7841  -13.2564 C   0  0  0  0  0  0  0  0  0  0  0  0
   18.4616   -5.4072  -12.1140 S   0  0  0  0  0  0  0  0  0  0  0  0
   16.1245   -7.3211  -11.9487 C   0  0  0  0  0  0  0  0  0  0  0  0
   15.1126   -6.9449  -12.6625 O   0  0  0  0  0  0  0  0  0  0  0  0
   12.3398   -8.0208   -7.4072 C   0  0  0  0  0  0  0  0  0  0  0  0
   12.9080   -6.9462   -8.3136 C   0  0  0  0  0  0  0  0  0  0  0  0
   14.1549   -7.4760   -8.9476 C   0  0  2  0  0  0  0  0  0  0  0  0
   15.1724   -7.7159   -7.8430 C   0  0  0  0  0  0  0  0  0  0  0  0
   14.7149   -6.5632  -10.0113 C   0  0  2  0  0  0  0  0  0  0  0  0
   15.9471   -7.1604  -10.5686 N   0  0  0  0  0  0  0  0  0  0  0  0
   15.0891   -5.2285   -9.5335 C   0  0  0  0  0  0  0  0  0  0  0  0
   14.2385   -4.3471   -9.2042 O   0  0  0  0  0  0  0  0  0  0  0  0
   16.4127   -4.8807   -9.4202 O   0  0  0  0  0  0  0  0  0  0  0  0
  1  2  1  0
  2  3  1  0
  3  5  1  0
  3  4  1  6
  5  7  1  0
  5  6  1  1
  7  9  1  0
  8  7  2  0
  9 10  1  0
 10 13  1  0
 10 11  1  6
 11 12  1  0
 13 20  1  0
 14 13  2  0
 15 16  1  0
 17 19  1  0
 17 16  1  0
 17 18  1  1
 19 21  1  0
 19 20  1  1
 21 22  2  0
 21 23  1  0
M  END
$$$$
