ICI.pdb
     RDKit          3D

 23 22  0  0  1  0  0  0  0  0999 V2000
   21.4877  -20.7387   -9.4404 C   0  0  0  0  0  0  0  0  0  0  0  0
   22.9437  -21.2311   -9.3064 C   0  0  0  0  0  0  0  0  0  0  0  0
   23.7674  -20.4868  -10.3410 C   0  0  2  0  0  0  0  0  0  0  0  0
   23.0599  -20.6608  -11.7004 C   0  0  0  0  0  0  0  0  0  0  0  0
   25.2002  -20.8316  -10.4014 C   0  0  2  0  0  0  0  0  0  0  0  0
   25.7289  -20.6923   -9.0367 N   0  0  0  0  0  0  0  0  0  0  0  0
   26.0371  -20.1225  -11.3706 C   0  0  0  0  0  0  0  0  0  0  0  0
   26.5139  -18.9844  -11.0239 O   0  0  0  0  0  0  0  0  0  0  0  0
   26.3654  -20.5855  -12.6468 N   0  0  0  0  0  0  0  0  0  0  0  0
   27.2920  -19.9833  -13.6038 C   0  0  1  0  0  0  0  0  0  0  0  0
   28.2313  -20.9973  -14.2083 C   0  0  0  0  0  0  0  0  0  0  0  0
   29.2038  -21.8632  -12.9435 S   0  0  0  0  0  0  0  0  0  0  0  0
   26.5562  -19.2214  -14.6083 C   0  0  0  0  0  0  0  0  0  0  0  0
   25.5466  -19.7825  -15.1921 O   0  0  0  0  0  0  0  0  0  0  0  0
   23.6068  -15.2295  -16.4550 C   0  0  0  0  0  0  0  0  0  0  0  0
   25.0855  -14.9377  -16.6205 C   0  0  0  0  0  0  0  0  0  0  0  0
   25.8412  -15.7541  -15.6207 C   0  0  2  0  0  0  0  0  0  0  0  0
   27.2318  -15.1532  -15.4853 C   0  0  0  0  0  0  0  0  0  0  0  0
   25.9160  -17.2174  -15.9829 C   0  0  2  0  0  0  0  0  0  0  0  0
   26.8112  -17.9111  -15.0326 N   0  0  0  0  0  0  0  0  0  0  0  0
   26.4537  -17.4873  -17.3200 C   0  0  0  0  0  0  0  0  0  0  0  0
   25.7463  -17.4468  -18.3721 O   0  0  0  0  0  0  0  0  0  0  0  0
   27.7815  -17.7984  -17.4815 O   0  0  0  0  0  0  0  0  0  0  0  0
  1  2  1  0
  2  3  1  0
  3  5  1  0
  3  4  1  6
  5  7  1  0
  5  6  1  1
  7  9  1  0
  8  7  2  0
  9 10  1  0
 10 13  1  0
 10 11  1  6
 11 12  1  0
 13 20  1  0
 14 13  2  0
 15 16  1  0
 17 19  1  0
 17 16  1  0
 17 18  1  6
 19 21  1  0
 19 20  1  1
 21 22  2  0
 21 23  1  0
M  END
$$$$
