GHP.pdb
     RDKit          3D

 22 23  0  0  1  0  0  0  0  0999 V2000
   27.4031  -20.4914  -14.0966 N   0  0  0  0  0  0  0  0  0  0  0  0
   27.9194  -21.0814  -12.8971 C   0  0  0  0  0  0  0  0  0  0  0  0
   27.1896  -20.5335  -11.6975 C   0  0  0  0  0  0  0  0  0  0  0  0
   26.9063  -19.3328  -11.6651 O   0  0  0  0  0  0  0  0  0  0  0  0
   26.8212  -21.3546  -10.6106 N   0  0  0  0  0  0  0  0  0  0  0  0
   26.2526  -20.8894   -9.4293 C   0  0  1  0  0  0  0  0  0  0  0  0
   24.7509  -21.0592   -9.2337 C   0  0  0  0  0  0  0  0  0  0  0  0
   24.0408  -20.7915  -10.4907 C   0  0  0  0  0  0  0  0  0  0  0  0
   23.7702  -21.4981  -11.6188 C   0  0  0  0  0  0  0  0  0  0  0  0
   23.0419  -20.7351  -12.4753 N   0  0  0  0  0  0  0  0  0  0  0  0
   22.8456  -19.5424  -11.8979 C   0  0  0  0  0  0  0  0  0  0  0  0
   23.4346  -19.5684  -10.7216 N   0  0  0  0  0  0  0  0  0  0  0  0
   27.0173  -20.9534   -8.1850 C   0  0  0  0  0  0  0  0  0  0  0  0
   27.3223  -22.1382   -7.7884 O   0  0  0  0  0  0  0  0  0  0  0  0
   27.4204  -19.8312   -7.4261 N   0  0  0  0  0  0  0  0  0  0  0  0
   27.2382  -18.4504   -7.7768 C   0  0  0  0  0  0  0  0  0  0  0  0
   28.1658  -17.6561   -6.8400 C   0  0  0  0  0  0  0  0  0  0  0  0
   28.2083  -18.5216   -5.6314 C   0  0  0  0  0  0  0  0  0  0  0  0
   28.0957  -19.9234   -6.1242 C   0  0  1  0  0  0  0  0  0  0  0  0
   27.3136  -20.7594   -5.1879 C   0  0  0  0  0  0  0  0  0  0  0  0
   26.1440  -21.1053   -5.4815 O   0  0  0  0  0  0  0  0  0  0  0  0
   27.8282  -21.1856   -3.9766 O   0  0  0  0  0  0  0  0  0  0  0  0
  2  1  1  0
  3  4  2  0
  3  2  1  0
  5  3  1  0
  6  5  1  0
  6 13  1  0
  6  7  1  1
  8  7  1  0
  9  8  2  0
 10 11  1  0
 10  9  1  0
 11 12  2  0
 12  8  1  0
 13 15  1  0
 14 13  2  0
 15 16  1  0
 15 19  1  0
 16 17  1  0
 17 18  1  0
 19 18  1  0
 20 22  1  0
 19 20  1  1
 21 20  2  0
M  END
$$$$
