GHP.pdb
     RDKit          3D

 22 23  0  0  1  0  0  0  0  0999 V2000
   14.4926   -9.4556  -15.0902 N   0  0  0  0  0  0  0  0  0  0  0  0
   15.0180   -8.1466  -14.8373 C   0  0  0  0  0  0  0  0  0  0  0  0
   15.5451   -8.0662  -13.4274 C   0  0  0  0  0  0  0  0  0  0  0  0
   15.2492   -8.9561  -12.6252 O   0  0  0  0  0  0  0  0  0  0  0  0
   16.3673   -7.0023  -12.9991 N   0  0  0  0  0  0  0  0  0  0  0  0
   16.7341   -6.7734  -11.6769 C   0  0  1  0  0  0  0  0  0  0  0  0
   18.2188   -6.7158  -11.3381 C   0  0  0  0  0  0  0  0  0  0  0  0
   18.9614   -7.6988  -12.1369 C   0  0  0  0  0  0  0  0  0  0  0  0
   18.6391   -8.6199  -13.0819 C   0  0  0  0  0  0  0  0  0  0  0  0
   19.7618   -9.2597  -13.5017 N   0  0  0  0  0  0  0  0  0  0  0  0
   20.8015   -8.7500  -12.8281 C   0  0  0  0  0  0  0  0  0  0  0  0
   20.3349   -7.8245  -12.0175 N   0  0  0  0  0  0  0  0  0  0  0  0
   15.9065   -5.9100  -10.8363 C   0  0  0  0  0  0  0  0  0  0  0  0
   15.5457   -4.8002  -11.3769 O   0  0  0  0  0  0  0  0  0  0  0  0
   15.5006   -6.2156   -9.5174 N   0  0  0  0  0  0  0  0  0  0  0  0
   15.8530   -7.3857   -8.7627 C   0  0  0  0  0  0  0  0  0  0  0  0
   14.8755   -7.4258   -7.5745 C   0  0  0  0  0  0  0  0  0  0  0  0
   14.5842   -5.9836   -7.3580 C   0  0  0  0  0  0  0  0  0  0  0  0
   14.6409   -5.3453   -8.7032 C   0  0  1  0  0  0  0  0  0  0  0  0
   15.2039   -3.9799   -8.6252 C   0  0  0  0  0  0  0  0  0  0  0  0
   16.4082   -3.7796   -8.9141 O   0  0  0  0  0  0  0  0  0  0  0  0
   14.4426   -2.8912   -8.2395 O   0  0  0  0  0  0  0  0  0  0  0  0
  2  1  1  0
  3  4  2  0
  3  2  1  0
  5  3  1  0
  6  5  1  0
  6 13  1  0
  6  7  1  6
  8  7  1  0
  9  8  2  0
 10 11  1  0
 10  9  1  0
 11 12  2  0
 12  8  1  0
 13 15  1  0
 14 13  2  0
 15 16  1  0
 15 19  1  0
 16 17  1  0
 17 18  1  0
 19 18  1  0
 20 22  1  0
 19 20  1  1
 21 20  2  0
M  END
$$$$
