GHP.pdb
     RDKit          3D

 22 23  0  0  1  0  0  0  0  0999 V2000
   22.0205  -12.0397  -18.9121 N   0  0  0  0  0  0  0  0  0  0  0  0
   21.9634  -10.6770  -19.3517 C   0  0  0  0  0  0  0  0  0  0  0  0
   21.2581   -9.8320  -18.3219 C   0  0  0  0  0  0  0  0  0  0  0  0
   20.2599   -9.1882  -18.6565 O   0  0  0  0  0  0  0  0  0  0  0  0
   21.7070   -9.7564  -16.9862 N   0  0  0  0  0  0  0  0  0  0  0  0
   21.0928   -9.0040  -15.9903 C   0  0  1  0  0  0  0  0  0  0  0  0
   20.3496   -9.7404  -14.8823 C   0  0  0  0  0  0  0  0  0  0  0  0
   19.3330  -10.6307  -15.4564 C   0  0  0  0  0  0  0  0  0  0  0  0
   18.1409  -10.4602  -16.0851 C   0  0  0  0  0  0  0  0  0  0  0  0
   17.6231  -11.6697  -16.4241 N   0  0  0  0  0  0  0  0  0  0  0  0
   18.4808  -12.6136  -16.0142 C   0  0  0  0  0  0  0  0  0  0  0  0
   19.4965  -12.0053  -15.4400 N   0  0  0  0  0  0  0  0  0  0  0  0
   21.7010   -7.7480  -15.5547 C   0  0  0  0  0  0  0  0  0  0  0  0
   22.9133   -7.8415  -15.1354 O   0  0  0  0  0  0  0  0  0  0  0  0
   21.0552   -6.4909  -15.5671 N   0  0  0  0  0  0  0  0  0  0  0  0
   19.7570   -6.2007  -16.1089 C   0  0  0  0  0  0  0  0  0  0  0  0
   19.6842   -4.6672  -16.2192 C   0  0  0  0  0  0  0  0  0  0  0  0
   20.5719   -4.2296  -15.1091 C   0  0  0  0  0  0  0  0  0  0  0  0
   21.6365   -5.2664  -14.9996 C   0  0  1  0  0  0  0  0  0  0  0  0
   22.0333   -5.4805  -13.5910 C   0  0  0  0  0  0  0  0  0  0  0  0
   21.4871   -6.3853  -12.9152 O   0  0  0  0  0  0  0  0  0  0  0  0
   23.0019   -4.7092  -12.9742 O   0  0  0  0  0  0  0  0  0  0  0  0
  2  1  1  0
  3  4  2  0
  3  2  1  0
  5  3  1  0
  6  5  1  0
  6 13  1  0
  6  7  1  1
  8  7  1  0
  9  8  2  0
 10 11  1  0
 10  9  1  0
 11 12  2  0
 12  8  1  0
 13 15  1  0
 14 13  2  0
 15 16  1  0
 15 19  1  0
 16 17  1  0
 17 18  1  0
 19 18  1  0
 20 22  1  0
 19 20  1  1
 21 20  2  0
M  END
$$$$
