GHP.pdb
     RDKit          3D

 22 23  0  0  1  0  0  0  0  0999 V2000
   24.7132  -11.6944  -20.5435 N   0  0  0  0  0  0  0  0  0  0  0  0
   23.8364  -10.5611  -20.5276 C   0  0  0  0  0  0  0  0  0  0  0  0
   23.4496  -10.2282  -19.1093 C   0  0  0  0  0  0  0  0  0  0  0  0
   22.6854  -10.9843  -18.5033 O   0  0  0  0  0  0  0  0  0  0  0  0
   23.9367   -9.0766  -18.4552 N   0  0  0  0  0  0  0  0  0  0  0  0
   23.5256   -8.6533  -17.1954 C   0  0  1  0  0  0  0  0  0  0  0  0
   24.5518   -8.6333  -16.0689 C   0  0  0  0  0  0  0  0  0  0  0  0
   25.4114   -9.8214  -16.1427 C   0  0  0  0  0  0  0  0  0  0  0  0
   25.4586  -10.9350  -16.9191 C   0  0  0  0  0  0  0  0  0  0  0  0
   26.5061  -11.7139  -16.5421 N   0  0  0  0  0  0  0  0  0  0  0  0
   27.1293  -11.1014  -15.5268 C   0  0  0  0  0  0  0  0  0  0  0  0
   26.4862   -9.9792  -15.2846 N   0  0  0  0  0  0  0  0  0  0  0  0
   22.5071   -7.6111  -17.0798 C   0  0  0  0  0  0  0  0  0  0  0  0
   22.7181   -6.5567  -17.7855 O   0  0  0  0  0  0  0  0  0  0  0  0
   21.3535   -7.6957  -16.2676 N   0  0  0  0  0  0  0  0  0  0  0  0
   20.9101   -8.8438  -15.5272 C   0  0  0  0  0  0  0  0  0  0  0  0
   19.4506   -8.5501  -15.1365 C   0  0  0  0  0  0  0  0  0  0  0  0
   19.4443   -7.0663  -15.0366 C   0  0  0  0  0  0  0  0  0  0  0  0
   20.4209   -6.5807  -16.0518 C   0  0  1  0  0  0  0  0  0  0  0  0
   21.1418   -5.3820  -15.5715 C   0  0  0  0  0  0  0  0  0  0  0  0
   22.3181   -5.4842  -15.1477 O   0  0  0  0  0  0  0  0  0  0  0  0
   20.5618   -4.1261  -15.5702 O   0  0  0  0  0  0  0  0  0  0  0  0
  2  1  1  0
  3  4  2  0
  3  2  1  0
  5  3  1  0
  6  5  1  0
  6 13  1  0
  6  7  1  6
  8  7  1  0
  9  8  2  0
 10 11  1  0
 10  9  1  0
 11 12  2  0
 12  8  1  0
 13 15  1  0
 14 13  2  0
 15 16  1  0
 15 19  1  0
 16 17  1  0
 17 18  1  0
 19 18  1  0
 20 22  1  0
 19 20  1  1
 21 20  2  0
M  END
$$$$
