HLW.pdb
     RDKit          3D

 33 35  0  0  1  0  0  0  0  0999 V2000
   10.0932  -16.1719   16.9603 N   0  0  0  0  0  0  0  0  0  0  0  0
   10.3309  -16.8651   18.1990 C   0  0  1  0  0  0  0  0  0  0  0  0
   11.5956  -17.6566   18.1360 C   0  0  0  0  0  0  0  0  0  0  0  0
   11.5935  -18.6183   17.0212 C   0  0  0  0  0  0  0  0  0  0  0  0
   10.8060  -18.6840   15.9056 C   0  0  0  0  0  0  0  0  0  0  0  0
   11.1559  -19.7529   15.1732 N   0  0  0  0  0  0  0  0  0  0  0  0
   12.1593  -20.3658   15.8174 C   0  0  0  0  0  0  0  0  0  0  0  0
   12.4186  -19.6743   16.9341 N   0  0  0  0  0  0  0  0  0  0  0  0
   10.1977  -16.0296   19.4031 C   0  0  0  0  0  0  0  0  0  0  0  0
   10.6423  -14.8308   19.4278 O   0  0  0  0  0  0  0  0  0  0  0  0
    6.8024  -14.0931   19.4268 C   0  0  0  0  0  0  0  0  0  0  0  0
    8.2276  -14.0712   19.9820 C   0  0  1  0  0  0  0  0  0  0  0  0
    8.9345  -12.8209   19.5956 C   0  0  0  0  0  0  0  0  0  0  0  0
    8.2945  -14.4904   21.3971 C   0  0  0  0  0  0  0  0  0  0  0  0
    9.2222  -15.6374   21.7115 C   0  0  2  0  0  0  0  0  0  0  0  0
    9.5852  -16.4623   20.6081 N   0  0  0  0  0  0  0  0  0  0  0  0
    8.7781  -16.3798   22.9129 C   0  0  0  0  0  0  0  0  0  0  0  0
    7.5590  -16.4300   23.1776 O   0  0  0  0  0  0  0  0  0  0  0  0
    9.6950  -17.0306   23.7653 N   0  0  0  0  0  0  0  0  0  0  0  0
    9.9625  -16.5763   25.1395 C   0  0  1  0  0  0  0  0  0  0  0  0
    9.7096  -15.1164   25.2559 C   0  0  0  0  0  0  0  0  0  0  0  0
    8.3451  -14.7714   25.6359 C   0  0  0  0  0  0  0  0  0  0  0  0
    7.2606  -15.6183   25.5890 C   0  0  0  0  0  0  0  0  0  0  0  0
    6.1786  -14.9284   25.9747 N   0  0  0  0  0  0  0  0  0  0  0  0
    6.5006  -13.6679   26.2741 C   0  0  0  0  0  0  0  0  0  0  0  0
    5.7218  -12.6057   26.7307 C   0  0  0  0  0  0  0  0  0  0  0  0
    6.2887  -11.3841   26.9971 C   0  0  0  0  0  0  0  0  0  0  0  0
    7.6543  -11.2851   26.7855 C   0  0  0  0  0  0  0  0  0  0  0  0
    8.4306  -12.3080   26.3404 C   0  0  0  0  0  0  0  0  0  0  0  0
    7.8482  -13.5440   26.0712 C   0  0  0  0  0  0  0  0  0  0  0  0
    9.3030  -17.3816   26.1631 C   0  0  0  0  0  0  0  0  0  0  0  0
    9.6238  -17.2718   27.5296 O   0  0  0  0  0  0  0  0  0  0  0  0
    8.3949  -18.2529   25.9361 O   0  0  0  0  0  0  0  0  0  0  0  0
  2  9  1  0
  2  1  1  6
  2  3  1  0
  4  3  1  0
  4  5  2  0
  6  5  1  0
  7  6  1  0
  8  7  2  0
  8  4  1  0
  9 16  1  0
 10  9  2  0
 12 11  1  1
 12 13  1  0
 14 12  1  0
 15 14  1  6
 16 15  1  0
 17 15  1  0
 18 17  2  0
 19 17  1  0
 20 31  1  0
 20 19  1  0
 21 22  1  0
 20 21  1  6
 22 23  2  0
 22 30  1  0
 23 24  1  0
 24 25  1  0
 25 26  2  0
 27 26  1  0
 28 27  2  0
 29 28  1  0
 30 29  2  0
 30 25  1  0
 31 32  1  0
 33 31  2  0
M  END
$$$$
