HLW.pdb
     RDKit          3D

 33 35  0  0  1  0  0  0  0  0999 V2000
    9.6175  -18.9112   20.0092 N   0  0  0  0  0  0  0  0  0  0  0  0
   10.6169  -17.9014   19.7787 C   0  0  1  0  0  0  0  0  0  0  0  0
   10.8390  -17.6910   18.3171 C   0  0  0  0  0  0  0  0  0  0  0  0
   11.1535  -18.9474   17.6170 C   0  0  0  0  0  0  0  0  0  0  0  0
   10.3305  -19.8677   17.0297 C   0  0  0  0  0  0  0  0  0  0  0  0
   11.0673  -20.8714   16.5286 N   0  0  0  0  0  0  0  0  0  0  0  0
   12.3517  -20.5941   16.7950 C   0  0  0  0  0  0  0  0  0  0  0  0
   12.3963  -19.4293   17.4534 N   0  0  0  0  0  0  0  0  0  0  0  0
   10.4226  -16.6616   20.5473 C   0  0  0  0  0  0  0  0  0  0  0  0
   11.3594  -15.7980   20.6559 O   0  0  0  0  0  0  0  0  0  0  0  0
    6.0139  -13.5441   19.9662 C   0  0  0  0  0  0  0  0  0  0  0  0
    7.4425  -14.0236   20.2290 C   0  0  1  0  0  0  0  0  0  0  0  0
    8.4380  -13.1048   19.6151 C   0  0  0  0  0  0  0  0  0  0  0  0
    7.6573  -14.4327   21.6323 C   0  0  0  0  0  0  0  0  0  0  0  0
    8.9665  -15.1173   21.9363 C   0  0  2  0  0  0  0  0  0  0  0  0
    9.2187  -16.3213   21.2175 N   0  0  0  0  0  0  0  0  0  0  0  0
    9.2026  -15.2122   23.3946 C   0  0  0  0  0  0  0  0  0  0  0  0
    8.8808  -14.2513   24.1240 O   0  0  0  0  0  0  0  0  0  0  0  0
    9.7812  -16.3579   23.9807 N   0  0  0  0  0  0  0  0  0  0  0  0
   10.1056  -16.4393   25.4141 C   0  0  1  0  0  0  0  0  0  0  0  0
    8.8736  -16.6939   26.2055 C   0  0  0  0  0  0  0  0  0  0  0  0
    7.8330  -15.6869   26.0381 C   0  0  0  0  0  0  0  0  0  0  0  0
    6.5926  -15.9000   25.4798 C   0  0  0  0  0  0  0  0  0  0  0  0
    5.9386  -14.7306   25.4637 N   0  0  0  0  0  0  0  0  0  0  0  0
    6.6900  -13.7586   25.9862 C   0  0  0  0  0  0  0  0  0  0  0  0
    6.4266  -12.4053   26.1918 C   0  0  0  0  0  0  0  0  0  0  0  0
    7.3623  -11.5899   26.7786 C   0  0  0  0  0  0  0  0  0  0  0  0
    8.5556  -12.1924   27.1424 C   0  0  0  0  0  0  0  0  0  0  0  0
    8.8319  -13.5092   26.9499 C   0  0  0  0  0  0  0  0  0  0  0  0
    7.8781  -14.3298   26.3531 C   0  0  0  0  0  0  0  0  0  0  0  0
   11.2090  -17.3463   25.7158 C   0  0  0  0  0  0  0  0  0  0  0  0
   11.8686  -18.0876   24.7170 O   0  0  0  0  0  0  0  0  0  0  0  0
   11.6776  -17.5649   26.8854 O   0  0  0  0  0  0  0  0  0  0  0  0
  2  9  1  0
  2  1  1  6
  2  3  1  0
  4  3  1  0
  4  5  2  0
  6  5  1  0
  7  6  1  0
  8  7  2  0
  8  4  1  0
  9 16  1  0
 10  9  2  0
 12 11  1  1
 12 13  1  0
 14 12  1  0
 15 14  1  1
 16 15  1  0
 17 15  1  0
 18 17  2  0
 19 17  1  0
 20 31  1  0
 20 19  1  0
 21 22  1  0
 20 21  1  1
 22 23  2  0
 22 30  1  0
 23 24  1  0
 24 25  1  0
 25 26  2  0
 27 26  1  0
 28 27  2  0
 29 28  1  0
 30 29  2  0
 30 25  1  0
 31 32  1  0
 33 31  2  0
M  END
$$$$
