HLW.pdb
     RDKit          3D

 33 35  0  0  1  0  0  0  0  0999 V2000
    9.8142  -17.6610   17.2561 N   0  0  0  0  0  0  0  0  0  0  0  0
   10.9877  -16.8614   17.4913 C   0  0  1  0  0  0  0  0  0  0  0  0
   11.4081  -16.1481   16.2486 C   0  0  0  0  0  0  0  0  0  0  0  0
   11.5057  -17.0559   15.0936 C   0  0  0  0  0  0  0  0  0  0  0  0
   10.7150  -17.1709   13.9842 C   0  0  0  0  0  0  0  0  0  0  0  0
   11.1809  -18.1579   13.2032 N   0  0  0  0  0  0  0  0  0  0  0  0
   12.2610  -18.6700   13.8103 C   0  0  0  0  0  0  0  0  0  0  0  0
   12.4514  -17.9989   14.9529 N   0  0  0  0  0  0  0  0  0  0  0  0
   10.9157  -16.0061   18.6867 C   0  0  0  0  0  0  0  0  0  0  0  0
   11.9701  -15.4910   19.1948 O   0  0  0  0  0  0  0  0  0  0  0  0
    6.2896  -13.1801   20.1119 C   0  0  0  0  0  0  0  0  0  0  0  0
    7.7650  -13.5264   19.9044 C   0  0  1  0  0  0  0  0  0  0  0  0
    8.5549  -12.3172   19.5494 C   0  0  0  0  0  0  0  0  0  0  0  0
    8.2972  -14.4101   20.9620 C   0  0  0  0  0  0  0  0  0  0  0  0
    9.6023  -15.1034   20.6601 C   0  0  2  0  0  0  0  0  0  0  0  0
    9.7105  -15.6852   19.3641 N   0  0  0  0  0  0  0  0  0  0  0  0
   10.0118  -15.9945   21.7691 C   0  0  0  0  0  0  0  0  0  0  0  0
    9.8368  -17.2252   21.6533 O   0  0  0  0  0  0  0  0  0  0  0  0
   10.5932  -15.4901   22.9516 N   0  0  0  0  0  0  0  0  0  0  0  0
   10.1455  -15.8971   24.2934 C   0  0  1  0  0  0  0  0  0  0  0  0
    8.7182  -15.5328   24.4908 C   0  0  0  0  0  0  0  0  0  0  0  0
    8.4228  -14.9428   25.7907 C   0  0  0  0  0  0  0  0  0  0  0  0
    8.8582  -15.4206   27.0064 C   0  0  0  0  0  0  0  0  0  0  0  0
    8.3483  -14.6374   27.9665 N   0  0  0  0  0  0  0  0  0  0  0  0
    7.5989  -13.6662   27.4396 C   0  0  0  0  0  0  0  0  0  0  0  0
    6.8956  -12.6225   28.0389 C   0  0  0  0  0  0  0  0  0  0  0  0
    6.2021  -11.7154   27.2766 C   0  0  0  0  0  0  0  0  0  0  0  0
    6.2502  -11.9064   25.9052 C   0  0  0  0  0  0  0  0  0  0  0  0
    6.9292  -12.9175   25.3020 C   0  0  0  0  0  0  0  0  0  0  0  0
    7.6294  -13.8344   26.0819 C   0  0  0  0  0  0  0  0  0  0  0  0
   10.4601  -17.2844   24.6216 C   0  0  0  0  0  0  0  0  0  0  0  0
    9.9359  -18.3681   23.8915 O   0  0  0  0  0  0  0  0  0  0  0  0
   11.2172  -17.6551   25.5833 O   0  0  0  0  0  0  0  0  0  0  0  0
  2  9  1  0
  2  1  1  6
  2  3  1  0
  4  3  1  0
  4  5  2  0
  6  5  1  0
  7  6  1  0
  8  7  2  0
  8  4  1  0
  9 16  1  0
 10  9  2  0
 12 11  1  1
 12 13  1  0
 14 12  1  0
 15 14  1  1
 16 15  1  0
 17 15  1  0
 18 17  2  0
 19 17  1  0
 20 31  1  0
 20 19  1  0
 21 22  1  0
 20 21  1  6
 22 23  2  0
 22 30  1  0
 23 24  1  0
 24 25  1  0
 25 26  2  0
 27 26  1  0
 28 27  2  0
 29 28  1  0
 30 29  2  0
 30 25  1  0
 31 32  1  0
 33 31  2  0
M  END
$$$$
