HLW.pdb
     RDKit          3D

 33 35  0  0  1  0  0  0  0  0999 V2000
   10.9259  -17.0017   17.1245 N   0  0  0  0  0  0  0  0  0  0  0  0
   11.6907  -17.1155   18.3385 C   0  0  1  0  0  0  0  0  0  0  0  0
   13.1523  -16.9752   18.0661 C   0  0  0  0  0  0  0  0  0  0  0  0
   13.5881  -17.8080   16.9330 C   0  0  0  0  0  0  0  0  0  0  0  0
   14.1559  -19.0515   16.9106 C   0  0  0  0  0  0  0  0  0  0  0  0
   14.4039  -19.4073   15.6405 N   0  0  0  0  0  0  0  0  0  0  0  0
   13.9980  -18.3974   14.8576 C   0  0  0  0  0  0  0  0  0  0  0  0
   13.5059  -17.4338   15.6459 N   0  0  0  0  0  0  0  0  0  0  0  0
   11.1989  -16.2876   19.4513 C   0  0  0  0  0  0  0  0  0  0  0  0
   11.9966  -15.5586   20.1351 O   0  0  0  0  0  0  0  0  0  0  0  0
    6.1250  -13.9423   19.5410 C   0  0  0  0  0  0  0  0  0  0  0  0
    7.6248  -14.1523   19.7566 C   0  0  1  0  0  0  0  0  0  0  0  0
    8.3636  -12.8639   19.6764 C   0  0  0  0  0  0  0  0  0  0  0  0
    7.9173  -15.0434   20.8980 C   0  0  0  0  0  0  0  0  0  0  0  0
    9.3339  -15.5504   21.0046 C   0  0  2  0  0  0  0  0  0  0  0  0
    9.8400  -16.2242   19.8558 N   0  0  0  0  0  0  0  0  0  0  0  0
    9.5601  -16.2621   22.2829 C   0  0  0  0  0  0  0  0  0  0  0  0
    9.6178  -17.5093   22.2796 O   0  0  0  0  0  0  0  0  0  0  0  0
    9.7113  -15.5691   23.5026 N   0  0  0  0  0  0  0  0  0  0  0  0
    9.7629  -16.2539   24.8044 C   0  0  1  0  0  0  0  0  0  0  0  0
    9.6415  -15.2668   25.9088 C   0  0  0  0  0  0  0  0  0  0  0  0
    8.3431  -14.6087   25.9866 C   0  0  0  0  0  0  0  0  0  0  0  0
    7.1241  -15.2103   25.7675 C   0  0  0  0  0  0  0  0  0  0  0  0
    6.1723  -14.2752   25.8893 N   0  0  0  0  0  0  0  0  0  0  0  0
    6.7076  -13.0870   26.1792 C   0  0  0  0  0  0  0  0  0  0  0  0
    6.1162  -11.8462   26.4114 C   0  0  0  0  0  0  0  0  0  0  0  0
    6.8834  -10.7505   26.7206 C   0  0  0  0  0  0  0  0  0  0  0  0
    8.2513  -10.9605   26.7838 C   0  0  0  0  0  0  0  0  0  0  0  0
    8.8470  -12.1615   26.5601 C   0  0  0  0  0  0  0  0  0  0  0  0
    8.0624  -13.2683   26.2460 C   0  0  0  0  0  0  0  0  0  0  0  0
    8.8464  -17.3854   24.9094 C   0  0  0  0  0  0  0  0  0  0  0  0
    9.1016  -18.4851   25.7508 O   0  0  0  0  0  0  0  0  0  0  0  0
    7.7491  -17.5007   24.2629 O   0  0  0  0  0  0  0  0  0  0  0  0
  2  9  1  0
  2  1  1  6
  2  3  1  0
  4  3  1  0
  4  5  2  0
  6  5  1  0
  7  6  1  0
  8  7  2  0
  8  4  1  0
  9 16  1  0
 10  9  2  0
 12 11  1  1
 12 13  1  0
 14 12  1  0
 15 14  1  6
 16 15  1  0
 17 15  1  0
 18 17  2  0
 19 17  1  0
 20 31  1  0
 20 19  1  0
 21 22  1  0
 20 21  1  1
 22 23  2  0
 22 30  1  0
 23 24  1  0
 24 25  1  0
 25 26  2  0
 27 26  1  0
 28 27  2  0
 29 28  1  0
 30 29  2  0
 30 25  1  0
 31 32  1  0
 33 31  2  0
M  END
$$$$
