HLW.pdb
     RDKit          3D

 33 35  0  0  1  0  0  0  0  0999 V2000
    9.4167  -18.5996   19.7767 N   0  0  0  0  0  0  0  0  0  0  0  0
   10.5098  -17.6785   19.6089 C   0  0  1  0  0  0  0  0  0  0  0  0
   10.7639  -17.4063   18.1627 C   0  0  0  0  0  0  0  0  0  0  0  0
   10.9817  -18.6435   17.3950 C   0  0  0  0  0  0  0  0  0  0  0  0
   10.0865  -19.5410   16.8831 C   0  0  0  0  0  0  0  0  0  0  0  0
   10.7493  -20.5341   16.2702 N   0  0  0  0  0  0  0  0  0  0  0  0
   12.0588  -20.2727   16.3909 C   0  0  0  0  0  0  0  0  0  0  0  0
   12.1919  -19.1281   17.0722 N   0  0  0  0  0  0  0  0  0  0  0  0
   10.4278  -16.4722   20.4478 C   0  0  0  0  0  0  0  0  0  0  0  0
   11.4639  -15.7615   20.6859 O   0  0  0  0  0  0  0  0  0  0  0  0
    6.0153  -13.3999   20.0666 C   0  0  0  0  0  0  0  0  0  0  0  0
    7.5082  -13.6615   20.2735 C   0  0  1  0  0  0  0  0  0  0  0  0
    8.3321  -12.6005   19.6348 C   0  0  0  0  0  0  0  0  0  0  0  0
    7.8330  -14.0416   21.6637 C   0  0  0  0  0  0  0  0  0  0  0  0
    9.0988  -14.8378   21.8608 C   0  0  2  0  0  0  0  0  0  0  0  0
    9.2320  -16.0022   21.0507 N   0  0  0  0  0  0  0  0  0  0  0  0
    9.3852  -15.0534   23.2972 C   0  0  0  0  0  0  0  0  0  0  0  0
    9.4417  -14.0653   24.0584 O   0  0  0  0  0  0  0  0  0  0  0  0
    9.5961  -16.3438   23.8274 N   0  0  0  0  0  0  0  0  0  0  0  0
   10.0150  -16.5720   25.2198 C   0  0  1  0  0  0  0  0  0  0  0  0
    8.8404  -16.9302   26.0570 C   0  0  0  0  0  0  0  0  0  0  0  0
    7.7414  -15.9747   25.9906 C   0  0  0  0  0  0  0  0  0  0  0  0
    6.4650  -16.2490   25.5532 C   0  0  0  0  0  0  0  0  0  0  0  0
    5.7571  -15.1124   25.6007 N   0  0  0  0  0  0  0  0  0  0  0  0
    6.5074  -14.1036   26.0498 C   0  0  0  0  0  0  0  0  0  0  0  0
    6.2002  -12.7637   26.2808 C   0  0  0  0  0  0  0  0  0  0  0  0
    7.1474  -11.9022   26.7762 C   0  0  0  0  0  0  0  0  0  0  0  0
    8.3976  -12.4456   27.0238 C   0  0  0  0  0  0  0  0  0  0  0  0
    8.7171  -13.7483   26.8047 C   0  0  0  0  0  0  0  0  0  0  0  0
    7.7512  -14.6159   26.3010 C   0  0  0  0  0  0  0  0  0  0  0  0
   11.1447  -17.4873   25.3507 C   0  0  0  0  0  0  0  0  0  0  0  0
   11.7615  -17.7494   26.5889 O   0  0  0  0  0  0  0  0  0  0  0  0
   11.6852  -18.1256   24.3833 O   0  0  0  0  0  0  0  0  0  0  0  0
  2  9  1  0
  2  1  1  6
  2  3  1  0
  4  3  1  0
  4  5  2  0
  6  5  1  0
  7  6  1  0
  8  7  2  0
  8  4  1  0
  9 16  1  0
 10  9  2  0
 12 11  1  1
 12 13  1  0
 14 12  1  0
 15 14  1  1
 16 15  1  0
 17 15  1  0
 18 17  2  0
 19 17  1  0
 20 31  1  0
 20 19  1  0
 21 22  1  0
 20 21  1  1
 22 23  2  0
 22 30  1  0
 23 24  1  0
 24 25  1  0
 25 26  2  0
 27 26  1  0
 28 27  2  0
 29 28  1  0
 30 29  2  0
 30 25  1  0
 31 32  1  0
 33 31  2  0
M  END
$$$$
