HLW.pdb
     RDKit          3D

 33 35  0  0  1  0  0  0  0  0999 V2000
    9.9768  -18.7436   20.1950 N   0  0  0  0  0  0  0  0  0  0  0  0
   10.7208  -17.6630   19.6030 C   0  0  1  0  0  0  0  0  0  0  0  0
   10.3531  -17.4828   18.1669 C   0  0  0  0  0  0  0  0  0  0  0  0
   10.5594  -18.7117   17.3828 C   0  0  0  0  0  0  0  0  0  0  0  0
   11.6222  -19.1125   16.6219 C   0  0  0  0  0  0  0  0  0  0  0  0
   11.3535  -20.3070   16.0720 N   0  0  0  0  0  0  0  0  0  0  0  0
   10.1272  -20.6657   16.4783 C   0  0  0  0  0  0  0  0  0  0  0  0
    9.6530  -19.6963   17.2705 N   0  0  0  0  0  0  0  0  0  0  0  0
   10.7232  -16.4190   20.3891 C   0  0  0  0  0  0  0  0  0  0  0  0
   11.3935  -15.3985   20.0088 O   0  0  0  0  0  0  0  0  0  0  0  0
    7.0724  -13.0015   21.0960 C   0  0  0  0  0  0  0  0  0  0  0  0
    8.1397  -14.0708   20.8567 C   0  0  1  0  0  0  0  0  0  0  0  0
    8.2992  -14.3538   19.4053 C   0  0  0  0  0  0  0  0  0  0  0  0
    9.3636  -13.8425   21.6520 C   0  0  0  0  0  0  0  0  0  0  0  0
    9.9300  -15.0436   22.3674 C   0  0  2  0  0  0  0  0  0  0  0  0
   10.0070  -16.2426   21.6017 N   0  0  0  0  0  0  0  0  0  0  0  0
    9.3264  -15.2097   23.7089 C   0  0  0  0  0  0  0  0  0  0  0  0
    8.8750  -14.2060   24.2984 O   0  0  0  0  0  0  0  0  0  0  0  0
    9.2485  -16.4704   24.3377 N   0  0  0  0  0  0  0  0  0  0  0  0
    9.9556  -16.7780   25.5914 C   0  0  1  0  0  0  0  0  0  0  0  0
    9.5090  -15.8596   26.6713 C   0  0  0  0  0  0  0  0  0  0  0  0
    8.1406  -15.3793   26.5239 C   0  0  0  0  0  0  0  0  0  0  0  0
    7.0703  -16.1271   26.0868 C   0  0  0  0  0  0  0  0  0  0  0  0
    5.9952  -15.3286   26.0467 N   0  0  0  0  0  0  0  0  0  0  0  0
    6.3075  -14.0909   26.4378 C   0  0  0  0  0  0  0  0  0  0  0  0
    5.5238  -12.9461   26.5730 C   0  0  0  0  0  0  0  0  0  0  0  0
    6.0713  -11.7704   27.0233 C   0  0  0  0  0  0  0  0  0  0  0  0
    7.4229  -11.8023   27.3259 C   0  0  0  0  0  0  0  0  0  0  0  0
    8.2040  -12.9074   27.2002 C   0  0  0  0  0  0  0  0  0  0  0  0
    7.6418  -14.0961   26.7418 C   0  0  0  0  0  0  0  0  0  0  0  0
    9.9190  -18.1915   25.9546 C   0  0  0  0  0  0  0  0  0  0  0  0
    9.5591  -19.1957   25.0357 O   0  0  0  0  0  0  0  0  0  0  0  0
   10.1946  -18.6566   27.1136 O   0  0  0  0  0  0  0  0  0  0  0  0
  2  9  1  0
  2  1  1  1
  2  3  1  0
  4  3  1  0
  4  5  2  0
  6  5  1  0
  7  6  1  0
  8  7  2  0
  8  4  1  0
  9 16  1  0
 10  9  2  0
 12 11  1  6
 12 13  1  0
 14 12  1  0
 15 14  1  6
 16 15  1  0
 17 15  1  0
 18 17  2  0
 19 17  1  0
 20 31  1  0
 20 19  1  0
 21 22  1  0
 20 21  1  1
 22 23  2  0
 22 30  1  0
 23 24  1  0
 24 25  1  0
 25 26  2  0
 27 26  1  0
 28 27  2  0
 29 28  1  0
 30 29  2  0
 30 25  1  0
 31 32  1  0
 33 31  2  0
M  END
$$$$
