HLW.pdb
     RDKit          3D

 33 35  0  0  1  0  0  0  0  0999 V2000
    8.1983  -18.8980   20.3087 N   0  0  0  0  0  0  0  0  0  0  0  0
    9.4372  -18.4127   19.7599 C   0  0  1  0  0  0  0  0  0  0  0  0
    9.2964  -18.1098   18.3045 C   0  0  0  0  0  0  0  0  0  0  0  0
    8.9982  -19.3149   17.5131 C   0  0  0  0  0  0  0  0  0  0  0  0
    8.8937  -20.6241   17.8927 C   0  0  0  0  0  0  0  0  0  0  0  0
    8.6252  -21.3816   16.8178 N   0  0  0  0  0  0  0  0  0  0  0  0
    8.5597  -20.5616   15.7591 C   0  0  0  0  0  0  0  0  0  0  0  0
    8.7863  -19.3135   16.1869 N   0  0  0  0  0  0  0  0  0  0  0  0
   10.0759  -17.3429   20.5431 C   0  0  0  0  0  0  0  0  0  0  0  0
   11.2198  -16.8757   20.2133 O   0  0  0  0  0  0  0  0  0  0  0  0
    6.8349  -14.3011   23.8177 C   0  0  0  0  0  0  0  0  0  0  0  0
    7.6758  -14.8506   22.6641 C   0  0  1  0  0  0  0  0  0  0  0  0
    7.0518  -14.5399   21.3502 C   0  0  0  0  0  0  0  0  0  0  0  0
    9.1172  -14.5695   22.8251 C   0  0  0  0  0  0  0  0  0  0  0  0
   10.0611  -15.6904   22.4675 C   0  0  2  0  0  0  0  0  0  0  0  0
    9.5016  -16.7511   21.6982 N   0  0  0  0  0  0  0  0  0  0  0  0
   10.8474  -16.1322   23.6414 C   0  0  0  0  0  0  0  0  0  0  0  0
   11.5860  -15.3086   24.2203 O   0  0  0  0  0  0  0  0  0  0  0  0
   10.7844  -17.4572   24.1221 N   0  0  0  0  0  0  0  0  0  0  0  0
   11.7700  -18.0075   25.0666 C   0  0  1  0  0  0  0  0  0  0  0  0
   12.3182  -16.9252   25.9250 C   0  0  0  0  0  0  0  0  0  0  0  0
   11.5018  -16.6114   27.0912 C   0  0  0  0  0  0  0  0  0  0  0  0
   11.1020  -17.5090   28.0558 C   0  0  0  0  0  0  0  0  0  0  0  0
   10.3340  -16.8551   28.9379 N   0  0  0  0  0  0  0  0  0  0  0  0
   10.2107  -15.5696   28.5995 C   0  0  0  0  0  0  0  0  0  0  0  0
    9.5340  -14.5190   29.2173 C   0  0  0  0  0  0  0  0  0  0  0  0
    9.5696  -13.2534   28.6866 C   0  0  0  0  0  0  0  0  0  0  0  0
   10.3068  -13.0989   27.5239 C   0  0  0  0  0  0  0  0  0  0  0  0
   10.9727  -14.1100   26.9061 C   0  0  0  0  0  0  0  0  0  0  0  0
   10.9311  -15.3914   27.4498 C   0  0  0  0  0  0  0  0  0  0  0  0
   11.2895  -19.1717   25.8049 C   0  0  0  0  0  0  0  0  0  0  0  0
   12.1384  -19.9559   26.6090 O   0  0  0  0  0  0  0  0  0  0  0  0
   10.0836  -19.5971   25.7961 O   0  0  0  0  0  0  0  0  0  0  0  0
  2  9  1  0
  2  1  1  1
  2  3  1  0
  4  3  1  0
  4  5  2  0
  6  5  1  0
  7  6  1  0
  8  7  2  0
  8  4  1  0
  9 16  1  0
 10  9  2  0
 12 11  1  1
 12 13  1  0
 14 12  1  0
 15 14  1  1
 16 15  1  0
 17 15  1  0
 18 17  2  0
 19 17  1  0
 20 31  1  0
 20 19  1  0
 21 22  1  0
 20 21  1  1
 22 23  2  0
 22 30  1  0
 23 24  1  0
 24 25  1  0
 25 26  2  0
 27 26  1  0
 28 27  2  0
 29 28  1  0
 30 29  2  0
 30 25  1  0
 31 32  1  0
 33 31  2  0
M  END
$$$$
