NVI.pdb
     RDKit          3D

 24 23  0  0  1  0  0  0  0  0999 V2000
   20.2129  -14.5037  -19.7983 N   0  0  0  0  0  0  0  0  0  0  0  0
   19.2023  -13.5050  -19.8059 C   0  0  0  0  0  0  0  0  0  0  0  0
   18.5112  -13.3659  -20.8435 O   0  0  0  0  0  0  0  0  0  0  0  0
   19.0047  -12.6715  -18.5955 C   0  0  0  0  0  0  0  0  0  0  0  0
   19.9821  -12.9786  -17.5161 C   0  0  2  0  0  0  0  0  0  0  0  0
   19.8076  -14.2896  -16.9019 N   0  0  0  0  0  0  0  0  0  0  0  0
   20.0594  -11.9203  -16.4844 C   0  0  0  0  0  0  0  0  0  0  0  0
   19.2615  -11.8921  -15.5227 O   0  0  0  0  0  0  0  0  0  0  0  0
   22.7876  -10.9933  -14.2207 C   0  0  0  0  0  0  0  0  0  0  0  0
   22.4628   -9.6755  -14.9146 C   0  0  1  0  0  0  0  0  0  0  0  0
   23.5961   -9.3380  -15.8380 C   0  0  0  0  0  0  0  0  0  0  0  0
   21.1522   -9.8139  -15.5810 C   0  0  2  0  0  0  0  0  0  0  0  0
   21.0379  -10.8806  -16.5234 N   0  0  0  0  0  0  0  0  0  0  0  0
   20.5934   -8.5340  -16.1401 C   0  0  0  0  0  0  0  0  0  0  0  0
   20.8819   -8.2363  -17.3056 O   0  0  0  0  0  0  0  0  0  0  0  0
   15.6284   -7.2811  -16.6449 C   0  0  0  0  0  0  0  0  0  0  0  0
   17.1479   -7.2718  -16.8840 C   0  0  0  0  0  0  0  0  0  0  0  0
   17.7921   -6.4037  -15.8538 C   0  0  2  0  0  0  0  0  0  0  0  0
   17.2349   -4.9855  -16.0410 C   0  0  0  0  0  0  0  0  0  0  0  0
   19.2921   -6.3617  -15.8959 C   0  0  2  0  0  0  0  0  0  0  0  0
   19.7593   -7.6701  -15.3992 N   0  0  0  0  0  0  0  0  0  0  0  0
   19.9081   -5.2427  -15.1992 C   0  0  0  0  0  0  0  0  0  0  0  0
   19.9158   -4.1256  -15.8168 O   0  0  0  0  0  0  0  0  0  0  0  0
   20.4823   -5.2459  -13.9543 O   0  0  0  0  0  0  0  0  0  0  0  0
  2  1  1  0
  3  2  2  0
  4  2  1  0
  5  4  1  0
  5  6  1  1
  7  5  1  0
  7  8  2  0
 10  9  1  6
 10 12  1  0
 10 11  1  0
 12 13  1  6
 13  7  1  0
 14 12  1  0
 15 14  2  0
 17 16  1  0
 18 17  1  0
 18 19  1  6
 20 18  1  0
 20 21  1  1
 21 14  1  0
 22 20  1  0
 23 22  2  0
 24 22  1  0
M  END
$$$$
