NVI.pdb
     RDKit          3D

 24 23  0  0  1  0  0  0  0  0999 V2000
   26.8348  -20.1256   -8.2638 N   0  0  0  0  0  0  0  0  0  0  0  0
   26.1469  -21.0099   -9.1378 C   0  0  0  0  0  0  0  0  0  0  0  0
   26.2172  -22.2421   -8.9135 O   0  0  0  0  0  0  0  0  0  0  0  0
   25.3779  -20.4461  -10.2734 C   0  0  0  0  0  0  0  0  0  0  0  0
   25.8705  -20.9177  -11.5961 C   0  0  2  0  0  0  0  0  0  0  0  0
   27.3128  -20.8019  -11.7770 N   0  0  0  0  0  0  0  0  0  0  0  0
   25.1469  -20.3105  -12.7354 C   0  0  0  0  0  0  0  0  0  0  0  0
   25.2411  -19.0899  -12.9877 O   0  0  0  0  0  0  0  0  0  0  0  0
   24.2989  -22.3985  -16.1822 C   0  0  0  0  0  0  0  0  0  0  0  0
   24.2009  -20.8822  -16.0597 C   0  0  1  0  0  0  0  0  0  0  0  0
   23.4195  -20.3648  -17.2313 C   0  0  0  0  0  0  0  0  0  0  0  0
   23.6131  -20.5612  -14.7435 C   0  0  2  0  0  0  0  0  0  0  0  0
   24.3081  -21.0719  -13.6054 N   0  0  0  0  0  0  0  0  0  0  0  0
   22.1347  -20.8175  -14.6361 C   0  0  0  0  0  0  0  0  0  0  0  0
   21.7634  -21.9708  -14.3863 O   0  0  0  0  0  0  0  0  0  0  0  0
   19.1381  -17.6916  -11.6806 C   0  0  0  0  0  0  0  0  0  0  0  0
   19.6997  -18.9265  -12.4058 C   0  0  0  0  0  0  0  0  0  0  0  0
   19.1808  -18.9398  -13.8060 C   0  0  2  0  0  0  0  0  0  0  0  0
   17.6516  -19.0465  -13.7233 C   0  0  0  0  0  0  0  0  0  0  0  0
   19.7129  -20.0400  -14.6779 C   0  0  2  0  0  0  0  0  0  0  0  0
   21.1643  -19.8068  -14.8030 N   0  0  0  0  0  0  0  0  0  0  0  0
   19.0544  -20.1933  -15.9663 C   0  0  0  0  0  0  0  0  0  0  0  0
   19.4748  -19.4439  -16.9102 O   0  0  0  0  0  0  0  0  0  0  0  0
   18.0335  -21.0499  -16.2875 O   0  0  0  0  0  0  0  0  0  0  0  0
  2  1  1  0
  3  2  2  0
  4  2  1  0
  5  4  1  0
  5  6  1  6
  7  5  1  0
  7  8  2  0
 10  9  1  6
 10 12  1  0
 10 11  1  0
 12 13  1  1
 13  7  1  0
 14 12  1  0
 15 14  2  0
 17 16  1  0
 18 17  1  0
 18 19  1  1
 20 18  1  0
 20 21  1  6
 21 14  1  0
 22 20  1  0
 23 22  2  0
 24 22  1  0
M  END
$$$$
