NVI.pdb
     RDKit          3D

 24 23  0  0  1  0  0  0  0  0999 V2000
   19.5435  -15.6645  -19.9810 N   0  0  0  0  0  0  0  0  0  0  0  0
   18.8416  -14.4293  -19.9599 C   0  0  0  0  0  0  0  0  0  0  0  0
   18.1624  -14.1137  -20.9663 O   0  0  0  0  0  0  0  0  0  0  0  0
   18.9384  -13.5667  -18.7577 C   0  0  0  0  0  0  0  0  0  0  0  0
   19.8138  -14.1432  -17.7013 C   0  0  2  0  0  0  0  0  0  0  0  0
   19.2631  -15.3203  -17.0399 N   0  0  0  0  0  0  0  0  0  0  0  0
   20.2608  -13.1420  -16.7072 C   0  0  0  0  0  0  0  0  0  0  0  0
   19.5377  -12.8205  -15.7397 O   0  0  0  0  0  0  0  0  0  0  0  0
   24.3146  -11.7212  -16.6849 C   0  0  0  0  0  0  0  0  0  0  0  0
   23.4394  -11.7236  -15.4368 C   0  0  1  0  0  0  0  0  0  0  0  0
   23.9524  -10.6698  -14.5002 C   0  0  0  0  0  0  0  0  0  0  0  0
   22.0355  -11.5380  -15.8554 C   0  0  2  0  0  0  0  0  0  0  0  0
   21.5293  -12.4908  -16.7909 N   0  0  0  0  0  0  0  0  0  0  0  0
   21.6825  -10.1345  -16.2660 C   0  0  0  0  0  0  0  0  0  0  0  0
   22.0465   -9.7491  -17.3837 O   0  0  0  0  0  0  0  0  0  0  0  0
   17.0872   -6.6679  -16.7611 C   0  0  0  0  0  0  0  0  0  0  0  0
   18.5857   -6.5069  -16.4529 C   0  0  0  0  0  0  0  0  0  0  0  0
   19.1492   -7.8421  -16.0925 C   0  0  2  0  0  0  0  0  0  0  0  0
   18.3923   -8.3352  -14.8513 C   0  0  0  0  0  0  0  0  0  0  0  0
   20.6253   -7.8641  -15.8201 C   0  0  2  0  0  0  0  0  0  0  0  0
   20.9577   -9.2501  -15.4393 N   0  0  0  0  0  0  0  0  0  0  0  0
   21.0993   -6.8857  -14.8530 C   0  0  0  0  0  0  0  0  0  0  0  0
   21.1198   -5.6697  -15.2407 O   0  0  0  0  0  0  0  0  0  0  0  0
   21.5271   -7.1158  -13.5711 O   0  0  0  0  0  0  0  0  0  0  0  0
  2  1  1  0
  3  2  2  0
  4  2  1  0
  5  4  1  0
  5  6  1  1
  7  5  1  0
  7  8  2  0
 10  9  1  6
 10 12  1  0
 10 11  1  0
 12 13  1  6
 13  7  1  0
 14 12  1  0
 15 14  2  0
 17 16  1  0
 18 17  1  0
 18 19  1  1
 20 18  1  0
 20 21  1  1
 21 14  1  0
 22 20  1  0
 23 22  2  0
 24 22  1  0
M  END
$$$$
