NVI.pdb
     RDKit          3D

 24 23  0  0  1  0  0  0  0  0999 V2000
   21.5814  -17.5924  -16.2639 N   0  0  0  0  0  0  0  0  0  0  0  0
   21.4090  -18.1502  -14.9685 C   0  0  0  0  0  0  0  0  0  0  0  0
   20.4122  -17.7942  -14.2953 O   0  0  0  0  0  0  0  0  0  0  0  0
   22.4072  -19.1248  -14.4656 C   0  0  0  0  0  0  0  0  0  0  0  0
   23.5554  -19.3079  -15.3944 C   0  0  2  0  0  0  0  0  0  0  0  0
   23.1820  -19.7530  -16.7320 N   0  0  0  0  0  0  0  0  0  0  0  0
   24.6246  -20.1643  -14.8343 C   0  0  0  0  0  0  0  0  0  0  0  0
   24.5830  -21.4087  -14.9429 O   0  0  0  0  0  0  0  0  0  0  0  0
   29.0019  -20.7127  -12.5981 C   0  0  0  0  0  0  0  0  0  0  0  0
   28.0449  -19.7146  -13.2397 C   0  0  1  0  0  0  0  0  0  0  0  0
   28.6916  -19.1733  -14.4805 C   0  0  0  0  0  0  0  0  0  0  0  0
   26.7539  -20.3936  -13.4700 C   0  0  2  0  0  0  0  0  0  0  0  0
   25.7549  -19.6283  -14.1449 N   0  0  0  0  0  0  0  0  0  0  0  0
   26.1832  -21.0850  -12.2620 C   0  0  0  0  0  0  0  0  0  0  0  0
   26.2849  -22.3161  -12.1973 O   0  0  0  0  0  0  0  0  0  0  0  0
   27.2279  -19.5935   -7.5943 C   0  0  0  0  0  0  0  0  0  0  0  0
   26.7395  -20.6949   -8.5507 C   0  0  0  0  0  0  0  0  0  0  0  0
   25.2914  -20.4733   -8.8408 C   0  0  2  0  0  0  0  0  0  0  0  0
   24.4970  -21.0653   -7.6681 C   0  0  0  0  0  0  0  0  0  0  0  0
   24.7966  -21.0637  -10.1292 C   0  0  2  0  0  0  0  0  0  0  0  0
   25.5467  -20.3943  -11.2090 N   0  0  0  0  0  0  0  0  0  0  0  0
   23.3564  -21.0137  -10.3299 C   0  0  0  0  0  0  0  0  0  0  0  0
   22.9142  -20.0361  -11.0214 O   0  0  0  0  0  0  0  0  0  0  0  0
   22.4155  -21.8949   -9.8634 O   0  0  0  0  0  0  0  0  0  0  0  0
  2  1  1  0
  3  2  2  0
  4  2  1  0
  5  4  1  0
  5  6  1  6
  7  5  1  0
  7  8  2  0
 10  9  1  6
 10 12  1  0
 10 11  1  0
 12 13  1  1
 13  7  1  0
 14 12  1  0
 15 14  2  0
 17 16  1  0
 18 17  1  0
 18 19  1  1
 20 18  1  0
 20 21  1  6
 21 14  1  0
 22 20  1  0
 23 22  2  0
 24 22  1  0
M  END
$$$$
