NVI.pdb
     RDKit          3D

 24 23  0  0  1  0  0  0  0  0999 V2000
   17.2826  -13.9578  -15.3332 N   0  0  0  0  0  0  0  0  0  0  0  0
   18.2036  -12.8857  -15.1882 C   0  0  0  0  0  0  0  0  0  0  0  0
   19.4135  -13.1029  -15.4384 O   0  0  0  0  0  0  0  0  0  0  0  0
   17.7028  -11.5606  -14.7499 C   0  0  0  0  0  0  0  0  0  0  0  0
   16.2529  -11.5724  -14.4148 C   0  0  2  0  0  0  0  0  0  0  0  0
   15.3795  -11.9045  -15.5343 N   0  0  0  0  0  0  0  0  0  0  0  0
   15.8015  -10.3321  -13.7452 C   0  0  0  0  0  0  0  0  0  0  0  0
   15.4590   -9.3267  -14.4040 O   0  0  0  0  0  0  0  0  0  0  0  0
   14.0779  -10.5541  -10.0463 C   0  0  0  0  0  0  0  0  0  0  0  0
   13.9432   -9.2950  -10.8950 C   0  0  1  0  0  0  0  0  0  0  0  0
   13.5413   -8.1626   -9.9967 C   0  0  0  0  0  0  0  0  0  0  0  0
   15.2157   -9.0827  -11.6136 C   0  0  2  0  0  0  0  0  0  0  0  0
   15.7299  -10.2098  -12.3239 N   0  0  0  0  0  0  0  0  0  0  0  0
   16.2924   -8.4163  -10.8015 C   0  0  0  0  0  0  0  0  0  0  0  0
   16.8848   -9.0969   -9.9553 O   0  0  0  0  0  0  0  0  0  0  0  0
   20.6113   -6.6272  -12.4872 C   0  0  0  0  0  0  0  0  0  0  0  0
   19.4572   -7.1598  -11.6209 C   0  0  0  0  0  0  0  0  0  0  0  0
   18.7902   -6.0069  -10.9456 C   0  0  2  0  0  0  0  0  0  0  0  0
   19.8531   -5.3050  -10.0886 C   0  0  0  0  0  0  0  0  0  0  0  0
   17.6093   -6.3598  -10.0887 C   0  0  2  0  0  0  0  0  0  0  0  0
   16.6535   -7.0622  -10.9660 N   0  0  0  0  0  0  0  0  0  0  0  0
   17.0023   -5.2501   -9.3694 C   0  0  0  0  0  0  0  0  0  0  0  0
   16.2379   -4.4855  -10.0479 O   0  0  0  0  0  0  0  0  0  0  0  0
   17.1541   -4.9281   -8.0456 O   0  0  0  0  0  0  0  0  0  0  0  0
  2  1  1  0
  3  2  2  0
  4  2  1  0
  5  4  1  0
  5  6  1  6
  7  5  1  0
  7  8  2  0
 10  9  1  1
 10 12  1  0
 10 11  1  0
 12 13  1  1
 13  7  1  0
 14 12  1  0
 15 14  2  0
 17 16  1  0
 18 17  1  0
 18 19  1  1
 20 18  1  0
 20 21  1  6
 21 14  1  0
 22 20  1  0
 23 22  2  0
 24 22  1  0
M  END
$$$$
