NVI.pdb
     RDKit          3D

 24 23  0  0  1  0  0  0  0  0999 V2000
   29.1403  -19.3279  -17.2842 N   0  0  0  0  0  0  0  0  0  0  0  0
   29.1577  -20.7420  -17.1467 C   0  0  0  0  0  0  0  0  0  0  0  0
   29.9456  -21.4001  -17.8676 O   0  0  0  0  0  0  0  0  0  0  0  0
   28.2502  -21.3809  -16.1633 C   0  0  0  0  0  0  0  0  0  0  0  0
   27.4513  -20.3939  -15.3873 C   0  0  2  0  0  0  0  0  0  0  0  0
   28.2474  -19.3894  -14.6918 N   0  0  0  0  0  0  0  0  0  0  0  0
   26.4819  -21.0274  -14.4658 C   0  0  0  0  0  0  0  0  0  0  0  0
   25.7148  -21.9346  -14.8543 O   0  0  0  0  0  0  0  0  0  0  0  0
   26.0941  -19.7156  -10.3329 C   0  0  0  0  0  0  0  0  0  0  0  0
   25.7472  -21.1372  -10.7600 C   0  0  1  0  0  0  0  0  0  0  0  0
   24.6811  -21.6578   -9.8417 C   0  0  0  0  0  0  0  0  0  0  0  0
   25.3660  -21.1121  -12.1865 C   0  0  2  0  0  0  0  0  0  0  0  0
   26.3654  -20.6466  -13.0941 N   0  0  0  0  0  0  0  0  0  0  0  0
   24.0350  -20.4711  -12.4700 C   0  0  0  0  0  0  0  0  0  0  0  0
   23.9906  -19.2371  -12.5448 O   0  0  0  0  0  0  0  0  0  0  0  0
   19.7903  -20.6073  -16.3543 C   0  0  0  0  0  0  0  0  0  0  0  0
   19.9362  -20.2860  -14.8570 C   0  0  0  0  0  0  0  0  0  0  0  0
   21.2300  -20.8487  -14.3676 C   0  0  2  0  0  0  0  0  0  0  0  0
   21.1945  -22.3616  -14.6256 C   0  0  0  0  0  0  0  0  0  0  0  0
   21.5342  -20.5948  -12.9197 C   0  0  2  0  0  0  0  0  0  0  0  0
   22.8483  -21.2115  -12.6561 N   0  0  0  0  0  0  0  0  0  0  0  0
   20.5114  -21.0261  -11.9789 C   0  0  0  0  0  0  0  0  0  0  0  0
   20.5962  -22.2295  -11.5620 O   0  0  0  0  0  0  0  0  0  0  0  0
   19.4649  -20.2907  -11.4855 O   0  0  0  0  0  0  0  0  0  0  0  0
  2  1  1  0
  3  2  2  0
  4  2  1  0
  5  4  1  0
  5  6  1  1
  7  5  1  0
  7  8  2  0
 10  9  1  1
 10 12  1  0
 10 11  1  0
 12 13  1  6
 13  7  1  0
 14 12  1  0
 15 14  2  0
 17 16  1  0
 18 17  1  0
 18 19  1  1
 20 18  1  0
 20 21  1  1
 21 14  1  0
 22 20  1  0
 23 22  2  0
 24 22  1  0
M  END
$$$$
