NVI.pdb
     RDKit          3D

 24 23  0  0  1  0  0  0  0  0999 V2000
   18.4227  -20.0040  -10.7095 N   0  0  0  0  0  0  0  0  0  0  0  0
   19.7839  -19.8430  -10.3352 C   0  0  0  0  0  0  0  0  0  0  0  0
   20.0384  -19.4490   -9.1717 O   0  0  0  0  0  0  0  0  0  0  0  0
   20.8439  -20.1447  -11.3273 C   0  0  0  0  0  0  0  0  0  0  0  0
   20.3008  -20.4528  -12.6782 C   0  0  2  0  0  0  0  0  0  0  0  0
   19.4048  -21.6026  -12.7183 N   0  0  0  0  0  0  0  0  0  0  0  0
   21.3515  -20.5680  -13.7141 C   0  0  0  0  0  0  0  0  0  0  0  0
   21.8974  -21.6639  -13.9656 O   0  0  0  0  0  0  0  0  0  0  0  0
   23.6296  -18.9203  -17.7168 C   0  0  0  0  0  0  0  0  0  0  0  0
   22.4082  -18.9046  -16.8050 C   0  0  1  0  0  0  0  0  0  0  0  0
   21.2906  -19.6224  -17.5027 C   0  0  0  0  0  0  0  0  0  0  0  0
   22.7931  -19.4905  -15.5052 C   0  0  2  0  0  0  0  0  0  0  0  0
   21.7997  -19.4490  -14.4803 N   0  0  0  0  0  0  0  0  0  0  0  0
   24.1298  -19.0386  -14.9835 C   0  0  0  0  0  0  0  0  0  0  0  0
   24.2743  -17.8379  -14.7235 O   0  0  0  0  0  0  0  0  0  0  0  0
   26.5267  -21.3809  -11.0061 C   0  0  0  0  0  0  0  0  0  0  0  0
   26.0082  -20.3832  -12.0558 C   0  0  0  0  0  0  0  0  0  0  0  0
   26.9537  -20.3655  -13.2116 C   0  0  2  0  0  0  0  0  0  0  0  0
   28.3220  -19.9246  -12.6731 C   0  0  0  0  0  0  0  0  0  0  0  0
   26.5553  -19.4768  -14.3540 C   0  0  2  0  0  0  0  0  0  0  0  0
   25.2129  -19.9191  -14.7769 N   0  0  0  0  0  0  0  0  0  0  0  0
   27.5007  -19.4130  -15.4582 C   0  0  0  0  0  0  0  0  0  0  0  0
   27.4843  -20.3933  -16.2755 O   0  0  0  0  0  0  0  0  0  0  0  0
   28.4090  -18.4217  -15.7258 O   0  0  0  0  0  0  0  0  0  0  0  0
  2  1  1  0
  3  2  2  0
  4  2  1  0
  5  4  1  0
  5  6  1  1
  7  5  1  0
  7  8  2  0
 10  9  1  6
 10 12  1  0
 10 11  1  0
 12 13  1  1
 13  7  1  0
 14 12  1  0
 15 14  2  0
 17 16  1  0
 18 17  1  0
 18 19  1  1
 20 18  1  0
 20 21  1  6
 21 14  1  0
 22 20  1  0
 23 22  2  0
 24 22  1  0
M  END
$$$$
