NVI.pdb
     RDKit          3D

 24 23  0  0  1  0  0  0  0  0999 V2000
   19.1687  -27.1410   -5.5602 N   0  0  0  0  0  0  0  0  0  0  0  0
   18.6545  -27.3036   -6.8748 C   0  0  0  0  0  0  0  0  0  0  0  0
   18.5138  -28.4684   -7.3187 O   0  0  0  0  0  0  0  0  0  0  0  0
   18.3065  -26.0986   -7.6658 C   0  0  0  0  0  0  0  0  0  0  0  0
   18.4939  -24.8334   -6.9049 C   0  0  2  0  0  0  0  0  0  0  0  0
   17.5833  -24.6687   -5.7780 N   0  0  0  0  0  0  0  0  0  0  0  0
   18.4867  -23.6307   -7.7673 C   0  0  0  0  0  0  0  0  0  0  0  0
   17.4173  -23.1447   -8.1943 O   0  0  0  0  0  0  0  0  0  0  0  0
   22.1871  -21.7572   -8.9751 C   0  0  0  0  0  0  0  0  0  0  0  0
   20.9151  -20.9308   -8.8234 C   0  0  1  0  0  0  0  0  0  0  0  0
   20.9837  -19.7806   -9.7843 C   0  0  0  0  0  0  0  0  0  0  0  0
   19.7562  -21.8243   -9.0217 C   0  0  2  0  0  0  0  0  0  0  0  0
   19.6855  -22.9599   -8.1588 N   0  0  0  0  0  0  0  0  0  0  0  0
   19.5000  -22.2133  -10.4521 C   0  0  0  0  0  0  0  0  0  0  0  0
   20.1606  -23.1456  -10.9260 O   0  0  0  0  0  0  0  0  0  0  0  0
   14.7293  -23.2816  -12.2935 C   0  0  0  0  0  0  0  0  0  0  0  0
   16.2567  -23.2809  -12.1104 C   0  0  0  0  0  0  0  0  0  0  0  0
   16.8272  -22.1028  -12.8291 C   0  0  2  0  0  0  0  0  0  0  0  0
   16.4784  -22.2641  -14.3154 C   0  0  0  0  0  0  0  0  0  0  0  0
   18.3092  -21.9153  -12.6802 C   0  0  2  0  0  0  0  0  0  0  0  0
   18.5448  -21.5680  -11.2658 N   0  0  0  0  0  0  0  0  0  0  0  0
   18.9171  -20.9671  -13.6013 C   0  0  0  0  0  0  0  0  0  0  0  0
   19.3394  -21.4432  -14.7078 O   0  0  0  0  0  0  0  0  0  0  0  0
   19.0901  -19.6192  -13.4213 O   0  0  0  0  0  0  0  0  0  0  0  0
  2  1  1  0
  3  2  2  0
  4  2  1  0
  5  4  1  0
  5  6  1  1
  7  5  1  0
  7  8  2  0
 10  9  1  6
 10 12  1  0
 10 11  1  0
 12 13  1  1
 13  7  1  0
 14 12  1  0
 15 14  2  0
 17 16  1  0
 18 17  1  0
 18 19  1  6
 20 18  1  0
 20 21  1  1
 21 14  1  0
 22 20  1  0
 23 22  2  0
 24 22  1  0
M  END
$$$$
