NVI.pdb
     RDKit          3D

 24 23  0  0  1  0  0  0  0  0999 V2000
   22.0709  -19.5148  -13.3707 N   0  0  0  0  0  0  0  0  0  0  0  0
   21.7587  -19.7687  -12.0080 C   0  0  0  0  0  0  0  0  0  0  0  0
   20.6736  -19.3319  -11.5549 O   0  0  0  0  0  0  0  0  0  0  0  0
   22.7209  -20.5349  -11.1797 C   0  0  0  0  0  0  0  0  0  0  0  0
   23.9631  -20.8916  -11.9175 C   0  0  2  0  0  0  0  0  0  0  0  0
   23.7599  -21.8184  -13.0249 N   0  0  0  0  0  0  0  0  0  0  0  0
   25.0504  -21.3620  -11.0305 C   0  0  0  0  0  0  0  0  0  0  0  0
   25.0602  -22.5270  -10.5775 O   0  0  0  0  0  0  0  0  0  0  0  0
   28.9441  -19.5860  -10.8983 C   0  0  0  0  0  0  0  0  0  0  0  0
   28.5532  -20.9886  -10.4474 C   0  0  1  0  0  0  0  0  0  0  0  0
   29.6441  -21.5207   -9.5654 C   0  0  0  0  0  0  0  0  0  0  0  0
   27.2271  -20.9146   -9.8018 C   0  0  2  0  0  0  0  0  0  0  0  0
   26.1412  -20.5251  -10.6433 N   0  0  0  0  0  0  0  0  0  0  0  0
   27.2028  -20.1597   -8.5008 C   0  0  0  0  0  0  0  0  0  0  0  0
   26.7429  -19.0114   -8.5060 O   0  0  0  0  0  0  0  0  0  0  0  0
   27.2569  -20.8270   -2.7237 C   0  0  0  0  0  0  0  0  0  0  0  0
   28.4050  -20.3193   -3.6127 C   0  0  0  0  0  0  0  0  0  0  0  0
   28.2453  -20.8955   -4.9811 C   0  0  2  0  0  0  0  0  0  0  0  0
   29.6046  -21.4804   -5.3897 C   0  0  0  0  0  0  0  0  0  0  0  0
   27.7783  -19.9320   -6.0333 C   0  0  2  0  0  0  0  0  0  0  0  0
   27.6743  -20.7030   -7.2869 N   0  0  0  0  0  0  0  0  0  0  0  0
   28.5789  -18.7259   -6.1792 C   0  0  0  0  0  0  0  0  0  0  0  0
   28.1743  -17.6967   -5.5417 O   0  0  0  0  0  0  0  0  0  0  0  0
   29.7198  -18.5636   -6.9218 O   0  0  0  0  0  0  0  0  0  0  0  0
  2  1  1  0
  3  2  2  0
  4  2  1  0
  5  4  1  0
  5  6  1  6
  7  5  1  0
  7  8  2  0
 10  9  1  1
 10 12  1  0
 10 11  1  0
 12 13  1  6
 13  7  1  0
 14 12  1  0
 15 14  2  0
 17 16  1  0
 18 17  1  0
 18 19  1  6
 20 18  1  0
 20 21  1  6
 21 14  1  0
 22 20  1  0
 23 22  2  0
 24 22  1  0
M  END
$$$$
