QEG.pdb
     RDKit          3D

 23 22  0  0  1  0  0  0  0  0999 V2000
    7.8965  -11.9673   18.3301 N   0  0  0  0  0  0  0  0  0  0  0  0
    7.7781  -13.1533   19.1381 C   0  0  0  0  0  0  0  0  0  0  0  0
    6.7157  -13.2584   19.7792 O   0  0  0  0  0  0  0  0  0  0  0  0
    8.8648  -14.1234   19.1626 C   0  0  0  0  0  0  0  0  0  0  0  0
    9.9782  -13.7565   18.2483 C   0  0  0  0  0  0  0  0  0  0  0  0
   11.1237  -14.7012   18.2312 C   0  0  2  0  0  0  0  0  0  0  0  0
   10.8560  -16.0847   18.1250 N   0  0  0  0  0  0  0  0  0  0  0  0
   11.9296  -14.4378   19.4652 C   0  0  0  0  0  0  0  0  0  0  0  0
   12.4263  -13.2977   19.6927 O   0  0  0  0  0  0  0  0  0  0  0  0
   12.1404  -15.4595   20.3794 N   0  0  0  0  0  0  0  0  0  0  0  0
   12.9055  -15.2809   21.6443 C   0  0  1  0  0  0  0  0  0  0  0  0
   12.1448  -16.0886   22.6401 C   0  0  0  0  0  0  0  0  0  0  0  0
   12.6788  -16.1432   24.0335 C   0  0  0  0  0  0  0  0  0  0  0  0
   11.9076  -17.1032   24.8396 C   0  0  0  0  0  0  0  0  0  0  0  0
   11.3908  -18.1028   24.2740 O   0  0  0  0  0  0  0  0  0  0  0  0
   14.3074  -15.5729   21.4079 C   0  0  0  0  0  0  0  0  0  0  0  0
   15.1708  -15.3811   22.3351 O   0  0  0  0  0  0  0  0  0  0  0  0
   11.7347  -16.9411   26.1902 O   0  0  0  0  0  0  0  0  0  0  0  0
   14.8411  -16.0735   20.1922 N   0  0  0  0  0  0  0  0  0  0  0  0
   16.2209  -16.4930   20.0313 C   0  0  0  0  0  0  0  0  0  0  0  0
   16.9551  -15.5364   19.1874 C   0  0  0  0  0  0  0  0  0  0  0  0
   17.6965  -15.8908   18.2400 O   0  0  0  0  0  0  0  0  0  0  0  0
   16.8227  -14.1861   19.4489 O   0  0  0  0  0  0  0  0  0  0  0  0
  2  1  1  0
  2  3  2  0
  4  2  1  0
  5  4  1  0
  6  5  1  0
  6  7  1  1
  8  6  1  0
  8 10  1  0
  9  8  2  0
 11 10  1  0
 11 12  1  1
 12 13  1  0
 13 14  1  0
 14 15  2  0
 16 11  1  0
 17 16  2  0
 18 14  1  0
 19 16  1  0
 20 21  1  0
 20 19  1  0
 21 23  1  0
 22 21  2  0
M  END
$$$$
