QEG.pdb
     RDKit          3D

 23 22  0  0  1  0  0  0  0  0999 V2000
    8.3388  -11.9613   20.8084 N   0  0  0  0  0  0  0  0  0  0  0  0
    7.5210  -13.0437   20.3256 C   0  0  0  0  0  0  0  0  0  0  0  0
    6.7325  -13.5292   21.1581 O   0  0  0  0  0  0  0  0  0  0  0  0
    7.6583  -13.4948   18.9471 C   0  0  0  0  0  0  0  0  0  0  0  0
    9.0346  -13.3040   18.4185 C   0  0  0  0  0  0  0  0  0  0  0  0
    9.5215  -14.3754   17.5129 C   0  0  2  0  0  0  0  0  0  0  0  0
    8.5864  -15.3028   17.0007 N   0  0  0  0  0  0  0  0  0  0  0  0
   10.6081  -15.1055   18.2396 C   0  0  0  0  0  0  0  0  0  0  0  0
   10.4382  -16.2866   18.6574 O   0  0  0  0  0  0  0  0  0  0  0  0
   11.8256  -14.4798   18.4634 N   0  0  0  0  0  0  0  0  0  0  0  0
   12.9736  -15.1422   19.1421 C   0  0  1  0  0  0  0  0  0  0  0  0
   14.1713  -14.5368   18.4932 C   0  0  0  0  0  0  0  0  0  0  0  0
   15.5129  -15.0043   18.9529 C   0  0  0  0  0  0  0  0  0  0  0  0
   16.5783  -14.3008   18.2208 C   0  0  0  0  0  0  0  0  0  0  0  0
   17.1420  -14.8783   17.2538 O   0  0  0  0  0  0  0  0  0  0  0  0
   12.8108  -15.0391   20.5807 C   0  0  0  0  0  0  0  0  0  0  0  0
   12.3787  -13.9522   21.1040 O   0  0  0  0  0  0  0  0  0  0  0  0
   16.9762  -13.0334   18.5609 O   0  0  0  0  0  0  0  0  0  0  0  0
   13.0974  -16.0734   21.5087 N   0  0  0  0  0  0  0  0  0  0  0  0
   12.8559  -15.9643   22.9354 C   0  0  0  0  0  0  0  0  0  0  0  0
   13.3411  -17.1658   23.6335 C   0  0  0  0  0  0  0  0  0  0  0  0
   13.3365  -17.2783   24.8826 O   0  0  0  0  0  0  0  0  0  0  0  0
   13.8236  -18.2190   22.8803 O   0  0  0  0  0  0  0  0  0  0  0  0
  2  1  1  0
  2  3  2  0
  4  2  1  0
  5  4  1  0
  6  5  1  0
  6  7  1  1
  8  6  1  0
  8 10  1  0
  9  8  2  0
 11 10  1  0
 11 12  1  6
 12 13  1  0
 13 14  1  0
 14 15  2  0
 16 11  1  0
 17 16  2  0
 18 14  1  0
 19 16  1  0
 20 21  1  0
 20 19  1  0
 21 23  1  0
 22 21  2  0
M  END
$$$$
