QEG.pdb
     RDKit          3D

 23 22  0  0  1  0  0  0  0  0999 V2000
    8.6651  -14.4113   17.4181 N   0  0  0  0  0  0  0  0  0  0  0  0
    7.7414  -13.3199   17.5884 C   0  0  0  0  0  0  0  0  0  0  0  0
    7.3075  -12.8185   16.5344 O   0  0  0  0  0  0  0  0  0  0  0  0
    7.3829  -12.8783   18.9298 C   0  0  0  0  0  0  0  0  0  0  0  0
    7.9635  -13.7438   19.9899 C   0  0  0  0  0  0  0  0  0  0  0  0
    7.4877  -15.1504   19.9929 C   0  0  2  0  0  0  0  0  0  0  0  0
    6.1116  -15.3969   20.1985 N   0  0  0  0  0  0  0  0  0  0  0  0
    8.2898  -15.8839   21.0226 C   0  0  0  0  0  0  0  0  0  0  0  0
    7.8373  -16.0831   22.1862 O   0  0  0  0  0  0  0  0  0  0  0  0
    9.5542  -16.3551   20.7012 N   0  0  0  0  0  0  0  0  0  0  0  0
   10.3598  -17.2202   21.6067 C   0  0  1  0  0  0  0  0  0  0  0  0
   10.9926  -18.2091   20.6880 C   0  0  0  0  0  0  0  0  0  0  0  0
   11.9198  -19.2126   21.2906 C   0  0  0  0  0  0  0  0  0  0  0  0
   12.4511  -20.1077   20.2501 C   0  0  0  0  0  0  0  0  0  0  0  0
   13.4849  -19.7661   19.6171 O   0  0  0  0  0  0  0  0  0  0  0  0
   11.1988  -16.3894   22.4507 C   0  0  0  0  0  0  0  0  0  0  0  0
   11.8336  -15.3955   21.9493 O   0  0  0  0  0  0  0  0  0  0  0  0
   11.8529  -21.3043   19.9490 O   0  0  0  0  0  0  0  0  0  0  0  0
   11.3945  -16.5791   23.8431 N   0  0  0  0  0  0  0  0  0  0  0  0
   12.2523  -15.7382   24.6572 C   0  0  0  0  0  0  0  0  0  0  0  0
   13.6006  -16.3202   24.7560 C   0  0  0  0  0  0  0  0  0  0  0  0
   13.9587  -17.3285   24.1019 O   0  0  0  0  0  0  0  0  0  0  0  0
   14.5151  -15.7302   25.6074 O   0  0  0  0  0  0  0  0  0  0  0  0
  2  1  1  0
  2  3  2  0
  4  2  1  0
  5  4  1  0
  6  5  1  0
  6  7  1  1
  8  6  1  0
  8 10  1  0
  9  8  2  0
 11 10  1  0
 11 12  1  6
 12 13  1  0
 13 14  1  0
 14 15  2  0
 16 11  1  0
 17 16  2  0
 18 14  1  0
 19 16  1  0
 20 21  1  0
 20 19  1  0
 21 23  1  0
 22 21  2  0
M  END
$$$$
