QEG.pdb
     RDKit          3D

 23 22  0  0  1  0  0  0  0  0999 V2000
    6.2409  -11.8363   25.1264 N   0  0  0  0  0  0  0  0  0  0  0  0
    6.5538  -12.8291   26.1214 C   0  0  0  0  0  0  0  0  0  0  0  0
    6.9527  -12.3830   27.2134 O   0  0  0  0  0  0  0  0  0  0  0  0
    6.3963  -14.2430   25.8071 C   0  0  0  0  0  0  0  0  0  0  0  0
    6.9305  -14.5922   24.4644 C   0  0  0  0  0  0  0  0  0  0  0  0
    6.6901  -15.9915   24.0294 C   0  0  2  0  0  0  0  0  0  0  0  0
    5.4926  -16.6262   24.4292 N   0  0  0  0  0  0  0  0  0  0  0  0
    7.8648  -16.8013   24.4832 C   0  0  0  0  0  0  0  0  0  0  0  0
    7.7380  -17.7089   25.3541 O   0  0  0  0  0  0  0  0  0  0  0  0
    9.1187  -16.5554   23.9434 N   0  0  0  0  0  0  0  0  0  0  0  0
   10.3258  -17.3607   24.2775 C   0  0  1  0  0  0  0  0  0  0  0  0
   11.0635  -17.4533   22.9854 C   0  0  0  0  0  0  0  0  0  0  0  0
   11.9616  -16.3166   22.6231 C   0  0  0  0  0  0  0  0  0  0  0  0
   12.6785  -16.6098   21.3716 C   0  0  0  0  0  0  0  0  0  0  0  0
   12.1969  -16.2059   20.2802 O   0  0  0  0  0  0  0  0  0  0  0  0
   10.9841  -16.7883   25.4374 C   0  0  0  0  0  0  0  0  0  0  0  0
   11.9698  -15.9835   25.2871 O   0  0  0  0  0  0  0  0  0  0  0  0
   13.8568  -17.3109   21.3586 O   0  0  0  0  0  0  0  0  0  0  0  0
   10.6262  -17.0453   26.7862 N   0  0  0  0  0  0  0  0  0  0  0  0
   10.3219  -18.3678   27.3002 C   0  0  0  0  0  0  0  0  0  0  0  0
   11.4692  -18.9062   28.0486 C   0  0  0  0  0  0  0  0  0  0  0  0
   12.6174  -19.0117   27.5553 O   0  0  0  0  0  0  0  0  0  0  0  0
   11.2746  -19.3143   29.3544 O   0  0  0  0  0  0  0  0  0  0  0  0
  2  1  1  0
  2  3  2  0
  4  2  1  0
  5  4  1  0
  6  5  1  0
  6  7  1  1
  8  6  1  0
  8 10  1  0
  9  8  2  0
 11 10  1  0
 11 12  1  6
 12 13  1  0
 13 14  1  0
 14 15  2  0
 16 11  1  0
 17 16  2  0
 18 14  1  0
 19 16  1  0
 20 21  1  0
 20 19  1  0
 21 23  1  0
 22 21  2  0
M  END
$$$$
