KKW.pdb
     RDKit          3D

 33 34  0  0  1  0  0  0  0  0999 V2000
   29.2788  -21.8100  -17.0167 N   0  0  0  0  0  0  0  0  0  0  0  0
   28.7932  -22.4723  -15.8311 C   0  0  1  0  0  0  0  0  0  0  0  0
   29.9188  -23.1218  -15.0817 C   0  0  0  0  0  0  0  0  0  0  0  0
   31.0932  -23.4947  -15.9312 C   0  0  0  0  0  0  0  0  0  0  0  0
   30.9996  -24.8771  -16.5086 C   0  0  0  0  0  0  0  0  0  0  0  0
   32.2599  -25.1354  -17.3207 C   0  0  0  0  0  0  0  0  0  0  0  0
   33.1383  -26.0307  -16.6225 N   0  0  0  0  0  0  0  0  0  0  0  0
   28.0748  -21.5241  -14.9289 C   0  0  0  0  0  0  0  0  0  0  0  0
   28.4640  -20.3217  -14.9296 O   0  0  0  0  0  0  0  0  0  0  0  0
   27.0020  -21.9019  -14.0920 N   0  0  0  0  0  0  0  0  0  0  0  0
   26.2428  -20.9109  -13.3815 C   0  0  1  0  0  0  0  0  0  0  0  0
   25.0020  -20.5188  -14.1279 C   0  0  0  0  0  0  0  0  0  0  0  0
   25.1001  -19.1559  -14.7715 C   0  0  0  0  0  0  0  0  0  0  0  0
   25.0875  -19.4008  -16.2772 C   0  0  0  0  0  0  0  0  0  0  0  0
   25.3180  -18.0860  -16.9985 C   0  0  0  0  0  0  0  0  0  0  0  0
   25.2831  -18.2632  -18.4360 N   0  0  0  0  0  0  0  0  0  0  0  0
   25.9658  -21.3552  -11.9975 C   0  0  0  0  0  0  0  0  0  0  0  0
   25.6272  -22.5457  -11.8087 O   0  0  0  0  0  0  0  0  0  0  0  0
   26.0651  -20.4998  -10.8734 N   0  0  0  0  0  0  0  0  0  0  0  0
   25.8084  -20.9759   -9.5300 C   0  0  1  0  0  0  0  0  0  0  0  0
   26.3215  -20.0015   -8.4912 C   0  0  0  0  0  0  0  0  0  0  0  0
   27.7015  -20.2915   -8.0786 C   0  0  0  0  0  0  0  0  0  0  0  0
   28.6935  -21.0066   -8.7103 C   0  0  0  0  0  0  0  0  0  0  0  0
   29.7918  -21.0101   -7.9609 N   0  0  0  0  0  0  0  0  0  0  0  0
   29.5855  -20.3129   -6.8214 C   0  0  0  0  0  0  0  0  0  0  0  0
   30.3608  -20.0063   -5.7232 C   0  0  0  0  0  0  0  0  0  0  0  0
   29.8476  -19.2532   -4.6911 C   0  0  0  0  0  0  0  0  0  0  0  0
   28.5390  -18.7831   -4.7279 C   0  0  0  0  0  0  0  0  0  0  0  0
   27.7914  -19.1082   -5.8412 C   0  0  0  0  0  0  0  0  0  0  0  0
   28.2851  -19.8616   -6.8872 C   0  0  0  0  0  0  0  0  0  0  0  0
   24.3363  -21.0648   -9.3650 C   0  0  0  0  0  0  0  0  0  0  0  0
   23.7434  -21.7132   -8.2882 O   0  0  0  0  0  0  0  0  0  0  0  0
   23.5567  -20.5503  -10.2039 O   0  0  0  0  0  0  0  0  0  0  0  0
  2  1  1  6
  2  3  1  0
  3  4  1  0
  4  5  1  0
  5  6  1  0
  6  7  1  0
  8  2  1  0
  9  8  2  0
 10  8  1  0
 11 17  1  0
 11 10  1  0
 11 12  1  6
 13 12  1  0
 14 13  1  0
 15 14  1  0
 16 15  1  0
 17 19  1  0
 18 17  2  0
 19 20  1  0
 20 21  1  1
 20 31  1  0
 22 21  1  0
 23 22  2  0
 24 23  1  0
 25 24  1  0
 25 30  2  0
 26 25  1  0
 27 26  2  0
 27 28  1  0
 28 29  2  0
 29 30  1  0
 30 22  1  0
 31 33  2  0
 31 32  1  0
M  END
$$$$
