KKW.pdb
     RDKit          3D

 33 34  0  0  1  0  0  0  0  0999 V2000
   23.4961  -23.7403  -16.6008 N   0  0  0  0  0  0  0  0  0  0  0  0
   23.7737  -22.3341  -16.4416 C   0  0  1  0  0  0  0  0  0  0  0  0
   22.5268  -21.5788  -16.0876 C   0  0  0  0  0  0  0  0  0  0  0  0
   21.3013  -22.4297  -15.9693 C   0  0  0  0  0  0  0  0  0  0  0  0
   20.5789  -22.2609  -14.6643 C   0  0  0  0  0  0  0  0  0  0  0  0
   19.3658  -23.1789  -14.6745 C   0  0  0  0  0  0  0  0  0  0  0  0
   18.7013  -23.1551  -13.4023 N   0  0  0  0  0  0  0  0  0  0  0  0
   24.8145  -22.0958  -15.3978 C   0  0  0  0  0  0  0  0  0  0  0  0
   25.2988  -23.1127  -14.8246 O   0  0  0  0  0  0  0  0  0  0  0  0
   25.2730  -20.8119  -15.0295 N   0  0  0  0  0  0  0  0  0  0  0  0
   26.3671  -20.6602  -14.1112 C   0  0  1  0  0  0  0  0  0  0  0  0
   27.1787  -19.4343  -14.4095 C   0  0  0  0  0  0  0  0  0  0  0  0
   27.8655  -19.4876  -15.7538 C   0  0  0  0  0  0  0  0  0  0  0  0
   28.6039  -18.1608  -15.9009 C   0  0  0  0  0  0  0  0  0  0  0  0
   29.2233  -18.0853  -17.2839 C   0  0  0  0  0  0  0  0  0  0  0  0
   30.0395  -16.8971  -17.4288 N   0  0  0  0  0  0  0  0  0  0  0  0
   25.8877  -20.7068  -12.7121 C   0  0  0  0  0  0  0  0  0  0  0  0
   24.7263  -20.3101  -12.4650 O   0  0  0  0  0  0  0  0  0  0  0  0
   26.6784  -21.1790  -11.6364 N   0  0  0  0  0  0  0  0  0  0  0  0
   26.2209  -21.1013  -10.2646 C   0  0  1  0  0  0  0  0  0  0  0  0
   27.3766  -21.1934   -9.2910 C   0  0  0  0  0  0  0  0  0  0  0  0
   27.0080  -20.7623   -7.9355 C   0  0  0  0  0  0  0  0  0  0  0  0
   25.7769  -20.6805   -7.3256 C   0  0  0  0  0  0  0  0  0  0  0  0
   25.9202  -20.2320   -6.0821 N   0  0  0  0  0  0  0  0  0  0  0  0
   27.2246  -19.9999   -5.8136 C   0  0  0  0  0  0  0  0  0  0  0  0
   27.9172  -19.5422   -4.7128 C   0  0  0  0  0  0  0  0  0  0  0  0
   29.2872  -19.4098   -4.7519 C   0  0  0  0  0  0  0  0  0  0  0  0
   30.0066  -19.7327   -5.8977 C   0  0  0  0  0  0  0  0  0  0  0  0
   29.2822  -20.1876   -6.9805 C   0  0  0  0  0  0  0  0  0  0  0  0
   27.9092  -20.3281   -6.9637 C   0  0  0  0  0  0  0  0  0  0  0  0
   25.5929  -19.7693  -10.0817 C   0  0  0  0  0  0  0  0  0  0  0  0
   24.3421  -19.6072   -9.4978 O   0  0  0  0  0  0  0  0  0  0  0  0
   26.1749  -18.7205  -10.4527 O   0  0  0  0  0  0  0  0  0  0  0  0
  2  1  1  1
  2  3  1  0
  3  4  1  0
  4  5  1  0
  5  6  1  0
  6  7  1  0
  8  2  1  0
  9  8  2  0
 10  8  1  0
 11 17  1  0
 11 10  1  0
 11 12  1  6
 13 12  1  0
 14 13  1  0
 15 14  1  0
 16 15  1  0
 17 19  1  0
 18 17  2  0
 19 20  1  0
 20 21  1  1
 20 31  1  0
 22 21  1  0
 23 22  2  0
 24 23  1  0
 25 24  1  0
 25 30  2  0
 26 25  1  0
 27 26  2  0
 27 28  1  0
 28 29  2  0
 29 30  1  0
 30 22  1  0
 31 33  2  0
 31 32  1  0
M  END
$$$$
