KKW.pdb
     RDKit          3D

 33 34  0  0  1  0  0  0  0  0999 V2000
   23.5134  -19.5843  -16.6606 N   0  0  0  0  0  0  0  0  0  0  0  0
   23.5232  -20.9761  -16.2827 C   0  0  1  0  0  0  0  0  0  0  0  0
   23.5385  -21.8599  -17.4948 C   0  0  0  0  0  0  0  0  0  0  0  0
   22.6371  -21.4079  -18.6008 C   0  0  0  0  0  0  0  0  0  0  0  0
   22.6150  -22.3429  -19.7750 C   0  0  0  0  0  0  0  0  0  0  0  0
   21.8325  -21.6744  -20.8955 C   0  0  0  0  0  0  0  0  0  0  0  0
   21.8062  -22.5088  -22.0633 N   0  0  0  0  0  0  0  0  0  0  0  0
   24.6939  -21.3000  -15.4144 C   0  0  0  0  0  0  0  0  0  0  0  0
   24.9378  -22.5229  -15.2091 O   0  0  0  0  0  0  0  0  0  0  0  0
   25.5241  -20.3219  -14.8243 N   0  0  0  0  0  0  0  0  0  0  0  0
   26.5986  -20.7033  -13.9506 C   0  0  1  0  0  0  0  0  0  0  0  0
   27.7988  -19.8203  -14.1255 C   0  0  0  0  0  0  0  0  0  0  0  0
   29.0552  -20.3961  -13.5160 C   0  0  0  0  0  0  0  0  0  0  0  0
   29.5377  -21.4706  -14.4855 C   0  0  0  0  0  0  0  0  0  0  0  0
   30.8800  -21.9997  -14.0159 C   0  0  0  0  0  0  0  0  0  0  0  0
   31.2767  -23.1694  -14.7732 N   0  0  0  0  0  0  0  0  0  0  0  0
   26.1342  -20.7721  -12.5473 C   0  0  0  0  0  0  0  0  0  0  0  0
   25.1663  -20.0569  -12.2026 O   0  0  0  0  0  0  0  0  0  0  0  0
   26.7309  -21.6086  -11.5728 N   0  0  0  0  0  0  0  0  0  0  0  0
   26.3266  -21.5654  -10.1829 C   0  0  1  0  0  0  0  0  0  0  0  0
   27.5259  -21.5152   -9.2603 C   0  0  0  0  0  0  0  0  0  0  0  0
   27.2900  -20.6820   -8.0733 C   0  0  0  0  0  0  0  0  0  0  0  0
   26.1685  -19.9925   -7.6717 C   0  0  0  0  0  0  0  0  0  0  0  0
   26.4119  -19.3682   -6.5232 N   0  0  0  0  0  0  0  0  0  0  0  0
   27.6786  -19.6085   -6.1169 C   0  0  0  0  0  0  0  0  0  0  0  0
   28.4336  -19.2221   -5.0299 C   0  0  0  0  0  0  0  0  0  0  0  0
   29.7368  -19.6460   -4.8953 C   0  0  0  0  0  0  0  0  0  0  0  0
   30.3243  -20.4721   -5.8476 C   0  0  0  0  0  0  0  0  0  0  0  0
   29.5405  -20.8397   -6.9222 C   0  0  0  0  0  0  0  0  0  0  0  0
   28.2326  -20.4267   -7.0776 C   0  0  0  0  0  0  0  0  0  0  0  0
   25.5612  -20.3099   -9.9828 C   0  0  0  0  0  0  0  0  0  0  0  0
   26.0148  -19.0780  -10.4389 O   0  0  0  0  0  0  0  0  0  0  0  0
   24.4573  -20.3108   -9.3847 O   0  0  0  0  0  0  0  0  0  0  0  0
  2  1  1  6
  2  3  1  0
  3  4  1  0
  4  5  1  0
  5  6  1  0
  6  7  1  0
  8  2  1  0
  9  8  2  0
 10  8  1  0
 11 17  1  0
 11 10  1  0
 11 12  1  1
 13 12  1  0
 14 13  1  0
 15 14  1  0
 16 15  1  0
 17 19  1  0
 18 17  2  0
 19 20  1  0
 20 21  1  1
 20 31  1  0
 22 21  1  0
 23 22  2  0
 24 23  1  0
 25 24  1  0
 25 30  2  0
 26 25  1  0
 27 26  2  0
 27 28  1  0
 28 29  2  0
 29 30  1  0
 30 22  1  0
 31 33  2  0
 31 32  1  0
M  END
$$$$
