KKW.pdb
     RDKit          3D

 33 34  0  0  1  0  0  0  0  0999 V2000
   20.0752  -20.9710  -16.4038 N   0  0  0  0  0  0  0  0  0  0  0  0
   21.3013  -20.5915  -17.0615 C   0  0  1  0  0  0  0  0  0  0  0  0
   21.4579  -19.0997  -17.0826 C   0  0  0  0  0  0  0  0  0  0  0  0
   20.6519  -18.4084  -18.1374 C   0  0  0  0  0  0  0  0  0  0  0  0
   20.9420  -16.9396  -18.2461 C   0  0  0  0  0  0  0  0  0  0  0  0
   20.0969  -16.3743  -19.3777 C   0  0  0  0  0  0  0  0  0  0  0  0
   20.8879  -16.1996  -20.5628 N   0  0  0  0  0  0  0  0  0  0  0  0
   22.4905  -21.2086  -16.4024 C   0  0  0  0  0  0  0  0  0  0  0  0
   22.6224  -21.0205  -15.1596 O   0  0  0  0  0  0  0  0  0  0  0  0
   23.4549  -21.9771  -17.0904 N   0  0  0  0  0  0  0  0  0  0  0  0
   24.6637  -22.3930  -16.4354 C   0  0  1  0  0  0  0  0  0  0  0  0
   25.3445  -23.5055  -17.1766 C   0  0  0  0  0  0  0  0  0  0  0  0
   26.6029  -23.9910  -16.4968 C   0  0  0  0  0  0  0  0  0  0  0  0
   27.1075  -25.1619  -17.3345 C   0  0  0  0  0  0  0  0  0  0  0  0
   28.4076  -25.6744  -16.7435 C   0  0  0  0  0  0  0  0  0  0  0  0
   28.8161  -26.9146  -17.3711 N   0  0  0  0  0  0  0  0  0  0  0  0
   25.5527  -21.2355  -16.1912 C   0  0  0  0  0  0  0  0  0  0  0  0
   25.4866  -20.2569  -16.9692 O   0  0  0  0  0  0  0  0  0  0  0  0
   26.4760  -21.1791  -15.1191 N   0  0  0  0  0  0  0  0  0  0  0  0
   27.2701  -19.9959  -14.8605 C   0  0  1  0  0  0  0  0  0  0  0  0
   26.6434  -19.1345  -13.7848 C   0  0  0  0  0  0  0  0  0  0  0  0
   26.5037  -19.8427  -12.5051 C   0  0  0  0  0  0  0  0  0  0  0  0
   27.4589  -20.3017  -11.6267 C   0  0  0  0  0  0  0  0  0  0  0  0
   26.8703  -20.8902  -10.5898 N   0  0  0  0  0  0  0  0  0  0  0  0
   25.5262  -20.8505  -10.7276 C   0  0  0  0  0  0  0  0  0  0  0  0
   24.4643  -21.2979   -9.9705 C   0  0  0  0  0  0  0  0  0  0  0  0
   23.1690  -21.1000  -10.3936 C   0  0  0  0  0  0  0  0  0  0  0  0
   22.8976  -20.4462  -11.5909 C   0  0  0  0  0  0  0  0  0  0  0  0
   23.9833  -20.0117  -12.3234 C   0  0  0  0  0  0  0  0  0  0  0  0
   25.2896  -20.1991  -11.9188 C   0  0  0  0  0  0  0  0  0  0  0  0
   28.5886  -20.4494  -14.3524 C   0  0  0  0  0  0  0  0  0  0  0  0
   28.8328  -21.7660  -13.9804 O   0  0  0  0  0  0  0  0  0  0  0  0
   29.5497  -19.6499  -14.2367 O   0  0  0  0  0  0  0  0  0  0  0  0
  2  1  1  1
  2  3  1  0
  3  4  1  0
  4  5  1  0
  5  6  1  0
  6  7  1  0
  8  2  1  0
  9  8  2  0
 10  8  1  0
 11 17  1  0
 11 10  1  0
 11 12  1  6
 13 12  1  0
 14 13  1  0
 15 14  1  0
 16 15  1  0
 17 19  1  0
 18 17  2  0
 19 20  1  0
 20 21  1  1
 20 31  1  0
 22 21  1  0
 23 22  2  0
 24 23  1  0
 25 24  1  0
 25 30  2  0
 26 25  1  0
 27 26  2  0
 27 28  1  0
 28 29  2  0
 29 30  1  0
 30 22  1  0
 31 33  2  0
 31 32  1  0
M  END
$$$$
