KKW.pdb
     RDKit          3D

 33 34  0  0  1  0  0  0  0  0999 V2000
   26.0661  -22.1361  -16.9986 N   0  0  0  0  0  0  0  0  0  0  0  0
   27.0663  -21.7622  -16.0291 C   0  0  1  0  0  0  0  0  0  0  0  0
   28.1979  -21.0264  -16.6838 C   0  0  0  0  0  0  0  0  0  0  0  0
   28.7647  -21.7099  -17.8886 C   0  0  0  0  0  0  0  0  0  0  0  0
   29.5439  -22.9506  -17.5619 C   0  0  0  0  0  0  0  0  0  0  0  0
   30.1681  -23.4682  -18.8491 C   0  0  0  0  0  0  0  0  0  0  0  0
   30.5334  -22.3786  -19.7093 N   0  0  0  0  0  0  0  0  0  0  0  0
   26.4869  -20.9199  -14.9409 C   0  0  0  0  0  0  0  0  0  0  0  0
   27.0746  -19.8320  -14.6798 O   0  0  0  0  0  0  0  0  0  0  0  0
   25.3355  -21.2764  -14.2051 N   0  0  0  0  0  0  0  0  0  0  0  0
   24.8079  -20.3976  -13.1988 C   0  0  1  0  0  0  0  0  0  0  0  0
   23.3644  -20.0714  -13.4453 C   0  0  0  0  0  0  0  0  0  0  0  0
   22.5257  -21.2866  -13.7639 C   0  0  0  0  0  0  0  0  0  0  0  0
   21.1015  -20.7747  -13.9567 C   0  0  0  0  0  0  0  0  0  0  0  0
   20.2092  -21.9284  -14.3750 C   0  0  0  0  0  0  0  0  0  0  0  0
   20.2994  -23.0282  -13.4362 N   0  0  0  0  0  0  0  0  0  0  0  0
   25.0515  -20.9439  -11.8454 C   0  0  0  0  0  0  0  0  0  0  0  0
   24.6952  -22.1192  -11.6025 O   0  0  0  0  0  0  0  0  0  0  0  0
   25.6694  -20.2025  -10.8091 N   0  0  0  0  0  0  0  0  0  0  0  0
   25.8299  -20.7461   -9.4765 C   0  0  1  0  0  0  0  0  0  0  0  0
   26.8271  -19.9428   -8.6688 C   0  0  0  0  0  0  0  0  0  0  0  0
   26.9756  -20.4444   -7.2958 C   0  0  0  0  0  0  0  0  0  0  0  0
   26.3833  -21.5145   -6.6644 C   0  0  0  0  0  0  0  0  0  0  0  0
   26.8161  -21.5917   -5.4095 N   0  0  0  0  0  0  0  0  0  0  0  0
   27.6967  -20.5984   -5.1541 C   0  0  0  0  0  0  0  0  0  0  0  0
   28.4292  -20.2179   -4.0497 C   0  0  0  0  0  0  0  0  0  0  0  0
   29.2649  -19.1250   -4.1056 C   0  0  0  0  0  0  0  0  0  0  0  0
   29.3926  -18.3785   -5.2723 C   0  0  0  0  0  0  0  0  0  0  0  0
   28.6455  -18.7872   -6.3581 C   0  0  0  0  0  0  0  0  0  0  0  0
   27.8016  -19.8790   -6.3247 C   0  0  0  0  0  0  0  0  0  0  0  0
   24.5172  -20.6385   -8.7928 C   0  0  0  0  0  0  0  0  0  0  0  0
   24.0940  -21.5575   -7.8400 O   0  0  0  0  0  0  0  0  0  0  0  0
   23.7252  -19.6994   -9.0519 O   0  0  0  0  0  0  0  0  0  0  0  0
  2  1  1  6
  2  3  1  0
  3  4  1  0
  4  5  1  0
  5  6  1  0
  6  7  1  0
  8  2  1  0
  9  8  2  0
 10  8  1  0
 11 17  1  0
 11 10  1  0
 11 12  1  6
 13 12  1  0
 14 13  1  0
 15 14  1  0
 16 15  1  0
 17 19  1  0
 18 17  2  0
 19 20  1  0
 20 21  1  1
 20 31  1  0
 22 21  1  0
 23 22  2  0
 24 23  1  0
 25 24  1  0
 25 30  2  0
 26 25  1  0
 27 26  2  0
 27 28  1  0
 28 29  2  0
 29 30  1  0
 30 22  1  0
 31 33  2  0
 31 32  1  0
M  END
$$$$
