KKW.pdb
     RDKit          3D

 33 34  0  0  1  0  0  0  0  0999 V2000
   28.8996  -22.8170  -17.2776 N   0  0  0  0  0  0  0  0  0  0  0  0
   29.6089  -23.1421  -16.0647 C   0  0  1  0  0  0  0  0  0  0  0  0
   31.0914  -23.0307  -16.2652 C   0  0  0  0  0  0  0  0  0  0  0  0
   31.6588  -24.0135  -17.2410 C   0  0  0  0  0  0  0  0  0  0  0  0
   31.4333  -25.4449  -16.8489 C   0  0  0  0  0  0  0  0  0  0  0  0
   32.0089  -26.3303  -17.9439 C   0  0  0  0  0  0  0  0  0  0  0  0
   31.9267  -27.7144  -17.5724 N   0  0  0  0  0  0  0  0  0  0  0  0
   29.1912  -22.2624  -14.9330 C   0  0  0  0  0  0  0  0  0  0  0  0
   29.9231  -22.2627  -13.9027 O   0  0  0  0  0  0  0  0  0  0  0  0
   28.0389  -21.4465  -14.9608 N   0  0  0  0  0  0  0  0  0  0  0  0
   27.7439  -20.5577  -13.8717 C   0  0  1  0  0  0  0  0  0  0  0  0
   27.0311  -19.3227  -14.3380 C   0  0  0  0  0  0  0  0  0  0  0  0
   27.8674  -18.4640  -15.2571 C   0  0  0  0  0  0  0  0  0  0  0  0
   27.0231  -17.2307  -15.5627 C   0  0  0  0  0  0  0  0  0  0  0  0
   27.8557  -16.2399  -16.3548 C   0  0  0  0  0  0  0  0  0  0  0  0
   27.1370  -14.9993  -16.5630 N   0  0  0  0  0  0  0  0  0  0  0  0
   27.0189  -21.2692  -12.7957 C   0  0  0  0  0  0  0  0  0  0  0  0
   26.2199  -22.1789  -13.1141 O   0  0  0  0  0  0  0  0  0  0  0  0
   27.1843  -20.9723  -11.4210 N   0  0  0  0  0  0  0  0  0  0  0  0
   26.5206  -21.7441  -10.3909 C   0  0  1  0  0  0  0  0  0  0  0  0
   27.3304  -21.7699   -9.1121 C   0  0  0  0  0  0  0  0  0  0  0  0
   27.1240  -20.5701   -8.2894 C   0  0  0  0  0  0  0  0  0  0  0  0
   26.1907  -19.5637   -8.3918 C   0  0  0  0  0  0  0  0  0  0  0  0
   26.3828  -18.6723   -7.4241 N   0  0  0  0  0  0  0  0  0  0  0  0
   27.4297  -19.0368   -6.6505 C   0  0  0  0  0  0  0  0  0  0  0  0
   28.0467  -18.4947   -5.5430 C   0  0  0  0  0  0  0  0  0  0  0  0
   29.1262  -19.1235   -4.9640 C   0  0  0  0  0  0  0  0  0  0  0  0
   29.6214  -20.3173   -5.4781 C   0  0  0  0  0  0  0  0  0  0  0  0
   28.9804  -20.8317   -6.5865 C   0  0  0  0  0  0  0  0  0  0  0  0
   27.8971  -20.2187   -7.1831 C   0  0  0  0  0  0  0  0  0  0  0  0
   25.2357  -21.0663  -10.0879 C   0  0  0  0  0  0  0  0  0  0  0  0
   24.2168  -21.6831   -9.3716 O   0  0  0  0  0  0  0  0  0  0  0  0
   25.0148  -19.8916  -10.4722 O   0  0  0  0  0  0  0  0  0  0  0  0
  2  1  1  6
  2  3  1  0
  3  4  1  0
  4  5  1  0
  5  6  1  0
  6  7  1  0
  8  2  1  0
  9  8  2  0
 10  8  1  0
 11 17  1  0
 11 10  1  0
 11 12  1  6
 13 12  1  0
 14 13  1  0
 15 14  1  0
 16 15  1  0
 17 19  1  0
 18 17  2  0
 19 20  1  0
 20 21  1  1
 20 31  1  0
 22 21  1  0
 23 22  2  0
 24 23  1  0
 25 24  1  0
 25 30  2  0
 26 25  1  0
 27 26  2  0
 27 28  1  0
 28 29  2  0
 29 30  1  0
 30 22  1  0
 31 33  2  0
 31 32  1  0
M  END
$$$$
