KKW.pdb
     RDKit          3D

 33 34  0  0  1  0  0  0  0  0999 V2000
   13.2777  -21.0023   -0.1757 N   0  0  0  0  0  0  0  0  0  0  0  0
   13.7062  -21.4796    1.1159 C   0  0  1  0  0  0  0  0  0  0  0  0
   14.8376  -22.4550    0.9779 C   0  0  0  0  0  0  0  0  0  0  0  0
   14.4792  -23.7203    0.2636 C   0  0  0  0  0  0  0  0  0  0  0  0
   15.5656  -24.7556    0.2980 C   0  0  0  0  0  0  0  0  0  0  0  0
   15.0930  -25.9620   -0.4996 C   0  0  0  0  0  0  0  0  0  0  0  0
   16.1090  -26.9754   -0.5358 N   0  0  0  0  0  0  0  0  0  0  0  0
   14.1230  -20.3549    2.0052 C   0  0  0  0  0  0  0  0  0  0  0  0
   14.5578  -19.3086    1.4452 O   0  0  0  0  0  0  0  0  0  0  0  0
   14.0546  -20.4058    3.4147 N   0  0  0  0  0  0  0  0  0  0  0  0
   14.2171  -19.2140    4.1998 C   0  0  1  0  0  0  0  0  0  0  0  0
   13.1771  -19.1097    5.2759 C   0  0  0  0  0  0  0  0  0  0  0  0
   12.1231  -18.0673    4.9859 C   0  0  0  0  0  0  0  0  0  0  0  0
   11.1779  -18.0817    6.1833 C   0  0  0  0  0  0  0  0  0  0  0  0
   10.0763  -17.0622    5.9616 C   0  0  0  0  0  0  0  0  0  0  0  0
    9.1831  -16.9992    7.1006 N   0  0  0  0  0  0  0  0  0  0  0  0
   15.5980  -19.1144    4.7222 C   0  0  0  0  0  0  0  0  0  0  0  0
   16.1606  -20.1574    5.1261 O   0  0  0  0  0  0  0  0  0  0  0  0
   16.3167  -17.8960    4.7880 N   0  0  0  0  0  0  0  0  0  0  0  0
   17.6395  -17.8238    5.3729 C   0  0  1  0  0  0  0  0  0  0  0  0
   18.6076  -17.1000    4.4614 C   0  0  0  0  0  0  0  0  0  0  0  0
   18.9583  -15.7627    4.9587 C   0  0  0  0  0  0  0  0  0  0  0  0
   19.6682  -15.3797    6.0739 C   0  0  0  0  0  0  0  0  0  0  0  0
   19.7386  -14.0530    6.1283 N   0  0  0  0  0  0  0  0  0  0  0  0
   19.0929  -13.5046    5.0749 C   0  0  0  0  0  0  0  0  0  0  0  0
   18.8611  -12.2135    4.6502 C   0  0  0  0  0  0  0  0  0  0  0  0
   18.1451  -11.9722    3.4991 C   0  0  0  0  0  0  0  0  0  0  0  0
   17.6385  -13.0195    2.7367 C   0  0  0  0  0  0  0  0  0  0  0  0
   17.8889  -14.2983    3.1905 C   0  0  0  0  0  0  0  0  0  0  0  0
   18.6038  -14.5635    4.3411 C   0  0  0  0  0  0  0  0  0  0  0  0
   17.5291  -17.0296    6.6216 C   0  0  0  0  0  0  0  0  0  0  0  0
   18.4863  -17.0832    7.6278 O   0  0  0  0  0  0  0  0  0  0  0  0
   16.5522  -16.2667    6.8217 O   0  0  0  0  0  0  0  0  0  0  0  0
  2  1  1  6
  2  3  1  0
  3  4  1  0
  4  5  1  0
  5  6  1  0
  6  7  1  0
  8  2  1  0
  9  8  2  0
 10  8  1  0
 11 17  1  0
 11 10  1  0
 11 12  1  1
 13 12  1  0
 14 13  1  0
 15 14  1  0
 16 15  1  0
 17 19  1  0
 18 17  2  0
 19 20  1  0
 20 21  1  6
 20 31  1  0
 22 21  1  0
 23 22  2  0
 24 23  1  0
 25 24  1  0
 25 30  2  0
 26 25  1  0
 27 26  2  0
 27 28  1  0
 28 29  2  0
 29 30  1  0
 30 22  1  0
 31 33  2  0
 31 32  1  0
M  END
$$$$
