KKW.pdb
     RDKit          3D

 33 34  0  0  1  0  0  0  0  0999 V2000
   21.9679  -16.2759  -15.7409 N   0  0  0  0  0  0  0  0  0  0  0  0
   23.2250  -16.9701  -15.8736 C   0  0  1  0  0  0  0  0  0  0  0  0
   24.3772  -16.0463  -15.6102 C   0  0  0  0  0  0  0  0  0  0  0  0
   23.9792  -14.6602  -15.2100 C   0  0  0  0  0  0  0  0  0  0  0  0
   25.1410  -13.7196  -15.0733 C   0  0  0  0  0  0  0  0  0  0  0  0
   24.5940  -12.3392  -14.7417 C   0  0  0  0  0  0  0  0  0  0  0  0
   23.8318  -11.8185  -15.8410 N   0  0  0  0  0  0  0  0  0  0  0  0
   23.3040  -18.1417  -14.9514 C   0  0  0  0  0  0  0  0  0  0  0  0
   22.7193  -18.0372  -13.8359 O   0  0  0  0  0  0  0  0  0  0  0  0
   23.9884  -19.3371  -15.2627 N   0  0  0  0  0  0  0  0  0  0  0  0
   24.0048  -20.4345  -14.3360 C   0  0  1  0  0  0  0  0  0  0  0  0
   23.9800  -21.7588  -15.0405 C   0  0  0  0  0  0  0  0  0  0  0  0
   24.0426  -22.9364  -14.0965 C   0  0  0  0  0  0  0  0  0  0  0  0
   23.9144  -24.1811  -14.9692 C   0  0  0  0  0  0  0  0  0  0  0  0
   23.7961  -25.4043  -14.0792 C   0  0  0  0  0  0  0  0  0  0  0  0
   23.6452  -26.6120  -14.8651 N   0  0  0  0  0  0  0  0  0  0  0  0
   25.1365  -20.3062  -13.3913 C   0  0  0  0  0  0  0  0  0  0  0  0
   26.2488  -19.9439  -13.8371 O   0  0  0  0  0  0  0  0  0  0  0  0
   25.0239  -20.5727  -12.0051 N   0  0  0  0  0  0  0  0  0  0  0  0
   26.1741  -20.9392  -11.2050 C   0  0  1  0  0  0  0  0  0  0  0  0
   26.6997  -19.7566  -10.4194 C   0  0  0  0  0  0  0  0  0  0  0  0
   27.8679  -20.0999   -9.5971 C   0  0  0  0  0  0  0  0  0  0  0  0
   29.0527  -20.7129   -9.9362 C   0  0  0  0  0  0  0  0  0  0  0  0
   29.8261  -20.8226   -8.8602 N   0  0  0  0  0  0  0  0  0  0  0  0
   29.2051  -20.2991   -7.7797 C   0  0  0  0  0  0  0  0  0  0  0  0
   29.5395  -20.1535   -6.4501 C   0  0  0  0  0  0  0  0  0  0  0  0
   28.6645  -19.5600   -5.5680 C   0  0  0  0  0  0  0  0  0  0  0  0
   27.4249  -19.0930   -5.9924 C   0  0  0  0  0  0  0  0  0  0  0  0
   27.1226  -19.2546   -7.3290 C   0  0  0  0  0  0  0  0  0  0  0  0
   27.9841  -19.8464   -8.2306 C   0  0  0  0  0  0  0  0  0  0  0  0
   25.7251  -21.9582  -10.2241 C   0  0  0  0  0  0  0  0  0  0  0  0
   26.6011  -22.8572   -9.6275 O   0  0  0  0  0  0  0  0  0  0  0  0
   24.5185  -22.0500   -9.8894 O   0  0  0  0  0  0  0  0  0  0  0  0
  2  1  1  1
  2  3  1  0
  3  4  1  0
  4  5  1  0
  5  6  1  0
  6  7  1  0
  8  2  1  0
  9  8  2  0
 10  8  1  0
 11 17  1  0
 11 10  1  0
 11 12  1  6
 13 12  1  0
 14 13  1  0
 15 14  1  0
 16 15  1  0
 17 19  1  0
 18 17  2  0
 19 20  1  0
 20 21  1  1
 20 31  1  0
 22 21  1  0
 23 22  2  0
 24 23  1  0
 25 24  1  0
 25 30  2  0
 26 25  1  0
 27 26  2  0
 27 28  1  0
 28 29  2  0
 29 30  1  0
 30 22  1  0
 31 33  2  0
 31 32  1  0
M  END
$$$$
