QDW.pdb
     RDKit          3D

 32 33  0  0  1  0  0  0  0  0999 V2000
    5.3111  -20.9481   18.8353 N   0  0  0  0  0  0  0  0  0  0  0  0
    4.9147  -19.5591   18.9123 C   0  0  0  0  0  0  0  0  0  0  0  0
    3.7015  -19.2587   18.8458 O   0  0  0  0  0  0  0  0  0  0  0  0
    6.0077  -18.5748   19.0665 C   0  0  0  0  0  0  0  0  0  0  0  0
    6.8412  -18.8135   20.2790 C   0  0  0  0  0  0  0  0  0  0  0  0
    7.4538  -17.5888   20.8775 C   0  0  2  0  0  0  0  0  0  0  0  0
    7.6497  -16.6191   19.8075 N   0  0  0  0  0  0  0  0  0  0  0  0
    8.6591  -17.7893   21.6784 C   0  0  0  0  0  0  0  0  0  0  0  0
    8.6561  -18.5784   22.6753 O   0  0  0  0  0  0  0  0  0  0  0  0
    9.9237  -17.1421   21.4377 N   0  0  0  0  0  0  0  0  0  0  0  0
   11.0956  -17.4484   22.2123 C   0  0  1  0  0  0  0  0  0  0  0  0
   12.3965  -17.2736   21.5118 C   0  0  0  0  0  0  0  0  0  0  0  0
   13.5608  -17.7975   22.2368 C   0  0  0  0  0  0  0  0  0  0  0  0
   13.3945  -18.3433   23.3512 O   0  0  0  0  0  0  0  0  0  0  0  0
   11.0737  -16.7421   23.5357 C   0  0  0  0  0  0  0  0  0  0  0  0
   11.6460  -15.6142   23.6853 O   0  0  0  0  0  0  0  0  0  0  0  0
   14.8500  -17.7121   21.7349 O   0  0  0  0  0  0  0  0  0  0  0  0
   10.4287  -17.2733   24.6778 N   0  0  0  0  0  0  0  0  0  0  0  0
   10.5156  -16.6249   26.0016 C   0  0  1  0  0  0  0  0  0  0  0  0
   10.0311  -15.2271   25.7908 C   0  0  0  0  0  0  0  0  0  0  0  0
    8.5723  -15.0147   25.7863 C   0  0  0  0  0  0  0  0  0  0  0  0
    7.6029  -16.0279   25.5909 C   0  0  0  0  0  0  0  0  0  0  0  0
    6.4024  -15.4456   25.6267 N   0  0  0  0  0  0  0  0  0  0  0  0
    6.4878  -14.1401   25.8285 C   0  0  0  0  0  0  0  0  0  0  0  0
    5.5000  -13.1566   25.9501 C   0  0  0  0  0  0  0  0  0  0  0  0
    5.9129  -11.8606   26.1812 C   0  0  0  0  0  0  0  0  0  0  0  0
    7.2625  -11.5515   26.2882 C   0  0  0  0  0  0  0  0  0  0  0  0
    8.2056  -12.5338   26.1648 C   0  0  0  0  0  0  0  0  0  0  0  0
    7.8318  -13.8623   25.9290 C   0  0  0  0  0  0  0  0  0  0  0  0
    9.7869  -17.3485   27.0215 C   0  0  0  0  0  0  0  0  0  0  0  0
    9.8585  -16.8902   28.2159 O   0  0  0  0  0  0  0  0  0  0  0  0
    9.0234  -18.4761   26.8216 O   0  0  0  0  0  0  0  0  0  0  0  0
  2  1  1  0
  3  2  2  0
  4  2  1  0
  5  4  1  0
  6  5  1  0
  6  7  1  6
  8  6  1  0
  8  9  2  0
 10  8  1  0
 11 10  1  0
 11 12  1  6
 13 12  1  0
 13 17  1  0
 14 13  2  0
 15 11  1  0
 16 15  2  0
 18 15  1  0
 19 20  1  6
 19 18  1  0
 21 20  1  0
 22 21  2  0
 23 22  1  0
 24 23  1  0
 24 29  2  0
 25 26  2  0
 25 24  1  0
 26 27  1  0
 27 28  2  0
 29 28  1  0
 29 21  1  0
 30 32  1  0
 30 19  1  0
 31 30  2  0
M  END
$$$$
