QDW.pdb
     RDKit          3D

 32 33  0  0  1  0  0  0  0  0999 V2000
   10.2244  -22.0446   19.2077 N   0  0  0  0  0  0  0  0  0  0  0  0
    9.3021  -21.0794   18.6509 C   0  0  0  0  0  0  0  0  0  0  0  0
    8.6248  -21.3828   17.6430 O   0  0  0  0  0  0  0  0  0  0  0  0
    9.2320  -19.7709   19.3365 C   0  0  0  0  0  0  0  0  0  0  0  0
   10.1739  -19.6635   20.4867 C   0  0  0  0  0  0  0  0  0  0  0  0
    9.8640  -18.5721   21.4593 C   0  0  2  0  0  0  0  0  0  0  0  0
    9.3708  -17.4277   20.7040 N   0  0  0  0  0  0  0  0  0  0  0  0
   10.9287  -18.2101   22.3920 C   0  0  0  0  0  0  0  0  0  0  0  0
   11.5174  -19.0977   23.0864 O   0  0  0  0  0  0  0  0  0  0  0  0
   11.4039  -16.8687   22.6173 N   0  0  0  0  0  0  0  0  0  0  0  0
   12.3396  -16.5579   23.6637 C   0  0  1  0  0  0  0  0  0  0  0  0
   13.2745  -15.4354   23.3815 C   0  0  0  0  0  0  0  0  0  0  0  0
   14.3954  -15.7761   22.4966 C   0  0  0  0  0  0  0  0  0  0  0  0
   15.4906  -15.1866   22.6395 O   0  0  0  0  0  0  0  0  0  0  0  0
   11.6454  -16.3893   24.9829 C   0  0  0  0  0  0  0  0  0  0  0  0
   12.2700  -15.9430   25.9991 O   0  0  0  0  0  0  0  0  0  0  0  0
   14.2913  -16.7325   21.4985 O   0  0  0  0  0  0  0  0  0  0  0  0
   10.2805  -16.7085   25.1773 N   0  0  0  0  0  0  0  0  0  0  0  0
    9.6226  -16.5757   26.4926 C   0  0  1  0  0  0  0  0  0  0  0  0
    8.1839  -16.3076   26.1908 C   0  0  0  0  0  0  0  0  0  0  0  0
    7.8763  -15.1032   25.3984 C   0  0  0  0  0  0  0  0  0  0  0  0
    7.9234  -15.0246   23.9855 C   0  0  0  0  0  0  0  0  0  0  0  0
    7.6094  -13.7733   23.6435 N   0  0  0  0  0  0  0  0  0  0  0  0
    7.3580  -13.0163   24.7000 C   0  0  0  0  0  0  0  0  0  0  0  0
    6.9818  -11.6728   24.8064 C   0  0  0  0  0  0  0  0  0  0  0  0
    6.7697  -11.1665   26.0722 C   0  0  0  0  0  0  0  0  0  0  0  0
    6.9259  -11.9681   27.1953 C   0  0  0  0  0  0  0  0  0  0  0  0
    7.2947  -13.2778   27.0603 C   0  0  0  0  0  0  0  0  0  0  0  0
    7.5212  -13.8331   25.7952 C   0  0  0  0  0  0  0  0  0  0  0  0
    9.8371  -17.7307   27.3381 C   0  0  0  0  0  0  0  0  0  0  0  0
    9.4146  -17.6481   28.5450 O   0  0  0  0  0  0  0  0  0  0  0  0
   10.4464  -18.9056   26.9605 O   0  0  0  0  0  0  0  0  0  0  0  0
  2  1  1  0
  3  2  2  0
  4  2  1  0
  5  4  1  0
  6  5  1  0
  6  7  1  6
  8  6  1  0
  8  9  2  0
 10  8  1  0
 11 10  1  0
 11 12  1  6
 13 12  1  0
 13 17  1  0
 14 13  2  0
 15 11  1  0
 16 15  2  0
 18 15  1  0
 19 20  1  6
 19 18  1  0
 21 20  1  0
 22 21  2  0
 23 22  1  0
 24 23  1  0
 24 29  2  0
 25 26  2  0
 25 24  1  0
 26 27  1  0
 27 28  2  0
 29 28  1  0
 29 21  1  0
 30 32  1  0
 30 19  1  0
 31 30  2  0
M  END
$$$$
