QDW.pdb
     RDKit          3D

 32 33  0  0  1  0  0  0  0  0999 V2000
    7.6948  -13.0760   17.8927 N   0  0  0  0  0  0  0  0  0  0  0  0
    7.7813  -14.2286   17.0229 C   0  0  0  0  0  0  0  0  0  0  0  0
    7.6689  -14.0780   15.7854 O   0  0  0  0  0  0  0  0  0  0  0  0
    8.0008  -15.5326   17.6851 C   0  0  0  0  0  0  0  0  0  0  0  0
    7.7975  -15.4792   19.1608 C   0  0  0  0  0  0  0  0  0  0  0  0
    8.9842  -15.0256   19.9476 C   0  0  2  0  0  0  0  0  0  0  0  0
   10.0746  -14.7838   19.0116 N   0  0  0  0  0  0  0  0  0  0  0  0
    9.3857  -15.8742   21.0671 C   0  0  0  0  0  0  0  0  0  0  0  0
    8.5174  -16.3828   21.8442 O   0  0  0  0  0  0  0  0  0  0  0  0
   10.7473  -16.2096   21.3980 N   0  0  0  0  0  0  0  0  0  0  0  0
   11.0734  -17.0580   22.5119 C   0  0  1  0  0  0  0  0  0  0  0  0
   12.4909  -17.5030   22.5914 C   0  0  0  0  0  0  0  0  0  0  0  0
   13.0252  -18.0791   21.3510 C   0  0  0  0  0  0  0  0  0  0  0  0
   12.3889  -18.9900   20.7742 O   0  0  0  0  0  0  0  0  0  0  0  0
   10.6005  -16.4640   23.8059 C   0  0  0  0  0  0  0  0  0  0  0  0
   10.7712  -15.2277   24.0598 O   0  0  0  0  0  0  0  0  0  0  0  0
   14.2171  -17.6532   20.7859 O   0  0  0  0  0  0  0  0  0  0  0  0
    9.9476  -17.2241   24.8051 N   0  0  0  0  0  0  0  0  0  0  0  0
    9.5102  -16.6293   26.0840 C   0  0  1  0  0  0  0  0  0  0  0  0
    8.0185  -16.5820   26.0093 C   0  0  0  0  0  0  0  0  0  0  0  0
    7.4117  -15.3601   25.4509 C   0  0  0  0  0  0  0  0  0  0  0  0
    6.7422  -15.2795   24.2060 C   0  0  0  0  0  0  0  0  0  0  0  0
    6.3598  -14.0118   24.0384 N   0  0  0  0  0  0  0  0  0  0  0  0
    6.7140  -13.2457   25.0582 C   0  0  0  0  0  0  0  0  0  0  0  0
    6.5091  -11.8840   25.3067 C   0  0  0  0  0  0  0  0  0  0  0  0
    6.9908  -11.3710   26.4934 C   0  0  0  0  0  0  0  0  0  0  0  0
    7.6539  -12.1837   27.4035 C   0  0  0  0  0  0  0  0  0  0  0  0
    7.8395  -13.5111   27.1334 C   0  0  0  0  0  0  0  0  0  0  0  0
    7.3682  -14.0738   25.9411 C   0  0  0  0  0  0  0  0  0  0  0  0
   10.0154  -17.3515   27.2320 C   0  0  0  0  0  0  0  0  0  0  0  0
    9.7154  -16.8822   28.3860 O   0  0  0  0  0  0  0  0  0  0  0  0
   10.7805  -18.4949   27.1939 O   0  0  0  0  0  0  0  0  0  0  0  0
  2  1  1  0
  3  2  2  0
  4  2  1  0
  5  4  1  0
  6  5  1  0
  6  7  1  6
  8  6  1  0
  8  9  2  0
 10  8  1  0
 11 10  1  0
 11 12  1  1
 13 12  1  0
 13 17  1  0
 14 13  2  0
 15 11  1  0
 16 15  2  0
 18 15  1  0
 19 20  1  6
 19 18  1  0
 21 20  1  0
 22 21  2  0
 23 22  1  0
 24 23  1  0
 24 29  2  0
 25 26  2  0
 25 24  1  0
 26 27  1  0
 27 28  2  0
 29 28  1  0
 29 21  1  0
 30 32  1  0
 30 19  1  0
 31 30  2  0
M  END
$$$$
