QDW.pdb
     RDKit          3D

 32 33  0  0  1  0  0  0  0  0999 V2000
    7.6630  -12.1326   18.2630 N   0  0  0  0  0  0  0  0  0  0  0  0
    7.5738  -13.4047   17.5802 C   0  0  0  0  0  0  0  0  0  0  0  0
    6.7611  -13.5443   16.6386 O   0  0  0  0  0  0  0  0  0  0  0  0
    8.4760  -14.4716   18.0647 C   0  0  0  0  0  0  0  0  0  0  0  0
    9.2217  -14.0900   19.2978 C   0  0  0  0  0  0  0  0  0  0  0  0
   10.2918  -15.0472   19.7125 C   0  0  2  0  0  0  0  0  0  0  0  0
   10.6544  -15.8437   18.5473 N   0  0  0  0  0  0  0  0  0  0  0  0
   10.0097  -15.8696   20.8866 C   0  0  0  0  0  0  0  0  0  0  0  0
    9.4817  -15.3629   21.9263 O   0  0  0  0  0  0  0  0  0  0  0  0
   10.2886  -17.2794   20.9896 N   0  0  0  0  0  0  0  0  0  0  0  0
    9.9171  -18.0466   22.1474 C   0  0  1  0  0  0  0  0  0  0  0  0
   10.0918  -19.5194   22.0293 C   0  0  0  0  0  0  0  0  0  0  0  0
    9.7647  -20.2769   23.2437 C   0  0  0  0  0  0  0  0  0  0  0  0
    8.6360  -20.1382   23.7676 O   0  0  0  0  0  0  0  0  0  0  0  0
   10.5610  -17.5049   23.3894 C   0  0  0  0  0  0  0  0  0  0  0  0
   11.8244  -17.5486   23.5442 O   0  0  0  0  0  0  0  0  0  0  0  0
   10.6620  -21.1480   23.8416 O   0  0  0  0  0  0  0  0  0  0  0  0
    9.8206  -16.9225   24.4454 N   0  0  0  0  0  0  0  0  0  0  0  0
   10.4467  -16.5439   25.7281 C   0  0  1  0  0  0  0  0  0  0  0  0
   10.0125  -15.1367   25.9809 C   0  0  0  0  0  0  0  0  0  0  0  0
    8.5640  -14.8645   25.9510 C   0  0  0  0  0  0  0  0  0  0  0  0
    7.5568  -15.8383   25.7467 C   0  0  0  0  0  0  0  0  0  0  0  0
    6.3810  -15.2068   25.7586 N   0  0  0  0  0  0  0  0  0  0  0  0
    6.5170  -13.9044   25.9527 C   0  0  0  0  0  0  0  0  0  0  0  0
    5.5687  -12.8802   26.0512 C   0  0  0  0  0  0  0  0  0  0  0  0
    6.0310  -11.6006   26.2799 C   0  0  0  0  0  0  0  0  0  0  0  0
    7.3903  -11.3465   26.4069 C   0  0  0  0  0  0  0  0  0  0  0  0
    8.2939  -12.3677   26.3059 C   0  0  0  0  0  0  0  0  0  0  0  0
    7.8695  -13.6815   26.0733 C   0  0  0  0  0  0  0  0  0  0  0  0
   10.1138  -17.4596   26.7983 C   0  0  0  0  0  0  0  0  0  0  0  0
   10.7127  -17.2811   27.9170 O   0  0  0  0  0  0  0  0  0  0  0  0
    9.2113  -18.4960   26.7227 O   0  0  0  0  0  0  0  0  0  0  0  0
  2  1  1  0
  3  2  2  0
  4  2  1  0
  5  4  1  0
  6  5  1  0
  6  7  1  6
  8  6  1  0
  8  9  2  0
 10  8  1  0
 11 10  1  0
 11 12  1  6
 13 12  1  0
 13 17  1  0
 14 13  2  0
 15 11  1  0
 16 15  2  0
 18 15  1  0
 19 20  1  1
 19 18  1  0
 21 20  1  0
 22 21  2  0
 23 22  1  0
 24 23  1  0
 24 29  2  0
 25 26  2  0
 25 24  1  0
 26 27  1  0
 27 28  2  0
 29 28  1  0
 29 21  1  0
 30 32  1  0
 30 19  1  0
 31 30  2  0
M  END
$$$$
