QDW.pdb
     RDKit          3D

 32 33  0  0  1  0  0  0  0  0999 V2000
    7.5202  -12.4717   18.0723 N   0  0  0  0  0  0  0  0  0  0  0  0
    7.7982  -13.8727   17.8440 C   0  0  0  0  0  0  0  0  0  0  0  0
    7.1749  -14.4882   16.9500 O   0  0  0  0  0  0  0  0  0  0  0  0
    8.8267  -14.4853   18.7125 C   0  0  0  0  0  0  0  0  0  0  0  0
    9.3668  -13.5417   19.7322 C   0  0  0  0  0  0  0  0  0  0  0  0
   10.3663  -14.1310   20.6739 C   0  0  2  0  0  0  0  0  0  0  0  0
   11.4860  -14.6267   19.8838 N   0  0  0  0  0  0  0  0  0  0  0  0
    9.8631  -15.1267   21.6173 C   0  0  0  0  0  0  0  0  0  0  0  0
    8.9259  -14.8421   22.4280 O   0  0  0  0  0  0  0  0  0  0  0  0
   10.3536  -16.4770   21.7277 N   0  0  0  0  0  0  0  0  0  0  0  0
    9.9357  -17.3548   22.7867 C   0  0  1  0  0  0  0  0  0  0  0  0
   10.1359  -18.8079   22.5378 C   0  0  0  0  0  0  0  0  0  0  0  0
   10.2190  -19.1836   21.1209 C   0  0  0  0  0  0  0  0  0  0  0  0
    9.1643  -19.3305   20.4626 O   0  0  0  0  0  0  0  0  0  0  0  0
   10.5099  -16.9291   24.1057 C   0  0  0  0  0  0  0  0  0  0  0  0
   11.7489  -16.6589   24.2238 O   0  0  0  0  0  0  0  0  0  0  0  0
   11.4285  -19.3851   20.4743 O   0  0  0  0  0  0  0  0  0  0  0  0
    9.7270  -16.8028   25.2778 N   0  0  0  0  0  0  0  0  0  0  0  0
   10.3341  -16.6821   26.6185 C   0  0  1  0  0  0  0  0  0  0  0  0
    9.6398  -15.5280   27.2655 C   0  0  0  0  0  0  0  0  0  0  0  0
    8.3616  -15.0942   26.6728 C   0  0  0  0  0  0  0  0  0  0  0  0
    7.3541  -15.9619   26.1863 C   0  0  0  0  0  0  0  0  0  0  0  0
    6.3687  -15.2011   25.7051 N   0  0  0  0  0  0  0  0  0  0  0  0
    6.6308  -13.9094   25.8289 C   0  0  0  0  0  0  0  0  0  0  0  0
    5.8859  -12.7772   25.4809 C   0  0  0  0  0  0  0  0  0  0  0  0
    6.4319  -11.5415   25.7610 C   0  0  0  0  0  0  0  0  0  0  0  0
    7.6768  -11.4338   26.3670 C   0  0  0  0  0  0  0  0  0  0  0  0
    8.3820  -12.5582   26.6956 C   0  0  0  0  0  0  0  0  0  0  0  0
    7.8667  -13.8324   26.4290 C   0  0  0  0  0  0  0  0  0  0  0  0
   10.2526  -17.9126   27.3761 C   0  0  0  0  0  0  0  0  0  0  0  0
    9.5199  -18.8432   26.8871 O   0  0  0  0  0  0  0  0  0  0  0  0
   10.8938  -18.1722   28.5659 O   0  0  0  0  0  0  0  0  0  0  0  0
  2  1  1  0
  3  2  2  0
  4  2  1  0
  5  4  1  0
  6  5  1  0
  6  7  1  6
  8  6  1  0
  8  9  2  0
 10  8  1  0
 11 10  1  0
 11 12  1  6
 13 12  1  0
 13 17  1  0
 14 13  2  0
 15 11  1  0
 16 15  2  0
 18 15  1  0
 19 20  1  1
 19 18  1  0
 21 20  1  0
 22 21  2  0
 23 22  1  0
 24 23  1  0
 24 29  2  0
 25 26  2  0
 25 24  1  0
 26 27  1  0
 27 28  2  0
 29 28  1  0
 29 21  1  0
 30 32  1  0
 30 19  1  0
 31 30  2  0
M  END
$$$$
