QDW.pdb
     RDKit          3D

 32 33  0  0  1  0  0  0  0  0999 V2000
    9.0072  -19.8093   17.1765 N   0  0  0  0  0  0  0  0  0  0  0  0
    7.8772  -18.9194   17.3293 C   0  0  0  0  0  0  0  0  0  0  0  0
    7.0246  -18.8417   16.4162 O   0  0  0  0  0  0  0  0  0  0  0  0
    7.8182  -18.1478   18.5896 C   0  0  0  0  0  0  0  0  0  0  0  0
    8.9351  -18.4685   19.5231 C   0  0  0  0  0  0  0  0  0  0  0  0
    8.9295  -17.7004   20.8050 C   0  0  2  0  0  0  0  0  0  0  0  0
    8.4920  -16.3421   20.5097 N   0  0  0  0  0  0  0  0  0  0  0  0
   10.1622  -17.7333   21.5885 C   0  0  0  0  0  0  0  0  0  0  0  0
   10.6133  -18.8291   22.0491 O   0  0  0  0  0  0  0  0  0  0  0  0
   10.9626  -16.5796   21.9114 N   0  0  0  0  0  0  0  0  0  0  0  0
   12.1721  -16.6832   22.6816 C   0  0  1  0  0  0  0  0  0  0  0  0
   13.2603  -15.7411   22.3048 C   0  0  0  0  0  0  0  0  0  0  0  0
   13.8491  -15.9793   20.9810 C   0  0  0  0  0  0  0  0  0  0  0  0
   14.1068  -17.1520   20.6265 O   0  0  0  0  0  0  0  0  0  0  0  0
   11.8853  -16.6463   24.1537 C   0  0  0  0  0  0  0  0  0  0  0  0
   12.8291  -16.7111   25.0064 O   0  0  0  0  0  0  0  0  0  0  0  0
   14.1354  -14.9499   20.0979 O   0  0  0  0  0  0  0  0  0  0  0  0
   10.5750  -16.5387   24.6771 N   0  0  0  0  0  0  0  0  0  0  0  0
   10.3092  -16.5106   26.1294 C   0  0  1  0  0  0  0  0  0  0  0  0
    9.8259  -15.1262   26.4171 C   0  0  0  0  0  0  0  0  0  0  0  0
    8.4167  -14.8274   26.1040 C   0  0  0  0  0  0  0  0  0  0  0  0
    7.4578  -15.7788   25.6800 C   0  0  0  0  0  0  0  0  0  0  0  0
    6.3122  -15.1267   25.4708 N   0  0  0  0  0  0  0  0  0  0  0  0
    6.4242  -13.8310   25.7179 C   0  0  0  0  0  0  0  0  0  0  0  0
    5.4896  -12.7921   25.6479 C   0  0  0  0  0  0  0  0  0  0  0  0
    5.9140  -11.5257   25.9939 C   0  0  0  0  0  0  0  0  0  0  0  0
    7.2236  -11.2987   26.3962 C   0  0  0  0  0  0  0  0  0  0  0  0
    8.1151  -12.3337   26.4547 C   0  0  0  0  0  0  0  0  0  0  0  0
    7.7280  -13.6348   26.1119 C   0  0  0  0  0  0  0  0  0  0  0  0
    9.3899  -17.5486   26.5442 C   0  0  0  0  0  0  0  0  0  0  0  0
    8.7976  -18.2000   25.6132 O   0  0  0  0  0  0  0  0  0  0  0  0
    9.1017  -17.8999   27.8434 O   0  0  0  0  0  0  0  0  0  0  0  0
  2  1  1  0
  3  2  2  0
  4  2  1  0
  5  4  1  0
  6  5  1  0
  6  7  1  6
  8  6  1  0
  8  9  2  0
 10  8  1  0
 11 10  1  0
 11 12  1  6
 13 12  1  0
 13 17  1  0
 14 13  2  0
 15 11  1  0
 16 15  2  0
 18 15  1  0
 19 20  1  6
 19 18  1  0
 21 20  1  0
 22 21  2  0
 23 22  1  0
 24 23  1  0
 24 29  2  0
 25 26  2  0
 25 24  1  0
 26 27  1  0
 27 28  2  0
 29 28  1  0
 29 21  1  0
 30 32  1  0
 30 19  1  0
 31 30  2  0
M  END
$$$$
