QDW.pdb
     RDKit          3D

 32 33  0  0  1  0  0  0  0  0999 V2000
    8.6169  -11.9761   19.1491 N   0  0  0  0  0  0  0  0  0  0  0  0
    7.9686  -13.2495   18.9248 C   0  0  0  0  0  0  0  0  0  0  0  0
    8.2628  -13.9221   17.9110 O   0  0  0  0  0  0  0  0  0  0  0  0
    6.9787  -13.6674   19.9411 C   0  0  0  0  0  0  0  0  0  0  0  0
    7.5752  -14.4862   21.0346 C   0  0  0  0  0  0  0  0  0  0  0  0
    8.1402  -15.8013   20.6050 C   0  0  2  0  0  0  0  0  0  0  0  0
    7.0550  -16.5882   20.0334 N   0  0  0  0  0  0  0  0  0  0  0  0
    8.8998  -16.5422   21.6092 C   0  0  0  0  0  0  0  0  0  0  0  0
    8.3220  -17.3629   22.3897 O   0  0  0  0  0  0  0  0  0  0  0  0
   10.3210  -16.4268   21.8160 N   0  0  0  0  0  0  0  0  0  0  0  0
   10.9978  -17.1371   22.8669 C   0  0  1  0  0  0  0  0  0  0  0  0
   12.4478  -17.3874   22.6472 C   0  0  0  0  0  0  0  0  0  0  0  0
   12.9482  -18.6448   23.2168 C   0  0  0  0  0  0  0  0  0  0  0  0
   12.4869  -19.0502   24.3078 O   0  0  0  0  0  0  0  0  0  0  0  0
   10.7348  -16.5110   24.2047 C   0  0  0  0  0  0  0  0  0  0  0  0
   11.1305  -15.3284   24.4632 O   0  0  0  0  0  0  0  0  0  0  0  0
   13.9204  -19.4099   22.5916 O   0  0  0  0  0  0  0  0  0  0  0  0
   10.0441  -17.1810   25.2423 N   0  0  0  0  0  0  0  0  0  0  0  0
    9.9543  -16.6300   26.6094 C   0  0  1  0  0  0  0  0  0  0  0  0
    8.5052  -16.6942   26.9682 C   0  0  0  0  0  0  0  0  0  0  0  0
    7.5996  -15.7579   26.2781 C   0  0  0  0  0  0  0  0  0  0  0  0
    6.5196  -16.1356   25.4443 C   0  0  0  0  0  0  0  0  0  0  0  0
    5.9578  -15.0155   24.9846 N   0  0  0  0  0  0  0  0  0  0  0  0
    6.5663  -13.9308   25.4380 C   0  0  0  0  0  0  0  0  0  0  0  0
    6.3088  -12.5712   25.2305 C   0  0  0  0  0  0  0  0  0  0  0  0
    7.1250  -11.6609   25.8698 C   0  0  0  0  0  0  0  0  0  0  0  0
    8.1628  -12.0870   26.6884 C   0  0  0  0  0  0  0  0  0  0  0  0
    8.3907  -13.4225   26.8722 C   0  0  0  0  0  0  0  0  0  0  0  0
    7.5878  -14.3812   26.2424 C   0  0  0  0  0  0  0  0  0  0  0  0
   10.8187  -17.3206   27.5425 C   0  0  0  0  0  0  0  0  0  0  0  0
   11.4288  -18.3584   27.1036 O   0  0  0  0  0  0  0  0  0  0  0  0
   11.0465  -16.9595   28.8510 O   0  0  0  0  0  0  0  0  0  0  0  0
  2  1  1  0
  3  2  2  0
  4  2  1  0
  5  4  1  0
  6  5  1  0
  6  7  1  1
  8  6  1  0
  8  9  2  0
 10  8  1  0
 11 10  1  0
 11 12  1  6
 13 12  1  0
 13 17  1  0
 14 13  2  0
 15 11  1  0
 16 15  2  0
 18 15  1  0
 19 20  1  1
 19 18  1  0
 21 20  1  0
 22 21  2  0
 23 22  1  0
 24 23  1  0
 24 29  2  0
 25 26  2  0
 25 24  1  0
 26 27  1  0
 27 28  2  0
 29 28  1  0
 29 21  1  0
 30 32  1  0
 30 19  1  0
 31 30  2  0
M  END
$$$$
