YRG.pdb
     RDKit          3D

 28 28  0  0  1  0  0  0  0  0999 V2000
   21.6796  -22.2424   -6.9094 O   0  0  0  0  0  0  0  0  0  0  0  0
   22.2741  -21.6555   -8.0201 C   0  0  0  0  0  0  0  0  0  0  0  0
   23.4854  -21.0159   -7.8443 C   0  0  0  0  0  0  0  0  0  0  0  0
   24.1321  -20.4082   -8.9177 C   0  0  0  0  0  0  0  0  0  0  0  0
   23.5645  -20.4427  -10.1629 C   0  0  0  0  0  0  0  0  0  0  0  0
   24.2129  -19.8052  -11.3638 C   0  0  0  0  0  0  0  0  0  0  0  0
   24.9359  -20.8710  -12.1606 C   0  0  2  0  0  0  0  0  0  0  0  0
   26.0967  -21.3119  -11.4371 N   0  0  0  0  0  0  0  0  0  0  0  0
   25.3331  -20.4085  -13.4918 C   0  0  0  0  0  0  0  0  0  0  0  0
   26.2191  -19.5355  -13.7011 O   0  0  0  0  0  0  0  0  0  0  0  0
   22.3471  -21.0928  -10.3078 C   0  0  0  0  0  0  0  0  0  0  0  0
   21.6848  -21.6997   -9.2761 C   0  0  0  0  0  0  0  0  0  0  0  0
   26.0212  -25.0753  -17.8574 N   0  0  0  0  0  0  0  0  0  0  0  0
   27.0215  -25.1781  -16.8465 C   0  0  0  0  0  0  0  0  0  0  0  0
   27.2200  -26.3228  -16.2918 N   0  0  0  0  0  0  0  0  0  0  0  0
   27.8081  -24.0633  -16.4284 N   0  0  0  0  0  0  0  0  0  0  0  0
   27.6716  -22.7631  -17.0279 C   0  0  0  0  0  0  0  0  0  0  0  0
   26.8707  -21.8710  -16.0854 C   0  0  0  0  0  0  0  0  0  0  0  0
   25.6928  -21.3366  -16.8258 C   0  0  0  0  0  0  0  0  0  0  0  0
   24.9291  -20.3532  -15.9825 C   0  0  2  0  0  0  0  0  0  0  0  0
   24.7138  -20.9440  -14.6411 N   0  0  0  0  0  0  0  0  0  0  0  0
   23.5895  -20.1179  -16.5727 C   0  0  0  0  0  0  0  0  0  0  0  0
   22.5783  -20.7949  -16.2933 O   0  0  0  0  0  0  0  0  0  0  0  0
   27.9483  -26.4513  -15.5711 N   0  0  0  0  0  0  0  0  0  0  0  0
   23.3633  -19.0672  -17.5304 C   0  0  0  0  0  0  0  0  0  0  0  0
   22.0395  -18.8755  -18.1296 C   0  0  0  0  0  0  0  0  0  0  0  0
   21.2384  -17.9139  -17.3702 O   0  0  0  0  0  0  0  0  0  0  0  0
   20.1174  -17.5773  -17.8126 O   0  0  0  0  0  0  0  0  0  0  0  0
  2  1  1  0
  3  2  2  0
  4  3  1  0
  5  4  2  0
  5 11  1  0
  6  5  1  0
  7  9  1  0
  7  6  1  0
  7  8  1  1
  9 10  2  0
 11 12  2  0
 12  2  1  0
 14 15  2  0
 14 13  1  0
 16 14  1  0
 17 18  1  0
 17 16  1  0
 18 19  1  0
 20 19  1  6
 21 20  1  0
 21  9  1  0
 22 24  1  0
 22 20  1  0
 23 22  2  0
 25 24  1  0
 26 25  1  0
 26 28  1  0
 27 26  2  0
M  END
$$$$
