YRG.pdb
     RDKit          3D

 28 28  0  0  1  0  0  0  0  0999 V2000
   28.7052  -18.0992   -4.8541 O   0  0  0  0  0  0  0  0  0  0  0  0
   28.2785  -18.7584   -6.0007 C   0  0  0  0  0  0  0  0  0  0  0  0
   27.3403  -18.1315   -6.7970 C   0  0  0  0  0  0  0  0  0  0  0  0
   26.8723  -18.7397   -7.9592 C   0  0  0  0  0  0  0  0  0  0  0  0
   27.3446  -19.9727   -8.3205 C   0  0  0  0  0  0  0  0  0  0  0  0
   26.8790  -20.6831   -9.5645 C   0  0  0  0  0  0  0  0  0  0  0  0
   25.4004  -20.4206   -9.7608 C   0  0  2  0  0  0  0  0  0  0  0  0
   24.6493  -21.0959   -8.7385 N   0  0  0  0  0  0  0  0  0  0  0  0
   24.9228  -20.8404  -11.0796 C   0  0  0  0  0  0  0  0  0  0  0  0
   24.1999  -21.8545  -11.2793 O   0  0  0  0  0  0  0  0  0  0  0  0
   28.2867  -20.5770   -7.5000 C   0  0  0  0  0  0  0  0  0  0  0  0
   28.7679  -20.0089   -6.3525 C   0  0  0  0  0  0  0  0  0  0  0  0
   22.7840  -16.0242  -18.2599 N   0  0  0  0  0  0  0  0  0  0  0  0
   22.4721  -17.3964  -18.4897 C   0  0  0  0  0  0  0  0  0  0  0  0
   21.8247  -17.7096  -19.5574 N   0  0  0  0  0  0  0  0  0  0  0  0
   22.8496  -18.4318  -17.5831 N   0  0  0  0  0  0  0  0  0  0  0  0
   23.4652  -18.1504  -16.3141 C   0  0  0  0  0  0  0  0  0  0  0  0
   23.7349  -19.4693  -15.5977 C   0  0  0  0  0  0  0  0  0  0  0  0
   24.4069  -19.1749  -14.3004 C   0  0  0  0  0  0  0  0  0  0  0  0
   24.7360  -20.4449  -13.5653 C   0  0  2  0  0  0  0  0  0  0  0  0
   25.2675  -20.0953  -12.2273 N   0  0  0  0  0  0  0  0  0  0  0  0
   25.8090  -21.1767  -14.2804 C   0  0  0  0  0  0  0  0  0  0  0  0
   26.6064  -20.6380  -15.0760 O   0  0  0  0  0  0  0  0  0  0  0  0
   21.5070  -18.6772  -19.7286 N   0  0  0  0  0  0  0  0  0  0  0  0
   26.0049  -22.5912  -14.0989 C   0  0  0  0  0  0  0  0  0  0  0  0
   24.9600  -23.5448  -14.4823 C   0  0  0  0  0  0  0  0  0  0  0  0
   25.2062  -24.1089  -15.8106 O   0  0  0  0  0  0  0  0  0  0  0  0
   25.4714  -25.3275  -15.9108 O   0  0  0  0  0  0  0  0  0  0  0  0
  2  1  1  0
  3  2  2  0
  4  3  1  0
  5  4  2  0
  5 11  1  0
  6  5  1  0
  7  9  1  0
  7  6  1  0
  7  8  1  1
  9 10  2  0
 11 12  2  0
 12  2  1  0
 14 15  2  0
 14 13  1  0
 16 14  1  0
 17 18  1  0
 17 16  1  0
 18 19  1  0
 20 19  1  6
 21 20  1  0
 21  9  1  0
 22 24  1  0
 22 20  1  0
 23 22  2  0
 25 24  1  0
 26 25  1  0
 26 28  1  0
 27 26  2  0
M  END
$$$$
