YRG.pdb
     RDKit          3D

 28 28  0  0  1  0  0  0  0  0999 V2000
   16.8459  -20.6629  -17.3646 O   0  0  0  0  0  0  0  0  0  0  0  0
   18.0568  -20.1017  -16.9770 C   0  0  0  0  0  0  0  0  0  0  0  0
   18.0680  -19.2972  -15.8545 C   0  0  0  0  0  0  0  0  0  0  0  0
   19.2495  -18.7054  -15.4144 C   0  0  0  0  0  0  0  0  0  0  0  0
   20.4152  -18.9207  -16.0990 C   0  0  0  0  0  0  0  0  0  0  0  0
   21.7253  -18.3103  -15.6747 C   0  0  0  0  0  0  0  0  0  0  0  0
   22.6115  -19.3929  -15.0947 C   0  0  2  0  0  0  0  0  0  0  0  0
   22.0174  -19.9124  -13.8937 N   0  0  0  0  0  0  0  0  0  0  0  0
   23.9667  -18.9192  -14.8073 C   0  0  0  0  0  0  0  0  0  0  0  0
   24.2502  -18.1058  -13.8860 O   0  0  0  0  0  0  0  0  0  0  0  0
   20.3718  -19.7338  -17.2228 C   0  0  0  0  0  0  0  0  0  0  0  0
   19.2300  -20.3304  -17.6827 C   0  0  0  0  0  0  0  0  0  0  0  0
   24.4635  -20.5525  -10.0335 N   0  0  0  0  0  0  0  0  0  0  0  0
   25.5203  -20.9694  -10.8952 C   0  0  0  0  0  0  0  0  0  0  0  0
   26.6770  -21.2038  -10.3809 N   0  0  0  0  0  0  0  0  0  0  0  0
   25.3440  -21.1360  -12.3014 N   0  0  0  0  0  0  0  0  0  0  0  0
   26.4360  -21.4732  -13.1745 C   0  0  0  0  0  0  0  0  0  0  0  0
   27.2421  -20.2106  -13.4604 C   0  0  0  0  0  0  0  0  0  0  0  0
   27.3039  -20.0120  -14.9361 C   0  0  0  0  0  0  0  0  0  0  0  0
   26.4285  -18.8655  -15.3611 C   0  0  2  0  0  0  0  0  0  0  0  0
   25.0545  -19.3735  -15.5828 N   0  0  0  0  0  0  0  0  0  0  0  0
   26.9041  -18.3223  -16.6561 C   0  0  0  0  0  0  0  0  0  0  0  0
   26.8818  -18.9619  -17.7282 O   0  0  0  0  0  0  0  0  0  0  0  0
   27.4782  -21.4871  -10.9676 N   0  0  0  0  0  0  0  0  0  0  0  0
   27.4359  -16.9889  -16.7629 C   0  0  0  0  0  0  0  0  0  0  0  0
   27.9329  -16.4838  -18.0459 C   0  0  0  0  0  0  0  0  0  0  0  0
   27.1242  -15.3657  -18.5346 O   0  0  0  0  0  0  0  0  0  0  0  0
   25.8908  -15.5254  -18.6715 O   0  0  0  0  0  0  0  0  0  0  0  0
  2  1  1  0
  3  2  2  0
  4  3  1  0
  5  4  2  0
  5 11  1  0
  6  5  1  0
  7  9  1  0
  7  6  1  0
  7  8  1  1
  9 10  2  0
 11 12  2  0
 12  2  1  0
 14 15  2  0
 14 13  1  0
 16 14  1  0
 17 18  1  0
 17 16  1  0
 18 19  1  0
 20 19  1  6
 21 20  1  0
 21  9  1  0
 22 24  1  0
 22 20  1  0
 23 22  2  0
 25 24  1  0
 26 25  1  0
 26 28  1  0
 27 26  2  0
M  END
$$$$
