YRG.pdb
     RDKit          3D

 28 28  0  0  1  0  0  0  0  0999 V2000
   28.8195  -20.6995   -7.2965 O   0  0  0  0  0  0  0  0  0  0  0  0
   28.1787  -20.5927   -8.5251 C   0  0  0  0  0  0  0  0  0  0  0  0
   26.8504  -20.2149   -8.5321 C   0  0  0  0  0  0  0  0  0  0  0  0
   26.1520  -20.0898   -9.7305 C   0  0  0  0  0  0  0  0  0  0  0  0
   26.7851  -20.3432  -10.9174 C   0  0  0  0  0  0  0  0  0  0  0  0
   26.0862  -20.2259  -12.2466 C   0  0  0  0  0  0  0  0  0  0  0  0
   25.0876  -21.3564  -12.3827 C   0  0  2  0  0  0  0  0  0  0  0  0
   25.7851  -22.5960  -12.5874 N   0  0  0  0  0  0  0  0  0  0  0  0
   24.1369  -21.1413  -13.4752 C   0  0  0  0  0  0  0  0  0  0  0  0
   24.3159  -21.5442  -14.6569 O   0  0  0  0  0  0  0  0  0  0  0  0
   28.1199  -20.7209  -10.8778 C   0  0  0  0  0  0  0  0  0  0  0  0
   28.8358  -20.8534   -9.7197 C   0  0  0  0  0  0  0  0  0  0  0  0
   17.4519  -23.0285  -10.4379 N   0  0  0  0  0  0  0  0  0  0  0  0
   18.7281  -23.6163  -10.6804 C   0  0  0  0  0  0  0  0  0  0  0  0
   19.1107  -24.5881   -9.9279 N   0  0  0  0  0  0  0  0  0  0  0  0
   19.5939  -23.1688  -11.7228 N   0  0  0  0  0  0  0  0  0  0  0  0
   19.1974  -22.1570  -12.6649 C   0  0  0  0  0  0  0  0  0  0  0  0
   20.3337  -21.9411  -13.6587 C   0  0  0  0  0  0  0  0  0  0  0  0
   20.5714  -20.4763  -13.7956 C   0  0  0  0  0  0  0  0  0  0  0  0
   21.9529  -20.2030  -14.3233 C   0  0  2  0  0  0  0  0  0  0  0  0
   22.9324  -20.4455  -13.2385 N   0  0  0  0  0  0  0  0  0  0  0  0
   22.0727  -18.7752  -14.7045 C   0  0  0  0  0  0  0  0  0  0  0  0
   22.1848  -17.8432  -13.8812 O   0  0  0  0  0  0  0  0  0  0  0  0
   20.0308  -25.0385  -10.0584 N   0  0  0  0  0  0  0  0  0  0  0  0
   22.0668  -18.3615  -16.0832 C   0  0  0  0  0  0  0  0  0  0  0  0
   22.2426  -16.9509  -16.4402 C   0  0  0  0  0  0  0  0  0  0  0  0
   20.9592  -16.2511  -16.5196 O   0  0  0  0  0  0  0  0  0  0  0  0
   20.9491  -15.0393  -16.8311 O   0  0  0  0  0  0  0  0  0  0  0  0
  2  1  1  0
  3  2  2  0
  4  3  1  0
  5  4  2  0
  5 11  1  0
  6  5  1  0
  7  9  1  0
  7  6  1  0
  7  8  1  6
  9 10  2  0
 11 12  2  0
 12  2  1  0
 14 15  2  0
 14 13  1  0
 16 14  1  0
 17 18  1  0
 17 16  1  0
 18 19  1  0
 20 19  1  1
 21 20  1  0
 21  9  1  0
 22 24  1  0
 22 20  1  0
 23 22  2  0
 25 24  1  0
 26 25  1  0
 26 28  1  0
 27 26  2  0
M  END
$$$$
