YRG.pdb
     RDKit          3D

 28 28  0  0  1  0  0  0  0  0999 V2000
   23.2237  -18.5067  -15.4219 O   0  0  0  0  0  0  0  0  0  0  0  0
   22.3881  -19.1906  -14.5470 C   0  0  0  0  0  0  0  0  0  0  0  0
   21.0791  -18.7649  -14.4356 C   0  0  0  0  0  0  0  0  0  0  0  0
   20.1918  -19.4082  -13.5762 C   0  0  0  0  0  0  0  0  0  0  0  0
   20.6174  -20.4750  -12.8315 C   0  0  0  0  0  0  0  0  0  0  0  0
   19.7078  -21.2132  -11.8846 C   0  0  0  0  0  0  0  0  0  0  0  0
   19.5110  -22.6279  -12.3883 C   0  0  2  0  0  0  0  0  0  0  0  0
   18.8356  -22.6003  -13.6565 N   0  0  0  0  0  0  0  0  0  0  0  0
   18.7588  -23.4619  -11.4491 C   0  0  0  0  0  0  0  0  0  0  0  0
   17.5243  -23.3350  -11.2239 O   0  0  0  0  0  0  0  0  0  0  0  0
   21.9383  -20.8792  -12.9653 C   0  0  0  0  0  0  0  0  0  0  0  0
   22.8360  -20.2708  -13.7990 C   0  0  0  0  0  0  0  0  0  0  0  0
   19.7887  -30.1306  -12.5770 N   0  0  0  0  0  0  0  0  0  0  0  0
   20.6673  -29.2336  -13.2527 C   0  0  0  0  0  0  0  0  0  0  0  0
   20.9511  -29.4638  -14.4871 N   0  0  0  0  0  0  0  0  0  0  0  0
   21.2417  -28.0943  -12.6136 N   0  0  0  0  0  0  0  0  0  0  0  0
   20.9872  -27.7826  -11.2328 C   0  0  0  0  0  0  0  0  0  0  0  0
   19.5559  -27.2730  -11.1017 C   0  0  0  0  0  0  0  0  0  0  0  0
   19.3808  -26.6979   -9.7381 C   0  0  0  0  0  0  0  0  0  0  0  0
   18.6749  -25.3715   -9.8009 C   0  0  2  0  0  0  0  0  0  0  0  0
   19.4135  -24.4836  -10.7288 N   0  0  0  0  0  0  0  0  0  0  0  0
   18.7015  -24.7236   -8.4675 C   0  0  0  0  0  0  0  0  0  0  0  0
   19.3471  -23.6860   -8.2118 O   0  0  0  0  0  0  0  0  0  0  0  0
   21.5691  -28.8332  -15.0227 N   0  0  0  0  0  0  0  0  0  0  0  0
   17.9662  -25.2635   -7.3540 C   0  0  0  0  0  0  0  0  0  0  0  0
   17.9219  -24.5521   -6.0732 C   0  0  0  0  0  0  0  0  0  0  0  0
   16.5711  -24.0786   -5.7663 O   0  0  0  0  0  0  0  0  0  0  0  0
   15.6720  -24.2158   -6.6255 O   0  0  0  0  0  0  0  0  0  0  0  0
  2  1  1  0
  3  2  2  0
  4  3  1  0
  5  4  2  0
  5 11  1  0
  6  5  1  0
  7  9  1  0
  7  6  1  0
  7  8  1  6
  9 10  2  0
 11 12  2  0
 12  2  1  0
 14 15  2  0
 14 13  1  0
 16 14  1  0
 17 18  1  0
 17 16  1  0
 18 19  1  0
 20 19  1  1
 21 20  1  0
 21  9  1  0
 22 24  1  0
 22 20  1  0
 23 22  2  0
 25 24  1  0
 26 25  1  0
 26 28  1  0
 27 26  2  0
M  END
$$$$
