YRG.pdb
     RDKit          3D

 28 28  0  0  1  0  0  0  0  0999 V2000
   16.1171  -21.8141  -14.7938 O   0  0  0  0  0  0  0  0  0  0  0  0
   17.3902  -21.5034  -14.3311 C   0  0  0  0  0  0  0  0  0  0  0  0
   17.9649  -20.3230  -14.7597 C   0  0  0  0  0  0  0  0  0  0  0  0
   19.2382  -19.9547  -14.3322 C   0  0  0  0  0  0  0  0  0  0  0  0
   19.9318  -20.7686  -13.4776 C   0  0  0  0  0  0  0  0  0  0  0  0
   21.3115  -20.4273  -12.9787 C   0  0  0  0  0  0  0  0  0  0  0  0
   22.3288  -20.8146  -14.0317 C   0  0  2  0  0  0  0  0  0  0  0  0
   22.3738  -22.2454  -14.1578 N   0  0  0  0  0  0  0  0  0  0  0  0
   23.6692  -20.3051  -13.7360 C   0  0  0  0  0  0  0  0  0  0  0  0
   23.9330  -19.0891  -13.5293 O   0  0  0  0  0  0  0  0  0  0  0  0
   19.3277  -21.9479  -13.0647 C   0  0  0  0  0  0  0  0  0  0  0  0
   18.0798  -22.3402  -13.4645 C   0  0  0  0  0  0  0  0  0  0  0  0
   22.5931  -19.7471  -10.5668 N   0  0  0  0  0  0  0  0  0  0  0  0
   23.0829  -20.5034   -9.4617 C   0  0  0  0  0  0  0  0  0  0  0  0
   22.2409  -20.9273   -8.5850 N   0  0  0  0  0  0  0  0  0  0  0  0
   24.4670  -20.8068   -9.2922 N   0  0  0  0  0  0  0  0  0  0  0  0
   25.4390  -20.5439  -10.3192 C   0  0  0  0  0  0  0  0  0  0  0  0
   25.5969  -21.7957  -11.1757 C   0  0  0  0  0  0  0  0  0  0  0  0
   26.6575  -21.5436  -12.1919 C   0  0  0  0  0  0  0  0  0  0  0  0
   26.1260  -20.7161  -13.3295 C   0  0  2  0  0  0  0  0  0  0  0  0
   24.7644  -21.1922  -13.6678 N   0  0  0  0  0  0  0  0  0  0  0  0
   26.9672  -20.9168  -14.5338 C   0  0  0  0  0  0  0  0  0  0  0  0
   27.8512  -21.7937  -14.6257 O   0  0  0  0  0  0  0  0  0  0  0  0
   22.5490  -21.4733   -7.7645 N   0  0  0  0  0  0  0  0  0  0  0  0
   26.8149  -20.0922  -15.7038 C   0  0  0  0  0  0  0  0  0  0  0  0
   27.6727  -20.2926  -16.8753 C   0  0  0  0  0  0  0  0  0  0  0  0
   28.2439  -19.0302  -17.3473 O   0  0  0  0  0  0  0  0  0  0  0  0
   27.9100  -17.9657  -16.7808 O   0  0  0  0  0  0  0  0  0  0  0  0
  2  1  1  0
  3  2  2  0
  4  3  1  0
  5  4  2  0
  5 11  1  0
  6  5  1  0
  7  9  1  0
  7  6  1  0
  7  8  1  1
  9 10  2  0
 11 12  2  0
 12  2  1  0
 14 15  2  0
 14 13  1  0
 16 14  1  0
 17 18  1  0
 17 16  1  0
 18 19  1  0
 20 19  1  1
 21 20  1  0
 21  9  1  0
 22 24  1  0
 22 20  1  0
 23 22  2  0
 25 24  1  0
 26 25  1  0
 26 28  1  0
 27 26  2  0
M  END
$$$$
