WHS.pdb
     RDKit          3D

 31 33  0  0  1  0  0  0  0  0999 V2000
   15.9455  -16.5877    6.4758 N   0  0  0  0  0  0  0  0  0  0  0  0
   17.3201  -16.9718    6.4290 C   0  0  1  0  0  0  0  0  0  0  0  0
   18.1743  -15.8782    7.0248 C   0  0  0  0  0  0  0  0  0  0  0  0
   18.2044  -14.6388    6.2221 C   0  0  0  0  0  0  0  0  0  0  0  0
   17.2162  -14.1543    5.3761 C   0  0  0  0  0  0  0  0  0  0  0  0
   17.6335  -13.0270    4.8058 N   0  0  0  0  0  0  0  0  0  0  0  0
   18.8731  -12.7599    5.2587 C   0  0  0  0  0  0  0  0  0  0  0  0
   19.7695  -11.7334    5.0155 C   0  0  0  0  0  0  0  0  0  0  0  0
   21.0009  -11.6895    5.6308 C   0  0  0  0  0  0  0  0  0  0  0  0
   21.3820  -12.6683    6.5112 C   0  0  0  0  0  0  0  0  0  0  0  0
   20.5020  -13.6990    6.7657 C   0  0  0  0  0  0  0  0  0  0  0  0
   19.2742  -13.7552    6.1592 C   0  0  0  0  0  0  0  0  0  0  0  0
   17.5747  -18.2095    7.2449 C   0  0  0  0  0  0  0  0  0  0  0  0
   17.1791  -18.2097    8.4386 O   0  0  0  0  0  0  0  0  0  0  0  0
   18.2209  -19.3528    6.7534 N   0  0  0  0  0  0  0  0  0  0  0  0
   18.5898  -20.4893    7.5816 C   0  0  1  0  0  0  0  0  0  0  0  0
   18.7602  -21.7384    6.7017 C   0  0  0  0  0  0  0  0  0  0  0  0
   19.0076  -22.9529    7.4649 C   0  0  0  0  0  0  0  0  0  0  0  0
   18.0632  -23.7582    8.0469 C   0  0  0  0  0  0  0  0  0  0  0  0
   18.7028  -24.7782    8.6572 N   0  0  0  0  0  0  0  0  0  0  0  0
   20.0212  -24.6322    8.4723 C   0  0  0  0  0  0  0  0  0  0  0  0
   20.1984  -23.4982    7.7324 N   0  0  0  0  0  0  0  0  0  0  0  0
   19.8110  -20.2125    8.3688 C   0  0  0  0  0  0  0  0  0  0  0  0
   20.7134  -19.4758    7.9011 O   0  0  0  0  0  0  0  0  0  0  0  0
   22.0252  -18.9846   12.0096 O   0  0  0  0  0  0  0  0  0  0  0  0
   20.8761  -19.2421   11.2579 C   0  0  0  0  0  0  0  0  0  0  0  0
   21.1606  -20.5346   10.4730 C   0  0  2  0  0  0  0  0  0  0  0  0
   20.0087  -20.7543    9.6557 N   0  0  0  0  0  0  0  0  0  0  0  0
   21.4964  -21.6315   11.3785 C   0  0  0  0  0  0  0  0  0  0  0  0
   22.6200  -21.6696   11.9255 O   0  0  0  0  0  0  0  0  0  0  0  0
   20.6049  -22.6464   11.6588 O   0  0  0  0  0  0  0  0  0  0  0  0
  2  1  1  1
  3  2  1  0
  4  3  1  0
  4  5  2  0
  6  5  1  0
  7  6  1  0
  8  7  2  0
  9  8  1  0
 10  9  2  0
 10 11  1  0
 11 12  2  0
 12  7  1  0
 12  4  1  0
 13 14  2  0
 13  2  1  0
 15 13  1  0
 16 15  1  0
 16 17  1  6
 18 17  1  0
 18 22  1  0
 19 18  2  0
 20 19  1  0
 20 21  1  0
 21 22  2  0
 23 16  1  0
 24 23  2  0
 25 26  1  0
 27 26  1  1
 27 28  1  0
 28 23  1  0
 29 27  1  0
 29 31  1  0
 30 29  2  0
M  END
$$$$
