WHS.pdb
     RDKit          3D

 31 33  0  0  1  0  0  0  0  0999 V2000
   18.7776  -12.5154  -17.5391 N   0  0  0  0  0  0  0  0  0  0  0  0
   19.5541  -11.4650  -18.1160 C   0  0  1  0  0  0  0  0  0  0  0  0
   18.9364  -11.0361  -19.4255 C   0  0  0  0  0  0  0  0  0  0  0  0
   19.0428  -12.0475  -20.4966 C   0  0  0  0  0  0  0  0  0  0  0  0
   18.2972  -13.2096  -20.6401 C   0  0  0  0  0  0  0  0  0  0  0  0
   18.7152  -13.8754  -21.7135 N   0  0  0  0  0  0  0  0  0  0  0  0
   19.7179  -13.1766  -22.2784 C   0  0  0  0  0  0  0  0  0  0  0  0
   20.5047  -13.3857  -23.3980 C   0  0  0  0  0  0  0  0  0  0  0  0
   21.4803  -12.4887  -23.7725 C   0  0  0  0  0  0  0  0  0  0  0  0
   21.7058  -11.3503  -23.0433 C   0  0  0  0  0  0  0  0  0  0  0  0
   20.9317  -11.1252  -21.9246 C   0  0  0  0  0  0  0  0  0  0  0  0
   19.9584  -12.0105  -21.5402 C   0  0  0  0  0  0  0  0  0  0  0  0
   19.5781  -10.2479  -17.2324 C   0  0  0  0  0  0  0  0  0  0  0  0
   18.5324   -9.9771  -16.5887 O   0  0  0  0  0  0  0  0  0  0  0  0
   20.6910   -9.4074  -17.0865 N   0  0  0  0  0  0  0  0  0  0  0  0
   20.6635   -8.1536  -16.3511 C   0  0  1  0  0  0  0  0  0  0  0  0
   22.0066   -7.9442  -15.6329 C   0  0  0  0  0  0  0  0  0  0  0  0
   22.1171   -6.6473  -14.9815 C   0  0  0  0  0  0  0  0  0  0  0  0
   22.8005   -5.5545  -15.4484 C   0  0  0  0  0  0  0  0  0  0  0  0
   22.6547   -4.5563  -14.5517 N   0  0  0  0  0  0  0  0  0  0  0  0
   21.8988   -4.9955  -13.5371 C   0  0  0  0  0  0  0  0  0  0  0  0
   21.5715   -6.2920  -13.8140 N   0  0  0  0  0  0  0  0  0  0  0  0
   20.3407   -7.0133  -17.2360 C   0  0  0  0  0  0  0  0  0  0  0  0
   20.9343   -6.8744  -18.3333 O   0  0  0  0  0  0  0  0  0  0  0  0
   16.9766   -5.0484  -16.5567 O   0  0  0  0  0  0  0  0  0  0  0  0
   17.5107   -4.9350  -17.8427 C   0  0  0  0  0  0  0  0  0  0  0  0
   19.0390   -4.8986  -17.6683 C   0  0  2  0  0  0  0  0  0  0  0  0
   19.3687   -6.0517  -16.8905 N   0  0  0  0  0  0  0  0  0  0  0  0
   19.4688   -3.6232  -17.0987 C   0  0  0  0  0  0  0  0  0  0  0  0
   19.3263   -2.5667  -17.7516 O   0  0  0  0  0  0  0  0  0  0  0  0
   20.0367   -3.5378  -15.8442 O   0  0  0  0  0  0  0  0  0  0  0  0
  2  1  1  1
  3  2  1  0
  4  3  1  0
  4  5  2  0
  6  5  1  0
  7  6  1  0
  8  7  2  0
  9  8  1  0
 10  9  2  0
 10 11  1  0
 11 12  2  0
 12  7  1  0
 12  4  1  0
 13 14  2  0
 13  2  1  0
 15 13  1  0
 16 15  1  0
 16 17  1  6
 18 17  1  0
 18 22  1  0
 19 18  2  0
 20 19  1  0
 20 21  1  0
 21 22  2  0
 23 16  1  0
 24 23  2  0
 25 26  1  0
 27 26  1  1
 27 28  1  0
 28 23  1  0
 29 27  1  0
 29 31  1  0
 30 29  2  0
M  END
$$$$
