WHS.pdb
     RDKit          3D

 31 33  0  0  1  0  0  0  0  0999 V2000
   22.1945  -13.2059  -17.6113 N   0  0  0  0  0  0  0  0  0  0  0  0
   22.7357  -11.9638  -17.1602 C   0  0  1  0  0  0  0  0  0  0  0  0
   23.7397  -11.4515  -18.1651 C   0  0  0  0  0  0  0  0  0  0  0  0
   25.0711  -12.0813  -18.0545 C   0  0  0  0  0  0  0  0  0  0  0  0
   25.6209  -13.0491  -18.8839 C   0  0  0  0  0  0  0  0  0  0  0  0
   26.8264  -13.3869  -18.4336 N   0  0  0  0  0  0  0  0  0  0  0  0
   27.0810  -12.6623  -17.3277 C   0  0  0  0  0  0  0  0  0  0  0  0
   28.1634  -12.5961  -16.4672 C   0  0  0  0  0  0  0  0  0  0  0  0
   28.1758  -11.7413  -15.3874 C   0  0  0  0  0  0  0  0  0  0  0  0
   27.1086  -10.9215  -15.1275 C   0  0  0  0  0  0  0  0  0  0  0  0
   26.0212  -10.9740  -15.9739 C   0  0  0  0  0  0  0  0  0  0  0  0
   25.9956  -11.8209  -17.0512 C   0  0  0  0  0  0  0  0  0  0  0  0
   21.6700  -10.9090  -17.0404 C   0  0  0  0  0  0  0  0  0  0  0  0
   20.7164  -10.9517  -17.8590 O   0  0  0  0  0  0  0  0  0  0  0  0
   21.6794   -9.8916  -16.0755 N   0  0  0  0  0  0  0  0  0  0  0  0
   20.6576   -8.8619  -15.9797 C   0  0  1  0  0  0  0  0  0  0  0  0
   19.7603   -9.1338  -14.7613 C   0  0  0  0  0  0  0  0  0  0  0  0
   18.9045  -10.2999  -14.9232 C   0  0  0  0  0  0  0  0  0  0  0  0
   19.0723  -11.5246  -14.3304 C   0  0  0  0  0  0  0  0  0  0  0  0
   18.0668  -12.3273  -14.7385 N   0  0  0  0  0  0  0  0  0  0  0  0
   17.2754  -11.6377  -15.5702 C   0  0  0  0  0  0  0  0  0  0  0  0
   17.8038  -10.3831  -15.6772 N   0  0  0  0  0  0  0  0  0  0  0  0
   21.2545   -7.5100  -15.9199 C   0  0  0  0  0  0  0  0  0  0  0  0
   22.2347   -7.2823  -15.1695 O   0  0  0  0  0  0  0  0  0  0  0  0
   21.3747   -5.2550  -19.0908 O   0  0  0  0  0  0  0  0  0  0  0  0
   20.8128   -4.5047  -18.0549 C   0  0  0  0  0  0  0  0  0  0  0  0
   21.3283   -5.1301  -16.7470 C   0  0  2  0  0  0  0  0  0  0  0  0
   20.7568   -6.4391  -16.6908 N   0  0  0  0  0  0  0  0  0  0  0  0
   21.0253   -4.2720  -15.6035 C   0  0  0  0  0  0  0  0  0  0  0  0
   20.1616   -4.6220  -14.7701 O   0  0  0  0  0  0  0  0  0  0  0  0
   21.6675   -3.0673  -15.4037 O   0  0  0  0  0  0  0  0  0  0  0  0
  2  1  1  6
  3  2  1  0
  4  3  1  0
  4  5  2  0
  6  5  1  0
  7  6  1  0
  8  7  2  0
  9  8  1  0
 10  9  2  0
 10 11  1  0
 11 12  2  0
 12  7  1  0
 12  4  1  0
 13 14  2  0
 13  2  1  0
 15 13  1  0
 16 15  1  0
 16 17  1  1
 18 17  1  0
 18 22  1  0
 19 18  2  0
 20 19  1  0
 20 21  1  0
 21 22  2  0
 23 16  1  0
 24 23  2  0
 25 26  1  0
 27 26  1  6
 27 28  1  0
 28 23  1  0
 29 27  1  0
 29 31  1  0
 30 29  2  0
M  END
$$$$
