WHS.pdb
     RDKit          3D

 31 33  0  0  1  0  0  0  0  0999 V2000
   30.2125   -8.9660  -17.6529 N   0  0  0  0  0  0  0  0  0  0  0  0
   29.3060   -8.8303  -18.7479 C   0  0  1  0  0  0  0  0  0  0  0  0
   30.0476   -8.3252  -19.9625 C   0  0  0  0  0  0  0  0  0  0  0  0
   30.1830   -6.8553  -20.0120 C   0  0  0  0  0  0  0  0  0  0  0  0
   31.2396   -6.1199  -20.5313 C   0  0  0  0  0  0  0  0  0  0  0  0
   31.0050   -4.8219  -20.3572 N   0  0  0  0  0  0  0  0  0  0  0  0
   29.8178   -4.6883  -19.7360 C   0  0  0  0  0  0  0  0  0  0  0  0
   29.0849   -3.5900  -19.3200 C   0  0  0  0  0  0  0  0  0  0  0  0
   27.8626   -3.7303  -18.7011 C   0  0  0  0  0  0  0  0  0  0  0  0
   27.3274   -4.9718  -18.4753 C   0  0  0  0  0  0  0  0  0  0  0  0
   28.0435   -6.0775  -18.8828 C   0  0  0  0  0  0  0  0  0  0  0  0
   29.2615   -5.9518  -19.4987 C   0  0  0  0  0  0  0  0  0  0  0  0
   28.7027  -10.1537  -19.1315 C   0  0  0  0  0  0  0  0  0  0  0  0
   29.4896  -11.1132  -19.3355 O   0  0  0  0  0  0  0  0  0  0  0  0
   27.3253  -10.3758  -19.2715 N   0  0  0  0  0  0  0  0  0  0  0  0
   26.7508  -11.6490  -19.6747 C   0  0  1  0  0  0  0  0  0  0  0  0
   26.2225  -12.3942  -18.4380 C   0  0  0  0  0  0  0  0  0  0  0  0
   27.2773  -12.8528  -17.5459 C   0  0  0  0  0  0  0  0  0  0  0  0
   27.4919  -12.4414  -16.2560 C   0  0  0  0  0  0  0  0  0  0  0  0
   28.5657  -13.1058  -15.7790 N   0  0  0  0  0  0  0  0  0  0  0  0
   29.0279  -13.9211  -16.7358 C   0  0  0  0  0  0  0  0  0  0  0  0
   28.2221  -13.7560  -17.8258 N   0  0  0  0  0  0  0  0  0  0  0  0
   25.6906  -11.4680  -20.6899 C   0  0  0  0  0  0  0  0  0  0  0  0
   25.4610  -10.3316  -21.1712 O   0  0  0  0  0  0  0  0  0  0  0  0
   23.4852  -11.6200  -24.2926 O   0  0  0  0  0  0  0  0  0  0  0  0
   24.5056  -11.7566  -23.3482 C   0  0  0  0  0  0  0  0  0  0  0  0
   23.8695  -12.4491  -22.1302 C   0  0  2  0  0  0  0  0  0  0  0  0
   24.9077  -12.5460  -21.1525 N   0  0  0  0  0  0  0  0  0  0  0  0
   23.2581  -13.7200  -22.5130 C   0  0  0  0  0  0  0  0  0  0  0  0
   23.9490  -14.7614  -22.5476 O   0  0  0  0  0  0  0  0  0  0  0  0
   21.9223  -13.8177  -22.8442 O   0  0  0  0  0  0  0  0  0  0  0  0
  2  1  1  1
  3  2  1  0
  4  3  1  0
  4  5  2  0
  6  5  1  0
  7  6  1  0
  8  7  2  0
  9  8  1  0
 10  9  2  0
 10 11  1  0
 11 12  2  0
 12  7  1  0
 12  4  1  0
 13 14  2  0
 13  2  1  0
 15 13  1  0
 16 15  1  0
 16 17  1  1
 18 17  1  0
 18 22  1  0
 19 18  2  0
 20 19  1  0
 20 21  1  0
 21 22  2  0
 23 16  1  0
 24 23  2  0
 25 26  1  0
 27 26  1  6
 27 28  1  0
 28 23  1  0
 29 27  1  0
 29 31  1  0
 30 29  2  0
M  END
$$$$
