WHS.pdb
     RDKit          3D

 31 33  0  0  1  0  0  0  0  0999 V2000
   21.7618   -8.3252  -18.1781 N   0  0  0  0  0  0  0  0  0  0  0  0
   22.1617   -9.6103  -17.7010 C   0  0  1  0  0  0  0  0  0  0  0  0
   22.4890   -9.5272  -16.2291 C   0  0  0  0  0  0  0  0  0  0  0  0
   22.6437   -8.1465  -15.7280 C   0  0  0  0  0  0  0  0  0  0  0  0
   23.3266   -7.0991  -16.3309 C   0  0  0  0  0  0  0  0  0  0  0  0
   23.2669   -6.0229  -15.5509 N   0  0  0  0  0  0  0  0  0  0  0  0
   22.5597   -6.3396  -14.4498 C   0  0  0  0  0  0  0  0  0  0  0  0
   22.1828   -5.6224  -13.3274 C   0  0  0  0  0  0  0  0  0  0  0  0
   21.4323   -6.1939  -12.3239 C   0  0  0  0  0  0  0  0  0  0  0  0
   21.0307   -7.5018  -12.4045 C   0  0  0  0  0  0  0  0  0  0  0  0
   21.3970   -8.2320  -13.5153 C   0  0  0  0  0  0  0  0  0  0  0  0
   22.1446   -7.6757  -14.5204 C   0  0  0  0  0  0  0  0  0  0  0  0
   21.0543  -10.6189  -17.8393 C   0  0  0  0  0  0  0  0  0  0  0  0
   19.8788  -10.2222  -17.6343 O   0  0  0  0  0  0  0  0  0  0  0  0
   21.2573  -11.9632  -18.1824 N   0  0  0  0  0  0  0  0  0  0  0  0
   20.1808  -12.9296  -18.3278 C   0  0  1  0  0  0  0  0  0  0  0  0
   20.6912  -14.1633  -19.0901 C   0  0  0  0  0  0  0  0  0  0  0  0
   20.8653  -13.9298  -20.5161 C   0  0  0  0  0  0  0  0  0  0  0  0
   20.5346  -12.7906  -21.2034 C   0  0  0  0  0  0  0  0  0  0  0  0
   20.8555  -12.9777  -22.5010 N   0  0  0  0  0  0  0  0  0  0  0  0
   21.3777  -14.2028  -22.6434 C   0  0  0  0  0  0  0  0  0  0  0  0
   21.3789  -14.7834  -21.4074 N   0  0  0  0  0  0  0  0  0  0  0  0
   19.6076  -13.3037  -17.0168 C   0  0  0  0  0  0  0  0  0  0  0  0
   20.1602  -12.9301  -15.9533 O   0  0  0  0  0  0  0  0  0  0  0  0
   16.5119  -13.2116  -14.0302 O   0  0  0  0  0  0  0  0  0  0  0  0
   17.2154  -12.9682  -15.2124 C   0  0  0  0  0  0  0  0  0  0  0  0
   17.7274  -14.3370  -15.6936 C   0  0  2  0  0  0  0  0  0  0  0  0
   18.4361  -14.0813  -16.9084 N   0  0  0  0  0  0  0  0  0  0  0  0
   16.6292  -15.2946  -15.8065 C   0  0  0  0  0  0  0  0  0  0  0  0
   15.9861  -15.3858  -16.8747 O   0  0  0  0  0  0  0  0  0  0  0  0
   16.2674  -16.1179  -14.7602 O   0  0  0  0  0  0  0  0  0  0  0  0
  2  1  1  1
  3  2  1  0
  4  3  1  0
  4  5  2  0
  6  5  1  0
  7  6  1  0
  8  7  2  0
  9  8  1  0
 10  9  2  0
 10 11  1  0
 11 12  2  0
 12  7  1  0
 12  4  1  0
 13 14  2  0
 13  2  1  0
 15 13  1  0
 16 15  1  0
 16 17  1  1
 18 17  1  0
 18 22  1  0
 19 18  2  0
 20 19  1  0
 20 21  1  0
 21 22  2  0
 23 16  1  0
 24 23  2  0
 25 26  1  0
 27 26  1  6
 27 28  1  0
 28 23  1  0
 29 27  1  0
 29 31  1  0
 30 29  2  0
M  END
$$$$
