WHS.pdb
     RDKit          3D

 31 33  0  0  1  0  0  0  0  0999 V2000
   17.6904  -21.0574  -18.0159 N   0  0  0  0  0  0  0  0  0  0  0  0
   17.1299  -19.9039  -18.6441 C   0  0  1  0  0  0  0  0  0  0  0  0
   16.2969  -19.1355  -17.6461 C   0  0  0  0  0  0  0  0  0  0  0  0
   14.9695  -19.7307  -17.3910 C   0  0  0  0  0  0  0  0  0  0  0  0
   14.4454  -20.8950  -17.9357 C   0  0  0  0  0  0  0  0  0  0  0  0
   13.2065  -21.0769  -17.4862 N   0  0  0  0  0  0  0  0  0  0  0  0
   12.9053  -20.0588  -16.6581 C   0  0  0  0  0  0  0  0  0  0  0  0
   11.7807  -19.7432  -15.9151 C   0  0  0  0  0  0  0  0  0  0  0  0
   11.7322  -18.6190  -15.1211 C   0  0  0  0  0  0  0  0  0  0  0  0
   12.8045  -17.7692  -15.0397 C   0  0  0  0  0  0  0  0  0  0  0  0
   13.9335  -18.0674  -15.7730 C   0  0  0  0  0  0  0  0  0  0  0  0
   13.9944  -19.1823  -16.5680 C   0  0  0  0  0  0  0  0  0  0  0  0
   18.2006  -18.9635  -19.1258 C   0  0  0  0  0  0  0  0  0  0  0  0
   19.1305  -18.6843  -18.3267 O   0  0  0  0  0  0  0  0  0  0  0  0
   18.2203  -18.3875  -20.4041 N   0  0  0  0  0  0  0  0  0  0  0  0
   19.3150  -17.5718  -20.9040 C   0  0  1  0  0  0  0  0  0  0  0  0
   19.6432  -17.9749  -22.3509 C   0  0  0  0  0  0  0  0  0  0  0  0
   20.8369  -17.3270  -22.8742 C   0  0  0  0  0  0  0  0  0  0  0  0
   22.0346  -17.9298  -23.1595 C   0  0  0  0  0  0  0  0  0  0  0  0
   22.8781  -16.9838  -23.6237 N   0  0  0  0  0  0  0  0  0  0  0  0
   22.2401  -15.8063  -23.6362 C   0  0  0  0  0  0  0  0  0  0  0  0
   20.9765  -16.0309  -23.1698 N   0  0  0  0  0  0  0  0  0  0  0  0
   19.0062  -16.1290  -20.8021 C   0  0  0  0  0  0  0  0  0  0  0  0
   17.8144  -15.7349  -20.7909 O   0  0  0  0  0  0  0  0  0  0  0  0
   20.9265  -11.7914  -19.9356 O   0  0  0  0  0  0  0  0  0  0  0  0
   21.1611  -13.1439  -20.1952 C   0  0  0  0  0  0  0  0  0  0  0  0
   19.7993  -13.7465  -20.5822 C   0  0  2  0  0  0  0  0  0  0  0  0
   20.0201  -15.1527  -20.7137 N   0  0  0  0  0  0  0  0  0  0  0  0
   19.2572  -13.0905  -21.7702 C   0  0  0  0  0  0  0  0  0  0  0  0
   19.8356  -13.2134  -22.8717 O   0  0  0  0  0  0  0  0  0  0  0  0
   18.1096  -12.3260  -21.7230 O   0  0  0  0  0  0  0  0  0  0  0  0
  2  1  1  1
  3  2  1  0
  4  3  1  0
  4  5  2  0
  6  5  1  0
  7  6  1  0
  8  7  2  0
  9  8  1  0
 10  9  2  0
 10 11  1  0
 11 12  2  0
 12  7  1  0
 12  4  1  0
 13 14  2  0
 13  2  1  0
 15 13  1  0
 16 15  1  0
 16 17  1  6
 18 17  1  0
 18 22  1  0
 19 18  2  0
 20 19  1  0
 20 21  1  0
 21 22  2  0
 23 16  1  0
 24 23  2  0
 25 26  1  0
 27 26  1  6
 27 28  1  0
 28 23  1  0
 29 27  1  0
 29 31  1  0
 30 29  2  0
M  END
$$$$
