WHS.pdb
     RDKit          3D

 31 33  0  0  1  0  0  0  0  0999 V2000
   28.9504  -19.6990  -14.5287 N   0  0  0  0  0  0  0  0  0  0  0  0
   27.5709  -20.0559  -14.6228 C   0  0  1  0  0  0  0  0  0  0  0  0
   27.3416  -20.8761  -15.8697 C   0  0  0  0  0  0  0  0  0  0  0  0
   27.5853  -20.1369  -17.1250 C   0  0  0  0  0  0  0  0  0  0  0  0
   28.5265  -20.4208  -18.1050 C   0  0  0  0  0  0  0  0  0  0  0  0
   28.4590  -19.5018  -19.0647 N   0  0  0  0  0  0  0  0  0  0  0  0
   27.4943  -18.6213  -18.7374 C   0  0  0  0  0  0  0  0  0  0  0  0
   26.9949  -17.4893  -19.3584 C   0  0  0  0  0  0  0  0  0  0  0  0
   25.9722  -16.7530  -18.8028 C   0  0  0  0  0  0  0  0  0  0  0  0
   25.4107  -17.1200  -17.6076 C   0  0  0  0  0  0  0  0  0  0  0  0
   25.8955  -18.2449  -16.9744 C   0  0  0  0  0  0  0  0  0  0  0  0
   26.9136  -18.9858  -17.5158 C   0  0  0  0  0  0  0  0  0  0  0  0
   27.1418  -20.9096  -13.4610 C   0  0  0  0  0  0  0  0  0  0  0  0
   27.2501  -22.1562  -13.5854 O   0  0  0  0  0  0  0  0  0  0  0  0
   26.6343  -20.3981  -12.2581 N   0  0  0  0  0  0  0  0  0  0  0  0
   25.5329  -21.0022  -11.5261 C   0  0  1  0  0  0  0  0  0  0  0  0
   25.3914  -20.3269  -10.1522 C   0  0  0  0  0  0  0  0  0  0  0  0
   26.5451  -20.5289   -9.2879 C   0  0  0  0  0  0  0  0  0  0  0  0
   27.8559  -20.6087   -9.6812 C   0  0  0  0  0  0  0  0  0  0  0  0
   28.6117  -20.7984   -8.5791 N   0  0  0  0  0  0  0  0  0  0  0  0
   27.8088  -20.8394   -7.5079 C   0  0  0  0  0  0  0  0  0  0  0  0
   26.5310  -20.6713   -7.9589 N   0  0  0  0  0  0  0  0  0  0  0  0
   24.2705  -20.9348  -12.2935 C   0  0  0  0  0  0  0  0  0  0  0  0
   23.8010  -19.8251  -12.6459 O   0  0  0  0  0  0  0  0  0  0  0  0
   23.0174  -24.0417  -14.2235 O   0  0  0  0  0  0  0  0  0  0  0  0
   21.9156  -23.5816  -13.4982 C   0  0  0  0  0  0  0  0  0  0  0  0
   22.2146  -22.1119  -13.1546 C   0  0  2  0  0  0  0  0  0  0  0  0
   23.5543  -22.0943  -12.6564 N   0  0  0  0  0  0  0  0  0  0  0  0
   21.2071  -21.5738  -12.2429 C   0  0  0  0  0  0  0  0  0  0  0  0
   21.5308  -21.2298  -11.0854 O   0  0  0  0  0  0  0  0  0  0  0  0
   19.8871  -21.4278  -12.6168 O   0  0  0  0  0  0  0  0  0  0  0  0
  2  1  1  1
  3  2  1  0
  4  3  1  0
  4  5  2  0
  6  5  1  0
  7  6  1  0
  8  7  2  0
  9  8  1  0
 10  9  2  0
 10 11  1  0
 11 12  2  0
 12  7  1  0
 12  4  1  0
 13 14  2  0
 13  2  1  0
 15 13  1  0
 16 15  1  0
 16 17  1  1
 18 17  1  0
 18 22  1  0
 19 18  2  0
 20 19  1  0
 20 21  1  0
 21 22  2  0
 23 16  1  0
 24 23  2  0
 25 26  1  0
 27 26  1  1
 27 28  1  0
 28 23  1  0
 29 27  1  0
 29 31  1  0
 30 29  2  0
M  END
$$$$
