ESK.pdb
     RDKit          3D

 25 24  0  0  1  0  0  0  0  0999 V2000
    8.6430  -15.1601   20.3836 N   0  0  0  0  0  0  0  0  0  0  0  0
    7.5812  -15.1088   21.4070 C   0  0  1  0  0  0  0  0  0  0  0  0
    7.1106  -16.5103   21.5745 C   0  0  0  0  0  0  0  0  0  0  0  0
    8.1470  -17.5711   21.5739 C   0  0  0  0  0  0  0  0  0  0  0  0
    7.5652  -18.9024   21.7387 C   0  0  0  0  0  0  0  0  0  0  0  0
    8.1691  -19.7580   22.4323 O   0  0  0  0  0  0  0  0  0  0  0  0
    8.2165  -14.6011   22.6500 C   0  0  0  0  0  0  0  0  0  0  0  0
    9.4471  -14.7642   22.7813 O   0  0  0  0  0  0  0  0  0  0  0  0
    6.3562  -19.2872   21.1608 O   0  0  0  0  0  0  0  0  0  0  0  0
    5.9726  -13.1991   25.7945 O   0  0  0  0  0  0  0  0  0  0  0  0
    7.1746  -12.5447   25.6457 C   0  0  0  0  0  0  0  0  0  0  0  0
    8.1116  -13.4468   24.8731 C   0  0  2  0  0  0  0  0  0  0  0  0
    7.4958  -13.9567   23.6631 N   0  0  0  0  0  0  0  0  0  0  0  0
    8.5070  -14.5628   25.7690 C   0  0  0  0  0  0  0  0  0  0  0  0
    7.8444  -15.6404   25.7151 O   0  0  0  0  0  0  0  0  0  0  0  0
    9.5980  -14.4292   26.6634 N   0  0  0  0  0  0  0  0  0  0  0  0
    9.8248  -15.4641   27.6442 C   0  0  1  0  0  0  0  0  0  0  0  0
   11.0649  -16.2277   27.2352 C   0  0  0  0  0  0  0  0  0  0  0  0
   11.3988  -17.3361   28.1728 C   0  0  0  0  0  0  0  0  0  0  0  0
   12.6702  -18.0345   27.7675 C   0  0  0  0  0  0  0  0  0  0  0  0
   12.9762  -19.1471   28.7389 C   0  0  0  0  0  0  0  0  0  0  0  0
   14.2003  -19.8517   28.3619 N   0  0  0  0  0  0  0  0  0  0  0  0
    9.9334  -14.8906   28.9952 C   0  0  0  0  0  0  0  0  0  0  0  0
   10.0837  -15.5540   30.0505 O   0  0  0  0  0  0  0  0  0  0  0  0
    9.8654  -13.5095   29.1217 O   0  0  0  0  0  0  0  0  0  0  0  0
  2  1  1  6
  2  7  1  0
  3  2  1  0
  4  3  1  0
  5  6  2  0
  5  4  1  0
  7  8  2  0
  9  5  1  0
 10 11  1  0
 12 11  1  1
 12 14  1  0
 13 12  1  0
 13  7  1  0
 14 15  2  0
 14 16  1  0
 16 17  1  0
 17 23  1  0
 18 19  1  0
 17 18  1  6
 20 21  1  0
 20 19  1  0
 21 22  1  0
 23 24  2  0
 23 25  1  0
M  END
$$$$
