ESK.pdb
     RDKit          3D

 25 24  0  0  1  0  0  0  0  0999 V2000
    8.1257  -13.5553   16.2915 N   0  0  0  0  0  0  0  0  0  0  0  0
    7.8584  -14.7326   17.1400 C   0  0  1  0  0  0  0  0  0  0  0  0
    8.6474  -15.8469   16.5487 C   0  0  0  0  0  0  0  0  0  0  0  0
   10.0193  -15.5263   16.0858 C   0  0  0  0  0  0  0  0  0  0  0  0
   10.6776  -16.6859   15.4857 C   0  0  0  0  0  0  0  0  0  0  0  0
   10.2448  -17.1479   14.4008 O   0  0  0  0  0  0  0  0  0  0  0  0
    8.3443  -14.3912   18.5017 C   0  0  0  0  0  0  0  0  0  0  0  0
    9.4997  -13.9305   18.6071 O   0  0  0  0  0  0  0  0  0  0  0  0
   11.7788  -17.3224   16.0565 O   0  0  0  0  0  0  0  0  0  0  0  0
    6.0360  -15.1308   21.8293 O   0  0  0  0  0  0  0  0  0  0  0  0
    6.9163  -14.0818   21.9702 C   0  0  0  0  0  0  0  0  0  0  0  0
    8.0505  -14.2812   20.9890 C   0  0  2  0  0  0  0  0  0  0  0  0
    7.5651  -14.5649   19.6522 N   0  0  0  0  0  0  0  0  0  0  0  0
    8.8903  -15.3991   21.4887 C   0  0  0  0  0  0  0  0  0  0  0  0
    8.7233  -16.5482   20.9839 O   0  0  0  0  0  0  0  0  0  0  0  0
    9.8553  -15.1893   22.5049 N   0  0  0  0  0  0  0  0  0  0  0  0
   10.5039  -16.3356   23.0963 C   0  0  1  0  0  0  0  0  0  0  0  0
   11.9888  -16.2156   22.8339 C   0  0  0  0  0  0  0  0  0  0  0  0
   12.3386  -16.3806   21.3953 C   0  0  0  0  0  0  0  0  0  0  0  0
   13.8244  -16.2696   21.1748 C   0  0  0  0  0  0  0  0  0  0  0  0
   14.1406  -16.4515   19.7112 C   0  0  0  0  0  0  0  0  0  0  0  0
   15.5811  -16.3818   19.4725 N   0  0  0  0  0  0  0  0  0  0  0  0
   10.1889  -16.4334   24.5306 C   0  0  0  0  0  0  0  0  0  0  0  0
    9.5410  -15.5813   25.1866 O   0  0  0  0  0  0  0  0  0  0  0  0
   10.6396  -17.5516   25.2195 O   0  0  0  0  0  0  0  0  0  0  0  0
  2  1  1  6
  2  7  1  0
  3  2  1  0
  4  3  1  0
  5  6  2  0
  5  4  1  0
  7  8  2  0
  9  5  1  0
 10 11  1  0
 12 11  1  1
 12 14  1  0
 13 12  1  0
 13  7  1  0
 14 15  2  0
 14 16  1  0
 16 17  1  0
 17 23  1  0
 18 19  1  0
 17 18  1  1
 20 21  1  0
 20 19  1  0
 21 22  1  0
 23 24  2  0
 23 25  1  0
M  END
$$$$
