ESK.pdb
     RDKit          3D

 25 24  0  0  1  0  0  0  0  0999 V2000
    9.8965  -13.0599   17.9592 N   0  0  0  0  0  0  0  0  0  0  0  0
    9.8907  -14.3778   18.6231 C   0  0  1  0  0  0  0  0  0  0  0  0
   11.3124  -14.8137   18.6727 C   0  0  0  0  0  0  0  0  0  0  0  0
   12.3253  -13.8604   18.1583 C   0  0  0  0  0  0  0  0  0  0  0  0
   13.6737  -14.4249   18.1943 C   0  0  0  0  0  0  0  0  0  0  0  0
   14.5329  -14.0229   17.3708 O   0  0  0  0  0  0  0  0  0  0  0  0
    9.3453  -14.1611   19.9877 C   0  0  0  0  0  0  0  0  0  0  0  0
    9.8768  -13.2779   20.6918 O   0  0  0  0  0  0  0  0  0  0  0  0
   14.0713  -15.4020   19.1057 O   0  0  0  0  0  0  0  0  0  0  0  0
    6.2796  -16.4913   21.5209 O   0  0  0  0  0  0  0  0  0  0  0  0
    6.2559  -15.1619   21.8778 C   0  0  0  0  0  0  0  0  0  0  0  0
    7.6674  -14.6241   21.7920 C   0  0  2  0  0  0  0  0  0  0  0  0
    8.2737  -14.9002   20.5039 N   0  0  0  0  0  0  0  0  0  0  0  0
    8.4562  -15.2461   22.8855 C   0  0  0  0  0  0  0  0  0  0  0  0
    9.2925  -16.1480   22.5851 O   0  0  0  0  0  0  0  0  0  0  0  0
    8.2803  -14.8432   24.2326 N   0  0  0  0  0  0  0  0  0  0  0  0
    8.9871  -15.5560   25.2702 C   0  0  1  0  0  0  0  0  0  0  0  0
    9.0290  -14.6705   26.4960 C   0  0  0  0  0  0  0  0  0  0  0  0
    9.6870  -15.3246   27.6614 C   0  0  0  0  0  0  0  0  0  0  0  0
    9.6369  -14.4471   28.8846 C   0  0  0  0  0  0  0  0  0  0  0  0
   10.2972  -15.1477   30.0457 C   0  0  0  0  0  0  0  0  0  0  0  0
   10.2759  -14.3116   31.2447 N   0  0  0  0  0  0  0  0  0  0  0  0
    8.3551  -16.8585   25.5346 C   0  0  0  0  0  0  0  0  0  0  0  0
    7.1273  -17.0993   25.4293 O   0  0  0  0  0  0  0  0  0  0  0  0
    9.1726  -17.9082   25.9320 O   0  0  0  0  0  0  0  0  0  0  0  0
  2  1  1  6
  2  7  1  0
  3  2  1  0
  4  3  1  0
  5  6  2  0
  5  4  1  0
  7  8  2  0
  9  5  1  0
 10 11  1  0
 12 11  1  6
 12 14  1  0
 13 12  1  0
 13  7  1  0
 14 15  2  0
 14 16  1  0
 16 17  1  0
 17 23  1  0
 18 19  1  0
 17 18  1  1
 20 21  1  0
 20 19  1  0
 21 22  1  0
 23 24  2  0
 23 25  1  0
M  END
$$$$
