ESK.pdb
     RDKit          3D

 25 24  0  0  1  0  0  0  0  0999 V2000
   10.9024  -18.7613   16.7646 N   0  0  0  0  0  0  0  0  0  0  0  0
   11.2330  -19.5504   17.9669 C   0  0  1  0  0  0  0  0  0  0  0  0
   12.2111  -20.5792   17.5210 C   0  0  0  0  0  0  0  0  0  0  0  0
   12.3177  -20.8161   16.0609 C   0  0  0  0  0  0  0  0  0  0  0  0
   13.3082  -21.8446   15.7460 C   0  0  0  0  0  0  0  0  0  0  0  0
   12.9286  -22.9367   15.2549 O   0  0  0  0  0  0  0  0  0  0  0  0
   11.8471  -18.6069   18.9360 C   0  0  0  0  0  0  0  0  0  0  0  0
   13.0841  -18.4465   18.8858 O   0  0  0  0  0  0  0  0  0  0  0  0
   14.6760  -21.6831   15.9621 O   0  0  0  0  0  0  0  0  0  0  0  0
    9.5929  -16.7028   21.8308 O   0  0  0  0  0  0  0  0  0  0  0  0
   10.6628  -15.9807   21.3522 C   0  0  0  0  0  0  0  0  0  0  0  0
   11.6882  -16.9546   20.8149 C   0  0  2  0  0  0  0  0  0  0  0  0
   11.1000  -17.9024   19.8881 N   0  0  0  0  0  0  0  0  0  0  0  0
   12.2918  -17.6613   21.9729 C   0  0  0  0  0  0  0  0  0  0  0  0
   11.8043  -18.7783   22.3159 O   0  0  0  0  0  0  0  0  0  0  0  0
   13.3861  -17.1028   22.6791 N   0  0  0  0  0  0  0  0  0  0  0  0
   13.8685  -17.7766   23.8613 C   0  0  1  0  0  0  0  0  0  0  0  0
   15.2819  -18.2407   23.5872 C   0  0  0  0  0  0  0  0  0  0  0  0
   15.8788  -18.9873   24.7297 C   0  0  0  0  0  0  0  0  0  0  0  0
   17.2912  -19.4152   24.4287 C   0  0  0  0  0  0  0  0  0  0  0  0
   17.8675  -20.1508   25.6127 C   0  0  0  0  0  0  0  0  0  0  0  0
   19.2107  -20.6475   25.3194 N   0  0  0  0  0  0  0  0  0  0  0  0
   13.7799  -16.8974   25.0382 C   0  0  0  0  0  0  0  0  0  0  0  0
   13.8134  -15.6427   25.0054 O   0  0  0  0  0  0  0  0  0  0  0  0
   13.6491  -17.4933   26.2855 O   0  0  0  0  0  0  0  0  0  0  0  0
  2  1  1  6
  2  7  1  0
  3  2  1  0
  4  3  1  0
  5  6  2  0
  5  4  1  0
  7  8  2  0
  9  5  1  0
 10 11  1  0
 12 11  1  1
 12 14  1  0
 13 12  1  0
 13  7  1  0
 14 15  2  0
 14 16  1  0
 16 17  1  0
 17 23  1  0
 18 19  1  0
 17 18  1  6
 20 21  1  0
 20 19  1  0
 21 22  1  0
 23 24  2  0
 23 25  1  0
M  END
$$$$
