ESK.pdb
     RDKit          3D

 25 24  0  0  1  0  0  0  0  0999 V2000
    8.0351  -15.3506   18.5839 N   0  0  0  0  0  0  0  0  0  0  0  0
    7.9104  -16.4273   19.5852 C   0  0  1  0  0  0  0  0  0  0  0  0
    8.4451  -17.6528   18.9324 C   0  0  0  0  0  0  0  0  0  0  0  0
    8.7800  -17.5540   17.4911 C   0  0  0  0  0  0  0  0  0  0  0  0
    9.2235  -18.8358   16.9449 C   0  0  0  0  0  0  0  0  0  0  0  0
    8.4338  -19.5125   16.2404 O   0  0  0  0  0  0  0  0  0  0  0  0
    8.7473  -16.0252   20.7447 C   0  0  0  0  0  0  0  0  0  0  0  0
    9.9555  -16.3386   20.7250 O   0  0  0  0  0  0  0  0  0  0  0  0
   10.4956  -19.3629   17.1632 O   0  0  0  0  0  0  0  0  0  0  0  0
    7.0722  -14.3374   24.0944 O   0  0  0  0  0  0  0  0  0  0  0  0
    8.3531  -13.9006   23.8419 C   0  0  0  0  0  0  0  0  0  0  0  0
    9.0452  -14.9363   22.9832 C   0  0  2  0  0  0  0  0  0  0  0  0
    8.2375  -15.3186   21.8410 N   0  0  0  0  0  0  0  0  0  0  0  0
    9.3323  -16.1153   23.8388 C   0  0  0  0  0  0  0  0  0  0  0  0
    8.5237  -17.0892   23.8110 O   0  0  0  0  0  0  0  0  0  0  0  0
   10.4815  -16.1534   24.6671 N   0  0  0  0  0  0  0  0  0  0  0  0
   10.7268  -17.3324   25.4633 C   0  0  1  0  0  0  0  0  0  0  0  0
   12.0726  -17.8933   25.0601 C   0  0  0  0  0  0  0  0  0  0  0  0
   12.4137  -19.1538   25.7769 C   0  0  0  0  0  0  0  0  0  0  0  0
   13.7302  -19.7144   25.3065 C   0  0  0  0  0  0  0  0  0  0  0  0
   14.0385  -20.9908   26.0487 C   0  0  0  0  0  0  0  0  0  0  0  0
   15.2654  -21.6071   25.5466 N   0  0  0  0  0  0  0  0  0  0  0  0
   10.6516  -17.0196   26.8995 C   0  0  0  0  0  0  0  0  0  0  0  0
   10.6243  -15.8621   27.3852 O   0  0  0  0  0  0  0  0  0  0  0  0
   10.6071  -18.0809   27.7938 O   0  0  0  0  0  0  0  0  0  0  0  0
  2  1  1  6
  2  7  1  0
  3  2  1  0
  4  3  1  0
  5  6  2  0
  5  4  1  0
  7  8  2  0
  9  5  1  0
 10 11  1  0
 12 11  1  1
 12 14  1  0
 13 12  1  0
 13  7  1  0
 14 15  2  0
 14 16  1  0
 16 17  1  0
 17 23  1  0
 18 19  1  0
 17 18  1  1
 20 21  1  0
 20 19  1  0
 21 22  1  0
 23 24  2  0
 23 25  1  0
M  END
$$$$
