ESK.pdb
     RDKit          3D

 25 24  0  0  1  0  0  0  0  0999 V2000
   11.8252  -18.9837   18.8172 N   0  0  0  0  0  0  0  0  0  0  0  0
   11.9615  -19.2983   20.2524 C   0  0  1  0  0  0  0  0  0  0  0  0
   13.2377  -18.6686   20.6866 C   0  0  0  0  0  0  0  0  0  0  0  0
   14.3350  -18.6189   19.6902 C   0  0  0  0  0  0  0  0  0  0  0  0
   15.5339  -17.9794   20.2303 C   0  0  0  0  0  0  0  0  0  0  0  0
   16.6468  -18.2002   19.6912 O   0  0  0  0  0  0  0  0  0  0  0  0
   10.7956  -18.6788   20.9334 C   0  0  0  0  0  0  0  0  0  0  0  0
   10.2857  -17.6681   20.4073 O   0  0  0  0  0  0  0  0  0  0  0  0
   15.5160  -17.1221   21.3295 O   0  0  0  0  0  0  0  0  0  0  0  0
    9.2782  -20.1371   24.5311 O   0  0  0  0  0  0  0  0  0  0  0  0
    8.3649  -19.6845   23.6058 C   0  0  0  0  0  0  0  0  0  0  0  0
    9.0480  -18.6566   22.7308 C   0  0  2  0  0  0  0  0  0  0  0  0
   10.2571  -19.1802   22.1249 N   0  0  0  0  0  0  0  0  0  0  0  0
    9.3559  -17.4753   23.5761 C   0  0  0  0  0  0  0  0  0  0  0  0
   10.5521  -17.3017   23.9533 O   0  0  0  0  0  0  0  0  0  0  0  0
    8.3394  -16.5630   23.9534 N   0  0  0  0  0  0  0  0  0  0  0  0
    8.6660  -15.4977   24.8715 C   0  0  1  0  0  0  0  0  0  0  0  0
    7.4884  -14.5495   24.9203 C   0  0  0  0  0  0  0  0  0  0  0  0
    7.6487  -13.4782   25.9429 C   0  0  0  0  0  0  0  0  0  0  0  0
    6.4259  -12.6018   26.0169 C   0  0  0  0  0  0  0  0  0  0  0  0
    6.5879  -11.5879   27.1219 C   0  0  0  0  0  0  0  0  0  0  0  0
    5.4253  -10.7050   27.1991 N   0  0  0  0  0  0  0  0  0  0  0  0
    9.0140  -16.0362   26.1962 C   0  0  0  0  0  0  0  0  0  0  0  0
    8.5215  -17.0727   26.7056 O   0  0  0  0  0  0  0  0  0  0  0  0
    9.9594  -15.3510   26.9478 O   0  0  0  0  0  0  0  0  0  0  0  0
  2  1  1  6
  2  7  1  0
  3  2  1  0
  4  3  1  0
  5  6  2  0
  5  4  1  0
  7  8  2  0
  9  5  1  0
 10 11  1  0
 12 11  1  1
 12 14  1  0
 13 12  1  0
 13  7  1  0
 14 15  2  0
 14 16  1  0
 16 17  1  0
 17 23  1  0
 18 19  1  0
 17 18  1  1
 20 21  1  0
 20 19  1  0
 21 22  1  0
 23 24  2  0
 23 25  1  0
M  END
$$$$
