ESK.pdb
     RDKit          3D

 25 24  0  0  1  0  0  0  0  0999 V2000
   11.3195  -17.1608   18.4439 N   0  0  0  0  0  0  0  0  0  0  0  0
    9.9418  -17.4786   18.8666 C   0  0  1  0  0  0  0  0  0  0  0  0
    9.9636  -18.9076   19.2805 C   0  0  0  0  0  0  0  0  0  0  0  0
   11.1666  -19.3771   20.0098 C   0  0  0  0  0  0  0  0  0  0  0  0
   11.0814  -20.7978   20.3452 C   0  0  0  0  0  0  0  0  0  0  0  0
   11.5244  -21.6503   19.5360 O   0  0  0  0  0  0  0  0  0  0  0  0
    9.6366  -16.5889   20.0163 C   0  0  0  0  0  0  0  0  0  0  0  0
   10.5190  -16.4423   20.8871 O   0  0  0  0  0  0  0  0  0  0  0  0
   10.5271  -21.2728   21.5330 O   0  0  0  0  0  0  0  0  0  0  0  0
    5.8042  -15.2003   20.7736 O   0  0  0  0  0  0  0  0  0  0  0  0
    6.8098  -14.3173   21.0965 C   0  0  0  0  0  0  0  0  0  0  0  0
    8.0822  -15.1074   21.3102 C   0  0  2  0  0  0  0  0  0  0  0  0
    8.4144  -15.9197   20.1556 N   0  0  0  0  0  0  0  0  0  0  0  0
    7.8899  -15.9592   22.5111 C   0  0  0  0  0  0  0  0  0  0  0  0
    7.5157  -17.1573   22.3444 O   0  0  0  0  0  0  0  0  0  0  0  0
    8.1185  -15.4478   23.8127 N   0  0  0  0  0  0  0  0  0  0  0  0
    7.7727  -16.2645   24.9520 C   0  0  1  0  0  0  0  0  0  0  0  0
    8.9880  -16.3486   25.8489 C   0  0  0  0  0  0  0  0  0  0  0  0
    9.6830  -17.6633   25.7615 C   0  0  0  0  0  0  0  0  0  0  0  0
   10.8610  -17.7254   26.6981 C   0  0  0  0  0  0  0  0  0  0  0  0
   11.4935  -19.0933   26.6365 C   0  0  0  0  0  0  0  0  0  0  0  0
   12.7326  -19.1344   27.4112 N   0  0  0  0  0  0  0  0  0  0  0  0
    6.5937  -15.7226   25.6464 C   0  0  0  0  0  0  0  0  0  0  0  0
    6.1768  -14.5424   25.5465 O   0  0  0  0  0  0  0  0  0  0  0  0
    5.8811  -16.5757   26.4785 O   0  0  0  0  0  0  0  0  0  0  0  0
  2  1  1  1
  2  7  1  0
  3  2  1  0
  4  3  1  0
  5  6  2  0
  5  4  1  0
  7  8  2  0
  9  5  1  0
 10 11  1  0
 12 11  1  6
 12 14  1  0
 13 12  1  0
 13  7  1  0
 14 15  2  0
 14 16  1  0
 16 17  1  0
 17 23  1  0
 18 19  1  0
 17 18  1  1
 20 21  1  0
 20 19  1  0
 21 22  1  0
 23 24  2  0
 23 25  1  0
M  END
$$$$
