ESK.pdb
     RDKit          3D

 25 24  0  0  1  0  0  0  0  0999 V2000
    9.6611  -16.9976   16.5828 N   0  0  0  0  0  0  0  0  0  0  0  0
    8.9263  -17.6098   17.7065 C   0  0  1  0  0  0  0  0  0  0  0  0
    9.4771  -18.9844   17.8510 C   0  0  0  0  0  0  0  0  0  0  0  0
   10.6875  -19.3095   17.0581 C   0  0  0  0  0  0  0  0  0  0  0  0
   11.0996  -20.7009   17.2372 C   0  0  0  0  0  0  0  0  0  0  0  0
   12.1663  -20.9543   17.8504 O   0  0  0  0  0  0  0  0  0  0  0  0
    9.2205  -16.7824   18.9046 C   0  0  0  0  0  0  0  0  0  0  0  0
   10.4167  -16.5278   19.1548 O   0  0  0  0  0  0  0  0  0  0  0  0
   10.3654  -21.7852   16.7589 O   0  0  0  0  0  0  0  0  0  0  0  0
    6.4061  -16.0675   21.8555 O   0  0  0  0  0  0  0  0  0  0  0  0
    7.2404  -15.0028   21.5992 C   0  0  0  0  0  0  0  0  0  0  0  0
    8.5029  -15.5353   20.9577 C   0  0  2  0  0  0  0  0  0  0  0  0
    8.2201  -16.2860   19.7495 N   0  0  0  0  0  0  0  0  0  0  0  0
    9.1919  -16.3913   21.9562 C   0  0  0  0  0  0  0  0  0  0  0  0
    9.4868  -17.5783   21.6287 O   0  0  0  0  0  0  0  0  0  0  0  0
    9.5131  -15.8959   23.2444 N   0  0  0  0  0  0  0  0  0  0  0  0
   10.5372  -16.5644   24.0118 C   0  0  1  0  0  0  0  0  0  0  0  0
   11.8422  -16.4331   23.2581 C   0  0  0  0  0  0  0  0  0  0  0  0
   12.9997  -17.0084   23.9986 C   0  0  0  0  0  0  0  0  0  0  0  0
   14.2876  -16.8133   23.2424 C   0  0  0  0  0  0  0  0  0  0  0  0
   15.4271  -17.4514   23.9971 C   0  0  0  0  0  0  0  0  0  0  0  0
   16.6741  -17.3624   23.2393 N   0  0  0  0  0  0  0  0  0  0  0  0
   10.6133  -16.0144   25.3748 C   0  0  0  0  0  0  0  0  0  0  0  0
   10.2870  -14.8466   25.7007 O   0  0  0  0  0  0  0  0  0  0  0  0
   11.0811  -16.8446   26.3847 O   0  0  0  0  0  0  0  0  0  0  0  0
  2  1  1  6
  2  7  1  0
  3  2  1  0
  4  3  1  0
  5  6  2  0
  5  4  1  0
  7  8  2  0
  9  5  1  0
 10 11  1  0
 12 11  1  1
 12 14  1  0
 13 12  1  0
 13  7  1  0
 14 15  2  0
 14 16  1  0
 16 17  1  0
 17 23  1  0
 18 19  1  0
 17 18  1  6
 20 21  1  0
 20 19  1  0
 21 22  1  0
 23 24  2  0
 23 25  1  0
M  END
$$$$
