ESK.pdb
     RDKit          3D

 25 24  0  0  1  0  0  0  0  0999 V2000
    8.4920  -15.8143   18.0153 N   0  0  0  0  0  0  0  0  0  0  0  0
    7.4508  -15.8456   19.0605 C   0  0  1  0  0  0  0  0  0  0  0  0
    6.9601  -17.2496   19.1028 C   0  0  0  0  0  0  0  0  0  0  0  0
    7.9836  -18.3149   19.2328 C   0  0  0  0  0  0  0  0  0  0  0  0
    7.3916  -19.6506   19.1723 C   0  0  0  0  0  0  0  0  0  0  0  0
    7.7617  -20.4494   18.2763 O   0  0  0  0  0  0  0  0  0  0  0  0
    8.1181  -15.4691   20.3332 C   0  0  0  0  0  0  0  0  0  0  0  0
    9.3352  -15.7219   20.4473 O   0  0  0  0  0  0  0  0  0  0  0  0
    6.4216  -20.1001   20.0671 O   0  0  0  0  0  0  0  0  0  0  0  0
    7.8275  -13.4687   24.7289 O   0  0  0  0  0  0  0  0  0  0  0  0
    7.1262  -13.8187   23.5971 C   0  0  0  0  0  0  0  0  0  0  0  0
    8.0673  -14.5498   22.6650 C   0  0  2  0  0  0  0  0  0  0  0  0
    7.4414  -14.8510   21.3919 N   0  0  0  0  0  0  0  0  0  0  0  0
    8.4984  -15.7978   23.3441 C   0  0  0  0  0  0  0  0  0  0  0  0
    7.6858  -16.7676   23.3915 O   0  0  0  0  0  0  0  0  0  0  0  0
    9.7861  -15.9046   23.9259 N   0  0  0  0  0  0  0  0  0  0  0  0
   10.1251  -17.1066   24.6502 C   0  0  1  0  0  0  0  0  0  0  0  0
   11.5969  -17.3803   24.4329 C   0  0  0  0  0  0  0  0  0  0  0  0
   12.0724  -18.5966   25.1494 C   0  0  0  0  0  0  0  0  0  0  0  0
   13.5214  -18.8790   24.8509 C   0  0  0  0  0  0  0  0  0  0  0  0
   13.9450  -20.1578   25.5294 C   0  0  0  0  0  0  0  0  0  0  0  0
   15.3744  -20.4023   25.3438 N   0  0  0  0  0  0  0  0  0  0  0  0
    9.7785  -16.9752   26.0745 C   0  0  0  0  0  0  0  0  0  0  0  0
    9.5551  -15.8902   26.6654 O   0  0  0  0  0  0  0  0  0  0  0  0
    9.6894  -18.1363   26.8309 O   0  0  0  0  0  0  0  0  0  0  0  0
  2  1  1  6
  2  7  1  0
  3  2  1  0
  4  3  1  0
  5  6  2  0
  5  4  1  0
  7  8  2  0
  9  5  1  0
 10 11  1  0
 12 11  1  1
 12 14  1  0
 13 12  1  0
 13  7  1  0
 14 15  2  0
 14 16  1  0
 16 17  1  0
 17 23  1  0
 18 19  1  0
 17 18  1  1
 20 21  1  0
 20 19  1  0
 21 22  1  0
 23 24  2  0
 23 25  1  0
M  END
$$$$
