SQR.pdb
     RDKit          3D

 27 26  0  0  1  0  0  0  0  0999 V2000
   25.4919  -21.0199  -18.5657 O   0  0  0  0  0  0  0  0  0  0  0  0
   26.4011  -20.0117  -18.2006 C   0  0  0  0  0  0  0  0  0  0  0  0
   27.4299  -20.6025  -17.2655 C   0  0  2  0  0  0  0  0  0  0  0  0
   28.1632  -21.6408  -17.9149 N   0  0  0  0  0  0  0  0  0  0  0  0
   26.7293  -21.1034  -16.0302 C   0  0  0  0  0  0  0  0  0  0  0  0
   26.8766  -22.2902  -15.6801 O   0  0  0  0  0  0  0  0  0  0  0  0
   25.9246  -21.5529  -10.6938 N   0  0  0  0  0  0  0  0  0  0  0  0
   27.0968  -21.0361  -11.3033 C   0  0  0  0  0  0  0  0  0  0  0  0
   28.2006  -21.4440  -10.8861 O   0  0  0  0  0  0  0  0  0  0  0  0
   26.9970  -20.0614  -12.3819 C   0  0  0  0  0  0  0  0  0  0  0  0
   25.6296  -19.7551  -12.8836 C   0  0  0  0  0  0  0  0  0  0  0  0
   25.2039  -20.5352  -14.0688 C   0  0  2  0  0  0  0  0  0  0  0  0
   25.9084  -20.2421  -15.2667 N   0  0  0  0  0  0  0  0  0  0  0  0
   23.7121  -20.5552  -14.2056 C   0  0  0  0  0  0  0  0  0  0  0  0
   23.0918  -19.7371  -14.9244 O   0  0  0  0  0  0  0  0  0  0  0  0
   17.9747  -26.4493  -11.2720 N   0  0  0  0  0  0  0  0  0  0  0  0
   19.0204  -26.3608  -12.2526 C   0  0  0  0  0  0  0  0  0  0  0  0
   19.5831  -27.4428  -12.6292 N   0  0  0  0  0  0  0  0  0  0  0  0
   19.4137  -25.1194  -12.7833 N   0  0  0  0  0  0  0  0  0  0  0  0
   18.7587  -23.9091  -12.3737 C   0  0  0  0  0  0  0  0  0  0  0  0
   19.3006  -22.6730  -13.0574 C   0  0  0  0  0  0  0  0  0  0  0  0
   20.8091  -22.6819  -12.9942 C   0  0  0  0  0  0  0  0  0  0  0  0
   21.4387  -21.4681  -13.6109 C   0  0  2  0  0  0  0  0  0  0  0  0
   22.8902  -21.5104  -13.5270 N   0  0  0  0  0  0  0  0  0  0  0  0
   20.9379  -20.2230  -13.0153 C   0  0  0  0  0  0  0  0  0  0  0  0
   19.9026  -19.5233  -13.6145 O   0  0  0  0  0  0  0  0  0  0  0  0
   21.4499  -19.7905  -11.9585 O   0  0  0  0  0  0  0  0  0  0  0  0
  2  1  1  0
  3  2  1  0
  3  4  1  6
  5  3  1  0
  6  5  2  0
  7  8  1  0
  8 10  1  0
  9  8  2  0
 10 11  1  0
 12 11  1  1
 12 13  1  0
 13  5  1  0
 14 15  2  0
 14 12  1  0
 17 16  1  0
 17 19  1  0
 18 17  2  0
 20 19  1  0
 21 22  1  0
 21 20  1  0
 23 22  1  1
 23 24  1  0
 24 14  1  0
 25 23  1  0
 26 25  1  0
 27 25  2  0
M  END
$$$$
