SQR.pdb
     RDKit          3D

 27 26  0  0  1  0  0  0  0  0999 V2000
   14.3141   -3.2559  -16.2220 O   0  0  0  0  0  0  0  0  0  0  0  0
   15.5160   -2.8366  -16.8186 C   0  0  0  0  0  0  0  0  0  0  0  0
   16.2578   -4.0529  -17.3209 C   0  0  2  0  0  0  0  0  0  0  0  0
   15.4251   -4.8313  -18.1799 N   0  0  0  0  0  0  0  0  0  0  0  0
   16.7370   -4.8501  -16.1365 C   0  0  0  0  0  0  0  0  0  0  0  0
   16.2429   -5.9718  -15.9116 O   0  0  0  0  0  0  0  0  0  0  0  0
   22.5524   -4.0652  -13.4855 N   0  0  0  0  0  0  0  0  0  0  0  0
   21.9561   -5.1633  -12.8138 C   0  0  0  0  0  0  0  0  0  0  0  0
   22.6746   -5.8414  -12.0505 O   0  0  0  0  0  0  0  0  0  0  0  0
   20.5474   -5.4747  -13.0191 C   0  0  0  0  0  0  0  0  0  0  0  0
   19.8279   -4.6762  -14.0487 C   0  0  0  0  0  0  0  0  0  0  0  0
   18.3894   -4.9948  -14.2012 C   0  0  2  0  0  0  0  0  0  0  0  0
   17.7389   -4.3390  -15.2801 N   0  0  0  0  0  0  0  0  0  0  0  0
   17.6679   -4.9155  -12.8904 C   0  0  0  0  0  0  0  0  0  0  0  0
   17.1572   -3.8521  -12.4674 O   0  0  0  0  0  0  0  0  0  0  0  0
   13.0013  -11.0812   -8.3820 N   0  0  0  0  0  0  0  0  0  0  0  0
   12.4537   -9.7739   -8.1500 C   0  0  0  0  0  0  0  0  0  0  0  0
   11.2483   -9.6927   -7.7381 N   0  0  0  0  0  0  0  0  0  0  0  0
   13.2217   -8.6165   -8.3695 N   0  0  0  0  0  0  0  0  0  0  0  0
   14.1890   -8.5717   -9.4296 C   0  0  0  0  0  0  0  0  0  0  0  0
   14.9210   -7.2505   -9.5180 C   0  0  0  0  0  0  0  0  0  0  0  0
   15.8549   -7.2696  -10.7042 C   0  0  0  0  0  0  0  0  0  0  0  0
   16.6473   -6.0053  -10.8593 C   0  0  2  0  0  0  0  0  0  0  0  0
   17.5095   -6.0480  -12.0300 N   0  0  0  0  0  0  0  0  0  0  0  0
   17.4413   -5.7007   -9.6623 C   0  0  0  0  0  0  0  0  0  0  0  0
   16.8321   -5.1998   -8.5229 O   0  0  0  0  0  0  0  0  0  0  0  0
   18.6775   -5.8948   -9.6715 O   0  0  0  0  0  0  0  0  0  0  0  0
  2  1  1  0
  3  2  1  0
  3  4  1  6
  5  3  1  0
  6  5  2  0
  7  8  1  0
  8 10  1  0
  9  8  2  0
 10 11  1  0
 12 11  1  1
 12 13  1  0
 13  5  1  0
 14 15  2  0
 14 12  1  0
 17 16  1  0
 17 19  1  0
 18 17  2  0
 20 19  1  0
 21 22  1  0
 21 20  1  0
 23 22  1  1
 23 24  1  0
 24 14  1  0
 25 23  1  0
 26 25  1  0
 27 25  2  0
M  END
$$$$
