SQR.pdb
     RDKit          3D

 27 26  0  0  1  0  0  0  0  0999 V2000
   17.6775  -22.4911  -14.1159 O   0  0  0  0  0  0  0  0  0  0  0  0
   18.3868  -23.2770  -13.1909 C   0  0  0  0  0  0  0  0  0  0  0  0
   18.5363  -22.4967  -11.9061 C   0  0  2  0  0  0  0  0  0  0  0  0
   17.2939  -21.9031  -11.5301 N   0  0  0  0  0  0  0  0  0  0  0  0
   19.6151  -21.4624  -12.0915 C   0  0  0  0  0  0  0  0  0  0  0  0
   19.3296  -20.2535  -11.9914 O   0  0  0  0  0  0  0  0  0  0  0  0
   26.0130  -22.5892  -11.8058 N   0  0  0  0  0  0  0  0  0  0  0  0
   25.6847  -21.2755  -11.3826 C   0  0  0  0  0  0  0  0  0  0  0  0
   26.5577  -20.6222  -10.7748 O   0  0  0  0  0  0  0  0  0  0  0  0
   24.3653  -20.7217  -11.6585 C   0  0  0  0  0  0  0  0  0  0  0  0
   23.3818  -21.6276  -12.3124 C   0  0  0  0  0  0  0  0  0  0  0  0
   22.0683  -21.0152  -12.6190 C   0  0  2  0  0  0  0  0  0  0  0  0
   20.9445  -21.8493  -12.3772 N   0  0  0  0  0  0  0  0  0  0  0  0
   22.0757  -20.3428  -13.9579 C   0  0  0  0  0  0  0  0  0  0  0  0
   21.6360  -20.8983  -14.9917 O   0  0  0  0  0  0  0  0  0  0  0  0
   27.6939  -14.6368  -17.2684 N   0  0  0  0  0  0  0  0  0  0  0  0
   27.5781  -16.0536  -17.4746 C   0  0  0  0  0  0  0  0  0  0  0  0
   28.6399  -16.7100  -17.7408 N   0  0  0  0  0  0  0  0  0  0  0  0
   26.3324  -16.6999  -17.3858 N   0  0  0  0  0  0  0  0  0  0  0  0
   25.1531  -15.9665  -17.0208 C   0  0  0  0  0  0  0  0  0  0  0  0
   23.9085  -16.8245  -16.9591 C   0  0  0  0  0  0  0  0  0  0  0  0
   23.8303  -17.5039  -15.6130 C   0  0  0  0  0  0  0  0  0  0  0  0
   22.6396  -18.4047  -15.4681 C   0  0  2  0  0  0  0  0  0  0  0  0
   22.5834  -19.0187  -14.1508 N   0  0  0  0  0  0  0  0  0  0  0  0
   22.6017  -19.4416  -16.5070 C   0  0  0  0  0  0  0  0  0  0  0  0
   21.6660  -19.3812  -17.5274 O   0  0  0  0  0  0  0  0  0  0  0  0
   23.4208  -20.3871  -16.4704 O   0  0  0  0  0  0  0  0  0  0  0  0
  2  1  1  0
  3  2  1  0
  3  4  1  6
  5  3  1  0
  6  5  2  0
  7  8  1  0
  8 10  1  0
  9  8  2  0
 10 11  1  0
 12 11  1  6
 12 13  1  0
 13  5  1  0
 14 15  2  0
 14 12  1  0
 17 16  1  0
 17 19  1  0
 18 17  2  0
 20 19  1  0
 21 22  1  0
 21 20  1  0
 23 22  1  1
 23 24  1  0
 24 14  1  0
 25 23  1  0
 26 25  1  0
 27 25  2  0
M  END
$$$$
