SQR.pdb
     RDKit          3D

 27 26  0  0  1  0  0  0  0  0999 V2000
   15.3839  -12.7348  -11.2416 O   0  0  0  0  0  0  0  0  0  0  0  0
   15.2442  -11.3493  -11.4345 C   0  0  0  0  0  0  0  0  0  0  0  0
   14.4336  -10.7805  -10.2937 C   0  0  2  0  0  0  0  0  0  0  0  0
   13.1007  -11.2901  -10.3200 N   0  0  0  0  0  0  0  0  0  0  0  0
   14.4580   -9.2775  -10.3857 C   0  0  0  0  0  0  0  0  0  0  0  0
   13.7238   -8.7016  -11.2116 O   0  0  0  0  0  0  0  0  0  0  0  0
   14.1636   -5.0968   -5.9222 N   0  0  0  0  0  0  0  0  0  0  0  0
   14.5700   -4.3270   -7.0424 C   0  0  0  0  0  0  0  0  0  0  0  0
   14.4647   -3.0853   -6.9671 O   0  0  0  0  0  0  0  0  0  0  0  0
   15.0928   -4.9816   -8.2346 C   0  0  0  0  0  0  0  0  0  0  0  0
   15.1453   -6.4690   -8.2137 C   0  0  0  0  0  0  0  0  0  0  0  0
   15.4670   -7.1062   -9.5117 C   0  0  2  0  0  0  0  0  0  0  0  0
   15.3036   -8.5167   -9.5464 N   0  0  0  0  0  0  0  0  0  0  0  0
   16.7713   -6.6108  -10.0578 C   0  0  0  0  0  0  0  0  0  0  0  0
   17.8647   -7.1621   -9.7910 O   0  0  0  0  0  0  0  0  0  0  0  0
   21.5450   -9.8769  -15.2372 N   0  0  0  0  0  0  0  0  0  0  0  0
   20.7464   -9.7645  -14.0486 C   0  0  0  0  0  0  0  0  0  0  0  0
   20.2979  -10.8378  -13.5233 N   0  0  0  0  0  0  0  0  0  0  0  0
   20.4662   -8.5096  -13.4793 N   0  0  0  0  0  0  0  0  0  0  0  0
   19.8640   -7.4691  -14.2644 C   0  0  0  0  0  0  0  0  0  0  0  0
   19.5826   -6.2092  -13.4753 C   0  0  0  0  0  0  0  0  0  0  0  0
   18.3737   -6.4238  -12.5966 C   0  0  0  0  0  0  0  0  0  0  0  0
   18.0327   -5.2330  -11.7505 C   0  0  2  0  0  0  0  0  0  0  0  0
   16.8607   -5.4749  -10.9238 N   0  0  0  0  0  0  0  0  0  0  0  0
   17.8371   -4.0210  -12.5559 C   0  0  0  0  0  0  0  0  0  0  0  0
   18.9137   -3.4067  -13.1754 O   0  0  0  0  0  0  0  0  0  0  0  0
   16.6892   -3.5391  -12.6835 O   0  0  0  0  0  0  0  0  0  0  0  0
  2  1  1  0
  3  2  1  0
  3  4  1  6
  5  3  1  0
  6  5  2  0
  7  8  1  0
  8 10  1  0
  9  8  2  0
 10 11  1  0
 12 11  1  1
 12 13  1  0
 13  5  1  0
 14 15  2  0
 14 12  1  0
 17 16  1  0
 17 19  1  0
 18 17  2  0
 20 19  1  0
 21 22  1  0
 21 20  1  0
 23 22  1  6
 23 24  1  0
 24 14  1  0
 25 23  1  0
 26 25  1  0
 27 25  2  0
M  END
$$$$
