SQR.pdb
     RDKit          3D

 27 26  0  0  1  0  0  0  0  0999 V2000
   27.0083  -26.6202  -17.0457 O   0  0  0  0  0  0  0  0  0  0  0  0
   27.9999  -26.3052  -17.9911 C   0  0  0  0  0  0  0  0  0  0  0  0
   29.1482  -25.6271  -17.2814 C   0  0  2  0  0  0  0  0  0  0  0  0
   29.6791  -26.4725  -16.2612 N   0  0  0  0  0  0  0  0  0  0  0  0
   28.6639  -24.3152  -16.7226 C   0  0  0  0  0  0  0  0  0  0  0  0
   28.5721  -24.1707  -15.4883 O   0  0  0  0  0  0  0  0  0  0  0  0
   29.2818  -18.5392  -19.3917 N   0  0  0  0  0  0  0  0  0  0  0  0
   28.3446  -18.3525  -18.3430 C   0  0  0  0  0  0  0  0  0  0  0  0
   27.9896  -17.1855  -18.0777 O   0  0  0  0  0  0  0  0  0  0  0  0
   27.8224  -19.4986  -17.6101 C   0  0  0  0  0  0  0  0  0  0  0  0
   28.3487  -20.8366  -17.9953 C   0  0  0  0  0  0  0  0  0  0  0  0
   27.7877  -21.9771  -17.2344 C   0  0  2  0  0  0  0  0  0  0  0  0
   28.3134  -23.2496  -17.5829 N   0  0  0  0  0  0  0  0  0  0  0  0
   26.2923  -21.9109  -17.1697 C   0  0  0  0  0  0  0  0  0  0  0  0
   25.5608  -22.2986  -18.1107 O   0  0  0  0  0  0  0  0  0  0  0  0
   19.3639  -22.0664  -12.1252 N   0  0  0  0  0  0  0  0  0  0  0  0
   19.3319  -23.0209  -13.1980 C   0  0  0  0  0  0  0  0  0  0  0  0
   18.6203  -24.0697  -13.0470 N   0  0  0  0  0  0  0  0  0  0  0  0
   20.0623  -22.8075  -14.3805 N   0  0  0  0  0  0  0  0  0  0  0  0
   21.4971  -22.8640  -14.3734 C   0  0  0  0  0  0  0  0  0  0  0  0
   22.1510  -21.5006  -14.4258 C   0  0  0  0  0  0  0  0  0  0  0  0
   23.6450  -21.6631  -14.5720 C   0  0  0  0  0  0  0  0  0  0  0  0
   24.1406  -21.3943  -15.9621 C   0  0  2  0  0  0  0  0  0  0  0  0
   25.5936  -21.4024  -16.0290 N   0  0  0  0  0  0  0  0  0  0  0  0
   23.6206  -20.1306  -16.4992 C   0  0  0  0  0  0  0  0  0  0  0  0
   24.4569  -19.0372  -16.6592 O   0  0  0  0  0  0  0  0  0  0  0  0
   22.4130  -20.0404  -16.8148 O   0  0  0  0  0  0  0  0  0  0  0  0
  2  1  1  0
  3  2  1  0
  3  4  1  1
  5  3  1  0
  6  5  2  0
  7  8  1  0
  8 10  1  0
  9  8  2  0
 10 11  1  0
 12 11  1  6
 12 13  1  0
 13  5  1  0
 14 15  2  0
 14 12  1  0
 17 16  1  0
 17 19  1  0
 18 17  2  0
 20 19  1  0
 21 22  1  0
 21 20  1  0
 23 22  1  1
 23 24  1  0
 24 14  1  0
 25 23  1  0
 26 25  1  0
 27 25  2  0
M  END
$$$$
