SQR.pdb
     RDKit          3D

 27 26  0  0  1  0  0  0  0  0999 V2000
   25.6023  -25.0814  -17.6223 O   0  0  0  0  0  0  0  0  0  0  0  0
   26.8830  -24.5307  -17.8034 C   0  0  0  0  0  0  0  0  0  0  0  0
   27.6583  -24.6729  -16.5147 C   0  0  2  0  0  0  0  0  0  0  0  0
   27.8706  -26.0497  -16.2042 N   0  0  0  0  0  0  0  0  0  0  0  0
   26.9080  -23.9633  -15.4185 C   0  0  0  0  0  0  0  0  0  0  0  0
   27.0216  -24.3586  -14.2422 O   0  0  0  0  0  0  0  0  0  0  0  0
   29.9702  -20.8577  -13.1141 N   0  0  0  0  0  0  0  0  0  0  0  0
   28.6817  -20.7508  -12.5301 C   0  0  0  0  0  0  0  0  0  0  0  0
   28.5541  -20.0200  -11.5260 O   0  0  0  0  0  0  0  0  0  0  0  0
   27.5536  -21.4774  -13.0984 C   0  0  0  0  0  0  0  0  0  0  0  0
   27.0617  -21.0188  -14.4262 C   0  0  0  0  0  0  0  0  0  0  0  0
   25.8428  -21.7027  -14.9170 C   0  0  2  0  0  0  0  0  0  0  0  0
   26.0787  -22.8565  -15.7110 N   0  0  0  0  0  0  0  0  0  0  0  0
   24.8638  -20.7288  -15.4984 C   0  0  0  0  0  0  0  0  0  0  0  0
   25.0982  -20.0854  -16.5480 O   0  0  0  0  0  0  0  0  0  0  0  0
   16.4040  -18.9880  -13.4780 N   0  0  0  0  0  0  0  0  0  0  0  0
   16.6299  -18.9456  -14.8958 C   0  0  0  0  0  0  0  0  0  0  0  0
   15.6191  -19.0512  -15.6680 N   0  0  0  0  0  0  0  0  0  0  0  0
   17.9260  -18.7921  -15.4193 N   0  0  0  0  0  0  0  0  0  0  0  0
   19.0514  -18.6180  -14.5448 C   0  0  0  0  0  0  0  0  0  0  0  0
   20.3674  -18.4871  -15.2797 C   0  0  0  0  0  0  0  0  0  0  0  0
   21.3505  -19.4967  -14.7377 C   0  0  0  0  0  0  0  0  0  0  0  0
   22.6643  -19.4976  -15.4617 C   0  0  2  0  0  0  0  0  0  0  0  0
   23.5917  -20.4658  -14.8977 N   0  0  0  0  0  0  0  0  0  0  0  0
   23.2825  -18.1660  -15.4861 C   0  0  0  0  0  0  0  0  0  0  0  0
   23.0507  -17.3021  -16.5446 O   0  0  0  0  0  0  0  0  0  0  0  0
   24.0244  -17.8087  -14.5438 O   0  0  0  0  0  0  0  0  0  0  0  0
  2  1  1  0
  3  2  1  0
  3  4  1  1
  5  3  1  0
  6  5  2  0
  7  8  1  0
  8 10  1  0
  9  8  2  0
 10 11  1  0
 12 11  1  6
 12 13  1  0
 13  5  1  0
 14 15  2  0
 14 12  1  0
 17 16  1  0
 17 19  1  0
 18 17  2  0
 20 19  1  0
 21 22  1  0
 21 20  1  0
 23 22  1  1
 23 24  1  0
 24 14  1  0
 25 23  1  0
 26 25  1  0
 27 25  2  0
M  END
$$$$
