SQR.pdb
     RDKit          3D

 27 26  0  0  1  0  0  0  0  0999 V2000
   21.0217   -6.4640  -15.9733 O   0  0  0  0  0  0  0  0  0  0  0  0
   19.7670   -6.4774  -15.3392 C   0  0  0  0  0  0  0  0  0  0  0  0
   18.9645   -7.6385  -15.8775 C   0  0  2  0  0  0  0  0  0  0  0  0
   18.6384   -7.4310  -17.2515 N   0  0  0  0  0  0  0  0  0  0  0  0
   17.7305   -7.8070  -15.0308 C   0  0  0  0  0  0  0  0  0  0  0  0
   16.6917   -7.1874  -15.3303 O   0  0  0  0  0  0  0  0  0  0  0  0
   15.0285  -12.1481   -9.7108 N   0  0  0  0  0  0  0  0  0  0  0  0
   15.3675  -11.9669  -11.0764 C   0  0  0  0  0  0  0  0  0  0  0  0
   15.6070  -12.9844  -11.7590 O   0  0  0  0  0  0  0  0  0  0  0  0
   15.4284  -10.6279  -11.6481 C   0  0  0  0  0  0  0  0  0  0  0  0
   16.5923  -10.3262  -12.5253 C   0  0  0  0  0  0  0  0  0  0  0  0
   16.6811   -8.9238  -12.9941 C   0  0  2  0  0  0  0  0  0  0  0  0
   17.7401   -8.6590  -13.9027 N   0  0  0  0  0  0  0  0  0  0  0  0
   16.5736   -7.9567  -11.8548 C   0  0  0  0  0  0  0  0  0  0  0  0
   17.5802   -7.4800  -11.2803 O   0  0  0  0  0  0  0  0  0  0  0  0
    9.6086   -5.0349   -7.0048 N   0  0  0  0  0  0  0  0  0  0  0  0
   10.7796   -4.6058   -6.2922 C   0  0  0  0  0  0  0  0  0  0  0  0
   10.6235   -4.1012   -5.1302 N   0  0  0  0  0  0  0  0  0  0  0  0
   12.0608   -4.7373   -6.8566 N   0  0  0  0  0  0  0  0  0  0  0  0
   12.2851   -5.6278   -7.9604 C   0  0  0  0  0  0  0  0  0  0  0  0
   13.6983   -5.5724   -8.4980 C   0  0  0  0  0  0  0  0  0  0  0  0
   13.8427   -6.5506   -9.6389 C   0  0  0  0  0  0  0  0  0  0  0  0
   15.2285   -6.5987  -10.2111 C   0  0  2  0  0  0  0  0  0  0  0  0
   15.3146   -7.5075  -11.3435 N   0  0  0  0  0  0  0  0  0  0  0  0
   16.2310   -6.9595   -9.2009 C   0  0  0  0  0  0  0  0  0  0  0  0
   16.9521   -5.9759   -8.5428 O   0  0  0  0  0  0  0  0  0  0  0  0
   16.4359   -8.1645   -8.9323 O   0  0  0  0  0  0  0  0  0  0  0  0
  2  1  1  0
  3  2  1  0
  3  4  1  6
  5  3  1  0
  6  5  2  0
  7  8  1  0
  8 10  1  0
  9  8  2  0
 10 11  1  0
 12 11  1  1
 12 13  1  0
 13  5  1  0
 14 15  2  0
 14 12  1  0
 17 16  1  0
 17 19  1  0
 18 17  2  0
 20 19  1  0
 21 22  1  0
 21 20  1  0
 23 22  1  1
 23 24  1  0
 24 14  1  0
 25 23  1  0
 26 25  1  0
 27 25  2  0
M  END
$$$$
