CST.pdb
     RDKit          3D

 20 19  0  0  1  0  0  0  0  0999 V2000
   17.6363  -12.7154  -16.7165 N   0  0  0  0  0  0  0  0  0  0  0  0
   17.1825  -11.5169  -16.0970 C   0  0  1  0  0  0  0  0  0  0  0  0
   17.1457  -11.7530  -14.5858 C   0  0  0  0  0  0  0  0  0  0  0  0
   15.7885  -12.8828  -14.1603 S   0  0  0  0  0  0  0  0  0  0  0  0
   18.0478  -10.3487  -16.3135 C   0  0  0  0  0  0  0  0  0  0  0  0
   19.2820  -10.5608  -16.4651 O   0  0  0  0  0  0  0  0  0  0  0  0
   16.3966   -6.7730  -16.9945 O   0  0  0  0  0  0  0  0  0  0  0  0
   17.5683   -7.0553  -17.7248 C   0  0  0  0  0  0  0  0  0  0  0  0
   18.4488   -7.9027  -16.7975 C   0  0  2  0  0  0  0  0  0  0  0  0
   17.6169   -9.0089  -16.3667 N   0  0  0  0  0  0  0  0  0  0  0  0
   18.9451   -7.1014  -15.6619 C   0  0  0  0  0  0  0  0  0  0  0  0
   18.2726   -7.0994  -14.6016 O   0  0  0  0  0  0  0  0  0  0  0  0
   22.5841   -4.4736  -13.6947 C   0  0  0  0  0  0  0  0  0  0  0  0
   22.1335   -5.3492  -14.8296 C   0  0  1  0  0  0  0  0  0  0  0  0
   22.7567   -6.5869  -14.6916 O   0  0  0  0  0  0  0  0  0  0  0  0
   20.6276   -5.4896  -14.7615 C   0  0  2  0  0  0  0  0  0  0  0  0
   20.1540   -6.3788  -15.8329 N   0  0  0  0  0  0  0  0  0  0  0  0
   19.9472   -4.1812  -14.8904 C   0  0  0  0  0  0  0  0  0  0  0  0
   19.4828   -3.5055  -13.7706 O   0  0  0  0  0  0  0  0  0  0  0  0
   19.7537   -3.6150  -16.0044 O   0  0  0  0  0  0  0  0  0  0  0  0
  2  5  1  0
  2  1  1  6
  3  2  1  0
  4  3  1  0
  5  6  2  0
  7  8  1  0
  9  8  1  6
 10  9  1  0
 10  5  1  0
 11  9  1  0
 12 11  2  0
 14 13  1  1
 14 15  1  0
 14 16  1  0
 16 18  1  0
 16 17  1  6
 17 11  1  0
 18 19  1  0
 20 18  2  0
M  END
$$$$
