CST.pdb
     RDKit          3D

 20 19  0  0  1  0  0  0  0  0999 V2000
   19.2240  -22.8433  -10.2119 N   0  0  0  0  0  0  0  0  0  0  0  0
   19.9214  -23.1042  -11.4250 C   0  0  1  0  0  0  0  0  0  0  0  0
   18.9234  -23.6917  -12.4247 C   0  0  0  0  0  0  0  0  0  0  0  0
   18.6825  -25.4631  -12.1031 S   0  0  0  0  0  0  0  0  0  0  0  0
   20.5013  -21.9161  -12.0670 C   0  0  0  0  0  0  0  0  0  0  0  0
   19.8696  -20.8299  -11.9560 O   0  0  0  0  0  0  0  0  0  0  0  0
   24.2752  -19.7340  -14.0886 O   0  0  0  0  0  0  0  0  0  0  0  0
   23.7397  -20.9380  -13.5891 C   0  0  0  0  0  0  0  0  0  0  0  0
   22.2300  -20.7028  -13.4520 C   0  0  2  0  0  0  0  0  0  0  0  0
   21.7049  -21.8851  -12.7978 N   0  0  0  0  0  0  0  0  0  0  0  0
   21.6090  -20.4716  -14.7706 C   0  0  0  0  0  0  0  0  0  0  0  0
   21.5540  -21.4342  -15.5749 O   0  0  0  0  0  0  0  0  0  0  0  0
   18.1819  -19.3576  -15.4906 C   0  0  0  0  0  0  0  0  0  0  0  0
   19.0721  -18.3103  -16.0977 C   0  0  1  0  0  0  0  0  0  0  0  0
   19.1509  -17.2434  -15.2061 O   0  0  0  0  0  0  0  0  0  0  0  0
   20.4376  -18.9186  -16.3377 C   0  0  2  0  0  0  0  0  0  0  0  0
   21.1094  -19.1744  -15.0547 N   0  0  0  0  0  0  0  0  0  0  0  0
   21.2960  -18.0356  -17.1591 C   0  0  0  0  0  0  0  0  0  0  0  0
   20.9611  -17.7360  -18.4723 O   0  0  0  0  0  0  0  0  0  0  0  0
   22.3616  -17.5139  -16.7217 O   0  0  0  0  0  0  0  0  0  0  0  0
  2  5  1  0
  2  1  1  1
  3  2  1  0
  4  3  1  0
  5  6  2  0
  7  8  1  0
  9  8  1  6
 10  9  1  0
 10  5  1  0
 11  9  1  0
 12 11  2  0
 14 13  1  1
 14 15  1  0
 14 16  1  0
 16 18  1  0
 16 17  1  1
 17 11  1  0
 18 19  1  0
 20 18  2  0
M  END
$$$$
