CST.pdb
     RDKit          3D

 20 19  0  0  1  0  0  0  0  0999 V2000
   14.8505  -11.1782  -12.2695 N   0  0  0  0  0  0  0  0  0  0  0  0
   15.2497   -9.8312  -12.0414 C   0  0  1  0  0  0  0  0  0  0  0  0
   15.9080   -9.7624  -10.6621 C   0  0  0  0  0  0  0  0  0  0  0  0
   14.6395   -9.7349   -9.3623 S   0  0  0  0  0  0  0  0  0  0  0  0
   16.2375   -9.3136  -12.9989 C   0  0  0  0  0  0  0  0  0  0  0  0
   16.9283  -10.1573  -13.6331 O   0  0  0  0  0  0  0  0  0  0  0  0
   15.7773   -5.7447  -14.3994 O   0  0  0  0  0  0  0  0  0  0  0  0
   16.4921   -6.6197  -15.2416 C   0  0  0  0  0  0  0  0  0  0  0  0
   17.3647   -7.4767  -14.3155 C   0  0  2  0  0  0  0  0  0  0  0  0
   16.4803   -7.9531  -13.2704 N   0  0  0  0  0  0  0  0  0  0  0  0
   18.4935   -6.6927  -13.7779 C   0  0  0  0  0  0  0  0  0  0  0  0
   18.3876   -6.2231  -12.6183 O   0  0  0  0  0  0  0  0  0  0  0  0
   23.2170   -5.5933  -13.9505 C   0  0  0  0  0  0  0  0  0  0  0  0
   22.0763   -6.3946  -14.5112 C   0  0  1  0  0  0  0  0  0  0  0  0
   22.1627   -7.6852  -13.9952 O   0  0  0  0  0  0  0  0  0  0  0  0
   20.7767   -5.7334  -14.1038 C   0  0  2  0  0  0  0  0  0  0  0  0
   19.6345   -6.5143  -14.6021 N   0  0  0  0  0  0  0  0  0  0  0  0
   20.6756   -4.3519  -14.6259 C   0  0  0  0  0  0  0  0  0  0  0  0
   21.0054   -3.2631  -13.8310 O   0  0  0  0  0  0  0  0  0  0  0  0
   20.2912   -4.0889  -15.8016 O   0  0  0  0  0  0  0  0  0  0  0  0
  2  5  1  0
  2  1  1  6
  3  2  1  0
  4  3  1  0
  5  6  2  0
  7  8  1  0
  9  8  1  6
 10  9  1  0
 10  5  1  0
 11  9  1  0
 12 11  2  0
 14 13  1  1
 14 15  1  0
 14 16  1  0
 16 18  1  0
 16 17  1  6
 17 11  1  0
 18 19  1  0
 20 18  2  0
M  END
$$$$
