CST.pdb
     RDKit          3D

 20 19  0  0  1  0  0  0  0  0999 V2000
   18.5989  -13.6536  -15.7578 N   0  0  0  0  0  0  0  0  0  0  0  0
   18.4615  -12.4290  -16.4701 C   0  0  1  0  0  0  0  0  0  0  0  0
   17.1655  -12.4984  -17.2802 C   0  0  0  0  0  0  0  0  0  0  0  0
   17.3745  -13.6065  -18.7042 S   0  0  0  0  0  0  0  0  0  0  0  0
   18.3567  -11.2338  -15.6211 C   0  0  0  0  0  0  0  0  0  0  0  0
   17.6658  -11.3275  -14.5698 O   0  0  0  0  0  0  0  0  0  0  0  0
   21.1971   -8.8395  -15.1704 O   0  0  0  0  0  0  0  0  0  0  0  0
   20.1616   -8.7821  -14.2163 C   0  0  0  0  0  0  0  0  0  0  0  0
   18.8515   -8.8331  -15.0128 C   0  0  2  0  0  0  0  0  0  0  0  0
   18.9626   -9.9891  -15.8804 N   0  0  0  0  0  0  0  0  0  0  0  0
   18.6445   -7.5837  -15.7705 C   0  0  0  0  0  0  0  0  0  0  0  0
   19.0765   -7.5283  -16.9481 O   0  0  0  0  0  0  0  0  0  0  0  0
   16.3670   -3.2318  -15.9943 C   0  0  0  0  0  0  0  0  0  0  0  0
   16.5994   -4.4905  -15.2073 C   0  0  1  0  0  0  0  0  0  0  0  0
   15.4209   -5.2321  -15.2242 O   0  0  0  0  0  0  0  0  0  0  0  0
   17.7333   -5.2593  -15.8518 C   0  0  2  0  0  0  0  0  0  0  0  0
   17.9690   -6.5160  -15.1251 N   0  0  0  0  0  0  0  0  0  0  0  0
   18.9886   -4.4749  -15.8701 C   0  0  0  0  0  0  0  0  0  0  0  0
   19.8677   -4.5108  -14.7967 O   0  0  0  0  0  0  0  0  0  0  0  0
   19.3260   -3.7421  -16.8438 O   0  0  0  0  0  0  0  0  0  0  0  0
  2  5  1  0
  2  1  1  1
  3  2  1  0
  4  3  1  0
  5  6  2  0
  7  8  1  0
  9  8  1  6
 10  9  1  0
 10  5  1  0
 11  9  1  0
 12 11  2  0
 14 13  1  6
 14 15  1  0
 14 16  1  0
 16 18  1  0
 16 17  1  1
 17 11  1  0
 18 19  1  0
 20 18  2  0
M  END
$$$$
