CST.pdb
     RDKit          3D

 20 19  0  0  1  0  0  0  0  0999 V2000
   17.5644  -11.8013  -15.4633 N   0  0  0  0  0  0  0  0  0  0  0  0
   18.0200  -10.6609  -16.1830 C   0  0  1  0  0  0  0  0  0  0  0  0
   16.8156  -10.0415  -16.8946 C   0  0  0  0  0  0  0  0  0  0  0  0
   16.3783  -11.0241  -18.3584 S   0  0  0  0  0  0  0  0  0  0  0  0
   18.5994   -9.5995  -15.3476 C   0  0  0  0  0  0  0  0  0  0  0  0
   18.1969   -9.5146  -14.1552 O   0  0  0  0  0  0  0  0  0  0  0  0
   22.2355   -8.9701  -15.3374 O   0  0  0  0  0  0  0  0  0  0  0  0
   21.4100   -8.5928  -14.2594 C   0  0  0  0  0  0  0  0  0  0  0  0
   20.2705   -7.7670  -14.8701 C   0  0  2  0  0  0  0  0  0  0  0  0
   19.5681   -8.6660  -15.7646 N   0  0  0  0  0  0  0  0  0  0  0  0
   20.7953   -6.5790  -15.5708 C   0  0  0  0  0  0  0  0  0  0  0  0
   21.4044   -6.7532  -16.6548 O   0  0  0  0  0  0  0  0  0  0  0  0
   18.6815   -3.6204  -16.4160 C   0  0  0  0  0  0  0  0  0  0  0  0
   19.8597   -3.0714  -15.6621 C   0  0  1  0  0  0  0  0  0  0  0  0
   19.4567   -2.8292  -14.3513 O   0  0  0  0  0  0  0  0  0  0  0  0
   20.9777   -4.0914  -15.7062 C   0  0  2  0  0  0  0  0  0  0  0  0
   20.5816   -5.3071  -14.9795 N   0  0  0  0  0  0  0  0  0  0  0  0
   22.2265   -3.5641  -15.1112 C   0  0  0  0  0  0  0  0  0  0  0  0
   22.9604   -2.5761  -15.7525 O   0  0  0  0  0  0  0  0  0  0  0  0
   22.6874   -3.9744  -14.0074 O   0  0  0  0  0  0  0  0  0  0  0  0
  2  5  1  0
  2  1  1  1
  3  2  1  0
  4  3  1  0
  5  6  2  0
  7  8  1  0
  9  8  1  6
 10  9  1  0
 10  5  1  0
 11  9  1  0
 12 11  2  0
 14 13  1  6
 14 15  1  0
 14 16  1  0
 16 18  1  0
 16 17  1  1
 17 11  1  0
 18 19  1  0
 20 18  2  0
M  END
$$$$
