CST.pdb
     RDKit          3D

 20 19  0  0  1  0  0  0  0  0999 V2000
   18.3142  -13.2509  -15.4314 N   0  0  0  0  0  0  0  0  0  0  0  0
   18.4247  -12.1312  -16.3032 C   0  0  1  0  0  0  0  0  0  0  0  0
   17.1181  -12.0173  -17.0910 C   0  0  0  0  0  0  0  0  0  0  0  0
   17.0103  -13.3479  -18.3229 S   0  0  0  0  0  0  0  0  0  0  0  0
   18.6137  -10.8414  -15.6243 C   0  0  0  0  0  0  0  0  0  0  0  0
   17.8836  -10.5994  -14.6245 O   0  0  0  0  0  0  0  0  0  0  0  0
   21.9711   -8.9946  -15.8203 O   0  0  0  0  0  0  0  0  0  0  0  0
   21.1474   -8.6189  -14.7403 C   0  0  0  0  0  0  0  0  0  0  0  0
   19.7159   -8.5936  -15.2910 C   0  0  2  0  0  0  0  0  0  0  0  0
   19.5422   -9.8492  -15.9945 N   0  0  0  0  0  0  0  0  0  0  0  0
   19.5084   -7.4270  -16.1707 C   0  0  0  0  0  0  0  0  0  0  0  0
   19.8195   -7.5375  -17.3820 O   0  0  0  0  0  0  0  0  0  0  0  0
   16.2634   -5.2213  -16.1003 C   0  0  0  0  0  0  0  0  0  0  0  0
   17.4710   -4.3423  -15.9361 C   0  0  1  0  0  0  0  0  0  0  0  0
   17.6080   -4.0483  -14.5818 O   0  0  0  0  0  0  0  0  0  0  0  0
   18.6830   -5.0866  -16.4549 C   0  0  2  0  0  0  0  0  0  0  0  0
   18.9689   -6.2466  -15.5974 N   0  0  0  0  0  0  0  0  0  0  0  0
   19.8820   -4.2196  -16.5018 C   0  0  0  0  0  0  0  0  0  0  0  0
   20.9826   -4.4804  -15.6975 O   0  0  0  0  0  0  0  0  0  0  0  0
   19.9714   -3.2123  -17.2610 O   0  0  0  0  0  0  0  0  0  0  0  0
  2  5  1  0
  2  1  1  1
  3  2  1  0
  4  3  1  0
  5  6  2  0
  7  8  1  0
  9  8  1  6
 10  9  1  0
 10  5  1  0
 11  9  1  0
 12 11  2  0
 14 13  1  1
 14 15  1  0
 14 16  1  0
 16 18  1  0
 16 17  1  1
 17 11  1  0
 18 19  1  0
 20 18  2  0
M  END
$$$$
