CST.pdb
     RDKit          3D

 20 19  0  0  1  0  0  0  0  0999 V2000
   21.6249  -14.2319  -19.4336 N   0  0  0  0  0  0  0  0  0  0  0  0
   21.6230  -12.8121  -19.5339 C   0  0  1  0  0  0  0  0  0  0  0  0
   20.4108  -12.4009  -20.3718 C   0  0  0  0  0  0  0  0  0  0  0  0
   20.7826  -12.5765  -22.1411 S   0  0  0  0  0  0  0  0  0  0  0  0
   21.4989  -12.1066  -18.2505 C   0  0  0  0  0  0  0  0  0  0  0  0
   20.5329  -12.4248  -17.5044 O   0  0  0  0  0  0  0  0  0  0  0  0
   23.8183  -11.7693  -15.2957 O   0  0  0  0  0  0  0  0  0  0  0  0
   23.6675  -10.4963  -15.8811 C   0  0  0  0  0  0  0  0  0  0  0  0
   22.2552  -10.4724  -16.4796 C   0  0  2  0  0  0  0  0  0  0  0  0
   22.3678  -11.1029  -17.7802 N   0  0  0  0  0  0  0  0  0  0  0  0
   21.7429   -9.0915  -16.5707 C   0  0  0  0  0  0  0  0  0  0  0  0
   22.2165   -8.3429  -17.4605 O   0  0  0  0  0  0  0  0  0  0  0  0
   18.1897   -8.0150  -17.0184 C   0  0  0  0  0  0  0  0  0  0  0  0
   18.6560   -7.4156  -15.7218 C   0  0  1  0  0  0  0  0  0  0  0  0
   18.2125   -8.2334  -14.6857 O   0  0  0  0  0  0  0  0  0  0  0  0
   20.1679   -7.3383  -15.7428 C   0  0  2  0  0  0  0  0  0  0  0  0
   20.7441   -8.6880  -15.6473 N   0  0  0  0  0  0  0  0  0  0  0  0
   20.6917   -6.5149  -14.6296 C   0  0  0  0  0  0  0  0  0  0  0  0
   20.4274   -5.1541  -14.5635 O   0  0  0  0  0  0  0  0  0  0  0  0
   21.3954   -6.9933  -13.6942 O   0  0  0  0  0  0  0  0  0  0  0  0
  2  5  1  0
  2  1  1  1
  3  2  1  0
  4  3  1  0
  5  6  2  0
  7  8  1  0
  9  8  1  6
 10  9  1  0
 10  5  1  0
 11  9  1  0
 12 11  2  0
 14 13  1  6
 14 15  1  0
 14 16  1  0
 16 18  1  0
 16 17  1  1
 17 11  1  0
 18 19  1  0
 20 18  2  0
M  END
$$$$
