CST.pdb
     RDKit          3D

 20 19  0  0  1  0  0  0  0  0999 V2000
   19.8264  -14.2121  -18.4266 N   0  0  0  0  0  0  0  0  0  0  0  0
   20.0684  -13.4611  -17.2420 C   0  0  1  0  0  0  0  0  0  0  0  0
   21.4016  -13.9268  -16.6535 C   0  0  0  0  0  0  0  0  0  0  0  0
   21.1805  -15.4938  -15.7618 S   0  0  0  0  0  0  0  0  0  0  0  0
   20.1901  -12.0111  -17.4490 C   0  0  0  0  0  0  0  0  0  0  0  0
   20.8454  -11.6213  -18.4539 O   0  0  0  0  0  0  0  0  0  0  0  0
   18.3086   -7.7131  -17.1194 O   0  0  0  0  0  0  0  0  0  0  0  0
   18.2532   -9.0911  -16.8295 C   0  0  0  0  0  0  0  0  0  0  0  0
   19.7003   -9.5951  -16.8999 C   0  0  2  0  0  0  0  0  0  0  0  0
   19.6367  -11.0160  -16.6200 N   0  0  0  0  0  0  0  0  0  0  0  0
   20.5585   -8.8743  -15.9398 C   0  0  0  0  0  0  0  0  0  0  0  0
   20.5947   -9.2866  -14.7544 O   0  0  0  0  0  0  0  0  0  0  0  0
   23.8384   -5.2557  -15.2356 C   0  0  0  0  0  0  0  0  0  0  0  0
   22.9992   -6.0117  -16.2266 C   0  0  1  0  0  0  0  0  0  0  0  0
   23.8573   -6.6999  -17.0805 O   0  0  0  0  0  0  0  0  0  0  0  0
   22.1045   -6.9696  -15.4689 C   0  0  2  0  0  0  0  0  0  0  0  0
   21.2940   -7.7562  -16.4109 N   0  0  0  0  0  0  0  0  0  0  0  0
   21.1997   -6.2575  -14.5386 C   0  0  0  0  0  0  0  0  0  0  0  0
   20.0927   -5.5658  -15.0099 O   0  0  0  0  0  0  0  0  0  0  0  0
   21.3789   -6.2382  -13.2869 O   0  0  0  0  0  0  0  0  0  0  0  0
  2  5  1  0
  2  1  1  6
  3  2  1  0
  4  3  1  0
  5  6  2  0
  7  8  1  0
  9  8  1  1
 10  9  1  0
 10  5  1  0
 11  9  1  0
 12 11  2  0
 14 13  1  1
 14 15  1  0
 14 16  1  0
 16 18  1  0
 16 17  1  6
 17 11  1  0
 18 19  1  0
 20 18  2  0
M  END
$$$$
