IRF.pdb
     RDKit          3D

 31 31  0  0  1  0  0  0  0  0999 V2000
   28.0900  -16.8748  -18.3424 C   0  0  0  0  0  0  0  0  0  0  0  0
   28.5128  -17.8357  -17.2612 C   0  0  0  0  0  0  0  0  0  0  0  0
   27.5588  -17.8258  -16.0928 C   0  0  2  0  0  0  0  0  0  0  0  0
   27.5593  -16.4667  -15.4876 C   0  0  0  0  0  0  0  0  0  0  0  0
   27.9164  -18.8762  -15.0682 C   0  0  2  0  0  0  0  0  0  0  0  0
   27.7955  -20.2145  -15.7166 N   0  0  0  0  0  0  0  0  0  0  0  0
   26.9678  -18.9372  -13.9364 C   0  0  0  0  0  0  0  0  0  0  0  0
   26.7217  -17.9310  -13.1907 O   0  0  0  0  0  0  0  0  0  0  0  0
   19.8196  -22.3548  -10.5580 N   0  0  0  0  0  0  0  0  0  0  0  0
   19.8756  -21.8225  -11.8753 C   0  0  0  0  0  0  0  0  0  0  0  0
   18.8848  -21.1498  -12.3522 N   0  0  0  0  0  0  0  0  0  0  0  0
   21.0051  -21.9960  -12.7248 N   0  0  0  0  0  0  0  0  0  0  0  0
   22.2601  -22.5155  -12.2424 C   0  0  0  0  0  0  0  0  0  0  0  0
   23.2338  -21.4150  -11.8931 C   0  0  0  0  0  0  0  0  0  0  0  0
   24.3127  -21.2745  -12.9479 C   0  0  0  0  0  0  0  0  0  0  0  0
   25.3414  -20.2418  -12.5388 C   0  0  2  0  0  0  0  0  0  0  0  0
   26.2875  -20.1260  -13.6373 N   0  0  0  0  0  0  0  0  0  0  0  0
   26.0450  -20.5759  -11.3138 C   0  0  0  0  0  0  0  0  0  0  0  0
   26.8399  -21.5662  -11.3206 O   0  0  0  0  0  0  0  0  0  0  0  0
   18.9241  -20.7808  -13.3287 N   0  0  0  0  0  0  0  0  0  0  0  0
   25.9031  -19.8600  -10.0869 C   0  0  2  0  0  0  0  0  0  0  0  0
   26.5998  -20.3315   -8.8989 C   0  0  0  0  0  0  0  0  0  0  0  0
   27.4022  -19.2275   -8.2705 C   0  0  0  0  0  0  0  0  0  0  0  0
   27.9913  -19.6377   -7.0017 C   0  0  0  0  0  0  0  0  0  0  0  0
   27.4630  -19.2599   -5.7662 C   0  0  0  0  0  0  0  0  0  0  0  0
   28.0205  -19.6510   -4.5842 C   0  0  0  0  0  0  0  0  0  0  0  0
   29.1440  -20.4463   -4.5551 C   0  0  0  0  0  0  0  0  0  0  0  0
   29.6889  -20.8353   -5.7451 C   0  0  0  0  0  0  0  0  0  0  0  0
   29.1297  -20.4430   -6.9451 C   0  0  0  0  0  0  0  0  0  0  0  0
   25.6633  -20.9520   -7.9506 O   0  0  0  0  0  0  0  0  0  0  0  0
   24.2896  -20.8537   -7.9752 O   0  0  0  0  0  0  0  0  0  0  0  0
  2  1  1  0
  3  2  1  0
  3  4  1  1
  5  3  1  0
  5  6  1  6
  7  5  1  0
  8  7  2  0
  9 10  1  0
 10 12  1  0
 11 10  2  0
 12 13  1  0
 13 14  1  0
 14 15  1  0
 16 15  1  6
 16 18  1  0
 16 17  1  0
 17  7  1  0
 18 19  2  0
 20 21  1  0
 20 18  1  0
 21 22  1  1
 22 23  1  0
 23 28  2  0
 24 23  1  0
 24 25  2  0
 25 26  1  0
 26 27  2  0
 28 27  1  0
 29 30  1  0
 29 21  1  0
 31 29  2  0
M  END
$$$$
