IRF.pdb
     RDKit          3D

 31 31  0  0  1  0  0  0  0  0999 V2000
   19.9751  -17.7996  -12.8787 C   0  0  0  0  0  0  0  0  0  0  0  0
   19.4453  -19.0462  -12.2182 C   0  0  0  0  0  0  0  0  0  0  0  0
   20.5543  -19.9086  -11.6688 C   0  0  2  0  0  0  0  0  0  0  0  0
   21.1338  -19.2374  -10.4743 C   0  0  0  0  0  0  0  0  0  0  0  0
   21.6172  -20.1830  -12.7062 C   0  0  2  0  0  0  0  0  0  0  0  0
   21.0269  -21.0719  -13.7490 N   0  0  0  0  0  0  0  0  0  0  0  0
   22.7627  -20.9554  -12.1808 C   0  0  0  0  0  0  0  0  0  0  0  0
   22.6193  -22.0622  -11.5615 O   0  0  0  0  0  0  0  0  0  0  0  0
   24.9928  -23.9428  -16.1657 N   0  0  0  0  0  0  0  0  0  0  0  0
   26.3993  -24.0848  -16.0123 C   0  0  0  0  0  0  0  0  0  0  0  0
   26.9731  -25.2140  -16.2512 N   0  0  0  0  0  0  0  0  0  0  0  0
   27.2373  -23.0112  -15.5968 N   0  0  0  0  0  0  0  0  0  0  0  0
   26.7197  -21.6986  -15.3022 C   0  0  0  0  0  0  0  0  0  0  0  0
   25.6990  -21.7270  -14.1893 C   0  0  0  0  0  0  0  0  0  0  0  0
   26.2842  -21.2169  -12.8878 C   0  0  0  0  0  0  0  0  0  0  0  0
   25.2336  -21.1765  -11.7985 C   0  0  2  0  0  0  0  0  0  0  0  0
   24.0750  -20.4923  -12.3507 N   0  0  0  0  0  0  0  0  0  0  0  0
   25.6749  -20.5042  -10.5899 C   0  0  0  0  0  0  0  0  0  0  0  0
   25.5596  -19.2414  -10.5207 O   0  0  0  0  0  0  0  0  0  0  0  0
   28.0068  -25.3110  -16.1352 N   0  0  0  0  0  0  0  0  0  0  0  0
   26.2368  -21.1723   -9.4604 C   0  0  1  0  0  0  0  0  0  0  0  0
   27.1449  -20.4502   -8.5811 C   0  0  0  0  0  0  0  0  0  0  0  0
   26.7381  -20.6027   -7.1428 C   0  0  0  0  0  0  0  0  0  0  0  0
   27.6872  -19.9650   -6.2386 C   0  0  0  0  0  0  0  0  0  0  0  0
   28.6500  -20.6814   -5.5258 C   0  0  0  0  0  0  0  0  0  0  0  0
   29.5352  -20.0749   -4.6836 C   0  0  0  0  0  0  0  0  0  0  0  0
   29.5197  -18.7111   -4.4956 C   0  0  0  0  0  0  0  0  0  0  0  0
   28.5910  -17.9775   -5.1765 C   0  0  0  0  0  0  0  0  0  0  0  0
   27.6919  -18.5850   -6.0304 C   0  0  0  0  0  0  0  0  0  0  0  0
   28.5383  -20.8568   -8.8145 O   0  0  0  0  0  0  0  0  0  0  0  0
   29.6627  -20.0979   -8.5750 O   0  0  0  0  0  0  0  0  0  0  0  0
  2  1  1  0
  3  2  1  0
  3  4  1  1
  5  3  1  0
  5  6  1  6
  7  5  1  0
  8  7  2  0
  9 10  1  0
 10 12  1  0
 11 10  2  0
 12 13  1  0
 13 14  1  0
 14 15  1  0
 16 15  1  6
 16 18  1  0
 16 17  1  0
 17  7  1  0
 18 19  2  0
 20 21  1  0
 20 18  1  0
 21 22  1  1
 22 23  1  0
 23 28  2  0
 24 23  1  0
 24 25  2  0
 25 26  1  0
 26 27  2  0
 28 27  1  0
 29 30  1  0
 29 21  1  0
 31 29  2  0
M  END
$$$$
