IRF.pdb
     RDKit          3D

 31 31  0  0  1  0  0  0  0  0999 V2000
   17.8290  -17.2247  -12.3895 C   0  0  0  0  0  0  0  0  0  0  0  0
   18.5808  -17.8240  -13.5499 C   0  0  0  0  0  0  0  0  0  0  0  0
   19.6883  -18.7401  -13.0920 C   0  0  2  0  0  0  0  0  0  0  0  0
   20.9098  -17.9270  -12.8469 C   0  0  0  0  0  0  0  0  0  0  0  0
   19.9587  -19.8372  -14.0942 C   0  0  2  0  0  0  0  0  0  0  0  0
   18.8434  -20.8248  -14.0107 N   0  0  0  0  0  0  0  0  0  0  0  0
   21.1663  -20.6304  -13.7826 C   0  0  0  0  0  0  0  0  0  0  0  0
   21.1942  -21.5032  -12.8517 O   0  0  0  0  0  0  0  0  0  0  0  0
   26.2791  -24.5283  -17.6406 N   0  0  0  0  0  0  0  0  0  0  0  0
   26.2279  -25.3097  -16.4537 C   0  0  0  0  0  0  0  0  0  0  0  0
   26.7539  -26.4860  -16.4212 N   0  0  0  0  0  0  0  0  0  0  0  0
   25.6078  -24.8477  -15.2580 N   0  0  0  0  0  0  0  0  0  0  0  0
   24.6516  -23.7691  -15.2524 C   0  0  0  0  0  0  0  0  0  0  0  0
   25.2765  -22.4538  -15.6530 C   0  0  0  0  0  0  0  0  0  0  0  0
   24.2588  -21.3310  -15.6423 C   0  0  0  0  0  0  0  0  0  0  0  0
   23.5360  -21.2655  -14.3137 C   0  0  2  0  0  0  0  0  0  0  0  0
   22.3477  -20.4515  -14.5159 N   0  0  0  0  0  0  0  0  0  0  0  0
   24.3401  -20.7079  -13.2413 C   0  0  0  0  0  0  0  0  0  0  0  0
   24.4256  -19.4450  -13.1397 O   0  0  0  0  0  0  0  0  0  0  0  0
   26.6880  -27.0653  -15.5544 N   0  0  0  0  0  0  0  0  0  0  0  0
   25.0506  -21.4906  -12.2819 C   0  0  2  0  0  0  0  0  0  0  0  0
   26.0449  -20.8511  -11.4324 C   0  0  0  0  0  0  0  0  0  0  0  0
   26.2560  -21.6330  -10.1668 C   0  0  0  0  0  0  0  0  0  0  0  0
   27.1393  -20.9374   -9.2387 C   0  0  0  0  0  0  0  0  0  0  0  0
   28.5210  -21.1337   -9.2198 C   0  0  0  0  0  0  0  0  0  0  0  0
   29.3393  -20.4761   -8.3487 C   0  0  0  0  0  0  0  0  0  0  0  0
   28.8336  -19.5773   -7.4366 C   0  0  0  0  0  0  0  0  0  0  0  0
   27.4857  -19.3598   -7.4258 C   0  0  0  0  0  0  0  0  0  0  0  0
   26.6516  -20.0221   -8.3048 C   0  0  0  0  0  0  0  0  0  0  0  0
   27.2986  -20.6260  -12.1666 O   0  0  0  0  0  0  0  0  0  0  0  0
   28.0451  -19.4685  -12.1745 O   0  0  0  0  0  0  0  0  0  0  0  0
  2  1  1  0
  3  2  1  0
  3  4  1  6
  5  3  1  0
  5  6  1  1
  7  5  1  0
  8  7  2  0
  9 10  1  0
 10 12  1  0
 11 10  2  0
 12 13  1  0
 13 14  1  0
 14 15  1  0
 16 15  1  6
 16 18  1  0
 16 17  1  0
 17  7  1  0
 18 19  2  0
 20 21  1  0
 20 18  1  0
 21 22  1  1
 22 23  1  0
 23 28  2  0
 24 23  1  0
 24 25  2  0
 25 26  1  0
 26 27  2  0
 28 27  1  0
 29 30  1  0
 29 21  1  0
 31 29  2  0
M  END
$$$$
