IVE.pdb
     RDKit          3D

 25 24  0  0  1  0  0  0  0  0999 V2000
   26.5491  -19.6493   -7.1967 C   0  0  0  0  0  0  0  0  0  0  0  0
   26.9253  -20.5809   -8.3143 C   0  0  0  0  0  0  0  0  0  0  0  0
   26.0467  -20.3438   -9.5454 C   0  0  2  0  0  0  0  0  0  0  0  0
   24.6485  -20.7532   -9.1530 C   0  0  0  0  0  0  0  0  0  0  0  0
   26.5296  -21.2477  -10.6758 C   0  0  2  0  0  0  0  0  0  0  0  0
   27.8924  -20.8475  -10.9583 N   0  0  0  0  0  0  0  0  0  0  0  0
   25.7102  -21.0703  -11.8945 C   0  0  0  0  0  0  0  0  0  0  0  0
   25.8979  -20.0434  -12.5875 O   0  0  0  0  0  0  0  0  0  0  0  0
   25.4641  -23.4034  -14.7460 C   0  0  0  0  0  0  0  0  0  0  0  0
   24.0614  -23.1258  -14.3262 C   0  0  2  0  0  0  0  0  0  0  0  0
   23.2301  -22.9248  -15.5797 C   0  0  0  0  0  0  0  0  0  0  0  0
   23.9284  -21.8633  -13.4997 C   0  0  2  0  0  0  0  0  0  0  0  0
   24.7298  -21.9888  -12.3231 N   0  0  0  0  0  0  0  0  0  0  0  0
   22.5418  -21.4773  -13.2567 C   0  0  0  0  0  0  0  0  0  0  0  0
   21.8460  -22.1269  -12.4375 O   0  0  0  0  0  0  0  0  0  0  0  0
   21.9072  -20.3845  -13.9029 N   0  0  0  0  0  0  0  0  0  0  0  0
   20.5365  -19.9695  -13.5537 C   0  0  1  0  0  0  0  0  0  0  0  0
   20.3547  -18.6116  -14.1416 C   0  0  0  0  0  0  0  0  0  0  0  0
   18.9733  -18.0438  -14.0287 C   0  0  0  0  0  0  0  0  0  0  0  0
   18.9150  -16.7717  -14.7739 C   0  0  0  0  0  0  0  0  0  0  0  0
   19.4555  -16.6817  -15.8925 O   0  0  0  0  0  0  0  0  0  0  0  0
   19.5741  -20.9446  -14.0773 C   0  0  0  0  0  0  0  0  0  0  0  0
   18.4587  -21.3291  -13.3619 O   0  0  0  0  0  0  0  0  0  0  0  0
   18.2665  -15.6785  -14.2432 O   0  0  0  0  0  0  0  0  0  0  0  0
   19.7058  -21.4976  -15.2214 O   0  0  0  0  0  0  0  0  0  0  0  0
  1  2  1  0
  2  3  1  0
  3  5  1  0
  3  4  1  1
  5  6  1  6
  7  5  1  0
  7  8  2  0
 10  9  1  6
 10 12  1  0
 11 10  1  0
 12 13  1  1
 13  7  1  0
 14 12  1  0
 15 14  2  0
 16 14  1  0
 17 18  1  6
 17 16  1  0
 18 19  1  0
 20 21  2  0
 20 19  1  0
 22 17  1  0
 23 22  1  0
 24 20  1  0
 25 22  2  0
M  END
$$$$
