IVE.pdb
     RDKit          3D

 25 24  0  0  1  0  0  0  0  0999 V2000
   29.0294  -12.3850  -16.5412 C   0  0  0  0  0  0  0  0  0  0  0  0
   27.6946  -12.9156  -16.0997 C   0  0  0  0  0  0  0  0  0  0  0  0
   26.5852  -11.8924  -16.3565 C   0  0  2  0  0  0  0  0  0  0  0  0
   26.8926  -10.7050  -15.4777 C   0  0  0  0  0  0  0  0  0  0  0  0
   25.2509  -12.4953  -15.9273 C   0  0  2  0  0  0  0  0  0  0  0  0
   25.1040  -13.7254  -16.6773 N   0  0  0  0  0  0  0  0  0  0  0  0
   24.1237  -11.5935  -16.2505 C   0  0  0  0  0  0  0  0  0  0  0  0
   23.8639  -11.3830  -17.4580 O   0  0  0  0  0  0  0  0  0  0  0  0
   20.5252  -11.6702  -16.0194 C   0  0  0  0  0  0  0  0  0  0  0  0
   20.9647  -10.5441  -15.1477 C   0  0  2  0  0  0  0  0  0  0  0  0
   19.9548   -9.4207  -15.2917 C   0  0  0  0  0  0  0  0  0  0  0  0
   22.3139   -9.9799  -15.5428 C   0  0  2  0  0  0  0  0  0  0  0  0
   23.3237  -10.9563  -15.2797 N   0  0  0  0  0  0  0  0  0  0  0  0
   22.5756   -8.6611  -14.9742 C   0  0  0  0  0  0  0  0  0  0  0  0
   22.8462   -8.5490  -13.7531 O   0  0  0  0  0  0  0  0  0  0  0  0
   22.5440   -7.4607  -15.7307 N   0  0  0  0  0  0  0  0  0  0  0  0
   22.8433   -6.1531  -15.1194 C   0  0  1  0  0  0  0  0  0  0  0  0
   22.8507   -5.1673  -16.2377 C   0  0  0  0  0  0  0  0  0  0  0  0
   23.0045   -3.7348  -15.8284 C   0  0  0  0  0  0  0  0  0  0  0  0
   22.8932   -2.8792  -17.0254 C   0  0  0  0  0  0  0  0  0  0  0  0
   22.7531   -3.3981  -18.1490 O   0  0  0  0  0  0  0  0  0  0  0  0
   21.8376   -5.8408  -14.0984 C   0  0  0  0  0  0  0  0  0  0  0  0
   22.1711   -5.2407  -12.9016 O   0  0  0  0  0  0  0  0  0  0  0  0
   22.9429   -1.5074  -16.9124 O   0  0  0  0  0  0  0  0  0  0  0  0
   20.5965   -6.1030  -14.2500 O   0  0  0  0  0  0  0  0  0  0  0  0
  1  2  1  0
  2  3  1  0
  3  5  1  0
  3  4  1  1
  5  6  1  6
  7  5  1  0
  7  8  2  0
 10  9  1  6
 10 12  1  0
 11 10  1  0
 12 13  1  1
 13  7  1  0
 14 12  1  0
 15 14  2  0
 16 14  1  0
 17 18  1  6
 17 16  1  0
 18 19  1  0
 20 21  2  0
 20 19  1  0
 22 17  1  0
 23 22  1  0
 24 20  1  0
 25 22  2  0
M  END
$$$$
