IVE.pdb
     RDKit          3D

 25 24  0  0  1  0  0  0  0  0999 V2000
   27.4957  -21.8616  -17.5288 C   0  0  0  0  0  0  0  0  0  0  0  0
   27.7180  -21.0417  -16.2891 C   0  0  0  0  0  0  0  0  0  0  0  0
   26.4471  -20.2835  -15.8975 C   0  0  2  0  0  0  0  0  0  0  0  0
   25.3143  -21.2752  -15.9984 C   0  0  0  0  0  0  0  0  0  0  0  0
   26.2144  -19.1604  -16.9038 C   0  0  2  0  0  0  0  0  0  0  0  0
   27.3930  -18.3206  -16.8506 N   0  0  0  0  0  0  0  0  0  0  0  0
   25.0279  -18.3531  -16.5451 C   0  0  0  0  0  0  0  0  0  0  0  0
   24.9645  -17.8798  -15.3867 O   0  0  0  0  0  0  0  0  0  0  0  0
   23.6141  -15.1565  -17.4563 C   0  0  0  0  0  0  0  0  0  0  0  0
   22.5845  -16.1646  -17.8363 C   0  0  2  0  0  0  0  0  0  0  0  0
   21.2218  -15.5931  -17.4910 C   0  0  0  0  0  0  0  0  0  0  0  0
   22.7227  -17.4686  -17.0778 C   0  0  2  0  0  0  0  0  0  0  0  0
   23.9633  -18.0844  -17.4298 N   0  0  0  0  0  0  0  0  0  0  0  0
   21.5537  -18.3339  -17.2018 C   0  0  0  0  0  0  0  0  0  0  0  0
   21.3370  -18.9419  -18.2790 O   0  0  0  0  0  0  0  0  0  0  0  0
   20.6168  -18.5409  -16.1559 N   0  0  0  0  0  0  0  0  0  0  0  0
   19.4799  -19.4668  -16.3080 C   0  0  1  0  0  0  0  0  0  0  0  0
   19.4402  -20.2794  -15.0588 C   0  0  0  0  0  0  0  0  0  0  0  0
   18.3203  -21.2704  -14.9739 C   0  0  0  0  0  0  0  0  0  0  0  0
   18.3827  -21.9542  -13.6679 C   0  0  0  0  0  0  0  0  0  0  0  0
   19.3497  -22.6916  -13.3984 O   0  0  0  0  0  0  0  0  0  0  0  0
   18.2453  -18.7054  -16.5255 C   0  0  0  0  0  0  0  0  0  0  0  0
   17.2307  -19.1715  -17.3359 O   0  0  0  0  0  0  0  0  0  0  0  0
   17.3787  -21.7848  -12.7403 O   0  0  0  0  0  0  0  0  0  0  0  0
   18.0315  -17.5688  -15.9827 O   0  0  0  0  0  0  0  0  0  0  0  0
  1  2  1  0
  2  3  1  0
  3  5  1  0
  3  4  1  6
  5  6  1  1
  7  5  1  0
  7  8  2  0
 10  9  1  1
 10 12  1  0
 11 10  1  0
 12 13  1  6
 13  7  1  0
 14 12  1  0
 15 14  2  0
 16 14  1  0
 17 18  1  1
 17 16  1  0
 18 19  1  0
 20 21  2  0
 20 19  1  0
 22 17  1  0
 23 22  1  0
 24 20  1  0
 25 22  2  0
M  END
$$$$
