IVE.pdb
     RDKit          3D

 25 24  0  0  1  0  0  0  0  0999 V2000
   27.9895  -11.6450  -15.6980 C   0  0  0  0  0  0  0  0  0  0  0  0
   26.6694  -12.3297  -15.9147 C   0  0  0  0  0  0  0  0  0  0  0  0
   25.5714  -11.3139  -16.2401 C   0  0  2  0  0  0  0  0  0  0  0  0
   25.4418  -10.4269  -15.0264 C   0  0  0  0  0  0  0  0  0  0  0  0
   24.2576  -12.0604  -16.4516 C   0  0  2  0  0  0  0  0  0  0  0  0
   24.5173  -13.0523  -17.4743 N   0  0  0  0  0  0  0  0  0  0  0  0
   23.1901  -11.1498  -16.9202 C   0  0  0  0  0  0  0  0  0  0  0  0
   23.3201  -10.6191  -18.0478 O   0  0  0  0  0  0  0  0  0  0  0  0
   19.7198  -11.8476  -17.7209 C   0  0  0  0  0  0  0  0  0  0  0  0
   19.6884  -10.7923  -16.6691 C   0  0  2  0  0  0  0  0  0  0  0  0
   18.5751   -9.8211  -17.0153 C   0  0  0  0  0  0  0  0  0  0  0  0
   20.9704   -9.9885  -16.5969 C   0  0  2  0  0  0  0  0  0  0  0  0
   22.0343  -10.8432  -16.1728 N   0  0  0  0  0  0  0  0  0  0  0  0
   20.8342   -8.7547  -15.8289 C   0  0  0  0  0  0  0  0  0  0  0  0
   20.7664   -8.8022  -14.5758 O   0  0  0  0  0  0  0  0  0  0  0  0
   20.7712   -7.4659  -16.4201 N   0  0  0  0  0  0  0  0  0  0  0  0
   20.5508   -6.2537  -15.6107 C   0  0  1  0  0  0  0  0  0  0  0  0
   21.7182   -5.3646  -15.8738 C   0  0  0  0  0  0  0  0  0  0  0  0
   21.7071   -4.0583  -15.1411 C   0  0  0  0  0  0  0  0  0  0  0  0
   22.0754   -4.2954  -13.7321 C   0  0  0  0  0  0  0  0  0  0  0  0
   23.1039   -4.9428  -13.4594 O   0  0  0  0  0  0  0  0  0  0  0  0
   19.2744   -5.6341  -15.9825 C   0  0  0  0  0  0  0  0  0  0  0  0
   18.7681   -5.7125  -17.2635 O   0  0  0  0  0  0  0  0  0  0  0  0
   21.2905   -3.8061  -12.7115 O   0  0  0  0  0  0  0  0  0  0  0  0
   18.5543   -4.9856  -15.1500 O   0  0  0  0  0  0  0  0  0  0  0  0
  1  2  1  0
  2  3  1  0
  3  5  1  0
  3  4  1  1
  5  6  1  6
  7  5  1  0
  7  8  2  0
 10  9  1  6
 10 12  1  0
 11 10  1  0
 12 13  1  1
 13  7  1  0
 14 12  1  0
 15 14  2  0
 16 14  1  0
 17 18  1  6
 17 16  1  0
 18 19  1  0
 20 21  2  0
 20 19  1  0
 22 17  1  0
 23 22  1  0
 24 20  1  0
 25 22  2  0
M  END
$$$$
