IVE.pdb
     RDKit          3D

 25 24  0  0  1  0  0  0  0  0999 V2000
   26.3136  -14.4629  -15.3298 C   0  0  0  0  0  0  0  0  0  0  0  0
   24.8648  -14.6612  -15.6764 C   0  0  0  0  0  0  0  0  0  0  0  0
   24.1863  -13.3239  -15.9841 C   0  0  2  0  0  0  0  0  0  0  0  0
   24.2252  -12.5249  -14.7048 C   0  0  0  0  0  0  0  0  0  0  0  0
   22.7313  -13.5858  -16.3616 C   0  0  2  0  0  0  0  0  0  0  0  0
   22.7635  -14.5145  -17.4723 N   0  0  0  0  0  0  0  0  0  0  0  0
   22.0537  -12.3424  -16.7894 C   0  0  0  0  0  0  0  0  0  0  0  0
   22.4957  -11.7470  -17.7995 O   0  0  0  0  0  0  0  0  0  0  0  0
   18.7957  -11.5973  -18.1920 C   0  0  0  0  0  0  0  0  0  0  0  0
   18.8716  -10.8517  -16.9039 C   0  0  2  0  0  0  0  0  0  0  0  0
   18.1829   -9.5135  -17.0978 C   0  0  0  0  0  0  0  0  0  0  0  0
   20.2935  -10.5591  -16.4709 C   0  0  2  0  0  0  0  0  0  0  0  0
   20.9393  -11.7869  -16.1278 N   0  0  0  0  0  0  0  0  0  0  0  0
   20.3827   -9.5162  -15.4534 C   0  0  0  0  0  0  0  0  0  0  0  0
   20.0656   -9.7724  -14.2656 O   0  0  0  0  0  0  0  0  0  0  0  0
   20.8165   -8.1921  -15.7236 N   0  0  0  0  0  0  0  0  0  0  0  0
   20.9124   -7.1772  -14.6588 C   0  0  1  0  0  0  0  0  0  0  0  0
   22.3145   -6.6719  -14.6962 C   0  0  0  0  0  0  0  0  0  0  0  0
   22.6499   -5.6352  -13.6685 C   0  0  0  0  0  0  0  0  0  0  0  0
   22.4599   -4.2961  -14.2581 C   0  0  0  0  0  0  0  0  0  0  0  0
   22.7891   -4.0856  -15.4408 O   0  0  0  0  0  0  0  0  0  0  0  0
   19.9246   -6.1184  -14.8918 C   0  0  0  0  0  0  0  0  0  0  0  0
   19.2705   -5.4860  -13.8545 O   0  0  0  0  0  0  0  0  0  0  0  0
   21.9201   -3.2724  -13.5111 O   0  0  0  0  0  0  0  0  0  0  0  0
   19.6076   -5.7165  -16.0623 O   0  0  0  0  0  0  0  0  0  0  0  0
  1  2  1  0
  2  3  1  0
  3  5  1  0
  3  4  1  1
  5  6  1  6
  7  5  1  0
  7  8  2  0
 10  9  1  6
 10 12  1  0
 11 10  1  0
 12 13  1  1
 13  7  1  0
 14 12  1  0
 15 14  2  0
 16 14  1  0
 17 18  1  6
 17 16  1  0
 18 19  1  0
 20 21  2  0
 20 19  1  0
 22 17  1  0
 23 22  1  0
 24 20  1  0
 25 22  2  0
M  END
$$$$
