IVE.pdb
     RDKit          3D

 25 24  0  0  1  0  0  0  0  0999 V2000
   21.2174  -16.5709  -15.8746 C   0  0  0  0  0  0  0  0  0  0  0  0
   19.8087  -16.1006  -16.1048 C   0  0  0  0  0  0  0  0  0  0  0  0
   19.7764  -14.6065  -16.4369 C   0  0  2  0  0  0  0  0  0  0  0  0
   20.2908  -13.8895  -15.2130 C   0  0  0  0  0  0  0  0  0  0  0  0
   18.3301  -14.1889  -16.6855 C   0  0  2  0  0  0  0  0  0  0  0  0
   17.8734  -14.9696  -17.8165 N   0  0  0  0  0  0  0  0  0  0  0  0
   18.2345  -12.7510  -17.0193 C   0  0  0  0  0  0  0  0  0  0  0  0
   18.8559  -12.3362  -18.0253 O   0  0  0  0  0  0  0  0  0  0  0  0
   15.7951  -10.5466  -18.4206 C   0  0  0  0  0  0  0  0  0  0  0  0
   16.0413  -10.0614  -17.0332 C   0  0  2  0  0  0  0  0  0  0  0  0
   15.9439   -8.5471  -17.0441 C   0  0  0  0  0  0  0  0  0  0  0  0
   17.4221  -10.4124  -16.5184 C   0  0  2  0  0  0  0  0  0  0  0  0
   17.4853  -11.8187  -16.2724 N   0  0  0  0  0  0  0  0  0  0  0  0
   17.8498   -9.5764  -15.4008 C   0  0  0  0  0  0  0  0  0  0  0  0
   17.3138   -9.7166  -14.2738 O   0  0  0  0  0  0  0  0  0  0  0  0
   18.8610   -8.5859  -15.5045 N   0  0  0  0  0  0  0  0  0  0  0  0
   19.2525   -7.7566  -14.3503 C   0  0  1  0  0  0  0  0  0  0  0  0
   20.5621   -7.1417  -14.7101 C   0  0  0  0  0  0  0  0  0  0  0  0
   21.0932   -6.1437  -13.7275 C   0  0  0  0  0  0  0  0  0  0  0  0
   22.3803   -5.6200  -14.2237 C   0  0  0  0  0  0  0  0  0  0  0  0
   23.1570   -6.3687  -14.8464 O   0  0  0  0  0  0  0  0  0  0  0  0
   18.2138   -6.7561  -14.0830 C   0  0  0  0  0  0  0  0  0  0  0  0
   17.8235   -6.4308  -12.8002 O   0  0  0  0  0  0  0  0  0  0  0  0
   22.7330   -4.3067  -14.0045 O   0  0  0  0  0  0  0  0  0  0  0  0
   17.6070   -6.1262  -15.0142 O   0  0  0  0  0  0  0  0  0  0  0  0
  1  2  1  0
  2  3  1  0
  3  5  1  0
  3  4  1  1
  5  6  1  6
  7  5  1  0
  7  8  2  0
 10  9  1  6
 10 12  1  0
 11 10  1  0
 12 13  1  1
 13  7  1  0
 14 12  1  0
 15 14  2  0
 16 14  1  0
 17 18  1  6
 17 16  1  0
 18 19  1  0
 20 21  2  0
 20 19  1  0
 22 17  1  0
 23 22  1  0
 24 20  1  0
 25 22  2  0
M  END
$$$$
