DHW.pdb
     RDKit          3D

 33 35  0  0  1  0  0  0  0  0999 V2000
   12.1975  -18.8948   19.3084 N   0  0  0  0  0  0  0  0  0  0  0  0
   12.3336  -17.4546   19.3946 C   0  0  1  0  0  0  0  0  0  0  0  0
   12.0644  -16.8138   18.0548 C   0  0  0  0  0  0  0  0  0  0  0  0
   13.1235  -17.2479   17.1114 C   0  0  0  0  0  0  0  0  0  0  0  0
   12.8424  -17.8911   16.0606 O   0  0  0  0  0  0  0  0  0  0  0  0
   11.4025  -16.9793   20.4497 C   0  0  0  0  0  0  0  0  0  0  0  0
   11.2309  -15.7568   20.6698 O   0  0  0  0  0  0  0  0  0  0  0  0
   14.4396  -16.9521   17.3712 O   0  0  0  0  0  0  0  0  0  0  0  0
   10.6640  -17.8948   21.2587 N   0  0  0  0  0  0  0  0  0  0  0  0
    9.6737  -17.4847   22.2003 C   0  0  1  0  0  0  0  0  0  0  0  0
    8.3939  -18.2665   22.1645 C   0  0  0  0  0  0  0  0  0  0  0  0
    7.6493  -18.0870   20.9008 C   0  0  0  0  0  0  0  0  0  0  0  0
    6.8590  -17.0248   20.5421 C   0  0  0  0  0  0  0  0  0  0  0  0
    6.3696  -17.2647   19.2912 N   0  0  0  0  0  0  0  0  0  0  0  0
    6.8594  -18.4488   18.9127 C   0  0  0  0  0  0  0  0  0  0  0  0
    7.6391  -18.9583   19.8832 N   0  0  0  0  0  0  0  0  0  0  0  0
   10.2449  -17.3665   23.5848 C   0  0  0  0  0  0  0  0  0  0  0  0
   11.2827  -18.0169   23.9113 O   0  0  0  0  0  0  0  0  0  0  0  0
    9.6609  -16.5400   24.5746 N   0  0  0  0  0  0  0  0  0  0  0  0
   10.1983  -16.4120   25.9253 C   0  0  1  0  0  0  0  0  0  0  0  0
    9.7601  -15.1488   26.5834 C   0  0  0  0  0  0  0  0  0  0  0  0
    8.3709  -14.7496   26.3617 C   0  0  0  0  0  0  0  0  0  0  0  0
    7.3403  -15.6436   26.1789 C   0  0  0  0  0  0  0  0  0  0  0  0
    6.1913  -14.9706   26.0341 N   0  0  0  0  0  0  0  0  0  0  0  0
    6.4278  -13.6443   26.1146 C   0  0  0  0  0  0  0  0  0  0  0  0
    5.5786  -12.5584   26.0235 C   0  0  0  0  0  0  0  0  0  0  0  0
    6.0883  -11.2687   26.1364 C   0  0  0  0  0  0  0  0  0  0  0  0
    7.4428  -11.1142   26.3389 C   0  0  0  0  0  0  0  0  0  0  0  0
    8.2627  -12.2111   26.4260 C   0  0  0  0  0  0  0  0  0  0  0  0
    7.7848  -13.5110   26.3180 C   0  0  0  0  0  0  0  0  0  0  0  0
   10.0627  -17.6480   26.6991 C   0  0  0  0  0  0  0  0  0  0  0  0
   10.8002  -17.8879   27.8432 O   0  0  0  0  0  0  0  0  0  0  0  0
    9.2554  -18.5605   26.3411 O   0  0  0  0  0  0  0  0  0  0  0  0
  2  1  1  6
  2  3  1  0
  3  4  1  0
  4  8  1  0
  5  4  2  0
  6  2  1  0
  6  7  2  0
  9  6  1  0
 10  9  1  0
 10 11  1  1
 12 11  1  0
 12 16  1  0
 13 14  1  0
 13 12  2  0
 14 15  1  0
 15 16  2  0
 17 10  1  0
 18 17  2  0
 19 17  1  0
 20 19  1  0
 21 22  1  0
 20 21  1  1
 22 30  1  0
 22 23  2  0
 23 24  1  0
 25 26  2  0
 25 24  1  0
 27 26  1  0
 28 27  2  0
 29 28  1  0
 29 30  2  0
 30 25  1  0
 31 20  1  0
 31 32  1  0
 33 31  2  0
M  END
$$$$
