DHW.pdb
     RDKit          3D

 33 35  0  0  1  0  0  0  0  0999 V2000
   13.4133  -16.7664   19.7128 N   0  0  0  0  0  0  0  0  0  0  0  0
   13.2158  -15.4678   20.3250 C   0  0  1  0  0  0  0  0  0  0  0  0
   13.1846  -14.3840   19.2750 C   0  0  0  0  0  0  0  0  0  0  0  0
   14.5541  -14.2295   18.7265 C   0  0  0  0  0  0  0  0  0  0  0  0
   15.5741  -14.3844   19.4562 O   0  0  0  0  0  0  0  0  0  0  0  0
   11.9591  -15.5315   21.1141 C   0  0  0  0  0  0  0  0  0  0  0  0
   11.5240  -14.5325   21.7349 O   0  0  0  0  0  0  0  0  0  0  0  0
   14.7329  -13.9127   17.4018 O   0  0  0  0  0  0  0  0  0  0  0  0
   11.1937  -16.7334   21.1999 N   0  0  0  0  0  0  0  0  0  0  0  0
   10.0628  -16.8820   22.0570 C   0  0  1  0  0  0  0  0  0  0  0  0
    9.1584  -18.0332   21.7295 C   0  0  0  0  0  0  0  0  0  0  0  0
    7.7666  -17.8114   22.1734 C   0  0  0  0  0  0  0  0  0  0  0  0
    6.8539  -16.9321   21.6487 C   0  0  0  0  0  0  0  0  0  0  0  0
    5.6922  -17.0571   22.3532 N   0  0  0  0  0  0  0  0  0  0  0  0
    5.9098  -17.9936   23.2810 C   0  0  0  0  0  0  0  0  0  0  0  0
    7.1677  -18.4597   23.1812 N   0  0  0  0  0  0  0  0  0  0  0  0
   10.4605  -16.8481   23.5053 C   0  0  0  0  0  0  0  0  0  0  0  0
   11.6623  -17.0589   23.8485 O   0  0  0  0  0  0  0  0  0  0  0  0
    9.5287  -16.5862   24.5384 N   0  0  0  0  0  0  0  0  0  0  0  0
    9.8839  -16.5954   25.9537 C   0  0  1  0  0  0  0  0  0  0  0  0
    8.8080  -16.0111   26.8034 C   0  0  0  0  0  0  0  0  0  0  0  0
    7.8831  -15.0933   26.1394 C   0  0  0  0  0  0  0  0  0  0  0  0
    6.8416  -15.5062   25.3396 C   0  0  0  0  0  0  0  0  0  0  0  0
    6.1634  -14.4348   24.9082 N   0  0  0  0  0  0  0  0  0  0  0  0
    6.7272  -13.3114   25.3999 C   0  0  0  0  0  0  0  0  0  0  0  0
    6.3985  -11.9793   25.2391 C   0  0  0  0  0  0  0  0  0  0  0  0
    7.1623  -10.9969   25.8617 C   0  0  0  0  0  0  0  0  0  0  0  0
    8.2366  -11.3903   26.6300 C   0  0  0  0  0  0  0  0  0  0  0  0
    8.5397  -12.7210   26.7726 C   0  0  0  0  0  0  0  0  0  0  0  0
    7.7968  -13.7253   26.1648 C   0  0  0  0  0  0  0  0  0  0  0  0
   10.4456  -17.8791   26.3797 C   0  0  0  0  0  0  0  0  0  0  0  0
   11.3276  -17.9846   27.4387 O   0  0  0  0  0  0  0  0  0  0  0  0
   10.1439  -18.9577   25.7814 O   0  0  0  0  0  0  0  0  0  0  0  0
  2  1  1  6
  2  3  1  0
  3  4  1  0
  4  8  1  0
  5  4  2  0
  6  2  1  0
  6  7  2  0
  9  6  1  0
 10  9  1  0
 10 11  1  6
 12 11  1  0
 12 16  1  0
 13 14  1  0
 13 12  2  0
 14 15  1  0
 15 16  2  0
 17 10  1  0
 18 17  2  0
 19 17  1  0
 20 19  1  0
 21 22  1  0
 20 21  1  1
 22 30  1  0
 22 23  2  0
 23 24  1  0
 25 26  2  0
 25 24  1  0
 27 26  1  0
 28 27  2  0
 29 28  1  0
 29 30  2  0
 30 25  1  0
 31 20  1  0
 31 32  1  0
 33 31  2  0
M  END
$$$$
