DHW.pdb
     RDKit          3D

 33 35  0  0  1  0  0  0  0  0999 V2000
   10.1822  -20.0988   20.8283 N   0  0  0  0  0  0  0  0  0  0  0  0
   11.1948  -19.3591   20.1019 C   0  0  1  0  0  0  0  0  0  0  0  0
   11.2380  -19.7946   18.6573 C   0  0  0  0  0  0  0  0  0  0  0  0
   11.9536  -21.0918   18.5848 C   0  0  0  0  0  0  0  0  0  0  0  0
   12.9081  -21.3590   19.3687 O   0  0  0  0  0  0  0  0  0  0  0  0
   10.8867  -17.9138   20.2512 C   0  0  0  0  0  0  0  0  0  0  0  0
   11.6633  -17.0301   19.8169 O   0  0  0  0  0  0  0  0  0  0  0  0
   11.5828  -22.0309   17.6532 O   0  0  0  0  0  0  0  0  0  0  0  0
    9.6934  -17.4695   20.8966 N   0  0  0  0  0  0  0  0  0  0  0  0
    9.3612  -16.0924   21.0661 C   0  0  1  0  0  0  0  0  0  0  0  0
    8.0204  -15.6868   20.5293 C   0  0  0  0  0  0  0  0  0  0  0  0
    7.7573  -14.2407   20.6810 C   0  0  0  0  0  0  0  0  0  0  0  0
    8.1675  -13.2269   19.8530 C   0  0  0  0  0  0  0  0  0  0  0  0
    7.7003  -12.0500   20.3612 N   0  0  0  0  0  0  0  0  0  0  0  0
    7.0248  -12.3578   21.4720 C   0  0  0  0  0  0  0  0  0  0  0  0
    7.0523  -13.6871   21.6766 N   0  0  0  0  0  0  0  0  0  0  0  0
    9.5813  -15.6426   22.4825 C   0  0  0  0  0  0  0  0  0  0  0  0
    9.5423  -14.4113   22.7809 O   0  0  0  0  0  0  0  0  0  0  0  0
    9.8406  -16.5553   23.5331 N   0  0  0  0  0  0  0  0  0  0  0  0
   10.2551  -16.1373   24.8684 C   0  0  1  0  0  0  0  0  0  0  0  0
    9.1629  -16.3006   25.8689 C   0  0  0  0  0  0  0  0  0  0  0  0
    7.9488  -15.5188   25.6379 C   0  0  0  0  0  0  0  0  0  0  0  0
    6.7600  -16.0649   25.2096 C   0  0  0  0  0  0  0  0  0  0  0  0
    5.8350  -15.0999   25.1251 N   0  0  0  0  0  0  0  0  0  0  0  0
    6.3767  -13.9176   25.4862 C   0  0  0  0  0  0  0  0  0  0  0  0
    5.8347  -12.6489   25.5574 C   0  0  0  0  0  0  0  0  0  0  0  0
    6.6268  -11.5786   25.9614 C   0  0  0  0  0  0  0  0  0  0  0  0
    7.9447  -11.8226   26.2825 C   0  0  0  0  0  0  0  0  0  0  0  0
    8.4563  -13.0933   26.2031 C   0  0  0  0  0  0  0  0  0  0  0  0
    7.6918  -14.1825   25.8040 C   0  0  0  0  0  0  0  0  0  0  0  0
   11.5747  -16.6587   25.2317 C   0  0  0  0  0  0  0  0  0  0  0  0
   12.2144  -16.2985   26.4028 O   0  0  0  0  0  0  0  0  0  0  0  0
   12.1916  -17.4682   24.4724 O   0  0  0  0  0  0  0  0  0  0  0  0
  2  1  1  1
  2  3  1  0
  3  4  1  0
  4  8  1  0
  5  4  2  0
  6  2  1  0
  6  7  2  0
  9  6  1  0
 10  9  1  0
 10 11  1  1
 12 11  1  0
 12 16  1  0
 13 14  1  0
 13 12  2  0
 14 15  1  0
 15 16  2  0
 17 10  1  0
 18 17  2  0
 19 17  1  0
 20 19  1  0
 21 22  1  0
 20 21  1  1
 22 30  1  0
 22 23  2  0
 23 24  1  0
 25 26  2  0
 25 24  1  0
 27 26  1  0
 28 27  2  0
 29 28  1  0
 29 30  2  0
 30 25  1  0
 31 20  1  0
 31 32  1  0
 33 31  2  0
M  END
$$$$
