DHW.pdb
     RDKit          3D

 33 35  0  0  1  0  0  0  0  0999 V2000
    8.8494  -14.8690   19.5182 N   0  0  0  0  0  0  0  0  0  0  0  0
    7.7233  -15.5614   20.1120 C   0  0  1  0  0  0  0  0  0  0  0  0
    6.9180  -16.2735   19.0524 C   0  0  0  0  0  0  0  0  0  0  0  0
    7.4627  -15.8980   17.7248 C   0  0  0  0  0  0  0  0  0  0  0  0
    7.9533  -14.7520   17.5175 O   0  0  0  0  0  0  0  0  0  0  0  0
    8.2601  -16.4907   21.1388 C   0  0  0  0  0  0  0  0  0  0  0  0
    7.5356  -17.3611   21.6774 O   0  0  0  0  0  0  0  0  0  0  0  0
    7.4407  -16.8027   16.6913 O   0  0  0  0  0  0  0  0  0  0  0  0
    9.6238  -16.4316   21.5566 N   0  0  0  0  0  0  0  0  0  0  0  0
   10.1850  -17.3163   22.5250 C   0  0  1  0  0  0  0  0  0  0  0  0
   11.4866  -17.9512   22.1336 C   0  0  0  0  0  0  0  0  0  0  0  0
   11.3416  -18.9151   21.0229 C   0  0  0  0  0  0  0  0  0  0  0  0
   11.4979  -18.6721   19.6820 C   0  0  0  0  0  0  0  0  0  0  0  0
   11.2792  -19.8403   19.0118 N   0  0  0  0  0  0  0  0  0  0  0  0
   10.9973  -20.7618   19.9373 C   0  0  0  0  0  0  0  0  0  0  0  0
   11.0324  -20.2109   21.1640 N   0  0  0  0  0  0  0  0  0  0  0  0
   10.2323  -16.6843   23.8871 C   0  0  0  0  0  0  0  0  0  0  0  0
   10.8116  -15.5705   24.0608 O   0  0  0  0  0  0  0  0  0  0  0  0
    9.6448  -17.2924   25.0225 N   0  0  0  0  0  0  0  0  0  0  0  0
    9.7717  -16.7517   26.3720 C   0  0  1  0  0  0  0  0  0  0  0  0
    8.4440  -16.5132   27.0053 C   0  0  0  0  0  0  0  0  0  0  0  0
    7.6007  -15.4946   26.3808 C   0  0  0  0  0  0  0  0  0  0  0  0
    6.5058  -15.7855   25.5989 C   0  0  0  0  0  0  0  0  0  0  0  0
    5.9283  -14.6433   25.2038 N   0  0  0  0  0  0  0  0  0  0  0  0
    6.6119  -13.5918   25.7024 C   0  0  0  0  0  0  0  0  0  0  0  0
    6.4141  -12.2306   25.5742 C   0  0  0  0  0  0  0  0  0  0  0  0
    7.2855  -11.3420   26.1963 C   0  0  0  0  0  0  0  0  0  0  0  0
    8.3321  -11.8559   26.9312 C   0  0  0  0  0  0  0  0  0  0  0  0
    8.5041  -13.2128   27.0419 C   0  0  0  0  0  0  0  0  0  0  0  0
    7.6517  -14.1256   26.4336 C   0  0  0  0  0  0  0  0  0  0  0  0
   10.7705  -17.4681   27.1684 C   0  0  0  0  0  0  0  0  0  0  0  0
   11.3985  -18.6112   26.7109 O   0  0  0  0  0  0  0  0  0  0  0  0
   11.0981  -17.0640   28.3268 O   0  0  0  0  0  0  0  0  0  0  0  0
  2  1  1  6
  2  3  1  0
  3  4  1  0
  4  8  1  0
  5  4  2  0
  6  2  1  0
  6  7  2  0
  9  6  1  0
 10  9  1  0
 10 11  1  6
 12 11  1  0
 12 16  1  0
 13 14  1  0
 13 12  2  0
 14 15  1  0
 15 16  2  0
 17 10  1  0
 18 17  2  0
 19 17  1  0
 20 19  1  0
 21 22  1  0
 20 21  1  1
 22 30  1  0
 22 23  2  0
 23 24  1  0
 25 26  2  0
 25 24  1  0
 27 26  1  0
 28 27  2  0
 29 28  1  0
 29 30  2  0
 30 25  1  0
 31 20  1  0
 31 32  1  0
 33 31  2  0
M  END
$$$$
