DHW.pdb
     RDKit          3D

 33 35  0  0  1  0  0  0  0  0999 V2000
    8.3206  -17.9056   18.8297 N   0  0  0  0  0  0  0  0  0  0  0  0
    9.7340  -17.8923   18.5101 C   0  0  1  0  0  0  0  0  0  0  0  0
    9.9480  -18.1304   17.0350 C   0  0  0  0  0  0  0  0  0  0  0  0
    9.0249  -19.2067   16.5998 C   0  0  0  0  0  0  0  0  0  0  0  0
    8.9143  -19.5229   15.3813 O   0  0  0  0  0  0  0  0  0  0  0  0
   10.2826  -16.5878   18.9611 C   0  0  0  0  0  0  0  0  0  0  0  0
   11.5053  -16.3246   18.8701 O   0  0  0  0  0  0  0  0  0  0  0  0
    8.2696  -19.8820   17.5275 O   0  0  0  0  0  0  0  0  0  0  0  0
    9.4407  -15.5785   19.5184 N   0  0  0  0  0  0  0  0  0  0  0  0
    9.9134  -14.2877   19.9002 C   0  0  1  0  0  0  0  0  0  0  0  0
    9.2933  -13.1360   19.1656 C   0  0  0  0  0  0  0  0  0  0  0  0
    8.7954  -13.5132   17.8265 C   0  0  0  0  0  0  0  0  0  0  0  0
    7.5043  -13.4484   17.3679 C   0  0  0  0  0  0  0  0  0  0  0  0
    7.4916  -13.8860   16.0756 N   0  0  0  0  0  0  0  0  0  0  0  0
    8.7525  -14.2060   15.7708 C   0  0  0  0  0  0  0  0  0  0  0  0
    9.5544  -13.9833   16.8276 N   0  0  0  0  0  0  0  0  0  0  0  0
    9.8858  -14.1093   21.3916 C   0  0  0  0  0  0  0  0  0  0  0  0
    9.5125  -13.0110   21.9023 O   0  0  0  0  0  0  0  0  0  0  0  0
   10.2706  -15.1399   22.2826 N   0  0  0  0  0  0  0  0  0  0  0  0
    9.6581  -15.3307   23.5933 C   0  0  1  0  0  0  0  0  0  0  0  0
    8.1708  -15.3794   23.5131 C   0  0  0  0  0  0  0  0  0  0  0  0
    7.4454  -15.1407   24.7602 C   0  0  0  0  0  0  0  0  0  0  0  0
    6.9086  -16.1444   25.5343 C   0  0  0  0  0  0  0  0  0  0  0  0
    6.3392  -15.6080   26.6216 N   0  0  0  0  0  0  0  0  0  0  0  0
    6.4809  -14.2661   26.5941 C   0  0  0  0  0  0  0  0  0  0  0  0
    6.0659  -13.2860   27.4749 C   0  0  0  0  0  0  0  0  0  0  0  0
    6.3392  -11.9491   27.2031 C   0  0  0  0  0  0  0  0  0  0  0  0
    7.0254  -11.6417   26.0480 C   0  0  0  0  0  0  0  0  0  0  0  0
    7.4260  -12.6360   25.1914 C   0  0  0  0  0  0  0  0  0  0  0  0
    7.1692  -13.9794   25.4345 C   0  0  0  0  0  0  0  0  0  0  0  0
   10.3180  -16.3827   24.3697 C   0  0  0  0  0  0  0  0  0  0  0  0
   10.4349  -16.3222   25.7457 O   0  0  0  0  0  0  0  0  0  0  0  0
   10.8190  -17.4012   23.8007 O   0  0  0  0  0  0  0  0  0  0  0  0
  2  1  1  6
  2  3  1  0
  3  4  1  0
  4  8  1  0
  5  4  2  0
  6  2  1  0
  6  7  2  0
  9  6  1  0
 10  9  1  0
 10 11  1  6
 12 11  1  0
 12 16  1  0
 13 14  1  0
 13 12  2  0
 14 15  1  0
 15 16  2  0
 17 10  1  0
 18 17  2  0
 19 17  1  0
 20 19  1  0
 21 22  1  0
 20 21  1  6
 22 30  1  0
 22 23  2  0
 23 24  1  0
 25 26  2  0
 25 24  1  0
 27 26  1  0
 28 27  2  0
 29 28  1  0
 29 30  2  0
 30 25  1  0
 31 20  1  0
 31 32  1  0
 33 31  2  0
M  END
$$$$
