DHW.pdb
     RDKit          3D

 33 35  0  0  1  0  0  0  0  0999 V2000
    7.3970  -21.1284   22.0030 N   0  0  0  0  0  0  0  0  0  0  0  0
    7.0709  -19.7170   22.0437 C   0  0  1  0  0  0  0  0  0  0  0  0
    6.2430  -19.3974   23.2647 C   0  0  0  0  0  0  0  0  0  0  0  0
    4.9027  -20.0082   23.0897 C   0  0  0  0  0  0  0  0  0  0  0  0
    4.7350  -21.2576   23.1771 O   0  0  0  0  0  0  0  0  0  0  0  0
    8.3489  -18.9611   22.0093 C   0  0  0  0  0  0  0  0  0  0  0  0
    9.3770  -19.3857   22.5885 O   0  0  0  0  0  0  0  0  0  0  0  0
    3.8134  -19.2133   22.8276 O   0  0  0  0  0  0  0  0  0  0  0  0
    8.4607  -17.7182   21.3160 N   0  0  0  0  0  0  0  0  0  0  0  0
    9.6250  -16.8953   21.3668 C   0  0  1  0  0  0  0  0  0  0  0  0
    9.8335  -16.0072   20.1758 C   0  0  0  0  0  0  0  0  0  0  0  0
   11.1210  -15.2835   20.2204 C   0  0  0  0  0  0  0  0  0  0  0  0
   11.8157  -14.8851   21.3340 C   0  0  0  0  0  0  0  0  0  0  0  0
   12.9540  -14.2566   20.9205 N   0  0  0  0  0  0  0  0  0  0  0  0
   12.9366  -14.2800   19.5848 C   0  0  0  0  0  0  0  0  0  0  0  0
   11.8270  -14.9021   19.1476 N   0  0  0  0  0  0  0  0  0  0  0  0
    9.7194  -16.1534   22.6696 C   0  0  0  0  0  0  0  0  0  0  0  0
    9.7970  -14.8884   22.6865 O   0  0  0  0  0  0  0  0  0  0  0  0
    9.7283  -16.8191   23.9189 N   0  0  0  0  0  0  0  0  0  0  0  0
   10.4612  -16.3255   25.0803 C   0  0  1  0  0  0  0  0  0  0  0  0
   10.0372  -14.9496   25.4648 C   0  0  0  0  0  0  0  0  0  0  0  0
    8.6077  -14.7537   25.7029 C   0  0  0  0  0  0  0  0  0  0  0  0
    7.6829  -15.7729   25.6733 C   0  0  0  0  0  0  0  0  0  0  0  0
    6.4714  -15.2794   25.9611 N   0  0  0  0  0  0  0  0  0  0  0  0
    6.5621  -13.9511   26.1824 C   0  0  0  0  0  0  0  0  0  0  0  0
    5.6017  -13.0115   26.5036 C   0  0  0  0  0  0  0  0  0  0  0  0
    5.9653  -11.6792   26.6740 C   0  0  0  0  0  0  0  0  0  0  0  0
    7.2905  -11.3357   26.5152 C   0  0  0  0  0  0  0  0  0  0  0  0
    8.2233  -12.2903   26.1965 C   0  0  0  0  0  0  0  0  0  0  0  0
    7.8925  -13.6280   26.0203 C   0  0  0  0  0  0  0  0  0  0  0  0
   10.5445  -17.3206   26.1516 C   0  0  0  0  0  0  0  0  0  0  0  0
   11.3038  -17.1196   27.2890 O   0  0  0  0  0  0  0  0  0  0  0  0
    9.9183  -18.4225   26.0733 O   0  0  0  0  0  0  0  0  0  0  0  0
  2  1  1  1
  2  3  1  0
  3  4  1  0
  4  8  1  0
  5  4  2  0
  6  2  1  0
  6  7  2  0
  9  6  1  0
 10  9  1  0
 10 11  1  6
 12 11  1  0
 12 16  1  0
 13 14  1  0
 13 12  2  0
 14 15  1  0
 15 16  2  0
 17 10  1  0
 18 17  2  0
 19 17  1  0
 20 19  1  0
 21 22  1  0
 20 21  1  1
 22 30  1  0
 22 23  2  0
 23 24  1  0
 25 26  2  0
 25 24  1  0
 27 26  1  0
 28 27  2  0
 29 28  1  0
 29 30  2  0
 30 25  1  0
 31 20  1  0
 31 32  1  0
 33 31  2  0
M  END
$$$$
