DHW.pdb
     RDKit          3D

 33 35  0  0  1  0  0  0  0  0999 V2000
   10.2581  -15.0027   17.7813 N   0  0  0  0  0  0  0  0  0  0  0  0
    9.1954  -14.3419   18.5122 C   0  0  1  0  0  0  0  0  0  0  0  0
    8.0416  -14.0166   17.5951 C   0  0  0  0  0  0  0  0  0  0  0  0
    8.5800  -13.8029   16.2296 C   0  0  0  0  0  0  0  0  0  0  0  0
    9.6061  -14.4197   15.8252 O   0  0  0  0  0  0  0  0  0  0  0  0
    8.7987  -15.2353   19.6305 C   0  0  0  0  0  0  0  0  0  0  0  0
    7.8567  -14.9388   20.4034 O   0  0  0  0  0  0  0  0  0  0  0  0
    7.9619  -12.9210   15.3767 O   0  0  0  0  0  0  0  0  0  0  0  0
    9.4740  -16.4693   19.8733 N   0  0  0  0  0  0  0  0  0  0  0  0
    9.2573  -17.2644   21.0379 C   0  0  1  0  0  0  0  0  0  0  0  0
    9.4635  -18.7389   20.8537 C   0  0  0  0  0  0  0  0  0  0  0  0
    8.4464  -19.3533   19.9754 C   0  0  0  0  0  0  0  0  0  0  0  0
    7.0957  -19.4412   20.1979 C   0  0  0  0  0  0  0  0  0  0  0  0
    6.5315  -20.0780   19.1312 N   0  0  0  0  0  0  0  0  0  0  0  0
    7.5287  -20.3645   18.2894 C   0  0  0  0  0  0  0  0  0  0  0  0
    8.6978  -19.9285   18.7919 N   0  0  0  0  0  0  0  0  0  0  0  0
    9.9980  -16.7171   22.2248 C   0  0  0  0  0  0  0  0  0  0  0  0
   11.1768  -16.2689   22.0980 O   0  0  0  0  0  0  0  0  0  0  0  0
    9.4265  -16.6782   23.5194 N   0  0  0  0  0  0  0  0  0  0  0  0
   10.0832  -16.0524   24.6625 C   0  0  1  0  0  0  0  0  0  0  0  0
    9.6161  -14.6538   24.8782 C   0  0  0  0  0  0  0  0  0  0  0  0
    8.2663  -14.4964   25.4183 C   0  0  0  0  0  0  0  0  0  0  0  0
    7.3932  -15.5438   25.6067 C   0  0  0  0  0  0  0  0  0  0  0  0
    6.2565  -15.0812   26.1432 N   0  0  0  0  0  0  0  0  0  0  0  0
    6.3466  -13.7460   26.3183 C   0  0  0  0  0  0  0  0  0  0  0  0
    5.4465  -12.8291   26.8257 C   0  0  0  0  0  0  0  0  0  0  0  0
    5.7916  -11.4827   26.8918 C   0  0  0  0  0  0  0  0  0  0  0  0
    7.0380  -11.1025   26.4433 C   0  0  0  0  0  0  0  0  0  0  0  0
    7.9123  -12.0352   25.9445 C   0  0  0  0  0  0  0  0  0  0  0  0
    7.5981  -13.3861   25.8657 C   0  0  0  0  0  0  0  0  0  0  0  0
   10.1203  -16.9304   25.8341 C   0  0  0  0  0  0  0  0  0  0  0  0
   10.9373  -16.6788   26.9202 O   0  0  0  0  0  0  0  0  0  0  0  0
    9.3975  -17.9727   25.8956 O   0  0  0  0  0  0  0  0  0  0  0  0
  2  1  1  6
  2  3  1  0
  3  4  1  0
  4  8  1  0
  5  4  2  0
  6  2  1  0
  6  7  2  0
  9  6  1  0
 10  9  1  0
 10 11  1  6
 12 11  1  0
 12 16  1  0
 13 14  1  0
 13 12  2  0
 14 15  1  0
 15 16  2  0
 17 10  1  0
 18 17  2  0
 19 17  1  0
 20 19  1  0
 21 22  1  0
 20 21  1  1
 22 30  1  0
 22 23  2  0
 23 24  1  0
 25 26  2  0
 25 24  1  0
 27 26  1  0
 28 27  2  0
 29 28  1  0
 29 30  2  0
 30 25  1  0
 31 20  1  0
 31 32  1  0
 33 31  2  0
M  END
$$$$
