MEQ.pdb
     RDKit          3D

 27 26  0  0  1  0  0  0  0  0999 V2000
    7.8698  -11.6163   22.5971 C   0  0  0  0  0  0  0  0  0  0  0  0
    7.7699  -12.0261   20.8378 S   0  0  0  0  0  0  0  0  0  0  0  0
    6.9675  -13.6240   20.6716 C   0  0  0  0  0  0  0  0  0  0  0  0
    7.7454  -14.6050   19.8711 C   0  0  0  0  0  0  0  0  0  0  0  0
    9.1167  -14.9049   20.3719 C   0  0  2  0  0  0  0  0  0  0  0  0
    9.6698  -15.8629   19.3558 N   0  0  0  0  0  0  0  0  0  0  0  0
    9.1703  -15.5583   21.6930 C   0  0  0  0  0  0  0  0  0  0  0  0
    8.6503  -15.0825   22.7466 O   0  0  0  0  0  0  0  0  0  0  0  0
    9.8284  -16.8015   21.8764 N   0  0  0  0  0  0  0  0  0  0  0  0
    9.8421  -17.4402   23.2004 C   0  0  1  0  0  0  0  0  0  0  0  0
   10.9209  -18.4953   23.0456 C   0  0  0  0  0  0  0  0  0  0  0  0
   11.2330  -19.3151   24.2277 C   0  0  0  0  0  0  0  0  0  0  0  0
   12.2317  -20.3671   24.0154 C   0  0  0  0  0  0  0  0  0  0  0  0
   11.9143  -21.4576   23.4938 O   0  0  0  0  0  0  0  0  0  0  0  0
   10.2814  -16.4735   24.2260 C   0  0  0  0  0  0  0  0  0  0  0  0
   11.2532  -15.7070   24.0252 O   0  0  0  0  0  0  0  0  0  0  0  0
   13.5472  -20.1763   24.3875 O   0  0  0  0  0  0  0  0  0  0  0  0
    7.1449  -12.7795   27.9590 N   0  0  0  0  0  0  0  0  0  0  0  0
    7.1894  -13.1525   26.5922 C   0  0  0  0  0  0  0  0  0  0  0  0
    6.2310  -12.9075   25.8391 O   0  0  0  0  0  0  0  0  0  0  0  0
    8.3890  -13.8362   26.0730 C   0  0  0  0  0  0  0  0  0  0  0  0
    8.9185  -14.7830   27.1107 C   0  0  0  0  0  0  0  0  0  0  0  0
   10.1318  -15.5042   26.5357 C   0  0  2  0  0  0  0  0  0  0  0  0
    9.6146  -16.3825   25.4608 N   0  0  0  0  0  0  0  0  0  0  0  0
   10.7124  -16.2825   27.6476 C   0  0  0  0  0  0  0  0  0  0  0  0
   11.3652  -15.6126   28.6653 O   0  0  0  0  0  0  0  0  0  0  0  0
   10.6372  -17.5283   27.7061 O   0  0  0  0  0  0  0  0  0  0  0  0
  2  3  1  0
  2  1  1  0
  4  5  1  0
  4  3  1  0
  5  6  1  6
  7  5  1  0
  7  8  2  0
  9  7  1  0
 10  9  1  0
 10 11  1  6
 12 11  1  0
 13 12  1  0
 14 13  2  0
 15 10  1  0
 16 15  2  0
 17 13  1  0
 19 18  1  0
 20 19  2  0
 21 19  1  0
 22 21  1  0
 23 22  1  1
 23 24  1  0
 24 15  1  0
 25 23  1  0
 26 25  1  0
 27 25  2  0
M  END
$$$$
