MEQ.pdb
     RDKit          3D

 27 26  0  0  1  0  0  0  0  0999 V2000
    6.3462  -11.7315   18.9566 C   0  0  0  0  0  0  0  0  0  0  0  0
    7.3962  -12.9689   19.7561 S   0  0  0  0  0  0  0  0  0  0  0  0
    6.5046  -14.5270   19.8006 C   0  0  0  0  0  0  0  0  0  0  0  0
    7.1563  -15.5669   20.6386 C   0  0  0  0  0  0  0  0  0  0  0  0
    8.5018  -15.2149   21.1746 C   0  0  2  0  0  0  0  0  0  0  0  0
    9.3525  -15.0690   19.9453 N   0  0  0  0  0  0  0  0  0  0  0  0
    9.1179  -16.2395   22.0380 C   0  0  0  0  0  0  0  0  0  0  0  0
    8.5521  -16.7569   23.0476 O   0  0  0  0  0  0  0  0  0  0  0  0
   10.4256  -16.7285   21.7869 N   0  0  0  0  0  0  0  0  0  0  0  0
   11.0471  -17.6829   22.7164 C   0  0  1  0  0  0  0  0  0  0  0  0
   12.4616  -17.7916   22.1794 C   0  0  0  0  0  0  0  0  0  0  0  0
   13.4025  -18.6373   22.9321 C   0  0  0  0  0  0  0  0  0  0  0  0
   14.7419  -18.7580   22.3485 C   0  0  0  0  0  0  0  0  0  0  0  0
   15.1999  -19.8730   22.0182 O   0  0  0  0  0  0  0  0  0  0  0  0
   11.1084  -17.1039   24.0729 C   0  0  0  0  0  0  0  0  0  0  0  0
   11.3544  -15.8874   24.2517 O   0  0  0  0  0  0  0  0  0  0  0  0
   15.5284  -17.6411   22.1506 O   0  0  0  0  0  0  0  0  0  0  0  0
    7.3420  -13.6190   25.4057 N   0  0  0  0  0  0  0  0  0  0  0  0
    7.4874  -14.9589   25.8449 C   0  0  0  0  0  0  0  0  0  0  0  0
    6.5213  -15.7410   25.8171 O   0  0  0  0  0  0  0  0  0  0  0  0
    8.8013  -15.4151   26.3363 C   0  0  0  0  0  0  0  0  0  0  0  0
    8.9207  -16.9002   26.1521 C   0  0  0  0  0  0  0  0  0  0  0  0
   10.3556  -17.3133   26.4575 C   0  0  2  0  0  0  0  0  0  0  0  0
   10.8862  -17.9048   25.2073 N   0  0  0  0  0  0  0  0  0  0  0  0
   10.2740  -18.3098   27.5436 C   0  0  0  0  0  0  0  0  0  0  0  0
   10.3970  -19.6511   27.2331 O   0  0  0  0  0  0  0  0  0  0  0  0
   10.0974  -17.9881   28.7380 O   0  0  0  0  0  0  0  0  0  0  0  0
  2  3  1  0
  2  1  1  0
  4  5  1  0
  4  3  1  0
  5  6  1  6
  7  5  1  0
  7  8  2  0
  9  7  1  0
 10  9  1  0
 10 11  1  6
 12 11  1  0
 13 12  1  0
 14 13  2  0
 15 10  1  0
 16 15  2  0
 17 13  1  0
 19 18  1  0
 20 19  2  0
 21 19  1  0
 22 21  1  0
 23 22  1  6
 23 24  1  0
 24 15  1  0
 25 23  1  0
 26 25  1  0
 27 25  2  0
M  END
$$$$
