MEQ.pdb
     RDKit          3D

 27 26  0  0  1  0  0  0  0  0999 V2000
    6.0873  -11.5553   26.8791 C   0  0  0  0  0  0  0  0  0  0  0  0
    7.0930  -11.4908   25.3767 S   0  0  0  0  0  0  0  0  0  0  0  0
    6.2226  -12.3664   24.0726 C   0  0  0  0  0  0  0  0  0  0  0  0
    6.9878  -13.5047   23.5008 C   0  0  0  0  0  0  0  0  0  0  0  0
    7.3087  -14.6088   24.4491 C   0  0  2  0  0  0  0  0  0  0  0  0
    8.0871  -13.9314   25.5406 N   0  0  0  0  0  0  0  0  0  0  0  0
    8.1462  -15.6873   23.8919 C   0  0  0  0  0  0  0  0  0  0  0  0
    7.6913  -16.7062   23.2902 O   0  0  0  0  0  0  0  0  0  0  0  0
    9.5605  -15.6536   23.9963 N   0  0  0  0  0  0  0  0  0  0  0  0
   10.3233  -16.9070   24.0854 C   0  0  1  0  0  0  0  0  0  0  0  0
   11.5584  -16.5998   23.2600 C   0  0  0  0  0  0  0  0  0  0  0  0
   12.6200  -17.6194   23.2350 C   0  0  0  0  0  0  0  0  0  0  0  0
   13.7737  -17.3027   22.3877 C   0  0  0  0  0  0  0  0  0  0  0  0
   14.8059  -16.7923   22.8735 O   0  0  0  0  0  0  0  0  0  0  0  0
   10.7442  -17.1472   25.4798 C   0  0  0  0  0  0  0  0  0  0  0  0
   11.2125  -16.2240   26.1874 O   0  0  0  0  0  0  0  0  0  0  0  0
   13.7456  -17.5617   21.0322 O   0  0  0  0  0  0  0  0  0  0  0  0
    8.7168  -22.0015   28.7906 N   0  0  0  0  0  0  0  0  0  0  0  0
    9.6024  -21.4021   29.7209 C   0  0  0  0  0  0  0  0  0  0  0  0
    9.7670  -21.9005   30.8479 O   0  0  0  0  0  0  0  0  0  0  0  0
   10.3281  -20.1771   29.3350 C   0  0  0  0  0  0  0  0  0  0  0  0
   10.0557  -19.8629   27.8925 C   0  0  0  0  0  0  0  0  0  0  0  0
   10.8518  -18.6216   27.5074 C   0  0  2  0  0  0  0  0  0  0  0  0
   10.6259  -18.4242   26.0567 N   0  0  0  0  0  0  0  0  0  0  0  0
   12.2642  -18.9306   27.8051 C   0  0  0  0  0  0  0  0  0  0  0  0
   13.0082  -19.6293   26.8729 O   0  0  0  0  0  0  0  0  0  0  0  0
   12.8171  -18.5843   28.8707 O   0  0  0  0  0  0  0  0  0  0  0  0
  2  3  1  0
  2  1  1  0
  4  5  1  0
  4  3  1  0
  5  6  1  1
  7  5  1  0
  7  8  2  0
  9  7  1  0
 10  9  1  0
 10 11  1  6
 12 11  1  0
 13 12  1  0
 14 13  2  0
 15 10  1  0
 16 15  2  0
 17 13  1  0
 19 18  1  0
 20 19  2  0
 21 19  1  0
 22 21  1  0
 23 22  1  6
 23 24  1  0
 24 15  1  0
 25 23  1  0
 26 25  1  0
 27 25  2  0
M  END
$$$$
