MEQ.pdb
     RDKit          3D

 27 26  0  0  1  0  0  0  0  0999 V2000
    7.8075  -11.7928   20.0334 C   0  0  0  0  0  0  0  0  0  0  0  0
    8.1326  -12.9427   18.6751 S   0  0  0  0  0  0  0  0  0  0  0  0
    7.0942  -14.3910   18.8963 C   0  0  0  0  0  0  0  0  0  0  0  0
    7.2763  -15.0643   20.2084 C   0  0  0  0  0  0  0  0  0  0  0  0
    8.6718  -15.0951   20.7307 C   0  0  2  0  0  0  0  0  0  0  0  0
    9.4125  -15.9358   19.7303 N   0  0  0  0  0  0  0  0  0  0  0  0
    8.8287  -15.7190   22.0577 C   0  0  0  0  0  0  0  0  0  0  0  0
    8.0920  -15.4653   23.0577 O   0  0  0  0  0  0  0  0  0  0  0  0
    9.8467  -16.6742   22.3097 N   0  0  0  0  0  0  0  0  0  0  0  0
    9.9259  -17.3399   23.6179 C   0  0  1  0  0  0  0  0  0  0  0  0
   11.1946  -18.1618   23.4927 C   0  0  0  0  0  0  0  0  0  0  0  0
   11.6155  -18.9316   24.6748 C   0  0  0  0  0  0  0  0  0  0  0  0
   12.8407  -19.7189   24.5068 C   0  0  0  0  0  0  0  0  0  0  0  0
   13.9645  -19.2051   24.6940 O   0  0  0  0  0  0  0  0  0  0  0  0
   10.1238  -16.3396   24.6854 C   0  0  0  0  0  0  0  0  0  0  0  0
   11.1333  -15.5960   24.7027 O   0  0  0  0  0  0  0  0  0  0  0  0
   12.7803  -21.0475   24.1373 O   0  0  0  0  0  0  0  0  0  0  0  0
    5.8892  -12.8985   26.8661 N   0  0  0  0  0  0  0  0  0  0  0  0
    7.0526  -12.2921   26.3296 C   0  0  0  0  0  0  0  0  0  0  0  0
    7.0205  -11.1202   25.9156 O   0  0  0  0  0  0  0  0  0  0  0  0
    8.3047  -13.0698   26.2681 C   0  0  0  0  0  0  0  0  0  0  0  0
    8.0979  -14.4102   26.9117 C   0  0  0  0  0  0  0  0  0  0  0  0
    9.3927  -15.2064   26.8016 C   0  0  2  0  0  0  0  0  0  0  0  0
    9.1774  -16.1897   25.7148 N   0  0  0  0  0  0  0  0  0  0  0  0
    9.5816  -15.8666   28.1084 C   0  0  0  0  0  0  0  0  0  0  0  0
   10.0156  -15.1135   29.1831 O   0  0  0  0  0  0  0  0  0  0  0  0
    9.3639  -17.0846   28.2829 O   0  0  0  0  0  0  0  0  0  0  0  0
  2  3  1  0
  2  1  1  0
  4  5  1  0
  4  3  1  0
  5  6  1  6
  7  5  1  0
  7  8  2  0
  9  7  1  0
 10  9  1  0
 10 11  1  6
 12 11  1  0
 13 12  1  0
 14 13  2  0
 15 10  1  0
 16 15  2  0
 17 13  1  0
 19 18  1  0
 20 19  2  0
 21 19  1  0
 22 21  1  0
 23 22  1  1
 23 24  1  0
 24 15  1  0
 25 23  1  0
 26 25  1  0
 27 25  2  0
M  END
$$$$
