MEQ.pdb
     RDKit          3D

 27 26  0  0  1  0  0  0  0  0999 V2000
    6.1096  -11.2564   27.2826 C   0  0  0  0  0  0  0  0  0  0  0  0
    7.0543  -12.5432   26.4313 S   0  0  0  0  0  0  0  0  0  0  0  0
    5.9196  -13.8397   25.9249 C   0  0  0  0  0  0  0  0  0  0  0  0
    6.5929  -15.0414   25.3673 C   0  0  0  0  0  0  0  0  0  0  0  0
    7.9549  -14.8165   24.8054 C   0  0  2  0  0  0  0  0  0  0  0  0
    7.7053  -13.9937   23.5738 N   0  0  0  0  0  0  0  0  0  0  0  0
    8.6734  -16.0391   24.4006 C   0  0  0  0  0  0  0  0  0  0  0  0
    8.8599  -17.0407   25.1550 O   0  0  0  0  0  0  0  0  0  0  0  0
    9.2201  -16.1785   23.0991 N   0  0  0  0  0  0  0  0  0  0  0  0
   10.0590  -17.3405   22.7722 C   0  0  1  0  0  0  0  0  0  0  0  0
   10.3220  -17.1501   21.2904 C   0  0  0  0  0  0  0  0  0  0  0  0
   11.1219  -18.1831   20.6122 C   0  0  0  0  0  0  0  0  0  0  0  0
   11.3169  -17.9809   19.1733 C   0  0  0  0  0  0  0  0  0  0  0  0
   12.4625  -17.9879   18.6737 O   0  0  0  0  0  0  0  0  0  0  0  0
   11.3474  -17.2540   23.4876 C   0  0  0  0  0  0  0  0  0  0  0  0
   11.7781  -16.1603   23.9243 O   0  0  0  0  0  0  0  0  0  0  0  0
   10.2379  -17.7780   18.3369 O   0  0  0  0  0  0  0  0  0  0  0  0
    9.7314  -19.3517   27.8529 N   0  0  0  0  0  0  0  0  0  0  0  0
   11.0720  -19.4314   28.3063 C   0  0  0  0  0  0  0  0  0  0  0  0
   11.3221  -19.6944   29.4954 O   0  0  0  0  0  0  0  0  0  0  0  0
   12.1693  -19.1980   27.3483 C   0  0  0  0  0  0  0  0  0  0  0  0
   11.5992  -18.8634   26.0004 C   0  0  0  0  0  0  0  0  0  0  0  0
   12.7510  -18.6560   25.0242 C   0  0  2  0  0  0  0  0  0  0  0  0
   12.1283  -18.4033   23.7040 N   0  0  0  0  0  0  0  0  0  0  0  0
   13.5278  -19.9113   25.0324 C   0  0  0  0  0  0  0  0  0  0  0  0
   12.9956  -21.0327   24.4243 O   0  0  0  0  0  0  0  0  0  0  0  0
   14.6524  -20.0013   25.5694 O   0  0  0  0  0  0  0  0  0  0  0  0
  2  3  1  0
  2  1  1  0
  4  5  1  0
  4  3  1  0
  5  6  1  6
  7  5  1  0
  7  8  2  0
  9  7  1  0
 10  9  1  0
 10 11  1  6
 12 11  1  0
 13 12  1  0
 14 13  2  0
 15 10  1  0
 16 15  2  0
 17 13  1  0
 19 18  1  0
 20 19  2  0
 21 19  1  0
 22 21  1  0
 23 22  1  1
 23 24  1  0
 24 15  1  0
 25 23  1  0
 26 25  1  0
 27 25  2  0
M  END
$$$$
