MEQ.pdb
     RDKit          3D

 27 26  0  0  1  0  0  0  0  0999 V2000
    7.3459  -11.2297   26.4417 C   0  0  0  0  0  0  0  0  0  0  0  0
    5.8426  -12.1531   26.8422 S   0  0  0  0  0  0  0  0  0  0  0  0
    5.6449  -13.4676   25.6348 C   0  0  0  0  0  0  0  0  0  0  0  0
    6.8461  -14.3296   25.4852 C   0  0  0  0  0  0  0  0  0  0  0  0
    6.7488  -15.3996   24.4523 C   0  0  2  0  0  0  0  0  0  0  0  0
    5.6690  -16.3051   24.9721 N   0  0  0  0  0  0  0  0  0  0  0  0
    7.9712  -16.2040   24.2690 C   0  0  0  0  0  0  0  0  0  0  0  0
    8.2617  -17.2285   24.9568 O   0  0  0  0  0  0  0  0  0  0  0  0
    8.9322  -15.8732   23.2794 N   0  0  0  0  0  0  0  0  0  0  0  0
   10.1517  -16.6814   23.1365 C   0  0  1  0  0  0  0  0  0  0  0  0
   10.8678  -15.9964   21.9881 C   0  0  0  0  0  0  0  0  0  0  0  0
   12.1967  -16.5129   21.6216 C   0  0  0  0  0  0  0  0  0  0  0  0
   12.1930  -17.6867   20.7434 C   0  0  0  0  0  0  0  0  0  0  0  0
   13.0020  -18.6228   20.9198 O   0  0  0  0  0  0  0  0  0  0  0  0
   10.9883  -16.5564   24.3464 C   0  0  0  0  0  0  0  0  0  0  0  0
   11.3027  -15.4338   24.8082 O   0  0  0  0  0  0  0  0  0  0  0  0
   11.2943  -17.7843   19.7003 O   0  0  0  0  0  0  0  0  0  0  0  0
   10.8482  -14.7536   28.1237 N   0  0  0  0  0  0  0  0  0  0  0  0
   11.1969  -15.7418   29.0782 C   0  0  0  0  0  0  0  0  0  0  0  0
   11.5598  -15.4154   30.2216 O   0  0  0  0  0  0  0  0  0  0  0  0
   11.1237  -17.1652   28.6977 C   0  0  0  0  0  0  0  0  0  0  0  0
   10.7016  -17.2823   27.2618 C   0  0  0  0  0  0  0  0  0  0  0  0
   11.9291  -17.6104   26.4202 C   0  0  2  0  0  0  0  0  0  0  0  0
   11.4536  -17.6998   25.0201 N   0  0  0  0  0  0  0  0  0  0  0  0
   12.4300  -18.9087   26.9128 C   0  0  0  0  0  0  0  0  0  0  0  0
   13.2167  -18.9361   28.0490 O   0  0  0  0  0  0  0  0  0  0  0  0
   12.1704  -19.9891   26.3412 O   0  0  0  0  0  0  0  0  0  0  0  0
  2  3  1  0
  2  1  1  0
  4  5  1  0
  4  3  1  0
  5  6  1  1
  7  5  1  0
  7  8  2  0
  9  7  1  0
 10  9  1  0
 10 11  1  6
 12 11  1  0
 13 12  1  0
 14 13  2  0
 15 10  1  0
 16 15  2  0
 17 13  1  0
 19 18  1  0
 20 19  2  0
 21 19  1  0
 22 21  1  0
 23 22  1  1
 23 24  1  0
 24 15  1  0
 25 23  1  0
 26 25  1  0
 27 25  2  0
M  END
$$$$
