MEQ.pdb
     RDKit          3D

 27 26  0  0  1  0  0  0  0  0999 V2000
    6.2606  -11.2667   26.7039 C   0  0  0  0  0  0  0  0  0  0  0  0
    7.0076  -12.1602   25.3195 S   0  0  0  0  0  0  0  0  0  0  0  0
    6.2304  -13.7746   25.2000 C   0  0  0  0  0  0  0  0  0  0  0  0
    6.8109  -14.6426   24.1427 C   0  0  0  0  0  0  0  0  0  0  0  0
    8.2942  -14.5903   24.0062 C   0  0  2  0  0  0  0  0  0  0  0  0
    8.5099  -14.1230   22.5950 N   0  0  0  0  0  0  0  0  0  0  0  0
    8.9826  -15.8842   24.1696 C   0  0  0  0  0  0  0  0  0  0  0  0
    8.9347  -16.5909   25.2209 O   0  0  0  0  0  0  0  0  0  0  0  0
    9.7684  -16.4401   23.1275 N   0  0  0  0  0  0  0  0  0  0  0  0
   10.4417  -17.7325   23.3208 C   0  0  1  0  0  0  0  0  0  0  0  0
   11.3700  -17.8023   22.1232 C   0  0  0  0  0  0  0  0  0  0  0  0
   12.3372  -18.9115   22.0870 C   0  0  0  0  0  0  0  0  0  0  0  0
   13.1940  -18.9579   20.8983 C   0  0  0  0  0  0  0  0  0  0  0  0
   14.3854  -19.3265   20.9799 O   0  0  0  0  0  0  0  0  0  0  0  0
   11.2651  -17.6979   24.5456 C   0  0  0  0  0  0  0  0  0  0  0  0
   12.2771  -16.9623   24.6299 O   0  0  0  0  0  0  0  0  0  0  0  0
   12.7031  -18.5948   19.6604 O   0  0  0  0  0  0  0  0  0  0  0  0
   10.3087  -14.6575   28.6531 N   0  0  0  0  0  0  0  0  0  0  0  0
   11.2934  -15.3969   29.3551 C   0  0  0  0  0  0  0  0  0  0  0  0
   11.8309  -14.9260   30.3725 O   0  0  0  0  0  0  0  0  0  0  0  0
   11.6735  -16.7347   28.8632 C   0  0  0  0  0  0  0  0  0  0  0  0
   11.1305  -16.9357   27.4781 C   0  0  0  0  0  0  0  0  0  0  0  0
   11.6091  -18.2868   26.9605 C   0  0  2  0  0  0  0  0  0  0  0  0
   10.9317  -18.4899   25.6588 N   0  0  0  0  0  0  0  0  0  0  0  0
   11.1832  -19.2848   27.9614 C   0  0  0  0  0  0  0  0  0  0  0  0
   10.1528  -20.1511   27.6476 O   0  0  0  0  0  0  0  0  0  0  0  0
   11.7191  -19.3784   29.0863 O   0  0  0  0  0  0  0  0  0  0  0  0
  2  3  1  0
  2  1  1  0
  4  5  1  0
  4  3  1  0
  5  6  1  6
  7  5  1  0
  7  8  2  0
  9  7  1  0
 10  9  1  0
 10 11  1  6
 12 11  1  0
 13 12  1  0
 14 13  2  0
 15 10  1  0
 16 15  2  0
 17 13  1  0
 19 18  1  0
 20 19  2  0
 21 19  1  0
 22 21  1  0
 23 22  1  1
 23 24  1  0
 24 15  1  0
 25 23  1  0
 26 25  1  0
 27 25  2  0
M  END
$$$$
