TSP.pdb
     RDKit          3D

 21 21  0  0  1  0  0  0  0  0999 V2000
   17.2633   -9.3845  -19.1124 C   0  0  0  0  0  0  0  0  0  0  0  0
   16.7209  -10.6658  -18.5157 C   0  0  1  0  0  0  0  0  0  0  0  0
   15.8440  -11.2198  -19.4464 O   0  0  0  0  0  0  0  0  0  0  0  0
   17.8633  -11.6327  -18.3248 C   0  0  2  0  0  0  0  0  0  0  0  0
   17.2890  -12.8784  -17.8490 N   0  0  0  0  0  0  0  0  0  0  0  0
   18.9089  -11.1329  -17.4327 C   0  0  0  0  0  0  0  0  0  0  0  0
   18.6527  -11.0691  -16.1923 O   0  0  0  0  0  0  0  0  0  0  0  0
   23.5738   -9.9417  -17.2972 O   0  0  0  0  0  0  0  0  0  0  0  0
   22.4788  -10.4045  -18.0066 C   0  0  0  0  0  0  0  0  0  0  0  0
   21.2463  -10.2425  -17.1451 C   0  0  2  0  0  0  0  0  0  0  0  0
   20.1594  -10.7397  -17.9680 N   0  0  0  0  0  0  0  0  0  0  0  0
   20.9775   -8.8874  -16.6712 C   0  0  0  0  0  0  0  0  0  0  0  0
   20.2762   -8.1747  -17.4828 O   0  0  0  0  0  0  0  0  0  0  0  0
   21.3718   -8.2761  -15.4770 N   0  0  0  0  0  0  0  0  0  0  0  0
   22.1844   -8.7085  -14.3575 C   0  0  0  0  0  0  0  0  0  0  0  0
   21.6027   -7.9913  -13.1304 C   0  0  0  0  0  0  0  0  0  0  0  0
   20.4806   -7.1384  -13.6835 C   0  0  0  0  0  0  0  0  0  0  0  0
   20.9986   -6.9094  -15.0856 C   0  0  1  0  0  0  0  0  0  0  0  0
   22.1408   -5.9979  -15.1329 C   0  0  0  0  0  0  0  0  0  0  0  0
   22.1071   -4.8151  -14.7203 O   0  0  0  0  0  0  0  0  0  0  0  0
   23.3303   -6.4733  -15.6666 O   0  0  0  0  0  0  0  0  0  0  0  0
  2  4  1  0
  2  1  1  6
  3  2  1  0
  4  5  1  1
  6  4  1  0
  6 11  1  0
  7  6  2  0
  9  8  1  0
 10 12  1  0
 10 11  1  0
 10  9  1  6
 12 14  1  0
 13 12  2  0
 14 15  1  0
 14 18  1  0
 15 16  1  0
 17 16  1  0
 17 18  1  0
 18 19  1  1
 19 20  2  0
 19 21  1  0
M  END
$$$$
