TSP.pdb
     RDKit          3D

 21 21  0  0  1  0  0  0  0  0999 V2000
   27.0913  -10.8813  -15.1570 C   0  0  0  0  0  0  0  0  0  0  0  0
   27.1186  -11.6603  -16.4547 C   0  0  1  0  0  0  0  0  0  0  0  0
   28.0703  -12.6686  -16.3150 O   0  0  0  0  0  0  0  0  0  0  0  0
   25.7751  -12.3175  -16.6534 C   0  0  2  0  0  0  0  0  0  0  0  0
   25.9104  -13.2270  -17.7770 N   0  0  0  0  0  0  0  0  0  0  0  0
   24.6816  -11.3655  -16.8449 C   0  0  0  0  0  0  0  0  0  0  0  0
   24.5760  -10.7996  -17.9750 O   0  0  0  0  0  0  0  0  0  0  0  0
   20.3970  -10.0692  -15.3342 O   0  0  0  0  0  0  0  0  0  0  0  0
   21.5169  -10.8765  -15.2316 C   0  0  0  0  0  0  0  0  0  0  0  0
   22.6784  -10.1715  -15.8959 C   0  0  2  0  0  0  0  0  0  0  0  0
   23.7839  -11.1045  -15.7815 N   0  0  0  0  0  0  0  0  0  0  0  0
   23.0263   -8.8647  -15.3443 C   0  0  0  0  0  0  0  0  0  0  0  0
   23.9085   -8.9061  -14.4071 O   0  0  0  0  0  0  0  0  0  0  0  0
   22.5391   -7.6015  -15.6939 N   0  0  0  0  0  0  0  0  0  0  0  0
   21.4986   -7.1498  -16.5962 C   0  0  0  0  0  0  0  0  0  0  0  0
   21.9734   -5.7847  -17.1153 C   0  0  0  0  0  0  0  0  0  0  0  0
   23.2864   -5.5410  -16.4020 C   0  0  0  0  0  0  0  0  0  0  0  0
   23.0451   -6.3378  -15.1396 C   0  0  1  0  0  0  0  0  0  0  0  0
   22.0769   -5.7099  -14.2418 C   0  0  0  0  0  0  0  0  0  0  0  0
   20.9015   -6.1165  -14.0889 O   0  0  0  0  0  0  0  0  0  0  0  0
   22.4865   -4.5989  -13.5182 O   0  0  0  0  0  0  0  0  0  0  0  0
  2  4  1  0
  2  1  1  1
  3  2  1  0
  4  5  1  6
  6  4  1  0
  6 11  1  0
  7  6  2  0
  9  8  1  0
 10 12  1  0
 10 11  1  0
 10  9  1  1
 12 14  1  0
 13 12  2  0
 14 15  1  0
 14 18  1  0
 15 16  1  0
 17 16  1  0
 17 18  1  0
 18 19  1  1
 19 20  2  0
 19 21  1  0
M  END
$$$$
