TSP.pdb
     RDKit          3D

 21 21  0  0  1  0  0  0  0  0999 V2000
   17.6432   -8.4689  -16.3816 C   0  0  0  0  0  0  0  0  0  0  0  0
   18.0255   -9.8442  -15.8774 C   0  0  1  0  0  0  0  0  0  0  0  0
   18.0219  -10.7051  -16.9733 O   0  0  0  0  0  0  0  0  0  0  0  0
   19.4338   -9.7882  -15.3386 C   0  0  2  0  0  0  0  0  0  0  0  0
   19.8153  -11.1495  -15.0082 N   0  0  0  0  0  0  0  0  0  0  0  0
   19.5885   -8.8820  -14.2013 C   0  0  0  0  0  0  0  0  0  0  0  0
   18.9643   -9.1567  -13.1320 O   0  0  0  0  0  0  0  0  0  0  0  0
   22.0334   -5.0167  -12.6764 O   0  0  0  0  0  0  0  0  0  0  0  0
   21.8556   -6.0390  -13.5928 C   0  0  0  0  0  0  0  0  0  0  0  0
   20.5714   -6.7646  -13.2583 C   0  0  2  0  0  0  0  0  0  0  0  0
   20.4175   -7.7404  -14.3212 N   0  0  0  0  0  0  0  0  0  0  0  0
   19.3833   -5.9249  -13.1313 C   0  0  0  0  0  0  0  0  0  0  0  0
   18.7452   -5.7440  -14.2352 O   0  0  0  0  0  0  0  0  0  0  0  0
   18.8578   -5.3062  -11.9927 N   0  0  0  0  0  0  0  0  0  0  0  0
   19.2888   -5.2319  -10.6108 C   0  0  0  0  0  0  0  0  0  0  0  0
   17.9971   -5.1419   -9.7852 C   0  0  0  0  0  0  0  0  0  0  0  0
   16.8866   -5.1308  -10.8142 C   0  0  0  0  0  0  0  0  0  0  0  0
   17.6225   -4.5098  -11.9802 C   0  0  1  0  0  0  0  0  0  0  0  0
   17.8943   -3.0854  -11.7935 C   0  0  0  0  0  0  0  0  0  0  0  0
   17.0015   -2.2102  -11.7084 O   0  0  0  0  0  0  0  0  0  0  0  0
   19.2193   -2.6823  -11.7058 O   0  0  0  0  0  0  0  0  0  0  0  0
  2  4  1  0
  2  1  1  6
  3  2  1  0
  4  5  1  1
  6  4  1  0
  6 11  1  0
  7  6  2  0
  9  8  1  0
 10 12  1  0
 10 11  1  0
 10  9  1  6
 12 14  1  0
 13 12  2  0
 14 15  1  0
 14 18  1  0
 15 16  1  0
 17 16  1  0
 17 18  1  0
 18 19  1  1
 19 20  2  0
 19 21  1  0
M  END
$$$$
