TSP.pdb
     RDKit          3D

 21 21  0  0  1  0  0  0  0  0999 V2000
   24.1703  -11.7143  -15.3656 C   0  0  0  0  0  0  0  0  0  0  0  0
   23.8843  -12.2784  -16.7410 C   0  0  1  0  0  0  0  0  0  0  0  0
   24.3198  -13.6022  -16.7468 O   0  0  0  0  0  0  0  0  0  0  0  0
   22.3918  -12.2821  -16.9622 C   0  0  2  0  0  0  0  0  0  0  0  0
   22.1479  -13.0107  -18.1941 N   0  0  0  0  0  0  0  0  0  0  0  0
   21.8018  -10.9442  -16.9883 C   0  0  0  0  0  0  0  0  0  0  0  0
   22.1082  -10.1772  -17.9507 O   0  0  0  0  0  0  0  0  0  0  0  0
   19.2412   -9.8823  -13.9135 O   0  0  0  0  0  0  0  0  0  0  0  0
   18.9916   -9.4445  -15.2029 C   0  0  0  0  0  0  0  0  0  0  0  0
   20.3160   -9.2274  -15.9002 C   0  0  2  0  0  0  0  0  0  0  0  0
   20.9183  -10.5465  -15.9558 N   0  0  0  0  0  0  0  0  0  0  0  0
   21.2120   -8.2599  -15.2725 C   0  0  0  0  0  0  0  0  0  0  0  0
   22.1092   -8.7873  -14.5140 O   0  0  0  0  0  0  0  0  0  0  0  0
   21.2245   -6.8662  -15.3859 N   0  0  0  0  0  0  0  0  0  0  0  0
   20.3190   -5.9076  -15.9874 C   0  0  0  0  0  0  0  0  0  0  0  0
   21.2094   -4.7533  -16.4706 C   0  0  0  0  0  0  0  0  0  0  0  0
   22.6087   -5.1486  -16.0488 C   0  0  0  0  0  0  0  0  0  0  0  0
   22.2827   -6.0021  -14.8438 C   0  0  1  0  0  0  0  0  0  0  0  0
   21.8161   -5.2223  -13.6984 C   0  0  0  0  0  0  0  0  0  0  0  0
   20.6198   -5.1728  -13.3288 O   0  0  0  0  0  0  0  0  0  0  0  0
   22.7556   -4.4956  -12.9806 O   0  0  0  0  0  0  0  0  0  0  0  0
  2  4  1  0
  2  1  1  1
  3  2  1  0
  4  5  1  6
  6  4  1  0
  6 11  1  0
  7  6  2  0
  9  8  1  0
 10 12  1  0
 10 11  1  0
 10  9  1  1
 12 14  1  0
 13 12  2  0
 14 15  1  0
 14 18  1  0
 15 16  1  0
 17 16  1  0
 17 18  1  0
 18 19  1  1
 19 20  2  0
 19 21  1  0
M  END
$$$$
