TSP.pdb
     RDKit          3D

 21 21  0  0  1  0  0  0  0  0999 V2000
   30.3590   -8.6027  -18.9862 C   0  0  0  0  0  0  0  0  0  0  0  0
   29.7477   -9.4329  -17.8777 C   0  0  1  0  0  0  0  0  0  0  0  0
   28.9981   -8.5722  -17.0780 O   0  0  0  0  0  0  0  0  0  0  0  0
   28.8017  -10.4365  -18.4895 C   0  0  2  0  0  0  0  0  0  0  0  0
   27.8068   -9.6831  -19.2315 N   0  0  0  0  0  0  0  0  0  0  0  0
   28.1929  -11.3372  -17.5113 C   0  0  0  0  0  0  0  0  0  0  0  0
   28.9549  -12.1240  -16.8717 O   0  0  0  0  0  0  0  0  0  0  0  0
   23.8510  -11.6991  -16.7637 O   0  0  0  0  0  0  0  0  0  0  0  0
   24.9022  -11.3766  -15.9225 C   0  0  0  0  0  0  0  0  0  0  0  0
   26.1185  -12.1670  -16.3507 C   0  0  2  0  0  0  0  0  0  0  0  0
   26.7922  -11.3083  -17.3069 N   0  0  0  0  0  0  0  0  0  0  0  0
   25.8504  -13.4861  -16.9173 C   0  0  0  0  0  0  0  0  0  0  0  0
   25.7744  -13.5020  -18.2028 O   0  0  0  0  0  0  0  0  0  0  0  0
   25.6710  -14.7080  -16.2615 N   0  0  0  0  0  0  0  0  0  0  0  0
   25.5613  -15.0828  -14.8657 C   0  0  0  0  0  0  0  0  0  0  0  0
   26.1642  -16.4923  -14.7735 C   0  0  0  0  0  0  0  0  0  0  0  0
   26.5482  -16.8368  -16.1969 C   0  0  0  0  0  0  0  0  0  0  0  0
   25.5346  -16.0015  -16.9462 C   0  0  1  0  0  0  0  0  0  0  0  0
   24.1741  -16.5283  -16.8499 C   0  0  0  0  0  0  0  0  0  0  0  0
   23.2675  -15.9983  -16.1663 O   0  0  0  0  0  0  0  0  0  0  0  0
   23.8724  -17.6829  -17.5582 O   0  0  0  0  0  0  0  0  0  0  0  0
  2  4  1  0
  2  1  1  6
  3  2  1  0
  4  5  1  1
  6  4  1  0
  6 11  1  0
  7  6  2  0
  9  8  1  0
 10 12  1  0
 10 11  1  0
 10  9  1  6
 12 14  1  0
 13 12  2  0
 14 15  1  0
 14 18  1  0
 15 16  1  0
 17 16  1  0
 17 18  1  0
 18 19  1  1
 19 20  2  0
 19 21  1  0
M  END
$$$$
