TSP.pdb
     RDKit          3D

 21 21  0  0  1  0  0  0  0  0999 V2000
   13.4683  -10.3863  -14.4454 C   0  0  0  0  0  0  0  0  0  0  0  0
   13.9884  -11.7713  -14.1244 C   0  0  1  0  0  0  0  0  0  0  0  0
   13.6623  -12.5976  -15.1983 O   0  0  0  0  0  0  0  0  0  0  0  0
   15.4929  -11.7130  -14.0266 C   0  0  2  0  0  0  0  0  0  0  0  0
   15.9578  -13.0744  -13.8308 N   0  0  0  0  0  0  0  0  0  0  0  0
   15.9759  -10.8111  -12.9817 C   0  0  0  0  0  0  0  0  0  0  0  0
   15.7882  -11.1458  -11.7728 O   0  0  0  0  0  0  0  0  0  0  0  0
   18.9459   -7.1482  -12.1868 O   0  0  0  0  0  0  0  0  0  0  0  0
   18.3322   -8.0193  -13.0707 C   0  0  0  0  0  0  0  0  0  0  0  0
   17.1750   -8.6861  -12.3609 C   0  0  2  0  0  0  0  0  0  0  0  0
   16.6298   -9.6075  -13.3404 N   0  0  0  0  0  0  0  0  0  0  0  0
   16.1454   -7.7880  -11.8448 C   0  0  0  0  0  0  0  0  0  0  0  0
   15.1935   -7.5439  -12.6771 O   0  0  0  0  0  0  0  0  0  0  0  0
   16.0585   -7.1731  -10.5919 N   0  0  0  0  0  0  0  0  0  0  0  0
   16.9020   -7.1897   -9.4134 C   0  0  0  0  0  0  0  0  0  0  0  0
   15.9443   -7.0248   -8.2242 C   0  0  0  0  0  0  0  0  0  0  0  0
   14.5752   -6.8802   -8.8543 C   0  0  0  0  0  0  0  0  0  0  0  0
   14.9666   -6.2774  -10.1847 C   0  0  1  0  0  0  0  0  0  0  0  0
   15.4124   -4.8891  -10.0760 C   0  0  0  0  0  0  0  0  0  0  0  0
   16.5993   -4.5226  -10.2405 O   0  0  0  0  0  0  0  0  0  0  0  0
   14.4631   -3.9233   -9.7730 O   0  0  0  0  0  0  0  0  0  0  0  0
  2  4  1  0
  2  1  1  6
  3  2  1  0
  4  5  1  1
  6  4  1  0
  6 11  1  0
  7  6  2  0
  9  8  1  0
 10 12  1  0
 10 11  1  0
 10  9  1  6
 12 14  1  0
 13 12  2  0
 14 15  1  0
 14 18  1  0
 15 16  1  0
 17 16  1  0
 17 18  1  0
 18 19  1  1
 19 20  2  0
 19 21  1  0
M  END
$$$$
