TSP.pdb
     RDKit          3D

 21 21  0  0  1  0  0  0  0  0999 V2000
   14.8288   -9.9968  -17.9350 C   0  0  0  0  0  0  0  0  0  0  0  0
   15.8380   -9.7897  -16.8258 C   0  0  1  0  0  0  0  0  0  0  0  0
   16.4171  -11.0278  -16.5536 O   0  0  0  0  0  0  0  0  0  0  0  0
   16.9254   -8.8710  -17.3258 C   0  0  2  0  0  0  0  0  0  0  0  0
   17.5446   -9.5272  -18.4633 N   0  0  0  0  0  0  0  0  0  0  0  0
   17.9030   -8.5104  -16.2996 C   0  0  0  0  0  0  0  0  0  0  0  0
   17.4823   -7.9245  -15.2564 O   0  0  0  0  0  0  0  0  0  0  0  0
   21.8014   -9.4432  -17.0632 O   0  0  0  0  0  0  0  0  0  0  0  0
   21.4009   -9.4408  -15.7380 C   0  0  0  0  0  0  0  0  0  0  0  0
   20.3101   -8.4067  -15.5689 C   0  0  2  0  0  0  0  0  0  0  0  0
   19.2711   -8.8194  -16.4939 N   0  0  0  0  0  0  0  0  0  0  0  0
   20.7087   -7.0209  -15.8008 C   0  0  0  0  0  0  0  0  0  0  0  0
   20.3050   -6.5373  -16.9240 O   0  0  0  0  0  0  0  0  0  0  0  0
   21.4535   -6.1681  -14.9803 N   0  0  0  0  0  0  0  0  0  0  0  0
   22.1154   -6.3421  -13.7026 C   0  0  0  0  0  0  0  0  0  0  0  0
   22.0350   -4.9727  -13.0120 C   0  0  0  0  0  0  0  0  0  0  0  0
   21.3378   -4.0794  -14.0162 C   0  0  0  0  0  0  0  0  0  0  0  0
   21.7502   -4.7644  -15.2997 C   0  0  1  0  0  0  0  0  0  0  0  0
   23.1613   -4.5665  -15.6273 C   0  0  0  0  0  0  0  0  0  0  0  0
   24.0516   -5.4246  -15.4243 O   0  0  0  0  0  0  0  0  0  0  0  0
   23.5332   -3.3565  -16.1961 O   0  0  0  0  0  0  0  0  0  0  0  0
  2  4  1  0
  2  1  1  6
  3  2  1  0
  4  5  1  6
  6  4  1  0
  6 11  1  0
  7  6  2  0
  9  8  1  0
 10 12  1  0
 10 11  1  0
 10  9  1  6
 12 14  1  0
 13 12  2  0
 14 15  1  0
 14 18  1  0
 15 16  1  0
 17 16  1  0
 17 18  1  0
 18 19  1  1
 19 20  2  0
 19 21  1  0
M  END
$$$$
