TSP.pdb
     RDKit          3D

 21 21  0  0  1  0  0  0  0  0999 V2000
   20.9912  -10.4720  -19.8307 C   0  0  0  0  0  0  0  0  0  0  0  0
   20.5040  -11.8791  -19.5577 C   0  0  1  0  0  0  0  0  0  0  0  0
   20.9332  -12.6804  -20.6140 O   0  0  0  0  0  0  0  0  0  0  0  0
   21.1628  -12.3838  -18.2977 C   0  0  2  0  0  0  0  0  0  0  0  0
   20.8044  -13.7844  -18.1641 N   0  0  0  0  0  0  0  0  0  0  0  0
   20.8143  -11.6106  -17.1063 C   0  0  0  0  0  0  0  0  0  0  0  0
   19.6288  -11.6998  -16.6645 O   0  0  0  0  0  0  0  0  0  0  0  0
   23.7119  -10.5169  -14.6445 O   0  0  0  0  0  0  0  0  0  0  0  0
   22.3928  -10.5893  -14.2306 C   0  0  0  0  0  0  0  0  0  0  0  0
   21.5181   -9.9924  -15.3105 C   0  0  2  0  0  0  0  0  0  0  0  0
   21.7931  -10.7962  -16.4869 N   0  0  0  0  0  0  0  0  0  0  0  0
   21.7220   -8.5712  -15.5781 C   0  0  0  0  0  0  0  0  0  0  0  0
   22.5821   -8.3275  -16.5051 O   0  0  0  0  0  0  0  0  0  0  0  0
   21.1175   -7.4643  -14.9742 N   0  0  0  0  0  0  0  0  0  0  0  0
   20.1204   -7.3187  -13.9324 C   0  0  0  0  0  0  0  0  0  0  0  0
   19.3513   -6.0359  -14.2807 C   0  0  0  0  0  0  0  0  0  0  0  0
   20.0312   -5.5099  -15.5270 C   0  0  0  0  0  0  0  0  0  0  0  0
   21.4210   -6.0675  -15.3166 C   0  0  1  0  0  0  0  0  0  0  0  0
   22.1542   -5.3912  -14.2476 C   0  0  0  0  0  0  0  0  0  0  0  0
   22.6156   -4.2302  -14.3443 O   0  0  0  0  0  0  0  0  0  0  0  0
   22.3488   -6.0779  -13.0575 O   0  0  0  0  0  0  0  0  0  0  0  0
  2  4  1  0
  2  1  1  6
  3  2  1  0
  4  5  1  1
  6  4  1  0
  6 11  1  0
  7  6  2  0
  9  8  1  0
 10 12  1  0
 10 11  1  0
 10  9  1  1
 12 14  1  0
 13 12  2  0
 14 15  1  0
 14 18  1  0
 15 16  1  0
 17 16  1  0
 17 18  1  0
 18 19  1  1
 19 20  2  0
 19 21  1  0
M  END
$$$$
