REC.pdb
     RDKit          3D

 27 26  0  0  1  0  0  0  0  0999 V2000
    7.5091  -13.4871   15.8509 N   0  0  0  0  0  0  0  0  0  0  0  0
    8.0148  -13.6186   17.1661 C   0  0  0  0  0  0  0  0  0  0  0  0
    8.1059  -12.5931   17.9239 N   0  0  0  0  0  0  0  0  0  0  0  0
    8.4230  -14.8977   17.6269 N   0  0  0  0  0  0  0  0  0  0  0  0
    7.8594  -15.5157   18.7934 C   0  0  0  0  0  0  0  0  0  0  0  0
    7.4688  -14.4996   19.8457 C   0  0  0  0  0  0  0  0  0  0  0  0
    7.1058  -15.1641   21.1639 C   0  0  0  0  0  0  0  0  0  0  0  0
    7.8258  -16.4744   21.1905 C   0  0  2  0  0  0  0  0  0  0  0  0
    6.8898  -17.5353   20.9238 N   0  0  0  0  0  0  0  0  0  0  0  0
    8.5665  -16.7512   22.4179 C   0  0  0  0  0  0  0  0  0  0  0  0
    7.9518  -17.2979   23.3662 O   0  0  0  0  0  0  0  0  0  0  0  0
    8.4880  -12.6886   18.8912 N   0  0  0  0  0  0  0  0  0  0  0  0
    9.9479  -16.4393   22.6109 C   0  0  2  0  0  0  0  0  0  0  0  0
   10.5781  -16.7312   23.8839 C   0  0  0  0  0  0  0  0  0  0  0  0
   12.0302  -17.0179   23.6570 C   0  0  0  0  0  0  0  0  0  0  0  0
   12.2458  -18.2536   22.8150 C   0  0  0  0  0  0  0  0  0  0  0  0
   13.7009  -18.4331   22.6182 O   0  0  0  0  0  0  0  0  0  0  0  0
   14.1784  -19.6056   22.5432 C   0  0  0  0  0  0  0  0  0  0  0  0
   10.3639  -15.6052   24.8331 O   0  0  0  0  0  0  0  0  0  0  0  0
   10.5130  -14.4370   24.4224 O   0  0  0  0  0  0  0  0  0  0  0  0
   14.5791  -17.3754   22.5131 N   0  0  0  0  0  0  0  0  0  0  0  0
    9.9964  -15.8210   26.1835 C   0  0  1  0  0  0  0  0  0  0  0  0
    9.9743  -14.7633   27.1717 C   0  0  0  0  0  0  0  0  0  0  0  0
    8.5877  -14.1479   27.2104 S   0  0  0  0  0  0  0  0  0  0  0  0
    8.5482  -12.9236   28.5391 C   0  0  0  0  0  0  0  0  0  0  0  0
   10.2874  -15.3320   28.4976 O   0  0  0  0  0  0  0  0  0  0  0  0
   10.6478  -14.5768   29.6121 O   0  0  0  0  0  0  0  0  0  0  0  0
  2  1  1  0
  3  2  2  0
  4  2  1  0
  5  4  1  0
  6  5  1  0
  7  6  1  0
  8  9  1  1
  8 10  1  0
  8  7  1  0
 10 12  1  0
 11 10  2  0
 12 13  1  0
 13 14  1  6
 14 15  1  0
 15 16  1  0
 16 20  1  0
 17 16  2  0
 18 19  2  0
 18 13  1  0
 21 18  1  0
 22 21  1  0
 22 23  1  1
 24 23  1  0
 25 22  1  0
 26 25  1  0
 27 25  2  0
M  END
$$$$
