REC.pdb
     RDKit          3D

 27 26  0  0  1  0  0  0  0  0999 V2000
    6.9458  -15.3538   15.6013 N   0  0  0  0  0  0  0  0  0  0  0  0
    8.2317  -14.7664   15.6686 C   0  0  0  0  0  0  0  0  0  0  0  0
    9.1888  -15.2351   14.9625 N   0  0  0  0  0  0  0  0  0  0  0  0
    8.4435  -13.6593   16.5316 N   0  0  0  0  0  0  0  0  0  0  0  0
    8.0365  -13.6626   17.9081 C   0  0  0  0  0  0  0  0  0  0  0  0
    6.8946  -14.6233   18.1636 C   0  0  0  0  0  0  0  0  0  0  0  0
    7.0211  -15.3020   19.5180 C   0  0  0  0  0  0  0  0  0  0  0  0
    7.8710  -14.4074   20.3627 C   0  0  2  0  0  0  0  0  0  0  0  0
    9.0224  -13.9928   19.6043 N   0  0  0  0  0  0  0  0  0  0  0  0
    8.2865  -14.9730   21.6430 C   0  0  0  0  0  0  0  0  0  0  0  0
    7.4026  -15.4749   22.3799 O   0  0  0  0  0  0  0  0  0  0  0  0
   10.1331  -14.7905   14.9988 N   0  0  0  0  0  0  0  0  0  0  0  0
    9.6360  -14.9921   22.1133 C   0  0  1  0  0  0  0  0  0  0  0  0
    9.9389  -15.5887   23.3998 C   0  0  0  0  0  0  0  0  0  0  0  0
   11.3665  -16.0407   23.4060 C   0  0  0  0  0  0  0  0  0  0  0  0
   11.5944  -17.2324   22.5059 C   0  0  0  0  0  0  0  0  0  0  0  0
   13.0398  -17.5475   22.5100 O   0  0  0  0  0  0  0  0  0  0  0  0
   13.8559  -16.7173   23.0133 C   0  0  0  0  0  0  0  0  0  0  0  0
    9.6444  -14.6249   24.4949 O   0  0  0  0  0  0  0  0  0  0  0  0
    9.8520  -13.4109   24.2982 O   0  0  0  0  0  0  0  0  0  0  0  0
   13.5541  -18.7138   21.9845 N   0  0  0  0  0  0  0  0  0  0  0  0
    9.1365  -15.0446   25.7482 C   0  0  1  0  0  0  0  0  0  0  0  0
    8.6737  -14.1184   26.7599 C   0  0  0  0  0  0  0  0  0  0  0  0
    7.4140  -13.4313   26.2660 S   0  0  0  0  0  0  0  0  0  0  0  0
    6.7602  -12.4136   27.6088 C   0  0  0  0  0  0  0  0  0  0  0  0
    8.3639  -14.8649   27.9954 O   0  0  0  0  0  0  0  0  0  0  0  0
    8.2936  -16.2543   28.0781 O   0  0  0  0  0  0  0  0  0  0  0  0
  2  1  1  0
  3  2  2  0
  4  2  1  0
  5  4  1  0
  6  5  1  0
  7  6  1  0
  8  9  1  6
  8 10  1  0
  8  7  1  0
 10 12  1  0
 11 10  2  0
 12 13  1  0
 13 14  1  6
 14 15  1  0
 15 16  1  0
 16 20  1  0
 17 16  2  0
 18 19  2  0
 18 13  1  0
 21 18  1  0
 22 21  1  0
 22 23  1  1
 24 23  1  0
 25 22  1  0
 26 25  1  0
 27 25  2  0
M  END
$$$$
