REC.pdb
     RDKit          3D

 27 26  0  0  1  0  0  0  0  0999 V2000
    5.3249  -22.7270   16.1489 N   0  0  0  0  0  0  0  0  0  0  0  0
    6.3072  -21.9833   15.4525 C   0  0  0  0  0  0  0  0  0  0  0  0
    6.0098  -21.3956   14.3569 N   0  0  0  0  0  0  0  0  0  0  0  0
    7.6219  -21.9051   15.9823 N   0  0  0  0  0  0  0  0  0  0  0  0
    7.9354  -22.2796   17.3321 C   0  0  0  0  0  0  0  0  0  0  0  0
    7.6209  -21.1751   18.3188 C   0  0  0  0  0  0  0  0  0  0  0  0
    7.8455  -21.6211   19.7546 C   0  0  0  0  0  0  0  0  0  0  0  0
    9.1319  -20.9992   20.1954 C   0  0  2  0  0  0  0  0  0  0  0  0
   10.0455  -20.9611   19.0833 N   0  0  0  0  0  0  0  0  0  0  0  0
    9.7655  -21.6334   21.3478 C   0  0  0  0  0  0  0  0  0  0  0  0
    9.0906  -21.7522   22.3997 O   0  0  0  0  0  0  0  0  0  0  0  0
    6.7520  -20.9126   13.8031 N   0  0  0  0  0  0  0  0  0  0  0  0
   11.1064  -22.1282   21.3569 C   0  0  1  0  0  0  0  0  0  0  0  0
   11.6642  -22.6660   22.5826 C   0  0  0  0  0  0  0  0  0  0  0  0
   12.7393  -23.6507   22.2405 C   0  0  0  0  0  0  0  0  0  0  0  0
   13.9002  -23.0050   21.5211 C   0  0  0  0  0  0  0  0  0  0  0  0
   14.9565  -24.0240   21.3365 O   0  0  0  0  0  0  0  0  0  0  0  0
   14.7651  -25.2027   21.7637 C   0  0  0  0  0  0  0  0  0  0  0  0
   12.1608  -21.5621   23.4484 O   0  0  0  0  0  0  0  0  0  0  0  0
   12.7145  -20.5814   22.9125 O   0  0  0  0  0  0  0  0  0  0  0  0
   16.1582  -23.7541   20.7167 N   0  0  0  0  0  0  0  0  0  0  0  0
   12.0226  -21.5926   24.8573 C   0  0  1  0  0  0  0  0  0  0  0  0
   12.5277  -20.5460   25.7204 C   0  0  0  0  0  0  0  0  0  0  0  0
   11.3977  -19.5907   26.0572 S   0  0  0  0  0  0  0  0  0  0  0  0
   10.0743  -20.5346   26.8468 C   0  0  0  0  0  0  0  0  0  0  0  0
   13.0375  -21.1497   26.9675 O   0  0  0  0  0  0  0  0  0  0  0  0
   13.7589  -20.4578   27.9387 O   0  0  0  0  0  0  0  0  0  0  0  0
  2  1  1  0
  3  2  2  0
  4  2  1  0
  5  4  1  0
  6  5  1  0
  7  6  1  0
  8  9  1  6
  8 10  1  0
  8  7  1  0
 10 12  1  0
 11 10  2  0
 12 13  1  0
 13 14  1  1
 14 15  1  0
 15 16  1  0
 16 20  1  0
 17 16  2  0
 18 19  2  0
 18 13  1  0
 21 18  1  0
 22 21  1  0
 22 23  1  1
 24 23  1  0
 25 22  1  0
 26 25  1  0
 27 25  2  0
M  END
$$$$
