REC.pdb
     RDKit          3D

 27 26  0  0  1  0  0  0  0  0999 V2000
    6.9967  -14.0447   15.7062 N   0  0  0  0  0  0  0  0  0  0  0  0
    8.1212  -14.7598   16.1827 C   0  0  0  0  0  0  0  0  0  0  0  0
    8.3931  -15.9163   15.7104 N   0  0  0  0  0  0  0  0  0  0  0  0
    8.9346  -14.1802   17.1913 N   0  0  0  0  0  0  0  0  0  0  0  0
    8.4637  -13.1411   18.0626 C   0  0  0  0  0  0  0  0  0  0  0  0
    7.2239  -13.5549   18.8267 C   0  0  0  0  0  0  0  0  0  0  0  0
    7.5228  -14.6535   19.8340 C   0  0  0  0  0  0  0  0  0  0  0  0
    8.4200  -14.0492   20.8664 C   0  0  2  0  0  0  0  0  0  0  0  0
    9.6246  -13.5807   20.2321 N   0  0  0  0  0  0  0  0  0  0  0  0
    8.7476  -14.9207   21.9911 C   0  0  0  0  0  0  0  0  0  0  0  0
    7.8121  -15.2894   22.7427 O   0  0  0  0  0  0  0  0  0  0  0  0
    9.2064  -16.4560   16.0820 N   0  0  0  0  0  0  0  0  0  0  0  0
   10.0663  -15.3817   22.2933 C   0  0  1  0  0  0  0  0  0  0  0  0
   10.2773  -16.2571   23.4300 C   0  0  0  0  0  0  0  0  0  0  0  0
   11.3600  -17.2371   23.0990 C   0  0  0  0  0  0  0  0  0  0  0  0
   10.8554  -18.3866   22.2586 C   0  0  0  0  0  0  0  0  0  0  0  0
   11.9934  -19.2877   21.9734 O   0  0  0  0  0  0  0  0  0  0  0  0
   11.9848  -20.4671   22.4396 C   0  0  0  0  0  0  0  0  0  0  0  0
   10.5898  -15.4554   24.6444 O   0  0  0  0  0  0  0  0  0  0  0  0
   10.9508  -14.2698   24.5046 O   0  0  0  0  0  0  0  0  0  0  0  0
   13.0811  -18.9051   21.2175 N   0  0  0  0  0  0  0  0  0  0  0  0
   10.4885  -15.9975   25.9486 C   0  0  1  0  0  0  0  0  0  0  0  0
   10.4234  -15.1765   27.1391 C   0  0  0  0  0  0  0  0  0  0  0  0
    9.2135  -14.2651   27.0490 S   0  0  0  0  0  0  0  0  0  0  0  0
    9.1652  -13.2390   28.5359 C   0  0  0  0  0  0  0  0  0  0  0  0
   10.2842  -16.0485   28.3223 O   0  0  0  0  0  0  0  0  0  0  0  0
   10.7804  -15.7418   29.5881 O   0  0  0  0  0  0  0  0  0  0  0  0
  2  1  1  0
  3  2  2  0
  4  2  1  0
  5  4  1  0
  6  5  1  0
  7  6  1  0
  8  9  1  6
  8 10  1  0
  8  7  1  0
 10 12  1  0
 11 10  2  0
 12 13  1  0
 13 14  1  1
 14 15  1  0
 15 16  1  0
 16 20  1  0
 17 16  2  0
 18 19  2  0
 18 13  1  0
 21 18  1  0
 22 21  1  0
 22 23  1  1
 24 23  1  0
 25 22  1  0
 26 25  1  0
 27 25  2  0
M  END
$$$$
