REC.pdb
     RDKit          3D

 27 26  0  0  1  0  0  0  0  0999 V2000
    9.3562  -15.0660   16.7129 N   0  0  0  0  0  0  0  0  0  0  0  0
    8.4471  -14.1481   16.1353 C   0  0  0  0  0  0  0  0  0  0  0  0
    8.3057  -14.0981   14.8657 N   0  0  0  0  0  0  0  0  0  0  0  0
    7.7033  -13.2842   16.9811 N   0  0  0  0  0  0  0  0  0  0  0  0
    7.5217  -13.5408   18.3817 C   0  0  0  0  0  0  0  0  0  0  0  0
    7.1958  -14.9932   18.6585 C   0  0  0  0  0  0  0  0  0  0  0  0
    6.8812  -15.2305   20.1267 C   0  0  0  0  0  0  0  0  0  0  0  0
    8.1871  -15.5052   20.8011 C   0  0  2  0  0  0  0  0  0  0  0  0
    8.7215  -16.7490   20.3110 N   0  0  0  0  0  0  0  0  0  0  0  0
    8.1425  -15.5150   22.2604 C   0  0  0  0  0  0  0  0  0  0  0  0
    7.4787  -14.6179   22.8355 O   0  0  0  0  0  0  0  0  0  0  0  0
    7.6423  -13.4135   14.4389 N   0  0  0  0  0  0  0  0  0  0  0  0
    8.8068  -16.4804   23.0786 C   0  0  2  0  0  0  0  0  0  0  0  0
    8.5845  -16.4811   24.5115 C   0  0  0  0  0  0  0  0  0  0  0  0
    9.4528  -17.5260   25.1413 C   0  0  0  0  0  0  0  0  0  0  0  0
    9.5044  -18.7963   24.3254 C   0  0  0  0  0  0  0  0  0  0  0  0
   10.4643  -19.7213   24.9669 O   0  0  0  0  0  0  0  0  0  0  0  0
   11.1134  -19.3356   25.9859 C   0  0  0  0  0  0  0  0  0  0  0  0
    8.8336  -15.1244   25.0704 O   0  0  0  0  0  0  0  0  0  0  0  0
    9.9177  -14.5613   24.8190 O   0  0  0  0  0  0  0  0  0  0  0  0
   10.6954  -20.9999   24.5057 N   0  0  0  0  0  0  0  0  0  0  0  0
    7.8789  -14.4568   25.8753 C   0  0  2  0  0  0  0  0  0  0  0  0
    8.1267  -13.1669   26.4839 C   0  0  0  0  0  0  0  0  0  0  0  0
    6.8642  -12.3287   26.4038 S   0  0  0  0  0  0  0  0  0  0  0  0
    5.5278  -13.2388   27.2111 C   0  0  0  0  0  0  0  0  0  0  0  0
    8.4882  -13.3613   27.9020 O   0  0  0  0  0  0  0  0  0  0  0  0
    8.4736  -14.5921   28.5558 O   0  0  0  0  0  0  0  0  0  0  0  0
  2  1  1  0
  3  2  2  0
  4  2  1  0
  5  4  1  0
  6  5  1  0
  7  6  1  0
  8  9  1  6
  8 10  1  0
  8  7  1  0
 10 12  1  0
 11 10  2  0
 12 13  1  0
 13 14  1  6
 14 15  1  0
 15 16  1  0
 16 20  1  0
 17 16  2  0
 18 19  2  0
 18 13  1  0
 21 18  1  0
 22 21  1  0
 22 23  1  6
 24 23  1  0
 25 22  1  0
 26 25  1  0
 27 25  2  0
M  END
$$$$
