REC.pdb
     RDKit          3D

 27 26  0  0  1  0  0  0  0  0999 V2000
    9.7310  -14.3022   16.8576 N   0  0  0  0  0  0  0  0  0  0  0  0
    8.7239  -13.7984   16.0004 C   0  0  0  0  0  0  0  0  0  0  0  0
    8.9056  -13.7863   14.7351 N   0  0  0  0  0  0  0  0  0  0  0  0
    7.5184  -13.3037   16.5635 N   0  0  0  0  0  0  0  0  0  0  0  0
    7.1302  -13.5729   17.9189 C   0  0  0  0  0  0  0  0  0  0  0  0
    8.2994  -14.0228   18.7692 C   0  0  0  0  0  0  0  0  0  0  0  0
    7.8812  -14.2923   20.2056 C   0  0  0  0  0  0  0  0  0  0  0  0
    8.2223  -15.7210   20.4855 C   0  0  2  0  0  0  0  0  0  0  0  0
    7.2908  -16.5748   19.7955 N   0  0  0  0  0  0  0  0  0  0  0  0
    8.2837  -16.0793   21.8996 C   0  0  0  0  0  0  0  0  0  0  0  0
    7.2230  -16.4488   22.4602 O   0  0  0  0  0  0  0  0  0  0  0  0
    8.1465  -13.4529   14.0999 N   0  0  0  0  0  0  0  0  0  0  0  0
    9.4746  -16.0362   22.6888 C   0  0  1  0  0  0  0  0  0  0  0  0
    9.4114  -16.3603   24.1008 C   0  0  0  0  0  0  0  0  0  0  0  0
   10.6237  -17.1555   24.4753 C   0  0  0  0  0  0  0  0  0  0  0  0
   10.6855  -18.4809   23.7531 C   0  0  0  0  0  0  0  0  0  0  0  0
   11.9108  -19.1882   24.1851 O   0  0  0  0  0  0  0  0  0  0  0  0
   11.9240  -19.7815   25.3060 C   0  0  0  0  0  0  0  0  0  0  0  0
    9.2772  -15.1168   24.9075 O   0  0  0  0  0  0  0  0  0  0  0  0
   10.1402  -14.2249   24.7840 O   0  0  0  0  0  0  0  0  0  0  0  0
   13.0581  -19.2345   23.4218 N   0  0  0  0  0  0  0  0  0  0  0  0
    8.2019  -14.9177   25.8070 C   0  0  1  0  0  0  0  0  0  0  0  0
    8.1025  -13.7602   26.6707 C   0  0  0  0  0  0  0  0  0  0  0  0
    6.6638  -13.2778   26.6919 S   0  0  0  0  0  0  0  0  0  0  0  0
    6.1573  -12.9316   24.9920 C   0  0  0  0  0  0  0  0  0  0  0  0
    8.5045  -14.1405   28.0394 O   0  0  0  0  0  0  0  0  0  0  0  0
    8.8890  -15.4256   28.4177 O   0  0  0  0  0  0  0  0  0  0  0  0
  2  1  1  0
  3  2  2  0
  4  2  1  0
  5  4  1  0
  6  5  1  0
  7  6  1  0
  8  9  1  6
  8 10  1  0
  8  7  1  0
 10 12  1  0
 11 10  2  0
 12 13  1  0
 13 14  1  6
 14 15  1  0
 15 16  1  0
 16 20  1  0
 17 16  2  0
 18 19  2  0
 18 13  1  0
 21 18  1  0
 22 21  1  0
 22 23  1  1
 24 23  1  0
 25 22  1  0
 26 25  1  0
 27 25  2  0
M  END
$$$$
