REC.pdb
     RDKit          3D

 27 26  0  0  1  0  0  0  0  0999 V2000
    8.1640  -13.6962   16.2302 N   0  0  0  0  0  0  0  0  0  0  0  0
    8.5133  -13.6020   17.5984 C   0  0  0  0  0  0  0  0  0  0  0  0
    8.7872  -12.4646   18.1137 N   0  0  0  0  0  0  0  0  0  0  0  0
    8.5610  -14.7832   18.3843 N   0  0  0  0  0  0  0  0  0  0  0  0
    8.0773  -16.0484   17.9091 C   0  0  0  0  0  0  0  0  0  0  0  0
    6.7357  -16.4094   18.5109 C   0  0  0  0  0  0  0  0  0  0  0  0
    6.8855  -17.0340   19.8887 C   0  0  0  0  0  0  0  0  0  0  0  0
    7.9403  -16.2471   20.5985 C   0  0  2  0  0  0  0  0  0  0  0  0
    9.2383  -16.7113   20.1830 N   0  0  0  0  0  0  0  0  0  0  0  0
    7.8445  -16.2528   22.0554 C   0  0  0  0  0  0  0  0  0  0  0  0
    6.7424  -15.9492   22.5745 O   0  0  0  0  0  0  0  0  0  0  0  0
    9.0375  -12.3942   19.1253 N   0  0  0  0  0  0  0  0  0  0  0  0
    8.9255  -16.5814   22.9308 C   0  0  2  0  0  0  0  0  0  0  0  0
    8.7154  -16.5702   24.3656 C   0  0  0  0  0  0  0  0  0  0  0  0
    9.8395  -17.3025   25.0308 C   0  0  0  0  0  0  0  0  0  0  0  0
    9.5338  -18.7693   25.2232 C   0  0  0  0  0  0  0  0  0  0  0  0
   10.7230  -19.4171   25.8186 O   0  0  0  0  0  0  0  0  0  0  0  0
   11.5802  -19.9618   25.0591 C   0  0  0  0  0  0  0  0  0  0  0  0
    8.5823  -15.1708   24.8542 O   0  0  0  0  0  0  0  0  0  0  0  0
    9.3649  -14.3046   24.4152 O   0  0  0  0  0  0  0  0  0  0  0  0
   10.9501  -19.4624   27.1778 N   0  0  0  0  0  0  0  0  0  0  0  0
    7.5962  -14.7957   25.7986 C   0  0  2  0  0  0  0  0  0  0  0  0
    7.5210  -13.4691   26.3731 C   0  0  0  0  0  0  0  0  0  0  0  0
    6.0816  -12.9902   26.3317 S   0  0  0  0  0  0  0  0  0  0  0  0
    5.9912  -11.3939   27.1741 C   0  0  0  0  0  0  0  0  0  0  0  0
    7.9718  -13.5228   27.7780 O   0  0  0  0  0  0  0  0  0  0  0  0
    8.2561  -12.4021   28.5561 O   0  0  0  0  0  0  0  0  0  0  0  0
  2  1  1  0
  3  2  2  0
  4  2  1  0
  5  4  1  0
  6  5  1  0
  7  6  1  0
  8  9  1  1
  8 10  1  0
  8  7  1  0
 10 12  1  0
 11 10  2  0
 12 13  1  0
 13 14  1  6
 14 15  1  0
 15 16  1  0
 16 20  1  0
 17 16  2  0
 18 19  2  0
 18 13  1  0
 21 18  1  0
 22 21  1  0
 22 23  1  1
 24 23  1  0
 25 22  1  0
 26 25  1  0
 27 25  2  0
M  END
$$$$
