REC.pdb
     RDKit          3D

 27 26  0  0  1  0  0  0  0  0999 V2000
    8.6688  -13.0207   15.5771 N   0  0  0  0  0  0  0  0  0  0  0  0
    8.3325  -13.8049   16.7061 C   0  0  0  0  0  0  0  0  0  0  0  0
    8.6194  -13.3929   17.8818 N   0  0  0  0  0  0  0  0  0  0  0  0
    7.6811  -15.0516   16.5148 N   0  0  0  0  0  0  0  0  0  0  0  0
    7.1131  -15.8019   17.5987 C   0  0  0  0  0  0  0  0  0  0  0  0
    7.4084  -15.1739   18.9443 C   0  0  0  0  0  0  0  0  0  0  0  0
    6.7450  -15.9362   20.0800 C   0  0  0  0  0  0  0  0  0  0  0  0
    7.7900  -16.8410   20.6505 C   0  0  2  0  0  0  0  0  0  0  0  0
    7.5659  -18.1820   20.1768 N   0  0  0  0  0  0  0  0  0  0  0  0
    7.8927  -16.8304   22.1069 C   0  0  0  0  0  0  0  0  0  0  0  0
    6.8751  -17.1452   22.7715 O   0  0  0  0  0  0  0  0  0  0  0  0
    8.3588  -13.9652   18.7157 N   0  0  0  0  0  0  0  0  0  0  0  0
    9.0778  -16.4839   22.8267 C   0  0  2  0  0  0  0  0  0  0  0  0
    9.0358  -16.3855   24.2728 C   0  0  0  0  0  0  0  0  0  0  0  0
   10.3263  -16.8953   24.8360 C   0  0  0  0  0  0  0  0  0  0  0  0
   10.2883  -18.3820   25.1015 C   0  0  0  0  0  0  0  0  0  0  0  0
   11.6000  -18.7889   25.6513 O   0  0  0  0  0  0  0  0  0  0  0  0
   11.6702  -19.2098   26.8456 C   0  0  0  0  0  0  0  0  0  0  0  0
    8.7520  -14.9836   24.6841 O   0  0  0  0  0  0  0  0  0  0  0  0
    9.4995  -14.0741   24.2725 O   0  0  0  0  0  0  0  0  0  0  0  0
   12.7688  -18.7311   24.9222 N   0  0  0  0  0  0  0  0  0  0  0  0
    7.6616  -14.6539   25.5251 C   0  0  2  0  0  0  0  0  0  0  0  0
    7.4890  -13.3419   26.1119 C   0  0  0  0  0  0  0  0  0  0  0  0
    6.0120  -13.0998   26.3628 S   0  0  0  0  0  0  0  0  0  0  0  0
    5.8324  -11.5043   27.1923 C   0  0  0  0  0  0  0  0  0  0  0  0
    8.2126  -13.2867   27.3976 O   0  0  0  0  0  0  0  0  0  0  0  0
    8.6754  -12.1131   27.9899 O   0  0  0  0  0  0  0  0  0  0  0  0
  2  1  1  0
  3  2  2  0
  4  2  1  0
  5  4  1  0
  6  5  1  0
  7  6  1  0
  8  9  1  1
  8 10  1  0
  8  7  1  0
 10 12  1  0
 11 10  2  0
 12 13  1  0
 13 14  1  6
 14 15  1  0
 15 16  1  0
 16 20  1  0
 17 16  2  0
 18 19  2  0
 18 13  1  0
 21 18  1  0
 22 21  1  0
 22 23  1  1
 24 23  1  0
 25 22  1  0
 26 25  1  0
 27 25  2  0
M  END
$$$$
