REC.pdb
     RDKit          3D

 27 26  0  0  1  0  0  0  0  0999 V2000
    7.8101  -14.3214   13.9253 N   0  0  0  0  0  0  0  0  0  0  0  0
    8.6572  -14.4829   15.0474 C   0  0  0  0  0  0  0  0  0  0  0  0
    9.7556  -13.8329   15.1209 N   0  0  0  0  0  0  0  0  0  0  0  0
    8.2746  -15.3770   16.0815 N   0  0  0  0  0  0  0  0  0  0  0  0
    7.2563  -15.0586   17.0418 C   0  0  0  0  0  0  0  0  0  0  0  0
    7.5279  -13.7475   17.7486 C   0  0  0  0  0  0  0  0  0  0  0  0
    7.0788  -13.7861   19.2004 C   0  0  0  0  0  0  0  0  0  0  0  0
    8.3235  -13.8135   20.0286 C   0  0  2  0  0  0  0  0  0  0  0  0
    9.3781  -14.4446   19.2787 N   0  0  0  0  0  0  0  0  0  0  0  0
    8.1852  -14.4469   21.3368 C   0  0  0  0  0  0  0  0  0  0  0  0
    7.2471  -14.0665   22.0792 O   0  0  0  0  0  0  0  0  0  0  0  0
   10.4060  -13.9920   15.9224 N   0  0  0  0  0  0  0  0  0  0  0  0
    9.0500  -15.4731   21.8285 C   0  0  2  0  0  0  0  0  0  0  0  0
    8.8845  -15.9624   23.1835 C   0  0  0  0  0  0  0  0  0  0  0  0
    9.6772  -17.2219   23.3496 C   0  0  0  0  0  0  0  0  0  0  0  0
    9.6202  -17.7530   24.7627 C   0  0  0  0  0  0  0  0  0  0  0  0
   10.4081  -19.0037   24.8206 O   0  0  0  0  0  0  0  0  0  0  0  0
    9.9309  -20.0634   24.3130 C   0  0  0  0  0  0  0  0  0  0  0  0
    9.2783  -14.9113   24.1607 O   0  0  0  0  0  0  0  0  0  0  0  0
   10.4219  -14.4193   24.0850 O   0  0  0  0  0  0  0  0  0  0  0  0
   11.6525  -19.0790   25.4094 N   0  0  0  0  0  0  0  0  0  0  0  0
    8.3955  -14.4550   25.1694 C   0  0  2  0  0  0  0  0  0  0  0  0
    8.7913  -13.5120   26.1940 C   0  0  0  0  0  0  0  0  0  0  0  0
    7.7281  -12.4361   26.3169 S   0  0  0  0  0  0  0  0  0  0  0  0
    6.1683  -13.2299   26.7672 C   0  0  0  0  0  0  0  0  0  0  0  0
    8.9131  -14.2202   27.4837 O   0  0  0  0  0  0  0  0  0  0  0  0
    9.3948  -13.6412   28.6564 O   0  0  0  0  0  0  0  0  0  0  0  0
  2  1  1  0
  3  2  2  0
  4  2  1  0
  5  4  1  0
  6  5  1  0
  7  6  1  0
  8  9  1  6
  8 10  1  0
  8  7  1  0
 10 12  1  0
 11 10  2  0
 12 13  1  0
 13 14  1  6
 14 15  1  0
 15 16  1  0
 16 20  1  0
 17 16  2  0
 18 19  2  0
 18 13  1  0
 21 18  1  0
 22 21  1  0
 22 23  1  6
 24 23  1  0
 25 22  1  0
 26 25  1  0
 27 25  2  0
M  END
$$$$
