KGS.pdb
     RDKit          3D

 20 19  0  0  1  0  0  0  0  0999 V2000
    9.8209  -17.7172   16.4132 N   0  0  0  0  0  0  0  0  0  0  0  0
    9.5718  -19.0935   16.7650 C   0  0  1  0  0  0  0  0  0  0  0  0
   10.6728  -20.0014   16.2082 C   0  0  0  0  0  0  0  0  0  0  0  0
   11.0591  -19.4201   14.8676 C   0  0  0  0  0  0  0  0  0  0  0  0
   12.1350  -20.2188   14.1913 C   0  0  0  0  0  0  0  0  0  0  0  0
   12.3948  -19.5846   12.8387 C   0  0  0  0  0  0  0  0  0  0  0  0
   13.4113  -20.2688   12.0981 N   0  0  0  0  0  0  0  0  0  0  0  0
    9.5312  -19.3196   18.2169 C   0  0  0  0  0  0  0  0  0  0  0  0
    9.3353  -20.4618   18.6608 O   0  0  0  0  0  0  0  0  0  0  0  0
    9.7153  -18.2362   19.0931 N   0  0  0  0  0  0  0  0  0  0  0  0
    9.8141  -18.4818   20.5087 C   0  0  0  0  0  0  0  0  0  0  0  0
   10.8540  -17.5958   21.0681 C   0  0  0  0  0  0  0  0  0  0  0  0
   11.8714  -17.2248   20.4407 O   0  0  0  0  0  0  0  0  0  0  0  0
   10.5898  -16.6882   25.0173 O   0  0  0  0  0  0  0  0  0  0  0  0
   10.9990  -15.6221   24.2444 C   0  0  0  0  0  0  0  0  0  0  0  0
   11.6242  -16.1468   22.9666 C   0  0  2  0  0  0  0  0  0  0  0  0
   10.7107  -17.1216   22.4033 N   0  0  0  0  0  0  0  0  0  0  0  0
   12.9037  -16.8474   23.2451 C   0  0  0  0  0  0  0  0  0  0  0  0
   13.0281  -18.2378   23.1339 O   0  0  0  0  0  0  0  0  0  0  0  0
   13.9411  -16.2291   23.5948 O   0  0  0  0  0  0  0  0  0  0  0  0
  2  1  1  1
  3  2  1  0
  4  3  1  0
  5  4  1  0
  6  5  1  0
  7  6  1  0
  8  2  1  0
  9  8  2  0
 10  8  1  0
 11 10  1  0
 11 12  1  0
 12 17  1  0
 13 12  2  0
 15 14  1  0
 16 15  1  1
 16 18  1  0
 17 16  1  0
 18 20  2  0
 18 19  1  0
M  END
$$$$
