KGS.pdb
     RDKit          3D

 20 19  0  0  1  0  0  0  0  0999 V2000
    7.9406  -20.3242   16.4862 N   0  0  0  0  0  0  0  0  0  0  0  0
    8.8875  -21.2199   17.1035 C   0  0  1  0  0  0  0  0  0  0  0  0
    9.1788  -22.4131   16.1881 C   0  0  0  0  0  0  0  0  0  0  0  0
    9.4375  -21.8365   14.8152 C   0  0  0  0  0  0  0  0  0  0  0  0
    9.8685  -22.8848   13.8312 C   0  0  0  0  0  0  0  0  0  0  0  0
   10.1348  -22.1908   12.5095 C   0  0  0  0  0  0  0  0  0  0  0  0
   10.5511  -23.1012   11.4860 N   0  0  0  0  0  0  0  0  0  0  0  0
   10.1804  -20.5830   17.3924 C   0  0  0  0  0  0  0  0  0  0  0  0
   10.6249  -19.7100   16.6307 O   0  0  0  0  0  0  0  0  0  0  0  0
   10.9047  -20.9698   18.5331 N   0  0  0  0  0  0  0  0  0  0  0  0
   12.1680  -20.3386   18.8150 C   0  0  0  0  0  0  0  0  0  0  0  0
   12.6612  -20.8337   20.1154 C   0  0  0  0  0  0  0  0  0  0  0  0
   12.6762  -22.0406   20.4466 O   0  0  0  0  0  0  0  0  0  0  0  0
   14.1900  -18.0481   22.6830 O   0  0  0  0  0  0  0  0  0  0  0  0
   14.6597  -19.3349   22.8402 C   0  0  0  0  0  0  0  0  0  0  0  0
   13.5924  -20.3115   22.3864 C   0  0  2  0  0  0  0  0  0  0  0  0
   13.1553  -19.8971   21.0675 N   0  0  0  0  0  0  0  0  0  0  0  0
   12.4080  -20.2640   23.2811 C   0  0  0  0  0  0  0  0  0  0  0  0
   12.4134  -20.8528   24.5517 O   0  0  0  0  0  0  0  0  0  0  0  0
   11.3395  -19.6931   22.9447 O   0  0  0  0  0  0  0  0  0  0  0  0
  2  1  1  6
  3  2  1  0
  4  3  1  0
  5  4  1  0
  6  5  1  0
  7  6  1  0
  8  2  1  0
  9  8  2  0
 10  8  1  0
 11 10  1  0
 11 12  1  0
 12 17  1  0
 13 12  2  0
 15 14  1  0
 16 15  1  1
 16 18  1  0
 17 16  1  0
 18 20  2  0
 18 19  1  0
M  END
$$$$
