KGS.pdb
     RDKit          3D

 20 19  0  0  1  0  0  0  0  0999 V2000
    7.4316  -17.3175   20.0989 N   0  0  0  0  0  0  0  0  0  0  0  0
    7.9660  -16.1804   20.8070 C   0  0  1  0  0  0  0  0  0  0  0  0
    7.4328  -14.8736   20.2117 C   0  0  0  0  0  0  0  0  0  0  0  0
    8.0090  -14.7807   18.8175 C   0  0  0  0  0  0  0  0  0  0  0  0
    7.6554  -13.4879   18.1420 C   0  0  0  0  0  0  0  0  0  0  0  0
    8.3734  -13.4571   16.8068 C   0  0  0  0  0  0  0  0  0  0  0  0
    8.1148  -12.2556   16.0723 N   0  0  0  0  0  0  0  0  0  0  0  0
    7.6121  -16.1706   22.2337 C   0  0  0  0  0  0  0  0  0  0  0  0
    6.4808  -16.5313   22.5939 O   0  0  0  0  0  0  0  0  0  0  0  0
    8.5618  -15.7511   23.1810 N   0  0  0  0  0  0  0  0  0  0  0  0
    8.2119  -15.7477   24.5780 C   0  0  0  0  0  0  0  0  0  0  0  0
    9.3638  -15.2415   25.3500 C   0  0  0  0  0  0  0  0  0  0  0  0
   10.5309  -15.1702   24.9035 O   0  0  0  0  0  0  0  0  0  0  0  0
    8.4353  -13.1872   28.5820 O   0  0  0  0  0  0  0  0  0  0  0  0
    9.7175  -12.9713   28.1231 C   0  0  0  0  0  0  0  0  0  0  0  0
   10.2354  -14.2435   27.4812 C   0  0  2  0  0  0  0  0  0  0  0  0
    9.1571  -14.8016   26.6886 N   0  0  0  0  0  0  0  0  0  0  0  0
   10.5981  -15.2524   28.5088 C   0  0  0  0  0  0  0  0  0  0  0  0
   11.7129  -15.0958   29.3418 O   0  0  0  0  0  0  0  0  0  0  0  0
    9.9238  -16.2990   28.6843 O   0  0  0  0  0  0  0  0  0  0  0  0
  2  1  1  6
  3  2  1  0
  4  3  1  0
  5  4  1  0
  6  5  1  0
  7  6  1  0
  8  2  1  0
  9  8  2  0
 10  8  1  0
 11 10  1  0
 11 12  1  0
 12 17  1  0
 13 12  2  0
 15 14  1  0
 16 15  1  1
 16 18  1  0
 17 16  1  0
 18 20  2  0
 18 19  1  0
M  END
$$$$
