KGS.pdb
     RDKit          3D

 20 19  0  0  1  0  0  0  0  0999 V2000
   10.1455  -16.5797   20.1043 N   0  0  0  0  0  0  0  0  0  0  0  0
    9.7407  -17.2811   21.2977 C   0  0  1  0  0  0  0  0  0  0  0  0
   10.8663  -18.1921   21.7972 C   0  0  0  0  0  0  0  0  0  0  0  0
   11.4764  -18.8207   20.5655 C   0  0  0  0  0  0  0  0  0  0  0  0
   12.5550  -19.8071   20.9066 C   0  0  0  0  0  0  0  0  0  0  0  0
   13.0357  -20.4274   19.6090 C   0  0  0  0  0  0  0  0  0  0  0  0
   14.0433  -21.4230   19.8170 N   0  0  0  0  0  0  0  0  0  0  0  0
    9.4008  -16.3808   22.4089 C   0  0  0  0  0  0  0  0  0  0  0  0
    9.9439  -15.2683   22.4933 O   0  0  0  0  0  0  0  0  0  0  0  0
    8.4599  -16.7895   23.3697 N   0  0  0  0  0  0  0  0  0  0  0  0
    8.0628  -15.8703   24.4048 C   0  0  0  0  0  0  0  0  0  0  0  0
    9.1088  -15.8547   25.4464 C   0  0  0  0  0  0  0  0  0  0  0  0
   10.1692  -16.5168   25.3859 O   0  0  0  0  0  0  0  0  0  0  0  0
    9.2840  -12.4893   27.3253 O   0  0  0  0  0  0  0  0  0  0  0  0
    9.6461  -13.4570   28.2384 C   0  0  0  0  0  0  0  0  0  0  0  0
   10.0164  -14.7259   27.4957 C   0  0  2  0  0  0  0  0  0  0  0  0
    8.9204  -15.0424   26.6008 N   0  0  0  0  0  0  0  0  0  0  0  0
   10.1688  -15.8689   28.4315 C   0  0  0  0  0  0  0  0  0  0  0  0
   11.1750  -15.9023   29.4049 O   0  0  0  0  0  0  0  0  0  0  0  0
    9.4028  -16.8655   28.3987 O   0  0  0  0  0  0  0  0  0  0  0  0
  2  1  1  6
  3  2  1  0
  4  3  1  0
  5  4  1  0
  6  5  1  0
  7  6  1  0
  8  2  1  0
  9  8  2  0
 10  8  1  0
 11 10  1  0
 11 12  1  0
 12 17  1  0
 13 12  2  0
 15 14  1  0
 16 15  1  1
 16 18  1  0
 17 16  1  0
 18 20  2  0
 18 19  1  0
M  END
$$$$
