KGS.pdb
     RDKit          3D

 20 19  0  0  1  0  0  0  0  0999 V2000
    2.6130  -20.7643   22.5767 N   0  0  0  0  0  0  0  0  0  0  0  0
    2.7567  -19.5708   21.7799 C   0  0  1  0  0  0  0  0  0  0  0  0
    1.4738  -18.7349   21.8223 C   0  0  0  0  0  0  0  0  0  0  0  0
    0.4833  -19.4390   20.9237 C   0  0  0  0  0  0  0  0  0  0  0  0
   -0.4528  -20.3239   21.6939 C   0  0  0  0  0  0  0  0  0  0  0  0
   -1.5046  -20.8308   20.7263 C   0  0  0  0  0  0  0  0  0  0  0  0
   -2.3497  -21.8293   21.3082 N   0  0  0  0  0  0  0  0  0  0  0  0
    3.8459  -18.6975   22.2401 C   0  0  0  0  0  0  0  0  0  0  0  0
    4.1987  -17.7299   21.5478 O   0  0  0  0  0  0  0  0  0  0  0  0
    4.4807  -18.9670   23.4647 N   0  0  0  0  0  0  0  0  0  0  0  0
    5.5078  -18.0759   23.9389 C   0  0  0  0  0  0  0  0  0  0  0  0
    6.5521  -18.8760   24.6086 C   0  0  0  0  0  0  0  0  0  0  0  0
    6.4874  -20.1146   24.7762 O   0  0  0  0  0  0  0  0  0  0  0  0
   11.1177  -18.7474   26.1631 O   0  0  0  0  0  0  0  0  0  0  0  0
   10.0496  -18.0798   25.6021 C   0  0  0  0  0  0  0  0  0  0  0  0
    8.8156  -18.9565   25.6891 C   0  0  2  0  0  0  0  0  0  0  0  0
    7.7144  -18.2179   25.1025 N   0  0  0  0  0  0  0  0  0  0  0  0
    8.4575  -19.2381   27.1026 C   0  0  0  0  0  0  0  0  0  0  0  0
    9.0439  -20.2865   27.8222 O   0  0  0  0  0  0  0  0  0  0  0  0
    7.6097  -18.5503   27.7263 O   0  0  0  0  0  0  0  0  0  0  0  0
  2  1  1  1
  3  2  1  0
  4  3  1  0
  5  4  1  0
  6  5  1  0
  7  6  1  0
  8  2  1  0
  9  8  2  0
 10  8  1  0
 11 10  1  0
 11 12  1  0
 12 17  1  0
 13 12  2  0
 15 14  1  0
 16 15  1  1
 16 18  1  0
 17 16  1  0
 18 20  2  0
 18 19  1  0
M  END
$$$$
