KGS.pdb
     RDKit          3D

 20 19  0  0  1  0  0  0  0  0999 V2000
    9.1125  -16.3598   20.1815 N   0  0  0  0  0  0  0  0  0  0  0  0
    9.0399  -14.9866   20.6164 C   0  0  1  0  0  0  0  0  0  0  0  0
    7.9882  -14.2191   19.8094 C   0  0  0  0  0  0  0  0  0  0  0  0
    8.3205  -14.4549   18.3539 C   0  0  0  0  0  0  0  0  0  0  0  0
    7.4830  -13.6121   17.4367 C   0  0  0  0  0  0  0  0  0  0  0  0
    7.9729  -13.8496   16.0214 C   0  0  0  0  0  0  0  0  0  0  0  0
    7.2306  -13.1028   15.0513 N   0  0  0  0  0  0  0  0  0  0  0  0
    8.6702  -14.8485   22.0323 C   0  0  0  0  0  0  0  0  0  0  0  0
    8.6456  -13.7254   22.5596 O   0  0  0  0  0  0  0  0  0  0  0  0
    8.3465  -15.9940   22.7796 N   0  0  0  0  0  0  0  0  0  0  0  0
    7.9023  -15.8464   24.1416 C   0  0  0  0  0  0  0  0  0  0  0  0
    9.0372  -15.3714   24.9573 C   0  0  0  0  0  0  0  0  0  0  0  0
   10.2213  -15.3276   24.5542 O   0  0  0  0  0  0  0  0  0  0  0  0
    8.1073  -13.2370   28.1639 O   0  0  0  0  0  0  0  0  0  0  0  0
    9.4051  -13.1106   27.7154 C   0  0  0  0  0  0  0  0  0  0  0  0
    9.8605  -14.4354   27.1353 C   0  0  2  0  0  0  0  0  0  0  0  0
    8.7923  -14.9306   26.2892 N   0  0  0  0  0  0  0  0  0  0  0  0
   10.0806  -15.4412   28.2056 C   0  0  0  0  0  0  0  0  0  0  0  0
   11.0986  -15.3019   29.1571 O   0  0  0  0  0  0  0  0  0  0  0  0
    9.3650  -16.4693   28.3131 O   0  0  0  0  0  0  0  0  0  0  0  0
  2  1  1  6
  3  2  1  0
  4  3  1  0
  5  4  1  0
  6  5  1  0
  7  6  1  0
  8  2  1  0
  9  8  2  0
 10  8  1  0
 11 10  1  0
 11 12  1  0
 12 17  1  0
 13 12  2  0
 15 14  1  0
 16 15  1  1
 16 18  1  0
 17 16  1  0
 18 20  2  0
 18 19  1  0
M  END
$$$$
