WME.pdb
     RDKit          3D

 32 33  0  0  1  0  0  0  0  0999 V2000
    6.7686  -17.5133   25.5124 N   0  0  0  0  0  0  0  0  0  0  0  0
    7.2718  -16.3234   24.8053 C   0  0  1  0  0  0  0  0  0  0  0  0
    8.5876  -15.9824   25.4579 C   0  0  0  0  0  0  0  0  0  0  0  0
    8.3786  -14.9911   26.5364 C   0  0  0  0  0  0  0  0  0  0  0  0
    8.7077  -15.1537   27.8723 C   0  0  0  0  0  0  0  0  0  0  0  0
    8.3671  -14.0551   28.5486 N   0  0  0  0  0  0  0  0  0  0  0  0
    7.8161  -13.1659   27.6780 C   0  0  0  0  0  0  0  0  0  0  0  0
    7.3061  -11.8841   27.8640 C   0  0  0  0  0  0  0  0  0  0  0  0
    6.7970  -11.1702   26.7991 C   0  0  0  0  0  0  0  0  0  0  0  0
    6.8119  -11.7716   25.5438 C   0  0  0  0  0  0  0  0  0  0  0  0
    7.3097  -13.0292   25.3479 C   0  0  0  0  0  0  0  0  0  0  0  0
    7.8191  -13.7370   26.4278 C   0  0  0  0  0  0  0  0  0  0  0  0
    7.4504  -16.6388   23.3588 C   0  0  0  0  0  0  0  0  0  0  0  0
    7.2427  -17.8259   22.9342 O   0  0  0  0  0  0  0  0  0  0  0  0
    8.5066  -11.6839   19.5471 C   0  0  0  0  0  0  0  0  0  0  0  0
    6.9322  -12.5342   19.2533 S   0  0  0  0  0  0  0  0  0  0  0  0
    6.8303  -14.0083   20.3345 C   0  0  0  0  0  0  0  0  0  0  0  0
    7.9986  -14.8959   20.0960 C   0  0  0  0  0  0  0  0  0  0  0  0
    8.0961  -16.0894   20.9932 C   0  0  2  0  0  0  0  0  0  0  0  0
    7.8462  -15.6873   22.3896 N   0  0  0  0  0  0  0  0  0  0  0  0
    9.3977  -16.7744   20.8788 C   0  0  0  0  0  0  0  0  0  0  0  0
    9.7627  -17.5065   19.9319 O   0  0  0  0  0  0  0  0  0  0  0  0
   10.3961  -16.6361   21.9147 N   0  0  0  0  0  0  0  0  0  0  0  0
   11.6844  -17.2230   21.8397 C   0  0  1  0  0  0  0  0  0  0  0  0
   12.8061  -16.2951   22.2397 C   0  0  0  0  0  0  0  0  0  0  0  0
   14.1545  -16.9674   22.2043 C   0  0  0  0  0  0  0  0  0  0  0  0
   15.2183  -16.0094   22.6408 C   0  0  0  0  0  0  0  0  0  0  0  0
   14.9814  -14.8321   22.9838 O   0  0  0  0  0  0  0  0  0  0  0  0
   11.8585  -18.4724   22.6021 C   0  0  0  0  0  0  0  0  0  0  0  0
   12.9720  -19.2429   22.3135 O   0  0  0  0  0  0  0  0  0  0  0  0
   16.5511  -16.4558   22.6660 O   0  0  0  0  0  0  0  0  0  0  0  0
   11.0844  -18.8926   23.4869 O   0  0  0  0  0  0  0  0  0  0  0  0
  2  1  1  1
  2  3  1  0
  4  5  2  0
  4  3  1  0
  6  5  1  0
  7 12  2  0
  7  6  1  0
  8  7  1  0
  9 10  1  0
  9  8  2  0
 10 11  2  0
 11 12  1  0
 12  4  1  0
 13  2  1  0
 13 14  2  0
 16 15  1  0
 17 16  1  0
 18 17  1  0
 19 18  1  6
 20 19  1  0
 20 13  1  0
 21 19  1  0
 22 21  2  0
 23 21  1  0
 24 23  1  0
 24 25  1  1
 25 26  1  0
 26 27  1  0
 27 31  1  0
 27 28  2  0
 29 30  1  0
 29 24  1  0
 32 29  2  0
M  END
$$$$
