WME.pdb
     RDKit          3D

 32 33  0  0  1  0  0  0  0  0999 V2000
    6.7054  -18.6727   25.3270 N   0  0  0  0  0  0  0  0  0  0  0  0
    6.9235  -17.3281   24.7668 C   0  0  1  0  0  0  0  0  0  0  0  0
    7.6321  -16.5440   25.8422 C   0  0  0  0  0  0  0  0  0  0  0  0
    6.8583  -15.3284   26.1787 C   0  0  0  0  0  0  0  0  0  0  0  0
    5.5063  -15.2754   26.4768 C   0  0  0  0  0  0  0  0  0  0  0  0
    5.1567  -14.0112   26.7216 N   0  0  0  0  0  0  0  0  0  0  0  0
    6.2598  -13.2251   26.5896 C   0  0  0  0  0  0  0  0  0  0  0  0
    6.4410  -11.8531   26.7388 C   0  0  0  0  0  0  0  0  0  0  0  0
    7.6841  -11.2851   26.5515 C   0  0  0  0  0  0  0  0  0  0  0  0
    8.7407  -12.1251   26.2116 C   0  0  0  0  0  0  0  0  0  0  0  0
    8.5760  -13.4736   26.0621 C   0  0  0  0  0  0  0  0  0  0  0  0
    7.3200  -14.0327   26.2535 C   0  0  0  0  0  0  0  0  0  0  0  0
    7.7549  -17.4286   23.5330 C   0  0  0  0  0  0  0  0  0  0  0  0
    8.6032  -18.3763   23.4105 O   0  0  0  0  0  0  0  0  0  0  0  0
    7.7692  -11.3849   20.3723 C   0  0  0  0  0  0  0  0  0  0  0  0
    7.3308  -13.0794   19.8987 S   0  0  0  0  0  0  0  0  0  0  0  0
    8.6571  -14.2204   20.4389 C   0  0  0  0  0  0  0  0  0  0  0  0
    8.2208  -15.6297   20.2576 C   0  0  0  0  0  0  0  0  0  0  0  0
    8.6354  -16.5777   21.3385 C   0  0  2  0  0  0  0  0  0  0  0  0
    7.6700  -16.5206   22.4515 N   0  0  0  0  0  0  0  0  0  0  0  0
   10.0018  -16.3115   21.8268 C   0  0  0  0  0  0  0  0  0  0  0  0
   10.3592  -15.3270   22.5114 O   0  0  0  0  0  0  0  0  0  0  0  0
   11.0812  -17.2253   21.5290 N   0  0  0  0  0  0  0  0  0  0  0  0
   12.4186  -17.0165   21.9503 C   0  0  1  0  0  0  0  0  0  0  0  0
   12.9579  -18.1066   22.8448 C   0  0  0  0  0  0  0  0  0  0  0  0
   12.0624  -18.3833   24.0251 C   0  0  0  0  0  0  0  0  0  0  0  0
   12.6203  -19.5067   24.8416 C   0  0  0  0  0  0  0  0  0  0  0  0
   11.9501  -20.1404   25.6838 O   0  0  0  0  0  0  0  0  0  0  0  0
   13.4004  -16.8128   20.8699 C   0  0  0  0  0  0  0  0  0  0  0  0
   14.6991  -16.5077   21.2408 O   0  0  0  0  0  0  0  0  0  0  0  0
   13.9658  -19.8672   24.6525 O   0  0  0  0  0  0  0  0  0  0  0  0
   13.1572  -16.8931   19.6481 O   0  0  0  0  0  0  0  0  0  0  0  0
  2  1  1  1
  2  3  1  0
  4  5  2  0
  4  3  1  0
  6  5  1  0
  7 12  2  0
  7  6  1  0
  8  7  1  0
  9 10  1  0
  9  8  2  0
 10 11  2  0
 11 12  1  0
 12  4  1  0
 13  2  1  0
 13 14  2  0
 16 15  1  0
 17 16  1  0
 18 17  1  0
 19 18  1  6
 20 19  1  0
 20 13  1  0
 21 19  1  0
 22 21  2  0
 23 21  1  0
 24 23  1  0
 24 25  1  6
 25 26  1  0
 26 27  1  0
 27 31  1  0
 27 28  2  0
 29 30  1  0
 29 24  1  0
 32 29  2  0
M  END
$$$$
