WME.pdb
     RDKit          3D

 32 33  0  0  1  0  0  0  0  0999 V2000
    7.4370  -19.3202   26.1125 N   0  0  0  0  0  0  0  0  0  0  0  0
    7.9370  -17.9349   26.0976 C   0  0  1  0  0  0  0  0  0  0  0  0
    9.4361  -18.0369   26.2220 C   0  0  0  0  0  0  0  0  0  0  0  0
    9.8768  -17.4898   27.5244 C   0  0  0  0  0  0  0  0  0  0  0  0
   10.2748  -18.2258   28.6287 C   0  0  0  0  0  0  0  0  0  0  0  0
   10.5950  -17.3946   29.6221 N   0  0  0  0  0  0  0  0  0  0  0  0
   10.4142  -16.1165   29.1906 C   0  0  0  0  0  0  0  0  0  0  0  0
   10.6046  -14.8912   29.8230 C   0  0  0  0  0  0  0  0  0  0  0  0
   10.3497  -13.7107   29.1565 C   0  0  0  0  0  0  0  0  0  0  0  0
    9.9000  -13.7879   27.8414 C   0  0  0  0  0  0  0  0  0  0  0  0
    9.7092  -14.9845   27.2093 C   0  0  0  0  0  0  0  0  0  0  0  0
    9.9694  -16.1652   27.8911 C   0  0  0  0  0  0  0  0  0  0  0  0
    7.5433  -17.2742   24.8201 C   0  0  0  0  0  0  0  0  0  0  0  0
    7.2666  -17.9833   23.7938 O   0  0  0  0  0  0  0  0  0  0  0  0
    6.0423  -11.3470   26.5033 C   0  0  0  0  0  0  0  0  0  0  0  0
    6.3550  -13.0640   26.0116 S   0  0  0  0  0  0  0  0  0  0  0  0
    7.4592  -13.0830   24.5511 C   0  0  0  0  0  0  0  0  0  0  0  0
    6.8304  -13.8556   23.4479 C   0  0  0  0  0  0  0  0  0  0  0  0
    7.2795  -15.2770   23.3179 C   0  0  2  0  0  0  0  0  0  0  0  0
    7.4505  -15.8722   24.6560 N   0  0  0  0  0  0  0  0  0  0  0  0
    8.5226  -15.4048   22.5339 C   0  0  0  0  0  0  0  0  0  0  0  0
    8.6475  -15.1740   21.3104 O   0  0  0  0  0  0  0  0  0  0  0  0
    9.7511  -15.8299   23.1657 N   0  0  0  0  0  0  0  0  0  0  0  0
   10.9574  -16.0524   22.4549 C   0  0  1  0  0  0  0  0  0  0  0  0
   12.2022  -15.9020   23.2957 C   0  0  0  0  0  0  0  0  0  0  0  0
   13.4607  -16.2188   22.5293 C   0  0  0  0  0  0  0  0  0  0  0  0
   14.6609  -15.9838   23.3919 C   0  0  0  0  0  0  0  0  0  0  0  0
   15.7698  -15.6275   22.9409 O   0  0  0  0  0  0  0  0  0  0  0  0
   11.0547  -17.3480   21.7587 C   0  0  0  0  0  0  0  0  0  0  0  0
   11.9826  -17.4518   20.7363 O   0  0  0  0  0  0  0  0  0  0  0  0
   14.5354  -16.1738   24.7791 O   0  0  0  0  0  0  0  0  0  0  0  0
   10.3693  -18.3594   22.0156 O   0  0  0  0  0  0  0  0  0  0  0  0
  2  1  1  6
  2  3  1  0
  4  5  2  0
  4  3  1  0
  6  5  1  0
  7 12  2  0
  7  6  1  0
  8  7  1  0
  9 10  1  0
  9  8  2  0
 10 11  2  0
 11 12  1  0
 12  4  1  0
 13  2  1  0
 13 14  2  0
 16 15  1  0
 17 16  1  0
 18 17  1  0
 19 18  1  1
 20 19  1  0
 20 13  1  0
 21 19  1  0
 22 21  2  0
 23 21  1  0
 24 23  1  0
 24 25  1  1
 25 26  1  0
 26 27  1  0
 27 31  1  0
 27 28  2  0
 29 30  1  0
 29 24  1  0
 32 29  2  0
M  END
$$$$
