WME.pdb
     RDKit          3D

 32 33  0  0  1  0  0  0  0  0999 V2000
    7.0325  -18.9961   24.7335 N   0  0  0  0  0  0  0  0  0  0  0  0
    7.0585  -17.5327   24.5696 C   0  0  1  0  0  0  0  0  0  0  0  0
    7.8036  -16.9976   25.7662 C   0  0  0  0  0  0  0  0  0  0  0  0
    7.1404  -15.7760   26.2738 C   0  0  0  0  0  0  0  0  0  0  0  0
    5.8166  -15.6671   26.6675 C   0  0  0  0  0  0  0  0  0  0  0  0
    5.5734  -14.4152   27.0598 N   0  0  0  0  0  0  0  0  0  0  0  0
    6.7194  -13.6923   26.9311 C   0  0  0  0  0  0  0  0  0  0  0  0
    7.0065  -12.3577   27.2029 C   0  0  0  0  0  0  0  0  0  0  0  0
    8.2729  -11.8547   26.9880 C   0  0  0  0  0  0  0  0  0  0  0  0
    9.2442  -12.7214   26.4950 C   0  0  0  0  0  0  0  0  0  0  0  0
    8.9751  -14.0337   26.2243 C   0  0  0  0  0  0  0  0  0  0  0  0
    7.6967  -14.5275   26.4448 C   0  0  0  0  0  0  0  0  0  0  0  0
    7.7543  -17.1835   23.2978 C   0  0  0  0  0  0  0  0  0  0  0  0
    8.3377  -18.0951   22.6186 O   0  0  0  0  0  0  0  0  0  0  0  0
    8.4370  -11.8590   17.4477 C   0  0  0  0  0  0  0  0  0  0  0  0
    7.7215  -12.3458   19.0412 S   0  0  0  0  0  0  0  0  0  0  0  0
    8.4403  -13.9470   19.5627 C   0  0  0  0  0  0  0  0  0  0  0  0
    7.9877  -14.2841   20.9378 C   0  0  0  0  0  0  0  0  0  0  0  0
    8.4344  -15.6147   21.4563 C   0  0  2  0  0  0  0  0  0  0  0  0
    7.8177  -15.8723   22.7706 N   0  0  0  0  0  0  0  0  0  0  0  0
    9.9032  -15.7192   21.5464 C   0  0  0  0  0  0  0  0  0  0  0  0
   10.7061  -15.6410   20.5899 O   0  0  0  0  0  0  0  0  0  0  0  0
   10.5493  -15.9309   22.8218 N   0  0  0  0  0  0  0  0  0  0  0  0
   11.9514  -16.0790   22.9708 C   0  0  1  0  0  0  0  0  0  0  0  0
   12.4068  -17.5123   23.1030 C   0  0  0  0  0  0  0  0  0  0  0  0
   13.9007  -17.6333   23.2608 C   0  0  0  0  0  0  0  0  0  0  0  0
   14.2328  -18.8057   24.1298 C   0  0  0  0  0  0  0  0  0  0  0  0
   13.3709  -19.5848   24.5882 O   0  0  0  0  0  0  0  0  0  0  0  0
   12.7715  -15.4559   21.9164 C   0  0  0  0  0  0  0  0  0  0  0  0
   12.8566  -16.1180   20.7033 O   0  0  0  0  0  0  0  0  0  0  0  0
   15.5816  -19.0424   24.4472 O   0  0  0  0  0  0  0  0  0  0  0  0
   13.3953  -14.3803   22.0273 O   0  0  0  0  0  0  0  0  0  0  0  0
  2  1  1  1
  2  3  1  0
  4  5  2  0
  4  3  1  0
  6  5  1  0
  7 12  2  0
  7  6  1  0
  8  7  1  0
  9 10  1  0
  9  8  2  0
 10 11  2  0
 11 12  1  0
 12  4  1  0
 13  2  1  0
 13 14  2  0
 16 15  1  0
 17 16  1  0
 18 17  1  0
 19 18  1  1
 20 19  1  0
 20 13  1  0
 21 19  1  0
 22 21  2  0
 23 21  1  0
 24 23  1  0
 24 25  1  6
 25 26  1  0
 26 27  1  0
 27 31  1  0
 27 28  2  0
 29 30  1  0
 29 24  1  0
 32 29  2  0
M  END
$$$$
