WME.pdb
     RDKit          3D

 32 33  0  0  1  0  0  0  0  0999 V2000
    8.1414  -17.9495   21.7059 N   0  0  0  0  0  0  0  0  0  0  0  0
    8.4499  -16.6600   22.3471 C   0  0  1  0  0  0  0  0  0  0  0  0
    7.1336  -15.9344   22.4667 C   0  0  0  0  0  0  0  0  0  0  0  0
    7.3663  -14.5076   22.7824 C   0  0  0  0  0  0  0  0  0  0  0  0
    7.7916  -13.5321   21.8954 C   0  0  0  0  0  0  0  0  0  0  0  0
    7.8966  -12.3667   22.5367 N   0  0  0  0  0  0  0  0  0  0  0  0
    7.5462  -12.5571   23.8379 C   0  0  0  0  0  0  0  0  0  0  0  0
    7.4800  -11.6790   24.9159 C   0  0  0  0  0  0  0  0  0  0  0  0
    7.0830  -12.1239   26.1599 C   0  0  0  0  0  0  0  0  0  0  0  0
    6.7537  -13.4694   26.2970 C   0  0  0  0  0  0  0  0  0  0  0  0
    6.8144  -14.3417   25.2466 C   0  0  0  0  0  0  0  0  0  0  0  0
    7.2155  -13.8813   24.0000 C   0  0  0  0  0  0  0  0  0  0  0  0
    9.0596  -16.9001   23.6866 C   0  0  0  0  0  0  0  0  0  0  0  0
    8.7412  -17.9414   24.3552 O   0  0  0  0  0  0  0  0  0  0  0  0
   10.3420  -14.7319   30.1154 C   0  0  0  0  0  0  0  0  0  0  0  0
    9.9688  -14.4392   28.3652 S   0  0  0  0  0  0  0  0  0  0  0  0
    8.6686  -15.6078   27.8207 C   0  0  0  0  0  0  0  0  0  0  0  0
    8.7200  -15.7742   26.3445 C   0  0  0  0  0  0  0  0  0  0  0  0
   10.0892  -15.9200   25.7589 C   0  0  2  0  0  0  0  0  0  0  0  0
    9.9966  -16.0298   24.2914 N   0  0  0  0  0  0  0  0  0  0  0  0
   10.8201  -17.0734   26.3172 C   0  0  0  0  0  0  0  0  0  0  0  0
   11.0822  -17.2627   27.5260 O   0  0  0  0  0  0  0  0  0  0  0  0
   11.3102  -18.1230   25.4529 N   0  0  0  0  0  0  0  0  0  0  0  0
   11.9347  -19.3014   25.9337 C   0  0  1  0  0  0  0  0  0  0  0  0
   13.0040  -19.8469   25.0182 C   0  0  0  0  0  0  0  0  0  0  0  0
   12.5712  -19.8762   23.5749 C   0  0  0  0  0  0  0  0  0  0  0  0
   13.5719  -19.1596   22.7233 C   0  0  0  0  0  0  0  0  0  0  0  0
   14.8057  -19.2447   22.8973 O   0  0  0  0  0  0  0  0  0  0  0  0
   12.5224  -19.2040   27.2819 C   0  0  0  0  0  0  0  0  0  0  0  0
   13.0997  -20.3475   27.8075 O   0  0  0  0  0  0  0  0  0  0  0  0
   13.1007  -18.3497   21.6754 O   0  0  0  0  0  0  0  0  0  0  0  0
   12.5424  -18.1750   27.9886 O   0  0  0  0  0  0  0  0  0  0  0  0
  2  1  1  1
  2  3  1  0
  4  5  2  0
  4  3  1  0
  6  5  1  0
  7 12  2  0
  7  6  1  0
  8  7  1  0
  9 10  1  0
  9  8  2  0
 10 11  2  0
 11 12  1  0
 12  4  1  0
 13  2  1  0
 13 14  2  0
 16 15  1  0
 17 16  1  0
 18 17  1  0
 19 18  1  1
 20 19  1  0
 20 13  1  0
 21 19  1  0
 22 21  2  0
 23 21  1  0
 24 23  1  0
 24 25  1  6
 25 26  1  0
 26 27  1  0
 27 31  1  0
 27 28  2  0
 29 30  1  0
 29 24  1  0
 32 29  2  0
M  END
$$$$
