WME.pdb
     RDKit          3D

 32 33  0  0  1  0  0  0  0  0999 V2000
    7.4202  -16.9833   25.4833 N   0  0  0  0  0  0  0  0  0  0  0  0
    7.5838  -15.8363   24.5739 C   0  0  1  0  0  0  0  0  0  0  0  0
    8.7650  -15.0600   25.0987 C   0  0  0  0  0  0  0  0  0  0  0  0
    8.3760  -14.2954   26.3044 C   0  0  0  0  0  0  0  0  0  0  0  0
    8.8202  -14.5236   27.5967 C   0  0  0  0  0  0  0  0  0  0  0  0
    8.2511  -13.6431   28.4219 N   0  0  0  0  0  0  0  0  0  0  0  0
    7.4349  -12.8337   27.6932 C   0  0  0  0  0  0  0  0  0  0  0  0
    6.6241  -11.7641   28.0620 C   0  0  0  0  0  0  0  0  0  0  0  0
    5.8812  -11.0883   27.1163 C   0  0  0  0  0  0  0  0  0  0  0  0
    5.9710  -11.5098   25.7927 C   0  0  0  0  0  0  0  0  0  0  0  0
    6.7633  -12.5584   25.4177 C   0  0  0  0  0  0  0  0  0  0  0  0
    7.5058  -13.2301   26.3790 C   0  0  0  0  0  0  0  0  0  0  0  0
    7.8311  -16.3277   23.1879 C   0  0  0  0  0  0  0  0  0  0  0  0
    7.9458  -17.5808   22.9660 O   0  0  0  0  0  0  0  0  0  0  0  0
    6.7278  -12.5015   18.6223 C   0  0  0  0  0  0  0  0  0  0  0  0
    8.3666  -12.2748   19.3645 S   0  0  0  0  0  0  0  0  0  0  0  0
    9.1184  -13.9139   19.6820 C   0  0  0  0  0  0  0  0  0  0  0  0
    8.0659  -14.9634   19.6895 C   0  0  0  0  0  0  0  0  0  0  0  0
    8.2277  -16.0323   20.7240 C   0  0  2  0  0  0  0  0  0  0  0  0
    7.9520  -15.4789   22.0626 N   0  0  0  0  0  0  0  0  0  0  0  0
    9.5658  -16.6524   20.6879 C   0  0  0  0  0  0  0  0  0  0  0  0
    9.9407  -17.5469   19.8973 O   0  0  0  0  0  0  0  0  0  0  0  0
   10.5927  -16.2423   21.6186 N   0  0  0  0  0  0  0  0  0  0  0  0
   11.9037  -16.7819   21.6211 C   0  0  1  0  0  0  0  0  0  0  0  0
   12.9090  -15.9560   20.8552 C   0  0  0  0  0  0  0  0  0  0  0  0
   12.9581  -16.3138   19.3920 C   0  0  0  0  0  0  0  0  0  0  0  0
   14.1480  -15.6758   18.7463 C   0  0  0  0  0  0  0  0  0  0  0  0
   14.5754  -14.5456   19.0623 O   0  0  0  0  0  0  0  0  0  0  0  0
   12.4793  -17.0461   22.9521 C   0  0  0  0  0  0  0  0  0  0  0  0
   13.7213  -17.6562   22.9975 O   0  0  0  0  0  0  0  0  0  0  0  0
   14.8186  -16.3828   17.7330 O   0  0  0  0  0  0  0  0  0  0  0  0
   11.9388  -16.7646   24.0417 O   0  0  0  0  0  0  0  0  0  0  0  0
  2  1  1  1
  2  3  1  0
  4  5  2  0
  4  3  1  0
  6  5  1  0
  7 12  2  0
  7  6  1  0
  8  7  1  0
  9 10  1  0
  9  8  2  0
 10 11  2  0
 11 12  1  0
 12  4  1  0
 13  2  1  0
 13 14  2  0
 16 15  1  0
 17 16  1  0
 18 17  1  0
 19 18  1  6
 20 19  1  0
 20 13  1  0
 21 19  1  0
 22 21  2  0
 23 21  1  0
 24 23  1  0
 24 25  1  1
 25 26  1  0
 26 27  1  0
 27 31  1  0
 27 28  2  0
 29 30  1  0
 29 24  1  0
 32 29  2  0
M  END
$$$$
