WME.pdb
     RDKit          3D

 32 33  0  0  1  0  0  0  0  0999 V2000
    8.1482  -15.9332   23.6295 N   0  0  0  0  0  0  0  0  0  0  0  0
    8.5626  -16.4982   24.9249 C   0  0  1  0  0  0  0  0  0  0  0  0
    7.3284  -16.4905   25.7910 C   0  0  0  0  0  0  0  0  0  0  0  0
    6.7711  -15.1220   25.8700 C   0  0  0  0  0  0  0  0  0  0  0  0
    5.4280  -14.7829   25.8479 C   0  0  0  0  0  0  0  0  0  0  0  0
    5.3051  -13.4569   25.9317 N   0  0  0  0  0  0  0  0  0  0  0  0
    6.5500  -12.9123   26.0091 C   0  0  0  0  0  0  0  0  0  0  0  0
    6.9767  -11.5916   26.1148 C   0  0  0  0  0  0  0  0  0  0  0  0
    8.3216  -11.2923   26.1831 C   0  0  0  0  0  0  0  0  0  0  0  0
    9.2278  -12.3480   26.1434 C   0  0  0  0  0  0  0  0  0  0  0  0
    8.8218  -13.6489   26.0398 C   0  0  0  0  0  0  0  0  0  0  0  0
    7.4656  -13.9367   25.9719 C   0  0  0  0  0  0  0  0  0  0  0  0
    9.0756  -17.8841   24.7255 C   0  0  0  0  0  0  0  0  0  0  0  0
    9.2893  -18.6369   25.7356 O   0  0  0  0  0  0  0  0  0  0  0  0
    8.7288  -22.8196   20.1542 C   0  0  0  0  0  0  0  0  0  0  0  0
    7.5385  -21.5000   20.5148 S   0  0  0  0  0  0  0  0  0  0  0  0
    8.0092  -20.6721   22.0786 C   0  0  0  0  0  0  0  0  0  0  0  0
    9.4819  -20.4767   22.1275 C   0  0  0  0  0  0  0  0  0  0  0  0
    9.9987  -19.7651   23.3381 C   0  0  2  0  0  0  0  0  0  0  0  0
    9.3521  -18.4452   23.4567 N   0  0  0  0  0  0  0  0  0  0  0  0
   11.4667  -19.6205   23.3220 C   0  0  0  0  0  0  0  0  0  0  0  0
   12.2126  -19.8013   22.3337 O   0  0  0  0  0  0  0  0  0  0  0  0
   12.1820  -19.2374   24.5180 N   0  0  0  0  0  0  0  0  0  0  0  0
   13.5472  -18.8549   24.5216 C   0  0  1  0  0  0  0  0  0  0  0  0
   13.8571  -17.6769   23.6298 C   0  0  0  0  0  0  0  0  0  0  0  0
   15.2901  -17.2243   23.7451 C   0  0  0  0  0  0  0  0  0  0  0  0
   15.5561  -16.1092   22.7829 C   0  0  0  0  0  0  0  0  0  0  0  0
   14.6997  -15.6735   21.9851 O   0  0  0  0  0  0  0  0  0  0  0  0
   14.1211  -18.5618   25.8472 C   0  0  0  0  0  0  0  0  0  0  0  0
   13.2353  -18.3339   26.8868 O   0  0  0  0  0  0  0  0  0  0  0  0
   16.8335  -15.5224   22.7756 O   0  0  0  0  0  0  0  0  0  0  0  0
   15.3402  -18.5024   26.1096 O   0  0  0  0  0  0  0  0  0  0  0  0
  2  1  1  6
  2  3  1  0
  4  5  2  0
  4  3  1  0
  6  5  1  0
  7 12  2  0
  7  6  1  0
  8  7  1  0
  9 10  1  0
  9  8  2  0
 10 11  2  0
 11 12  1  0
 12  4  1  0
 13  2  1  0
 13 14  2  0
 16 15  1  0
 17 16  1  0
 18 17  1  0
 19 18  1  6
 20 19  1  0
 20 13  1  0
 21 19  1  0
 22 21  2  0
 23 21  1  0
 24 23  1  0
 24 25  1  6
 25 26  1  0
 26 27  1  0
 27 31  1  0
 27 28  2  0
 29 30  1  0
 29 24  1  0
 32 29  2  0
M  END
$$$$
