WME.pdb
     RDKit          3D

 32 33  0  0  1  0  0  0  0  0999 V2000
    6.8148  -17.3290   25.8298 N   0  0  0  0  0  0  0  0  0  0  0  0
    7.2228  -16.2096   24.9640 C   0  0  1  0  0  0  0  0  0  0  0  0
    8.5564  -15.7454   25.4924 C   0  0  0  0  0  0  0  0  0  0  0  0
    8.3609  -14.6825   26.5033 C   0  0  0  0  0  0  0  0  0  0  0  0
    8.8186  -14.7027   27.8108 C   0  0  0  0  0  0  0  0  0  0  0  0
    8.4482  -13.5784   28.4265 N   0  0  0  0  0  0  0  0  0  0  0  0
    7.7504  -12.8128   27.5437 C   0  0  0  0  0  0  0  0  0  0  0  0
    7.1534  -11.5621   27.6742 C   0  0  0  0  0  0  0  0  0  0  0  0
    6.4948  -10.9845   26.6086 C   0  0  0  0  0  0  0  0  0  0  0  0
    6.4494  -11.6900   25.4096 C   0  0  0  0  0  0  0  0  0  0  0  0
    7.0315  -12.9185   25.2684 C   0  0  0  0  0  0  0  0  0  0  0  0
    7.6912  -13.4888   26.3484 C   0  0  0  0  0  0  0  0  0  0  0  0
    7.3336  -16.6818   23.5539 C   0  0  0  0  0  0  0  0  0  0  0  0
    7.1609  -17.9177   23.2795 O   0  0  0  0  0  0  0  0  0  0  0  0
    8.3983  -11.2846   19.1532 C   0  0  0  0  0  0  0  0  0  0  0  0
    7.5695  -12.8820   18.9317 S   0  0  0  0  0  0  0  0  0  0  0  0
    8.1999  -14.0679   20.1763 C   0  0  0  0  0  0  0  0  0  0  0  0
    7.4498  -15.3479   20.0851 C   0  0  0  0  0  0  0  0  0  0  0  0
    7.8108  -16.3814   21.1050 C   0  0  2  0  0  0  0  0  0  0  0  0
    7.6256  -15.8325   22.4610 N   0  0  0  0  0  0  0  0  0  0  0  0
    9.1879  -16.8826   20.9352 C   0  0  0  0  0  0  0  0  0  0  0  0
    9.5906  -17.6290   20.0152 O   0  0  0  0  0  0  0  0  0  0  0  0
   10.2239  -16.5223   21.8764 N   0  0  0  0  0  0  0  0  0  0  0  0
   11.5626  -16.9779   21.7751 C   0  0  1  0  0  0  0  0  0  0  0  0
   12.5039  -15.9817   21.1421 C   0  0  0  0  0  0  0  0  0  0  0  0
   12.2098  -15.7540   19.6816 C   0  0  0  0  0  0  0  0  0  0  0  0
   13.2745  -14.8983   19.0700 C   0  0  0  0  0  0  0  0  0  0  0  0
   14.0831  -14.2249   19.7428 O   0  0  0  0  0  0  0  0  0  0  0  0
   12.1801  -17.4204   23.0382 C   0  0  0  0  0  0  0  0  0  0  0  0
   13.4519  -17.9633   22.9676 O   0  0  0  0  0  0  0  0  0  0  0  0
   13.3700  -14.8487   17.6683 O   0  0  0  0  0  0  0  0  0  0  0  0
   11.6507  -17.3456   24.1663 O   0  0  0  0  0  0  0  0  0  0  0  0
  2  1  1  1
  2  3  1  0
  4  5  2  0
  4  3  1  0
  6  5  1  0
  7 12  2  0
  7  6  1  0
  8  7  1  0
  9 10  1  0
  9  8  2  0
 10 11  2  0
 11 12  1  0
 12  4  1  0
 13  2  1  0
 13 14  2  0
 16 15  1  0
 17 16  1  0
 18 17  1  0
 19 18  1  6
 20 19  1  0
 20 13  1  0
 21 19  1  0
 22 21  2  0
 23 21  1  0
 24 23  1  0
 24 25  1  1
 25 26  1  0
 26 27  1  0
 27 31  1  0
 27 28  2  0
 29 30  1  0
 29 24  1  0
 32 29  2  0
M  END
$$$$
