WME.pdb
     RDKit          3D

 32 33  0  0  1  0  0  0  0  0999 V2000
   10.3736  -16.2107   21.3601 N   0  0  0  0  0  0  0  0  0  0  0  0
    9.2645  -15.5394   22.0591 C   0  0  1  0  0  0  0  0  0  0  0  0
    8.0056  -16.2153   21.5780 C   0  0  0  0  0  0  0  0  0  0  0  0
    7.7311  -15.8389   20.1734 C   0  0  0  0  0  0  0  0  0  0  0  0
    7.4560  -16.7098   19.1317 C   0  0  0  0  0  0  0  0  0  0  0  0
    7.2688  -16.0122   18.0098 N   0  0  0  0  0  0  0  0  0  0  0  0
    7.4164  -14.6895   18.2943 C   0  0  0  0  0  0  0  0  0  0  0  0
    7.3212  -13.5550   17.4936 C   0  0  0  0  0  0  0  0  0  0  0  0
    7.5131  -12.2990   18.0308 C   0  0  0  0  0  0  0  0  0  0  0  0
    7.8020  -12.2077   19.3894 C   0  0  0  0  0  0  0  0  0  0  0  0
    7.8982  -13.3138   20.1864 C   0  0  0  0  0  0  0  0  0  0  0  0
    7.7029  -14.5719   19.6334 C   0  0  0  0  0  0  0  0  0  0  0  0
    9.4338  -15.6953   23.5324 C   0  0  0  0  0  0  0  0  0  0  0  0
   10.4429  -16.3279   23.9954 O   0  0  0  0  0  0  0  0  0  0  0  0
    6.1803  -10.6681   27.0938 C   0  0  0  0  0  0  0  0  0  0  0  0
    6.2996  -12.4381   27.4690 S   0  0  0  0  0  0  0  0  0  0  0  0
    7.6474  -13.1774   26.4743 C   0  0  0  0  0  0  0  0  0  0  0  0
    7.7117  -14.6429   26.7142 C   0  0  0  0  0  0  0  0  0  0  0  0
    8.7515  -15.3801   25.9303 C   0  0  2  0  0  0  0  0  0  0  0  0
    8.5282  -15.1762   24.4871 N   0  0  0  0  0  0  0  0  0  0  0  0
    8.7805  -16.8202   26.2492 C   0  0  0  0  0  0  0  0  0  0  0  0
    8.0199  -17.6938   25.7757 O   0  0  0  0  0  0  0  0  0  0  0  0
    9.7475  -17.3478   27.1849 N   0  0  0  0  0  0  0  0  0  0  0  0
   10.3680  -18.6136   27.0347 C   0  0  1  0  0  0  0  0  0  0  0  0
   11.0913  -18.7909   25.7214 C   0  0  0  0  0  0  0  0  0  0  0  0
   11.7903  -20.1222   25.6202 C   0  0  0  0  0  0  0  0  0  0  0  0
   12.5422  -20.2114   24.3292 C   0  0  0  0  0  0  0  0  0  0  0  0
   11.9887  -20.1790   23.2101 O   0  0  0  0  0  0  0  0  0  0  0  0
   11.3083  -18.9910   28.1053 C   0  0  0  0  0  0  0  0  0  0  0  0
   11.5919  -20.3378   28.2561 O   0  0  0  0  0  0  0  0  0  0  0  0
   13.9414  -20.3385   24.3773 O   0  0  0  0  0  0  0  0  0  0  0  0
   11.8700  -18.1959   28.8869 O   0  0  0  0  0  0  0  0  0  0  0  0
  2  1  1  6
  2  3  1  0
  4  5  2  0
  4  3  1  0
  6  5  1  0
  7 12  2  0
  7  6  1  0
  8  7  1  0
  9 10  1  0
  9  8  2  0
 10 11  2  0
 11 12  1  0
 12  4  1  0
 13  2  1  0
 13 14  2  0
 16 15  1  0
 17 16  1  0
 18 17  1  0
 19 18  1  1
 20 19  1  0
 20 13  1  0
 21 19  1  0
 22 21  2  0
 23 21  1  0
 24 23  1  0
 24 25  1  6
 25 26  1  0
 26 27  1  0
 27 31  1  0
 27 28  2  0
 29 30  1  0
 29 24  1  0
 32 29  2  0
M  END
$$$$
