VKA.pdb
     RDKit          3D

 22 21  0  0  1  0  0  0  0  0999 V2000
    7.9245  -12.9077   18.7012 C   0  0  0  0  0  0  0  0  0  0  0  0
    7.6965  -13.4078   20.0901 C   0  0  2  0  0  0  0  0  0  0  0  0
    8.3595  -12.5551   21.1499 C   0  0  0  0  0  0  0  0  0  0  0  0
    8.0709  -14.8667   20.2468 C   0  0  2  0  0  0  0  0  0  0  0  0
    7.3248  -15.6007   19.2390 N   0  0  0  0  0  0  0  0  0  0  0  0
    7.6787  -15.3300   21.6007 C   0  0  0  0  0  0  0  0  0  0  0  0
    6.4755  -15.3570   21.9250 O   0  0  0  0  0  0  0  0  0  0  0  0
    8.6555  -15.7517   22.5554 N   0  0  0  0  0  0  0  0  0  0  0  0
    8.3218  -16.2150   23.8658 C   0  0  1  0  0  0  0  0  0  0  0  0
    8.7487  -17.6675   24.0149 C   0  0  0  0  0  0  0  0  0  0  0  0
    8.5306  -18.1819   25.3925 C   0  0  0  0  0  0  0  0  0  0  0  0
    7.6029  -19.3608   25.3753 C   0  0  0  0  0  0  0  0  0  0  0  0
    7.3496  -19.9171   26.7426 C   0  0  0  0  0  0  0  0  0  0  0  0
    6.2827  -20.9179   26.6919 N   0  0  0  0  0  0  0  0  0  0  0  0
    8.9862  -15.3561   24.8695 C   0  0  0  0  0  0  0  0  0  0  0  0
   10.2299  -15.2337   24.8732 O   0  0  0  0  0  0  0  0  0  0  0  0
    7.8201  -12.9351   27.4671 C   0  0  0  0  0  0  0  0  0  0  0  0
    8.8569  -13.8984   26.9260 C   0  0  2  0  0  0  0  0  0  0  0  0
    8.2451  -14.6411   25.8619 N   0  0  0  0  0  0  0  0  0  0  0  0
    9.3724  -14.8083   27.9540 C   0  0  0  0  0  0  0  0  0  0  0  0
   10.3385  -14.4395   28.8881 O   0  0  0  0  0  0  0  0  0  0  0  0
    8.9421  -15.9885   28.0241 O   0  0  0  0  0  0  0  0  0  0  0  0
  2  3  1  1
  2  1  1  0
  4  2  1  0
  4  6  1  0
  4  5  1  6
  6  7  2  0
  8  6  1  0
  8  9  1  0
  9 10  1  6
 10 11  1  0
 12 11  1  0
 13 12  1  0
 14 13  1  0
 15 19  1  0
 15  9  1  0
 16 15  2  0
 18 17  1  1
 18 20  1  0
 18 19  1  0
 20 21  1  0
 22 20  2  0
M  END
$$$$
