VKA.pdb
     RDKit          3D

 22 21  0  0  1  0  0  0  0  0999 V2000
    7.2206  -12.5950   20.8775 C   0  0  0  0  0  0  0  0  0  0  0  0
    8.4266  -13.3552   20.4314 C   0  0  2  0  0  0  0  0  0  0  0  0
    8.9322  -12.9307   19.0697 C   0  0  0  0  0  0  0  0  0  0  0  0
    8.2205  -14.8541   20.4970 C   0  0  2  0  0  0  0  0  0  0  0  0
    7.2200  -15.1830   19.4962 N   0  0  0  0  0  0  0  0  0  0  0  0
    7.7234  -15.2212   21.8459 C   0  0  0  0  0  0  0  0  0  0  0  0
    6.5162  -15.0826   22.1233 O   0  0  0  0  0  0  0  0  0  0  0  0
    8.6024  -15.7361   22.8488 N   0  0  0  0  0  0  0  0  0  0  0  0
    8.1543  -16.1762   24.1328 C   0  0  1  0  0  0  0  0  0  0  0  0
    8.2061  -17.6953   24.1956 C   0  0  0  0  0  0  0  0  0  0  0  0
    7.7806  -18.2208   25.5195 C   0  0  0  0  0  0  0  0  0  0  0  0
    7.8986  -19.7160   25.5567 C   0  0  0  0  0  0  0  0  0  0  0  0
    7.4490  -20.2990   26.8610 C   0  0  0  0  0  0  0  0  0  0  0  0
    8.2750  -19.7869   27.9554 N   0  0  0  0  0  0  0  0  0  0  0  0
    9.0037  -15.5679   25.1793 C   0  0  0  0  0  0  0  0  0  0  0  0
   10.2489  -15.6441   25.1065 O   0  0  0  0  0  0  0  0  0  0  0  0
    8.3107  -13.3222   28.0972 C   0  0  0  0  0  0  0  0  0  0  0  0
    9.2346  -14.2221   27.3021 C   0  0  2  0  0  0  0  0  0  0  0  0
    8.4444  -14.8782   26.3004 N   0  0  0  0  0  0  0  0  0  0  0  0
    9.9194  -15.2105   28.1415 C   0  0  0  0  0  0  0  0  0  0  0  0
   10.9878  -14.8951   28.9786 O   0  0  0  0  0  0  0  0  0  0  0  0
    9.5489  -16.4128   28.1291 O   0  0  0  0  0  0  0  0  0  0  0  0
  2  3  1  6
  2  1  1  0
  4  2  1  0
  4  6  1  0
  4  5  1  6
  6  7  2  0
  8  6  1  0
  8  9  1  0
  9 10  1  6
 10 11  1  0
 12 11  1  0
 13 12  1  0
 14 13  1  0
 15 19  1  0
 15  9  1  0
 16 15  2  0
 18 17  1  1
 18 20  1  0
 18 19  1  0
 20 21  1  0
 22 20  2  0
M  END
$$$$
