VKA.pdb
     RDKit          3D

 22 21  0  0  1  0  0  0  0  0999 V2000
    7.2313  -12.6135   20.7649 C   0  0  0  0  0  0  0  0  0  0  0  0
    8.4054  -13.4352   20.3437 C   0  0  2  0  0  0  0  0  0  0  0  0
    8.8808  -13.1252   18.9408 C   0  0  0  0  0  0  0  0  0  0  0  0
    8.1663  -14.9194   20.5262 C   0  0  2  0  0  0  0  0  0  0  0  0
    7.1766  -15.3085   19.5363 N   0  0  0  0  0  0  0  0  0  0  0  0
    7.6379  -15.1658   21.8906 C   0  0  0  0  0  0  0  0  0  0  0  0
    6.4592  -14.8676   22.1648 O   0  0  0  0  0  0  0  0  0  0  0  0
    8.4542  -15.7433   22.9122 N   0  0  0  0  0  0  0  0  0  0  0  0
    7.9711  -16.0489   24.2223 C   0  0  1  0  0  0  0  0  0  0  0  0
    7.9171  -17.5583   24.4044 C   0  0  0  0  0  0  0  0  0  0  0  0
    6.6933  -18.1558   23.8084 C   0  0  0  0  0  0  0  0  0  0  0  0
    6.7230  -19.6509   23.9294 C   0  0  0  0  0  0  0  0  0  0  0  0
    5.5411  -20.3066   23.2842 C   0  0  0  0  0  0  0  0  0  0  0  0
    5.6296  -21.7608   23.4258 N   0  0  0  0  0  0  0  0  0  0  0  0
    8.8560  -15.4199   25.2262 C   0  0  0  0  0  0  0  0  0  0  0  0
   10.0934  -15.5858   25.1710 O   0  0  0  0  0  0  0  0  0  0  0  0
    8.2904  -12.9271   27.9699 C   0  0  0  0  0  0  0  0  0  0  0  0
    9.1708  -13.9080   27.2227 C   0  0  2  0  0  0  0  0  0  0  0  0
    8.3408  -14.6085   26.2852 N   0  0  0  0  0  0  0  0  0  0  0  0
    9.8446  -14.8554   28.1165 C   0  0  0  0  0  0  0  0  0  0  0  0
   10.9916  -14.5399   28.8423 O   0  0  0  0  0  0  0  0  0  0  0  0
    9.3905  -16.0202   28.2582 O   0  0  0  0  0  0  0  0  0  0  0  0
  2  3  1  6
  2  1  1  0
  4  2  1  0
  4  6  1  0
  4  5  1  6
  6  7  2  0
  8  6  1  0
  8  9  1  0
  9 10  1  1
 10 11  1  0
 12 11  1  0
 13 12  1  0
 14 13  1  0
 15 19  1  0
 15  9  1  0
 16 15  2  0
 18 17  1  1
 18 20  1  0
 18 19  1  0
 20 21  1  0
 22 20  2  0
M  END
$$$$
