VKA.pdb
     RDKit          3D

 22 21  0  0  1  0  0  0  0  0999 V2000
    9.5319  -12.7508   20.2436 C   0  0  0  0  0  0  0  0  0  0  0  0
    9.7762  -13.8587   19.2719 C   0  0  2  0  0  0  0  0  0  0  0  0
   10.6330  -13.4450   18.0952 C   0  0  0  0  0  0  0  0  0  0  0  0
    8.4919  -14.5156   18.8110 C   0  0  2  0  0  0  0  0  0  0  0  0
    7.7619  -13.5175   18.0482 N   0  0  0  0  0  0  0  0  0  0  0  0
    7.6981  -14.9235   19.9962 C   0  0  0  0  0  0  0  0  0  0  0  0
    6.9337  -14.1060   20.5448 O   0  0  0  0  0  0  0  0  0  0  0  0
    7.7871  -16.2454   20.5331 N   0  0  0  0  0  0  0  0  0  0  0  0
    7.0201  -16.6893   21.6546 C   0  0  1  0  0  0  0  0  0  0  0  0
    6.6819  -18.1630   21.4873 C   0  0  0  0  0  0  0  0  0  0  0  0
    5.9045  -18.6981   22.6359 C   0  0  0  0  0  0  0  0  0  0  0  0
    5.6027  -20.1542   22.4366 C   0  0  0  0  0  0  0  0  0  0  0  0
    4.7729  -20.7292   23.5429 C   0  0  0  0  0  0  0  0  0  0  0  0
    4.4181  -22.1166   23.2405 N   0  0  0  0  0  0  0  0  0  0  0  0
    7.7907  -16.4543   22.8947 C   0  0  0  0  0  0  0  0  0  0  0  0
    8.9668  -16.8643   22.9957 O   0  0  0  0  0  0  0  0  0  0  0  0
    7.1425  -14.3966   25.9624 C   0  0  0  0  0  0  0  0  0  0  0  0
    7.9929  -15.3607   25.1605 C   0  0  2  0  0  0  0  0  0  0  0  0
    7.2308  -15.7590   24.0121 N   0  0  0  0  0  0  0  0  0  0  0  0
    8.3984  -16.5362   25.9378 C   0  0  0  0  0  0  0  0  0  0  0  0
    9.5659  -16.5864   26.6971 O   0  0  0  0  0  0  0  0  0  0  0  0
    7.6788  -17.5682   25.9414 O   0  0  0  0  0  0  0  0  0  0  0  0
  2  3  1  6
  2  1  1  0
  4  2  1  0
  4  6  1  0
  4  5  1  1
  6  7  2  0
  8  6  1  0
  8  9  1  0
  9 10  1  6
 10 11  1  0
 12 11  1  0
 13 12  1  0
 14 13  1  0
 15 19  1  0
 15  9  1  0
 16 15  2  0
 18 17  1  1
 18 20  1  0
 18 19  1  0
 20 21  1  0
 22 20  2  0
M  END
$$$$
