VKA.pdb
     RDKit          3D

 22 21  0  0  1  0  0  0  0  0999 V2000
    8.3225  -12.9929   18.6034 C   0  0  0  0  0  0  0  0  0  0  0  0
    7.8753  -13.4345   19.9585 C   0  0  2  0  0  0  0  0  0  0  0  0
    8.4220  -12.5763   21.0786 C   0  0  0  0  0  0  0  0  0  0  0  0
    8.1518  -14.9024   20.2075 C   0  0  2  0  0  0  0  0  0  0  0  0
    7.4968  -15.6384   19.1397 N   0  0  0  0  0  0  0  0  0  0  0  0
    7.5742  -15.2940   21.5169 C   0  0  0  0  0  0  0  0  0  0  0  0
    6.3373  -15.3412   21.6626 O   0  0  0  0  0  0  0  0  0  0  0  0
    8.4084  -15.6228   22.6302 N   0  0  0  0  0  0  0  0  0  0  0  0
    7.8952  -15.9855   23.9141 C   0  0  1  0  0  0  0  0  0  0  0  0
    7.9174  -17.4996   24.0606 C   0  0  0  0  0  0  0  0  0  0  0  0
    7.4292  -17.9455   25.3920 C   0  0  0  0  0  0  0  0  0  0  0  0
    7.5606  -19.4335   25.5314 C   0  0  0  0  0  0  0  0  0  0  0  0
    7.0459  -19.9388   26.8439 C   0  0  0  0  0  0  0  0  0  0  0  0
    7.2066  -21.3914   26.9249 N   0  0  0  0  0  0  0  0  0  0  0  0
    8.7072  -15.3341   24.9644 C   0  0  0  0  0  0  0  0  0  0  0  0
    9.9410  -15.5245   25.0191 O   0  0  0  0  0  0  0  0  0  0  0  0
    8.0020  -12.6600   27.4840 C   0  0  0  0  0  0  0  0  0  0  0  0
    8.8872  -13.7557   26.9258 C   0  0  2  0  0  0  0  0  0  0  0  0
    8.1234  -14.4729   25.9456 N   0  0  0  0  0  0  0  0  0  0  0  0
    9.3751  -14.6702   27.9631 C   0  0  0  0  0  0  0  0  0  0  0  0
   10.4758  -14.3935   28.7716 O   0  0  0  0  0  0  0  0  0  0  0  0
    8.7935  -15.7685   28.1593 O   0  0  0  0  0  0  0  0  0  0  0  0
  2  3  1  1
  2  1  1  0
  4  2  1  0
  4  6  1  0
  4  5  1  6
  6  7  2  0
  8  6  1  0
  8  9  1  0
  9 10  1  1
 10 11  1  0
 12 11  1  0
 13 12  1  0
 14 13  1  0
 15 19  1  0
 15  9  1  0
 16 15  2  0
 18 17  1  1
 18 20  1  0
 18 19  1  0
 20 21  1  0
 22 20  2  0
M  END
$$$$
