VKA.pdb
     RDKit          3D

 22 21  0  0  1  0  0  0  0  0999 V2000
    4.4643  -21.7587   23.7618 C   0  0  0  0  0  0  0  0  0  0  0  0
    5.6412  -20.8562   23.5835 C   0  0  2  0  0  0  0  0  0  0  0  0
    6.1964  -20.3312   24.8897 C   0  0  0  0  0  0  0  0  0  0  0  0
    5.3610  -19.7274   22.6136 C   0  0  2  0  0  0  0  0  0  0  0  0
    4.9245  -20.3418   21.3715 N   0  0  0  0  0  0  0  0  0  0  0  0
    6.6089  -18.9585   22.3839 C   0  0  0  0  0  0  0  0  0  0  0  0
    7.6308  -19.5397   21.9698 O   0  0  0  0  0  0  0  0  0  0  0  0
    6.6721  -17.5514   22.6277 N   0  0  0  0  0  0  0  0  0  0  0  0
    7.8676  -16.7826   22.4766 C   0  0  1  0  0  0  0  0  0  0  0  0
    7.5119  -15.3734   22.0272 C   0  0  0  0  0  0  0  0  0  0  0  0
    7.7267  -15.1741   20.5698 C   0  0  0  0  0  0  0  0  0  0  0  0
    7.3470  -13.7800   20.1659 C   0  0  0  0  0  0  0  0  0  0  0  0
    7.4389  -13.5613   18.6871 C   0  0  0  0  0  0  0  0  0  0  0  0
    7.0491  -12.1905   18.3533 N   0  0  0  0  0  0  0  0  0  0  0  0
    8.6009  -16.7658   23.7607 C   0  0  0  0  0  0  0  0  0  0  0  0
    8.0580  -16.3177   24.7932 O   0  0  0  0  0  0  0  0  0  0  0  0
   10.9830  -18.6371   25.5060 C   0  0  0  0  0  0  0  0  0  0  0  0
   10.7019  -17.2082   25.0876 C   0  0  2  0  0  0  0  0  0  0  0  0
    9.9404  -17.2541   23.8725 N   0  0  0  0  0  0  0  0  0  0  0  0
   11.9269  -16.4257   24.8940 C   0  0  0  0  0  0  0  0  0  0  0  0
   12.7818  -16.0717   25.9360 O   0  0  0  0  0  0  0  0  0  0  0  0
   12.2519  -16.0385   23.7419 O   0  0  0  0  0  0  0  0  0  0  0  0
  2  3  1  1
  2  1  1  0
  4  2  1  0
  4  6  1  0
  4  5  1  6
  6  7  2  0
  8  6  1  0
  8  9  1  0
  9 10  1  1
 10 11  1  0
 12 11  1  0
 13 12  1  0
 14 13  1  0
 15 19  1  0
 15  9  1  0
 16 15  2  0
 18 17  1  6
 18 20  1  0
 18 19  1  0
 20 21  1  0
 22 20  2  0
M  END
$$$$
