VKA.pdb
     RDKit          3D

 22 21  0  0  1  0  0  0  0  0999 V2000
    7.4909  -12.6569   21.7217 C   0  0  0  0  0  0  0  0  0  0  0  0
    8.4184  -13.3253   20.7603 C   0  0  2  0  0  0  0  0  0  0  0  0
    8.3631  -12.7366   19.3674 C   0  0  0  0  0  0  0  0  0  0  0  0
    8.2318  -14.8278   20.7284 C   0  0  2  0  0  0  0  0  0  0  0  0
    6.9420  -15.0760   20.1074 N   0  0  0  0  0  0  0  0  0  0  0  0
    8.2311  -15.3505   22.1170 C   0  0  0  0  0  0  0  0  0  0  0  0
    7.2098  -15.2404   22.8230 O   0  0  0  0  0  0  0  0  0  0  0  0
    9.3845  -15.9849   22.6744 N   0  0  0  0  0  0  0  0  0  0  0  0
    9.3976  -16.5890   23.9698 C   0  0  1  0  0  0  0  0  0  0  0  0
   10.2655  -17.8380   23.9389 C   0  0  0  0  0  0  0  0  0  0  0  0
    9.4851  -19.0603   23.6119 C   0  0  0  0  0  0  0  0  0  0  0  0
   10.2948  -19.9910   22.7579 C   0  0  0  0  0  0  0  0  0  0  0  0
    9.5170  -21.1909   22.3127 C   0  0  0  0  0  0  0  0  0  0  0  0
   10.3761  -22.0948   21.5463 N   0  0  0  0  0  0  0  0  0  0  0  0
    9.9020  -15.6110   24.9577 C   0  0  0  0  0  0  0  0  0  0  0  0
   11.0140  -15.0643   24.7954 O   0  0  0  0  0  0  0  0  0  0  0  0
    8.5399  -13.4100   27.4953 C   0  0  0  0  0  0  0  0  0  0  0  0
    9.6453  -14.3870   27.1501 C   0  0  2  0  0  0  0  0  0  0  0  0
    9.1502  -15.2558   26.1213 N   0  0  0  0  0  0  0  0  0  0  0  0
   10.0900  -15.1681   28.3087 C   0  0  0  0  0  0  0  0  0  0  0  0
    9.9820  -16.5554   28.3838 O   0  0  0  0  0  0  0  0  0  0  0  0
   10.5994  -14.5878   29.3021 O   0  0  0  0  0  0  0  0  0  0  0  0
  2  3  1  6
  2  1  1  0
  4  2  1  0
  4  6  1  0
  4  5  1  1
  6  7  2  0
  8  6  1  0
  8  9  1  0
  9 10  1  6
 10 11  1  0
 12 11  1  0
 13 12  1  0
 14 13  1  0
 15 19  1  0
 15  9  1  0
 16 15  2  0
 18 17  1  1
 18 20  1  0
 18 19  1  0
 20 21  1  0
 22 20  2  0
M  END
$$$$
