VKA.pdb
     RDKit          3D

 22 21  0  0  1  0  0  0  0  0999 V2000
    8.1406  -12.8418   27.0467 C   0  0  0  0  0  0  0  0  0  0  0  0
    7.3203  -12.2955   25.9243 C   0  0  2  0  0  0  0  0  0  0  0  0
    6.6630  -10.9724   26.2518 C   0  0  0  0  0  0  0  0  0  0  0  0
    6.3087  -13.2973   25.4082 C   0  0  2  0  0  0  0  0  0  0  0  0
    5.4544  -13.6453   26.5306 N   0  0  0  0  0  0  0  0  0  0  0  0
    7.0202  -14.5057   24.9232 C   0  0  0  0  0  0  0  0  0  0  0  0
    7.2473  -15.4499   25.7046 O   0  0  0  0  0  0  0  0  0  0  0  0
    7.4580  -14.6179   23.5671 N   0  0  0  0  0  0  0  0  0  0  0  0
    8.0859  -15.7891   23.0405 C   0  0  1  0  0  0  0  0  0  0  0  0
    8.1069  -15.7146   21.5212 C   0  0  0  0  0  0  0  0  0  0  0  0
    8.6829  -16.9380   20.9035 C   0  0  0  0  0  0  0  0  0  0  0  0
    8.6154  -16.8557   19.4070 C   0  0  0  0  0  0  0  0  0  0  0  0
    9.1979  -18.0608   18.7350 C   0  0  0  0  0  0  0  0  0  0  0  0
    9.3134  -17.8302   17.2942 N   0  0  0  0  0  0  0  0  0  0  0  0
    9.4546  -15.8962   23.5902 C   0  0  0  0  0  0  0  0  0  0  0  0
   10.2219  -14.9101   23.5732 O   0  0  0  0  0  0  0  0  0  0  0  0
   11.2329  -18.4159   25.6792 C   0  0  0  0  0  0  0  0  0  0  0  0
   11.2655  -17.2534   24.7080 C   0  0  2  0  0  0  0  0  0  0  0  0
    9.9490  -17.1136   24.1549 N   0  0  0  0  0  0  0  0  0  0  0  0
   12.2520  -17.4388   23.6390 C   0  0  0  0  0  0  0  0  0  0  0  0
   11.9262  -17.9154   22.3707 O   0  0  0  0  0  0  0  0  0  0  0  0
   13.4625  -17.1633   23.8438 O   0  0  0  0  0  0  0  0  0  0  0  0
  2  3  1  1
  2  1  1  0
  4  2  1  0
  4  6  1  0
  4  5  1  1
  6  7  2  0
  8  6  1  0
  8  9  1  0
  9 10  1  6
 10 11  1  0
 12 11  1  0
 13 12  1  0
 14 13  1  0
 15 19  1  0
 15  9  1  0
 16 15  2  0
 18 17  1  1
 18 20  1  0
 18 19  1  0
 20 21  1  0
 22 20  2  0
M  END
$$$$
