VKA.pdb
     RDKit          3D

 22 21  0  0  1  0  0  0  0  0999 V2000
    7.0391  -12.7444   21.1801 C   0  0  0  0  0  0  0  0  0  0  0  0
    8.1589  -13.5117   20.5567 C   0  0  2  0  0  0  0  0  0  0  0  0
    8.5043  -13.0394   19.1611 C   0  0  0  0  0  0  0  0  0  0  0  0
    7.9205  -15.0069   20.5863 C   0  0  2  0  0  0  0  0  0  0  0  0
    6.7974  -15.2690   19.7027 N   0  0  0  0  0  0  0  0  0  0  0  0
    7.5803  -15.4210   21.9698 C   0  0  0  0  0  0  0  0  0  0  0  0
    6.4009  -15.3535   22.3675 O   0  0  0  0  0  0  0  0  0  0  0  0
    8.5809  -15.9013   22.8707 N   0  0  0  0  0  0  0  0  0  0  0  0
    8.2901  -16.3602   24.1928 C   0  0  1  0  0  0  0  0  0  0  0  0
    8.5802  -17.8505   24.2884 C   0  0  0  0  0  0  0  0  0  0  0  0
    7.4984  -18.5929   24.9873 C   0  0  0  0  0  0  0  0  0  0  0  0
    8.0053  -19.1797   26.2717 C   0  0  0  0  0  0  0  0  0  0  0  0
    6.9390  -19.8988   27.0391 C   0  0  0  0  0  0  0  0  0  0  0  0
    7.4559  -20.3326   28.3380 N   0  0  0  0  0  0  0  0  0  0  0  0
    9.1010  -15.5937   25.1632 C   0  0  0  0  0  0  0  0  0  0  0  0
   10.3483  -15.6675   25.1430 O   0  0  0  0  0  0  0  0  0  0  0  0
    8.3506  -12.9498   27.7006 C   0  0  0  0  0  0  0  0  0  0  0  0
    9.2503  -14.0329   27.1412 C   0  0  2  0  0  0  0  0  0  0  0  0
    8.5011  -14.7494   26.1495 N   0  0  0  0  0  0  0  0  0  0  0  0
    9.7382  -14.9509   28.1754 C   0  0  0  0  0  0  0  0  0  0  0  0
    9.4351  -16.3108   28.1969 O   0  0  0  0  0  0  0  0  0  0  0  0
   10.4697  -14.5217   29.1048 O   0  0  0  0  0  0  0  0  0  0  0  0
  2  3  1  6
  2  1  1  0
  4  2  1  0
  4  6  1  0
  4  5  1  6
  6  7  2  0
  8  6  1  0
  8  9  1  0
  9 10  1  6
 10 11  1  0
 12 11  1  0
 13 12  1  0
 14 13  1  0
 15 19  1  0
 15  9  1  0
 16 15  2  0
 18 17  1  1
 18 20  1  0
 18 19  1  0
 20 21  1  0
 22 20  2  0
M  END
$$$$
