IWH.pdb
     RDKit          3D

 33 35  0  0  1  0  0  0  0  0999 V2000
   29.1859  -19.8349  -16.4318 C   0  0  0  0  0  0  0  0  0  0  0  0
   28.6989  -19.1690  -15.1408 C   0  0  0  0  0  0  0  0  0  0  0  0
   28.3501  -20.2703  -14.1906 C   0  0  2  0  0  0  0  0  0  0  0  0
   27.3659  -21.1859  -14.9305 C   0  0  0  0  0  0  0  0  0  0  0  0
   27.6843  -19.8193  -12.9333 C   0  0  2  0  0  0  0  0  0  0  0  0
   28.3981  -18.7924  -12.2214 N   0  0  0  0  0  0  0  0  0  0  0  0
   27.4009  -20.9228  -11.9944 C   0  0  0  0  0  0  0  0  0  0  0  0
   27.4409  -22.1443  -12.3698 O   0  0  0  0  0  0  0  0  0  0  0  0
   27.0670  -20.7297  -10.6266 N   0  0  0  0  0  0  0  0  0  0  0  0
   25.8328  -21.1107  -10.0281 C   0  0  1  0  0  0  0  0  0  0  0  0
   25.8586  -21.2905   -8.5440 C   0  0  0  0  0  0  0  0  0  0  0  0
   26.7384  -20.2917   -7.8820 C   0  0  0  0  0  0  0  0  0  0  0  0
   26.9461  -18.9747   -8.3180 C   0  0  0  0  0  0  0  0  0  0  0  0
   27.7787  -18.3608   -7.4657 N   0  0  0  0  0  0  0  0  0  0  0  0
   28.1337  -19.2136   -6.4820 C   0  0  0  0  0  0  0  0  0  0  0  0
   28.9786  -19.0265   -5.3853 C   0  0  0  0  0  0  0  0  0  0  0  0
   29.1808  -20.0772   -4.5230 C   0  0  0  0  0  0  0  0  0  0  0  0
   28.5413  -21.2697   -4.7784 C   0  0  0  0  0  0  0  0  0  0  0  0
   27.7092  -21.4540   -5.8581 C   0  0  0  0  0  0  0  0  0  0  0  0
   27.4956  -20.4021   -6.7359 C   0  0  0  0  0  0  0  0  0  0  0  0
   24.6862  -20.2887  -10.4651 C   0  0  0  0  0  0  0  0  0  0  0  0
   24.8257  -19.0705  -10.6853 O   0  0  0  0  0  0  0  0  0  0  0  0
   23.4256  -20.8980  -10.6316 N   0  0  0  0  0  0  0  0  0  0  0  0
   22.5508  -20.4876  -11.7301 C   0  0  1  0  0  0  0  0  0  0  0  0
   22.6176  -21.4865  -12.8585 C   0  0  0  0  0  0  0  0  0  0  0  0
   21.7300  -21.1615  -13.9898 C   0  0  0  0  0  0  0  0  0  0  0  0
   20.8105  -20.1455  -14.1272 C   0  0  0  0  0  0  0  0  0  0  0  0
   20.2170  -20.2576  -15.3398 N   0  0  0  0  0  0  0  0  0  0  0  0
   20.7403  -21.3090  -15.9531 C   0  0  0  0  0  0  0  0  0  0  0  0
   21.6592  -21.8695  -15.1498 N   0  0  0  0  0  0  0  0  0  0  0  0
   21.1557  -20.4275  -11.2347 C   0  0  0  0  0  0  0  0  0  0  0  0
   20.1976  -19.5569  -11.6855 O   0  0  0  0  0  0  0  0  0  0  0  0
   20.7781  -21.2322  -10.3151 O   0  0  0  0  0  0  0  0  0  0  0  0
  2  1  1  0
  3  2  1  0
  3  4  1  6
  5  3  1  0
  5  6  1  1
  7  5  1  0
  7  8  2  0
  9  7  1  0
 10  9  1  0
 11 12  1  0
 10 11  1  1
 12 20  1  0
 13 12  2  0
 13 14  1  0
 14 15  1  0
 15 16  1  0
 16 17  2  0
 18 17  1  0
 19 18  2  0
 20 15  2  0
 20 19  1  0
 21 23  1  0
 21 10  1  0
 22 21  2  0
 24 23  1  0
 24 25  1  6
 25 26  1  0
 26 27  2  0
 27 28  1  0
 29 28  1  0
 30 26  1  0
 30 29  2  0
 31 24  1  0
 32 31  1  0
 33 31  2  0
M  END
$$$$
