IWH.pdb
     RDKit          3D

 33 35  0  0  1  0  0  0  0  0999 V2000
   35.1578  -34.8180  -16.5220 C   0  0  0  0  0  0  0  0  0  0  0  0
   34.8571  -33.6377  -17.4512 C   0  0  0  0  0  0  0  0  0  0  0  0
   33.5531  -33.0564  -17.0048 C   0  0  2  0  0  0  0  0  0  0  0  0
   32.4911  -34.1370  -17.2476 C   0  0  0  0  0  0  0  0  0  0  0  0
   33.1288  -31.8352  -17.7504 C   0  0  2  0  0  0  0  0  0  0  0  0
   33.9634  -30.6848  -17.5253 N   0  0  0  0  0  0  0  0  0  0  0  0
   31.7277  -31.4495  -17.4900 C   0  0  0  0  0  0  0  0  0  0  0  0
   31.4293  -30.5848  -16.5968 O   0  0  0  0  0  0  0  0  0  0  0  0
   30.6163  -31.9914  -18.1905 N   0  0  0  0  0  0  0  0  0  0  0  0
   29.2545  -31.6640  -17.9352 C   0  0  1  0  0  0  0  0  0  0  0  0
   28.3951  -31.4712  -19.1433 C   0  0  0  0  0  0  0  0  0  0  0  0
   28.7867  -30.2605  -19.9119 C   0  0  0  0  0  0  0  0  0  0  0  0
   30.0266  -30.0586  -20.5361 C   0  0  0  0  0  0  0  0  0  0  0  0
   30.0141  -28.8688  -21.1532 N   0  0  0  0  0  0  0  0  0  0  0  0
   28.8190  -28.2709  -20.9654 C   0  0  0  0  0  0  0  0  0  0  0  0
   28.3488  -27.0325  -21.4092 C   0  0  0  0  0  0  0  0  0  0  0  0
   27.0737  -26.6512  -21.0665 C   0  0  0  0  0  0  0  0  0  0  0  0
   26.3151  -27.5072  -20.2999 C   0  0  0  0  0  0  0  0  0  0  0  0
   26.7780  -28.7267  -19.8630 C   0  0  0  0  0  0  0  0  0  0  0  0
   28.0623  -29.1245  -20.2020 C   0  0  0  0  0  0  0  0  0  0  0  0
   28.6136  -32.5424  -16.9357 C   0  0  0  0  0  0  0  0  0  0  0  0
   28.6593  -33.7814  -17.0572 O   0  0  0  0  0  0  0  0  0  0  0  0
   27.9459  -31.9633  -15.8371 N   0  0  0  0  0  0  0  0  0  0  0  0
   27.3656  -32.8147  -14.7984 C   0  0  1  0  0  0  0  0  0  0  0  0
   26.9188  -31.9816  -13.6229 C   0  0  0  0  0  0  0  0  0  0  0  0
   26.3745  -32.7766  -12.5070 C   0  0  0  0  0  0  0  0  0  0  0  0
   26.2372  -34.1410  -12.3794 C   0  0  0  0  0  0  0  0  0  0  0  0
   25.6675  -34.4101  -11.1802 N   0  0  0  0  0  0  0  0  0  0  0  0
   25.4492  -33.2568  -10.5657 C   0  0  0  0  0  0  0  0  0  0  0  0
   25.8714  -32.2556  -11.3551 N   0  0  0  0  0  0  0  0  0  0  0  0
   26.1852  -33.5148  -15.3569 C   0  0  0  0  0  0  0  0  0  0  0  0
   25.8757  -34.8322  -15.1385 O   0  0  0  0  0  0  0  0  0  0  0  0
   25.3694  -32.8755  -16.1063 O   0  0  0  0  0  0  0  0  0  0  0  0
  2  1  1  0
  3  2  1  0
  3  4  1  6
  5  3  1  0
  5  6  1  1
  7  5  1  0
  7  8  2  0
  9  7  1  0
 10  9  1  0
 11 12  1  0
 10 11  1  6
 12 20  1  0
 13 12  2  0
 13 14  1  0
 14 15  1  0
 15 16  1  0
 16 17  2  0
 18 17  1  0
 19 18  2  0
 20 15  2  0
 20 19  1  0
 21 23  1  0
 21 10  1  0
 22 21  2  0
 24 23  1  0
 24 25  1  1
 25 26  1  0
 26 27  2  0
 27 28  1  0
 29 28  1  0
 30 26  1  0
 30 29  2  0
 31 24  1  0
 32 31  1  0
 33 31  2  0
M  END
$$$$
