IWH.pdb
     RDKit          3D

 33 35  0  0  1  0  0  0  0  0999 V2000
   24.3512  -19.4457  -16.4659 C   0  0  0  0  0  0  0  0  0  0  0  0
   25.5445  -19.6831  -15.5348 C   0  0  0  0  0  0  0  0  0  0  0  0
   24.9877  -20.1536  -14.2287 C   0  0  2  0  0  0  0  0  0  0  0  0
   24.1106  -19.0131  -13.6953 C   0  0  0  0  0  0  0  0  0  0  0  0
   26.0137  -20.4548  -13.1876 C   0  0  2  0  0  0  0  0  0  0  0  0
   27.0495  -21.3549  -13.6206 N   0  0  0  0  0  0  0  0  0  0  0  0
   25.4370  -20.9803  -11.9343 C   0  0  0  0  0  0  0  0  0  0  0  0
   25.0075  -22.1815  -11.8503 O   0  0  0  0  0  0  0  0  0  0  0  0
   25.3113  -20.2172  -10.7419 N   0  0  0  0  0  0  0  0  0  0  0  0
   24.7455  -20.6942   -9.5257 C   0  0  1  0  0  0  0  0  0  0  0  0
   25.3370  -20.1359   -8.2712 C   0  0  0  0  0  0  0  0  0  0  0  0
   26.7912  -20.4269   -8.1693 C   0  0  0  0  0  0  0  0  0  0  0  0
   27.5487  -21.1304   -9.1175 C   0  0  0  0  0  0  0  0  0  0  0  0
   28.8234  -21.1791   -8.7062 N   0  0  0  0  0  0  0  0  0  0  0  0
   28.9456  -20.5385   -7.5249 C   0  0  0  0  0  0  0  0  0  0  0  0
   30.0683  -20.3371   -6.7183 C   0  0  0  0  0  0  0  0  0  0  0  0
   29.9172  -19.6459   -5.5402 C   0  0  0  0  0  0  0  0  0  0  0  0
   28.6644  -19.1820   -5.2061 C   0  0  0  0  0  0  0  0  0  0  0  0
   27.5590  -19.3801   -6.0003 C   0  0  0  0  0  0  0  0  0  0  0  0
   27.6971  -20.0752   -7.1922 C   0  0  0  0  0  0  0  0  0  0  0  0
   23.2693  -20.6544   -9.5059 C   0  0  0  0  0  0  0  0  0  0  0  0
   22.6614  -19.5753   -9.6397 O   0  0  0  0  0  0  0  0  0  0  0  0
   22.5502  -21.8549   -9.3332 N   0  0  0  0  0  0  0  0  0  0  0  0
   21.0884  -21.8507   -9.3939 C   0  0  1  0  0  0  0  0  0  0  0  0
   20.6052  -22.7268  -10.5227 C   0  0  0  0  0  0  0  0  0  0  0  0
   20.5056  -22.0252  -11.8155 C   0  0  0  0  0  0  0  0  0  0  0  0
   20.6422  -20.6860  -12.1062 C   0  0  0  0  0  0  0  0  0  0  0  0
   20.4489  -20.5079  -13.4351 N   0  0  0  0  0  0  0  0  0  0  0  0
   20.1975  -21.6929  -13.9718 C   0  0  0  0  0  0  0  0  0  0  0  0
   20.2277  -22.6246  -13.0051 N   0  0  0  0  0  0  0  0  0  0  0  0
   20.5545  -22.3853   -8.1193 C   0  0  0  0  0  0  0  0  0  0  0  0
   19.2271  -22.4315   -7.7802 O   0  0  0  0  0  0  0  0  0  0  0  0
   21.3623  -22.8469   -7.2417 O   0  0  0  0  0  0  0  0  0  0  0  0
  2  1  1  0
  3  2  1  0
  3  4  1  1
  5  3  1  0
  5  6  1  6
  7  5  1  0
  7  8  2  0
  9  7  1  0
 10  9  1  0
 11 12  1  0
 10 11  1  1
 12 20  1  0
 13 12  2  0
 13 14  1  0
 14 15  1  0
 15 16  1  0
 16 17  2  0
 18 17  1  0
 19 18  2  0
 20 15  2  0
 20 19  1  0
 21 23  1  0
 21 10  1  0
 22 21  2  0
 24 23  1  0
 24 25  1  6
 25 26  1  0
 26 27  2  0
 27 28  1  0
 29 28  1  0
 30 26  1  0
 30 29  2  0
 31 24  1  0
 32 31  1  0
 33 31  2  0
M  END
$$$$
