IWH.pdb
     RDKit          3D

 33 35  0  0  1  0  0  0  0  0999 V2000
   28.1153  -17.8851  -16.8633 C   0  0  0  0  0  0  0  0  0  0  0  0
   28.8067  -18.7959  -15.8437 C   0  0  0  0  0  0  0  0  0  0  0  0
   27.7341  -19.3485  -14.9595 C   0  0  2  0  0  0  0  0  0  0  0  0
   27.1317  -18.1529  -14.2097 C   0  0  0  0  0  0  0  0  0  0  0  0
   28.2127  -20.3243  -13.9367 C   0  0  2  0  0  0  0  0  0  0  0  0
   28.8952  -21.4672  -14.4832 N   0  0  0  0  0  0  0  0  0  0  0  0
   27.1406  -20.8076  -13.0442 C   0  0  0  0  0  0  0  0  0  0  0  0
   26.3012  -21.6920  -13.4288 O   0  0  0  0  0  0  0  0  0  0  0  0
   26.9517  -20.3444  -11.7140 N   0  0  0  0  0  0  0  0  0  0  0  0
   25.8189  -20.6372  -10.9030 C   0  0  1  0  0  0  0  0  0  0  0  0
   25.9408  -20.2684   -9.4592 C   0  0  0  0  0  0  0  0  0  0  0  0
   27.2763  -20.6216   -8.9099 C   0  0  0  0  0  0  0  0  0  0  0  0
   28.2196  -21.4509   -9.5345 C   0  0  0  0  0  0  0  0  0  0  0  0
   29.3128  -21.5243   -8.7625 N   0  0  0  0  0  0  0  0  0  0  0  0
   29.1363  -20.7797   -7.6511 C   0  0  0  0  0  0  0  0  0  0  0  0
   29.9890  -20.5586   -6.5669 C   0  0  0  0  0  0  0  0  0  0  0  0
   29.5566  -19.7500   -5.5432 C   0  0  0  0  0  0  0  0  0  0  0  0
   28.3003  -19.1931   -5.6312 C   0  0  0  0  0  0  0  0  0  0  0  0
   27.4606  -19.4106   -6.6988 C   0  0  0  0  0  0  0  0  0  0  0  0
   27.8843  -20.2236   -7.7390 C   0  0  0  0  0  0  0  0  0  0  0  0
   24.5416  -20.1775  -11.4847 C   0  0  0  0  0  0  0  0  0  0  0  0
   24.4999  -19.1575  -12.1988 O   0  0  0  0  0  0  0  0  0  0  0  0
   23.3636  -20.9069  -11.2233 N   0  0  0  0  0  0  0  0  0  0  0  0
   22.1253  -20.5803  -11.9306 C   0  0  1  0  0  0  0  0  0  0  0  0
   22.2004  -21.0407  -13.3651 C   0  0  0  0  0  0  0  0  0  0  0  0
   20.9994  -20.7138  -14.1552 C   0  0  0  0  0  0  0  0  0  0  0  0
   20.3756  -19.5020  -14.3532 C   0  0  0  0  0  0  0  0  0  0  0  0
   19.2924  -19.6950  -15.1435 N   0  0  0  0  0  0  0  0  0  0  0  0
   19.2286  -20.9852  -15.4381 C   0  0  0  0  0  0  0  0  0  0  0  0
   20.2552  -21.6184  -14.8477 N   0  0  0  0  0  0  0  0  0  0  0  0
   20.9975  -21.2777  -11.2693 C   0  0  0  0  0  0  0  0  0  0  0  0
   19.6721  -20.9807  -11.4537 O   0  0  0  0  0  0  0  0  0  0  0  0
   21.2383  -22.2348  -10.4557 O   0  0  0  0  0  0  0  0  0  0  0  0
  2  1  1  0
  3  2  1  0
  3  4  1  1
  5  3  1  0
  5  6  1  6
  7  5  1  0
  7  8  2  0
  9  7  1  0
 10  9  1  0
 11 12  1  0
 10 11  1  1
 12 20  1  0
 13 12  2  0
 13 14  1  0
 14 15  1  0
 15 16  1  0
 16 17  2  0
 18 17  1  0
 19 18  2  0
 20 15  2  0
 20 19  1  0
 21 23  1  0
 21 10  1  0
 22 21  2  0
 24 23  1  0
 24 25  1  6
 25 26  1  0
 26 27  2  0
 27 28  1  0
 29 28  1  0
 30 26  1  0
 30 29  2  0
 31 24  1  0
 32 31  1  0
 33 31  2  0
M  END
$$$$
