LPR.pdb
     RDKit          3D

 27 27  0  0  1  0  0  0  0  0999 V2000
   10.6927  -18.1687    3.8350 C   0  0  0  0  0  0  0  0  0  0  0  0
   12.1763  -17.9049    4.0003 C   0  0  1  0  0  0  0  0  0  0  0  0
   12.4489  -18.0512    5.5047 C   0  0  0  0  0  0  0  0  0  0  0  0
   13.0165  -18.9365    3.3222 C   0  0  0  0  0  0  0  0  0  0  0  0
   14.4846  -18.5929    3.2416 C   0  0  2  0  0  0  0  0  0  0  0  0
   14.5995  -17.5280    2.2676 N   0  0  0  0  0  0  0  0  0  0  0  0
   15.3277  -19.7533    2.8649 C   0  0  0  0  0  0  0  0  0  0  0  0
   15.5370  -19.8813    1.6053 O   0  0  0  0  0  0  0  0  0  0  0  0
   15.8814  -20.6782    3.7914 N   0  0  0  0  0  0  0  0  0  0  0  0
   15.7650  -20.6078    5.2076 C   0  0  0  0  0  0  0  0  0  0  0  0
   16.6133  -21.7496    5.7345 C   0  0  0  0  0  0  0  0  0  0  0  0
   17.5569  -22.0655    4.5723 C   0  0  0  0  0  0  0  0  0  0  0  0
   16.6445  -21.8238    3.4037 C   0  0  1  0  0  0  0  0  0  0  0  0
   15.7631  -22.9817    3.1226 C   0  0  0  0  0  0  0  0  0  0  0  0
   14.6614  -23.0736    3.7101 O   0  0  0  0  0  0  0  0  0  0  0  0
   17.0380  -25.6567   -4.6019 N   0  0  0  0  0  0  0  0  0  0  0  0
   16.0463  -24.7218   -4.2031 C   0  0  0  0  0  0  0  0  0  0  0  0
   15.5262  -23.9523   -5.1232 N   0  0  0  0  0  0  0  0  0  0  0  0
   15.5976  -24.5831   -2.8738 N   0  0  0  0  0  0  0  0  0  0  0  0
   16.1203  -25.4726   -1.8051 C   0  0  0  0  0  0  0  0  0  0  0  0
   15.3065  -25.1886   -0.6110 C   0  0  0  0  0  0  0  0  0  0  0  0
   15.5718  -25.8443    0.6625 C   0  0  0  0  0  0  0  0  0  0  0  0
   15.3453  -25.1744    1.9585 C   0  0  2  0  0  0  0  0  0  0  0  0
   16.1346  -23.9932    2.2026 N   0  0  0  0  0  0  0  0  0  0  0  0
   15.3063  -26.0810    3.1163 C   0  0  0  0  0  0  0  0  0  0  0  0
   14.3387  -26.0649    3.8965 O   0  0  0  0  0  0  0  0  0  0  0  0
   16.3483  -26.9503    3.3335 O   0  0  0  0  0  0  0  0  0  0  0  0
  2  3  1  1
  2  1  1  0
  4  2  1  0
  4  5  1  0
  5  7  1  0
  5  6  1  6
  7  8  2  0
  9 13  1  0
  9  7  1  0
 10  9  1  0
 11 10  1  0
 11 12  1  0
 12 13  1  0
 13 14  1  1
 14 15  2  0
 16 17  1  0
 17 19  1  0
 18 17  2  0
 19 20  1  0
 21 20  1  0
 21 22  1  0
 23 22  1  6
 23 24  1  0
 23 25  1  0
 24 14  1  0
 25 27  1  0
 26 25  2  0
M  END
$$$$
