LPR.pdb
     RDKit          3D

 27 27  0  0  1  0  0  0  0  0999 V2000
   28.1593  -20.5058  -11.9724 C   0  0  0  0  0  0  0  0  0  0  0  0
   26.8531  -21.1551  -12.3851 C   0  0  1  0  0  0  0  0  0  0  0  0
   27.1001  -22.6671  -12.2769 C   0  0  0  0  0  0  0  0  0  0  0  0
   25.7402  -20.8459  -11.4386 C   0  0  0  0  0  0  0  0  0  0  0  0
   25.2684  -19.4121  -11.4754 C   0  0  2  0  0  0  0  0  0  0  0  0
   24.1402  -19.3325  -10.5716 N   0  0  0  0  0  0  0  0  0  0  0  0
   24.8924  -18.9644  -12.8383 C   0  0  0  0  0  0  0  0  0  0  0  0
   23.6477  -19.0911  -13.1231 O   0  0  0  0  0  0  0  0  0  0  0  0
   25.8050  -18.4313  -13.7888 N   0  0  0  0  0  0  0  0  0  0  0  0
   27.1887  -18.1861  -13.5670 C   0  0  0  0  0  0  0  0  0  0  0  0
   27.6841  -17.5202  -14.8367 C   0  0  0  0  0  0  0  0  0  0  0  0
   26.4072  -16.9801  -15.4838 C   0  0  0  0  0  0  0  0  0  0  0  0
   25.4345  -18.0656  -15.1208 C   0  0  1  0  0  0  0  0  0  0  0  0
   25.5149  -19.2292  -16.0353 C   0  0  0  0  0  0  0  0  0  0  0  0
   26.4966  -20.0027  -15.9624 O   0  0  0  0  0  0  0  0  0  0  0  0
   17.9151  -21.9527  -13.5696 N   0  0  0  0  0  0  0  0  0  0  0  0
   19.1114  -22.4176  -12.9619 C   0  0  0  0  0  0  0  0  0  0  0  0
   19.0242  -22.9575  -11.7744 N   0  0  0  0  0  0  0  0  0  0  0  0
   20.3797  -22.3270  -13.5710 N   0  0  0  0  0  0  0  0  0  0  0  0
   20.6135  -21.3751  -14.6871 C   0  0  0  0  0  0  0  0  0  0  0  0
   21.9260  -21.7313  -15.2519 C   0  0  0  0  0  0  0  0  0  0  0  0
   22.9329  -20.7166  -15.5324 C   0  0  0  0  0  0  0  0  0  0  0  0
   23.5452  -20.5584  -16.8665 C   0  0  2  0  0  0  0  0  0  0  0  0
   24.5064  -19.4919  -16.9952 N   0  0  0  0  0  0  0  0  0  0  0  0
   22.5914  -20.6017  -17.9855 C   0  0  0  0  0  0  0  0  0  0  0  0
   21.8429  -19.6355  -18.2127 O   0  0  0  0  0  0  0  0  0  0  0  0
   22.5302  -21.7192  -18.7830 O   0  0  0  0  0  0  0  0  0  0  0  0
  2  3  1  1
  2  1  1  0
  4  2  1  0
  4  5  1  0
  5  7  1  0
  5  6  1  1
  7  8  2  0
  9 13  1  0
  9  7  1  0
 10  9  1  0
 11 10  1  0
 11 12  1  0
 12 13  1  0
 13 14  1  6
 14 15  2  0
 16 17  1  0
 17 19  1  0
 18 17  2  0
 19 20  1  0
 21 20  1  0
 21 22  1  0
 23 22  1  1
 23 24  1  0
 23 25  1  0
 24 14  1  0
 25 27  1  0
 26 25  2  0
M  END
$$$$
