LPR.pdb
     RDKit          3D

 27 27  0  0  1  0  0  0  0  0999 V2000
   20.5403  -27.6989  -10.2006 C   0  0  0  0  0  0  0  0  0  0  0  0
   19.5689  -27.8301  -11.3569 C   0  0  1  0  0  0  0  0  0  0  0  0
   18.8704  -26.4659  -11.4564 C   0  0  0  0  0  0  0  0  0  0  0  0
   20.2635  -28.0387  -12.6623 C   0  0  0  0  0  0  0  0  0  0  0  0
   19.3657  -28.5152  -13.7791 C   0  0  2  0  0  0  0  0  0  0  0  0
   18.8052  -29.7756  -13.3398 N   0  0  0  0  0  0  0  0  0  0  0  0
   20.0830  -28.6709  -15.0677 C   0  0  0  0  0  0  0  0  0  0  0  0
   20.5274  -29.8524  -15.2980 O   0  0  0  0  0  0  0  0  0  0  0  0
   20.2873  -27.6220  -16.0050 N   0  0  0  0  0  0  0  0  0  0  0  0
   19.7932  -26.2931  -15.8872 C   0  0  0  0  0  0  0  0  0  0  0  0
   20.1850  -25.6059  -17.1815 C   0  0  0  0  0  0  0  0  0  0  0  0
   20.4310  -26.7667  -18.1473 C   0  0  0  0  0  0  0  0  0  0  0  0
   21.0344  -27.7776  -17.2144 C   0  0  1  0  0  0  0  0  0  0  0  0
   22.4796  -27.5445  -16.9825 C   0  0  0  0  0  0  0  0  0  0  0  0
   22.8380  -26.6678  -16.1639 O   0  0  0  0  0  0  0  0  0  0  0  0
   28.3048  -33.5498  -15.8540 N   0  0  0  0  0  0  0  0  0  0  0  0
   28.5428  -32.1541  -15.9629 C   0  0  0  0  0  0  0  0  0  0  0  0
   29.7817  -31.7394  -15.9149 N   0  0  0  0  0  0  0  0  0  0  0  0
   27.5169  -31.1998  -16.1195 N   0  0  0  0  0  0  0  0  0  0  0  0
   26.0907  -31.6137  -16.0846 C   0  0  0  0  0  0  0  0  0  0  0  0
   25.3082  -30.3764  -16.2442 C   0  0  0  0  0  0  0  0  0  0  0  0
   25.6510  -29.3859  -17.2559 C   0  0  0  0  0  0  0  0  0  0  0  0
   24.8858  -28.1352  -17.4286 C   0  0  2  0  0  0  0  0  0  0  0  0
   23.4723  -28.2901  -17.6652 N   0  0  0  0  0  0  0  0  0  0  0  0
   25.5094  -27.1574  -18.3335 C   0  0  0  0  0  0  0  0  0  0  0  0
   24.8657  -26.6779  -19.2827 O   0  0  0  0  0  0  0  0  0  0  0  0
   26.8124  -26.7738  -18.1249 O   0  0  0  0  0  0  0  0  0  0  0  0
  2  3  1  6
  2  1  1  0
  4  2  1  0
  4  5  1  0
  5  7  1  0
  5  6  1  1
  7  8  2  0
  9 13  1  0
  9  7  1  0
 10  9  1  0
 11 10  1  0
 11 12  1  0
 12 13  1  0
 13 14  1  1
 14 15  2  0
 16 17  1  0
 17 19  1  0
 18 17  2  0
 19 20  1  0
 21 20  1  0
 21 22  1  0
 23 22  1  6
 23 24  1  0
 23 25  1  0
 24 14  1  0
 25 27  1  0
 26 25  2  0
M  END
$$$$
