LPR.pdb
     RDKit          3D

 27 27  0  0  1  0  0  0  0  0999 V2000
   26.0252  -21.5683   -6.1009 C   0  0  0  0  0  0  0  0  0  0  0  0
   26.5100  -20.3759   -6.9017 C   0  0  1  0  0  0  0  0  0  0  0  0
   28.0238  -20.3079   -6.6513 C   0  0  0  0  0  0  0  0  0  0  0  0
   26.3393  -20.5710   -8.3723 C   0  0  0  0  0  0  0  0  0  0  0  0
   26.6995  -19.3665   -9.2087 C   0  0  2  0  0  0  0  0  0  0  0  0
   25.9223  -18.2624   -8.6865 N   0  0  0  0  0  0  0  0  0  0  0  0
   26.4342  -19.5689  -10.6538 C   0  0  0  0  0  0  0  0  0  0  0  0
   25.3311  -19.0664  -11.0749 O   0  0  0  0  0  0  0  0  0  0  0  0
   27.3040  -20.2594  -11.5410 N   0  0  0  0  0  0  0  0  0  0  0  0
   28.4494  -21.0141  -11.1636 C   0  0  0  0  0  0  0  0  0  0  0  0
   29.0877  -21.4495  -12.4689 C   0  0  0  0  0  0  0  0  0  0  0  0
   28.5221  -20.4648  -13.4943 C   0  0  0  0  0  0  0  0  0  0  0  0
   27.1303  -20.2808  -12.9603 C   0  0  1  0  0  0  0  0  0  0  0  0
   26.2161  -21.3733  -13.3695 C   0  0  0  0  0  0  0  0  0  0  0  0
   26.2968  -22.4874  -12.8043 O   0  0  0  0  0  0  0  0  0  0  0  0
   18.9781  -22.7601  -11.6714 N   0  0  0  0  0  0  0  0  0  0  0  0
   19.5159  -21.7079  -10.8839 C   0  0  0  0  0  0  0  0  0  0  0  0
   19.0510  -21.5520   -9.6719 N   0  0  0  0  0  0  0  0  0  0  0  0
   20.5195  -20.8291  -11.3404 N   0  0  0  0  0  0  0  0  0  0  0  0
   20.9458  -20.8458  -12.7632 C   0  0  0  0  0  0  0  0  0  0  0  0
   22.4175  -20.7980  -12.7432 C   0  0  0  0  0  0  0  0  0  0  0  0
   23.2204  -21.9315  -13.1821 C   0  0  0  0  0  0  0  0  0  0  0  0
   23.9997  -21.9097  -14.4359 C   0  0  2  0  0  0  0  0  0  0  0  0
   25.2483  -21.1911  -14.3881 N   0  0  0  0  0  0  0  0  0  0  0  0
   23.2122  -21.6012  -15.6394 C   0  0  0  0  0  0  0  0  0  0  0  0
   23.4691  -20.5922  -16.3185 O   0  0  0  0  0  0  0  0  0  0  0  0
   22.1866  -22.4363  -16.0125 O   0  0  0  0  0  0  0  0  0  0  0  0
  2  3  1  6
  2  1  1  0
  4  2  1  0
  4  5  1  0
  5  7  1  0
  5  6  1  1
  7  8  2  0
  9 13  1  0
  9  7  1  0
 10  9  1  0
 11 10  1  0
 11 12  1  0
 12 13  1  0
 13 14  1  1
 14 15  2  0
 16 17  1  0
 17 19  1  0
 18 17  2  0
 19 20  1  0
 21 20  1  0
 21 22  1  0
 23 22  1  1
 23 24  1  0
 23 25  1  0
 24 14  1  0
 25 27  1  0
 26 25  2  0
M  END
$$$$
