YCP.pdb
     RDKit          3D

 26 27  0  0  1  0  0  0  0  0999 V2000
   11.0108   -5.4652   -6.6275 O   0  0  0  0  0  0  0  0  0  0  0  0
   12.2002   -5.8131   -7.2686 C   0  0  0  0  0  0  0  0  0  0  0  0
   12.2291   -6.7797   -8.2327 C   0  0  0  0  0  0  0  0  0  0  0  0
   13.4101   -7.1292   -8.8732 C   0  0  0  0  0  0  0  0  0  0  0  0
   14.5916   -6.5036   -8.5487 C   0  0  0  0  0  0  0  0  0  0  0  0
   15.8636   -6.8601   -9.2189 C   0  0  0  0  0  0  0  0  0  0  0  0
   15.6761   -8.0671  -10.1436 C   0  0  2  0  0  0  0  0  0  0  0  0
   15.5884   -9.2913   -9.3920 N   0  0  0  0  0  0  0  0  0  0  0  0
   16.8548   -8.0720  -11.0579 C   0  0  0  0  0  0  0  0  0  0  0  0
   17.9645   -8.3765  -10.5257 O   0  0  0  0  0  0  0  0  0  0  0  0
   14.5831   -5.5217   -7.5746 C   0  0  0  0  0  0  0  0  0  0  0  0
   13.3984   -5.1932   -6.9539 C   0  0  0  0  0  0  0  0  0  0  0  0
   16.7598   -7.7582  -12.4399 N   0  0  0  0  0  0  0  0  0  0  0  0
   17.9691   -7.6460  -13.2515 C   0  0  1  0  0  0  0  0  0  0  0  0
   17.4966   -7.9296  -14.6778 C   0  0  0  0  0  0  0  0  0  0  0  0
   15.9221   -7.0427  -14.9653 S   0  0  0  0  0  0  0  0  0  0  0  0
   18.5458   -6.2873  -13.1673 C   0  0  0  0  0  0  0  0  0  0  0  0
   17.8304   -5.3741  -12.6842 O   0  0  0  0  0  0  0  0  0  0  0  0
   19.8439   -6.0252  -13.6087 N   0  0  0  0  0  0  0  0  0  0  0  0
   20.7589   -6.9570  -14.1998 C   0  0  0  0  0  0  0  0  0  0  0  0
   22.0775   -6.5187  -13.5901 C   0  0  0  0  0  0  0  0  0  0  0  0
   21.8652   -5.1721  -12.9630 C   0  0  0  0  0  0  0  0  0  0  0  0
   20.5254   -4.7539  -13.5581 C   0  0  1  0  0  0  0  0  0  0  0  0
   20.7288   -4.1495  -14.8765 C   0  0  0  0  0  0  0  0  0  0  0  0
   21.1190   -2.8332  -15.0631 O   0  0  0  0  0  0  0  0  0  0  0  0
   20.5450   -4.8440  -15.9063 O   0  0  0  0  0  0  0  0  0  0  0  0
  2  3  2  0
  2  1  1  0
  4  3  1  0
  5  4  2  0
  6  5  1  0
  7  9  1  0
  7  6  1  0
  7  8  1  1
  9 10  2  0
 11  5  1  0
 11 12  2  0
 12  2  1  0
 13 14  1  0
 13  9  1  0
 14 15  1  6
 15 16  1  0
 17 19  1  0
 17 14  1  0
 18 17  2  0
 19 20  1  0
 21 20  1  0
 22 21  1  0
 23 22  1  0
 23 19  1  0
 23 24  1  6
 25 24  1  0
 26 24  2  0
M  END
$$$$
