YCP.pdb
     RDKit          3D

 26 27  0  0  1  0  0  0  0  0999 V2000
   20.2169  -20.6405  -13.5959 O   0  0  0  0  0  0  0  0  0  0  0  0
   21.3176  -20.7691  -12.7481 C   0  0  0  0  0  0  0  0  0  0  0  0
   22.0193  -21.9379  -12.6703 C   0  0  0  0  0  0  0  0  0  0  0  0
   23.1150  -22.0704  -11.8282 C   0  0  0  0  0  0  0  0  0  0  0  0
   23.5241  -21.0167  -11.0440 C   0  0  0  0  0  0  0  0  0  0  0  0
   24.6902  -21.1354  -10.1382 C   0  0  0  0  0  0  0  0  0  0  0  0
   25.8724  -20.3098  -10.6559 C   0  0  2  0  0  0  0  0  0  0  0  0
   26.4629  -20.9173  -11.8194 N   0  0  0  0  0  0  0  0  0  0  0  0
   26.8454  -20.2324   -9.5280 C   0  0  0  0  0  0  0  0  0  0  0  0
   27.4932  -21.2948   -9.2843 O   0  0  0  0  0  0  0  0  0  0  0  0
   22.8262  -19.8243  -11.1086 C   0  0  0  0  0  0  0  0  0  0  0  0
   21.7426  -19.7181  -11.9520 C   0  0  0  0  0  0  0  0  0  0  0  0
   27.0476  -19.0523   -8.7638 N   0  0  0  0  0  0  0  0  0  0  0  0
   28.0649  -19.0221   -7.7159 C   0  0  1  0  0  0  0  0  0  0  0  0
   28.0469  -17.5790   -7.2110 C   0  0  0  0  0  0  0  0  0  0  0  0
   27.8158  -17.5915   -5.3959 S   0  0  0  0  0  0  0  0  0  0  0  0
   27.7273  -19.9502   -6.6158 C   0  0  0  0  0  0  0  0  0  0  0  0
   26.5758  -20.4533   -6.6037 O   0  0  0  0  0  0  0  0  0  0  0  0
   28.6569  -20.2603   -5.6217 N   0  0  0  0  0  0  0  0  0  0  0  0
   29.9851  -19.7374   -5.4891 C   0  0  0  0  0  0  0  0  0  0  0  0
   30.7493  -20.9610   -5.0187 C   0  0  0  0  0  0  0  0  0  0  0  0
   29.7446  -21.9945   -4.6019 C   0  0  0  0  0  0  0  0  0  0  0  0
   28.4620  -21.1743   -4.5217 C   0  0  1  0  0  0  0  0  0  0  0  0
   28.3728  -20.5085   -3.2204 C   0  0  0  0  0  0  0  0  0  0  0  0
   28.0979  -21.1746   -2.0370 O   0  0  0  0  0  0  0  0  0  0  0  0
   28.5517  -19.2676   -3.1510 O   0  0  0  0  0  0  0  0  0  0  0  0
  2  3  2  0
  2  1  1  0
  4  3  1  0
  5  4  2  0
  6  5  1  0
  7  9  1  0
  7  6  1  0
  7  8  1  6
  9 10  2  0
 11  5  1  0
 11 12  2  0
 12  2  1  0
 13 14  1  0
 13  9  1  0
 14 15  1  1
 15 16  1  0
 17 19  1  0
 17 14  1  0
 18 17  2  0
 19 20  1  0
 21 20  1  0
 22 21  1  0
 23 22  1  0
 23 19  1  0
 23 24  1  1
 25 24  1  0
 26 24  2  0
M  END
$$$$
