YCP.pdb
     RDKit          3D

 26 27  0  0  1  0  0  0  0  0999 V2000
   27.2827  -21.4196   -8.6380 O   0  0  0  0  0  0  0  0  0  0  0  0
   26.3432  -21.1315   -9.6285 C   0  0  0  0  0  0  0  0  0  0  0  0
   25.2219  -20.4032   -9.3513 C   0  0  0  0  0  0  0  0  0  0  0  0
   24.2845  -20.1141  -10.3335 C   0  0  0  0  0  0  0  0  0  0  0  0
   24.4646  -20.5590  -11.6228 C   0  0  0  0  0  0  0  0  0  0  0  0
   23.4777  -20.2625  -12.6870 C   0  0  0  0  0  0  0  0  0  0  0  0
   22.0605  -20.6334  -12.2386 C   0  0  2  0  0  0  0  0  0  0  0  0
   21.9380  -22.0500  -12.0156 N   0  0  0  0  0  0  0  0  0  0  0  0
   21.1507  -20.1723  -13.3271 C   0  0  0  0  0  0  0  0  0  0  0  0
   20.9151  -21.0160  -14.2438 O   0  0  0  0  0  0  0  0  0  0  0  0
   25.5942  -21.2983  -11.9237 C   0  0  0  0  0  0  0  0  0  0  0  0
   26.5093  -21.5718  -10.9314 C   0  0  0  0  0  0  0  0  0  0  0  0
   20.5752  -18.8740  -13.3525 N   0  0  0  0  0  0  0  0  0  0  0  0
   19.5712  -18.5361  -14.3584 C   0  0  1  0  0  0  0  0  0  0  0  0
   18.6761  -17.5053  -13.6699 C   0  0  0  0  0  0  0  0  0  0  0  0
   18.3715  -18.0443  -11.9480 S   0  0  0  0  0  0  0  0  0  0  0  0
   20.1964  -17.9449  -15.5606 C   0  0  0  0  0  0  0  0  0  0  0  0
   21.3412  -17.4409  -15.4402 O   0  0  0  0  0  0  0  0  0  0  0  0
   19.5382  -17.9464  -16.7917 N   0  0  0  0  0  0  0  0  0  0  0  0
   18.2285  -18.4591  -17.0692 C   0  0  0  0  0  0  0  0  0  0  0  0
   18.4275  -19.0788  -18.4399 C   0  0  0  0  0  0  0  0  0  0  0  0
   19.7374  -18.5839  -18.9790 C   0  0  0  0  0  0  0  0  0  0  0  0
   20.0499  -17.4265  -18.0371 C   0  0  1  0  0  0  0  0  0  0  0  0
   19.3635  -16.2138  -18.4875 C   0  0  0  0  0  0  0  0  0  0  0  0
   19.7851  -15.4507  -19.5643 O   0  0  0  0  0  0  0  0  0  0  0  0
   18.3355  -15.8270  -17.8790 O   0  0  0  0  0  0  0  0  0  0  0  0
  2  3  2  0
  2  1  1  0
  4  3  1  0
  5  4  2  0
  6  5  1  0
  7  9  1  0
  7  6  1  0
  7  8  1  6
  9 10  2  0
 11  5  1  0
 11 12  2  0
 12  2  1  0
 13 14  1  0
 13  9  1  0
 14 15  1  1
 15 16  1  0
 17 19  1  0
 17 14  1  0
 18 17  2  0
 19 20  1  0
 21 20  1  0
 22 21  1  0
 23 22  1  0
 23 19  1  0
 23 24  1  6
 25 24  1  0
 26 24  2  0
M  END
$$$$
