YCP.pdb
     RDKit          3D

 26 27  0  0  1  0  0  0  0  0999 V2000
   20.6463  -22.2691  -13.8829 O   0  0  0  0  0  0  0  0  0  0  0  0
   21.7871  -22.1334  -13.0912 C   0  0  0  0  0  0  0  0  0  0  0  0
   21.8316  -21.2398  -12.0597 C   0  0  0  0  0  0  0  0  0  0  0  0
   22.9646  -21.1014  -11.2694 C   0  0  0  0  0  0  0  0  0  0  0  0
   24.0807  -21.8691  -11.5090 C   0  0  0  0  0  0  0  0  0  0  0  0
   25.3005  -21.7385  -10.6787 C   0  0  0  0  0  0  0  0  0  0  0  0
   25.9966  -20.3980  -10.9348 C   0  0  2  0  0  0  0  0  0  0  0  0
   26.6927  -20.4041  -12.1945 N   0  0  0  0  0  0  0  0  0  0  0  0
   26.9363  -20.1978   -9.7937 C   0  0  0  0  0  0  0  0  0  0  0  0
   28.0027  -20.8827   -9.8305 O   0  0  0  0  0  0  0  0  0  0  0  0
   24.0553  -22.7802  -12.5494 C   0  0  0  0  0  0  0  0  0  0  0  0
   22.9193  -22.8985  -13.3189 C   0  0  0  0  0  0  0  0  0  0  0  0
   26.6708  -19.3012   -8.7246 N   0  0  0  0  0  0  0  0  0  0  0  0
   27.6606  -19.1056   -7.6682 C   0  0  1  0  0  0  0  0  0  0  0  0
   27.2000  -17.8387   -6.9464 C   0  0  0  0  0  0  0  0  0  0  0  0
   28.1344  -17.6783   -5.3813 S   0  0  0  0  0  0  0  0  0  0  0  0
   27.6753  -20.2485   -6.7305 C   0  0  0  0  0  0  0  0  0  0  0  0
   26.6683  -20.9999   -6.7040 O   0  0  0  0  0  0  0  0  0  0  0  0
   28.7721  -20.4880   -5.9010 N   0  0  0  0  0  0  0  0  0  0  0  0
   30.0026  -19.7534   -5.8640 C   0  0  0  0  0  0  0  0  0  0  0  0
   31.0141  -20.8630   -5.6444 C   0  0  0  0  0  0  0  0  0  0  0  0
   30.2592  -22.0960   -5.2426 C   0  0  0  0  0  0  0  0  0  0  0  0
   28.8839  -21.5297   -4.9082 C   0  0  1  0  0  0  0  0  0  0  0  0
   28.8692  -21.0269   -3.5327 C   0  0  0  0  0  0  0  0  0  0  0  0
   28.7230  -19.6878   -3.2088 O   0  0  0  0  0  0  0  0  0  0  0  0
   28.9942  -21.8362   -2.5808 O   0  0  0  0  0  0  0  0  0  0  0  0
  2  3  2  0
  2  1  1  0
  4  3  1  0
  5  4  2  0
  6  5  1  0
  7  9  1  0
  7  6  1  0
  7  8  1  6
  9 10  2  0
 11  5  1  0
 11 12  2  0
 12  2  1  0
 13 14  1  0
 13  9  1  0
 14 15  1  1
 15 16  1  0
 17 19  1  0
 17 14  1  0
 18 17  2  0
 19 20  1  0
 21 20  1  0
 22 21  1  0
 23 22  1  0
 23 19  1  0
 23 24  1  1
 25 24  1  0
 26 24  2  0
M  END
$$$$
