YCP.pdb
     RDKit          3D

 26 27  0  0  1  0  0  0  0  0999 V2000
   21.0301  -19.9604  -14.3748 O   0  0  0  0  0  0  0  0  0  0  0  0
   21.9490  -20.1660  -13.3452 C   0  0  0  0  0  0  0  0  0  0  0  0
   22.8380  -19.1943  -12.9843 C   0  0  0  0  0  0  0  0  0  0  0  0
   23.7540  -19.3944  -11.9606 C   0  0  0  0  0  0  0  0  0  0  0  0
   23.7884  -20.5885  -11.2783 C   0  0  0  0  0  0  0  0  0  0  0  0
   24.7570  -20.8242  -10.1827 C   0  0  0  0  0  0  0  0  0  0  0  0
   26.1967  -20.6546  -10.6782 C   0  0  2  0  0  0  0  0  0  0  0  0
   26.5954  -21.7590  -11.5105 N   0  0  0  0  0  0  0  0  0  0  0  0
   27.0446  -20.5603   -9.4546 C   0  0  0  0  0  0  0  0  0  0  0  0
   27.2297  -21.6460   -8.8265 O   0  0  0  0  0  0  0  0  0  0  0  0
   22.8959  -21.5853  -11.6290 C   0  0  0  0  0  0  0  0  0  0  0  0
   21.9969  -21.3622  -12.6482 C   0  0  0  0  0  0  0  0  0  0  0  0
   27.6171  -19.3404   -9.0055 N   0  0  0  0  0  0  0  0  0  0  0  0
   28.3965  -19.3066   -7.7704 C   0  0  1  0  0  0  0  0  0  0  0  0
   28.7483  -17.8303   -7.5839 C   0  0  0  0  0  0  0  0  0  0  0  0
   29.2193  -17.5517   -5.8378 S   0  0  0  0  0  0  0  0  0  0  0  0
   27.6001  -19.7888   -6.6220 C   0  0  0  0  0  0  0  0  0  0  0  0
   26.3616  -19.9287   -6.7830 O   0  0  0  0  0  0  0  0  0  0  0  0
   28.2027  -20.0812   -5.3973 N   0  0  0  0  0  0  0  0  0  0  0  0
   29.5854  -19.9187   -5.0554 C   0  0  0  0  0  0  0  0  0  0  0  0
   29.8346  -21.1467   -4.1996 C   0  0  0  0  0  0  0  0  0  0  0  0
   28.5005  -21.7356   -3.8465 C   0  0  0  0  0  0  0  0  0  0  0  0
   27.5471  -20.6076   -4.2241 C   0  0  1  0  0  0  0  0  0  0  0  0
   27.4531  -19.6418   -3.1272 C   0  0  0  0  0  0  0  0  0  0  0  0
   26.7679  -19.8868   -1.9482 O   0  0  0  0  0  0  0  0  0  0  0  0
   28.0167  -18.5255   -3.2408 O   0  0  0  0  0  0  0  0  0  0  0  0
  2  3  2  0
  2  1  1  0
  4  3  1  0
  5  4  2  0
  6  5  1  0
  7  9  1  0
  7  6  1  0
  7  8  1  6
  9 10  2  0
 11  5  1  0
 11 12  2  0
 12  2  1  0
 13 14  1  0
 13  9  1  0
 14 15  1  1
 15 16  1  0
 17 19  1  0
 17 14  1  0
 18 17  2  0
 19 20  1  0
 21 20  1  0
 22 21  1  0
 23 22  1  0
 23 19  1  0
 23 24  1  1
 25 24  1  0
 26 24  2  0
M  END
$$$$
