YCP.pdb
     RDKit          3D

 26 27  0  0  1  0  0  0  0  0999 V2000
   23.2772  -21.5130   -7.5099 O   0  0  0  0  0  0  0  0  0  0  0  0
   23.8736  -21.1952   -8.7306 C   0  0  0  0  0  0  0  0  0  0  0  0
   25.2266  -21.2695   -8.8988 C   0  0  0  0  0  0  0  0  0  0  0  0
   25.8244  -20.9543  -10.1115 C   0  0  0  0  0  0  0  0  0  0  0  0
   25.0601  -20.5555  -11.1835 C   0  0  0  0  0  0  0  0  0  0  0  0
   25.6761  -20.2143  -12.4867 C   0  0  0  0  0  0  0  0  0  0  0  0
   25.0612  -21.0448  -13.6177 C   0  0  2  0  0  0  0  0  0  0  0  0
   25.3851  -22.4399  -13.4757 N   0  0  0  0  0  0  0  0  0  0  0  0
   25.6109  -20.4838  -14.8858 C   0  0  0  0  0  0  0  0  0  0  0  0
   26.8042  -20.8110  -15.1623 O   0  0  0  0  0  0  0  0  0  0  0  0
   23.6875  -20.4739  -11.0331 C   0  0  0  0  0  0  0  0  0  0  0  0
   23.1187  -20.7920   -9.8199 C   0  0  0  0  0  0  0  0  0  0  0  0
   24.8603  -19.6352  -15.7426 N   0  0  0  0  0  0  0  0  0  0  0  0
   25.4460  -19.1472  -16.9886 C   0  0  1  0  0  0  0  0  0  0  0  0
   24.3828  -19.4396  -18.0479 C   0  0  0  0  0  0  0  0  0  0  0  0
   24.9217  -18.7172  -19.6404 S   0  0  0  0  0  0  0  0  0  0  0  0
   25.7116  -17.6944  -16.9219 C   0  0  0  0  0  0  0  0  0  0  0  0
   24.9156  -16.9811  -16.2609 O   0  0  0  0  0  0  0  0  0  0  0  0
   26.8116  -17.1308  -17.5708 N   0  0  0  0  0  0  0  0  0  0  0  0
   27.7909  -17.8162  -18.3622 C   0  0  0  0  0  0  0  0  0  0  0  0
   29.0632  -17.0871  -17.9722 C   0  0  0  0  0  0  0  0  0  0  0  0
   28.6676  -15.8342  -17.2474 C   0  0  0  0  0  0  0  0  0  0  0  0
   27.1818  -15.7357  -17.5742 C   0  0  1  0  0  0  0  0  0  0  0  0
   26.9958  -15.0873  -18.8741 C   0  0  0  0  0  0  0  0  0  0  0  0
   27.1756  -13.7298  -19.0850 O   0  0  0  0  0  0  0  0  0  0  0  0
   26.6551  -15.7806  -19.8640 O   0  0  0  0  0  0  0  0  0  0  0  0
  2  3  2  0
  2  1  1  0
  4  3  1  0
  5  4  2  0
  6  5  1  0
  7  9  1  0
  7  6  1  0
  7  8  1  1
  9 10  2  0
 11  5  1  0
 11 12  2  0
 12  2  1  0
 13 14  1  0
 13  9  1  0
 14 15  1  6
 15 16  1  0
 17 19  1  0
 17 14  1  0
 18 17  2  0
 19 20  1  0
 21 20  1  0
 22 21  1  0
 23 22  1  0
 23 19  1  0
 23 24  1  6
 25 24  1  0
 26 24  2  0
M  END
$$$$
