PMM.pdb
     RDKit          3D

 24 24  0  0  1  0  0  0  0  0999 V2000
   27.1904  -20.9946  -15.7257 N   0  0  0  0  0  0  0  0  0  0  0  0
   27.7362  -20.8067  -17.0578 C   0  0  0  0  0  0  0  0  0  0  0  0
   28.1903  -19.3663  -17.1603 C   0  0  0  0  0  0  0  0  0  0  0  0
   27.7990  -18.7851  -15.7921 C   0  0  0  0  0  0  0  0  0  0  0  0
   27.8998  -20.0352  -14.9553 C   0  0  1  0  0  0  0  0  0  0  0  0
   27.4692  -19.8808  -13.5767 C   0  0  0  0  0  0  0  0  0  0  0  0
   28.0644  -19.0069  -12.8613 O   0  0  0  0  0  0  0  0  0  0  0  0
   21.5491  -20.6272  -13.9641 C   0  0  0  0  0  0  0  0  0  0  0  0
   21.4703  -20.3401  -12.1765 S   0  0  0  0  0  0  0  0  0  0  0  0
   23.0569  -19.9445  -11.4735 C   0  0  0  0  0  0  0  0  0  0  0  0
   24.1950  -20.3187  -12.3178 C   0  0  0  0  0  0  0  0  0  0  0  0
   25.5967  -20.0807  -11.8607 C   0  0  2  0  0  0  0  0  0  0  0  0
   26.4416  -20.6129  -12.9406 N   0  0  0  0  0  0  0  0  0  0  0  0
   25.8861  -20.7117  -10.5872 C   0  0  0  0  0  0  0  0  0  0  0  0
   25.8507  -21.9636  -10.4911 O   0  0  0  0  0  0  0  0  0  0  0  0
   29.5857  -18.6127   -5.6401 C   0  0  0  0  0  0  0  0  0  0  0  0
   28.3748  -19.5988   -4.7343 S   0  0  0  0  0  0  0  0  0  0  0  0
   27.4146  -20.6466   -5.8704 C   0  0  0  0  0  0  0  0  0  0  0  0
   27.1886  -19.8795   -7.1557 C   0  0  0  0  0  0  0  0  0  0  0  0
   26.4728  -20.7405   -8.1864 C   0  0  2  0  0  0  0  0  0  0  0  0
   26.2181  -20.0070   -9.3975 N   0  0  0  0  0  0  0  0  0  0  0  0
   25.1662  -21.1062   -7.5407 C   0  0  0  0  0  0  0  0  0  0  0  0
   25.0682  -22.1176   -6.6055 O   0  0  0  0  0  0  0  0  0  0  0  0
   24.1247  -20.4778   -7.8554 O   0  0  0  0  0  0  0  0  0  0  0  0
  1  2  1  0
  2  3  1  0
  4  3  1  0
  5  1  1  0
  5  4  1  0
  6  7  2  0
  5  6  1  1
  8  9  1  0
 10  9  1  0
 10 11  1  0
 12 11  1  6
 12 13  1  0
 12 14  1  0
 13  6  1  0
 14 15  2  0
 14 21  1  0
 16 17  1  0
 17 18  1  0
 19 18  1  0
 20 19  1  1
 20 22  1  0
 21 20  1  0
 22 24  2  0
 22 23  1  0
M  END
$$$$
