PMM.pdb
     RDKit          3D

 24 24  0  0  1  0  0  0  0  0999 V2000
   27.3108  -22.2309  -15.7486 N   0  0  0  0  0  0  0  0  0  0  0  0
   27.9313  -22.3964  -17.0507 C   0  0  0  0  0  0  0  0  0  0  0  0
   28.1510  -21.0130  -17.6248 C   0  0  0  0  0  0  0  0  0  0  0  0
   27.5535  -20.0951  -16.5462 C   0  0  0  0  0  0  0  0  0  0  0  0
   27.7848  -20.9585  -15.3320 C   0  0  1  0  0  0  0  0  0  0  0  0
   27.2175  -20.4396  -14.0996 C   0  0  0  0  0  0  0  0  0  0  0  0
   27.6166  -19.2964  -13.6955 O   0  0  0  0  0  0  0  0  0  0  0  0
   20.9480  -20.7652  -12.4705 C   0  0  0  0  0  0  0  0  0  0  0  0
   21.7457  -19.9203  -13.8612 S   0  0  0  0  0  0  0  0  0  0  0  0
   23.4901  -19.6748  -13.6068 C   0  0  0  0  0  0  0  0  0  0  0  0
   24.0754  -20.5529  -12.5897 C   0  0  0  0  0  0  0  0  0  0  0  0
   25.5132  -20.4261  -12.2061 C   0  0  2  0  0  0  0  0  0  0  0  0
   26.2535  -21.0848  -13.2929 N   0  0  0  0  0  0  0  0  0  0  0  0
   25.8039  -21.0213  -10.9158 C   0  0  0  0  0  0  0  0  0  0  0  0
   25.9317  -22.2672  -10.8201 O   0  0  0  0  0  0  0  0  0  0  0  0
   28.0638  -18.1087   -5.3960 C   0  0  0  0  0  0  0  0  0  0  0  0
   28.4458  -19.8638   -5.2146 S   0  0  0  0  0  0  0  0  0  0  0  0
   27.3311  -20.8766   -6.2357 C   0  0  0  0  0  0  0  0  0  0  0  0
   27.0486  -20.1310   -7.5225 C   0  0  0  0  0  0  0  0  0  0  0  0
   26.2359  -20.9877   -8.4824 C   0  0  2  0  0  0  0  0  0  0  0  0
   25.9619  -20.2867   -9.7084 N   0  0  0  0  0  0  0  0  0  0  0  0
   24.9449  -21.2538   -7.7609 C   0  0  0  0  0  0  0  0  0  0  0  0
   24.8763  -22.0928   -6.6662 O   0  0  0  0  0  0  0  0  0  0  0  0
   23.8897  -20.7001   -8.1588 O   0  0  0  0  0  0  0  0  0  0  0  0
  1  2  1  0
  2  3  1  0
  4  3  1  0
  5  1  1  0
  5  4  1  0
  6  7  2  0
  5  6  1  1
  8  9  1  0
 10  9  1  0
 10 11  1  0
 12 11  1  6
 12 13  1  0
 12 14  1  0
 13  6  1  0
 14 15  2  0
 14 21  1  0
 16 17  1  0
 17 18  1  0
 19 18  1  0
 20 19  1  1
 20 22  1  0
 21 20  1  0
 22 24  2  0
 22 23  1  0
M  END
$$$$
