PMM.pdb
     RDKit          3D

 24 24  0  0  1  0  0  0  0  0999 V2000
   23.4981  -12.3073  -17.7826 N   0  0  0  0  0  0  0  0  0  0  0  0
   24.0776  -13.0041  -18.9169 C   0  0  0  0  0  0  0  0  0  0  0  0
   22.9712  -13.2194  -19.9273 C   0  0  0  0  0  0  0  0  0  0  0  0
   21.7417  -12.6250  -19.2217 C   0  0  0  0  0  0  0  0  0  0  0  0
   22.4251  -11.5855  -18.3698 C   0  0  1  0  0  0  0  0  0  0  0  0
   21.5496  -10.8835  -17.4476 C   0  0  0  0  0  0  0  0  0  0  0  0
   20.3069  -11.1749  -17.4677 O   0  0  0  0  0  0  0  0  0  0  0  0
   22.9577  -10.3489  -11.5796 C   0  0  0  0  0  0  0  0  0  0  0  0
   21.9087   -8.8711  -11.5856 S   0  0  0  0  0  0  0  0  0  0  0  0
   20.9900   -8.6867  -13.0988 C   0  0  0  0  0  0  0  0  0  0  0  0
   21.6316   -9.2982  -14.2661 C   0  0  0  0  0  0  0  0  0  0  0  0
   21.0154   -9.1886  -15.6221 C   0  0  2  0  0  0  0  0  0  0  0  0
   21.9437   -9.8959  -16.5171 N   0  0  0  0  0  0  0  0  0  0  0  0
   20.8089   -7.8135  -16.0347 C   0  0  0  0  0  0  0  0  0  0  0  0
   21.7754   -7.1459  -16.4798 O   0  0  0  0  0  0  0  0  0  0  0  0
   16.6335   -3.4611  -20.0916 C   0  0  0  0  0  0  0  0  0  0  0  0
   16.3818   -3.8436  -18.3453 S   0  0  0  0  0  0  0  0  0  0  0  0
   17.9757   -4.0592  -17.4946 C   0  0  0  0  0  0  0  0  0  0  0  0
   18.0854   -5.4983  -17.0380 C   0  0  0  0  0  0  0  0  0  0  0  0
   19.4642   -5.7839  -16.4605 C   0  0  2  0  0  0  0  0  0  0  0  0
   19.5607   -7.1348  -15.9754 N   0  0  0  0  0  0  0  0  0  0  0  0
   19.6035   -4.8292  -15.3085 C   0  0  0  0  0  0  0  0  0  0  0  0
   19.8459   -3.4829  -15.4972 O   0  0  0  0  0  0  0  0  0  0  0  0
   19.4976   -5.2603  -14.1331 O   0  0  0  0  0  0  0  0  0  0  0  0
  1  2  1  0
  2  3  1  0
  4  3  1  0
  5  1  1  0
  5  4  1  0
  6  7  2  0
  5  6  1  1
  8  9  1  0
 10  9  1  0
 10 11  1  0
 12 11  1  1
 12 13  1  0
 12 14  1  0
 13  6  1  0
 14 15  2  0
 14 21  1  0
 16 17  1  0
 17 18  1  0
 19 18  1  0
 20 19  1  1
 20 22  1  0
 21 20  1  0
 22 24  2  0
 22 23  1  0
M  END
$$$$
