PMM.pdb
     RDKit          3D

 24 24  0  0  1  0  0  0  0  0999 V2000
   27.3638  -19.1655  -14.9784 N   0  0  0  0  0  0  0  0  0  0  0  0
   28.5675  -18.9648  -15.7650 C   0  0  0  0  0  0  0  0  0  0  0  0
   29.3779  -20.2407  -15.6831 C   0  0  0  0  0  0  0  0  0  0  0  0
   28.5344  -21.1236  -14.7493 C   0  0  0  0  0  0  0  0  0  0  0  0
   27.1661  -20.5698  -15.0561 C   0  0  1  0  0  0  0  0  0  0  0  0
   26.0942  -21.1084  -14.2370 C   0  0  0  0  0  0  0  0  0  0  0  0
   25.6803  -22.2875  -14.4980 O   0  0  0  0  0  0  0  0  0  0  0  0
   24.8831  -20.9615   -7.5835 C   0  0  0  0  0  0  0  0  0  0  0  0
   26.2834  -20.4914   -8.6336 S   0  0  0  0  0  0  0  0  0  0  0  0
   26.0817  -21.0150  -10.3227 C   0  0  0  0  0  0  0  0  0  0  0  0
   24.7967  -20.6356  -10.9169 C   0  0  0  0  0  0  0  0  0  0  0  0
   24.4382  -21.0654  -12.3015 C   0  0  2  0  0  0  0  0  0  0  0  0
   25.4557  -20.4464  -13.1644 N   0  0  0  0  0  0  0  0  0  0  0  0
   23.0950  -20.6709  -12.6810 C   0  0  0  0  0  0  0  0  0  0  0  0
   22.8078  -19.4516  -12.7742 O   0  0  0  0  0  0  0  0  0  0  0  0
   21.4230  -23.3995  -18.3217 C   0  0  0  0  0  0  0  0  0  0  0  0
   20.3084  -23.1154  -16.9303 S   0  0  0  0  0  0  0  0  0  0  0  0
   21.1163  -22.1049  -15.6509 C   0  0  0  0  0  0  0  0  0  0  0  0
   20.1601  -21.9485  -14.4878 C   0  0  0  0  0  0  0  0  0  0  0  0
   20.7644  -21.0744  -13.3983 C   0  0  2  0  0  0  0  0  0  0  0  0
   22.0399  -21.5806  -12.9664 N   0  0  0  0  0  0  0  0  0  0  0  0
   19.7868  -21.1490  -12.2596 C   0  0  0  0  0  0  0  0  0  0  0  0
   20.1108  -21.7364  -11.0525 O   0  0  0  0  0  0  0  0  0  0  0  0
   18.6363  -20.6645  -12.4009 O   0  0  0  0  0  0  0  0  0  0  0  0
  1  2  1  0
  2  3  1  0
  4  3  1  0
  5  1  1  0
  5  4  1  0
  6  7  2  0
  5  6  1  1
  8  9  1  0
 10  9  1  0
 10 11  1  0
 12 11  1  1
 12 13  1  0
 12 14  1  0
 13  6  1  0
 14 15  2  0
 14 21  1  0
 16 17  1  0
 17 18  1  0
 19 18  1  0
 20 19  1  6
 20 22  1  0
 21 20  1  0
 22 24  2  0
 22 23  1  0
M  END
$$$$
