PMM.pdb
     RDKit          3D

 24 24  0  0  1  0  0  0  0  0999 V2000
   22.1363  -19.5486  -16.3277 N   0  0  0  0  0  0  0  0  0  0  0  0
   21.3835  -20.7587  -16.0509 C   0  0  0  0  0  0  0  0  0  0  0  0
   20.6506  -20.5450  -14.7437 C   0  0  0  0  0  0  0  0  0  0  0  0
   21.1102  -19.1412  -14.3183 C   0  0  0  0  0  0  0  0  0  0  0  0
   21.3704  -18.5443  -15.6781 C   0  0  1  0  0  0  0  0  0  0  0  0
   21.9520  -17.2134  -15.6572 C   0  0  0  0  0  0  0  0  0  0  0  0
   21.3049  -16.2903  -15.0582 O   0  0  0  0  0  0  0  0  0  0  0  0
   28.0531  -16.8942  -16.6534 C   0  0  0  0  0  0  0  0  0  0  0  0
   27.4147  -16.9847  -14.9598 S   0  0  0  0  0  0  0  0  0  0  0  0
   25.8551  -16.1489  -14.7678 C   0  0  0  0  0  0  0  0  0  0  0  0
   25.2428  -15.7279  -16.0312 C   0  0  0  0  0  0  0  0  0  0  0  0
   23.7711  -15.4927  -16.1264 C   0  0  2  0  0  0  0  0  0  0  0  0
   23.1809  -16.8348  -16.2427 N   0  0  0  0  0  0  0  0  0  0  0  0
   23.4100  -14.6446  -17.2462 C   0  0  0  0  0  0  0  0  0  0  0  0
   23.3743  -15.1268  -18.4055 O   0  0  0  0  0  0  0  0  0  0  0  0
   18.1322  -11.5396  -18.3863 C   0  0  0  0  0  0  0  0  0  0  0  0
   19.3022  -10.3222  -19.0252 S   0  0  0  0  0  0  0  0  0  0  0  0
   20.9220  -11.0875  -19.3435 C   0  0  0  0  0  0  0  0  0  0  0  0
   21.3885  -11.7692  -18.0749 C   0  0  0  0  0  0  0  0  0  0  0  0
   22.6812  -12.5368  -18.3116 C   0  0  2  0  0  0  0  0  0  0  0  0
   23.0816  -13.2652  -17.1374 N   0  0  0  0  0  0  0  0  0  0  0  0
   23.7051  -11.4801  -18.6162 C   0  0  0  0  0  0  0  0  0  0  0  0
   24.6801  -11.1200  -17.7069 O   0  0  0  0  0  0  0  0  0  0  0  0
   23.6815  -10.9004  -19.7307 O   0  0  0  0  0  0  0  0  0  0  0  0
  1  2  1  0
  2  3  1  0
  4  3  1  0
  5  1  1  0
  5  4  1  0
  6  7  2  0
  5  6  1  1
  8  9  1  0
 10  9  1  0
 10 11  1  0
 12 11  1  6
 12 13  1  0
 12 14  1  0
 13  6  1  0
 14 15  2  0
 14 21  1  0
 16 17  1  0
 17 18  1  0
 19 18  1  0
 20 19  1  1
 20 22  1  0
 21 20  1  0
 22 24  2  0
 22 23  1  0
M  END
$$$$
