PMM.pdb
     RDKit          3D

 24 24  0  0  1  0  0  0  0  0999 V2000
   18.9002  -11.7654  -17.4930 N   0  0  0  0  0  0  0  0  0  0  0  0
   17.8511  -12.6871  -17.8903 C   0  0  0  0  0  0  0  0  0  0  0  0
   17.4595  -13.4812  -16.6625 C   0  0  0  0  0  0  0  0  0  0  0  0
   18.4174  -12.9445  -15.5868 C   0  0  0  0  0  0  0  0  0  0  0  0
   18.6256  -11.5484  -16.1165 C   0  0  1  0  0  0  0  0  0  0  0  0
   19.6050  -10.7611  -15.3880 C   0  0  0  0  0  0  0  0  0  0  0  0
   19.3022  -10.3770  -14.2088 O   0  0  0  0  0  0  0  0  0  0  0  0
   26.0542  -10.7185  -17.0467 C   0  0  0  0  0  0  0  0  0  0  0  0
   25.8763  -10.5247  -15.2536 S   0  0  0  0  0  0  0  0  0  0  0  0
   24.3985   -9.6419  -14.8011 C   0  0  0  0  0  0  0  0  0  0  0  0
   23.1710  -10.1941  -15.3812 C   0  0  0  0  0  0  0  0  0  0  0  0
   21.8421   -9.5805  -15.0847 C   0  0  2  0  0  0  0  0  0  0  0  0
   20.8780  -10.3731  -15.8628 N   0  0  0  0  0  0  0  0  0  0  0  0
   21.7856   -8.1723  -15.4277 C   0  0  0  0  0  0  0  0  0  0  0  0
   21.8051   -7.8248  -16.6346 O   0  0  0  0  0  0  0  0  0  0  0  0
   17.4799   -4.8796  -16.4322 C   0  0  0  0  0  0  0  0  0  0  0  0
   18.4295   -3.4212  -15.9521 S   0  0  0  0  0  0  0  0  0  0  0  0
   20.1635   -3.8601  -15.6184 C   0  0  0  0  0  0  0  0  0  0  0  0
   20.2144   -5.3027  -15.1624 C   0  0  0  0  0  0  0  0  0  0  0  0
   21.6504   -5.7535  -14.9374 C   0  0  2  0  0  0  0  0  0  0  0  0
   21.7072   -7.1159  -14.4788 N   0  0  0  0  0  0  0  0  0  0  0  0
   22.1749   -4.8434  -13.8629 C   0  0  0  0  0  0  0  0  0  0  0  0
   22.4279   -3.5057  -14.0941 O   0  0  0  0  0  0  0  0  0  0  0  0
   22.3932   -5.3051  -12.7149 O   0  0  0  0  0  0  0  0  0  0  0  0
  1  2  1  0
  2  3  1  0
  4  3  1  0
  5  1  1  0
  5  4  1  0
  6  7  2  0
  5  6  1  1
  8  9  1  0
 10  9  1  0
 10 11  1  0
 12 11  1  6
 12 13  1  0
 12 14  1  0
 13  6  1  0
 14 15  2  0
 14 21  1  0
 16 17  1  0
 17 18  1  0
 19 18  1  0
 20 19  1  1
 20 22  1  0
 21 20  1  0
 22 24  2  0
 22 23  1  0
M  END
$$$$
