PMM.pdb
     RDKit          3D

 24 24  0  0  1  0  0  0  0  0999 V2000
   25.8443  -17.1020  -16.8848 N   0  0  0  0  0  0  0  0  0  0  0  0
   25.7502  -15.9070  -17.7040 C   0  0  0  0  0  0  0  0  0  0  0  0
   27.0780  -15.7393  -18.4113 C   0  0  0  0  0  0  0  0  0  0  0  0
   27.9073  -16.9137  -17.8673 C   0  0  0  0  0  0  0  0  0  0  0  0
   26.7947  -17.8914  -17.5853 C   0  0  1  0  0  0  0  0  0  0  0  0
   27.2139  -19.1167  -16.9274 C   0  0  0  0  0  0  0  0  0  0  0  0
   27.9064  -19.9488  -17.6038 O   0  0  0  0  0  0  0  0  0  0  0  0
   30.7498  -21.8243  -10.6783 C   0  0  0  0  0  0  0  0  0  0  0  0
   29.9338  -20.5729  -11.7042 S   0  0  0  0  0  0  0  0  0  0  0  0
   28.9520  -21.2857  -13.0065 C   0  0  0  0  0  0  0  0  0  0  0  0
   28.2286  -20.3017  -13.8169 C   0  0  0  0  0  0  0  0  0  0  0  0
   27.3787  -20.7343  -14.9662 C   0  0  2  0  0  0  0  0  0  0  0  0
   26.9265  -19.4833  -15.5935 N   0  0  0  0  0  0  0  0  0  0  0  0
   26.2642  -21.5675  -14.5571 C   0  0  0  0  0  0  0  0  0  0  0  0
   26.4846  -22.6819  -14.0211 O   0  0  0  0  0  0  0  0  0  0  0  0
   26.1465  -20.2495   -9.4822 C   0  0  0  0  0  0  0  0  0  0  0  0
   24.4367  -19.7611   -9.7938 S   0  0  0  0  0  0  0  0  0  0  0  0
   23.7258  -20.7318  -11.1587 C   0  0  0  0  0  0  0  0  0  0  0  0
   24.6054  -20.5604  -12.3788 C   0  0  0  0  0  0  0  0  0  0  0  0
   24.0110  -21.2737  -13.5846 C   0  0  2  0  0  0  0  0  0  0  0  0
   24.8957  -21.2158  -14.7175 N   0  0  0  0  0  0  0  0  0  0  0  0
   22.7512  -20.5163  -13.8964 C   0  0  0  0  0  0  0  0  0  0  0  0
   21.5310  -20.8679  -13.3537 O   0  0  0  0  0  0  0  0  0  0  0  0
   22.7997  -19.5309  -14.6743 O   0  0  0  0  0  0  0  0  0  0  0  0
  1  2  1  0
  2  3  1  0
  4  3  1  0
  5  1  1  0
  5  4  1  0
  6  7  2  0
  5  6  1  1
  8  9  1  0
 10  9  1  0
 10 11  1  0
 12 11  1  1
 12 13  1  0
 12 14  1  0
 13  6  1  0
 14 15  2  0
 14 21  1  0
 16 17  1  0
 17 18  1  0
 19 18  1  0
 20 19  1  1
 20 22  1  0
 21 20  1  0
 22 24  2  0
 22 23  1  0
M  END
$$$$
