PMM.pdb
     RDKit          3D

 24 24  0  0  1  0  0  0  0  0999 V2000
   27.6206  -18.6348  -16.2261 N   0  0  0  0  0  0  0  0  0  0  0  0
   27.8772  -18.2694  -17.6076 C   0  0  0  0  0  0  0  0  0  0  0  0
   28.7308  -19.3634  -18.2125 C   0  0  0  0  0  0  0  0  0  0  0  0
   28.9513  -20.3201  -17.0297 C   0  0  0  0  0  0  0  0  0  0  0  0
   27.6842  -20.0533  -16.2575 C   0  0  1  0  0  0  0  0  0  0  0  0
   27.6034  -20.7231  -14.9711 C   0  0  0  0  0  0  0  0  0  0  0  0
   27.1757  -21.9257  -14.9518 O   0  0  0  0  0  0  0  0  0  0  0  0
   32.3608  -22.4550  -10.8651 C   0  0  0  0  0  0  0  0  0  0  0  0
   31.3115  -21.1861  -10.1082 S   0  0  0  0  0  0  0  0  0  0  0  0
   29.5996  -21.3458  -10.5685 C   0  0  0  0  0  0  0  0  0  0  0  0
   29.2930  -20.8485  -11.9128 C   0  0  0  0  0  0  0  0  0  0  0  0
   27.8992  -20.8983  -12.4467 C   0  0  2  0  0  0  0  0  0  0  0  0
   27.9568  -20.1666  -13.7213 N   0  0  0  0  0  0  0  0  0  0  0  0
   26.9288  -20.3217  -11.5359 C   0  0  0  0  0  0  0  0  0  0  0  0
   26.8528  -19.0736  -11.4165 O   0  0  0  0  0  0  0  0  0  0  0  0
   20.2871  -21.0562   -8.0240 C   0  0  0  0  0  0  0  0  0  0  0  0
   21.9206  -21.7521   -7.6979 S   0  0  0  0  0  0  0  0  0  0  0  0
   23.2295  -20.6102   -8.2399 C   0  0  0  0  0  0  0  0  0  0  0  0
   24.1207  -21.3347   -9.2260 C   0  0  0  0  0  0  0  0  0  0  0  0
   25.1870  -20.4033   -9.7842 C   0  0  2  0  0  0  0  0  0  0  0  0
   26.0251  -21.0776  -10.7395 N   0  0  0  0  0  0  0  0  0  0  0  0
   26.0106  -20.0043   -8.5924 C   0  0  0  0  0  0  0  0  0  0  0  0
   25.7439  -18.8599   -7.8668 O   0  0  0  0  0  0  0  0  0  0  0  0
   26.9742  -20.7282   -8.2374 O   0  0  0  0  0  0  0  0  0  0  0  0
  1  2  1  0
  2  3  1  0
  4  3  1  0
  5  1  1  0
  5  4  1  0
  6  7  2  0
  5  6  1  1
  8  9  1  0
 10  9  1  0
 10 11  1  0
 12 11  1  1
 12 13  1  0
 12 14  1  0
 13  6  1  0
 14 15  2  0
 14 21  1  0
 16 17  1  0
 17 18  1  0
 19 18  1  0
 20 19  1  1
 20 22  1  0
 21 20  1  0
 22 24  2  0
 22 23  1  0
M  END
$$$$
