MHW.pdb
     RDKit          3D

 33 35  0  0  1  0  0  0  0  0999 V2000
   28.8770  -12.9588  -17.2269 C   0  0  0  0  0  0  0  0  0  0  0  0
   27.3340  -13.9194  -17.2404 S   0  0  0  0  0  0  0  0  0  0  0  0
   26.2876  -13.4361  -15.8048 C   0  0  0  0  0  0  0  0  0  0  0  0
   25.0032  -14.1763  -15.8934 C   0  0  0  0  0  0  0  0  0  0  0  0
   25.0710  -15.6551  -15.6953 C   0  0  2  0  0  0  0  0  0  0  0  0
   25.8852  -16.2304  -16.7927 N   0  0  0  0  0  0  0  0  0  0  0  0
   23.7772  -16.3578  -15.7286 C   0  0  0  0  0  0  0  0  0  0  0  0
   22.8398  -15.9908  -14.9406 O   0  0  0  0  0  0  0  0  0  0  0  0
   23.4715  -17.4272  -16.5784 N   0  0  0  0  0  0  0  0  0  0  0  0
   22.1914  -18.1564  -16.5012 C   0  0  1  0  0  0  0  0  0  0  0  0
   21.9331  -18.5867  -17.9255 C   0  0  0  0  0  0  0  0  0  0  0  0
   21.1948  -17.6539  -18.7585 C   0  0  0  0  0  0  0  0  0  0  0  0
   20.6477  -16.4635  -18.3394 C   0  0  0  0  0  0  0  0  0  0  0  0
   20.0576  -15.9156  -19.4083 N   0  0  0  0  0  0  0  0  0  0  0  0
   20.2252  -16.7252  -20.4554 C   0  0  0  0  0  0  0  0  0  0  0  0
   20.9149  -17.7763  -20.0549 N   0  0  0  0  0  0  0  0  0  0  0  0
   22.3910  -19.2391  -15.5412 C   0  0  0  0  0  0  0  0  0  0  0  0
   23.5458  -19.7614  -15.3598 O   0  0  0  0  0  0  0  0  0  0  0  0
   21.3593  -19.7897  -14.7445 N   0  0  0  0  0  0  0  0  0  0  0  0
   21.6634  -20.4942  -13.4763 C   0  0  1  0  0  0  0  0  0  0  0  0
   22.5158  -19.5772  -12.6629 C   0  0  0  0  0  0  0  0  0  0  0  0
   22.8984  -20.1805  -11.3781 C   0  0  0  0  0  0  0  0  0  0  0  0
   24.1182  -20.7686  -11.0925 C   0  0  0  0  0  0  0  0  0  0  0  0
   24.1240  -21.2490   -9.8445 N   0  0  0  0  0  0  0  0  0  0  0  0
   22.9253  -20.9802   -9.3156 C   0  0  0  0  0  0  0  0  0  0  0  0
   22.3861  -21.2288   -8.0674 C   0  0  0  0  0  0  0  0  0  0  0  0
   21.1040  -20.8323   -7.7374 C   0  0  0  0  0  0  0  0  0  0  0  0
   20.3282  -20.1679   -8.6718 C   0  0  0  0  0  0  0  0  0  0  0  0
   20.8622  -19.9234   -9.9059 C   0  0  0  0  0  0  0  0  0  0  0  0
   22.1415  -20.3167  -10.2436 C   0  0  0  0  0  0  0  0  0  0  0  0
   20.4836  -21.0581  -12.8642 C   0  0  0  0  0  0  0  0  0  0  0  0
   20.4514  -22.3440  -12.3155 O   0  0  0  0  0  0  0  0  0  0  0  0
   19.4147  -20.3957  -12.8072 O   0  0  0  0  0  0  0  0  0  0  0  0
  1  2  1  0
  3  2  1  0
  4  3  1  0
  5  4  1  0
  5  6  1  6
  7  8  2  0
  7  5  1  0
  9  7  1  0
 10  9  1  0
 10 11  1  6
 12 11  1  0
 13 12  2  0
 14 13  1  0
 15 14  1  0
 15 16  2  0
 16 12  1  0
 17 19  1  0
 17 10  1  0
 18 17  2  0
 20 19  1  0
 20 31  1  0
 20 21  1  1
 22 30  1  0
 22 21  1  0
 23 22  2  0
 24 23  1  0
 24 25  1  0
 25 30  2  0
 26 25  1  0
 26 27  2  0
 27 28  1  0
 28 29  2  0
 30 29  1  0
 31 32  1  0
 33 31  2  0
M  END
$$$$
