MHW.pdb
     RDKit          3D

 33 35  0  0  1  0  0  0  0  0999 V2000
   30.6719  -15.6139  -17.1115 C   0  0  0  0  0  0  0  0  0  0  0  0
   31.2050  -16.5066  -18.6025 S   0  0  0  0  0  0  0  0  0  0  0  0
   30.1584  -18.0027  -18.8394 C   0  0  0  0  0  0  0  0  0  0  0  0
   28.9064  -17.8244  -18.0608 C   0  0  0  0  0  0  0  0  0  0  0  0
   28.4704  -18.9829  -17.2251 C   0  0  2  0  0  0  0  0  0  0  0  0
   28.0828  -20.0876  -18.1348 N   0  0  0  0  0  0  0  0  0  0  0  0
   27.3066  -18.7345  -16.3574 C   0  0  0  0  0  0  0  0  0  0  0  0
   27.3890  -17.8624  -15.4264 O   0  0  0  0  0  0  0  0  0  0  0  0
   26.0746  -19.3895  -16.4678 N   0  0  0  0  0  0  0  0  0  0  0  0
   24.9420  -19.0987  -15.5683 C   0  0  1  0  0  0  0  0  0  0  0  0
   23.8344  -18.6784  -16.5048 C   0  0  0  0  0  0  0  0  0  0  0  0
   23.9036  -17.3224  -17.0201 C   0  0  0  0  0  0  0  0  0  0  0  0
   24.7527  -16.3367  -16.5735 C   0  0  0  0  0  0  0  0  0  0  0  0
   24.4951  -15.2476  -17.3071 N   0  0  0  0  0  0  0  0  0  0  0  0
   23.5260  -15.5340  -18.1781 C   0  0  0  0  0  0  0  0  0  0  0  0
   23.1723  -16.7925  -17.9989 N   0  0  0  0  0  0  0  0  0  0  0  0
   24.6954  -20.3210  -14.8076 C   0  0  0  0  0  0  0  0  0  0  0  0
   24.5915  -21.4564  -15.3902 O   0  0  0  0  0  0  0  0  0  0  0  0
   24.5580  -20.3621  -13.3997 N   0  0  0  0  0  0  0  0  0  0  0  0
   24.2395  -21.6279  -12.6974 C   0  0  1  0  0  0  0  0  0  0  0  0
   25.4807  -22.0550  -11.9861 C   0  0  0  0  0  0  0  0  0  0  0  0
   25.7544  -21.2163  -10.8101 C   0  0  0  0  0  0  0  0  0  0  0  0
   24.8186  -20.4744  -10.1108 C   0  0  0  0  0  0  0  0  0  0  0  0
   25.4062  -19.7988   -9.1175 N   0  0  0  0  0  0  0  0  0  0  0  0
   26.7102  -20.0925   -9.1617 C   0  0  0  0  0  0  0  0  0  0  0  0
   27.7765  -19.6972   -8.3759 C   0  0  0  0  0  0  0  0  0  0  0  0
   29.0592  -20.1568   -8.6067 C   0  0  0  0  0  0  0  0  0  0  0  0
   29.2969  -21.0364   -9.6490 C   0  0  0  0  0  0  0  0  0  0  0  0
   28.2419  -21.4258  -10.4257 C   0  0  0  0  0  0  0  0  0  0  0  0
   26.9581  -20.9710  -10.2022 C   0  0  0  0  0  0  0  0  0  0  0  0
   23.0107  -21.5442  -11.9439 C   0  0  0  0  0  0  0  0  0  0  0  0
   22.3863  -20.3308  -11.6385 O   0  0  0  0  0  0  0  0  0  0  0  0
   22.4482  -22.5879  -11.5210 O   0  0  0  0  0  0  0  0  0  0  0  0
  1  2  1  0
  3  2  1  0
  4  3  1  0
  5  4  1  0
  5  6  1  6
  7  8  2  0
  7  5  1  0
  9  7  1  0
 10  9  1  0
 10 11  1  6
 12 11  1  0
 13 12  2  0
 14 13  1  0
 15 14  1  0
 15 16  2  0
 16 12  1  0
 17 19  1  0
 17 10  1  0
 18 17  2  0
 20 19  1  0
 20 31  1  0
 20 21  1  1
 22 30  1  0
 22 21  1  0
 23 22  2  0
 24 23  1  0
 24 25  1  0
 25 30  2  0
 26 25  1  0
 26 27  2  0
 27 28  1  0
 28 29  2  0
 30 29  1  0
 31 32  1  0
 33 31  2  0
M  END
$$$$
