MHW.pdb
     RDKit          3D

 33 35  0  0  1  0  0  0  0  0999 V2000
   14.5905  -23.1177   -4.9357 C   0  0  0  0  0  0  0  0  0  0  0  0
   15.3990  -23.6472   -3.3963 S   0  0  0  0  0  0  0  0  0  0  0  0
   16.2116  -25.2797   -3.6500 C   0  0  0  0  0  0  0  0  0  0  0  0
   17.0075  -25.5982   -2.4373 C   0  0  0  0  0  0  0  0  0  0  0  0
   16.6484  -26.8555   -1.7155 C   0  0  2  0  0  0  0  0  0  0  0  0
   15.4838  -27.4646   -2.4017 N   0  0  0  0  0  0  0  0  0  0  0  0
   16.2554  -26.6857   -0.3064 C   0  0  0  0  0  0  0  0  0  0  0  0
   15.0193  -26.7419    0.0146 O   0  0  0  0  0  0  0  0  0  0  0  0
   17.1469  -26.4635    0.7495 N   0  0  0  0  0  0  0  0  0  0  0  0
   16.7005  -26.3614    2.1520 C   0  0  1  0  0  0  0  0  0  0  0  0
   17.5927  -27.3325    2.8878 C   0  0  0  0  0  0  0  0  0  0  0  0
   16.9412  -28.4880    3.4788 C   0  0  0  0  0  0  0  0  0  0  0  0
   15.7086  -28.4891    4.0893 C   0  0  0  0  0  0  0  0  0  0  0  0
   15.4828  -29.7444    4.4946 N   0  0  0  0  0  0  0  0  0  0  0  0
   16.5274  -30.5015    4.1546 C   0  0  0  0  0  0  0  0  0  0  0  0
   17.4071  -29.7342    3.5396 N   0  0  0  0  0  0  0  0  0  0  0  0
   16.8476  -24.9582    2.5303 C   0  0  0  0  0  0  0  0  0  0  0  0
   17.6802  -24.1924    1.9305 O   0  0  0  0  0  0  0  0  0  0  0  0
   16.1030  -24.3343    3.5592 N   0  0  0  0  0  0  0  0  0  0  0  0
   16.3279  -22.9129    3.9141 C   0  0  1  0  0  0  0  0  0  0  0  0
   15.1887  -22.1360    3.3416 C   0  0  0  0  0  0  0  0  0  0  0  0
   15.6371  -21.1780    2.3205 C   0  0  0  0  0  0  0  0  0  0  0  0
   15.8195  -21.4549    0.9769 C   0  0  0  0  0  0  0  0  0  0  0  0
   16.2671  -20.3712    0.3337 N   0  0  0  0  0  0  0  0  0  0  0  0
   16.3770  -19.3946    1.2408 C   0  0  0  0  0  0  0  0  0  0  0  0
   16.7718  -18.0740    1.1377 C   0  0  0  0  0  0  0  0  0  0  0  0
   16.7870  -17.2323    2.2337 C   0  0  0  0  0  0  0  0  0  0  0  0
   16.3994  -17.7111    3.4735 C   0  0  0  0  0  0  0  0  0  0  0  0
   16.0100  -19.0173    3.5742 C   0  0  0  0  0  0  0  0  0  0  0  0
   15.9926  -19.8646    2.4847 C   0  0  0  0  0  0  0  0  0  0  0  0
   16.6436  -22.7388    5.3122 C   0  0  0  0  0  0  0  0  0  0  0  0
   17.1325  -21.5390    5.8385 O   0  0  0  0  0  0  0  0  0  0  0  0
   16.4902  -23.6879    6.1248 O   0  0  0  0  0  0  0  0  0  0  0  0
  1  2  1  0
  3  2  1  0
  4  3  1  0
  5  4  1  0
  5  6  1  6
  7  8  2  0
  7  5  1  0
  9  7  1  0
 10  9  1  0
 10 11  1  1
 12 11  1  0
 13 12  2  0
 14 13  1  0
 15 14  1  0
 15 16  2  0
 16 12  1  0
 17 19  1  0
 17 10  1  0
 18 17  2  0
 20 19  1  0
 20 31  1  0
 20 21  1  1
 22 30  1  0
 22 21  1  0
 23 22  2  0
 24 23  1  0
 24 25  1  0
 25 30  2  0
 26 25  1  0
 26 27  2  0
 27 28  1  0
 28 29  2  0
 30 29  1  0
 31 32  1  0
 33 31  2  0
M  END
$$$$
