MHW.pdb
     RDKit          3D

 33 35  0  0  1  0  0  0  0  0999 V2000
   24.4612  -27.1845  -18.8820 C   0  0  0  0  0  0  0  0  0  0  0  0
   25.4506  -26.5217  -17.5087 S   0  0  0  0  0  0  0  0  0  0  0  0
   24.9568  -24.7807  -17.1697 C   0  0  0  0  0  0  0  0  0  0  0  0
   25.9136  -24.2068  -16.1897 C   0  0  0  0  0  0  0  0  0  0  0  0
   26.5278  -22.8935  -16.5483 C   0  0  2  0  0  0  0  0  0  0  0  0
   27.6350  -23.1471  -17.5012 N   0  0  0  0  0  0  0  0  0  0  0  0
   27.1130  -22.1412  -15.4256 C   0  0  0  0  0  0  0  0  0  0  0  0
   28.2994  -22.4131  -15.0346 O   0  0  0  0  0  0  0  0  0  0  0  0
   26.4636  -21.1171  -14.7265 N   0  0  0  0  0  0  0  0  0  0  0  0
   27.0637  -20.4606  -13.5495 C   0  0  1  0  0  0  0  0  0  0  0  0
   26.9330  -18.9866  -13.8509 C   0  0  0  0  0  0  0  0  0  0  0  0
   27.8469  -18.4462  -14.8417 C   0  0  0  0  0  0  0  0  0  0  0  0
   28.7835  -19.1660  -15.5464 C   0  0  0  0  0  0  0  0  0  0  0  0
   29.4120  -18.2969  -16.3468 N   0  0  0  0  0  0  0  0  0  0  0  0
   28.8943  -17.0824  -16.1551 C   0  0  0  0  0  0  0  0  0  0  0  0
   27.9468  -17.1799  -15.2421 N   0  0  0  0  0  0  0  0  0  0  0  0
   26.3172  -20.9356  -12.3873 C   0  0  0  0  0  0  0  0  0  0  0  0
   25.1035  -21.3292  -12.4930 O   0  0  0  0  0  0  0  0  0  0  0  0
   26.8521  -21.0072  -11.0791 N   0  0  0  0  0  0  0  0  0  0  0  0
   26.0267  -21.4690   -9.9379 C   0  0  1  0  0  0  0  0  0  0  0  0
   26.9626  -21.7460   -8.8080 C   0  0  0  0  0  0  0  0  0  0  0  0
   27.0925  -20.5905   -7.9084 C   0  0  0  0  0  0  0  0  0  0  0  0
   26.3258  -19.4394   -7.9551 C   0  0  0  0  0  0  0  0  0  0  0  0
   26.7268  -18.5731   -7.0186 N   0  0  0  0  0  0  0  0  0  0  0  0
   27.7426  -19.1462   -6.3640 C   0  0  0  0  0  0  0  0  0  0  0  0
   28.5196  -18.7203   -5.3031 C   0  0  0  0  0  0  0  0  0  0  0  0
   29.5211  -19.5109   -4.7723 C   0  0  0  0  0  0  0  0  0  0  0  0
   29.7636  -20.7644   -5.3075 C   0  0  0  0  0  0  0  0  0  0  0  0
   28.9952  -21.1840   -6.3570 C   0  0  0  0  0  0  0  0  0  0  0  0
   27.9935  -20.4003   -6.8932 C   0  0  0  0  0  0  0  0  0  0  0  0
   24.8934  -20.6080   -9.6952 C   0  0  0  0  0  0  0  0  0  0  0  0
   23.7316  -21.0428   -9.0498 O   0  0  0  0  0  0  0  0  0  0  0  0
   24.9117  -19.4068  -10.0710 O   0  0  0  0  0  0  0  0  0  0  0  0
  1  2  1  0
  3  2  1  0
  4  3  1  0
  5  4  1  0
  5  6  1  6
  7  8  2  0
  7  5  1  0
  9  7  1  0
 10  9  1  0
 10 11  1  6
 12 11  1  0
 13 12  2  0
 14 13  1  0
 15 14  1  0
 15 16  2  0
 16 12  1  0
 17 19  1  0
 17 10  1  0
 18 17  2  0
 20 19  1  0
 20 31  1  0
 20 21  1  1
 22 30  1  0
 22 21  1  0
 23 22  2  0
 24 23  1  0
 24 25  1  0
 25 30  2  0
 26 25  1  0
 26 27  2  0
 27 28  1  0
 28 29  2  0
 30 29  1  0
 31 32  1  0
 33 31  2  0
M  END
$$$$
