MHW.pdb
     RDKit          3D

 33 35  0  0  1  0  0  0  0  0999 V2000
   30.7108  -28.1090  -19.1423 C   0  0  0  0  0  0  0  0  0  0  0  0
   29.9253  -27.6157  -17.5790 S   0  0  0  0  0  0  0  0  0  0  0  0
   28.5990  -26.3827  -17.9111 C   0  0  0  0  0  0  0  0  0  0  0  0
   28.6189  -25.3718  -16.8234 C   0  0  0  0  0  0  0  0  0  0  0  0
   29.3777  -24.1145  -17.0955 C   0  0  2  0  0  0  0  0  0  0  0  0
   30.8228  -24.4038  -16.9327 N   0  0  0  0  0  0  0  0  0  0  0  0
   29.0780  -22.9874  -16.1962 C   0  0  0  0  0  0  0  0  0  0  0  0
   29.7335  -22.8589  -15.1063 O   0  0  0  0  0  0  0  0  0  0  0  0
   28.1072  -22.0089  -16.4393 N   0  0  0  0  0  0  0  0  0  0  0  0
   27.8716  -20.8832  -15.5153 C   0  0  1  0  0  0  0  0  0  0  0  0
   27.4455  -19.7533  -16.4220 C   0  0  0  0  0  0  0  0  0  0  0  0
   27.0130  -18.5298  -15.7701 C   0  0  0  0  0  0  0  0  0  0  0  0
   26.9139  -18.3361  -14.4119 C   0  0  0  0  0  0  0  0  0  0  0  0
   26.4809  -17.0823  -14.2342 N   0  0  0  0  0  0  0  0  0  0  0  0
   26.3143  -16.5107  -15.4281 C   0  0  0  0  0  0  0  0  0  0  0  0
   26.6384  -17.3929  -16.3541 N   0  0  0  0  0  0  0  0  0  0  0  0
   26.8658  -21.3385  -14.5589 C   0  0  0  0  0  0  0  0  0  0  0  0
   26.4815  -22.5595  -14.5300 O   0  0  0  0  0  0  0  0  0  0  0  0
   26.2465  -20.4991  -13.6027 N   0  0  0  0  0  0  0  0  0  0  0  0
   25.2560  -21.0353  -12.6392 C   0  0  1  0  0  0  0  0  0  0  0  0
   26.0014  -21.9217  -11.6970 C   0  0  0  0  0  0  0  0  0  0  0  0
   26.4103  -21.2064  -10.4795 C   0  0  0  0  0  0  0  0  0  0  0  0
   25.6103  -20.3601   -9.7319 C   0  0  0  0  0  0  0  0  0  0  0  0
   26.3018  -19.8472   -8.7085 N   0  0  0  0  0  0  0  0  0  0  0  0
   27.5392  -20.3496   -8.7809 C   0  0  0  0  0  0  0  0  0  0  0  0
   28.6563  -20.1803   -7.9846 C   0  0  0  0  0  0  0  0  0  0  0  0
   29.8452  -20.8321   -8.2522 C   0  0  0  0  0  0  0  0  0  0  0  0
   29.9338  -21.6796   -9.3433 C   0  0  0  0  0  0  0  0  0  0  0  0
   28.8288  -21.8455  -10.1303 C   0  0  0  0  0  0  0  0  0  0  0  0
   27.6380  -21.1977   -9.8702 C   0  0  0  0  0  0  0  0  0  0  0  0
   24.4114  -20.0025  -12.0873 C   0  0  0  0  0  0  0  0  0  0  0  0
   23.1326  -20.2549  -11.5807 O   0  0  0  0  0  0  0  0  0  0  0  0
   24.8062  -18.8079  -12.0471 O   0  0  0  0  0  0  0  0  0  0  0  0
  1  2  1  0
  3  2  1  0
  4  3  1  0
  5  4  1  0
  5  6  1  1
  7  8  2  0
  7  5  1  0
  9  7  1  0
 10  9  1  0
 10 11  1  6
 12 11  1  0
 13 12  2  0
 14 13  1  0
 15 14  1  0
 15 16  2  0
 16 12  1  0
 17 19  1  0
 17 10  1  0
 18 17  2  0
 20 19  1  0
 20 31  1  0
 20 21  1  1
 22 30  1  0
 22 21  1  0
 23 22  2  0
 24 23  1  0
 24 25  1  0
 25 30  2  0
 26 25  1  0
 26 27  2  0
 27 28  1  0
 28 29  2  0
 30 29  1  0
 31 32  1  0
 33 31  2  0
M  END
$$$$
