MHW.pdb
     RDKit          3D

 33 35  0  0  1  0  0  0  0  0999 V2000
   23.0465  -17.0901  -19.8173 C   0  0  0  0  0  0  0  0  0  0  0  0
   24.4151  -17.0223  -21.0116 S   0  0  0  0  0  0  0  0  0  0  0  0
   25.9002  -17.8485  -20.3035 C   0  0  0  0  0  0  0  0  0  0  0  0
   25.4434  -18.9272  -19.3908 C   0  0  0  0  0  0  0  0  0  0  0  0
   26.4939  -19.5841  -18.5568 C   0  0  2  0  0  0  0  0  0  0  0  0
   27.3774  -20.3630  -19.4574 N   0  0  0  0  0  0  0  0  0  0  0  0
   25.9972  -20.5315  -17.5445 C   0  0  0  0  0  0  0  0  0  0  0  0
   25.5779  -21.6825  -17.9100 O   0  0  0  0  0  0  0  0  0  0  0  0
   25.9446  -20.2752  -16.1694 N   0  0  0  0  0  0  0  0  0  0  0  0
   25.4372  -21.2650  -15.2003 C   0  0  1  0  0  0  0  0  0  0  0  0
   26.6498  -21.6145  -14.3709 C   0  0  0  0  0  0  0  0  0  0  0  0
   27.7159  -22.3265  -15.0532 C   0  0  0  0  0  0  0  0  0  0  0  0
   27.7943  -22.5468  -16.4087 C   0  0  0  0  0  0  0  0  0  0  0  0
   28.9218  -23.2360  -16.6204 N   0  0  0  0  0  0  0  0  0  0  0  0
   29.5276  -23.4412  -15.4497 C   0  0  0  0  0  0  0  0  0  0  0  0
   28.7920  -22.8877  -14.5045 N   0  0  0  0  0  0  0  0  0  0  0  0
   24.3459  -20.6144  -14.4796 C   0  0  0  0  0  0  0  0  0  0  0  0
   24.5198  -19.4972  -13.8789 O   0  0  0  0  0  0  0  0  0  0  0  0
   23.0355  -21.1402  -14.3864 N   0  0  0  0  0  0  0  0  0  0  0  0
   21.9560  -20.3910  -13.7006 C   0  0  1  0  0  0  0  0  0  0  0  0
   21.9556  -19.0105  -14.2692 C   0  0  0  0  0  0  0  0  0  0  0  0
   21.4101  -18.9803  -15.6340 C   0  0  0  0  0  0  0  0  0  0  0  0
   20.2989  -19.6768  -16.0761 C   0  0  0  0  0  0  0  0  0  0  0  0
   20.0964  -19.4541  -17.3791 N   0  0  0  0  0  0  0  0  0  0  0  0
   21.0600  -18.6220  -17.7888 C   0  0  0  0  0  0  0  0  0  0  0  0
   21.3300  -18.0501  -19.0178 C   0  0  0  0  0  0  0  0  0  0  0  0
   22.3942  -17.1875  -19.2000 C   0  0  0  0  0  0  0  0  0  0  0  0
   23.2198  -16.8794  -18.1323 C   0  0  0  0  0  0  0  0  0  0  0  0
   22.9521  -17.4461  -16.9177 C   0  0  0  0  0  0  0  0  0  0  0  0
   21.8917  -18.3091  -16.7276 C   0  0  0  0  0  0  0  0  0  0  0  0
   20.7114  -21.1224  -13.6726 C   0  0  0  0  0  0  0  0  0  0  0  0
   19.6158  -20.7309  -12.8969 O   0  0  0  0  0  0  0  0  0  0  0  0
   20.5689  -22.1673  -14.3599 O   0  0  0  0  0  0  0  0  0  0  0  0
  1  2  1  0
  3  2  1  0
  4  3  1  0
  5  4  1  0
  5  6  1  6
  7  8  2  0
  7  5  1  0
  9  7  1  0
 10  9  1  0
 10 11  1  1
 12 11  1  0
 13 12  2  0
 14 13  1  0
 15 14  1  0
 15 16  2  0
 16 12  1  0
 17 19  1  0
 17 10  1  0
 18 17  2  0
 20 19  1  0
 20 31  1  0
 20 21  1  6
 22 30  1  0
 22 21  1  0
 23 22  2  0
 24 23  1  0
 24 25  1  0
 25 30  2  0
 26 25  1  0
 26 27  2  0
 27 28  1  0
 28 29  2  0
 30 29  1  0
 31 32  1  0
 33 31  2  0
M  END
$$$$
