MVM.pdb
     RDKit          3D

 24 23  0  0  1  0  0  0  0  0999 V2000
   19.7889  -22.5105  -13.8385 C   0  0  0  0  0  0  0  0  0  0  0  0
   19.9751  -23.3647  -15.4157 S   0  0  0  0  0  0  0  0  0  0  0  0
   21.6173  -23.0420  -16.0719 C   0  0  0  0  0  0  0  0  0  0  0  0
   22.4729  -22.4964  -14.9293 C   0  0  0  0  0  0  0  0  0  0  0  0
   23.8096  -22.1235  -15.5644 C   0  0  2  0  0  0  0  0  0  0  0  0
   24.1263  -22.9976  -16.6644 N   0  0  0  0  0  0  0  0  0  0  0  0
   24.9218  -22.1836  -14.5790 C   0  0  0  0  0  0  0  0  0  0  0  0
   25.4384  -23.3056  -14.2488 O   0  0  0  0  0  0  0  0  0  0  0  0
   26.9533  -18.6786  -13.1273 C   0  0  0  0  0  0  0  0  0  0  0  0
   27.4996  -20.0493  -13.2948 C   0  0  1  0  0  0  0  0  0  0  0  0
   28.7301  -20.2166  -12.3908 C   0  0  0  0  0  0  0  0  0  0  0  0
   26.5665  -21.1725  -12.9593 C   0  0  2  0  0  0  0  0  0  0  0  0
   25.4746  -21.0499  -13.9542 N   0  0  0  0  0  0  0  0  0  0  0  0
   26.0041  -21.1442  -11.6027 C   0  0  0  0  0  0  0  0  0  0  0  0
   24.7458  -20.9343  -11.4121 O   0  0  0  0  0  0  0  0  0  0  0  0
   29.5988  -19.5954   -6.4911 C   0  0  0  0  0  0  0  0  0  0  0  0
   28.0636  -19.9627   -5.6334 S   0  0  0  0  0  0  0  0  0  0  0  0
   26.7436  -20.4467   -6.8062 C   0  0  0  0  0  0  0  0  0  0  0  0
   27.3244  -20.7697   -8.1513 C   0  0  0  0  0  0  0  0  0  0  0  0
   26.2438  -21.1908   -9.1002 C   0  0  2  0  0  0  0  0  0  0  0  0
   26.7990  -21.3460  -10.4534 N   0  0  0  0  0  0  0  0  0  0  0  0
   25.2054  -20.1629   -9.1819 C   0  0  0  0  0  0  0  0  0  0  0  0
   25.3978  -19.0624   -9.7426 O   0  0  0  0  0  0  0  0  0  0  0  0
   23.9427  -20.3538   -8.6394 O   0  0  0  0  0  0  0  0  0  0  0  0
  1  2  1  0
  3  2  1  0
  4  3  1  0
  5  4  1  0
  5  6  1  6
  7  8  2  0
  7  5  1  0
 10  9  1  1
 10 12  1  0
 10 11  1  0
 12 13  1  6
 13  7  1  0
 14 15  2  0
 14 12  1  0
 16 17  1  0
 18 17  1  0
 19 18  1  0
 20 19  1  1
 20 21  1  0
 21 14  1  0
 22 20  1  0
 23 22  2  0
 24 22  1  0
M  END
$$$$
