MVM.pdb
     RDKit          3D

 24 23  0  0  1  0  0  0  0  0999 V2000
   18.7161  -17.9579  -11.1097 C   0  0  0  0  0  0  0  0  0  0  0  0
   18.6499  -18.3958  -12.8578 S   0  0  0  0  0  0  0  0  0  0  0  0
   20.2826  -18.9193  -13.3979 C   0  0  0  0  0  0  0  0  0  0  0  0
   20.9617  -19.6094  -12.2156 C   0  0  0  0  0  0  0  0  0  0  0  0
   22.3905  -19.8887  -12.6736 C   0  0  2  0  0  0  0  0  0  0  0  0
   22.4085  -20.7346  -13.8392 N   0  0  0  0  0  0  0  0  0  0  0  0
   23.1922  -20.5418  -11.6047 C   0  0  0  0  0  0  0  0  0  0  0  0
   22.6354  -21.3224  -10.7589 O   0  0  0  0  0  0  0  0  0  0  0  0
   25.6518  -22.8358  -12.3273 C   0  0  0  0  0  0  0  0  0  0  0  0
   26.2882  -21.9693  -11.3029 C   0  0  1  0  0  0  0  0  0  0  0  0
   27.2342  -20.9779  -11.9967 C   0  0  0  0  0  0  0  0  0  0  0  0
   25.3541  -21.1528  -10.4629 C   0  0  2  0  0  0  0  0  0  0  0  0
   24.5787  -20.3587  -11.4454 N   0  0  0  0  0  0  0  0  0  0  0  0
   25.9957  -20.2520   -9.4962 C   0  0  0  0  0  0  0  0  0  0  0  0
   26.2316  -19.0198   -9.7952 O   0  0  0  0  0  0  0  0  0  0  0  0
   26.5884  -19.4405   -2.6280 C   0  0  0  0  0  0  0  0  0  0  0  0
   28.0864  -20.1139   -3.3559 S   0  0  0  0  0  0  0  0  0  0  0  0
   28.2457  -19.6363   -5.1162 C   0  0  0  0  0  0  0  0  0  0  0  0
   27.2301  -20.3568   -5.9531 C   0  0  0  0  0  0  0  0  0  0  0  0
   27.2922  -19.8836   -7.3735 C   0  0  2  0  0  0  0  0  0  0  0  0
   26.3788  -20.6806   -8.2066 N   0  0  0  0  0  0  0  0  0  0  0  0
   28.6375  -20.0722   -7.9174 C   0  0  0  0  0  0  0  0  0  0  0  0
   28.9677  -21.1050   -8.5394 O   0  0  0  0  0  0  0  0  0  0  0  0
   29.6267  -19.1100   -7.7727 O   0  0  0  0  0  0  0  0  0  0  0  0
  1  2  1  0
  3  2  1  0
  4  3  1  0
  5  4  1  0
  5  6  1  6
  7  8  2  0
  7  5  1  0
 10  9  1  6
 10 12  1  0
 10 11  1  0
 12 13  1  6
 13  7  1  0
 14 15  2  0
 14 12  1  0
 16 17  1  0
 18 17  1  0
 19 18  1  0
 20 19  1  1
 20 21  1  0
 21 14  1  0
 22 20  1  0
 23 22  2  0
 24 22  1  0
M  END
$$$$
