MVM.pdb
     RDKit          3D

 24 23  0  0  1  0  0  0  0  0999 V2000
   14.2163  -16.7816   -7.8043 C   0  0  0  0  0  0  0  0  0  0  0  0
   13.6175  -17.5761   -6.3002 S   0  0  0  0  0  0  0  0  0  0  0  0
   13.6049  -19.3579   -6.5383 C   0  0  0  0  0  0  0  0  0  0  0  0
   13.1442  -19.9962   -5.2285 C   0  0  0  0  0  0  0  0  0  0  0  0
   13.3107  -21.5001   -5.4283 C   0  0  2  0  0  0  0  0  0  0  0  0
   12.3479  -22.0108   -6.3699 N   0  0  0  0  0  0  0  0  0  0  0  0
   13.1602  -22.2442   -4.1495 C   0  0  0  0  0  0  0  0  0  0  0  0
   12.1916  -23.0621   -3.9830 O   0  0  0  0  0  0  0  0  0  0  0  0
   15.2471  -24.6719   -3.0128 C   0  0  0  0  0  0  0  0  0  0  0  0
   13.9957  -24.3341   -2.2881 C   0  0  1  0  0  0  0  0  0  0  0  0
   13.8843  -25.2150   -1.0347 C   0  0  0  0  0  0  0  0  0  0  0  0
   13.8686  -22.9146   -1.8258 C   0  0  2  0  0  0  0  0  0  0  0  0
   14.0413  -22.1117   -3.0598 N   0  0  0  0  0  0  0  0  0  0  0  0
   14.8476  -22.4872   -0.8176 C   0  0  0  0  0  0  0  0  0  0  0  0
   16.0919  -22.3408   -1.1237 O   0  0  0  0  0  0  0  0  0  0  0  0
   15.9334  -17.7581    5.3001 C   0  0  0  0  0  0  0  0  0  0  0  0
   14.7864  -18.8066    4.3987 S   0  0  0  0  0  0  0  0  0  0  0  0
   15.6703  -19.9509    3.2755 C   0  0  0  0  0  0  0  0  0  0  0  0
   14.7046  -20.6422    2.3586 C   0  0  0  0  0  0  0  0  0  0  0  0
   15.4288  -21.5998    1.4621 C   0  0  2  0  0  0  0  0  0  0  0  0
   14.4825  -22.2149    0.5188 N   0  0  0  0  0  0  0  0  0  0  0  0
   16.0173  -22.6877    2.2441 C   0  0  0  0  0  0  0  0  0  0  0  0
   15.4517  -23.7940    2.3802 O   0  0  0  0  0  0  0  0  0  0  0  0
   17.2424  -22.5513    2.8809 O   0  0  0  0  0  0  0  0  0  0  0  0
  1  2  1  0
  3  2  1  0
  4  3  1  0
  5  4  1  0
  5  6  1  6
  7  8  2  0
  7  5  1  0
 10  9  1  1
 10 12  1  0
 10 11  1  0
 12 13  1  6
 13  7  1  0
 14 15  2  0
 14 12  1  0
 16 17  1  0
 18 17  1  0
 19 18  1  0
 20 19  1  1
 20 21  1  0
 21 14  1  0
 22 20  1  0
 23 22  2  0
 24 22  1  0
M  END
$$$$
