MVM.pdb
     RDKit          3D

 24 23  0  0  1  0  0  0  0  0999 V2000
   26.5981  -16.1742  -15.2911 C   0  0  0  0  0  0  0  0  0  0  0  0
   28.2555  -16.7514  -15.7056 S   0  0  0  0  0  0  0  0  0  0  0  0
   28.1300  -18.2561  -16.6813 C   0  0  0  0  0  0  0  0  0  0  0  0
   27.0255  -19.1149  -16.0670 C   0  0  0  0  0  0  0  0  0  0  0  0
   27.7476  -20.1850  -15.2529 C   0  0  2  0  0  0  0  0  0  0  0  0
   28.3866  -21.1498  -16.1103 N   0  0  0  0  0  0  0  0  0  0  0  0
   26.8167  -20.9053  -14.3439 C   0  0  0  0  0  0  0  0  0  0  0  0
   26.2260  -21.9716  -14.7297 O   0  0  0  0  0  0  0  0  0  0  0  0
   26.0672  -19.4569  -10.4439 C   0  0  0  0  0  0  0  0  0  0  0  0
   25.8363  -20.8757  -10.8166 C   0  0  1  0  0  0  0  0  0  0  0  0
   24.7089  -21.4498   -9.9456 C   0  0  0  0  0  0  0  0  0  0  0  0
   25.4448  -21.1239  -12.2414 C   0  0  2  0  0  0  0  0  0  0  0  0
   26.5228  -20.4850  -13.0331 N   0  0  0  0  0  0  0  0  0  0  0  0
   24.1437  -20.5745  -12.6450 C   0  0  0  0  0  0  0  0  0  0  0  0
   23.9874  -19.3069  -12.8247 O   0  0  0  0  0  0  0  0  0  0  0  0
   20.6580  -22.7359  -17.3083 C   0  0  0  0  0  0  0  0  0  0  0  0
   19.3052  -21.9548  -16.4211 S   0  0  0  0  0  0  0  0  0  0  0  0
   19.9083  -21.0464  -14.9503 C   0  0  0  0  0  0  0  0  0  0  0  0
   21.2276  -21.5962  -14.4942 C   0  0  0  0  0  0  0  0  0  0  0  0
   21.7321  -20.8300  -13.3094 C   0  0  2  0  0  0  0  0  0  0  0  0
   23.0135  -21.3936  -12.8579 N   0  0  0  0  0  0  0  0  0  0  0  0
   20.7980  -20.9466  -12.1890 C   0  0  0  0  0  0  0  0  0  0  0  0
   20.9125  -21.8313  -11.3134 O   0  0  0  0  0  0  0  0  0  0  0  0
   19.7280  -20.0768  -12.0350 O   0  0  0  0  0  0  0  0  0  0  0  0
  1  2  1  0
  3  2  1  0
  4  3  1  0
  5  4  1  0
  5  6  1  6
  7  8  2  0
  7  5  1  0
 10  9  1  6
 10 12  1  0
 10 11  1  0
 12 13  1  6
 13  7  1  0
 14 15  2  0
 14 12  1  0
 16 17  1  0
 18 17  1  0
 19 18  1  0
 20 19  1  6
 20 21  1  0
 21 14  1  0
 22 20  1  0
 23 22  2  0
 24 22  1  0
M  END
$$$$
