MVM.pdb
     RDKit          3D

 24 23  0  0  1  0  0  0  0  0999 V2000
   19.7906  -17.4823  -15.1516 C   0  0  0  0  0  0  0  0  0  0  0  0
   19.8021  -17.1994  -16.9326 S   0  0  0  0  0  0  0  0  0  0  0  0
   21.1461  -18.1374  -17.6710 C   0  0  0  0  0  0  0  0  0  0  0  0
   21.8188  -18.9375  -16.5563 C   0  0  0  0  0  0  0  0  0  0  0  0
   23.0852  -19.5180  -17.1796 C   0  0  2  0  0  0  0  0  0  0  0  0
   22.7686  -20.4855  -18.1985 N   0  0  0  0  0  0  0  0  0  0  0  0
   23.9491  -20.1717  -16.1608 C   0  0  0  0  0  0  0  0  0  0  0  0
   23.6229  -21.3020  -15.6600 O   0  0  0  0  0  0  0  0  0  0  0  0
   28.3053  -20.1220  -13.7577 C   0  0  0  0  0  0  0  0  0  0  0  0
   27.3413  -19.8526  -14.8547 C   0  0  1  0  0  0  0  0  0  0  0  0
   27.7946  -20.5968  -16.1196 C   0  0  0  0  0  0  0  0  0  0  0  0
   25.9245  -20.2674  -14.5989 C   0  0  2  0  0  0  0  0  0  0  0  0
   25.1519  -19.6173  -15.6842 N   0  0  0  0  0  0  0  0  0  0  0  0
   25.3745  -19.8714  -13.2958 C   0  0  0  0  0  0  0  0  0  0  0  0
   24.8824  -18.6928  -13.1155 O   0  0  0  0  0  0  0  0  0  0  0  0
   20.2768  -19.6994  -10.7810 C   0  0  0  0  0  0  0  0  0  0  0  0
   21.1092  -20.2241   -9.2779 S   0  0  0  0  0  0  0  0  0  0  0  0
   22.9234  -20.0182   -9.4135 C   0  0  0  0  0  0  0  0  0  0  0  0
   23.4038  -20.4467  -10.7686 C   0  0  0  0  0  0  0  0  0  0  0  0
   24.8921  -20.3017  -10.8659 C   0  0  2  0  0  0  0  0  0  0  0  0
   25.3528  -20.7483  -12.1895 N   0  0  0  0  0  0  0  0  0  0  0  0
   25.5548  -21.1517   -9.8760 C   0  0  0  0  0  0  0  0  0  0  0  0
   25.9198  -22.3188  -10.1352 O   0  0  0  0  0  0  0  0  0  0  0  0
   25.8168  -20.7070   -8.5880 O   0  0  0  0  0  0  0  0  0  0  0  0
  1  2  1  0
  3  2  1  0
  4  3  1  0
  5  4  1  0
  5  6  1  6
  7  8  2  0
  7  5  1  0
 10  9  1  1
 10 12  1  0
 10 11  1  0
 12 13  1  6
 13  7  1  0
 14 15  2  0
 14 12  1  0
 16 17  1  0
 18 17  1  0
 19 18  1  0
 20 19  1  6
 20 21  1  0
 21 14  1  0
 22 20  1  0
 23 22  2  0
 24 22  1  0
M  END
$$$$
