MVM.pdb
     RDKit          3D

 24 23  0  0  1  0  0  0  0  0999 V2000
   22.7730  -28.4604  -15.9593 C   0  0  0  0  0  0  0  0  0  0  0  0
   22.6206  -27.5632  -17.5162 S   0  0  0  0  0  0  0  0  0  0  0  0
   23.0504  -25.8383  -17.2485 C   0  0  0  0  0  0  0  0  0  0  0  0
   22.6379  -25.4748  -15.8227 C   0  0  0  0  0  0  0  0  0  0  0  0
   22.9409  -23.9860  -15.6787 C   0  0  2  0  0  0  0  0  0  0  0  0
   24.3563  -23.7318  -15.7588 N   0  0  0  0  0  0  0  0  0  0  0  0
   22.4370  -23.4451  -14.3883 C   0  0  0  0  0  0  0  0  0  0  0  0
   23.1843  -23.4353  -13.3509 O   0  0  0  0  0  0  0  0  0  0  0  0
   21.2547  -19.9849  -13.8467 C   0  0  0  0  0  0  0  0  0  0  0  0
   20.2309  -20.9338  -13.3401 C   0  0  1  0  0  0  0  0  0  0  0  0
   19.1736  -21.1656  -14.4299 C   0  0  0  0  0  0  0  0  0  0  0  0
   20.7334  -22.2866  -12.9370 C   0  0  2  0  0  0  0  0  0  0  0  0
   21.1430  -22.9194  -14.2132 N   0  0  0  0  0  0  0  0  0  0  0  0
   19.7588  -23.1450  -12.2507 C   0  0  0  0  0  0  0  0  0  0  0  0
   19.0352  -23.9840  -12.9109 O   0  0  0  0  0  0  0  0  0  0  0  0
   16.9263  -26.0589   -5.4623 C   0  0  0  0  0  0  0  0  0  0  0  0
   18.0850  -24.9338   -6.2493 S   0  0  0  0  0  0  0  0  0  0  0  0
   17.6768  -24.6846   -8.0166 C   0  0  0  0  0  0  0  0  0  0  0  0
   18.7780  -23.9410   -8.7133 C   0  0  0  0  0  0  0  0  0  0  0  0
   18.5373  -23.9148  -10.1921 C   0  0  2  0  0  0  0  0  0  0  0  0
   19.5686  -23.0999  -10.8524 N   0  0  0  0  0  0  0  0  0  0  0  0
   17.2475  -23.2910  -10.4896 C   0  0  0  0  0  0  0  0  0  0  0  0
   16.2455  -23.9574  -10.8277 O   0  0  0  0  0  0  0  0  0  0  0  0
   17.0637  -21.9179  -10.4122 O   0  0  0  0  0  0  0  0  0  0  0  0
  1  2  1  0
  3  2  1  0
  4  3  1  0
  5  4  1  0
  5  6  1  1
  7  8  2  0
  7  5  1  0
 10  9  1  6
 10 12  1  0
 10 11  1  0
 12 13  1  6
 13  7  1  0
 14 15  2  0
 14 12  1  0
 16 17  1  0
 18 17  1  0
 19 18  1  0
 20 19  1  1
 20 21  1  0
 21 14  1  0
 22 20  1  0
 23 22  2  0
 24 22  1  0
M  END
$$$$
