MVM.pdb
     RDKit          3D

 24 23  0  0  1  0  0  0  0  0999 V2000
   23.8889  -26.9589  -14.7956 C   0  0  0  0  0  0  0  0  0  0  0  0
   22.5832  -25.7833  -15.2022 S   0  0  0  0  0  0  0  0  0  0  0  0
   23.3265  -24.2466  -15.7658 C   0  0  0  0  0  0  0  0  0  0  0  0
   24.8087  -24.2869  -15.3962 C   0  0  0  0  0  0  0  0  0  0  0  0
   25.3857  -22.9609  -15.8840 C   0  0  2  0  0  0  0  0  0  0  0  0
   26.1333  -23.1344  -17.1027 N   0  0  0  0  0  0  0  0  0  0  0  0
   26.2780  -22.3429  -14.8673 C   0  0  0  0  0  0  0  0  0  0  0  0
   27.5212  -22.6389  -14.8271 O   0  0  0  0  0  0  0  0  0  0  0  0
   27.5547  -19.1331  -14.5157 C   0  0  0  0  0  0  0  0  0  0  0  0
   26.9016  -19.4315  -13.2158 C   0  0  1  0  0  0  0  0  0  0  0  0
   25.4837  -18.8408  -13.2155 C   0  0  0  0  0  0  0  0  0  0  0  0
   26.7606  -20.8827  -12.8709 C   0  0  2  0  0  0  0  0  0  0  0  0
   25.8399  -21.4157  -13.9031 N   0  0  0  0  0  0  0  0  0  0  0  0
   26.2211  -21.1660  -11.5344 C   0  0  0  0  0  0  0  0  0  0  0  0
   25.1578  -21.8812  -11.3877 O   0  0  0  0  0  0  0  0  0  0  0  0
   29.0489  -20.3234   -5.3434 C   0  0  0  0  0  0  0  0  0  0  0  0
   27.4186  -19.5685   -5.3397 S   0  0  0  0  0  0  0  0  0  0  0  0
   26.3530  -20.2758   -6.6498 C   0  0  0  0  0  0  0  0  0  0  0  0
   27.0164  -20.1595   -7.9905 C   0  0  0  0  0  0  0  0  0  0  0  0
   26.1986  -20.8485   -9.0401 C   0  0  2  0  0  0  0  0  0  0  0  0
   26.8313  -20.6804  -10.3574 N   0  0  0  0  0  0  0  0  0  0  0  0
   24.8673  -20.2473   -9.1281 C   0  0  0  0  0  0  0  0  0  0  0  0
   24.6547  -19.1835   -9.7489 O   0  0  0  0  0  0  0  0  0  0  0  0
   23.7611  -20.8280   -8.5247 O   0  0  0  0  0  0  0  0  0  0  0  0
  1  2  1  0
  3  2  1  0
  4  3  1  0
  5  4  1  0
  5  6  1  6
  7  8  2  0
  7  5  1  0
 10  9  1  6
 10 12  1  0
 10 11  1  0
 12 13  1  6
 13  7  1  0
 14 15  2  0
 14 12  1  0
 16 17  1  0
 18 17  1  0
 19 18  1  0
 20 19  1  1
 20 21  1  0
 21 14  1  0
 22 20  1  0
 23 22  2  0
 24 22  1  0
M  END
$$$$
