MVM.pdb
     RDKit          3D

 24 23  0  0  1  0  0  0  0  0999 V2000
   18.7581  -20.1487  -10.8144 C   0  0  0  0  0  0  0  0  0  0  0  0
   18.8959  -19.3723  -12.4363 S   0  0  0  0  0  0  0  0  0  0  0  0
   20.6248  -19.3325  -12.9271 C   0  0  0  0  0  0  0  0  0  0  0  0
   21.4050  -20.2036  -11.9435 C   0  0  0  0  0  0  0  0  0  0  0  0
   22.8623  -20.1139  -12.3881 C   0  0  2  0  0  0  0  0  0  0  0  0
   23.0340  -20.6340  -13.7201 N   0  0  0  0  0  0  0  0  0  0  0  0
   23.7635  -20.8606  -11.4705 C   0  0  0  0  0  0  0  0  0  0  0  0
   23.5151  -22.0761  -11.1613 O   0  0  0  0  0  0  0  0  0  0  0  0
   26.4897  -22.4014  -12.0692 C   0  0  0  0  0  0  0  0  0  0  0  0
   26.9036  -21.5745  -10.9073 C   0  0  1  0  0  0  0  0  0  0  0  0
   27.6167  -20.3120  -11.4141 C   0  0  0  0  0  0  0  0  0  0  0  0
   25.7998  -21.1099  -10.0069 C   0  0  2  0  0  0  0  0  0  0  0  0
   24.9208  -20.3077  -10.8905 N   0  0  0  0  0  0  0  0  0  0  0  0
   26.2201  -20.2967   -8.8582 C   0  0  0  0  0  0  0  0  0  0  0  0
   25.4470  -19.3843   -8.3749 O   0  0  0  0  0  0  0  0  0  0  0  0
   25.0524  -19.6677   -3.2714 C   0  0  0  0  0  0  0  0  0  0  0  0
   26.8322  -19.8705   -3.1336 S   0  0  0  0  0  0  0  0  0  0  0  0
   27.6860  -19.3229   -4.6578 C   0  0  0  0  0  0  0  0  0  0  0  0
   27.1769  -20.0793   -5.8493 C   0  0  0  0  0  0  0  0  0  0  0  0
   27.8832  -19.6327   -7.0931 C   0  0  2  0  0  0  0  0  0  0  0  0
   27.4724  -20.4709   -8.2299 N   0  0  0  0  0  0  0  0  0  0  0  0
   29.3301  -19.7950   -6.9462 C   0  0  0  0  0  0  0  0  0  0  0  0
   29.9416  -20.7826   -7.4079 O   0  0  0  0  0  0  0  0  0  0  0  0
   30.1080  -18.8565   -6.2834 O   0  0  0  0  0  0  0  0  0  0  0  0
  1  2  1  0
  3  2  1  0
  4  3  1  0
  5  4  1  0
  5  6  1  6
  7  8  2  0
  7  5  1  0
 10  9  1  6
 10 12  1  0
 10 11  1  0
 12 13  1  6
 13  7  1  0
 14 15  2  0
 14 12  1  0
 16 17  1  0
 18 17  1  0
 19 18  1  0
 20 19  1  1
 20 21  1  0
 21 14  1  0
 22 20  1  0
 23 22  2  0
 24 22  1  0
M  END
$$$$
