SAI.pdb
     RDKit          3D

 20 19  0  0  1  0  0  0  0  0999 V2000
   19.7119   -8.0555  -18.2976 O   0  0  0  0  0  0  0  0  0  0  0  0
   18.8733   -9.1419  -18.2958 C   0  0  0  0  0  0  0  0  0  0  0  0
   19.5338  -10.3902  -17.7486 C   0  0  2  0  0  0  0  0  0  0  0  0
   18.6080  -11.5030  -17.7375 N   0  0  0  0  0  0  0  0  0  0  0  0
   20.1315  -10.1566  -16.4133 C   0  0  0  0  0  0  0  0  0  0  0  0
   19.3993   -9.9635  -15.3868 O   0  0  0  0  0  0  0  0  0  0  0  0
   23.4497  -10.5314  -14.8218 C   0  0  0  0  0  0  0  0  0  0  0  0
   22.0770   -9.8910  -14.8631 C   0  0  2  0  0  0  0  0  0  0  0  0
   21.5330  -10.1315  -16.1854 N   0  0  0  0  0  0  0  0  0  0  0  0
   22.2246   -8.4449  -14.5833 C   0  0  0  0  0  0  0  0  0  0  0  0
   22.7159   -8.0873  -13.4759 O   0  0  0  0  0  0  0  0  0  0  0  0
   22.7695   -3.0437  -17.4962 C   0  0  0  0  0  0  0  0  0  0  0  0
   22.3536   -3.7253  -16.1993 C   0  0  0  0  0  0  0  0  0  0  0  0
   22.3036   -5.2267  -16.4826 C   0  0  2  0  0  0  0  0  0  0  0  0
   21.1407   -5.4559  -17.4239 C   0  0  0  0  0  0  0  0  0  0  0  0
   22.0272   -6.0047  -15.2151 C   0  0  2  0  0  0  0  0  0  0  0  0
   21.8506   -7.4198  -15.4778 N   0  0  0  0  0  0  0  0  0  0  0  0
   20.7749   -5.4957  -14.6396 C   0  0  0  0  0  0  0  0  0  0  0  0
   20.7718   -4.4104  -14.0265 O   0  0  0  0  0  0  0  0  0  0  0  0
   19.6079   -6.2045  -14.7709 O   0  0  0  0  0  0  0  0  0  0  0  0
  2  1  1  0
  3  2  1  0
  3  4  1  1
  5  3  1  0
  5  9  1  0
  6  5  2  0
  8 10  1  0
  8  9  1  0
  8  7  1  6
 10 17  1  0
 11 10  2  0
 13 12  1  0
 14 13  1  0
 14 15  1  6
 16 14  1  0
 16 17  1  6
 18 16  1  0
 19 18  2  0
 20 18  1  0
M  END
$$$$
