SAI.pdb
     RDKit          3D

 20 19  0  0  1  0  0  0  0  0999 V2000
   14.2477  -12.1930  -16.0364 O   0  0  0  0  0  0  0  0  0  0  0  0
   14.4966  -11.6830  -14.7869 C   0  0  0  0  0  0  0  0  0  0  0  0
   15.9626  -11.7444  -14.4109 C   0  0  2  0  0  0  0  0  0  0  0  0
   16.3470  -13.0914  -14.0457 N   0  0  0  0  0  0  0  0  0  0  0  0
   16.3001  -10.7675  -13.3498 C   0  0  0  0  0  0  0  0  0  0  0  0
   15.9220  -10.9447  -12.1445 O   0  0  0  0  0  0  0  0  0  0  0  0
   18.3737   -7.6655  -13.0910 C   0  0  0  0  0  0  0  0  0  0  0  0
   17.4216   -8.6933  -12.5137 C   0  0  2  0  0  0  0  0  0  0  0  0
   17.0531   -9.5882  -13.5933 N   0  0  0  0  0  0  0  0  0  0  0  0
   16.2455   -7.9853  -11.9598 C   0  0  0  0  0  0  0  0  0  0  0  0
   15.2900   -7.6967  -12.7338 O   0  0  0  0  0  0  0  0  0  0  0  0
   12.1009   -7.8353   -8.4509 C   0  0  0  0  0  0  0  0  0  0  0  0
   13.2713   -6.8979   -8.1843 C   0  0  0  0  0  0  0  0  0  0  0  0
   14.5222   -7.5802   -8.7379 C   0  0  2  0  0  0  0  0  0  0  0  0
   15.6355   -7.3255   -7.7445 C   0  0  0  0  0  0  0  0  0  0  0  0
   14.9339   -6.9622  -10.0557 C   0  0  2  0  0  0  0  0  0  0  0  0
   16.1115   -7.6031  -10.6082 N   0  0  0  0  0  0  0  0  0  0  0  0
   15.2656   -5.5527   -9.8067 C   0  0  0  0  0  0  0  0  0  0  0  0
   16.4591   -5.2042   -9.7178 O   0  0  0  0  0  0  0  0  0  0  0  0
   14.2729   -4.6158   -9.6711 O   0  0  0  0  0  0  0  0  0  0  0  0
  2  1  1  0
  3  2  1  0
  3  4  1  1
  5  3  1  0
  5  9  1  0
  6  5  2  0
  8 10  1  0
  8  9  1  0
  8  7  1  6
 10 17  1  0
 11 10  2  0
 13 12  1  0
 14 13  1  0
 14 15  1  1
 16 14  1  0
 16 17  1  1
 18 16  1  0
 19 18  2  0
 20 18  1  0
M  END
$$$$
