SAI.pdb
     RDKit          3D

 20 19  0  0  1  0  0  0  0  0999 V2000
   14.9465  -14.2704  -14.8445 O   0  0  0  0  0  0  0  0  0  0  0  0
   16.0282  -13.4652  -15.0992 C   0  0  0  0  0  0  0  0  0  0  0  0
   16.0120  -12.8887  -16.4997 C   0  0  2  0  0  0  0  0  0  0  0  0
   16.2525  -13.9200  -17.4866 N   0  0  0  0  0  0  0  0  0  0  0  0
   16.9592  -11.7585  -16.6408 C   0  0  0  0  0  0  0  0  0  0  0  0
   18.2055  -11.9603  -16.8234 O   0  0  0  0  0  0  0  0  0  0  0  0
   16.7279   -8.0234  -16.7432 C   0  0  0  0  0  0  0  0  0  0  0  0
   17.5093   -9.3214  -16.7706 C   0  0  2  0  0  0  0  0  0  0  0  0
   16.5561  -10.3979  -16.5840 N   0  0  0  0  0  0  0  0  0  0  0  0
   18.5179   -9.2854  -15.6878 C   0  0  0  0  0  0  0  0  0  0  0  0
   18.1848   -9.6762  -14.5338 O   0  0  0  0  0  0  0  0  0  0  0  0
   22.9306  -11.1371  -13.4006 C   0  0  0  0  0  0  0  0  0  0  0  0
   23.0724   -9.7815  -14.0800 C   0  0  0  0  0  0  0  0  0  0  0  0
   22.0364   -9.7369  -15.2033 C   0  0  2  0  0  0  0  0  0  0  0  0
   22.7066   -9.0801  -16.3909 C   0  0  0  0  0  0  0  0  0  0  0  0
   20.8544   -8.8781  -14.8115 C   0  0  2  0  0  0  0  0  0  0  0  0
   19.8462   -8.8392  -15.8531 N   0  0  0  0  0  0  0  0  0  0  0  0
   21.3427   -7.5073  -14.6088 C   0  0  0  0  0  0  0  0  0  0  0  0
   21.9099   -7.2039  -13.5410 O   0  0  0  0  0  0  0  0  0  0  0  0
   21.1800   -6.5572  -15.5846 O   0  0  0  0  0  0  0  0  0  0  0  0
  2  1  1  0
  3  2  1  0
  3  4  1  6
  5  3  1  0
  5  9  1  0
  6  5  2  0
  8 10  1  0
  8  9  1  0
  8  7  1  1
 10 17  1  0
 11 10  2  0
 13 12  1  0
 14 13  1  0
 14 15  1  6
 16 14  1  0
 16 17  1  6
 18 16  1  0
 19 18  2  0
 20 18  1  0
M  END
$$$$
