SAI.pdb
     RDKit          3D

 20 19  0  0  1  0  0  0  0  0999 V2000
   15.0863  -14.5275  -15.0619 O   0  0  0  0  0  0  0  0  0  0  0  0
   16.1414  -13.6506  -15.0948 C   0  0  0  0  0  0  0  0  0  0  0  0
   16.7384  -13.5046  -16.4791 C   0  0  2  0  0  0  0  0  0  0  0  0
   17.3315  -14.7490  -16.9207 N   0  0  0  0  0  0  0  0  0  0  0  0
   17.7003  -12.3801  -16.5480 C   0  0  0  0  0  0  0  0  0  0  0  0
   18.8841  -12.4946  -16.0870 O   0  0  0  0  0  0  0  0  0  0  0  0
   17.7363   -8.9549  -18.0566 C   0  0  0  0  0  0  0  0  0  0  0  0
   18.3940  -10.1033  -17.3186 C   0  0  2  0  0  0  0  0  0  0  0  0
   17.3800  -11.1204  -17.1203 N   0  0  0  0  0  0  0  0  0  0  0  0
   18.9222   -9.5944  -16.0328 C   0  0  0  0  0  0  0  0  0  0  0  0
   18.1365   -9.4988  -15.0484 O   0  0  0  0  0  0  0  0  0  0  0  0
   24.1443  -10.6454  -14.7016 C   0  0  0  0  0  0  0  0  0  0  0  0
   23.0453   -9.7142  -15.1962 C   0  0  0  0  0  0  0  0  0  0  0  0
   21.9587   -9.6987  -14.1211 C   0  0  2  0  0  0  0  0  0  0  0  0
   21.4341  -11.1141  -14.0086 C   0  0  0  0  0  0  0  0  0  0  0  0
   20.8040   -8.8138  -14.5355 C   0  0  2  0  0  0  0  0  0  0  0  0
   20.2611   -9.2020  -15.8228 N   0  0  0  0  0  0  0  0  0  0  0  0
   21.3120   -7.4407  -14.6586 C   0  0  0  0  0  0  0  0  0  0  0  0
   21.6359   -6.8065  -13.6355 O   0  0  0  0  0  0  0  0  0  0  0  0
   21.4334   -6.8495  -15.8904 O   0  0  0  0  0  0  0  0  0  0  0  0
  2  1  1  0
  3  2  1  0
  3  4  1  1
  5  3  1  0
  5  9  1  0
  6  5  2  0
  8 10  1  0
  8  9  1  0
  8  7  1  1
 10 17  1  0
 11 10  2  0
 13 12  1  0
 14 13  1  0
 14 15  1  6
 16 14  1  0
 16 17  1  6
 18 16  1  0
 19 18  2  0
 20 18  1  0
M  END
$$$$
