SAI.pdb
     RDKit          3D

 20 19  0  0  1  0  0  0  0  0999 V2000
   18.2837  -12.9831  -18.6878 O   0  0  0  0  0  0  0  0  0  0  0  0
   18.9898  -12.1223  -17.8853 C   0  0  0  0  0  0  0  0  0  0  0  0
   20.0632  -12.8223  -17.0779 C   0  0  2  0  0  0  0  0  0  0  0  0
   19.5164  -13.9561  -16.3632 N   0  0  0  0  0  0  0  0  0  0  0  0
   20.7682  -11.8865  -16.1713 C   0  0  0  0  0  0  0  0  0  0  0  0
   20.1518  -11.2938  -15.2248 O   0  0  0  0  0  0  0  0  0  0  0  0
   24.2740  -10.6919  -15.6679 C   0  0  0  0  0  0  0  0  0  0  0  0
   22.7775  -10.5769  -15.4596 C   0  0  2  0  0  0  0  0  0  0  0  0
   22.1518  -11.5885  -16.2887 N   0  0  0  0  0  0  0  0  0  0  0  0
   22.3533   -9.2115  -15.8428 C   0  0  0  0  0  0  0  0  0  0  0  0
   22.2196   -8.9384  -17.0688 O   0  0  0  0  0  0  0  0  0  0  0  0
   18.7683   -5.3483  -16.8780 C   0  0  0  0  0  0  0  0  0  0  0  0
   19.7484   -5.2847  -15.7140 C   0  0  0  0  0  0  0  0  0  0  0  0
   20.1637   -6.7229  -15.4037 C   0  0  2  0  0  0  0  0  0  0  0  0
   19.5850   -7.0624  -14.0469 C   0  0  0  0  0  0  0  0  0  0  0  0
   21.6685   -6.8385  -15.3018 C   0  0  2  0  0  0  0  0  0  0  0  0
   22.0830   -8.1756  -14.9237 N   0  0  0  0  0  0  0  0  0  0  0  0
   22.1199   -5.9153  -14.2518 C   0  0  0  0  0  0  0  0  0  0  0  0
   22.2863   -4.7090  -14.5180 O   0  0  0  0  0  0  0  0  0  0  0  0
   22.3603   -6.3692  -12.9799 O   0  0  0  0  0  0  0  0  0  0  0  0
  2  1  1  0
  3  2  1  0
  3  4  1  1
  5  3  1  0
  5  9  1  0
  6  5  2  0
  8 10  1  0
  8  9  1  0
  8  7  1  6
 10 17  1  0
 11 10  2  0
 13 12  1  0
 14 13  1  0
 14 15  1  1
 16 14  1  0
 16 17  1  1
 18 16  1  0
 19 18  2  0
 20 18  1  0
M  END
$$$$
