KWH.pdb
     RDKit          3D

 34 36  0  0  1  0  0  0  0  0999 V2000
    8.1394  -17.6451   19.8808 N   0  0  0  0  0  0  0  0  0  0  0  0
    9.5925  -17.5104   19.9882 C   0  0  1  0  0  0  0  0  0  0  0  0
   10.0757  -16.6559   18.8080 C   0  0  0  0  0  0  0  0  0  0  0  0
    8.8428  -16.0277   18.1865 C   0  0  0  0  0  0  0  0  0  0  0  0
    9.0508  -14.5730   17.8808 C   0  0  0  0  0  0  0  0  0  0  0  0
    7.9190  -13.9737   17.0929 C   0  0  0  0  0  0  0  0  0  0  0  0
    8.1994  -12.5604   16.8393 N   0  0  0  0  0  0  0  0  0  0  0  0
    9.8710  -16.8247   21.2736 C   0  0  0  0  0  0  0  0  0  0  0  0
   11.0160  -16.4742   21.5670 O   0  0  0  0  0  0  0  0  0  0  0  0
    8.8407  -16.5404   22.2208 N   0  0  0  0  0  0  0  0  0  0  0  0
    9.0418  -15.8996   23.4667 C   0  0  1  0  0  0  0  0  0  0  0  0
    8.0658  -14.8297   23.8500 C   0  0  0  0  0  0  0  0  0  0  0  0
    8.4873  -14.0957   25.0451 C   0  0  0  0  0  0  0  0  0  0  0  0
    9.7404  -14.0852   25.6307 C   0  0  0  0  0  0  0  0  0  0  0  0
    9.7015  -13.2716   26.6971 N   0  0  0  0  0  0  0  0  0  0  0  0
    8.4968  -12.7403   26.8561 C   0  0  0  0  0  0  0  0  0  0  0  0
    7.9926  -11.8702   27.7949 C   0  0  0  0  0  0  0  0  0  0  0  0
    6.6682  -11.4976   27.6985 C   0  0  0  0  0  0  0  0  0  0  0  0
    5.8688  -11.9740   26.7016 C   0  0  0  0  0  0  0  0  0  0  0  0
    6.4046  -12.8554   25.7622 C   0  0  0  0  0  0  0  0  0  0  0  0
    7.7142  -13.2466   25.8254 C   0  0  0  0  0  0  0  0  0  0  0  0
    9.1457  -16.9340   24.5226 C   0  0  0  0  0  0  0  0  0  0  0  0
    8.1700  -17.7344   24.7369 O   0  0  0  0  0  0  0  0  0  0  0  0
   10.2695  -17.1196   25.3429 N   0  0  0  0  0  0  0  0  0  0  0  0
   10.4114  -18.2939   26.2368 C   0  0  1  0  0  0  0  0  0  0  0  0
   11.8272  -18.7638   26.2537 C   0  0  0  0  0  0  0  0  0  0  0  0
   12.1562  -19.4445   24.9818 C   0  0  0  0  0  0  0  0  0  0  0  0
   11.4326  -19.7015   23.8473 C   0  0  0  0  0  0  0  0  0  0  0  0
   12.1970  -20.3067   22.8984 N   0  0  0  0  0  0  0  0  0  0  0  0
   13.4109  -20.4345   23.4291 C   0  0  0  0  0  0  0  0  0  0  0  0
   13.4105  -19.9279   24.6690 N   0  0  0  0  0  0  0  0  0  0  0  0
   10.1496  -17.6909   27.5857 C   0  0  0  0  0  0  0  0  0  0  0  0
    9.9570  -16.4829   27.7170 O   0  0  0  0  0  0  0  0  0  0  0  0
   10.1170  -18.4753   28.7176 O   0  0  0  0  0  0  0  0  0  0  0  0
  2  1  1  6
  2  3  1  0
  3  4  1  0
  4  5  1  0
  6  5  1  0
  7  6  1  0
  8  2  1  0
  8  9  2  0
 10  8  1  0
 11 22  1  0
 11 10  1  0
 11 12  1  1
 13 14  2  0
 13 12  1  0
 15 14  1  0
 16 21  2  0
 16 15  1  0
 17 16  1  0
 18 19  1  0
 18 17  2  0
 19 20  2  0
 20 21  1  0
 21 13  1  0
 22 23  2  0
 22 24  1  0
 24 25  1  0
 25 26  1  1
 26 27  1  0
 27 31  1  0
 28 27  2  0
 28 29  1  0
 29 30  1  0
 31 30  2  0
 32 25  1  0
 33 32  2  0
 34 32  1  0
M  END
$$$$
