KWH.pdb
     RDKit          3D

 34 36  0  0  1  0  0  0  0  0999 V2000
    8.2250  -16.5501   20.9999 N   0  0  0  0  0  0  0  0  0  0  0  0
    9.5978  -16.8773   21.3865 C   0  0  1  0  0  0  0  0  0  0  0  0
   10.5460  -16.1097   20.4547 C   0  0  0  0  0  0  0  0  0  0  0  0
   11.1385  -17.1256   19.4967 C   0  0  0  0  0  0  0  0  0  0  0  0
   10.3608  -17.2053   18.2155 C   0  0  0  0  0  0  0  0  0  0  0  0
   10.9682  -18.1557   17.2212 C   0  0  0  0  0  0  0  0  0  0  0  0
   10.0901  -18.2655   16.0562 N   0  0  0  0  0  0  0  0  0  0  0  0
    9.7724  -16.4281   22.7892 C   0  0  0  0  0  0  0  0  0  0  0  0
   10.1022  -15.2677   23.0441 O   0  0  0  0  0  0  0  0  0  0  0  0
    9.5693  -17.3052   23.8978 N   0  0  0  0  0  0  0  0  0  0  0  0
    9.6524  -16.9223   25.2579 C   0  0  1  0  0  0  0  0  0  0  0  0
    8.3773  -16.9138   26.0443 C   0  0  0  0  0  0  0  0  0  0  0  0
    7.5071  -15.7939   25.6793 C   0  0  0  0  0  0  0  0  0  0  0  0
    6.3078  -15.8463   24.9922 C   0  0  0  0  0  0  0  0  0  0  0  0
    5.8289  -14.5976   24.8826 N   0  0  0  0  0  0  0  0  0  0  0  0
    6.6386  -13.7173   25.4556 C   0  0  0  0  0  0  0  0  0  0  0  0
    6.5654  -12.3497   25.5852 C   0  0  0  0  0  0  0  0  0  0  0  0
    7.5880  -11.6980   26.2423 C   0  0  0  0  0  0  0  0  0  0  0  0
    8.6507  -12.3823   26.7544 C   0  0  0  0  0  0  0  0  0  0  0  0
    8.7009  -13.7691   26.6094 C   0  0  0  0  0  0  0  0  0  0  0  0
    7.7043  -14.4495   25.9646 C   0  0  0  0  0  0  0  0  0  0  0  0
   10.6870  -17.7490   25.9227 C   0  0  0  0  0  0  0  0  0  0  0  0
   10.8777  -18.9597   25.5535 O   0  0  0  0  0  0  0  0  0  0  0  0
   11.5107  -17.2997   26.9666 N   0  0  0  0  0  0  0  0  0  0  0  0
   12.4218  -18.2088   27.7028 C   0  0  1  0  0  0  0  0  0  0  0  0
   13.0919  -17.4787   28.8179 C   0  0  0  0  0  0  0  0  0  0  0  0
   13.9294  -18.4078   29.6083 C   0  0  0  0  0  0  0  0  0  0  0  0
   15.1271  -19.0246   29.3599 C   0  0  0  0  0  0  0  0  0  0  0  0
   15.5444  -19.7477   30.4341 N   0  0  0  0  0  0  0  0  0  0  0  0
   14.6108  -19.5902   31.3697 C   0  0  0  0  0  0  0  0  0  0  0  0
   13.6396  -18.7962   30.9006 N   0  0  0  0  0  0  0  0  0  0  0  0
   11.4575  -19.1644   28.3417 C   0  0  0  0  0  0  0  0  0  0  0  0
   11.7561  -20.3439   28.5245 O   0  0  0  0  0  0  0  0  0  0  0  0
   10.2077  -18.7466   28.7429 O   0  0  0  0  0  0  0  0  0  0  0  0
  2  1  1  6
  2  3  1  0
  3  4  1  0
  4  5  1  0
  6  5  1  0
  7  6  1  0
  8  2  1  0
  8  9  2  0
 10  8  1  0
 11 22  1  0
 11 10  1  0
 11 12  1  1
 13 14  2  0
 13 12  1  0
 15 14  1  0
 16 21  2  0
 16 15  1  0
 17 16  1  0
 18 19  1  0
 18 17  2  0
 19 20  2  0
 20 21  1  0
 21 13  1  0
 22 23  2  0
 22 24  1  0
 24 25  1  0
 25 26  1  1
 26 27  1  0
 27 31  1  0
 28 27  2  0
 28 29  1  0
 29 30  1  0
 31 30  2  0
 32 25  1  0
 33 32  2  0
 34 32  1  0
M  END
$$$$
