KWH.pdb
     RDKit          3D

 34 36  0  0  1  0  0  0  0  0999 V2000
    7.3121  -16.8590   21.5491 N   0  0  0  0  0  0  0  0  0  0  0  0
    8.4415  -15.9386   21.4128 C   0  0  1  0  0  0  0  0  0  0  0  0
    7.8908  -14.5806   20.9554 C   0  0  0  0  0  0  0  0  0  0  0  0
    7.7176  -14.6609   19.4506 C   0  0  0  0  0  0  0  0  0  0  0  0
    8.1475  -13.3940   18.7703 C   0  0  0  0  0  0  0  0  0  0  0  0
    8.0004  -13.4544   17.2751 C   0  0  0  0  0  0  0  0  0  0  0  0
    8.5676  -12.2431   16.6825 N   0  0  0  0  0  0  0  0  0  0  0  0
    9.0686  -15.8199   22.7517 C   0  0  0  0  0  0  0  0  0  0  0  0
    9.9594  -14.9935   22.9606 O   0  0  0  0  0  0  0  0  0  0  0  0
    8.6765  -16.6453   23.8492 N   0  0  0  0  0  0  0  0  0  0  0  0
    9.1871  -16.5378   25.1649 C   0  0  1  0  0  0  0  0  0  0  0  0
    8.1930  -16.3554   26.2707 C   0  0  0  0  0  0  0  0  0  0  0  0
    7.2494  -15.2697   25.9958 C   0  0  0  0  0  0  0  0  0  0  0  0
    5.9313  -15.3795   25.5911 C   0  0  0  0  0  0  0  0  0  0  0  0
    5.4230  -14.1438   25.4677 N   0  0  0  0  0  0  0  0  0  0  0  0
    6.3247  -13.2181   25.7660 C   0  0  0  0  0  0  0  0  0  0  0  0
    6.2624  -11.8439   25.7765 C   0  0  0  0  0  0  0  0  0  0  0  0
    7.3933  -11.1392   26.1324 C   0  0  0  0  0  0  0  0  0  0  0  0
    8.5505  -11.7786   26.4672 C   0  0  0  0  0  0  0  0  0  0  0  0
    8.5873  -13.1732   26.4485 C   0  0  0  0  0  0  0  0  0  0  0  0
    7.4849  -13.9055   26.1015 C   0  0  0  0  0  0  0  0  0  0  0  0
   10.0745  -17.6952   25.4270 C   0  0  0  0  0  0  0  0  0  0  0  0
    9.6959  -18.8785   25.1188 O   0  0  0  0  0  0  0  0  0  0  0  0
   11.3484  -17.6017   26.0090 N   0  0  0  0  0  0  0  0  0  0  0  0
   12.1613  -18.7994   26.3303 C   0  0  1  0  0  0  0  0  0  0  0  0
   13.6137  -18.4966   26.1738 C   0  0  0  0  0  0  0  0  0  0  0  0
   13.9161  -18.1493   24.7677 C   0  0  0  0  0  0  0  0  0  0  0  0
   13.3268  -18.4839   23.5771 C   0  0  0  0  0  0  0  0  0  0  0  0
   13.9300  -17.8559   22.5318 N   0  0  0  0  0  0  0  0  0  0  0  0
   14.9052  -17.1183   23.0578 C   0  0  0  0  0  0  0  0  0  0  0  0
   14.9158  -17.2770   24.3877 N   0  0  0  0  0  0  0  0  0  0  0  0
   11.9175  -18.9543   27.8027 C   0  0  0  0  0  0  0  0  0  0  0  0
   11.2409  -18.1373   28.4259 O   0  0  0  0  0  0  0  0  0  0  0  0
   12.4457  -20.0187   28.4996 O   0  0  0  0  0  0  0  0  0  0  0  0
  2  1  1  1
  2  3  1  0
  3  4  1  0
  4  5  1  0
  6  5  1  0
  7  6  1  0
  8  2  1  0
  8  9  2  0
 10  8  1  0
 11 22  1  0
 11 10  1  0
 11 12  1  1
 13 14  2  0
 13 12  1  0
 15 14  1  0
 16 21  2  0
 16 15  1  0
 17 16  1  0
 18 19  1  0
 18 17  2  0
 19 20  2  0
 20 21  1  0
 21 13  1  0
 22 23  2  0
 22 24  1  0
 24 25  1  0
 25 26  1  1
 26 27  1  0
 27 31  1  0
 28 27  2  0
 28 29  1  0
 29 30  1  0
 31 30  2  0
 32 25  1  0
 33 32  2  0
 34 32  1  0
M  END
$$$$
