KWH.pdb
     RDKit          3D

 34 36  0  0  1  0  0  0  0  0999 V2000
    8.3108  -17.9199   21.9480 N   0  0  0  0  0  0  0  0  0  0  0  0
    9.3185  -17.1115   21.2609 C   0  0  1  0  0  0  0  0  0  0  0  0
    8.6300  -16.3926   20.0923 C   0  0  0  0  0  0  0  0  0  0  0  0
    8.2098  -17.4636   19.1037 C   0  0  0  0  0  0  0  0  0  0  0  0
    7.5210  -16.8785   17.9054 C   0  0  0  0  0  0  0  0  0  0  0  0
    7.0090  -17.9262   16.9560 C   0  0  0  0  0  0  0  0  0  0  0  0
    6.3874  -17.2741   15.8034 N   0  0  0  0  0  0  0  0  0  0  0  0
    9.8312  -16.1279   22.2456 C   0  0  0  0  0  0  0  0  0  0  0  0
   10.7221  -15.3328   21.9385 O   0  0  0  0  0  0  0  0  0  0  0  0
    9.3247  -16.0543   23.5788 N   0  0  0  0  0  0  0  0  0  0  0  0
   10.0169  -15.4904   24.6770 C   0  0  1  0  0  0  0  0  0  0  0  0
    9.2482  -15.3120   25.9504 C   0  0  0  0  0  0  0  0  0  0  0  0
    7.9211  -14.7364   25.7220 C   0  0  0  0  0  0  0  0  0  0  0  0
    6.7404  -15.4116   25.4703 C   0  0  0  0  0  0  0  0  0  0  0  0
    5.7574  -14.5081   25.3367 N   0  0  0  0  0  0  0  0  0  0  0  0
    6.2138  -13.2717   25.4842 C   0  0  0  0  0  0  0  0  0  0  0  0
    5.5879  -12.0480   25.4272 C   0  0  0  0  0  0  0  0  0  0  0  0
    6.3482  -10.9134   25.6190 C   0  0  0  0  0  0  0  0  0  0  0  0
    7.6884  -10.9908   25.8593 C   0  0  0  0  0  0  0  0  0  0  0  0
    8.2990  -12.2442   25.9121 C   0  0  0  0  0  0  0  0  0  0  0  0
    7.5767  -13.3914   25.7276 C   0  0  0  0  0  0  0  0  0  0  0  0
   11.2596  -16.2649   24.9047 C   0  0  0  0  0  0  0  0  0  0  0  0
   12.4015  -15.7192   24.7129 O   0  0  0  0  0  0  0  0  0  0  0  0
   11.2937  -17.6019   25.3305 N   0  0  0  0  0  0  0  0  0  0  0  0
   12.2667  -18.0867   26.3388 C   0  0  1  0  0  0  0  0  0  0  0  0
   11.5695  -18.4102   27.6175 C   0  0  0  0  0  0  0  0  0  0  0  0
   11.3967  -17.1862   28.4306 C   0  0  0  0  0  0  0  0  0  0  0  0
   11.6947  -15.8680   28.2065 C   0  0  0  0  0  0  0  0  0  0  0  0
   11.2809  -15.0840   29.2386 N   0  0  0  0  0  0  0  0  0  0  0  0
   10.7168  -15.9045   30.1218 C   0  0  0  0  0  0  0  0  0  0  0  0
   10.7740  -17.1612   29.6621 N   0  0  0  0  0  0  0  0  0  0  0  0
   12.6984  -19.3971   25.7489 C   0  0  0  0  0  0  0  0  0  0  0  0
   12.2084  -19.8164   24.7012 O   0  0  0  0  0  0  0  0  0  0  0  0
   13.6583  -20.1690   26.3655 O   0  0  0  0  0  0  0  0  0  0  0  0
  2  1  1  1
  2  3  1  0
  3  4  1  0
  4  5  1  0
  6  5  1  0
  7  6  1  0
  8  2  1  0
  8  9  2  0
 10  8  1  0
 11 22  1  0
 11 10  1  0
 11 12  1  1
 13 14  2  0
 13 12  1  0
 15 14  1  0
 16 21  2  0
 16 15  1  0
 17 16  1  0
 18 19  1  0
 18 17  2  0
 19 20  2  0
 20 21  1  0
 21 13  1  0
 22 23  2  0
 22 24  1  0
 24 25  1  0
 25 26  1  1
 26 27  1  0
 27 31  1  0
 28 27  2  0
 28 29  1  0
 29 30  1  0
 31 30  2  0
 32 25  1  0
 33 32  2  0
 34 32  1  0
M  END
$$$$
