KWH.pdb
     RDKit          3D

 34 36  0  0  1  0  0  0  0  0999 V2000
    7.1318  -16.6090   21.3172 N   0  0  0  0  0  0  0  0  0  0  0  0
    8.2994  -15.7672   21.0540 C   0  0  1  0  0  0  0  0  0  0  0  0
    7.7972  -14.4134   20.5330 C   0  0  0  0  0  0  0  0  0  0  0  0
    7.4264  -14.6134   19.0758 C   0  0  0  0  0  0  0  0  0  0  0  0
    8.1914  -13.6903   18.1728 C   0  0  0  0  0  0  0  0  0  0  0  0
    7.7598  -13.7879   16.7357 C   0  0  0  0  0  0  0  0  0  0  0  0
    8.4008  -12.7237   15.9633 N   0  0  0  0  0  0  0  0  0  0  0  0
    9.0103  -15.5953   22.3444 C   0  0  0  0  0  0  0  0  0  0  0  0
    9.9586  -14.8137   22.4435 O   0  0  0  0  0  0  0  0  0  0  0  0
    8.6359  -16.3162   23.5189 N   0  0  0  0  0  0  0  0  0  0  0  0
    9.3157  -16.2515   24.7587 C   0  0  1  0  0  0  0  0  0  0  0  0
    8.4747  -16.1554   25.9947 C   0  0  0  0  0  0  0  0  0  0  0  0
    7.3735  -15.2017   25.8445 C   0  0  0  0  0  0  0  0  0  0  0  0
    6.0656  -15.4728   25.4854 C   0  0  0  0  0  0  0  0  0  0  0  0
    5.3811  -14.3187   25.4805 N   0  0  0  0  0  0  0  0  0  0  0  0
    6.1559  -13.2956   25.8148 C   0  0  0  0  0  0  0  0  0  0  0  0
    5.8993  -11.9495   25.9365 C   0  0  0  0  0  0  0  0  0  0  0  0
    6.9351  -11.1153   26.3017 C   0  0  0  0  0  0  0  0  0  0  0  0
    8.1870  -11.6018   26.5383 C   0  0  0  0  0  0  0  0  0  0  0  0
    8.4209  -12.9710   26.4079 C   0  0  0  0  0  0  0  0  0  0  0  0
    7.4176  -13.8291   26.0484 C   0  0  0  0  0  0  0  0  0  0  0  0
   10.2632  -17.3879   24.8417 C   0  0  0  0  0  0  0  0  0  0  0  0
    9.8797  -18.5688   24.5306 O   0  0  0  0  0  0  0  0  0  0  0  0
   11.6016  -17.2760   25.2496 N   0  0  0  0  0  0  0  0  0  0  0  0
   12.5241  -18.4366   25.2636 C   0  0  1  0  0  0  0  0  0  0  0  0
   13.9396  -17.9742   25.1724 C   0  0  0  0  0  0  0  0  0  0  0  0
   14.8585  -19.1338   25.1733 C   0  0  0  0  0  0  0  0  0  0  0  0
   14.6511  -20.4879   25.1869 C   0  0  0  0  0  0  0  0  0  0  0  0
   15.8258  -21.1700   25.1103 N   0  0  0  0  0  0  0  0  0  0  0  0
   16.7838  -20.2482   25.0464 C   0  0  0  0  0  0  0  0  0  0  0  0
   16.2316  -19.0286   25.0821 N   0  0  0  0  0  0  0  0  0  0  0  0
   12.3398  -18.9631   26.6565 C   0  0  0  0  0  0  0  0  0  0  0  0
   12.9087  -19.9878   27.0308 O   0  0  0  0  0  0  0  0  0  0  0  0
   11.5265  -18.3119   27.5576 O   0  0  0  0  0  0  0  0  0  0  0  0
  2  1  1  1
  2  3  1  0
  3  4  1  0
  4  5  1  0
  6  5  1  0
  7  6  1  0
  8  2  1  0
  8  9  2  0
 10  8  1  0
 11 22  1  0
 11 10  1  0
 11 12  1  1
 13 14  2  0
 13 12  1  0
 15 14  1  0
 16 21  2  0
 16 15  1  0
 17 16  1  0
 18 19  1  0
 18 17  2  0
 19 20  2  0
 20 21  1  0
 21 13  1  0
 22 23  2  0
 22 24  1  0
 24 25  1  0
 25 26  1  1
 26 27  1  0
 27 31  1  0
 28 27  2  0
 28 29  1  0
 29 30  1  0
 31 30  2  0
 32 25  1  0
 33 32  2  0
 34 32  1  0
M  END
$$$$
