KWH.pdb
     RDKit          3D

 34 36  0  0  1  0  0  0  0  0999 V2000
    7.6137  -16.2557   21.3926 N   0  0  0  0  0  0  0  0  0  0  0  0
    8.7282  -15.3080   21.4249 C   0  0  1  0  0  0  0  0  0  0  0  0
    8.1722  -13.9146   21.0995 C   0  0  0  0  0  0  0  0  0  0  0  0
    7.4280  -14.0348   19.7831 C   0  0  0  0  0  0  0  0  0  0  0  0
    8.1921  -13.4131   18.6507 C   0  0  0  0  0  0  0  0  0  0  0  0
    7.4276  -13.4210   17.3559 C   0  0  0  0  0  0  0  0  0  0  0  0
    8.2225  -12.7624   16.3192 N   0  0  0  0  0  0  0  0  0  0  0  0
    9.2829  -15.3372   22.8001 C   0  0  0  0  0  0  0  0  0  0  0  0
   10.1051  -14.4949   23.1672 O   0  0  0  0  0  0  0  0  0  0  0  0
    8.8969  -16.3281   23.7533 N   0  0  0  0  0  0  0  0  0  0  0  0
    9.3683  -16.3954   25.0861 C   0  0  1  0  0  0  0  0  0  0  0  0
    8.3432  -16.3399   26.1770 C   0  0  0  0  0  0  0  0  0  0  0  0
    7.3526  -15.2843   25.9552 C   0  0  0  0  0  0  0  0  0  0  0  0
    6.0558  -15.4271   25.4957 C   0  0  0  0  0  0  0  0  0  0  0  0
    5.4869  -14.2126   25.4524 N   0  0  0  0  0  0  0  0  0  0  0  0
    6.3282  -13.2700   25.8556 C   0  0  0  0  0  0  0  0  0  0  0  0
    6.1928  -11.9060   25.9728 C   0  0  0  0  0  0  0  0  0  0  0  0
    7.2727  -11.1766   26.4242 C   0  0  0  0  0  0  0  0  0  0  0  0
    8.4509  -11.7820   26.7489 C   0  0  0  0  0  0  0  0  0  0  0  0
    8.5622  -13.1668   26.6210 C   0  0  0  0  0  0  0  0  0  0  0  0
    7.5119  -13.9231   26.1773 C   0  0  0  0  0  0  0  0  0  0  0  0
   10.2349  -17.5895   25.2247 C   0  0  0  0  0  0  0  0  0  0  0  0
    9.8604  -18.7149   24.7433 O   0  0  0  0  0  0  0  0  0  0  0  0
   11.4837  -17.5928   25.8655 N   0  0  0  0  0  0  0  0  0  0  0  0
   12.2329  -18.8442   26.1320 C   0  0  1  0  0  0  0  0  0  0  0  0
   13.6939  -18.5607   26.2366 C   0  0  0  0  0  0  0  0  0  0  0  0
   14.2473  -18.2257   24.9059 C   0  0  0  0  0  0  0  0  0  0  0  0
   13.7615  -18.3633   23.6324 C   0  0  0  0  0  0  0  0  0  0  0  0
   14.6194  -17.8395   22.7155 N   0  0  0  0  0  0  0  0  0  0  0  0
   15.6537  -17.3660   23.4066 C   0  0  0  0  0  0  0  0  0  0  0  0
   15.4541  -17.5845   24.7129 N   0  0  0  0  0  0  0  0  0  0  0  0
   11.7698  -19.1949   27.5154 C   0  0  0  0  0  0  0  0  0  0  0  0
   10.9670  -18.4835   28.1181 O   0  0  0  0  0  0  0  0  0  0  0  0
   12.2314  -20.3265   28.1510 O   0  0  0  0  0  0  0  0  0  0  0  0
  2  1  1  1
  2  3  1  0
  3  4  1  0
  4  5  1  0
  6  5  1  0
  7  6  1  0
  8  2  1  0
  8  9  2  0
 10  8  1  0
 11 22  1  0
 11 10  1  0
 11 12  1  1
 13 14  2  0
 13 12  1  0
 15 14  1  0
 16 21  2  0
 16 15  1  0
 17 16  1  0
 18 19  1  0
 18 17  2  0
 19 20  2  0
 20 21  1  0
 21 13  1  0
 22 23  2  0
 22 24  1  0
 24 25  1  0
 25 26  1  1
 26 27  1  0
 27 31  1  0
 28 27  2  0
 28 29  1  0
 29 30  1  0
 31 30  2  0
 32 25  1  0
 33 32  2  0
 34 32  1  0
M  END
$$$$
