IRR.pdb
     RDKit          3D

 31 30  0  0  1  0  0  0  0  0999 V2000
   21.3745  -19.4976  -19.5525 C   0  0  0  0  0  0  0  0  0  0  0  0
   22.2267  -18.4368  -18.8867 C   0  0  0  0  0  0  0  0  0  0  0  0
   22.4865  -18.7250  -17.4438 C   0  0  2  0  0  0  0  0  0  0  0  0
   23.3912  -19.9352  -17.3692 C   0  0  0  0  0  0  0  0  0  0  0  0
   21.2523  -18.8764  -16.6103 C   0  0  2  0  0  0  0  0  0  0  0  0
   20.5009  -17.6223  -16.7393 N   0  0  0  0  0  0  0  0  0  0  0  0
   21.4893  -19.1589  -15.2011 C   0  0  0  0  0  0  0  0  0  0  0  0
   22.4758  -18.6692  -14.6100 O   0  0  0  0  0  0  0  0  0  0  0  0
   18.9783  -24.5107  -10.2752 N   0  0  0  0  0  0  0  0  0  0  0  0
   18.1612  -23.7835   -9.3614 C   0  0  0  0  0  0  0  0  0  0  0  0
   17.3234  -24.4383   -8.6266 N   0  0  0  0  0  0  0  0  0  0  0  0
   18.3055  -22.3701   -9.3011 N   0  0  0  0  0  0  0  0  0  0  0  0
   18.2218  -21.6266  -10.5309 C   0  0  0  0  0  0  0  0  0  0  0  0
   19.5967  -21.1511  -10.9862 C   0  0  0  0  0  0  0  0  0  0  0  0
   19.5115  -20.7685  -12.4287 C   0  0  0  0  0  0  0  0  0  0  0  0
   20.7928  -20.3046  -13.0441 C   0  0  2  0  0  0  0  0  0  0  0  0
   20.6137  -19.9916  -14.4660 N   0  0  0  0  0  0  0  0  0  0  0  0
   21.9201  -21.2656  -12.8747 C   0  0  0  0  0  0  0  0  0  0  0  0
   21.8312  -22.4557  -13.2973 O   0  0  0  0  0  0  0  0  0  0  0  0
   16.7190  -23.9293   -7.9457 N   0  0  0  0  0  0  0  0  0  0  0  0
   28.6437  -19.5911  -16.6784 C   0  0  0  0  0  0  0  0  0  0  0  0
   28.0206  -20.8298  -16.3735 N   0  0  0  0  0  0  0  0  0  0  0  0
   28.1103  -21.7831  -17.2343 N   0  0  0  0  0  0  0  0  0  0  0  0
   27.3094  -21.0609  -15.1684 C   0  0  0  0  0  0  0  0  0  0  0  0
   27.1631  -20.0818  -14.1044 C   0  0  0  0  0  0  0  0  0  0  0  0
   26.3369  -20.5541  -12.9874 C   0  0  0  0  0  0  0  0  0  0  0  0
   25.1920  -21.4243  -13.1503 C   0  0  1  0  0  0  0  0  0  0  0  0
   24.2735  -21.8075  -12.0677 N   0  0  0  0  0  0  0  0  0  0  0  0
   23.1148  -20.8626  -12.2352 C   0  0  0  0  0  0  0  0  0  0  0  0
   24.7298  -21.4963  -10.6749 O   0  0  0  0  0  0  0  0  0  0  0  0
   24.1596  -20.4839   -9.9006 O   0  0  0  0  0  0  0  0  0  0  0  0
  2  3  1  0
  2  1  1  0
  3  4  1  6
  5  6  1  1
  5  3  1  0
  7  8  2  0
  7  5  1  0
  9 10  1  0
 10 12  1  0
 11 10  2  0
 12 13  1  0
 13 14  1  0
 14 15  1  0
 16 15  1  6
 16 18  1  0
 16 17  1  0
 17  7  1  0
 18 19  2  0
 20 21  1  0
 21 23  1  0
 21 22  2  0
 23 24  1  0
 24 25  1  0
 26 25  1  0
 27 26  1  6
 28 27  1  0
 28 18  1  0
 29 27  1  0
 30 29  1  0
 31 29  2  0
M  END
$$$$
