IRR.pdb
     RDKit          3D

 31 30  0  0  1  0  0  0  0  0999 V2000
   14.2091  -19.2255   -4.5141 C   0  0  0  0  0  0  0  0  0  0  0  0
   13.5697  -20.4492   -3.8909 C   0  0  0  0  0  0  0  0  0  0  0  0
   13.7145  -20.4839   -2.4042 C   0  0  2  0  0  0  0  0  0  0  0  0
   15.1920  -20.4408   -2.0819 C   0  0  0  0  0  0  0  0  0  0  0  0
   13.0133  -21.6276   -1.7399 C   0  0  2  0  0  0  0  0  0  0  0  0
   11.6118  -21.5695   -2.1711 N   0  0  0  0  0  0  0  0  0  0  0  0
   13.0752  -21.6288   -0.2846 C   0  0  0  0  0  0  0  0  0  0  0  0
   12.4622  -20.7659    0.3802 O   0  0  0  0  0  0  0  0  0  0  0  0
   16.1833  -25.9836    3.3974 N   0  0  0  0  0  0  0  0  0  0  0  0
   15.8480  -26.2148    4.7632 C   0  0  0  0  0  0  0  0  0  0  0  0
   16.7956  -26.5151    5.5892 N   0  0  0  0  0  0  0  0  0  0  0  0
   14.4850  -26.1051    5.1537 N   0  0  0  0  0  0  0  0  0  0  0  0
   13.5201  -25.7339    4.1519 C   0  0  0  0  0  0  0  0  0  0  0  0
   13.5958  -24.2451    3.8336 C   0  0  0  0  0  0  0  0  0  0  0  0
   13.7329  -24.0838    2.3538 C   0  0  0  0  0  0  0  0  0  0  0  0
   13.9006  -22.6768    1.8766 C   0  0  2  0  0  0  0  0  0  0  0  0
   13.8273  -22.6021    0.4135 N   0  0  0  0  0  0  0  0  0  0  0  0
   15.1552  -22.0285    2.3550 C   0  0  0  0  0  0  0  0  0  0  0  0
   16.2380  -22.1490    1.7102 O   0  0  0  0  0  0  0  0  0  0  0  0
   16.5673  -26.7628    6.5764 N   0  0  0  0  0  0  0  0  0  0  0  0
   16.6990  -14.0182    3.0069 C   0  0  0  0  0  0  0  0  0  0  0  0
   16.7197  -15.1914    2.2078 N   0  0  0  0  0  0  0  0  0  0  0  0
   16.6504  -15.0569    0.9292 N   0  0  0  0  0  0  0  0  0  0  0  0
   16.8140  -16.4968    2.7542 C   0  0  0  0  0  0  0  0  0  0  0  0
   16.9389  -16.7821    4.1738 C   0  0  0  0  0  0  0  0  0  0  0  0
   17.0824  -18.2122    4.4703 C   0  0  0  0  0  0  0  0  0  0  0  0
   16.3083  -19.2467    3.8184 C   0  0  1  0  0  0  0  0  0  0  0  0
   16.4289  -20.6845    4.1028 N   0  0  0  0  0  0  0  0  0  0  0  0
   15.1578  -21.2638    3.5442 C   0  0  0  0  0  0  0  0  0  0  0  0
   16.3437  -21.0807    5.5452 O   0  0  0  0  0  0  0  0  0  0  0  0
   15.1478  -21.4650    6.1548 O   0  0  0  0  0  0  0  0  0  0  0  0
  2  3  1  0
  2  1  1  0
  3  4  1  6
  5  6  1  1
  5  3  1  0
  7  8  2  0
  7  5  1  0
  9 10  1  0
 10 12  1  0
 11 10  2  0
 12 13  1  0
 13 14  1  0
 14 15  1  0
 16 15  1  6
 16 18  1  0
 16 17  1  0
 17  7  1  0
 18 19  2  0
 20 21  1  0
 21 23  1  0
 21 22  2  0
 23 24  1  0
 24 25  1  0
 26 25  1  0
 27 26  1  6
 28 27  1  0
 28 18  1  0
 29 27  1  0
 30 29  1  0
 31 29  2  0
M  END
$$$$
