IRR.pdb
     RDKit          3D

 31 30  0  0  1  0  0  0  0  0999 V2000
   10.8849  -20.5629   -1.8193 C   0  0  0  0  0  0  0  0  0  0  0  0
   11.8012  -20.5421   -3.0255 C   0  0  0  0  0  0  0  0  0  0  0  0
   12.3250  -21.8965   -3.3774 C   0  0  2  0  0  0  0  0  0  0  0  0
   13.0595  -22.4368   -2.1701 C   0  0  0  0  0  0  0  0  0  0  0  0
   13.1560  -21.9352   -4.6219 C   0  0  2  0  0  0  0  0  0  0  0  0
   12.2760  -21.5402   -5.7280 N   0  0  0  0  0  0  0  0  0  0  0  0
   13.7628  -23.2255   -4.9197 C   0  0  0  0  0  0  0  0  0  0  0  0
   13.0840  -24.2743   -4.8768 O   0  0  0  0  0  0  0  0  0  0  0  0
   19.1401  -25.8373  -10.9738 N   0  0  0  0  0  0  0  0  0  0  0  0
   19.1169  -27.0274  -10.1898 C   0  0  0  0  0  0  0  0  0  0  0  0
   19.6235  -28.1061  -10.6900 N   0  0  0  0  0  0  0  0  0  0  0  0
   18.5363  -26.9726   -8.8929 N   0  0  0  0  0  0  0  0  0  0  0  0
   17.8733  -25.7575   -8.4972 C   0  0  0  0  0  0  0  0  0  0  0  0
   17.2613  -25.8870   -7.1071 C   0  0  0  0  0  0  0  0  0  0  0  0
   16.5247  -24.6243   -6.7947 C   0  0  0  0  0  0  0  0  0  0  0  0
   15.8232  -24.6030   -5.4746 C   0  0  2  0  0  0  0  0  0  0  0  0
   15.1308  -23.3270   -5.2640 N   0  0  0  0  0  0  0  0  0  0  0  0
   16.7177  -24.8914   -4.3171 C   0  0  0  0  0  0  0  0  0  0  0  0
   17.6111  -24.0674   -3.9627 O   0  0  0  0  0  0  0  0  0  0  0  0
   19.6186  -28.9897  -10.1357 N   0  0  0  0  0  0  0  0  0  0  0  0
   14.6931  -29.9255    2.8843 C   0  0  0  0  0  0  0  0  0  0  0  0
   16.1043  -29.9255    2.7289 N   0  0  0  0  0  0  0  0  0  0  0  0
   16.8086  -30.5948    3.5737 N   0  0  0  0  0  0  0  0  0  0  0  0
   16.7669  -29.2252    1.6887 C   0  0  0  0  0  0  0  0  0  0  0  0
   16.0888  -28.5703    0.5825 C   0  0  0  0  0  0  0  0  0  0  0  0
   17.0042  -27.8943   -0.3440 C   0  0  0  0  0  0  0  0  0  0  0  0
   16.5632  -27.1437   -1.5002 C   0  0  1  0  0  0  0  0  0  0  0  0
   17.4547  -26.3996   -2.4026 N   0  0  0  0  0  0  0  0  0  0  0  0
   16.5833  -26.0971   -3.5911 C   0  0  0  0  0  0  0  0  0  0  0  0
   18.5680  -27.1855   -3.0252 O   0  0  0  0  0  0  0  0  0  0  0  0
   18.3701  -28.0602   -4.0954 O   0  0  0  0  0  0  0  0  0  0  0  0
  2  3  1  0
  2  1  1  0
  3  4  1  1
  5  6  1  6
  5  3  1  0
  7  8  2  0
  7  5  1  0
  9 10  1  0
 10 12  1  0
 11 10  2  0
 12 13  1  0
 13 14  1  0
 14 15  1  0
 16 15  1  6
 16 18  1  0
 16 17  1  0
 17  7  1  0
 18 19  2  0
 20 21  1  0
 21 23  1  0
 21 22  2  0
 23 24  1  0
 24 25  1  0
 26 25  1  0
 27 26  1  1
 28 27  1  0
 28 18  1  0
 29 27  1  0
 30 29  1  0
 31 29  2  0
M  END
$$$$
