IRR.pdb
     RDKit          3D

 31 30  0  0  1  0  0  0  0  0999 V2000
   18.7175  -28.0886  -13.4996 C   0  0  0  0  0  0  0  0  0  0  0  0
   19.8451  -27.6701  -14.4207 C   0  0  0  0  0  0  0  0  0  0  0  0
   20.3672  -26.3045  -14.1125 C   0  0  2  0  0  0  0  0  0  0  0  0
   19.8694  -25.3648  -15.1886 C   0  0  0  0  0  0  0  0  0  0  0  0
   21.8512  -26.2355  -13.9290 C   0  0  2  0  0  0  0  0  0  0  0  0
   22.1744  -27.0965  -12.7855 N   0  0  0  0  0  0  0  0  0  0  0  0
   22.3837  -24.8994  -13.6981 C   0  0  0  0  0  0  0  0  0  0  0  0
   22.0949  -24.2691  -12.6580 O   0  0  0  0  0  0  0  0  0  0  0  0
   29.2776  -21.8821  -17.4176 N   0  0  0  0  0  0  0  0  0  0  0  0
   28.8919  -22.8622  -16.4574 C   0  0  0  0  0  0  0  0  0  0  0  0
   29.6695  -23.8764  -16.2638 N   0  0  0  0  0  0  0  0  0  0  0  0
   27.6681  -22.6788  -15.7568 N   0  0  0  0  0  0  0  0  0  0  0  0
   26.9908  -21.4159  -15.8936 C   0  0  0  0  0  0  0  0  0  0  0  0
   25.6812  -21.4016  -15.1136 C   0  0  0  0  0  0  0  0  0  0  0  0
   25.0273  -22.7376  -15.2618 C   0  0  0  0  0  0  0  0  0  0  0  0
   23.7570  -22.9167  -14.4939 C   0  0  2  0  0  0  0  0  0  0  0  0
   23.2383  -24.2810  -14.6402 N   0  0  0  0  0  0  0  0  0  0  0  0
   22.6976  -21.9305  -14.8519 C   0  0  0  0  0  0  0  0  0  0  0  0
   22.0138  -22.0634  -15.9091 O   0  0  0  0  0  0  0  0  0  0  0  0
   29.3875  -24.6299  -15.6001 N   0  0  0  0  0  0  0  0  0  0  0  0
   18.3040  -21.6018  -11.4651 C   0  0  0  0  0  0  0  0  0  0  0  0
   18.5046  -20.9986  -10.1956 N   0  0  0  0  0  0  0  0  0  0  0  0
   17.6043  -21.1719   -9.2916 N   0  0  0  0  0  0  0  0  0  0  0  0
   19.6475  -20.2194   -9.8825 C   0  0  0  0  0  0  0  0  0  0  0  0
   20.7508  -19.9812  -10.7979 C   0  0  0  0  0  0  0  0  0  0  0  0
   20.3460  -19.3018  -12.0341 C   0  0  0  0  0  0  0  0  0  0  0  0
   21.2542  -19.0126  -13.1231 C   0  0  2  0  0  0  0  0  0  0  0  0
   21.3709  -19.8161  -14.3492 N   0  0  0  0  0  0  0  0  0  0  0  0
   22.4367  -20.8232  -14.0125 C   0  0  0  0  0  0  0  0  0  0  0  0
   21.9627  -19.1226  -15.5382 O   0  0  0  0  0  0  0  0  0  0  0  0
   21.1858  -18.4694  -16.4970 O   0  0  0  0  0  0  0  0  0  0  0  0
  2  3  1  0
  2  1  1  0
  3  4  1  6
  5  6  1  1
  5  3  1  0
  7  8  2  0
  7  5  1  0
  9 10  1  0
 10 12  1  0
 11 10  2  0
 12 13  1  0
 13 14  1  0
 14 15  1  0
 16 15  1  6
 16 18  1  0
 16 17  1  0
 17  7  1  0
 18 19  2  0
 20 21  1  0
 21 23  1  0
 21 22  2  0
 23 24  1  0
 24 25  1  0
 26 25  1  0
 27 26  1  1
 28 27  1  0
 28 18  1  0
 29 27  1  0
 30 29  1  0
 31 29  2  0
M  END
$$$$
