IRR.pdb
     RDKit          3D

 31 30  0  0  1  0  0  0  0  0999 V2000
   27.4707  -19.3744   -3.8273 C   0  0  0  0  0  0  0  0  0  0  0  0
   28.1503  -20.4205   -4.6867 C   0  0  0  0  0  0  0  0  0  0  0  0
   28.0501  -20.1232   -6.1476 C   0  0  2  0  0  0  0  0  0  0  0  0
   28.8971  -18.9021   -6.4306 C   0  0  0  0  0  0  0  0  0  0  0  0
   26.6493  -19.9831   -6.6566 C   0  0  2  0  0  0  0  0  0  0  0  0
   25.9739  -21.2577   -6.3866 N   0  0  0  0  0  0  0  0  0  0  0  0
   26.5359  -19.6628   -8.0731 C   0  0  0  0  0  0  0  0  0  0  0  0
   26.7283  -18.4968   -8.4804 O   0  0  0  0  0  0  0  0  0  0  0  0
   30.6165  -22.6010  -13.1913 N   0  0  0  0  0  0  0  0  0  0  0  0
   29.4675  -22.0169  -13.7995 C   0  0  0  0  0  0  0  0  0  0  0  0
   29.0346  -22.5180  -14.9095 N   0  0  0  0  0  0  0  0  0  0  0  0
   28.8507  -20.9086  -13.1567 N   0  0  0  0  0  0  0  0  0  0  0  0
   29.2176  -20.6245  -11.7939 C   0  0  0  0  0  0  0  0  0  0  0  0
   28.2993  -21.3419  -10.8112 C   0  0  0  0  0  0  0  0  0  0  0  0
   26.8923  -21.2162  -11.3000 C   0  0  0  0  0  0  0  0  0  0  0  0
   25.9911  -20.3819  -10.4472 C   0  0  2  0  0  0  0  0  0  0  0  0
   26.2063  -20.6578   -9.0226 N   0  0  0  0  0  0  0  0  0  0  0  0
   24.5454  -20.5317  -10.7798 C   0  0  0  0  0  0  0  0  0  0  0  0
   23.8657  -21.4930  -10.3144 O   0  0  0  0  0  0  0  0  0  0  0  0
   28.2599  -22.0481  -15.4263 N   0  0  0  0  0  0  0  0  0  0  0  0
   22.9747  -24.4446  -16.2652 C   0  0  0  0  0  0  0  0  0  0  0  0
   21.9269  -23.4882  -16.3202 N   0  0  0  0  0  0  0  0  0  0  0  0
   20.7729  -23.8749  -16.7403 N   0  0  0  0  0  0  0  0  0  0  0  0
   22.0957  -22.1342  -15.9335 C   0  0  0  0  0  0  0  0  0  0  0  0
   23.3239  -21.5886  -15.3803 C   0  0  0  0  0  0  0  0  0  0  0  0
   23.2285  -21.2710  -13.9508 C   0  0  0  0  0  0  0  0  0  0  0  0
   22.5151  -20.1240  -13.4313 C   0  0  1  0  0  0  0  0  0  0  0  0
   22.4581  -19.7493  -12.0104 N   0  0  0  0  0  0  0  0  0  0  0  0
   23.9046  -19.5976  -11.6258 C   0  0  0  0  0  0  0  0  0  0  0  0
   21.9952  -20.8158  -11.0654 O   0  0  0  0  0  0  0  0  0  0  0  0
   20.6723  -20.9193  -10.6309 O   0  0  0  0  0  0  0  0  0  0  0  0
  2  3  1  0
  2  1  1  0
  3  4  1  1
  5  6  1  6
  5  3  1  0
  7  8  2  0
  7  5  1  0
  9 10  1  0
 10 12  1  0
 11 10  2  0
 12 13  1  0
 13 14  1  0
 14 15  1  0
 16 15  1  6
 16 18  1  0
 16 17  1  0
 17  7  1  0
 18 19  2  0
 20 21  1  0
 21 23  1  0
 21 22  2  0
 23 24  1  0
 24 25  1  0
 26 25  1  0
 27 26  1  6
 28 27  1  0
 28 18  1  0
 29 27  1  0
 30 29  1  0
 31 29  2  0
M  END
$$$$
