IRR.pdb
     RDKit          3D

 31 30  0  0  1  0  0  0  0  0999 V2000
   28.3462  -11.7683  -18.1309 C   0  0  0  0  0  0  0  0  0  0  0  0
   27.1568  -12.5742  -18.6113 C   0  0  0  0  0  0  0  0  0  0  0  0
   26.7564  -13.6445  -17.6486 C   0  0  2  0  0  0  0  0  0  0  0  0
   27.9970  -14.4332  -17.2911 C   0  0  0  0  0  0  0  0  0  0  0  0
   25.6362  -14.5168  -18.1229 C   0  0  2  0  0  0  0  0  0  0  0  0
   24.5019  -13.6293  -18.4046 N   0  0  0  0  0  0  0  0  0  0  0  0
   25.2221  -15.5538  -17.1874 C   0  0  0  0  0  0  0  0  0  0  0  0
   24.6346  -15.2562  -16.1250 O   0  0  0  0  0  0  0  0  0  0  0  0
   23.7426  -22.0843  -16.3584 N   0  0  0  0  0  0  0  0  0  0  0  0
   24.2878  -22.8248  -17.4474 C   0  0  0  0  0  0  0  0  0  0  0  0
   24.7382  -24.0148  -17.2207 N   0  0  0  0  0  0  0  0  0  0  0  0
   24.3114  -22.2189  -18.7337 N   0  0  0  0  0  0  0  0  0  0  0  0
   23.9023  -20.8430  -18.8431 C   0  0  0  0  0  0  0  0  0  0  0  0
   24.9265  -19.9078  -18.2106 C   0  0  0  0  0  0  0  0  0  0  0  0
   24.2163  -19.0059  -17.2531 C   0  0  0  0  0  0  0  0  0  0  0  0
   25.0820  -18.0087  -16.5518 C   0  0  2  0  0  0  0  0  0  0  0  0
   25.4724  -16.9200  -17.4541 N   0  0  0  0  0  0  0  0  0  0  0  0
   26.2950  -18.6065  -15.9240 C   0  0  0  0  0  0  0  0  0  0  0  0
   27.2429  -19.0542  -16.6338 O   0  0  0  0  0  0  0  0  0  0  0  0
   25.1167  -24.5871  -18.0063 N   0  0  0  0  0  0  0  0  0  0  0  0
   24.3486  -21.1345   -8.1356 C   0  0  0  0  0  0  0  0  0  0  0  0
   24.0486  -21.1703   -9.5227 N   0  0  0  0  0  0  0  0  0  0  0  0
   22.8180  -21.3096   -9.8748 N   0  0  0  0  0  0  0  0  0  0  0  0
   25.0400  -21.0585  -10.5308 C   0  0  0  0  0  0  0  0  0  0  0  0
   26.4602  -20.8985  -10.2669 C   0  0  0  0  0  0  0  0  0  0  0  0
   27.2540  -20.6556  -11.4770 C   0  0  0  0  0  0  0  0  0  0  0  0
   26.9446  -19.6241  -12.4439 C   0  0  1  0  0  0  0  0  0  0  0  0
   27.3491  -19.6561  -13.8575 N   0  0  0  0  0  0  0  0  0  0  0  0
   26.4086  -18.6845  -14.5169 C   0  0  0  0  0  0  0  0  0  0  0  0
   27.0557  -20.9247  -14.5986 O   0  0  0  0  0  0  0  0  0  0  0  0
   25.7794  -21.2539  -15.0591 O   0  0  0  0  0  0  0  0  0  0  0  0
  2  3  1  0
  2  1  1  0
  3  4  1  6
  5  6  1  1
  5  3  1  0
  7  8  2  0
  7  5  1  0
  9 10  1  0
 10 12  1  0
 11 10  2  0
 12 13  1  0
 13 14  1  0
 14 15  1  0
 16 15  1  6
 16 18  1  0
 16 17  1  0
 17  7  1  0
 18 19  2  0
 20 21  1  0
 21 23  1  0
 21 22  2  0
 23 24  1  0
 24 25  1  0
 26 25  1  0
 27 26  1  1
 28 27  1  0
 28 18  1  0
 29 27  1  0
 30 29  1  0
 31 29  2  0
M  END
$$$$
