IRR.pdb
     RDKit          3D

 31 30  0  0  1  0  0  0  0  0999 V2000
   27.9536  -17.1237  -18.7724 C   0  0  0  0  0  0  0  0  0  0  0  0
   28.8324  -17.6780  -17.6700 C   0  0  0  0  0  0  0  0  0  0  0  0
   28.1505  -18.7342  -16.8626 C   0  0  2  0  0  0  0  0  0  0  0  0
   27.9891  -19.9558  -17.7404 C   0  0  0  0  0  0  0  0  0  0  0  0
   26.8616  -18.3003  -16.2371 C   0  0  2  0  0  0  0  0  0  0  0  0
   27.1821  -17.1770  -15.3487 N   0  0  0  0  0  0  0  0  0  0  0  0
   26.1623  -19.3324  -15.4836 C   0  0  0  0  0  0  0  0  0  0  0  0
   25.6432  -20.3075  -16.0686 O   0  0  0  0  0  0  0  0  0  0  0  0
   26.1716  -19.6742   -7.6933 N   0  0  0  0  0  0  0  0  0  0  0  0
   25.4949  -20.8283   -8.1847 C   0  0  0  0  0  0  0  0  0  0  0  0
   24.4675  -21.2656   -7.5338 N   0  0  0  0  0  0  0  0  0  0  0  0
   25.9826  -21.4460   -9.3691 N   0  0  0  0  0  0  0  0  0  0  0  0
   27.0896  -20.8272  -10.0505 C   0  0  0  0  0  0  0  0  0  0  0  0
   26.8747  -20.8143  -11.5596 C   0  0  0  0  0  0  0  0  0  0  0  0
   25.5727  -20.1384  -11.8466 C   0  0  0  0  0  0  0  0  0  0  0  0
   25.1648  -20.1204  -13.2849 C   0  0  2  0  0  0  0  0  0  0  0  0
   26.0516  -19.2600  -14.0755 N   0  0  0  0  0  0  0  0  0  0  0  0
   23.7451  -19.7182  -13.4990 C   0  0  0  0  0  0  0  0  0  0  0  0
   23.4321  -18.5057  -13.6848 O   0  0  0  0  0  0  0  0  0  0  0  0
   23.9667  -22.1192   -7.8630 N   0  0  0  0  0  0  0  0  0  0  0  0
   20.0491  -15.9068  -17.6192 C   0  0  0  0  0  0  0  0  0  0  0  0
   21.3348  -16.4523  -17.8740 N   0  0  0  0  0  0  0  0  0  0  0  0
   22.2832  -15.6452  -18.2011 N   0  0  0  0  0  0  0  0  0  0  0  0
   21.6176  -17.8391  -17.7831 C   0  0  0  0  0  0  0  0  0  0  0  0
   20.6300  -18.8558  -17.4620 C   0  0  0  0  0  0  0  0  0  0  0  0
   20.5229  -19.1308  -16.0245 C   0  0  0  0  0  0  0  0  0  0  0  0
   21.3981  -20.0398  -15.3158 C   0  0  2  0  0  0  0  0  0  0  0  0
   21.3051  -20.3389  -13.8789 N   0  0  0  0  0  0  0  0  0  0  0  0
   22.7176  -20.6894  -13.4980 C   0  0  0  0  0  0  0  0  0  0  0  0
   20.5647  -21.5888  -13.5122 O   0  0  0  0  0  0  0  0  0  0  0  0
   19.2031  -21.5984  -13.2034 O   0  0  0  0  0  0  0  0  0  0  0  0
  2  3  1  0
  2  1  1  0
  3  4  1  6
  5  6  1  1
  5  3  1  0
  7  8  2  0
  7  5  1  0
  9 10  1  0
 10 12  1  0
 11 10  2  0
 12 13  1  0
 13 14  1  0
 14 15  1  0
 16 15  1  1
 16 18  1  0
 16 17  1  0
 17  7  1  0
 18 19  2  0
 20 21  1  0
 21 23  1  0
 21 22  2  0
 23 24  1  0
 24 25  1  0
 26 25  1  0
 27 26  1  1
 28 27  1  0
 28 18  1  0
 29 27  1  0
 30 29  1  0
 31 29  2  0
M  END
$$$$
