IRR.pdb
     RDKit          3D

 31 30  0  0  1  0  0  0  0  0999 V2000
   30.7427  -28.5543  -17.5174 C   0  0  0  0  0  0  0  0  0  0  0  0
   29.7022  -27.6373  -18.1266 C   0  0  0  0  0  0  0  0  0  0  0  0
   28.9561  -26.8470  -17.1013 C   0  0  2  0  0  0  0  0  0  0  0  0
   28.3447  -27.8225  -16.1198 C   0  0  0  0  0  0  0  0  0  0  0  0
   27.9510  -25.8921  -17.6660 C   0  0  2  0  0  0  0  0  0  0  0  0
   28.6704  -25.0386  -18.6188 N   0  0  0  0  0  0  0  0  0  0  0  0
   27.2707  -25.0589  -16.6837 C   0  0  0  0  0  0  0  0  0  0  0  0
   26.5954  -25.5758  -15.7676 O   0  0  0  0  0  0  0  0  0  0  0  0
   23.5382  -17.4309  -16.5123 N   0  0  0  0  0  0  0  0  0  0  0  0
   23.4143  -18.3073  -15.3952 C   0  0  0  0  0  0  0  0  0  0  0  0
   22.2364  -18.5268  -14.9104 N   0  0  0  0  0  0  0  0  0  0  0  0
   24.5935  -18.8993  -14.8650 N   0  0  0  0  0  0  0  0  0  0  0  0
   25.3187  -19.8265  -15.6937 C   0  0  0  0  0  0  0  0  0  0  0  0
   26.5426  -20.3769  -14.9705 C   0  0  0  0  0  0  0  0  0  0  0  0
   27.2119  -21.3720  -15.8628 C   0  0  0  0  0  0  0  0  0  0  0  0
   26.6453  -22.7549  -15.8169 C   0  0  2  0  0  0  0  0  0  0  0  0
   27.3550  -23.6481  -16.7391 N   0  0  0  0  0  0  0  0  0  0  0  0
   25.1797  -22.8100  -16.0850 C   0  0  0  0  0  0  0  0  0  0  0  0
   24.7182  -22.5631  -17.2378 O   0  0  0  0  0  0  0  0  0  0  0  0
   22.1001  -19.2660  -14.1872 N   0  0  0  0  0  0  0  0  0  0  0  0
   20.0098  -27.1149  -10.5156 C   0  0  0  0  0  0  0  0  0  0  0  0
   20.9161  -27.3931  -11.5723 N   0  0  0  0  0  0  0  0  0  0  0  0
   21.5864  -28.4914  -11.5246 N   0  0  0  0  0  0  0  0  0  0  0  0
   21.1124  -26.5191  -12.6719 C   0  0  0  0  0  0  0  0  0  0  0  0
   20.4694  -25.2233  -12.8117 C   0  0  0  0  0  0  0  0  0  0  0  0
   20.9364  -24.4637  -13.9772 C   0  0  0  0  0  0  0  0  0  0  0  0
   22.3121  -24.0577  -14.1695 C   0  0  2  0  0  0  0  0  0  0  0  0
   22.7976  -23.2657  -15.3095 N   0  0  0  0  0  0  0  0  0  0  0  0
   24.2743  -23.1406  -15.0507 C   0  0  0  0  0  0  0  0  0  0  0  0
   22.3659  -21.8314  -15.3474 O   0  0  0  0  0  0  0  0  0  0  0  0
   22.8656  -20.8676  -14.4693 O   0  0  0  0  0  0  0  0  0  0  0  0
  2  3  1  0
  2  1  1  0
  3  4  1  1
  5  6  1  6
  5  3  1  0
  7  8  2  0
  7  5  1  0
  9 10  1  0
 10 12  1  0
 11 10  2  0
 12 13  1  0
 13 14  1  0
 14 15  1  0
 16 15  1  6
 16 18  1  0
 16 17  1  0
 17  7  1  0
 18 19  2  0
 20 21  1  0
 21 23  1  0
 21 22  2  0
 23 24  1  0
 24 25  1  0
 26 25  1  0
 27 26  1  6
 28 27  1  0
 28 18  1  0
 29 27  1  0
 30 29  1  0
 31 29  2  0
M  END
$$$$
