IRR.pdb
     RDKit          3D

 31 30  0  0  1  0  0  0  0  0999 V2000
   28.0438  -19.1913  -14.0878 C   0  0  0  0  0  0  0  0  0  0  0  0
   27.3433  -19.7950  -12.8879 C   0  0  0  0  0  0  0  0  0  0  0  0
   26.0724  -20.4921  -13.2502 C   0  0  2  0  0  0  0  0  0  0  0  0
   25.2527  -19.5475  -14.1014 C   0  0  0  0  0  0  0  0  0  0  0  0
   25.3048  -21.0277  -12.0819 C   0  0  2  0  0  0  0  0  0  0  0  0
   26.2204  -21.9052  -11.3434 N   0  0  0  0  0  0  0  0  0  0  0  0
   24.0946  -21.7633  -12.4227 C   0  0  0  0  0  0  0  0  0  0  0  0
   24.1608  -22.8496  -13.0375 O   0  0  0  0  0  0  0  0  0  0  0  0
   19.2900  -23.4998   -8.1360 N   0  0  0  0  0  0  0  0  0  0  0  0
   18.0806  -23.7800   -8.8361 C   0  0  0  0  0  0  0  0  0  0  0  0
   16.9591  -23.6535   -8.2062 N   0  0  0  0  0  0  0  0  0  0  0  0
   18.1642  -24.1867  -10.1962 N   0  0  0  0  0  0  0  0  0  0  0  0
   19.3330  -23.8084  -10.9467 C   0  0  0  0  0  0  0  0  0  0  0  0
   19.2264  -22.3749  -11.4541 C   0  0  0  0  0  0  0  0  0  0  0  0
   20.5506  -21.7070  -11.2673 C   0  0  0  0  0  0  0  0  0  0  0  0
   21.5674  -21.9956  -12.3248 C   0  0  2  0  0  0  0  0  0  0  0  0
   22.8168  -21.2708  -12.0691 N   0  0  0  0  0  0  0  0  0  0  0  0
   21.0895  -21.7100  -13.7079 C   0  0  0  0  0  0  0  0  0  0  0  0
   20.0100  -22.2100  -14.1408 O   0  0  0  0  0  0  0  0  0  0  0  0
   16.0705  -23.9616   -8.6572 N   0  0  0  0  0  0  0  0  0  0  0  0
   26.1482  -23.8849  -16.8524 C   0  0  0  0  0  0  0  0  0  0  0  0
   25.1945  -24.9353  -16.8012 N   0  0  0  0  0  0  0  0  0  0  0  0
   25.5681  -26.0726  -16.3270 N   0  0  0  0  0  0  0  0  0  0  0  0
   23.8561  -24.7860  -17.2460 C   0  0  0  0  0  0  0  0  0  0  0  0
   23.2561  -23.5168  -17.6221 C   0  0  0  0  0  0  0  0  0  0  0  0
   23.3622  -22.4902  -16.5790 C   0  0  0  0  0  0  0  0  0  0  0  0
   22.7708  -21.1738  -16.6880 C   0  0  1  0  0  0  0  0  0  0  0  0
   21.5205  -20.7630  -16.0318 N   0  0  0  0  0  0  0  0  0  0  0  0
   21.8380  -20.8712  -14.5653 C   0  0  0  0  0  0  0  0  0  0  0  0
   20.3632  -21.7046  -16.1699 O   0  0  0  0  0  0  0  0  0  0  0  0
   19.4275  -21.6070  -17.2016 O   0  0  0  0  0  0  0  0  0  0  0  0
  2  3  1  0
  2  1  1  0
  3  4  1  1
  5  6  1  6
  5  3  1  0
  7  8  2  0
  7  5  1  0
  9 10  1  0
 10 12  1  0
 11 10  2  0
 12 13  1  0
 13 14  1  0
 14 15  1  0
 16 15  1  1
 16 18  1  0
 16 17  1  0
 17  7  1  0
 18 19  2  0
 20 21  1  0
 21 23  1  0
 21 22  2  0
 23 24  1  0
 24 25  1  0
 26 25  1  0
 27 26  1  1
 28 27  1  0
 28 18  1  0
 29 27  1  0
 30 29  1  0
 31 29  2  0
M  END
$$$$
