NGE.pdb
     RDKit          3D

 22 21  0  0  1  0  0  0  0  0999 V2000
   11.5630   -9.1474   -8.9100 N   0  0  0  0  0  0  0  0  0  0  0  0
   11.9770   -8.1064   -8.0401 C   0  0  0  0  0  0  0  0  0  0  0  0
   11.1625   -7.6697   -7.2065 O   0  0  0  0  0  0  0  0  0  0  0  0
   13.3578   -7.5860   -8.1626 C   0  0  0  0  0  0  0  0  0  0  0  0
   14.1482   -8.3857   -9.1590 C   0  0  2  0  0  0  0  0  0  0  0  0
   14.6301   -9.5929   -8.5556 N   0  0  0  0  0  0  0  0  0  0  0  0
   15.2953   -7.5333   -9.6401 C   0  0  0  0  0  0  0  0  0  0  0  0
   15.0758   -6.4805  -10.2919 O   0  0  0  0  0  0  0  0  0  0  0  0
   16.6379   -7.8902   -9.3749 N   0  0  0  0  0  0  0  0  0  0  0  0
   17.7831   -7.1124   -9.7713 C   0  0  0  0  0  0  0  0  0  0  0  0
   18.2229   -7.3133  -11.1585 C   0  0  0  0  0  0  0  0  0  0  0  0
   18.0859   -8.4677  -11.6956 O   0  0  0  0  0  0  0  0  0  0  0  0
   18.7980   -6.3400  -11.9937 N   0  0  0  0  0  0  0  0  0  0  0  0
   19.1987   -6.6258  -13.3763 C   0  0  1  0  0  0  0  0  0  0  0  0
   18.8492   -5.4459  -14.2042 C   0  0  0  0  0  0  0  0  0  0  0  0
   17.3972   -5.1659  -14.3820 C   0  0  0  0  0  0  0  0  0  0  0  0
   17.1211   -3.8576  -14.9839 C   0  0  0  0  0  0  0  0  0  0  0  0
   18.1079   -3.0975  -15.2592 O   0  0  0  0  0  0  0  0  0  0  0  0
   20.6352   -6.9842  -13.4329 C   0  0  0  0  0  0  0  0  0  0  0  0
   21.1732   -7.3126  -14.5172 O   0  0  0  0  0  0  0  0  0  0  0  0
   15.8488   -3.3950  -15.2729 O   0  0  0  0  0  0  0  0  0  0  0  0
   21.4505   -6.9753  -12.3022 O   0  0  0  0  0  0  0  0  0  0  0  0
  1  2  1  0
  2  3  2  0
  4  2  1  0
  5  6  1  1
  5  4  1  0
  7  5  1  0
  8  7  2  0
  9  7  1  0
 10 11  1  0
 10  9  1  0
 11 13  1  0
 12 11  2  0
 13 14  1  0
 14 19  1  0
 14 15  1  6
 15 16  1  0
 16 17  1  0
 17 21  1  0
 18 17  2  0
 19 20  2  0
 19 22  1  0
M  END
$$$$
