NGE.pdb
     RDKit          3D

 22 21  0  0  1  0  0  0  0  0999 V2000
   16.3617  -13.1840  -16.4961 N   0  0  0  0  0  0  0  0  0  0  0  0
   17.6059  -13.8130  -16.2352 C   0  0  0  0  0  0  0  0  0  0  0  0
   17.6259  -15.0474  -16.0776 O   0  0  0  0  0  0  0  0  0  0  0  0
   18.8238  -12.9742  -16.1617 C   0  0  0  0  0  0  0  0  0  0  0  0
   18.4930  -11.5246  -16.3762 C   0  0  2  0  0  0  0  0  0  0  0  0
   18.8826  -11.1166  -17.6936 N   0  0  0  0  0  0  0  0  0  0  0  0
   19.2197  -10.7179  -15.3298 C   0  0  0  0  0  0  0  0  0  0  0  0
   18.9745  -10.8920  -14.1087 O   0  0  0  0  0  0  0  0  0  0  0  0
   20.1881   -9.7515  -15.6881 N   0  0  0  0  0  0  0  0  0  0  0  0
   21.0041   -9.0262  -14.7491 C   0  0  0  0  0  0  0  0  0  0  0  0
   21.2163   -7.6089  -15.0726 C   0  0  0  0  0  0  0  0  0  0  0  0
   21.5861   -7.2875  -16.2557 O   0  0  0  0  0  0  0  0  0  0  0  0
   21.0499   -6.5253  -14.1931 N   0  0  0  0  0  0  0  0  0  0  0  0
   21.3122   -5.1381  -14.5940 C   0  0  1  0  0  0  0  0  0  0  0  0
   20.0401   -4.3839  -14.4811 C   0  0  0  0  0  0  0  0  0  0  0  0
   18.9063   -4.8646  -15.3189 C   0  0  0  0  0  0  0  0  0  0  0  0
   17.6634   -4.1152  -15.1103 C   0  0  0  0  0  0  0  0  0  0  0  0
   17.7156   -3.0303  -14.4414 O   0  0  0  0  0  0  0  0  0  0  0  0
   22.4131   -4.5668  -13.7835 C   0  0  0  0  0  0  0  0  0  0  0  0
   22.9069   -3.4494  -14.0673 O   0  0  0  0  0  0  0  0  0  0  0  0
   16.4309   -4.5155  -15.5974 O   0  0  0  0  0  0  0  0  0  0  0  0
   22.9488   -5.2307  -12.6811 O   0  0  0  0  0  0  0  0  0  0  0  0
  1  2  1  0
  2  3  2  0
  4  2  1  0
  5  6  1  6
  5  4  1  0
  7  5  1  0
  8  7  2  0
  9  7  1  0
 10 11  1  0
 10  9  1  0
 11 13  1  0
 12 11  2  0
 13 14  1  0
 14 19  1  0
 14 15  1  1
 15 16  1  0
 16 17  1  0
 17 21  1  0
 18 17  2  0
 19 20  2  0
 19 22  1  0
M  END
$$$$
