NGE.pdb
     RDKit          3D

 22 21  0  0  1  0  0  0  0  0999 V2000
   12.7913  -13.0742  -11.3277 N   0  0  0  0  0  0  0  0  0  0  0  0
   12.3934  -11.8345  -10.7649 C   0  0  0  0  0  0  0  0  0  0  0  0
   11.2921  -11.7699  -10.1887 O   0  0  0  0  0  0  0  0  0  0  0  0
   13.3045  -10.6739  -10.8882 C   0  0  0  0  0  0  0  0  0  0  0  0
   14.5998  -11.0727  -11.5364 C   0  0  2  0  0  0  0  0  0  0  0  0
   15.6500  -11.1138  -10.5622 N   0  0  0  0  0  0  0  0  0  0  0  0
   14.9119  -10.0684  -12.6172 C   0  0  0  0  0  0  0  0  0  0  0  0
   14.1010   -9.8743  -13.5585 O   0  0  0  0  0  0  0  0  0  0  0  0
   16.1141   -9.3235  -12.6034 N   0  0  0  0  0  0  0  0  0  0  0  0
   16.4708   -8.3308  -13.5836 C   0  0  0  0  0  0  0  0  0  0  0  0
   17.7653   -7.6726  -13.3613 C   0  0  0  0  0  0  0  0  0  0  0  0
   18.1186   -7.3783  -12.1662 O   0  0  0  0  0  0  0  0  0  0  0  0
   18.6950   -7.3184  -14.3542 N   0  0  0  0  0  0  0  0  0  0  0  0
   20.0057   -6.7401  -14.0354 C   0  0  1  0  0  0  0  0  0  0  0  0
   21.0194   -7.8158  -14.1588 C   0  0  0  0  0  0  0  0  0  0  0  0
   20.9765   -8.6290  -15.4059 C   0  0  0  0  0  0  0  0  0  0  0  0
   22.0358   -9.6399  -15.4840 C   0  0  0  0  0  0  0  0  0  0  0  0
   21.7001  -10.8706  -15.4736 O   0  0  0  0  0  0  0  0  0  0  0  0
   20.2767   -5.5690  -14.9016 C   0  0  0  0  0  0  0  0  0  0  0  0
   21.2833   -4.8463  -14.7085 O   0  0  0  0  0  0  0  0  0  0  0  0
   23.3843   -9.3386  -15.5688 O   0  0  0  0  0  0  0  0  0  0  0  0
   19.4405   -5.2152  -15.9594 O   0  0  0  0  0  0  0  0  0  0  0  0
  1  2  1  0
  2  3  2  0
  4  2  1  0
  5  6  1  1
  5  4  1  0
  7  5  1  0
  8  7  2  0
  9  7  1  0
 10 11  1  0
 10  9  1  0
 11 13  1  0
 12 11  2  0
 13 14  1  0
 14 19  1  0
 14 15  1  6
 15 16  1  0
 16 17  1  0
 17 21  1  0
 18 17  2  0
 19 20  2  0
 19 22  1  0
M  END
$$$$
