NGE.pdb
     RDKit          3D

 22 21  0  0  1  0  0  0  0  0999 V2000
   30.3620  -21.4059   -9.7873 N   0  0  0  0  0  0  0  0  0  0  0  0
   29.0773  -20.8175   -9.6644 C   0  0  0  0  0  0  0  0  0  0  0  0
   28.6110  -20.6421   -8.5239 O   0  0  0  0  0  0  0  0  0  0  0  0
   28.3490  -20.4391  -10.8967 C   0  0  0  0  0  0  0  0  0  0  0  0
   26.9067  -20.8522  -10.8182 C   0  0  2  0  0  0  0  0  0  0  0  0
   26.8069  -22.2611  -10.5759 N   0  0  0  0  0  0  0  0  0  0  0  0
   26.2422  -20.4851  -12.1211 C   0  0  0  0  0  0  0  0  0  0  0  0
   26.3558  -19.3229  -12.5878 O   0  0  0  0  0  0  0  0  0  0  0  0
   25.4793  -21.4282  -12.8483 N   0  0  0  0  0  0  0  0  0  0  0  0
   24.7758  -21.1404  -14.0714 C   0  0  0  0  0  0  0  0  0  0  0  0
   23.4377  -20.5590  -13.8987 C   0  0  0  0  0  0  0  0  0  0  0  0
   22.9909  -20.3622  -12.7149 O   0  0  0  0  0  0  0  0  0  0  0  0
   22.5611  -20.1789  -14.9295 N   0  0  0  0  0  0  0  0  0  0  0  0
   21.2047  -19.6838  -14.6672 C   0  0  1  0  0  0  0  0  0  0  0  0
   20.9613  -18.5277  -15.5639 C   0  0  0  0  0  0  0  0  0  0  0  0
   19.6226  -17.8820  -15.4666 C   0  0  0  0  0  0  0  0  0  0  0  0
   19.4182  -16.8051  -16.4406 C   0  0  0  0  0  0  0  0  0  0  0  0
   18.2997  -16.1918  -16.4393 O   0  0  0  0  0  0  0  0  0  0  0  0
   20.2171  -20.7764  -14.8287 C   0  0  0  0  0  0  0  0  0  0  0  0
   19.0915  -20.7114  -14.2794 O   0  0  0  0  0  0  0  0  0  0  0  0
   20.3698  -16.4117  -17.3659 O   0  0  0  0  0  0  0  0  0  0  0  0
   20.4832  -21.9153  -15.5872 O   0  0  0  0  0  0  0  0  0  0  0  0
  1  2  1  0
  2  3  2  0
  4  2  1  0
  5  6  1  6
  5  4  1  0
  7  5  1  0
  8  7  2  0
  9  7  1  0
 10 11  1  0
 10  9  1  0
 11 13  1  0
 12 11  2  0
 13 14  1  0
 14 19  1  0
 14 15  1  6
 15 16  1  0
 16 17  1  0
 17 21  1  0
 18 17  2  0
 19 20  2  0
 19 22  1  0
M  END
$$$$
