NGE.pdb
     RDKit          3D

 22 21  0  0  1  0  0  0  0  0999 V2000
   22.4289  -15.8565  -20.2474 N   0  0  0  0  0  0  0  0  0  0  0  0
   22.4781  -14.8452  -19.2541 C   0  0  0  0  0  0  0  0  0  0  0  0
   23.0760  -15.0867  -18.1896 O   0  0  0  0  0  0  0  0  0  0  0  0
   21.8167  -13.5490  -19.5274 C   0  0  0  0  0  0  0  0  0  0  0  0
   21.1586  -13.0088  -18.2896 C   0  0  2  0  0  0  0  0  0  0  0  0
   20.0305  -13.8180  -17.9343 N   0  0  0  0  0  0  0  0  0  0  0  0
   20.7323  -11.5891  -18.5668 C   0  0  0  0  0  0  0  0  0  0  0  0
   20.7171  -11.1479  -19.7443 O   0  0  0  0  0  0  0  0  0  0  0  0
   20.3414  -10.7215  -17.5205 N   0  0  0  0  0  0  0  0  0  0  0  0
   19.9775   -9.3397  -17.6986 C   0  0  0  0  0  0  0  0  0  0  0  0
   19.7400   -8.5928  -16.4560 C   0  0  0  0  0  0  0  0  0  0  0  0
   20.0626   -9.1247  -15.3368 O   0  0  0  0  0  0  0  0  0  0  0  0
   19.1774   -7.3085  -16.3569 N   0  0  0  0  0  0  0  0  0  0  0  0
   18.9981   -6.6244  -15.0710 C   0  0  1  0  0  0  0  0  0  0  0  0
   20.3376   -6.4477  -14.4592 C   0  0  0  0  0  0  0  0  0  0  0  0
   21.2193   -5.4184  -15.0767 C   0  0  0  0  0  0  0  0  0  0  0  0
   22.5117   -5.2701  -14.3999 C   0  0  0  0  0  0  0  0  0  0  0  0
   23.5741   -5.3327  -15.1032 O   0  0  0  0  0  0  0  0  0  0  0  0
   18.2622   -5.3527  -15.2621 C   0  0  0  0  0  0  0  0  0  0  0  0
   17.8721   -4.6818  -14.2769 O   0  0  0  0  0  0  0  0  0  0  0  0
   22.6495   -5.0654  -13.0377 O   0  0  0  0  0  0  0  0  0  0  0  0
   17.9698   -4.8438  -16.5266 O   0  0  0  0  0  0  0  0  0  0  0  0
  1  2  1  0
  2  3  2  0
  4  2  1  0
  5  6  1  6
  5  4  1  0
  7  5  1  0
  8  7  2  0
  9  7  1  0
 10 11  1  0
 10  9  1  0
 11 13  1  0
 12 11  2  0
 13 14  1  0
 14 19  1  0
 14 15  1  6
 15 16  1  0
 16 17  1  0
 17 21  1  0
 18 17  2  0
 19 20  2  0
 19 22  1  0
M  END
$$$$
