NGE.pdb
     RDKit          3D

 22 21  0  0  1  0  0  0  0  0999 V2000
   27.9477  -22.7658  -15.6736 N   0  0  0  0  0  0  0  0  0  0  0  0
   28.0276  -21.5328  -16.3701 C   0  0  0  0  0  0  0  0  0  0  0  0
   29.1324  -21.1735  -16.8169 O   0  0  0  0  0  0  0  0  0  0  0  0
   26.7951  -20.7290  -16.5341 C   0  0  0  0  0  0  0  0  0  0  0  0
   25.9976  -20.7003  -15.2613 C   0  0  2  0  0  0  0  0  0  0  0  0
   25.4423  -21.9942  -14.9946 N   0  0  0  0  0  0  0  0  0  0  0  0
   24.9061  -19.6712  -15.4150 C   0  0  0  0  0  0  0  0  0  0  0  0
   25.1907  -18.4487  -15.4918 O   0  0  0  0  0  0  0  0  0  0  0  0
   23.5442  -20.0478  -15.4762 N   0  0  0  0  0  0  0  0  0  0  0  0
   22.4454  -19.1232  -15.5829 C   0  0  0  0  0  0  0  0  0  0  0  0
   21.3145  -19.3931  -14.6848 C   0  0  0  0  0  0  0  0  0  0  0  0
   21.4233  -20.3168  -13.8046 O   0  0  0  0  0  0  0  0  0  0  0  0
   20.0796  -18.7219  -14.6842 N   0  0  0  0  0  0  0  0  0  0  0  0
   18.9660  -19.1225  -13.8164 C   0  0  1  0  0  0  0  0  0  0  0  0
   17.9577  -18.0350  -13.8392 C   0  0  0  0  0  0  0  0  0  0  0  0
   16.7093  -18.2703  -13.0618 C   0  0  0  0  0  0  0  0  0  0  0  0
   15.7611  -17.1534  -13.1218 C   0  0  0  0  0  0  0  0  0  0  0  0
   15.8271  -16.2541  -12.2195 O   0  0  0  0  0  0  0  0  0  0  0  0
   18.4290  -20.4366  -14.2407 C   0  0  0  0  0  0  0  0  0  0  0  0
   18.5555  -20.8306  -15.4246 O   0  0  0  0  0  0  0  0  0  0  0  0
   14.7941  -17.0149  -14.1027 O   0  0  0  0  0  0  0  0  0  0  0  0
   17.7657  -21.2899  -13.3602 O   0  0  0  0  0  0  0  0  0  0  0  0
  1  2  1  0
  2  3  2  0
  4  2  1  0
  5  6  1  6
  5  4  1  0
  7  5  1  0
  8  7  2  0
  9  7  1  0
 10 11  1  0
 10  9  1  0
 11 13  1  0
 12 11  2  0
 13 14  1  0
 14 19  1  0
 14 15  1  6
 15 16  1  0
 16 17  1  0
 17 21  1  0
 18 17  2  0
 19 20  2  0
 19 22  1  0
M  END
$$$$
