NGE.pdb
     RDKit          3D

 22 21  0  0  1  0  0  0  0  0999 V2000
   21.2507  -25.2017  -17.0790 N   0  0  0  0  0  0  0  0  0  0  0  0
   21.9994  -25.5161  -15.9161 C   0  0  0  0  0  0  0  0  0  0  0  0
   22.8167  -26.4531  -15.9712 O   0  0  0  0  0  0  0  0  0  0  0  0
   21.7753  -24.7170  -14.6899 C   0  0  0  0  0  0  0  0  0  0  0  0
   20.7761  -23.6224  -14.9357 C   0  0  2  0  0  0  0  0  0  0  0  0
   21.4149  -22.4968  -15.5511 N   0  0  0  0  0  0  0  0  0  0  0  0
   20.1698  -23.2347  -13.6105 C   0  0  0  0  0  0  0  0  0  0  0  0
   20.7696  -22.4367  -12.8457 O   0  0  0  0  0  0  0  0  0  0  0  0
   18.9215  -23.7526  -13.1937 N   0  0  0  0  0  0  0  0  0  0  0  0
   18.2778  -23.4277  -11.9473 C   0  0  0  0  0  0  0  0  0  0  0  0
   18.5749  -24.3413  -10.8358 C   0  0  0  0  0  0  0  0  0  0  0  0
   19.3804  -25.3179  -11.0290 O   0  0  0  0  0  0  0  0  0  0  0  0
   18.0534  -24.2572   -9.5332 N   0  0  0  0  0  0  0  0  0  0  0  0
   18.2682  -25.3063   -8.5297 C   0  0  1  0  0  0  0  0  0  0  0  0
   17.9018  -24.7498   -7.2046 C   0  0  0  0  0  0  0  0  0  0  0  0
   17.8890  -25.7064   -6.0631 C   0  0  0  0  0  0  0  0  0  0  0  0
   17.4251  -25.1129   -4.8050 C   0  0  0  0  0  0  0  0  0  0  0  0
   17.0350  -23.8984   -4.8162 O   0  0  0  0  0  0  0  0  0  0  0  0
   17.5093  -26.5268   -8.8896 C   0  0  0  0  0  0  0  0  0  0  0  0
   17.9444  -27.6650   -8.5926 O   0  0  0  0  0  0  0  0  0  0  0  0
   17.3845  -25.7936   -3.6003 O   0  0  0  0  0  0  0  0  0  0  0  0
   16.2916  -26.4746   -9.5663 O   0  0  0  0  0  0  0  0  0  0  0  0
  1  2  1  0
  2  3  2  0
  4  2  1  0
  5  6  1  1
  5  4  1  0
  7  5  1  0
  8  7  2  0
  9  7  1  0
 10 11  1  0
 10  9  1  0
 11 13  1  0
 12 11  2  0
 13 14  1  0
 14 19  1  0
 14 15  1  1
 15 16  1  0
 16 17  1  0
 17 21  1  0
 18 17  2  0
 19 20  2  0
 19 22  1  0
M  END
$$$$
