FGA.pdb
     RDKit          3D

 21 21  0  0  1  0  0  0  0  0999 V2000
   22.2627  -13.9338  -17.4672 N   0  0  0  0  0  0  0  0  0  0  0  0
   21.9347  -13.1577  -16.2905 C   0  0  1  0  0  0  0  0  0  0  0  0
   22.6089  -13.8737  -15.1119 C   0  0  0  0  0  0  0  0  0  0  0  0
   22.0843  -15.2407  -14.9352 C   0  0  0  0  0  0  0  0  0  0  0  0
   22.9059  -16.3207  -15.2458 C   0  0  0  0  0  0  0  0  0  0  0  0
   22.4934  -17.6243  -15.1094 C   0  0  0  0  0  0  0  0  0  0  0  0
   21.2137  -17.8368  -14.6456 C   0  0  0  0  0  0  0  0  0  0  0  0
   20.3861  -16.7758  -14.3331 C   0  0  0  0  0  0  0  0  0  0  0  0
   20.8253  -15.4707  -14.4792 C   0  0  0  0  0  0  0  0  0  0  0  0
   22.5574  -11.8053  -16.3422 C   0  0  0  0  0  0  0  0  0  0  0  0
   23.5622  -11.6461  -17.0762 O   0  0  0  0  0  0  0  0  0  0  0  0
   22.0772  -10.6982  -15.6109 N   0  0  0  0  0  0  0  0  0  0  0  0
   22.5980   -9.3793  -15.6471 C   0  0  0  0  0  0  0  0  0  0  0  0
   21.9547   -8.3826  -14.7907 C   0  0  0  0  0  0  0  0  0  0  0  0
   20.8889   -8.7514  -14.2271 O   0  0  0  0  0  0  0  0  0  0  0  0
   22.4160   -4.9854  -13.3864 C   0  0  0  0  0  0  0  0  0  0  0  0
   21.5926   -6.2190  -13.6864 C   0  0  2  0  0  0  0  0  0  0  0  0
   22.4051   -7.0656  -14.5393 N   0  0  0  0  0  0  0  0  0  0  0  0
   20.3861   -5.7756  -14.4400 C   0  0  0  0  0  0  0  0  0  0  0  0
   20.4198   -5.7707  -15.6970 O   0  0  0  0  0  0  0  0  0  0  0  0
   19.2234   -5.3664  -13.8238 O   0  0  0  0  0  0  0  0  0  0  0  0
  2  1  1  6
  2 10  1  0
  3  2  1  0
  3  4  1  0
  4  5  2  0
  5  6  1  0
  7  6  2  0
  8  7  1  0
  9  4  1  0
  9  8  2  0
 10 11  2  0
 12 13  1  0
 12 10  1  0
 13 14  1  0
 14 15  2  0
 14 18  1  0
 17 16  1  6
 17 19  1  0
 18 17  1  0
 19 21  1  0
 20 19  2  0
M  END
$$$$
