FGA.pdb
     RDKit          3D

 21 21  0  0  1  0  0  0  0  0999 V2000
   24.6150  -12.7504  -17.4981 N   0  0  0  0  0  0  0  0  0  0  0  0
   23.8263  -12.0899  -16.4801 C   0  0  1  0  0  0  0  0  0  0  0  0
   24.2456  -12.7223  -15.1456 C   0  0  0  0  0  0  0  0  0  0  0  0
   23.9803  -14.1729  -15.1252 C   0  0  0  0  0  0  0  0  0  0  0  0
   22.6704  -14.6183  -15.2791 C   0  0  0  0  0  0  0  0  0  0  0  0
   22.3391  -15.9518  -15.2716 C   0  0  0  0  0  0  0  0  0  0  0  0
   23.3644  -16.8566  -15.1035 C   0  0  0  0  0  0  0  0  0  0  0  0
   24.6695  -16.4306  -14.9494 C   0  0  0  0  0  0  0  0  0  0  0  0
   24.9777  -15.0806  -14.9605 C   0  0  0  0  0  0  0  0  0  0  0  0
   24.1853  -10.6486  -16.3666 C   0  0  0  0  0  0  0  0  0  0  0  0
   25.2369  -10.2566  -16.9270 O   0  0  0  0  0  0  0  0  0  0  0  0
   23.4064   -9.7049  -15.6637 N   0  0  0  0  0  0  0  0  0  0  0  0
   23.6741   -8.3168  -15.5468 C   0  0  0  0  0  0  0  0  0  0  0  0
   22.6802   -7.5006  -14.8492 C   0  0  0  0  0  0  0  0  0  0  0  0
   21.5813   -8.0678  -14.6035 O   0  0  0  0  0  0  0  0  0  0  0  0
   22.1951   -4.1966  -13.2453 C   0  0  0  0  0  0  0  0  0  0  0  0
   21.6909   -5.5044  -13.8157 C   0  0  2  0  0  0  0  0  0  0  0  0
   22.8302   -6.1574  -14.4320 N   0  0  0  0  0  0  0  0  0  0  0  0
   20.6868   -5.1736  -14.8657 C   0  0  0  0  0  0  0  0  0  0  0  0
   21.0620   -5.0873  -16.0628 O   0  0  0  0  0  0  0  0  0  0  0  0
   19.3545   -4.9550  -14.5894 O   0  0  0  0  0  0  0  0  0  0  0  0
  2  1  1  6
  2 10  1  0
  3  2  1  0
  3  4  1  0
  4  5  2  0
  5  6  1  0
  7  6  2  0
  8  7  1  0
  9  4  1  0
  9  8  2  0
 10 11  2  0
 12 13  1  0
 12 10  1  0
 13 14  1  0
 14 15  2  0
 14 18  1  0
 17 16  1  6
 17 19  1  0
 18 17  1  0
 19 21  1  0
 20 19  2  0
M  END
$$$$
