FGA.pdb
     RDKit          3D

 21 21  0  0  1  0  0  0  0  0999 V2000
   25.4636  -20.7714   -7.3899 N   0  0  0  0  0  0  0  0  0  0  0  0
   26.3837  -20.3085   -8.4066 C   0  0  1  0  0  0  0  0  0  0  0  0
   27.7656  -20.8364   -7.9964 C   0  0  0  0  0  0  0  0  0  0  0  0
   28.1642  -20.3382   -6.6667 C   0  0  0  0  0  0  0  0  0  0  0  0
   28.0204  -18.9822   -6.3868 C   0  0  0  0  0  0  0  0  0  0  0  0
   28.3680  -18.4387   -5.1736 C   0  0  0  0  0  0  0  0  0  0  0  0
   28.8747  -19.2941   -4.2199 C   0  0  0  0  0  0  0  0  0  0  0  0
   29.0235  -20.6423   -4.4822 C   0  0  0  0  0  0  0  0  0  0  0  0
   28.6657  -21.1660   -5.7132 C   0  0  0  0  0  0  0  0  0  0  0  0
   26.0944  -20.9367   -9.7260 C   0  0  0  0  0  0  0  0  0  0  0  0
   25.1700  -21.7826   -9.7867 O   0  0  0  0  0  0  0  0  0  0  0  0
   26.8037  -20.6306  -10.9069 N   0  0  0  0  0  0  0  0  0  0  0  0
   26.4167  -19.6934  -11.8988 C   0  0  0  0  0  0  0  0  0  0  0  0
   25.3013  -20.0641  -12.7701 C   0  0  0  0  0  0  0  0  0  0  0  0
   25.0553  -19.2653  -13.7140 O   0  0  0  0  0  0  0  0  0  0  0  0
   23.2258  -22.9066  -13.7541 C   0  0  0  0  0  0  0  0  0  0  0  0
   23.4483  -21.4133  -13.6517 C   0  0  2  0  0  0  0  0  0  0  0  0
   24.4844  -21.2132  -12.6564 N   0  0  0  0  0  0  0  0  0  0  0  0
   22.1768  -20.8069  -13.1664 C   0  0  0  0  0  0  0  0  0  0  0  0
   22.0950  -20.4404  -11.9663 O   0  0  0  0  0  0  0  0  0  0  0  0
   21.0746  -20.6251  -13.9733 O   0  0  0  0  0  0  0  0  0  0  0  0
  2  1  1  1
  2 10  1  0
  3  2  1  0
  3  4  1  0
  4  5  2  0
  5  6  1  0
  7  6  2  0
  8  7  1  0
  9  4  1  0
  9  8  2  0
 10 11  2  0
 12 13  1  0
 12 10  1  0
 13 14  1  0
 14 15  2  0
 14 18  1  0
 17 16  1  1
 17 19  1  0
 18 17  1  0
 19 21  1  0
 20 19  2  0
M  END
$$$$
