FGA.pdb
     RDKit          3D

 21 21  0  0  1  0  0  0  0  0999 V2000
   25.9680  -20.0671  -15.8096 N   0  0  0  0  0  0  0  0  0  0  0  0
   26.8223  -19.5068  -14.7846 C   0  0  1  0  0  0  0  0  0  0  0  0
   25.9420  -18.5343  -13.9873 C   0  0  0  0  0  0  0  0  0  0  0  0
   25.6499  -17.3106  -14.7570 C   0  0  0  0  0  0  0  0  0  0  0  0
   26.6322  -16.3291  -14.8561 C   0  0  0  0  0  0  0  0  0  0  0  0
   26.4399  -15.1612  -15.5538 C   0  0  0  0  0  0  0  0  0  0  0  0
   25.2188  -14.9851  -16.1669 C   0  0  0  0  0  0  0  0  0  0  0  0
   24.2338  -15.9496  -16.0780 C   0  0  0  0  0  0  0  0  0  0  0  0
   24.4520  -17.1187  -15.3686 C   0  0  0  0  0  0  0  0  0  0  0  0
   27.2506  -20.5467  -13.8077 C   0  0  0  0  0  0  0  0  0  0  0  0
   26.5052  -21.5419  -13.6407 O   0  0  0  0  0  0  0  0  0  0  0  0
   28.4469  -20.4706  -13.0633 N   0  0  0  0  0  0  0  0  0  0  0  0
   28.8566  -21.3639  -12.0404 C   0  0  0  0  0  0  0  0  0  0  0  0
   28.0968  -21.3427  -10.7902 C   0  0  0  0  0  0  0  0  0  0  0  0
   28.1460  -22.3978  -10.1019 O   0  0  0  0  0  0  0  0  0  0  0  0
   26.5138  -19.1422   -8.3572 C   0  0  0  0  0  0  0  0  0  0  0  0
   26.5834  -20.4813   -9.0584 C   0  0  2  0  0  0  0  0  0  0  0  0
   27.3233  -20.2701  -10.2881 N   0  0  0  0  0  0  0  0  0  0  0  0
   25.1871  -20.8835   -9.3879 C   0  0  0  0  0  0  0  0  0  0  0  0
   24.3880  -21.1363   -8.4505 O   0  0  0  0  0  0  0  0  0  0  0  0
   24.7217  -20.9939  -10.6803 O   0  0  0  0  0  0  0  0  0  0  0  0
  2  1  1  6
  2 10  1  0
  3  2  1  0
  3  4  1  0
  4  5  2  0
  5  6  1  0
  7  6  2  0
  8  7  1  0
  9  4  1  0
  9  8  2  0
 10 11  2  0
 12 13  1  0
 12 10  1  0
 13 14  1  0
 14 15  2  0
 14 18  1  0
 17 16  1  6
 17 19  1  0
 18 17  1  0
 19 21  1  0
 20 19  2  0
M  END
$$$$
