FGA.pdb
     RDKit          3D

 21 21  0  0  1  0  0  0  0  0999 V2000
   27.1182  -21.7766  -13.2331 N   0  0  0  0  0  0  0  0  0  0  0  0
   26.4371  -21.3396  -12.0332 C   0  0  1  0  0  0  0  0  0  0  0  0
   27.3549  -20.2938  -11.3848 C   0  0  0  0  0  0  0  0  0  0  0  0
   28.5298  -20.9210  -10.7511 C   0  0  0  0  0  0  0  0  0  0  0  0
   28.4302  -21.3534   -9.4316 C   0  0  0  0  0  0  0  0  0  0  0  0
   29.4775  -21.9470   -8.7691 C   0  0  0  0  0  0  0  0  0  0  0  0
   30.6564  -22.1056   -9.4642 C   0  0  0  0  0  0  0  0  0  0  0  0
   30.7711  -21.6818  -10.7740 C   0  0  0  0  0  0  0  0  0  0  0  0
   29.7007  -21.0862  -11.4199 C   0  0  0  0  0  0  0  0  0  0  0  0
   25.1771  -20.6146  -12.3587 C   0  0  0  0  0  0  0  0  0  0  0  0
   25.1090  -20.0143  -13.4582 O   0  0  0  0  0  0  0  0  0  0  0  0
   24.0603  -20.5684  -11.4975 N   0  0  0  0  0  0  0  0  0  0  0  0
   22.8054  -19.9716  -11.7825 C   0  0  0  0  0  0  0  0  0  0  0  0
   21.8161  -20.7949  -12.4784 C   0  0  0  0  0  0  0  0  0  0  0  0
   22.2417  -21.8879  -12.9408 O   0  0  0  0  0  0  0  0  0  0  0  0
   18.1805  -21.0430  -13.1211 C   0  0  0  0  0  0  0  0  0  0  0  0
   19.6138  -21.4868  -13.3166 C   0  0  2  0  0  0  0  0  0  0  0  0
   20.4505  -20.4869  -12.6808 N   0  0  0  0  0  0  0  0  0  0  0  0
   19.8815  -21.4918  -14.7824 C   0  0  0  0  0  0  0  0  0  0  0  0
   19.6153  -22.5252  -15.4475 O   0  0  0  0  0  0  0  0  0  0  0  0
   20.4113  -20.4109  -15.4534 O   0  0  0  0  0  0  0  0  0  0  0  0
  2  1  1  6
  2 10  1  0
  3  2  1  0
  3  4  1  0
  4  5  2  0
  5  6  1  0
  7  6  2  0
  8  7  1  0
  9  4  1  0
  9  8  2  0
 10 11  2  0
 12 13  1  0
 12 10  1  0
 13 14  1  0
 14 15  2  0
 14 18  1  0
 17 16  1  6
 17 19  1  0
 18 17  1  0
 19 21  1  0
 20 19  2  0
M  END
$$$$
