FGA.pdb
     RDKit          3D

 21 21  0  0  1  0  0  0  0  0999 V2000
   27.5015  -21.7172   -8.9495 N   0  0  0  0  0  0  0  0  0  0  0  0
   26.4669  -20.7055   -8.9746 C   0  0  1  0  0  0  0  0  0  0  0  0
   27.1051  -19.4354   -8.3950 C   0  0  0  0  0  0  0  0  0  0  0  0
   27.5270  -19.6300   -6.9952 C   0  0  0  0  0  0  0  0  0  0  0  0
   26.5512  -19.8031   -6.0176 C   0  0  0  0  0  0  0  0  0  0  0  0
   26.8603  -19.9900   -4.6919 C   0  0  0  0  0  0  0  0  0  0  0  0
   28.1948  -20.0015   -4.3499 C   0  0  0  0  0  0  0  0  0  0  0  0
   29.1752  -19.8312   -5.3082 C   0  0  0  0  0  0  0  0  0  0  0  0
   28.8378  -19.6445   -6.6382 C   0  0  0  0  0  0  0  0  0  0  0  0
   26.0845  -20.3558  -10.3712 C   0  0  0  0  0  0  0  0  0  0  0  0
   25.2721  -19.4154  -10.5427 O   0  0  0  0  0  0  0  0  0  0  0  0
   26.5870  -21.0252  -11.5073 N   0  0  0  0  0  0  0  0  0  0  0  0
   26.2224  -20.7787  -12.8558 C   0  0  0  0  0  0  0  0  0  0  0  0
   24.8520  -21.1079  -13.2487 C   0  0  0  0  0  0  0  0  0  0  0  0
   24.3651  -20.4062  -14.1760 O   0  0  0  0  0  0  0  0  0  0  0  0
   22.3341  -23.7478  -13.0436 C   0  0  0  0  0  0  0  0  0  0  0  0
   22.7012  -22.2935  -13.2438 C   0  0  2  0  0  0  0  0  0  0  0  0
   24.0332  -22.1203  -12.6961 N   0  0  0  0  0  0  0  0  0  0  0  0
   21.7354  -21.4787  -12.4543 C   0  0  0  0  0  0  0  0  0  0  0  0
   20.5328  -21.4353  -12.8191 O   0  0  0  0  0  0  0  0  0  0  0  0
   22.0961  -20.7628  -11.3333 O   0  0  0  0  0  0  0  0  0  0  0  0
  2  1  1  6
  2 10  1  0
  3  2  1  0
  3  4  1  0
  4  5  2  0
  5  6  1  0
  7  6  2  0
  8  7  1  0
  9  4  1  0
  9  8  2  0
 10 11  2  0
 12 13  1  0
 12 10  1  0
 13 14  1  0
 14 15  2  0
 14 18  1  0
 17 16  1  1
 17 19  1  0
 18 17  1  0
 19 21  1  0
 20 19  2  0
M  END
$$$$
