FGA.pdb
     RDKit          3D

 21 21  0  0  1  0  0  0  0  0999 V2000
   25.3882  -20.6636   -7.1854 N   0  0  0  0  0  0  0  0  0  0  0  0
   26.2766  -20.1668   -8.2143 C   0  0  1  0  0  0  0  0  0  0  0  0
   27.6862  -20.6194   -7.8086 C   0  0  0  0  0  0  0  0  0  0  0  0
   28.1064  -20.0088   -6.5335 C   0  0  0  0  0  0  0  0  0  0  0  0
   27.9379  -18.6382   -6.3575 C   0  0  0  0  0  0  0  0  0  0  0  0
   28.3031  -17.9928   -5.2007 C   0  0  0  0  0  0  0  0  0  0  0  0
   28.8537  -18.7588   -4.1966 C   0  0  0  0  0  0  0  0  0  0  0  0
   29.0274  -20.1201   -4.3559 C   0  0  0  0  0  0  0  0  0  0  0  0
   28.6512  -20.7473   -5.5317 C   0  0  0  0  0  0  0  0  0  0  0  0
   26.0102  -20.8243   -9.5242 C   0  0  0  0  0  0  0  0  0  0  0  0
   25.2828  -21.8463   -9.5343 O   0  0  0  0  0  0  0  0  0  0  0  0
   26.5317  -20.3586  -10.7499 N   0  0  0  0  0  0  0  0  0  0  0  0
   26.2038  -20.8469  -12.0407 C   0  0  0  0  0  0  0  0  0  0  0  0
   24.9141  -20.4425  -12.6008 C   0  0  0  0  0  0  0  0  0  0  0  0
   24.2427  -19.6361  -11.9021 O   0  0  0  0  0  0  0  0  0  0  0  0
   23.0800  -20.3869  -15.7800 C   0  0  0  0  0  0  0  0  0  0  0  0
   23.1312  -20.2269  -14.2761 C   0  0  2  0  0  0  0  0  0  0  0  0
   24.3560  -20.8637  -13.8304 N   0  0  0  0  0  0  0  0  0  0  0  0
   21.9629  -20.9590  -13.7112 C   0  0  0  0  0  0  0  0  0  0  0  0
   22.1136  -22.1486  -13.3326 O   0  0  0  0  0  0  0  0  0  0  0  0
   20.7129  -20.3936  -13.5811 O   0  0  0  0  0  0  0  0  0  0  0  0
  2  1  1  1
  2 10  1  0
  3  2  1  0
  3  4  1  0
  4  5  2  0
  5  6  1  0
  7  6  2  0
  8  7  1  0
  9  4  1  0
  9  8  2  0
 10 11  2  0
 12 13  1  0
 12 10  1  0
 13 14  1  0
 14 15  2  0
 14 18  1  0
 17 16  1  6
 17 19  1  0
 18 17  1  0
 19 21  1  0
 20 19  2  0
M  END
$$$$
