FGA.pdb
     RDKit          3D

 21 21  0  0  1  0  0  0  0  0999 V2000
   25.4492  -21.0429   -7.6206 N   0  0  0  0  0  0  0  0  0  0  0  0
   26.4086  -20.3895   -8.4850 C   0  0  1  0  0  0  0  0  0  0  0  0
   27.7918  -20.7295   -7.9126 C   0  0  0  0  0  0  0  0  0  0  0  0
   28.0185  -20.0700   -6.6130 C   0  0  0  0  0  0  0  0  0  0  0  0
   28.3777  -20.8503   -5.5176 C   0  0  0  0  0  0  0  0  0  0  0  0
   28.6065  -20.3139   -4.2734 C   0  0  0  0  0  0  0  0  0  0  0  0
   28.4671  -18.9500   -4.1379 C   0  0  0  0  0  0  0  0  0  0  0  0
   28.1113  -18.1619   -5.2153 C   0  0  0  0  0  0  0  0  0  0  0  0
   27.8859  -18.7266   -6.4595 C   0  0  0  0  0  0  0  0  0  0  0  0
   26.3909  -20.9751   -9.8547 C   0  0  0  0  0  0  0  0  0  0  0  0
   26.0202  -22.1668   -9.9821 O   0  0  0  0  0  0  0  0  0  0  0  0
   26.7682  -20.2613  -11.0120 N   0  0  0  0  0  0  0  0  0  0  0  0
   26.8388  -20.7787  -12.3308 C   0  0  0  0  0  0  0  0  0  0  0  0
   25.5746  -20.9750  -13.0407 C   0  0  0  0  0  0  0  0  0  0  0  0
   25.6725  -21.3737  -14.2327 O   0  0  0  0  0  0  0  0  0  0  0  0
   21.9607  -21.3112  -12.4621 C   0  0  0  0  0  0  0  0  0  0  0  0
   23.1445  -21.0872  -13.3776 C   0  0  2  0  0  0  0  0  0  0  0  0
   24.2739  -20.7624  -12.5272 N   0  0  0  0  0  0  0  0  0  0  0  0
   22.8245  -19.9143  -14.2390 C   0  0  0  0  0  0  0  0  0  0  0  0
   22.3286  -20.1111  -15.3777 O   0  0  0  0  0  0  0  0  0  0  0  0
   23.0462  -18.6117  -13.8478 O   0  0  0  0  0  0  0  0  0  0  0  0
  2  1  1  1
  2 10  1  0
  3  2  1  0
  3  4  1  0
  4  5  2  0
  5  6  1  0
  7  6  2  0
  8  7  1  0
  9  4  1  0
  9  8  2  0
 10 11  2  0
 12 13  1  0
 12 10  1  0
 13 14  1  0
 14 15  2  0
 14 18  1  0
 17 16  1  1
 17 19  1  0
 18 17  1  0
 19 21  1  0
 20 19  2  0
M  END
$$$$
