FGA.pdb
     RDKit          3D

 21 21  0  0  1  0  0  0  0  0999 V2000
   25.0219  -33.0252   -9.5459 N   0  0  0  0  0  0  0  0  0  0  0  0
   24.5386  -32.4343   -8.3163 C   0  0  1  0  0  0  0  0  0  0  0  0
   23.0231  -32.2680   -8.4957 C   0  0  0  0  0  0  0  0  0  0  0  0
   22.7058  -31.2800   -9.5437 C   0  0  0  0  0  0  0  0  0  0  0  0
   23.0347  -29.9444   -9.3293 C   0  0  0  0  0  0  0  0  0  0  0  0
   22.7733  -28.9628  -10.2546 C   0  0  0  0  0  0  0  0  0  0  0  0
   22.1621  -29.3471  -11.4279 C   0  0  0  0  0  0  0  0  0  0  0  0
   21.8294  -30.6684  -11.6558 C   0  0  0  0  0  0  0  0  0  0  0  0
   22.1034  -31.6394  -10.7073 C   0  0  0  0  0  0  0  0  0  0  0  0
   24.7022  -33.3667   -7.1660 C   0  0  0  0  0  0  0  0  0  0  0  0
   25.0660  -34.5428   -7.4070 O   0  0  0  0  0  0  0  0  0  0  0  0
   24.4698  -32.9967   -5.8242 N   0  0  0  0  0  0  0  0  0  0  0  0
   24.6060  -33.8342   -4.6875 C   0  0  0  0  0  0  0  0  0  0  0  0
   25.8533  -33.7349   -3.9293 C   0  0  0  0  0  0  0  0  0  0  0  0
   26.7269  -32.9643   -4.4115 O   0  0  0  0  0  0  0  0  0  0  0  0
   27.2922  -34.4984   -0.6329 C   0  0  0  0  0  0  0  0  0  0  0  0
   27.4347  -34.1058   -2.0873 C   0  0  2  0  0  0  0  0  0  0  0  0
   26.1693  -34.4107   -2.7276 N   0  0  0  0  0  0  0  0  0  0  0  0
   28.5025  -34.9621   -2.6761 C   0  0  0  0  0  0  0  0  0  0  0  0
   28.1792  -35.8750   -3.4782 O   0  0  0  0  0  0  0  0  0  0  0  0
   29.8399  -34.8034   -2.3838 O   0  0  0  0  0  0  0  0  0  0  0  0
  2  1  1  6
  2 10  1  0
  3  2  1  0
  3  4  1  0
  4  5  2  0
  5  6  1  0
  7  6  2  0
  8  7  1  0
  9  4  1  0
  9  8  2  0
 10 11  2  0
 12 13  1  0
 12 10  1  0
 13 14  1  0
 14 15  2  0
 14 18  1  0
 17 16  1  1
 17 19  1  0
 18 17  1  0
 19 21  1  0
 20 19  2  0
M  END
$$$$
