FKH.pdb
     RDKit          3D

 31 32  0  0  1  0  0  0  0  0999 V2000
    6.7426  -17.0908   26.0212 N   0  0  0  0  0  0  0  0  0  0  0  0
    6.1273  -16.5907   24.8312 C   0  0  1  0  0  0  0  0  0  0  0  0
    5.4415  -15.2828   24.9701 C   0  0  0  0  0  0  0  0  0  0  0  0
    6.1077  -14.3125   25.8386 C   0  0  0  0  0  0  0  0  0  0  0  0
    5.4528  -13.5194   26.7586 C   0  0  0  0  0  0  0  0  0  0  0  0
    6.1576  -12.6240   27.5387 C   0  0  0  0  0  0  0  0  0  0  0  0
    7.5224  -12.4885   27.4318 C   0  0  0  0  0  0  0  0  0  0  0  0
    8.1869  -13.2780   26.5142 C   0  0  0  0  0  0  0  0  0  0  0  0
    7.4785  -14.1714   25.7368 C   0  0  0  0  0  0  0  0  0  0  0  0
    7.2002  -16.4479   23.8025 C   0  0  0  0  0  0  0  0  0  0  0  0
    8.1463  -17.2816   23.8258 O   0  0  0  0  0  0  0  0  0  0  0  0
    7.2062  -15.4459   22.8262 N   0  0  0  0  0  0  0  0  0  0  0  0
    8.1211  -15.5482   21.6829 C   0  0  1  0  0  0  0  0  0  0  0  0
    7.7369  -14.4860   20.6685 C   0  0  0  0  0  0  0  0  0  0  0  0
    8.5318  -14.6547   19.4135 C   0  0  0  0  0  0  0  0  0  0  0  0
    8.1483  -13.5597   18.4007 C   0  0  0  0  0  0  0  0  0  0  0  0
    8.9505  -13.7258   17.1570 C   0  0  0  0  0  0  0  0  0  0  0  0
    8.6691  -12.5687   16.3057 N   0  0  0  0  0  0  0  0  0  0  0  0
    9.4940  -15.3943   22.1809 C   0  0  0  0  0  0  0  0  0  0  0  0
    9.6595  -15.0899   23.4065 O   0  0  0  0  0  0  0  0  0  0  0  0
   10.6632  -15.5633   21.4080 N   0  0  0  0  0  0  0  0  0  0  0  0
   11.8299  -16.1941   22.0074 C   0  0  1  0  0  0  0  0  0  0  0  0
   11.4530  -17.5290   22.6105 C   0  0  0  0  0  0  0  0  0  0  0  0
   11.2625  -17.3726   24.0636 C   0  0  0  0  0  0  0  0  0  0  0  0
   11.1074  -18.4204   24.9509 C   0  0  0  0  0  0  0  0  0  0  0  0
   10.9278  -17.9457   26.1856 N   0  0  0  0  0  0  0  0  0  0  0  0
   10.9705  -16.6105   26.0664 C   0  0  0  0  0  0  0  0  0  0  0  0
   11.1712  -16.2482   24.7991 N   0  0  0  0  0  0  0  0  0  0  0  0
   12.9282  -16.3022   21.0362 C   0  0  0  0  0  0  0  0  0  0  0  0
   14.1133  -16.2869   21.4568 O   0  0  0  0  0  0  0  0  0  0  0  0
   12.7592  -16.4243   19.6768 O   0  0  0  0  0  0  0  0  0  0  0  0
  2  1  1  1
  3  2  1  0
  3  4  1  0
  4  5  2  0
  5  6  1  0
  7  6  2  0
  8  7  1  0
  9  4  1  0
  9  8  2  0
 10 11  2  0
 10  2  1  0
 12 10  1  0
 13 12  1  0
 13 14  1  6
 14 15  1  0
 15 16  1  0
 16 17  1  0
 17 18  1  0
 19 13  1  0
 20 19  2  0
 21 19  1  0
 22 21  1  0
 22 23  1  6
 24 23  1  0
 24 25  2  0
 26 25  1  0
 27 26  1  0
 28 27  2  0
 28 24  1  0
 29 22  1  0
 30 29  2  0
 31 29  1  0
M  END
$$$$
