FKH.pdb
     RDKit          3D

 31 32  0  0  1  0  0  0  0  0999 V2000
    5.9926  -17.6938   25.3698 N   0  0  0  0  0  0  0  0  0  0  0  0
    6.4842  -16.3594   25.2197 C   0  0  1  0  0  0  0  0  0  0  0  0
    7.0309  -15.7398   26.4515 C   0  0  0  0  0  0  0  0  0  0  0  0
    7.0103  -14.2774   26.4823 C   0  0  0  0  0  0  0  0  0  0  0  0
    8.1409  -13.4867   26.4576 C   0  0  0  0  0  0  0  0  0  0  0  0
    8.0337  -12.1103   26.4937 C   0  0  0  0  0  0  0  0  0  0  0  0
    6.8121  -11.4807   26.5547 C   0  0  0  0  0  0  0  0  0  0  0  0
    5.6748  -12.2634   26.5795 C   0  0  0  0  0  0  0  0  0  0  0  0
    5.7867  -13.6383   26.5433 C   0  0  0  0  0  0  0  0  0  0  0  0
    7.5703  -16.3986   24.1957 C   0  0  0  0  0  0  0  0  0  0  0  0
    8.1957  -17.4839   24.0490 O   0  0  0  0  0  0  0  0  0  0  0  0
    7.9230  -15.3025   23.4010 N   0  0  0  0  0  0  0  0  0  0  0  0
    8.4343  -15.5220   22.0427 C   0  0  1  0  0  0  0  0  0  0  0  0
    8.0304  -14.3367   21.1841 C   0  0  0  0  0  0  0  0  0  0  0  0
    8.5565  -14.4991   19.7942 C   0  0  0  0  0  0  0  0  0  0  0  0
    8.0791  -13.3285   18.9145 C   0  0  0  0  0  0  0  0  0  0  0  0
    8.5507  -13.5291   17.5162 C   0  0  0  0  0  0  0  0  0  0  0  0
    8.0307  -12.4143   16.7227 N   0  0  0  0  0  0  0  0  0  0  0  0
    9.8897  -15.6996   22.1253 C   0  0  0  0  0  0  0  0  0  0  0  0
   10.5370  -15.8769   21.0429 O   0  0  0  0  0  0  0  0  0  0  0  0
   10.6445  -15.6845   23.3182 N   0  0  0  0  0  0  0  0  0  0  0  0
   12.0202  -16.1592   23.2983 C   0  0  1  0  0  0  0  0  0  0  0  0
   12.0574  -17.6657   23.4294 C   0  0  0  0  0  0  0  0  0  0  0  0
   11.6018  -18.0505   24.7772 C   0  0  0  0  0  0  0  0  0  0  0  0
   11.2411  -17.1566   25.7673 C   0  0  0  0  0  0  0  0  0  0  0  0
   10.9049  -17.8200   26.8759 N   0  0  0  0  0  0  0  0  0  0  0  0
   11.0562  -19.1186   26.5768 C   0  0  0  0  0  0  0  0  0  0  0  0
   11.4738  -19.2760   25.3204 N   0  0  0  0  0  0  0  0  0  0  0  0
   12.7269  -15.6779   22.1025 C   0  0  0  0  0  0  0  0  0  0  0  0
   13.5511  -14.7358   22.2234 O   0  0  0  0  0  0  0  0  0  0  0  0
   12.5572  -16.1886   20.8369 O   0  0  0  0  0  0  0  0  0  0  0  0
  2  1  1  1
  3  2  1  0
  3  4  1  0
  4  5  2  0
  5  6  1  0
  7  6  2  0
  8  7  1  0
  9  4  1  0
  9  8  2  0
 10 11  2  0
 10  2  1  0
 12 10  1  0
 13 12  1  0
 13 14  1  6
 14 15  1  0
 15 16  1  0
 16 17  1  0
 17 18  1  0
 19 13  1  0
 20 19  2  0
 21 19  1  0
 22 21  1  0
 22 23  1  6
 24 23  1  0
 24 25  2  0
 26 25  1  0
 27 26  1  0
 28 27  2  0
 28 24  1  0
 29 22  1  0
 30 29  2  0
 31 29  1  0
M  END
$$$$
