FKH.pdb
     RDKit          3D

 31 32  0  0  1  0  0  0  0  0999 V2000
    6.4348  -17.1354   26.1901 N   0  0  0  0  0  0  0  0  0  0  0  0
    6.8510  -16.0167   25.4026 C   0  0  1  0  0  0  0  0  0  0  0  0
    7.7994  -15.0887   26.0657 C   0  0  0  0  0  0  0  0  0  0  0  0
    7.2229  -13.8280   26.5327 C   0  0  0  0  0  0  0  0  0  0  0  0
    6.0110  -13.3257   26.1049 C   0  0  0  0  0  0  0  0  0  0  0  0
    5.5395  -12.1233   26.5939 C   0  0  0  0  0  0  0  0  0  0  0  0
    6.2492  -11.3880   27.5147 C   0  0  0  0  0  0  0  0  0  0  0  0
    7.4631  -11.8824   27.9492 C   0  0  0  0  0  0  0  0  0  0  0  0
    7.9303  -13.0843   27.4578 C   0  0  0  0  0  0  0  0  0  0  0  0
    7.5082  -16.5570   24.1755 C   0  0  0  0  0  0  0  0  0  0  0  0
    7.8809  -17.7617   24.1950 O   0  0  0  0  0  0  0  0  0  0  0  0
    7.7277  -15.8003   23.0194 N   0  0  0  0  0  0  0  0  0  0  0  0
    8.5043  -16.3704   21.9121 C   0  0  1  0  0  0  0  0  0  0  0  0
    8.1736  -15.5952   20.6492 C   0  0  0  0  0  0  0  0  0  0  0  0
    8.8137  -16.2395   19.4617 C   0  0  0  0  0  0  0  0  0  0  0  0
    8.3711  -15.5192   18.1743 C   0  0  0  0  0  0  0  0  0  0  0  0
    8.9573  -16.2063   16.9902 C   0  0  0  0  0  0  0  0  0  0  0  0
    8.3274  -15.6284   15.8019 N   0  0  0  0  0  0  0  0  0  0  0  0
    9.9272  -16.3028   22.2692 C   0  0  0  0  0  0  0  0  0  0  0  0
   10.5926  -15.2813   21.9008 O   0  0  0  0  0  0  0  0  0  0  0  0
   10.6293  -17.2843   23.0017 N   0  0  0  0  0  0  0  0  0  0  0  0
   12.0813  -17.2174   23.0749 C   0  0  1  0  0  0  0  0  0  0  0  0
   12.5721  -17.8569   24.3549 C   0  0  0  0  0  0  0  0  0  0  0  0
   11.8856  -17.2400   25.5040 C   0  0  0  0  0  0  0  0  0  0  0  0
   11.4328  -15.9350   25.5379 C   0  0  0  0  0  0  0  0  0  0  0  0
   10.8832  -15.6770   26.7268 N   0  0  0  0  0  0  0  0  0  0  0  0
   10.9942  -16.8149   27.4280 C   0  0  0  0  0  0  0  0  0  0  0  0
   11.5934  -17.7647   26.7093 N   0  0  0  0  0  0  0  0  0  0  0  0
   12.6974  -17.8052   21.8766 C   0  0  0  0  0  0  0  0  0  0  0  0
   11.9547  -18.3324   21.0095 O   0  0  0  0  0  0  0  0  0  0  0  0
   14.0488  -17.8219   21.6218 O   0  0  0  0  0  0  0  0  0  0  0  0
  2  1  1  1
  3  2  1  0
  3  4  1  0
  4  5  2  0
  5  6  1  0
  7  6  2  0
  8  7  1  0
  9  4  1  0
  9  8  2  0
 10 11  2  0
 10  2  1  0
 12 10  1  0
 13 12  1  0
 13 14  1  6
 14 15  1  0
 15 16  1  0
 16 17  1  0
 17 18  1  0
 19 13  1  0
 20 19  2  0
 21 19  1  0
 22 21  1  0
 22 23  1  1
 24 23  1  0
 24 25  2  0
 26 25  1  0
 27 26  1  0
 28 27  2  0
 28 24  1  0
 29 22  1  0
 30 29  2  0
 31 29  1  0
M  END
$$$$
