FKH.pdb
     RDKit          3D

 31 32  0  0  1  0  0  0  0  0999 V2000
    6.5113  -16.5066   25.0309 N   0  0  0  0  0  0  0  0  0  0  0  0
    6.8413  -15.2177   24.5070 C   0  0  1  0  0  0  0  0  0  0  0  0
    7.8389  -14.4482   25.2899 C   0  0  0  0  0  0  0  0  0  0  0  0
    7.2912  -13.3936   26.1429 C   0  0  0  0  0  0  0  0  0  0  0  0
    6.3990  -12.4337   25.7106 C   0  0  0  0  0  0  0  0  0  0  0  0
    5.9323  -11.4687   26.5813 C   0  0  0  0  0  0  0  0  0  0  0  0
    6.3324  -11.4262   27.8968 C   0  0  0  0  0  0  0  0  0  0  0  0
    7.2248  -12.3827   28.3390 C   0  0  0  0  0  0  0  0  0  0  0  0
    7.6885  -13.3450   27.4654 C   0  0  0  0  0  0  0  0  0  0  0  0
    7.3855  -15.4230   23.1317 C   0  0  0  0  0  0  0  0  0  0  0  0
    7.3701  -16.5952   22.6666 O   0  0  0  0  0  0  0  0  0  0  0  0
    7.9054  -14.3902   22.3441 N   0  0  0  0  0  0  0  0  0  0  0  0
    8.5634  -14.7057   21.0706 C   0  0  1  0  0  0  0  0  0  0  0  0
    8.6754  -13.4256   20.2619 C   0  0  0  0  0  0  0  0  0  0  0  0
    7.6768  -13.4253   19.1493 C   0  0  0  0  0  0  0  0  0  0  0  0
    8.2498  -14.1758   17.9325 C   0  0  0  0  0  0  0  0  0  0  0  0
    7.2279  -14.2275   16.8503 C   0  0  0  0  0  0  0  0  0  0  0  0
    7.8060  -14.9998   15.7494 N   0  0  0  0  0  0  0  0  0  0  0  0
    9.8680  -15.3111   21.3678 C   0  0  0  0  0  0  0  0  0  0  0  0
   10.6218  -15.6269   20.3911 O   0  0  0  0  0  0  0  0  0  0  0  0
   10.3678  -15.5712   22.6622 N   0  0  0  0  0  0  0  0  0  0  0  0
   11.7087  -16.1167   22.8131 C   0  0  1  0  0  0  0  0  0  0  0  0
   12.2634  -15.7755   24.1784 C   0  0  0  0  0  0  0  0  0  0  0  0
   13.6598  -16.2384   24.2683 C   0  0  0  0  0  0  0  0  0  0  0  0
   14.5733  -16.1785   23.2333 C   0  0  0  0  0  0  0  0  0  0  0  0
   15.7372  -16.7015   23.6256 N   0  0  0  0  0  0  0  0  0  0  0  0
   15.5482  -17.0846   24.8969 C   0  0  0  0  0  0  0  0  0  0  0  0
   14.3064  -16.8139   25.2998 N   0  0  0  0  0  0  0  0  0  0  0  0
   11.7240  -17.5613   22.5413 C   0  0  0  0  0  0  0  0  0  0  0  0
   12.8279  -18.1637   22.5256 O   0  0  0  0  0  0  0  0  0  0  0  0
   10.6041  -18.3225   22.3010 O   0  0  0  0  0  0  0  0  0  0  0  0
  2  1  1  1
  3  2  1  0
  3  4  1  0
  4  5  2  0
  5  6  1  0
  7  6  2  0
  8  7  1  0
  9  4  1  0
  9  8  2  0
 10 11  2  0
 10  2  1  0
 12 10  1  0
 13 12  1  0
 13 14  1  6
 14 15  1  0
 15 16  1  0
 16 17  1  0
 17 18  1  0
 19 13  1  0
 20 19  2  0
 21 19  1  0
 22 21  1  0
 22 23  1  1
 24 23  1  0
 24 25  2  0
 26 25  1  0
 27 26  1  0
 28 27  2  0
 28 24  1  0
 29 22  1  0
 30 29  2  0
 31 29  1  0
M  END
$$$$
