FKH.pdb
     RDKit          3D

 31 32  0  0  1  0  0  0  0  0999 V2000
    5.8531  -17.7082   25.2661 N   0  0  0  0  0  0  0  0  0  0  0  0
    6.1934  -16.3225   25.1720 C   0  0  1  0  0  0  0  0  0  0  0  0
    6.5268  -15.6599   26.4566 C   0  0  0  0  0  0  0  0  0  0  0  0
    6.5585  -14.1979   26.4205 C   0  0  0  0  0  0  0  0  0  0  0  0
    7.7130  -13.4514   26.3021 C   0  0  0  0  0  0  0  0  0  0  0  0
    7.6556  -12.0718   26.2796 C   0  0  0  0  0  0  0  0  0  0  0  0
    6.4615  -11.3953   26.3729 C   0  0  0  0  0  0  0  0  0  0  0  0
    5.3005  -12.1335   26.4913 C   0  0  0  0  0  0  0  0  0  0  0  0
    5.3627  -13.5119   26.5134 C   0  0  0  0  0  0  0  0  0  0  0  0
    7.3794  -16.2164   24.2709 C   0  0  0  0  0  0  0  0  0  0  0  0
    8.2879  -17.0821   24.3970 O   0  0  0  0  0  0  0  0  0  0  0  0
    7.5293  -15.2150   23.3055 N   0  0  0  0  0  0  0  0  0  0  0  0
    8.6227  -15.3013   22.3301 C   0  0  1  0  0  0  0  0  0  0  0  0
    8.4564  -14.1740   21.3267 C   0  0  0  0  0  0  0  0  0  0  0  0
    8.2802  -14.7269   19.9489 C   0  0  0  0  0  0  0  0  0  0  0  0
    8.3540  -13.5875   18.9152 C   0  0  0  0  0  0  0  0  0  0  0  0
    8.1682  -14.1422   17.5456 C   0  0  0  0  0  0  0  0  0  0  0  0
    8.2384  -13.0166   16.6124 N   0  0  0  0  0  0  0  0  0  0  0  0
    9.8943  -15.2339   23.0616 C   0  0  0  0  0  0  0  0  0  0  0  0
    9.8653  -14.8984   24.2898 O   0  0  0  0  0  0  0  0  0  0  0  0
   11.1637  -15.5190   22.5137 N   0  0  0  0  0  0  0  0  0  0  0  0
   12.1405  -16.2421   23.3145 C   0  0  1  0  0  0  0  0  0  0  0  0
   11.5468  -17.5373   23.8227 C   0  0  0  0  0  0  0  0  0  0  0  0
   11.2920  -17.4236   25.2698 C   0  0  0  0  0  0  0  0  0  0  0  0
   11.0354  -16.2368   25.9294 C   0  0  0  0  0  0  0  0  0  0  0  0
   10.8768  -16.4690   27.2344 N   0  0  0  0  0  0  0  0  0  0  0  0
   11.0344  -17.7923   27.3853 C   0  0  0  0  0  0  0  0  0  0  0  0
   11.2841  -18.3820   26.2158 N   0  0  0  0  0  0  0  0  0  0  0  0
   13.3884  -16.4477   22.5651 C   0  0  0  0  0  0  0  0  0  0  0  0
   13.3896  -16.2494   21.3232 O   0  0  0  0  0  0  0  0  0  0  0  0
   14.5797  -16.8444   23.1262 O   0  0  0  0  0  0  0  0  0  0  0  0
  2  1  1  1
  3  2  1  0
  3  4  1  0
  4  5  2  0
  5  6  1  0
  7  6  2  0
  8  7  1  0
  9  4  1  0
  9  8  2  0
 10 11  2  0
 10  2  1  0
 12 10  1  0
 13 12  1  0
 13 14  1  6
 14 15  1  0
 15 16  1  0
 16 17  1  0
 17 18  1  0
 19 13  1  0
 20 19  2  0
 21 19  1  0
 22 21  1  0
 22 23  1  6
 24 23  1  0
 24 25  2  0
 26 25  1  0
 27 26  1  0
 28 27  2  0
 28 24  1  0
 29 22  1  0
 30 29  2  0
 31 29  1  0
M  END
$$$$
