FKH.pdb
     RDKit          3D

 31 32  0  0  1  0  0  0  0  0999 V2000
    7.0454  -16.7997   26.0660 N   0  0  0  0  0  0  0  0  0  0  0  0
    7.3231  -15.7018   25.1927 C   0  0  1  0  0  0  0  0  0  0  0  0
    8.2075  -14.6507   25.7525 C   0  0  0  0  0  0  0  0  0  0  0  0
    7.5265  -13.4564   26.2521 C   0  0  0  0  0  0  0  0  0  0  0  0
    7.8489  -12.8183   27.4324 C   0  0  0  0  0  0  0  0  0  0  0  0
    7.1523  -11.6958   27.8346 C   0  0  0  0  0  0  0  0  0  0  0  0
    6.1229  -11.1755   27.0849 C   0  0  0  0  0  0  0  0  0  0  0  0
    5.7928  -11.8068   25.9020 C   0  0  0  0  0  0  0  0  0  0  0  0
    6.4918  -12.9282   25.5041 C   0  0  0  0  0  0  0  0  0  0  0  0
    7.9767  -16.2597   23.9716 C   0  0  0  0  0  0  0  0  0  0  0  0
    8.3321  -17.4694   24.0004 O   0  0  0  0  0  0  0  0  0  0  0  0
    8.2108  -15.5139   22.8112 N   0  0  0  0  0  0  0  0  0  0  0  0
    8.6933  -16.1855   21.5986 C   0  0  1  0  0  0  0  0  0  0  0  0
    8.0831  -15.4911   20.3942 C   0  0  0  0  0  0  0  0  0  0  0  0
    6.7177  -16.0341   20.1182 C   0  0  0  0  0  0  0  0  0  0  0  0
    6.8299  -17.3673   19.3553 C   0  0  0  0  0  0  0  0  0  0  0  0
    5.4672  -17.8836   19.0478 C   0  0  0  0  0  0  0  0  0  0  0  0
    5.6349  -19.2038   18.4382 N   0  0  0  0  0  0  0  0  0  0  0  0
   10.1611  -16.1390   21.6035 C   0  0  0  0  0  0  0  0  0  0  0  0
   10.7521  -15.6695   20.5777 O   0  0  0  0  0  0  0  0  0  0  0  0
   10.9849  -16.5706   22.6656 N   0  0  0  0  0  0  0  0  0  0  0  0
   12.4312  -16.5317   22.5081 C   0  0  1  0  0  0  0  0  0  0  0  0
   12.8895  -15.1199   22.2165 C   0  0  0  0  0  0  0  0  0  0  0  0
   13.0027  -14.9340   20.7588 C   0  0  0  0  0  0  0  0  0  0  0  0
   12.7703  -15.9231   19.8224 C   0  0  0  0  0  0  0  0  0  0  0  0
   12.9845  -15.4442   18.5949 N   0  0  0  0  0  0  0  0  0  0  0  0
   13.3485  -14.1649   18.7673 C   0  0  0  0  0  0  0  0  0  0  0  0
   13.3645  -13.8409   20.0606 N   0  0  0  0  0  0  0  0  0  0  0  0
   13.1048  -17.1148   23.6774 C   0  0  0  0  0  0  0  0  0  0  0  0
   14.3619  -17.1453   23.7004 O   0  0  0  0  0  0  0  0  0  0  0  0
   12.4564  -17.6374   24.7719 O   0  0  0  0  0  0  0  0  0  0  0  0
  2  1  1  1
  3  2  1  0
  3  4  1  0
  4  5  2  0
  5  6  1  0
  7  6  2  0
  8  7  1  0
  9  4  1  0
  9  8  2  0
 10 11  2  0
 10  2  1  0
 12 10  1  0
 13 12  1  0
 13 14  1  6
 14 15  1  0
 15 16  1  0
 16 17  1  0
 17 18  1  0
 19 13  1  0
 20 19  2  0
 21 19  1  0
 22 21  1  0
 22 23  1  1
 24 23  1  0
 24 25  2  0
 26 25  1  0
 27 26  1  0
 28 27  2  0
 28 24  1  0
 29 22  1  0
 30 29  2  0
 31 29  1  0
M  END
$$$$
