FKH.pdb
     RDKit          3D

 31 32  0  0  1  0  0  0  0  0999 V2000
    7.6679  -14.6870   23.0912 N   0  0  0  0  0  0  0  0  0  0  0  0
    8.5384  -14.8537   24.2134 C   0  0  1  0  0  0  0  0  0  0  0  0
    7.8799  -14.8124   25.5419 C   0  0  0  0  0  0  0  0  0  0  0  0
    7.3224  -13.5161   25.9274 C   0  0  0  0  0  0  0  0  0  0  0  0
    7.7815  -12.7603   26.9867 C   0  0  0  0  0  0  0  0  0  0  0  0
    7.1957  -11.5461   27.2864 C   0  0  0  0  0  0  0  0  0  0  0  0
    6.1453  -11.0480   26.5511 C   0  0  0  0  0  0  0  0  0  0  0  0
    5.6788  -11.7969   25.4888 C   0  0  0  0  0  0  0  0  0  0  0  0
    6.2673  -13.0096   25.1930 C   0  0  0  0  0  0  0  0  0  0  0  0
    9.2058  -16.1812   24.0647 C   0  0  0  0  0  0  0  0  0  0  0  0
    9.2736  -16.9183   25.0858 O   0  0  0  0  0  0  0  0  0  0  0  0
    9.7527  -16.6408   22.8619 N   0  0  0  0  0  0  0  0  0  0  0  0
   10.8074  -17.6614   22.8841 C   0  0  1  0  0  0  0  0  0  0  0  0
   11.2592  -17.9112   21.4563 C   0  0  0  0  0  0  0  0  0  0  0  0
   12.2857  -18.9975   21.4189 C   0  0  0  0  0  0  0  0  0  0  0  0
   12.6951  -19.2798   19.9613 C   0  0  0  0  0  0  0  0  0  0  0  0
   13.6841  -20.3927   19.9263 C   0  0  0  0  0  0  0  0  0  0  0  0
   14.0913  -20.5626   18.5306 N   0  0  0  0  0  0  0  0  0  0  0  0
   11.8905  -17.1807   23.7516 C   0  0  0  0  0  0  0  0  0  0  0  0
   12.0250  -15.9238   23.9065 O   0  0  0  0  0  0  0  0  0  0  0  0
   12.8046  -18.0045   24.4434 N   0  0  0  0  0  0  0  0  0  0  0  0
   12.7817  -18.0311   25.8984 C   0  0  1  0  0  0  0  0  0  0  0  0
   11.3584  -18.1396   26.3988 C   0  0  0  0  0  0  0  0  0  0  0  0
   11.2584  -17.5111   27.7282 C   0  0  0  0  0  0  0  0  0  0  0  0
   11.4191  -16.1602   27.9703 C   0  0  0  0  0  0  0  0  0  0  0  0
   11.2964  -15.9165   29.2770 N   0  0  0  0  0  0  0  0  0  0  0  0
   11.0613  -17.1090   29.8440 C   0  0  0  0  0  0  0  0  0  0  0  0
   11.0347  -18.0782   28.9289 N   0  0  0  0  0  0  0  0  0  0  0  0
   13.6476  -19.0985   26.4200 C   0  0  0  0  0  0  0  0  0  0  0  0
   13.9074  -20.0833   25.6823 O   0  0  0  0  0  0  0  0  0  0  0  0
   14.2100  -19.1043   27.6750 O   0  0  0  0  0  0  0  0  0  0  0  0
  2  1  1  6
  3  2  1  0
  3  4  1  0
  4  5  2  0
  5  6  1  0
  7  6  2  0
  8  7  1  0
  9  4  1  0
  9  8  2  0
 10 11  2  0
 10  2  1  0
 12 10  1  0
 13 12  1  0
 13 14  1  6
 14 15  1  0
 15 16  1  0
 16 17  1  0
 17 18  1  0
 19 13  1  0
 20 19  2  0
 21 19  1  0
 22 21  1  0
 22 23  1  6
 24 23  1  0
 24 25  2  0
 26 25  1  0
 27 26  1  0
 28 27  2  0
 28 24  1  0
 29 22  1  0
 30 29  2  0
 31 29  1  0
M  END
$$$$
