FKH.pdb
     RDKit          3D

 31 32  0  0  1  0  0  0  0  0999 V2000
    5.8376  -17.9423   25.2435 N   0  0  0  0  0  0  0  0  0  0  0  0
    6.2454  -16.5717   25.2583 C   0  0  1  0  0  0  0  0  0  0  0  0
    6.9858  -16.1406   26.4691 C   0  0  0  0  0  0  0  0  0  0  0  0
    7.3079  -14.7152   26.5350 C   0  0  0  0  0  0  0  0  0  0  0  0
    8.5643  -14.1940   26.3025 C   0  0  0  0  0  0  0  0  0  0  0  0
    8.7850  -12.8335   26.3889 C   0  0  0  0  0  0  0  0  0  0  0  0
    7.7750  -11.9550   26.7058 C   0  0  0  0  0  0  0  0  0  0  0  0
    6.5140  -12.4668   26.9400 C   0  0  0  0  0  0  0  0  0  0  0  0
    6.2982  -13.8270   26.8525 C   0  0  0  0  0  0  0  0  0  0  0  0
    7.1264  -16.3574   24.0719 C   0  0  0  0  0  0  0  0  0  0  0  0
    8.0126  -17.2239   23.8385 O   0  0  0  0  0  0  0  0  0  0  0  0
    7.0172  -15.2551   23.2173 N   0  0  0  0  0  0  0  0  0  0  0  0
    7.9388  -15.1186   22.0830 C   0  0  1  0  0  0  0  0  0  0  0  0
    7.3850  -14.0624   21.1434 C   0  0  0  0  0  0  0  0  0  0  0  0
    8.2146  -13.9853   19.9020 C   0  0  0  0  0  0  0  0  0  0  0  0
    7.5722  -13.0034   18.9043 C   0  0  0  0  0  0  0  0  0  0  0  0
    8.3654  -12.9809   17.6440 C   0  0  0  0  0  0  0  0  0  0  0  0
    8.3017  -14.3267   17.0716 N   0  0  0  0  0  0  0  0  0  0  0  0
    9.2658  -14.7764   22.6108 C   0  0  0  0  0  0  0  0  0  0  0  0
    9.3325  -13.9782   23.6009 O   0  0  0  0  0  0  0  0  0  0  0  0
   10.4912  -15.2681   22.1114 N   0  0  0  0  0  0  0  0  0  0  0  0
   11.4617  -15.8365   23.0352 C   0  0  1  0  0  0  0  0  0  0  0  0
   10.8294  -16.9491   23.8417 C   0  0  0  0  0  0  0  0  0  0  0  0
   11.8356  -17.5266   24.7507 C   0  0  0  0  0  0  0  0  0  0  0  0
   13.1423  -17.0892   24.8526 C   0  0  0  0  0  0  0  0  0  0  0  0
   13.8017  -17.8354   25.7416 N   0  0  0  0  0  0  0  0  0  0  0  0
   12.9103  -18.7318   26.1893 C   0  0  0  0  0  0  0  0  0  0  0  0
   11.7238  -18.5611   25.6054 N   0  0  0  0  0  0  0  0  0  0  0  0
   12.6737  -16.2708   22.3256 C   0  0  0  0  0  0  0  0  0  0  0  0
   13.6295  -16.7442   22.9917 O   0  0  0  0  0  0  0  0  0  0  0  0
   12.8476  -16.2020   20.9630 O   0  0  0  0  0  0  0  0  0  0  0  0
  2  1  1  1
  3  2  1  0
  3  4  1  0
  4  5  2  0
  5  6  1  0
  7  6  2  0
  8  7  1  0
  9  4  1  0
  9  8  2  0
 10 11  2  0
 10  2  1  0
 12 10  1  0
 13 12  1  0
 13 14  1  6
 14 15  1  0
 15 16  1  0
 16 17  1  0
 17 18  1  0
 19 13  1  0
 20 19  2  0
 21 19  1  0
 22 21  1  0
 22 23  1  6
 24 23  1  0
 24 25  2  0
 26 25  1  0
 27 26  1  0
 28 27  2  0
 28 24  1  0
 29 22  1  0
 30 29  2  0
 31 29  1  0
M  END
$$$$
