FKH.pdb
     RDKit          3D

 31 32  0  0  1  0  0  0  0  0999 V2000
    6.7817  -16.8582   25.8890 N   0  0  0  0  0  0  0  0  0  0  0  0
    6.1802  -16.2990   24.7184 C   0  0  1  0  0  0  0  0  0  0  0  0
    5.4834  -15.0046   24.9167 C   0  0  0  0  0  0  0  0  0  0  0  0
    6.2075  -14.0167   25.7164 C   0  0  0  0  0  0  0  0  0  0  0  0
    7.4842  -13.5766   25.4327 C   0  0  0  0  0  0  0  0  0  0  0  0
    8.0990  -12.6423   26.2428 C   0  0  0  0  0  0  0  0  0  0  0  0
    7.4720  -12.1198   27.3501 C   0  0  0  0  0  0  0  0  0  0  0  0
    6.1941  -12.5538   27.6423 C   0  0  0  0  0  0  0  0  0  0  0  0
    5.5836  -13.4874   26.8300 C   0  0  0  0  0  0  0  0  0  0  0  0
    7.2669  -16.0948   23.7148 C   0  0  0  0  0  0  0  0  0  0  0  0
    8.2382  -16.8990   23.7340 O   0  0  0  0  0  0  0  0  0  0  0  0
    7.2593  -15.0667   22.7659 N   0  0  0  0  0  0  0  0  0  0  0  0
    8.1834  -15.1199   21.6268 C   0  0  1  0  0  0  0  0  0  0  0  0
    7.7368  -14.0923   20.6023 C   0  0  0  0  0  0  0  0  0  0  0  0
    8.0514  -14.5666   19.2198 C   0  0  0  0  0  0  0  0  0  0  0  0
    7.8603  -13.4144   18.2158 C   0  0  0  0  0  0  0  0  0  0  0  0
    8.1171  -13.9074   16.8342 C   0  0  0  0  0  0  0  0  0  0  0  0
    7.9899  -12.7580   15.9367 N   0  0  0  0  0  0  0  0  0  0  0  0
    9.5418  -14.8753   22.1284 C   0  0  0  0  0  0  0  0  0  0  0  0
    9.7146  -13.9275   22.9613 O   0  0  0  0  0  0  0  0  0  0  0  0
   10.6881  -15.6152   21.7658 N   0  0  0  0  0  0  0  0  0  0  0  0
   11.4784  -16.2609   22.8035 C   0  0  1  0  0  0  0  0  0  0  0  0
   10.5895  -17.1007   23.6939 C   0  0  0  0  0  0  0  0  0  0  0  0
   11.3989  -17.6928   24.7739 C   0  0  0  0  0  0  0  0  0  0  0  0
   11.7868  -17.0240   25.9191 C   0  0  0  0  0  0  0  0  0  0  0  0
   12.5327  -17.8267   26.6817 N   0  0  0  0  0  0  0  0  0  0  0  0
   12.6082  -18.9875   26.0143 C   0  0  0  0  0  0  0  0  0  0  0  0
   11.9329  -18.9256   24.8663 N   0  0  0  0  0  0  0  0  0  0  0  0
   12.5853  -17.0325   22.2200 C   0  0  0  0  0  0  0  0  0  0  0  0
   13.3728  -17.6400   22.9897 O   0  0  0  0  0  0  0  0  0  0  0  0
   12.8312  -17.1478   20.8718 O   0  0  0  0  0  0  0  0  0  0  0  0
  2  1  1  1
  3  2  1  0
  3  4  1  0
  4  5  2  0
  5  6  1  0
  7  6  2  0
  8  7  1  0
  9  4  1  0
  9  8  2  0
 10 11  2  0
 10  2  1  0
 12 10  1  0
 13 12  1  0
 13 14  1  6
 14 15  1  0
 15 16  1  0
 16 17  1  0
 17 18  1  0
 19 13  1  0
 20 19  2  0
 21 19  1  0
 22 21  1  0
 22 23  1  6
 24 23  1  0
 24 25  2  0
 26 25  1  0
 27 26  1  0
 28 27  2  0
 28 24  1  0
 29 22  1  0
 30 29  2  0
 31 29  1  0
M  END
$$$$
