FKH.pdb
     RDKit          3D

 31 32  0  0  1  0  0  0  0  0999 V2000
    5.8197  -17.3607   25.3308 N   0  0  0  0  0  0  0  0  0  0  0  0
    6.5034  -16.1309   25.0757 C   0  0  1  0  0  0  0  0  0  0  0  0
    6.9364  -15.3812   26.2802 C   0  0  0  0  0  0  0  0  0  0  0  0
    6.6969  -13.9386   26.2427 C   0  0  0  0  0  0  0  0  0  0  0  0
    5.4700  -13.3642   25.9801 C   0  0  0  0  0  0  0  0  0  0  0  0
    5.3299  -11.9905   25.9598 C   0  0  0  0  0  0  0  0  0  0  0  0
    6.3933  -11.1508   26.1973 C   0  0  0  0  0  0  0  0  0  0  0  0
    7.6252  -11.7160   26.4614 C   0  0  0  0  0  0  0  0  0  0  0  0
    7.7605  -13.0892   26.4807 C   0  0  0  0  0  0  0  0  0  0  0  0
    7.7163  -16.4562   24.2677 C   0  0  0  0  0  0  0  0  0  0  0  0
    8.4401  -17.4118   24.6597 O   0  0  0  0  0  0  0  0  0  0  0  0
    8.0839  -15.7603   23.1111 N   0  0  0  0  0  0  0  0  0  0  0  0
    9.3154  -16.1261   22.4012 C   0  0  1  0  0  0  0  0  0  0  0  0
    9.2091  -15.6238   20.9724 C   0  0  0  0  0  0  0  0  0  0  0  0
    8.2932  -14.4442   20.9034 C   0  0  0  0  0  0  0  0  0  0  0  0
    8.0653  -14.0447   19.4335 C   0  0  0  0  0  0  0  0  0  0  0  0
    7.1448  -12.8757   19.3700 C   0  0  0  0  0  0  0  0  0  0  0  0
    6.9252  -12.5775   17.9538 N   0  0  0  0  0  0  0  0  0  0  0  0
   10.4518  -15.5465   23.1288 C   0  0  0  0  0  0  0  0  0  0  0  0
   10.2916  -14.4166   23.6942 O   0  0  0  0  0  0  0  0  0  0  0  0
   11.7229  -16.1459   23.2624 N   0  0  0  0  0  0  0  0  0  0  0  0
   12.2617  -16.3875   24.5926 C   0  0  1  0  0  0  0  0  0  0  0  0
   11.2761  -17.1805   25.4219 C   0  0  0  0  0  0  0  0  0  0  0  0
   11.8545  -17.4406   26.7523 C   0  0  0  0  0  0  0  0  0  0  0  0
   12.8617  -16.6908   27.3290 C   0  0  0  0  0  0  0  0  0  0  0  0
   13.1800  -17.2004   28.5211 N   0  0  0  0  0  0  0  0  0  0  0  0
   12.3757  -18.2611   28.6842 C   0  0  0  0  0  0  0  0  0  0  0  0
   11.5726  -18.4204   27.6320 N   0  0  0  0  0  0  0  0  0  0  0  0
   13.5826  -17.0284   24.5181 C   0  0  0  0  0  0  0  0  0  0  0  0
   14.5895  -16.3908   24.9196 O   0  0  0  0  0  0  0  0  0  0  0  0
   13.8090  -18.2970   24.0373 O   0  0  0  0  0  0  0  0  0  0  0  0
  2  1  1  1
  3  2  1  0
  3  4  1  0
  4  5  2  0
  5  6  1  0
  7  6  2  0
  8  7  1  0
  9  4  1  0
  9  8  2  0
 10 11  2  0
 10  2  1  0
 12 10  1  0
 13 12  1  0
 13 14  1  6
 14 15  1  0
 15 16  1  0
 16 17  1  0
 17 18  1  0
 19 13  1  0
 20 19  2  0
 21 19  1  0
 22 21  1  0
 22 23  1  1
 24 23  1  0
 24 25  2  0
 26 25  1  0
 27 26  1  0
 28 27  2  0
 28 24  1  0
 29 22  1  0
 30 29  2  0
 31 29  1  0
M  END
$$$$
