PGG.pdb
     RDKit          3D

 16 16  0  0  1  0  0  0  0  0999 V2000
    8.8860  -13.2425   18.7455 N   0  0  0  0  0  0  0  0  0  0  0  0
    8.5313  -13.7452   17.4535 C   0  0  0  0  0  0  0  0  0  0  0  0
    7.2605  -14.5694   17.6311 C   0  0  0  0  0  0  0  0  0  0  0  0
    7.3624  -14.9200   19.1208 C   0  0  0  0  0  0  0  0  0  0  0  0
    7.8407  -13.5682   19.6652 C   0  0  1  0  0  0  0  0  0  0  0  0
    8.2776  -13.6596   21.0596 C   0  0  0  0  0  0  0  0  0  0  0  0
    9.4945  -13.4877   21.3258 O   0  0  0  0  0  0  0  0  0  0  0  0
    7.3978  -13.9338   22.1401 N   0  0  0  0  0  0  0  0  0  0  0  0
    7.8052  -13.8954   23.5233 C   0  0  0  0  0  0  0  0  0  0  0  0
    8.5099  -15.1585   23.8758 C   0  0  0  0  0  0  0  0  0  0  0  0
    8.7279  -15.4656   25.0767 O   0  0  0  0  0  0  0  0  0  0  0  0
    8.9560  -16.0521   22.8706 N   0  0  0  0  0  0  0  0  0  0  0  0
    9.5594  -17.3293   23.2752 C   0  0  0  0  0  0  0  0  0  0  0  0
   11.0260  -17.2036   23.4010 C   0  0  0  0  0  0  0  0  0  0  0  0
   11.6431  -16.1547   23.0701 O   0  0  0  0  0  0  0  0  0  0  0  0
   11.7155  -18.2975   23.9045 O   0  0  0  0  0  0  0  0  0  0  0  0
  1  2  1  0
  1  5  1  0
  2  3  1  0
  4  3  1  0
  5  4  1  0
  6  7  2  0
  5  6  1  1
  8  6  1  0
  9  8  1  0
 10  9  1  0
 10 12  1  0
 11 10  2  0
 13 12  1  0
 14 13  1  0
 15 14  2  0
 16 14  1  0
M  END
$$$$
