PGG.pdb
     RDKit          3D

 16 16  0  0  1  0  0  0  0  0999 V2000
    9.6465  -14.1973   19.1501 N   0  0  0  0  0  0  0  0  0  0  0  0
    9.2140  -13.6951   17.8818 C   0  0  0  0  0  0  0  0  0  0  0  0
    8.0618  -12.7340   18.1541 C   0  0  0  0  0  0  0  0  0  0  0  0
    7.5877  -13.2479   19.5194 C   0  0  0  0  0  0  0  0  0  0  0  0
    8.9490  -13.4945   20.1817 C   0  0  1  0  0  0  0  0  0  0  0  0
    8.8244  -14.2408   21.4351 C   0  0  0  0  0  0  0  0  0  0  0  0
    8.1701  -13.7319   22.3808 O   0  0  0  0  0  0  0  0  0  0  0  0
    9.4055  -15.5190   21.6471 N   0  0  0  0  0  0  0  0  0  0  0  0
    9.3314  -16.2250   22.9028 C   0  0  0  0  0  0  0  0  0  0  0  0
   10.7016  -16.4264   23.4488 C   0  0  0  0  0  0  0  0  0  0  0  0
   10.8917  -17.1151   24.4849 O   0  0  0  0  0  0  0  0  0  0  0  0
   11.8321  -15.8493   22.8187 N   0  0  0  0  0  0  0  0  0  0  0  0
   13.1726  -16.2119   23.2985 C   0  0  0  0  0  0  0  0  0  0  0  0
   14.2183  -15.5311   22.5075 C   0  0  0  0  0  0  0  0  0  0  0  0
   13.9555  -14.8898   21.4538 O   0  0  0  0  0  0  0  0  0  0  0  0
   15.5235  -15.6218   22.9701 O   0  0  0  0  0  0  0  0  0  0  0  0
  1  2  1  0
  1  5  1  0
  2  3  1  0
  4  3  1  0
  5  4  1  0
  6  7  2  0
  5  6  1  1
  8  6  1  0
  9  8  1  0
 10  9  1  0
 10 12  1  0
 11 10  2  0
 13 12  1  0
 14 13  1  0
 15 14  2  0
 16 14  1  0
M  END
$$$$
