PGG.pdb
     RDKit          3D

 16 16  0  0  1  0  0  0  0  0999 V2000
    8.4758  -14.8650   18.9254 N   0  0  0  0  0  0  0  0  0  0  0  0
    8.1778  -14.3165   17.6376 C   0  0  0  0  0  0  0  0  0  0  0  0
    7.6415  -12.9076   17.8683 C   0  0  0  0  0  0  0  0  0  0  0  0
    7.1489  -13.0311   19.3157 C   0  0  0  0  0  0  0  0  0  0  0  0
    8.3096  -13.8399   19.9083 C   0  0  1  0  0  0  0  0  0  0  0  0
    8.0035  -14.3409   21.2494 C   0  0  0  0  0  0  0  0  0  0  0  0
    7.9282  -13.5211   22.1999 O   0  0  0  0  0  0  0  0  0  0  0  0
    7.7844  -15.7131   21.5422 N   0  0  0  0  0  0  0  0  0  0  0  0
    7.4974  -16.2048   22.8675 C   0  0  0  0  0  0  0  0  0  0  0  0
    8.7036  -16.8725   23.4290 C   0  0  0  0  0  0  0  0  0  0  0  0
    8.6696  -17.4310   24.5563 O   0  0  0  0  0  0  0  0  0  0  0  0
    9.9254  -16.8993   22.7115 N   0  0  0  0  0  0  0  0  0  0  0  0
   11.1073  -17.4974   23.3473 C   0  0  0  0  0  0  0  0  0  0  0  0
   12.1633  -16.4855   23.5555 C   0  0  0  0  0  0  0  0  0  0  0  0
   12.2097  -15.4138   22.8922 O   0  0  0  0  0  0  0  0  0  0  0  0
   13.1206  -16.7573   24.5226 O   0  0  0  0  0  0  0  0  0  0  0  0
  1  2  1  0
  1  5  1  0
  2  3  1  0
  4  3  1  0
  5  4  1  0
  6  7  2  0
  5  6  1  1
  8  6  1  0
  9  8  1  0
 10  9  1  0
 10 12  1  0
 11 10  2  0
 13 12  1  0
 14 13  1  0
 15 14  2  0
 16 14  1  0
M  END
$$$$
