PGG.pdb
     RDKit          3D

 16 16  0  0  1  0  0  0  0  0999 V2000
    6.0593  -13.1675   25.9665 N   0  0  0  0  0  0  0  0  0  0  0  0
    5.9181  -12.4993   27.2240 C   0  0  0  0  0  0  0  0  0  0  0  0
    6.6339  -11.1586   27.0974 C   0  0  0  0  0  0  0  0  0  0  0  0
    7.6063  -11.4697   25.9526 C   0  0  0  0  0  0  0  0  0  0  0  0
    6.6700  -12.2685   25.0374 C   0  0  1  0  0  0  0  0  0  0  0  0
    7.3948  -12.9313   23.9516 C   0  0  0  0  0  0  0  0  0  0  0  0
    8.0053  -12.2238   23.1102 O   0  0  0  0  0  0  0  0  0  0  0  0
    7.4488  -14.3414   23.7919 N   0  0  0  0  0  0  0  0  0  0  0  0
    8.1705  -14.9911   22.7253 C   0  0  0  0  0  0  0  0  0  0  0  0
    9.4623  -15.5212   23.2414 C   0  0  0  0  0  0  0  0  0  0  0  0
   10.2308  -16.1891   22.5016 O   0  0  0  0  0  0  0  0  0  0  0  0
    9.8651  -15.2899   24.5802 N   0  0  0  0  0  0  0  0  0  0  0  0
   11.0877  -15.9381   25.0742 C   0  0  0  0  0  0  0  0  0  0  0  0
   10.7657  -16.9908   26.0593 C   0  0  0  0  0  0  0  0  0  0  0  0
    9.5900  -17.4119   26.2354 O   0  0  0  0  0  0  0  0  0  0  0  0
   11.8185  -17.5111   26.7987 O   0  0  0  0  0  0  0  0  0  0  0  0
  1  2  1  0
  1  5  1  0
  2  3  1  0
  4  3  1  0
  5  4  1  0
  6  7  2  0
  5  6  1  6
  8  6  1  0
  9  8  1  0
 10  9  1  0
 10 12  1  0
 11 10  2  0
 13 12  1  0
 14 13  1  0
 15 14  2  0
 16 14  1  0
M  END
$$$$
