PGG.pdb
     RDKit          3D

 16 16  0  0  1  0  0  0  0  0999 V2000
    8.3575  -14.7822   19.1636 N   0  0  0  0  0  0  0  0  0  0  0  0
    8.1689  -14.0763   17.9331 C   0  0  0  0  0  0  0  0  0  0  0  0
    7.7926  -12.6437   18.2961 C   0  0  0  0  0  0  0  0  0  0  0  0
    7.2404  -12.8515   19.7120 C   0  0  0  0  0  0  0  0  0  0  0  0
    8.2786  -13.8478   20.2431 C   0  0  1  0  0  0  0  0  0  0  0  0
    7.8712  -14.4402   21.5185 C   0  0  0  0  0  0  0  0  0  0  0  0
    7.9071  -13.7298   22.5554 O   0  0  0  0  0  0  0  0  0  0  0  0
    7.4335  -15.7843   21.6539 N   0  0  0  0  0  0  0  0  0  0  0  0
    7.0026  -16.3552   22.9065 C   0  0  0  0  0  0  0  0  0  0  0  0
    8.1396  -17.0654   23.5537 C   0  0  0  0  0  0  0  0  0  0  0  0
    7.9664  -17.7550   24.5922 O   0  0  0  0  0  0  0  0  0  0  0  0
    9.4501  -16.9864   23.0204 N   0  0  0  0  0  0  0  0  0  0  0  0
   10.5226  -17.7618   23.6585 C   0  0  0  0  0  0  0  0  0  0  0  0
   11.4666  -16.8731   24.3668 C   0  0  0  0  0  0  0  0  0  0  0  0
   11.2041  -15.6623   24.6026 O   0  0  0  0  0  0  0  0  0  0  0  0
   12.6742  -17.4240   24.7718 O   0  0  0  0  0  0  0  0  0  0  0  0
  1  2  1  0
  1  5  1  0
  2  3  1  0
  4  3  1  0
  5  4  1  0
  6  7  2  0
  5  6  1  1
  8  6  1  0
  9  8  1  0
 10  9  1  0
 10 12  1  0
 11 10  2  0
 13 12  1  0
 14 13  1  0
 15 14  2  0
 16 14  1  0
M  END
$$$$
