PGG.pdb
     RDKit          3D

 16 16  0  0  1  0  0  0  0  0999 V2000
    9.2025  -13.9692   19.1926 N   0  0  0  0  0  0  0  0  0  0  0  0
    8.2512  -13.5610   18.2045 C   0  0  0  0  0  0  0  0  0  0  0  0
    6.9934  -13.1289   18.9509 C   0  0  0  0  0  0  0  0  0  0  0  0
    7.1735  -13.8961   20.2669 C   0  0  0  0  0  0  0  0  0  0  0  0
    8.6744  -13.6690   20.4870 C   0  0  1  0  0  0  0  0  0  0  0  0
    9.2070  -14.5102   21.5603 C   0  0  0  0  0  0  0  0  0  0  0  0
    9.7246  -15.6169   21.2626 O   0  0  0  0  0  0  0  0  0  0  0  0
    9.1727  -14.1452   22.9323 N   0  0  0  0  0  0  0  0  0  0  0  0
    9.6738  -14.9888   23.9896 C   0  0  0  0  0  0  0  0  0  0  0  0
    8.8242  -16.2054   24.1084 C   0  0  0  0  0  0  0  0  0  0  0  0
    7.5684  -16.1219   24.1054 O   0  0  0  0  0  0  0  0  0  0  0  0
    9.4035  -17.4931   24.2284 N   0  0  0  0  0  0  0  0  0  0  0  0
   10.4207  -17.7185   25.2644 C   0  0  0  0  0  0  0  0  0  0  0  0
   11.6997  -18.1490   24.6633 C   0  0  0  0  0  0  0  0  0  0  0  0
   12.7607  -17.4780   24.7846 O   0  0  0  0  0  0  0  0  0  0  0  0
   11.6959  -19.3378   23.9475 O   0  0  0  0  0  0  0  0  0  0  0  0
  1  2  1  0
  1  5  1  0
  2  3  1  0
  4  3  1  0
  5  4  1  0
  6  7  2  0
  5  6  1  1
  8  6  1  0
  9  8  1  0
 10  9  1  0
 10 12  1  0
 11 10  2  0
 13 12  1  0
 14 13  1  0
 15 14  2  0
 16 14  1  0
M  END
$$$$
