PGG.pdb
     RDKit          3D

 16 16  0  0  1  0  0  0  0  0999 V2000
    7.5071  -15.1596   19.8766 N   0  0  0  0  0  0  0  0  0  0  0  0
    6.8154  -14.6080   18.7518 C   0  0  0  0  0  0  0  0  0  0  0  0
    7.3707  -13.2045   18.5336 C   0  0  0  0  0  0  0  0  0  0  0  0
    7.9151  -12.9000   19.9349 C   0  0  0  0  0  0  0  0  0  0  0  0
    8.5492  -14.2584   20.2590 C   0  0  1  0  0  0  0  0  0  0  0  0
    8.9426  -14.3609   21.6656 C   0  0  0  0  0  0  0  0  0  0  0  0
   10.0139  -13.8168   22.0363 O   0  0  0  0  0  0  0  0  0  0  0  0
    8.1766  -15.0462   22.6455 N   0  0  0  0  0  0  0  0  0  0  0  0
    8.4897  -15.0253   24.0534 C   0  0  0  0  0  0  0  0  0  0  0  0
    9.5355  -16.0419   24.3518 C   0  0  0  0  0  0  0  0  0  0  0  0
    9.8292  -16.3406   25.5386 O   0  0  0  0  0  0  0  0  0  0  0  0
   10.2311  -16.7032   23.3092 N   0  0  0  0  0  0  0  0  0  0  0  0
   11.1778  -17.7720   23.6560 C   0  0  0  0  0  0  0  0  0  0  0  0
   12.5728  -17.3197   23.4777 C   0  0  0  0  0  0  0  0  0  0  0  0
   12.8667  -16.1137   23.2545 O   0  0  0  0  0  0  0  0  0  0  0  0
   13.5681  -18.2827   23.5655 O   0  0  0  0  0  0  0  0  0  0  0  0
  1  2  1  0
  1  5  1  0
  2  3  1  0
  4  3  1  0
  5  4  1  0
  6  7  2  0
  5  6  1  1
  8  6  1  0
  9  8  1  0
 10  9  1  0
 10 12  1  0
 11 10  2  0
 13 12  1  0
 14 13  1  0
 15 14  2  0
 16 14  1  0
M  END
$$$$
