CVM.pdb
     RDKit          3D

 22 21  0  0  1  0  0  0  0  0999 V2000
   24.3625  -21.1524  -10.8016 N   0  0  0  0  0  0  0  0  0  0  0  0
   24.0929  -20.9611  -12.2168 C   0  0  1  0  0  0  0  0  0  0  0  0
   22.5991  -20.8647  -12.4619 C   0  0  0  0  0  0  0  0  0  0  0  0
   21.8538  -22.4930  -12.1708 S   0  0  0  0  0  0  0  0  0  0  0  0
   24.8042  -19.7558  -12.7135 C   0  0  0  0  0  0  0  0  0  0  0  0
   24.8092  -18.7050  -12.0372 O   0  0  0  0  0  0  0  0  0  0  0  0
   28.5337  -19.2179  -13.7400 C   0  0  0  0  0  0  0  0  0  0  0  0
   27.6193  -18.8182  -14.8847 C   0  0  1  0  0  0  0  0  0  0  0  0
   27.6908  -19.7885  -16.0268 C   0  0  0  0  0  0  0  0  0  0  0  0
   26.2099  -18.5694  -14.4195 C   0  0  2  0  0  0  0  0  0  0  0  0
   25.5080  -19.6968  -13.9443 N   0  0  0  0  0  0  0  0  0  0  0  0
   25.4870  -18.0276  -15.6044 C   0  0  0  0  0  0  0  0  0  0  0  0
   24.8630  -18.8683  -16.3251 O   0  0  0  0  0  0  0  0  0  0  0  0
   20.8912  -13.5162  -15.6325 C   0  0  0  0  0  0  0  0  0  0  0  0
   21.7950  -13.1644  -17.1920 S   0  0  0  0  0  0  0  0  0  0  0  0
   22.9405  -14.4043  -17.6306 C   0  0  0  0  0  0  0  0  0  0  0  0
   23.7869  -15.1003  -16.6847 C   0  0  0  0  0  0  0  0  0  0  0  0
   24.7063  -16.1832  -17.0516 C   0  0  2  0  0  0  0  0  0  0  0  0
   25.4913  -16.6494  -15.9150 N   0  0  0  0  0  0  0  0  0  0  0  0
   25.5841  -15.9085  -18.1819 C   0  0  0  0  0  0  0  0  0  0  0  0
   26.8290  -15.6621  -17.8328 O   0  0  0  0  0  0  0  0  0  0  0  0
   25.3715  -15.8506  -19.5140 O   0  0  0  0  0  0  0  0  0  0  0  0
  2  1  1  1
  2  5  1  0
  3  2  1  0
  4  3  1  0
  5 11  1  0
  5  6  2  0
  8  7  1  1
  8 10  1  0
  8  9  1  0
 10 12  1  0
 10 11  1  6
 12 13  2  0
 14 15  1  0
 15 16  1  0
 16 17  1  0
 18 17  1  1
 18 20  1  0
 19 12  1  0
 19 18  1  0
 20 22  1  0
 21 20  2  0
M  END
$$$$
