CVM.pdb
     RDKit          3D

 22 21  0  0  1  0  0  0  0  0999 V2000
   13.7573   -9.8438  -14.2935 N   0  0  0  0  0  0  0  0  0  0  0  0
   15.0431  -10.0579  -13.6510 C   0  0  1  0  0  0  0  0  0  0  0  0
   15.9759  -10.8169  -14.5754 C   0  0  0  0  0  0  0  0  0  0  0  0
   15.7094  -12.5961  -14.3408 S   0  0  0  0  0  0  0  0  0  0  0  0
   15.6288   -8.7580  -13.2354 C   0  0  0  0  0  0  0  0  0  0  0  0
   15.5998   -7.7784  -14.0107 O   0  0  0  0  0  0  0  0  0  0  0  0
   16.5603   -8.0532   -9.1712 C   0  0  0  0  0  0  0  0  0  0  0  0
   16.4357   -6.8877  -10.1368 C   0  0  1  0  0  0  0  0  0  0  0  0
   17.2137   -5.6903   -9.6765 C   0  0  0  0  0  0  0  0  0  0  0  0
   16.7655   -7.2886  -11.5494 C   0  0  2  0  0  0  0  0  0  0  0  0
   16.2442   -8.5272  -11.9778 N   0  0  0  0  0  0  0  0  0  0  0  0
   18.2528   -7.3556  -11.6096 C   0  0  0  0  0  0  0  0  0  0  0  0
   18.7855   -8.4718  -11.3167 O   0  0  0  0  0  0  0  0  0  0  0  0
   23.4312   -9.2353  -16.1898 C   0  0  0  0  0  0  0  0  0  0  0  0
   21.7279   -8.9156  -15.5822 S   0  0  0  0  0  0  0  0  0  0  0  0
   21.6566   -7.7592  -14.2786 C   0  0  0  0  0  0  0  0  0  0  0  0
   20.4406   -7.3888  -13.5860 C   0  0  0  0  0  0  0  0  0  0  0  0
   20.3950   -6.4582  -12.4527 C   0  0  2  0  0  0  0  0  0  0  0  0
   19.0358   -6.2376  -11.9741 N   0  0  0  0  0  0  0  0  0  0  0  0
   21.0618   -5.1793  -12.6607 C   0  0  0  0  0  0  0  0  0  0  0  0
   20.2458   -4.2153  -13.0311 O   0  0  0  0  0  0  0  0  0  0  0  0
   22.3503   -4.7900  -12.5546 O   0  0  0  0  0  0  0  0  0  0  0  0
  2  1  1  6
  2  5  1  0
  3  2  1  0
  4  3  1  0
  5 11  1  0
  5  6  2  0
  8  7  1  1
  8 10  1  0
  8  9  1  0
 10 12  1  0
 10 11  1  1
 12 13  2  0
 14 15  1  0
 15 16  1  0
 16 17  1  0
 18 17  1  6
 18 20  1  0
 19 12  1  0
 19 18  1  0
 20 22  1  0
 21 20  2  0
M  END
$$$$
