CVM.pdb
     RDKit          3D

 22 21  0  0  1  0  0  0  0  0999 V2000
   28.8465  -21.2511  -18.0700 N   0  0  0  0  0  0  0  0  0  0  0  0
   28.0435  -21.9781  -17.1011 C   0  0  1  0  0  0  0  0  0  0  0  0
   28.9320  -22.8126  -16.1982 C   0  0  0  0  0  0  0  0  0  0  0  0
   29.7142  -24.1144  -17.1908 S   0  0  0  0  0  0  0  0  0  0  0  0
   27.2081  -21.0324  -16.3182 C   0  0  0  0  0  0  0  0  0  0  0  0
   27.5930  -19.8580  -16.1330 O   0  0  0  0  0  0  0  0  0  0  0  0
   24.0154  -19.3450  -17.0317 C   0  0  0  0  0  0  0  0  0  0  0  0
   23.8070  -20.1446  -15.7576 C   0  0  1  0  0  0  0  0  0  0  0  0
   22.9640  -21.3637  -15.9903 C   0  0  0  0  0  0  0  0  0  0  0  0
   25.1085  -20.4591  -15.0705 C   0  0  2  0  0  0  0  0  0  0  0  0
   25.9565  -21.3665  -15.7390 N   0  0  0  0  0  0  0  0  0  0  0  0
   24.7340  -21.0453  -13.7528 C   0  0  0  0  0  0  0  0  0  0  0  0
   24.4363  -22.2808  -13.7423 O   0  0  0  0  0  0  0  0  0  0  0  0
   27.2554  -19.4779   -7.7899 C   0  0  0  0  0  0  0  0  0  0  0  0
   25.5977  -20.1723   -7.4126 S   0  0  0  0  0  0  0  0  0  0  0  0
   24.7822  -20.8308   -8.8065 C   0  0  0  0  0  0  0  0  0  0  0  0
   25.0366  -20.4141  -10.1693 C   0  0  0  0  0  0  0  0  0  0  0  0
   24.2792  -20.8988  -11.3285 C   0  0  2  0  0  0  0  0  0  0  0  0
   24.7105  -20.2709  -12.5714 N   0  0  0  0  0  0  0  0  0  0  0  0
   22.8288  -20.8214  -11.2103 C   0  0  0  0  0  0  0  0  0  0  0  0
   22.3145  -21.7510  -10.4334 O   0  0  0  0  0  0  0  0  0  0  0  0
   21.9092  -19.9895  -11.7445 O   0  0  0  0  0  0  0  0  0  0  0  0
  2  1  1  6
  2  5  1  0
  3  2  1  0
  4  3  1  0
  5 11  1  0
  5  6  2  0
  8  7  1  6
  8 10  1  0
  8  9  1  0
 10 12  1  0
 10 11  1  6
 12 13  2  0
 14 15  1  0
 15 16  1  0
 16 17  1  0
 18 17  1  1
 18 20  1  0
 19 12  1  0
 19 18  1  0
 20 22  1  0
 21 20  2  0
M  END
$$$$
