CVM.pdb
     RDKit          3D

 22 21  0  0  1  0  0  0  0  0999 V2000
   25.0703  -18.2404  -16.5305 N   0  0  0  0  0  0  0  0  0  0  0  0
   25.5424  -16.9497  -16.0578 C   0  0  1  0  0  0  0  0  0  0  0  0
   26.9186  -16.6515  -16.6218 C   0  0  0  0  0  0  0  0  0  0  0  0
   28.0719  -17.9317  -16.0537 S   0  0  0  0  0  0  0  0  0  0  0  0
   24.5672  -15.8879  -16.4139 C   0  0  0  0  0  0  0  0  0  0  0  0
   24.0390  -15.8729  -17.5463 O   0  0  0  0  0  0  0  0  0  0  0  0
   21.1319  -15.0146  -15.1109 C   0  0  0  0  0  0  0  0  0  0  0  0
   22.0113  -13.7860  -14.9582 C   0  0  1  0  0  0  0  0  0  0  0  0
   22.3577  -13.5171  -13.5234 C   0  0  0  0  0  0  0  0  0  0  0  0
   23.2233  -13.8463  -15.8484 C   0  0  2  0  0  0  0  0  0  0  0  0
   24.1691  -14.8454  -15.5373 N   0  0  0  0  0  0  0  0  0  0  0  0
   23.8815  -12.5158  -15.7192 C   0  0  0  0  0  0  0  0  0  0  0  0
   24.8251  -12.4264  -14.8725 O   0  0  0  0  0  0  0  0  0  0  0  0
   28.3410   -6.8895  -17.4904 C   0  0  0  0  0  0  0  0  0  0  0  0
   27.6597   -8.5892  -17.3510 S   0  0  0  0  0  0  0  0  0  0  0  0
   25.9223   -8.6588  -17.4864 C   0  0  0  0  0  0  0  0  0  0  0  0
   25.1467   -9.8764  -17.3804 C   0  0  0  0  0  0  0  0  0  0  0  0
   24.1712  -10.1356  -16.3156 C   0  0  2  0  0  0  0  0  0  0  0  0
   23.4809  -11.4066  -16.4971 N   0  0  0  0  0  0  0  0  0  0  0  0
   23.2020   -9.0738  -16.0773 C   0  0  0  0  0  0  0  0  0  0  0  0
   22.0214   -9.3110  -16.6084 O   0  0  0  0  0  0  0  0  0  0  0  0
   23.2777   -7.8937  -15.4255 O   0  0  0  0  0  0  0  0  0  0  0  0
  2  1  1  6
  2  5  1  0
  3  2  1  0
  4  3  1  0
  5 11  1  0
  5  6  2  0
  8  7  1  1
  8 10  1  0
  8  9  1  0
 10 12  1  0
 10 11  1  1
 12 13  2  0
 14 15  1  0
 15 16  1  0
 16 17  1  0
 18 17  1  6
 18 20  1  0
 19 12  1  0
 19 18  1  0
 20 22  1  0
 21 20  2  0
M  END
$$$$
