CVM.pdb
     RDKit          3D

 22 21  0  0  1  0  0  0  0  0999 V2000
   14.1654  -11.1214  -10.5785 N   0  0  0  0  0  0  0  0  0  0  0  0
   15.3197  -10.4564   -9.9977 C   0  0  1  0  0  0  0  0  0  0  0  0
   16.6013  -11.1266  -10.4551 C   0  0  0  0  0  0  0  0  0  0  0  0
   16.7703  -12.7133   -9.5916 S   0  0  0  0  0  0  0  0  0  0  0  0
   15.3065   -9.0130  -10.3468 C   0  0  0  0  0  0  0  0  0  0  0  0
   15.0552   -8.6510  -11.5162 O   0  0  0  0  0  0  0  0  0  0  0  0
   15.4177   -6.1898   -7.2350 C   0  0  0  0  0  0  0  0  0  0  0  0
   14.9235   -5.7284   -8.5949 C   0  0  1  0  0  0  0  0  0  0  0  0
   15.1798   -4.2674   -8.8204 C   0  0  0  0  0  0  0  0  0  0  0  0
   15.4520   -6.5911   -9.7090 C   0  0  2  0  0  0  0  0  0  0  0  0
   15.5665   -7.9676   -9.4232 N   0  0  0  0  0  0  0  0  0  0  0  0
   16.8086   -6.0583  -10.0187 C   0  0  0  0  0  0  0  0  0  0  0  0
   17.6952   -6.1984   -9.1190 O   0  0  0  0  0  0  0  0  0  0  0  0
   20.5202   -8.8860  -13.6718 C   0  0  0  0  0  0  0  0  0  0  0  0
   21.5714   -7.5730  -12.9346 S   0  0  0  0  0  0  0  0  0  0  0  0
   20.6660   -6.2105  -12.3299 C   0  0  0  0  0  0  0  0  0  0  0  0
   19.2628   -6.2588  -11.9773 C   0  0  0  0  0  0  0  0  0  0  0  0
   18.4843   -5.0894  -11.5545 C   0  0  2  0  0  0  0  0  0  0  0  0
   17.0998   -5.4290  -11.2496 N   0  0  0  0  0  0  0  0  0  0  0  0
   18.5279   -3.9445  -12.4550 C   0  0  0  0  0  0  0  0  0  0  0  0
   17.4307   -3.7931  -13.1660 O   0  0  0  0  0  0  0  0  0  0  0  0
   19.4725   -3.0136  -12.7082 O   0  0  0  0  0  0  0  0  0  0  0  0
  2  1  1  6
  2  5  1  0
  3  2  1  0
  4  3  1  0
  5 11  1  0
  5  6  2  0
  8  7  1  1
  8 10  1  0
  8  9  1  0
 10 12  1  0
 10 11  1  1
 12 13  2  0
 14 15  1  0
 15 16  1  0
 16 17  1  0
 18 17  1  6
 18 20  1  0
 19 12  1  0
 19 18  1  0
 20 22  1  0
 21 20  2  0
M  END
$$$$
