CVM.pdb
     RDKit          3D

 22 21  0  0  1  0  0  0  0  0999 V2000
   27.2702  -21.4288  -10.2665 N   0  0  0  0  0  0  0  0  0  0  0  0
   25.8819  -21.0233  -10.4082 C   0  0  1  0  0  0  0  0  0  0  0  0
   25.5948  -19.8102   -9.5438 C   0  0  0  0  0  0  0  0  0  0  0  0
   25.5736  -20.3251   -7.8043 S   0  0  0  0  0  0  0  0  0  0  0  0
   25.5704  -20.7594  -11.8360 C   0  0  0  0  0  0  0  0  0  0  0  0
   26.3857  -20.1418  -12.5540 O   0  0  0  0  0  0  0  0  0  0  0  0
   25.2842  -23.1271  -14.7737 C   0  0  0  0  0  0  0  0  0  0  0  0
   23.9618  -22.4062  -14.5791 C   0  0  1  0  0  0  0  0  0  0  0  0
   22.9321  -23.2849  -13.9321 C   0  0  0  0  0  0  0  0  0  0  0  0
   24.1360  -21.0918  -13.8672 C   0  0  2  0  0  0  0  0  0  0  0  0
   24.3731  -21.1679  -12.4789 N   0  0  0  0  0  0  0  0  0  0  0  0
   22.8659  -20.3448  -14.0894 C   0  0  0  0  0  0  0  0  0  0  0  0
   21.9609  -20.4841  -13.2079 O   0  0  0  0  0  0  0  0  0  0  0  0
   22.0231  -14.8553  -17.9744 C   0  0  0  0  0  0  0  0  0  0  0  0
   20.3720  -15.6562  -17.9044 S   0  0  0  0  0  0  0  0  0  0  0  0
   20.2949  -17.0027  -16.7985 C   0  0  0  0  0  0  0  0  0  0  0  0
   21.4466  -17.7640  -16.3632 C   0  0  0  0  0  0  0  0  0  0  0  0
   21.3800  -18.8741  -15.4063 C   0  0  2  0  0  0  0  0  0  0  0  0
   22.6730  -19.5213  -15.2209 N   0  0  0  0  0  0  0  0  0  0  0  0
   20.3569  -19.8766  -15.6747 C   0  0  0  0  0  0  0  0  0  0  0  0
   19.1929  -19.5994  -15.1263 O   0  0  0  0  0  0  0  0  0  0  0  0
   20.3689  -21.0348  -16.3686 O   0  0  0  0  0  0  0  0  0  0  0  0
  2  1  1  6
  2  5  1  0
  3  2  1  0
  4  3  1  0
  5 11  1  0
  5  6  2  0
  8  7  1  1
  8 10  1  0
  8  9  1  0
 10 12  1  0
 10 11  1  1
 12 13  2  0
 14 15  1  0
 15 16  1  0
 16 17  1  0
 18 17  1  6
 18 20  1  0
 19 12  1  0
 19 18  1  0
 20 22  1  0
 21 20  2  0
M  END
$$$$
