CVM.pdb
     RDKit          3D

 22 21  0  0  1  0  0  0  0  0999 V2000
   29.9424  -24.1431  -16.1479 N   0  0  0  0  0  0  0  0  0  0  0  0
   28.8774  -23.5579  -16.9450 C   0  0  1  0  0  0  0  0  0  0  0  0
   27.8914  -24.6270  -17.3759 C   0  0  0  0  0  0  0  0  0  0  0  0
   28.7643  -25.8504  -18.3923 S   0  0  0  0  0  0  0  0  0  0  0  0
   28.2060  -22.4744  -16.1831 C   0  0  0  0  0  0  0  0  0  0  0  0
   28.1043  -22.5495  -14.9399 O   0  0  0  0  0  0  0  0  0  0  0  0
   27.5481  -18.8226  -18.1057 C   0  0  0  0  0  0  0  0  0  0  0  0
   27.5011  -18.8512  -16.5881 C   0  0  1  0  0  0  0  0  0  0  0  0
   26.6374  -17.7578  -16.0316 C   0  0  0  0  0  0  0  0  0  0  0  0
   27.1303  -20.2113  -16.0613 C   0  0  2  0  0  0  0  0  0  0  0  0
   27.6472  -21.3123  -16.7755 N   0  0  0  0  0  0  0  0  0  0  0  0
   25.6424  -20.2695  -16.1152 C   0  0  0  0  0  0  0  0  0  0  0  0
   25.1255  -20.6299  -17.2189 O   0  0  0  0  0  0  0  0  0  0  0  0
   18.8960  -21.4719  -12.1012 C   0  0  0  0  0  0  0  0  0  0  0  0
   20.7046  -21.1618  -12.0267 S   0  0  0  0  0  0  0  0  0  0  0  0
   21.4053  -20.7407  -13.5673 C   0  0  0  0  0  0  0  0  0  0  0  0
   22.8133  -20.4760  -13.7749 C   0  0  0  0  0  0  0  0  0  0  0  0
   23.4020  -20.1536  -15.0795 C   0  0  2  0  0  0  0  0  0  0  0  0
   24.8421  -19.9421  -14.9979 N   0  0  0  0  0  0  0  0  0  0  0  0
   22.7778  -19.0493  -15.7966 C   0  0  0  0  0  0  0  0  0  0  0  0
   23.3856  -17.8957  -15.6171 O   0  0  0  0  0  0  0  0  0  0  0  0
   21.6971  -18.9746  -16.6026 O   0  0  0  0  0  0  0  0  0  0  0  0
  2  1  1  1
  2  5  1  0
  3  2  1  0
  4  3  1  0
  5 11  1  0
  5  6  2  0
  8  7  1  6
  8 10  1  0
  8  9  1  0
 10 12  1  0
 10 11  1  6
 12 13  2  0
 14 15  1  0
 15 16  1  0
 16 17  1  0
 18 17  1  1
 18 20  1  0
 19 12  1  0
 19 18  1  0
 20 22  1  0
 21 20  2  0
M  END
$$$$
