CVM.pdb
     RDKit          3D

 22 21  0  0  1  0  0  0  0  0999 V2000
   16.5638  -15.0485  -17.2656 N   0  0  0  0  0  0  0  0  0  0  0  0
   17.4623  -14.4187  -16.3127 C   0  0  1  0  0  0  0  0  0  0  0  0
   18.5359  -15.3959  -15.8732 C   0  0  0  0  0  0  0  0  0  0  0  0
   17.7898  -16.6222  -14.7636 S   0  0  0  0  0  0  0  0  0  0  0  0
   18.0535  -13.1910  -16.9033 C   0  0  0  0  0  0  0  0  0  0  0  0
   18.5708  -13.2261  -18.0403 O   0  0  0  0  0  0  0  0  0  0  0  0
   16.1849  -10.0822  -17.1648 C   0  0  0  0  0  0  0  0  0  0  0  0
   17.6047   -9.5977  -16.9290 C   0  0  1  0  0  0  0  0  0  0  0  0
   17.6910   -8.6537  -15.7660 C   0  0  0  0  0  0  0  0  0  0  0  0
   18.5799  -10.7394  -16.8259 C   0  0  2  0  0  0  0  0  0  0  0  0
   18.0805  -11.9288  -16.2555 N   0  0  0  0  0  0  0  0  0  0  0  0
   19.6944  -10.2381  -15.9733 C   0  0  0  0  0  0  0  0  0  0  0  0
   19.5730  -10.4063  -14.7194 O   0  0  0  0  0  0  0  0  0  0  0  0
   27.3578  -10.3479  -14.8209 C   0  0  0  0  0  0  0  0  0  0  0  0
   25.9657  -10.5058  -16.0082 S   0  0  0  0  0  0  0  0  0  0  0  0
   24.4667   -9.8354  -15.4204 C   0  0  0  0  0  0  0  0  0  0  0  0
   23.2051   -9.9241  -16.1246 C   0  0  0  0  0  0  0  0  0  0  0  0
   21.9603   -9.3055  -15.6551 C   0  0  2  0  0  0  0  0  0  0  0  0
   20.8312   -9.6075  -16.5264 N   0  0  0  0  0  0  0  0  0  0  0  0
   22.0249   -7.8714  -15.4052 C   0  0  0  0  0  0  0  0  0  0  0  0
   21.6244   -7.1417  -16.4247 O   0  0  0  0  0  0  0  0  0  0  0  0
   22.4197   -7.1442  -14.3382 O   0  0  0  0  0  0  0  0  0  0  0  0
  2  1  1  6
  2  5  1  0
  3  2  1  0
  4  3  1  0
  5 11  1  0
  5  6  2  0
  8  7  1  1
  8 10  1  0
  8  9  1  0
 10 12  1  0
 10 11  1  1
 12 13  2  0
 14 15  1  0
 15 16  1  0
 16 17  1  0
 18 17  1  6
 18 20  1  0
 19 12  1  0
 19 18  1  0
 20 22  1  0
 21 20  2  0
M  END
$$$$
