YNM.pdb
     RDKit          3D

 29 29  0  0  1  0  0  0  0  0999 V2000
   17.8718  -17.5987  -16.6660 O   0  0  0  0  0  0  0  0  0  0  0  0
   18.9406  -18.2122  -16.0111 C   0  0  0  0  0  0  0  0  0  0  0  0
   20.1461  -17.5404  -15.8373 C   0  0  0  0  0  0  0  0  0  0  0  0
   21.2145  -18.1277  -15.1933 C   0  0  0  0  0  0  0  0  0  0  0  0
   21.0497  -19.4124  -14.7229 C   0  0  0  0  0  0  0  0  0  0  0  0
   22.1647  -20.0982  -14.0209 C   0  0  0  0  0  0  0  0  0  0  0  0
   23.1755  -20.6641  -14.9986 C   0  0  2  0  0  0  0  0  0  0  0  0
   22.6054  -21.7891  -15.7110 N   0  0  0  0  0  0  0  0  0  0  0  0
   24.3559  -21.1043  -14.2507 C   0  0  0  0  0  0  0  0  0  0  0  0
   24.4891  -22.3209  -13.9714 O   0  0  0  0  0  0  0  0  0  0  0  0
   19.8579  -20.1014  -14.8844 C   0  0  0  0  0  0  0  0  0  0  0  0
   18.7813  -19.5024  -15.5363 C   0  0  0  0  0  0  0  0  0  0  0  0
   29.2190  -21.7249  -12.4915 N   0  0  0  0  0  0  0  0  0  0  0  0
   28.8125  -20.3679  -12.5383 C   0  0  0  0  0  0  0  0  0  0  0  0
   29.4268  -19.5872  -11.7594 O   0  0  0  0  0  0  0  0  0  0  0  0
   27.7411  -19.9939  -13.4626 C   0  0  0  0  0  0  0  0  0  0  0  0
   26.4630  -20.6942  -13.0574 C   0  0  2  0  0  0  0  0  0  0  0  0
   25.3790  -20.1786  -13.8212 N   0  0  0  0  0  0  0  0  0  0  0  0
   26.3060  -20.4490  -11.5970 C   0  0  0  0  0  0  0  0  0  0  0  0
   25.9530  -19.3091  -11.1956 O   0  0  0  0  0  0  0  0  0  0  0  0
   29.8631  -20.1674   -5.8524 C   0  0  0  0  0  0  0  0  0  0  0  0
   28.3331  -19.3080   -6.2153 S   0  0  0  0  0  0  0  0  0  0  0  0
   27.0800  -20.2431   -7.0548 C   0  0  0  0  0  0  0  0  0  0  0  0
   27.2382  -20.5513   -8.4817 C   0  0  0  0  0  0  0  0  0  0  0  0
   26.2658  -21.3393   -9.2317 C   0  0  2  0  0  0  0  0  0  0  0  0
   26.5468  -21.4779  -10.6439 N   0  0  0  0  0  0  0  0  0  0  0  0
   24.8685  -20.9787   -8.9221 C   0  0  0  0  0  0  0  0  0  0  0  0
   24.5691  -20.5050   -7.8032 O   0  0  0  0  0  0  0  0  0  0  0  0
   23.8521  -21.1556   -9.8479 O   0  0  0  0  0  0  0  0  0  0  0  0
  2  1  1  0
  3  2  2  0
  4  3  1  0
  5 11  1  0
  5  4  2  0
  6  5  1  0
  7  6  1  0
  7  8  1  1
  9  7  1  0
 10  9  2  0
 11 12  2  0
 12  2  1  0
 13 14  1  0
 14 15  2  0
 16 14  1  0
 17 16  1  6
 17 18  1  0
 18  9  1  0
 19 17  1  0
 19 26  1  0
 20 19  2  0
 22 21  1  0
 23 24  1  0
 23 22  1  0
 25 24  1  6
 25 26  1  0
 25 27  1  0
 27 28  2  0
 27 29  1  0
M  END
$$$$
