YNM.pdb
     RDKit          3D

 29 29  0  0  1  0  0  0  0  0999 V2000
   28.9571  -19.2586   -3.7698 O   0  0  0  0  0  0  0  0  0  0  0  0
   28.4185  -19.7404   -4.9636 C   0  0  0  0  0  0  0  0  0  0  0  0
   28.6582  -21.0479   -5.3734 C   0  0  0  0  0  0  0  0  0  0  0  0
   28.1359  -21.5441   -6.5491 C   0  0  0  0  0  0  0  0  0  0  0  0
   27.3621  -20.6971   -7.3125 C   0  0  0  0  0  0  0  0  0  0  0  0
   26.7720  -21.1740   -8.5894 C   0  0  0  0  0  0  0  0  0  0  0  0
   26.2494  -20.0234   -9.4266 C   0  0  2  0  0  0  0  0  0  0  0  0
   25.6182  -19.0343   -8.5774 N   0  0  0  0  0  0  0  0  0  0  0  0
   25.2698  -20.5459  -10.3827 C   0  0  0  0  0  0  0  0  0  0  0  0
   25.5958  -21.4892  -11.1442 O   0  0  0  0  0  0  0  0  0  0  0  0
   27.1097  -19.3906   -6.9244 C   0  0  0  0  0  0  0  0  0  0  0  0
   27.6405  -18.8947   -5.7348 C   0  0  0  0  0  0  0  0  0  0  0  0
   20.4442  -22.2650  -12.1752 N   0  0  0  0  0  0  0  0  0  0  0  0
   20.7678  -20.8858  -12.1310 C   0  0  0  0  0  0  0  0  0  0  0  0
   20.2601  -20.1769  -13.0439 O   0  0  0  0  0  0  0  0  0  0  0  0
   21.6416  -20.4100  -11.0577 C   0  0  0  0  0  0  0  0  0  0  0  0
   23.0837  -20.5167  -11.5017 C   0  0  2  0  0  0  0  0  0  0  0  0
   23.9320  -20.0083  -10.4788 N   0  0  0  0  0  0  0  0  0  0  0  0
   23.1815  -19.7409  -12.7689 C   0  0  0  0  0  0  0  0  0  0  0  0
   23.3323  -18.4920  -12.7195 O   0  0  0  0  0  0  0  0  0  0  0  0
   25.0043  -21.4421  -19.4119 C   0  0  0  0  0  0  0  0  0  0  0  0
   23.7032  -22.2982  -18.5256 S   0  0  0  0  0  0  0  0  0  0  0  0
   22.9774  -21.4337  -17.1562 C   0  0  0  0  0  0  0  0  0  0  0  0
   23.7864  -20.4764  -16.3912 C   0  0  0  0  0  0  0  0  0  0  0  0
   23.2425  -19.6817  -15.2951 C   0  0  2  0  0  0  0  0  0  0  0  0
   23.1080  -20.3827  -14.0369 N   0  0  0  0  0  0  0  0  0  0  0  0
   22.0542  -18.8978  -15.6847 C   0  0  0  0  0  0  0  0  0  0  0  0
   20.9137  -19.2435  -15.3031 O   0  0  0  0  0  0  0  0  0  0  0  0
   22.1602  -17.7685  -16.4815 O   0  0  0  0  0  0  0  0  0  0  0  0
  2  1  1  0
  3  2  2  0
  4  3  1  0
  5 11  1  0
  5  4  2  0
  6  5  1  0
  7  6  1  0
  7  8  1  1
  9  7  1  0
 10  9  2  0
 11 12  2  0
 12  2  1  0
 13 14  1  0
 14 15  2  0
 16 14  1  0
 17 16  1  1
 17 18  1  0
 18  9  1  0
 19 17  1  0
 19 26  1  0
 20 19  2  0
 22 21  1  0
 23 24  1  0
 23 22  1  0
 25 24  1  6
 25 26  1  0
 25 27  1  0
 27 28  2  0
 27 29  1  0
M  END
$$$$
