YNM.pdb
     RDKit          3D

 29 29  0  0  1  0  0  0  0  0999 V2000
   18.4590  -16.3788  -15.2598 O   0  0  0  0  0  0  0  0  0  0  0  0
   19.4055  -17.2901  -14.7894 C   0  0  0  0  0  0  0  0  0  0  0  0
   19.0282  -18.5761  -14.4168 C   0  0  0  0  0  0  0  0  0  0  0  0
   19.9469  -19.4920  -13.9496 C   0  0  0  0  0  0  0  0  0  0  0  0
   21.2622  -19.0905  -13.8624 C   0  0  0  0  0  0  0  0  0  0  0  0
   22.2980  -20.0324  -13.3663 C   0  0  0  0  0  0  0  0  0  0  0  0
   23.2493  -20.4479  -14.4709 C   0  0  2  0  0  0  0  0  0  0  0  0
   22.5535  -21.2552  -15.4518 N   0  0  0  0  0  0  0  0  0  0  0  0
   24.3418  -21.2260  -13.8812 C   0  0  0  0  0  0  0  0  0  0  0  0
   24.2903  -22.4799  -13.9113 O   0  0  0  0  0  0  0  0  0  0  0  0
   21.6615  -17.8145  -14.2279 C   0  0  0  0  0  0  0  0  0  0  0  0
   20.7282  -16.8930  -14.6995 C   0  0  0  0  0  0  0  0  0  0  0  0
   29.3381  -21.9053  -14.2968 N   0  0  0  0  0  0  0  0  0  0  0  0
   28.3445  -20.9209  -14.0672 C   0  0  0  0  0  0  0  0  0  0  0  0
   28.0035  -20.2443  -15.0770 O   0  0  0  0  0  0  0  0  0  0  0  0
   27.8098  -20.7744  -12.7128 C   0  0  0  0  0  0  0  0  0  0  0  0
   26.4496  -21.4321  -12.6376 C   0  0  2  0  0  0  0  0  0  0  0  0
   25.4842  -20.5940  -13.2621 N   0  0  0  0  0  0  0  0  0  0  0  0
   26.1762  -21.6450  -11.1893 C   0  0  0  0  0  0  0  0  0  0  0  0
   25.4275  -22.5926  -10.8340 O   0  0  0  0  0  0  0  0  0  0  0  0
   29.8306  -20.2508   -5.6163 C   0  0  0  0  0  0  0  0  0  0  0  0
   28.2462  -19.4524   -5.3646 S   0  0  0  0  0  0  0  0  0  0  0  0
   26.9402  -19.9189   -6.4718 C   0  0  0  0  0  0  0  0  0  0  0  0
   27.2232  -20.0716   -7.9045 C   0  0  0  0  0  0  0  0  0  0  0  0
   26.3640  -20.8369   -8.8018 C   0  0  2  0  0  0  0  0  0  0  0  0
   26.7447  -20.7984  -10.1968 N   0  0  0  0  0  0  0  0  0  0  0  0
   24.9263  -20.6103   -8.5571 C   0  0  0  0  0  0  0  0  0  0  0  0
   24.3084  -19.7225   -9.1862 O   0  0  0  0  0  0  0  0  0  0  0  0
   24.2218  -21.3613   -7.6291 O   0  0  0  0  0  0  0  0  0  0  0  0
  2  1  1  0
  3  2  2  0
  4  3  1  0
  5 11  1  0
  5  4  2  0
  6  5  1  0
  7  6  1  0
  7  8  1  6
  9  7  1  0
 10  9  2  0
 11 12  2  0
 12  2  1  0
 13 14  1  0
 14 15  2  0
 16 14  1  0
 17 16  1  1
 17 18  1  0
 18  9  1  0
 19 17  1  0
 19 26  1  0
 20 19  2  0
 22 21  1  0
 23 24  1  0
 23 22  1  0
 25 24  1  1
 25 26  1  0
 25 27  1  0
 27 28  2  0
 27 29  1  0
M  END
$$$$
