YNM.pdb
     RDKit          3D

 29 29  0  0  1  0  0  0  0  0999 V2000
    8.9466  -15.6830  -11.3094 O   0  0  0  0  0  0  0  0  0  0  0  0
   10.0128  -14.7829  -11.3321 C   0  0  0  0  0  0  0  0  0  0  0  0
   10.1957  -13.9269  -12.4131 C   0  0  0  0  0  0  0  0  0  0  0  0
   11.2422  -13.0300  -12.4558 C   0  0  0  0  0  0  0  0  0  0  0  0
   12.1091  -13.0078  -11.3849 C   0  0  0  0  0  0  0  0  0  0  0  0
   13.2557  -12.0636  -11.3732 C   0  0  0  0  0  0  0  0  0  0  0  0
   14.3044  -12.4467  -12.3986 C   0  0  2  0  0  0  0  0  0  0  0  0
   14.9472  -13.6870  -12.0159 N   0  0  0  0  0  0  0  0  0  0  0  0
   15.3037  -11.3776  -12.4693 C   0  0  0  0  0  0  0  0  0  0  0  0
   16.0808  -11.1966  -11.5002 O   0  0  0  0  0  0  0  0  0  0  0  0
   11.9468  -13.8511  -10.2970 C   0  0  0  0  0  0  0  0  0  0  0  0
   10.8870  -14.7557  -10.2595 C   0  0  0  0  0  0  0  0  0  0  0  0
   18.4748   -7.8470  -13.6963 N   0  0  0  0  0  0  0  0  0  0  0  0
   17.9272   -8.1886  -14.9582 C   0  0  0  0  0  0  0  0  0  0  0  0
   18.4997   -7.6739  -15.9587 O   0  0  0  0  0  0  0  0  0  0  0  0
   16.7726   -9.0872  -14.9956 C   0  0  0  0  0  0  0  0  0  0  0  0
   16.4012   -9.4842  -13.5840 C   0  0  2  0  0  0  0  0  0  0  0  0
   15.4257  -10.5192  -13.6252 N   0  0  0  0  0  0  0  0  0  0  0  0
   15.8985   -8.2454  -12.9282 C   0  0  0  0  0  0  0  0  0  0  0  0
   14.8733   -7.6756  -13.3857 O   0  0  0  0  0  0  0  0  0  0  0  0
   15.1624   -4.4973   -5.9263 C   0  0  0  0  0  0  0  0  0  0  0  0
   15.7509   -5.8451   -6.9502 S   0  0  0  0  0  0  0  0  0  0  0  0
   15.5827   -5.6378   -8.7047 C   0  0  0  0  0  0  0  0  0  0  0  0
   16.0636   -6.6898   -9.6092 C   0  0  0  0  0  0  0  0  0  0  0  0
   16.0524   -6.5483  -11.0613 C   0  0  2  0  0  0  0  0  0  0  0  0
   16.5536   -7.6911  -11.7930 N   0  0  0  0  0  0  0  0  0  0  0  0
   16.5869   -5.2509  -11.5191 C   0  0  0  0  0  0  0  0  0  0  0  0
   15.9216   -4.2021  -11.3669 O   0  0  0  0  0  0  0  0  0  0  0  0
   17.8270   -5.1531  -12.1306 O   0  0  0  0  0  0  0  0  0  0  0  0
  2  1  1  0
  3  2  2  0
  4  3  1  0
  5 11  1  0
  5  4  2  0
  6  5  1  0
  7  6  1  0
  7  8  1  1
  9  7  1  0
 10  9  2  0
 11 12  2  0
 12  2  1  0
 13 14  1  0
 14 15  2  0
 16 14  1  0
 17 16  1  6
 17 18  1  0
 18  9  1  0
 19 17  1  0
 19 26  1  0
 20 19  2  0
 22 21  1  0
 23 24  1  0
 23 22  1  0
 25 24  1  1
 25 26  1  0
 25 27  1  0
 27 28  2  0
 27 29  1  0
M  END
$$$$
