YNM.pdb
     RDKit          3D

 29 29  0  0  1  0  0  0  0  0999 V2000
   34.0719   -2.5253  -12.9382 O   0  0  0  0  0  0  0  0  0  0  0  0
   33.7171   -3.4536  -13.9180 C   0  0  0  0  0  0  0  0  0  0  0  0
   34.6442   -3.8740  -14.8659 C   0  0  0  0  0  0  0  0  0  0  0  0
   34.3148   -4.7901  -15.8424 C   0  0  0  0  0  0  0  0  0  0  0  0
   33.0271   -5.2807  -15.8503 C   0  0  0  0  0  0  0  0  0  0  0  0
   32.6124   -6.2699  -16.8777 C   0  0  0  0  0  0  0  0  0  0  0  0
   32.6637   -7.6866  -16.3409 C   0  0  2  0  0  0  0  0  0  0  0  0
   34.0381   -8.0889  -16.1239 N   0  0  0  0  0  0  0  0  0  0  0  0
   32.0392   -8.5816  -17.3185 C   0  0  0  0  0  0  0  0  0  0  0  0
   32.7662   -9.2984  -18.0490 O   0  0  0  0  0  0  0  0  0  0  0  0
   32.0864   -4.8765  -14.9161 C   0  0  0  0  0  0  0  0  0  0  0  0
   32.4253   -3.9501  -13.9313 C   0  0  0  0  0  0  0  0  0  0  0  0
   29.2825  -12.8576  -18.5325 N   0  0  0  0  0  0  0  0  0  0  0  0
   28.6864  -11.5759  -18.6366 C   0  0  0  0  0  0  0  0  0  0  0  0
   27.8178  -11.4504  -19.5441 O   0  0  0  0  0  0  0  0  0  0  0  0
   29.1166  -10.5307  -17.7068 C   0  0  0  0  0  0  0  0  0  0  0  0
   30.0912   -9.6089  -18.4058 C   0  0  2  0  0  0  0  0  0  0  0  0
   30.6048   -8.6674  -17.4708 N   0  0  0  0  0  0  0  0  0  0  0  0
   29.3274   -8.9653  -19.5102 C   0  0  0  0  0  0  0  0  0  0  0  0
   28.7615   -7.8590  -19.3081 O   0  0  0  0  0  0  0  0  0  0  0  0
   26.8923   -5.2621  -24.7817 C   0  0  0  0  0  0  0  0  0  0  0  0
   28.3028   -5.5408  -23.7121 S   0  0  0  0  0  0  0  0  0  0  0  0
   29.0232   -7.1620  -23.7588 C   0  0  0  0  0  0  0  0  0  0  0  0
   29.3929   -7.8282  -22.5035 C   0  0  0  0  0  0  0  0  0  0  0  0
   28.6209   -8.9290  -21.9368 C   0  0  2  0  0  0  0  0  0  0  0  0
   29.2237   -9.5754  -20.7916 N   0  0  0  0  0  0  0  0  0  0  0  0
   28.1065   -9.8601  -22.9599 C   0  0  0  0  0  0  0  0  0  0  0  0
   28.7536  -10.8866  -23.2656 O   0  0  0  0  0  0  0  0  0  0  0  0
   26.9057   -9.6285  -23.6125 O   0  0  0  0  0  0  0  0  0  0  0  0
  2  1  1  0
  3  2  2  0
  4  3  1  0
  5 11  1  0
  5  4  2  0
  6  5  1  0
  7  6  1  0
  7  8  1  6
  9  7  1  0
 10  9  2  0
 11 12  2  0
 12  2  1  0
 13 14  1  0
 14 15  2  0
 16 14  1  0
 17 16  1  1
 17 18  1  0
 18  9  1  0
 19 17  1  0
 19 26  1  0
 20 19  2  0
 22 21  1  0
 23 24  1  0
 23 22  1  0
 25 24  1  6
 25 26  1  0
 25 27  1  0
 27 28  2  0
 27 29  1  0
M  END
$$$$
