YNM.pdb
     RDKit          3D

 29 29  0  0  1  0  0  0  0  0999 V2000
   30.5526  -33.7885  -17.7160 O   0  0  0  0  0  0  0  0  0  0  0  0
   29.7507  -32.6847  -17.4225 C   0  0  0  0  0  0  0  0  0  0  0  0
   29.0765  -32.0085  -18.4340 C   0  0  0  0  0  0  0  0  0  0  0  0
   28.2792  -30.9159  -18.1661 C   0  0  0  0  0  0  0  0  0  0  0  0
   28.1700  -30.5108  -16.8535 C   0  0  0  0  0  0  0  0  0  0  0  0
   27.3259  -29.3402  -16.5023 C   0  0  0  0  0  0  0  0  0  0  0  0
   27.9577  -28.0399  -16.9582 C   0  0  2  0  0  0  0  0  0  0  0  0
   29.1277  -27.7452  -16.1566 N   0  0  0  0  0  0  0  0  0  0  0  0
   26.9758  -26.9630  -16.8073 C   0  0  0  0  0  0  0  0  0  0  0  0
   26.8540  -26.3926  -15.6957 O   0  0  0  0  0  0  0  0  0  0  0  0
   28.8323  -31.1689  -15.8291 C   0  0  0  0  0  0  0  0  0  0  0  0
   29.6368  -32.2729  -16.1062 C   0  0  0  0  0  0  0  0  0  0  0  0
   28.1338  -23.8345  -18.1344 N   0  0  0  0  0  0  0  0  0  0  0  0
   26.8535  -23.7193  -17.5373 C   0  0  0  0  0  0  0  0  0  0  0  0
   26.8319  -23.1924  -16.3903 O   0  0  0  0  0  0  0  0  0  0  0  0
   25.6921  -24.2086  -18.2813 C   0  0  0  0  0  0  0  0  0  0  0  0
   25.1990  -25.4928  -17.6522 C   0  0  2  0  0  0  0  0  0  0  0  0
   26.1375  -26.5325  -17.9027 N   0  0  0  0  0  0  0  0  0  0  0  0
   23.8662  -25.7620  -18.2593 C   0  0  0  0  0  0  0  0  0  0  0  0
   23.7803  -26.5474  -19.2395 O   0  0  0  0  0  0  0  0  0  0  0  0
   19.1908  -28.4763  -14.9255 C   0  0  0  0  0  0  0  0  0  0  0  0
   19.5876  -27.5797  -16.4254 S   0  0  0  0  0  0  0  0  0  0  0  0
   19.9318  -25.8482  -16.2448 C   0  0  0  0  0  0  0  0  0  0  0  0
   20.2573  -25.0454  -17.4304 C   0  0  0  0  0  0  0  0  0  0  0  0
   21.3709  -25.3637  -18.3179 C   0  0  2  0  0  0  0  0  0  0  0  0
   22.6856  -25.1492  -17.7539 N   0  0  0  0  0  0  0  0  0  0  0  0
   21.1972  -24.8212  -19.6795 C   0  0  0  0  0  0  0  0  0  0  0  0
   21.8061  -23.7864  -20.0320 O   0  0  0  0  0  0  0  0  0  0  0  0
   20.3594  -25.4300  -20.6008 O   0  0  0  0  0  0  0  0  0  0  0  0
  2  1  1  0
  3  2  2  0
  4  3  1  0
  5 11  1  0
  5  4  2  0
  6  5  1  0
  7  6  1  0
  7  8  1  1
  9  7  1  0
 10  9  2  0
 11 12  2  0
 12  2  1  0
 13 14  1  0
 14 15  2  0
 16 14  1  0
 17 16  1  6
 17 18  1  0
 18  9  1  0
 19 17  1  0
 19 26  1  0
 20 19  2  0
 22 21  1  0
 23 24  1  0
 23 22  1  0
 25 24  1  1
 25 26  1  0
 25 27  1  0
 27 28  2  0
 27 29  1  0
M  END
$$$$
