YNM.pdb
     RDKit          3D

 29 29  0  0  1  0  0  0  0  0999 V2000
   21.7457  -16.5530  -21.0849 O   0  0  0  0  0  0  0  0  0  0  0  0
   21.1257  -15.3486  -20.7491 C   0  0  0  0  0  0  0  0  0  0  0  0
   19.7666  -15.3078  -20.4560 C   0  0  0  0  0  0  0  0  0  0  0  0
   19.1343  -14.1289  -20.1219 C   0  0  0  0  0  0  0  0  0  0  0  0
   19.8974  -12.9820  -20.0869 C   0  0  0  0  0  0  0  0  0  0  0  0
   19.2729  -11.6814  -19.7338 C   0  0  0  0  0  0  0  0  0  0  0  0
   19.2228  -11.4758  -18.2328 C   0  0  2  0  0  0  0  0  0  0  0  0
   18.3369  -12.4472  -17.6250 N   0  0  0  0  0  0  0  0  0  0  0  0
   18.7288  -10.1235  -17.9608 C   0  0  0  0  0  0  0  0  0  0  0  0
   17.5530   -9.9692  -17.5491 O   0  0  0  0  0  0  0  0  0  0  0  0
   21.2530  -12.9983  -20.3750 C   0  0  0  0  0  0  0  0  0  0  0  0
   21.8866  -14.1932  -20.7122 C   0  0  0  0  0  0  0  0  0  0  0  0
   17.8333   -5.3421  -17.4311 N   0  0  0  0  0  0  0  0  0  0  0  0
   18.4668   -5.9573  -16.3224 C   0  0  0  0  0  0  0  0  0  0  0  0
   18.3841   -5.3304  -15.2298 O   0  0  0  0  0  0  0  0  0  0  0  0
   19.1472   -7.2362  -16.5312 C   0  0  0  0  0  0  0  0  0  0  0  0
   18.9541   -7.6779  -17.9650 C   0  0  2  0  0  0  0  0  0  0  0  0
   19.5554   -8.9538  -18.1516 N   0  0  0  0  0  0  0  0  0  0  0  0
   19.5764   -6.6196  -18.8078 C   0  0  0  0  0  0  0  0  0  0  0  0
   20.8218   -6.4420  -18.7581 O   0  0  0  0  0  0  0  0  0  0  0  0
   16.8445   -8.0232  -24.2079 C   0  0  0  0  0  0  0  0  0  0  0  0
   16.9257   -6.6786  -23.0262 S   0  0  0  0  0  0  0  0  0  0  0  0
   18.5094   -5.9065  -22.8135 C   0  0  0  0  0  0  0  0  0  0  0  0
   18.6461   -4.7732  -21.8900 C   0  0  0  0  0  0  0  0  0  0  0  0
   19.3577   -4.8711  -20.6200 C   0  0  2  0  0  0  0  0  0  0  0  0
   18.7916   -5.8035  -19.6698 N   0  0  0  0  0  0  0  0  0  0  0  0
   19.7029   -3.5548  -20.0486 C   0  0  0  0  0  0  0  0  0  0  0  0
   19.4847   -3.3111  -18.8408 O   0  0  0  0  0  0  0  0  0  0  0  0
   20.2689   -2.5544  -20.8233 O   0  0  0  0  0  0  0  0  0  0  0  0
  2  1  1  0
  3  2  2  0
  4  3  1  0
  5 11  1  0
  5  4  2  0
  6  5  1  0
  7  6  1  0
  7  8  1  1
  9  7  1  0
 10  9  2  0
 11 12  2  0
 12  2  1  0
 13 14  1  0
 14 15  2  0
 16 14  1  0
 17 16  1  1
 17 18  1  0
 18  9  1  0
 19 17  1  0
 19 26  1  0
 20 19  2  0
 22 21  1  0
 23 24  1  0
 23 22  1  0
 25 24  1  6
 25 26  1  0
 25 27  1  0
 27 28  2  0
 27 29  1  0
M  END
$$$$
