YNM.pdb
     RDKit          3D

 29 29  0  0  1  0  0  0  0  0999 V2000
   21.9148  -21.4850  -21.2151 O   0  0  0  0  0  0  0  0  0  0  0  0
   22.2647  -20.9870  -19.9592 C   0  0  0  0  0  0  0  0  0  0  0  0
   22.6486  -21.8479  -18.9364 C   0  0  0  0  0  0  0  0  0  0  0  0
   22.9981  -21.3772  -17.6884 C   0  0  0  0  0  0  0  0  0  0  0  0
   22.9550  -20.0151  -17.4840 C   0  0  0  0  0  0  0  0  0  0  0  0
   23.3202  -19.4478  -16.1607 C   0  0  0  0  0  0  0  0  0  0  0  0
   22.2897  -19.7907  -15.1031 C   0  0  2  0  0  0  0  0  0  0  0  0
   21.0283  -19.1475  -15.4079 N   0  0  0  0  0  0  0  0  0  0  0  0
   22.7777  -19.3224  -13.8034 C   0  0  0  0  0  0  0  0  0  0  0  0
   22.6856  -18.1044  -13.5140 O   0  0  0  0  0  0  0  0  0  0  0  0
   22.5758  -19.1380  -18.4880 C   0  0  0  0  0  0  0  0  0  0  0  0
   22.2235  -19.6199  -19.7475 C   0  0  0  0  0  0  0  0  0  0  0  0
   21.4284  -21.0159   -9.4152 N   0  0  0  0  0  0  0  0  0  0  0  0
   21.5646  -20.4217  -10.6948 C   0  0  0  0  0  0  0  0  0  0  0  0
   20.8886  -20.9544  -11.6184 O   0  0  0  0  0  0  0  0  0  0  0  0
   22.4552  -19.2689  -10.8355 C   0  0  0  0  0  0  0  0  0  0  0  0
   23.7121  -19.6931  -11.5625 C   0  0  2  0  0  0  0  0  0  0  0  0
   23.3653  -20.2219  -12.8371 N   0  0  0  0  0  0  0  0  0  0  0  0
   24.3755  -20.6962  -10.6844 C   0  0  0  0  0  0  0  0  0  0  0  0
   23.8339  -21.8191  -10.5091 O   0  0  0  0  0  0  0  0  0  0  0  0
   28.8050  -19.2985   -4.1501 C   0  0  0  0  0  0  0  0  0  0  0  0
   28.0264  -18.7785   -5.6781 S   0  0  0  0  0  0  0  0  0  0  0  0
   27.0070  -19.9793   -6.4954 C   0  0  0  0  0  0  0  0  0  0  0  0
   26.6972  -19.8181   -7.9217 C   0  0  0  0  0  0  0  0  0  0  0  0
   25.9006  -20.7841   -8.6706 C   0  0  2  0  0  0  0  0  0  0  0  0
   25.6110  -20.4118  -10.0381 N   0  0  0  0  0  0  0  0  0  0  0  0
   24.7336  -21.2796   -7.9150 C   0  0  0  0  0  0  0  0  0  0  0  0
   23.6590  -20.6385   -7.9161 O   0  0  0  0  0  0  0  0  0  0  0  0
   24.7902  -22.4554   -7.1831 O   0  0  0  0  0  0  0  0  0  0  0  0
  2  1  1  0
  3  2  2  0
  4  3  1  0
  5 11  1  0
  5  4  2  0
  6  5  1  0
  7  6  1  0
  7  8  1  6
  9  7  1  0
 10  9  2  0
 11 12  2  0
 12  2  1  0
 13 14  1  0
 14 15  2  0
 16 14  1  0
 17 16  1  1
 17 18  1  0
 18  9  1  0
 19 17  1  0
 19 26  1  0
 20 19  2  0
 22 21  1  0
 23 24  1  0
 23 22  1  0
 25 24  1  1
 25 26  1  0
 25 27  1  0
 27 28  2  0
 27 29  1  0
M  END
$$$$
