YNM.pdb
     RDKit          3D

 29 29  0  0  1  0  0  0  0  0999 V2000
   16.5245  -16.3460  -13.3546 O   0  0  0  0  0  0  0  0  0  0  0  0
   17.6766  -17.1252  -13.2405 C   0  0  0  0  0  0  0  0  0  0  0  0
   18.7739  -16.8940  -14.0636 C   0  0  0  0  0  0  0  0  0  0  0  0
   19.9218  -17.6517  -13.9675 C   0  0  0  0  0  0  0  0  0  0  0  0
   19.9488  -18.6543  -13.0225 C   0  0  0  0  0  0  0  0  0  0  0  0
   21.1574  -19.5044  -12.8715 C   0  0  0  0  0  0  0  0  0  0  0  0
   21.2884  -20.4952  -14.0113 C   0  0  2  0  0  0  0  0  0  0  0  0
   20.3352  -21.5734  -13.8477 N   0  0  0  0  0  0  0  0  0  0  0  0
   22.6491  -21.0385  -14.0065 C   0  0  0  0  0  0  0  0  0  0  0  0
   23.0057  -21.7968  -13.0718 O   0  0  0  0  0  0  0  0  0  0  0  0
   18.8678  -18.9030  -12.1914 C   0  0  0  0  0  0  0  0  0  0  0  0
   17.7100  -18.1336  -12.2932 C   0  0  0  0  0  0  0  0  0  0  0  0
   27.2595  -22.4895  -14.9826 N   0  0  0  0  0  0  0  0  0  0  0  0
   26.8859  -21.8832  -16.2080 C   0  0  0  0  0  0  0  0  0  0  0  0
   27.6933  -22.0447  -17.1650 O   0  0  0  0  0  0  0  0  0  0  0  0
   25.6268  -21.1391  -16.2609 C   0  0  0  0  0  0  0  0  0  0  0  0
   24.9110  -21.2712  -14.9348 C   0  0  2  0  0  0  0  0  0  0  0  0
   23.6007  -20.7285  -15.0488 N   0  0  0  0  0  0  0  0  0  0  0  0
   25.7501  -20.5456  -13.9414 C   0  0  0  0  0  0  0  0  0  0  0  0
   26.0784  -19.3508  -14.1643 O   0  0  0  0  0  0  0  0  0  0  0  0
   29.0973  -20.4770   -6.6148 C   0  0  0  0  0  0  0  0  0  0  0  0
   27.9445  -21.1679   -7.8001 S   0  0  0  0  0  0  0  0  0  0  0  0
   28.1498  -20.6648   -9.4895 C   0  0  0  0  0  0  0  0  0  0  0  0
   27.1516  -21.0607  -10.4910 C   0  0  0  0  0  0  0  0  0  0  0  0
   27.2140  -20.6263  -11.8825 C   0  0  2  0  0  0  0  0  0  0  0  0
   26.1893  -21.1753  -12.7432 N   0  0  0  0  0  0  0  0  0  0  0  0
   28.5772  -20.6858  -12.4452 C   0  0  0  0  0  0  0  0  0  0  0  0
   28.9853  -21.7256  -13.0091 O   0  0  0  0  0  0  0  0  0  0  0  0
   29.4425  -19.6059  -12.3641 O   0  0  0  0  0  0  0  0  0  0  0  0
  2  1  1  0
  3  2  2  0
  4  3  1  0
  5 11  1  0
  5  4  2  0
  6  5  1  0
  7  6  1  0
  7  8  1  1
  9  7  1  0
 10  9  2  0
 11 12  2  0
 12  2  1  0
 13 14  1  0
 14 15  2  0
 16 14  1  0
 17 16  1  6
 17 18  1  0
 18  9  1  0
 19 17  1  0
 19 26  1  0
 20 19  2  0
 22 21  1  0
 23 24  1  0
 23 22  1  0
 25 24  1  1
 25 26  1  0
 25 27  1  0
 27 28  2  0
 27 29  1  0
M  END
$$$$
