YNM.pdb
     RDKit          3D

 29 29  0  0  1  0  0  0  0  0999 V2000
   13.7451  -15.6025  -16.7382 O   0  0  0  0  0  0  0  0  0  0  0  0
   14.9084  -14.9246  -16.3711 C   0  0  0  0  0  0  0  0  0  0  0  0
   14.8829  -13.9656  -15.3638 C   0  0  0  0  0  0  0  0  0  0  0  0
   16.0204  -13.2842  -14.9856 C   0  0  0  0  0  0  0  0  0  0  0  0
   17.1939  -13.5853  -15.6422 C   0  0  0  0  0  0  0  0  0  0  0  0
   18.4523  -12.8846  -15.2793 C   0  0  0  0  0  0  0  0  0  0  0  0
   18.4977  -11.4841  -15.8576 C   0  0  2  0  0  0  0  0  0  0  0  0
   18.4966  -11.5412  -17.3049 N   0  0  0  0  0  0  0  0  0  0  0  0
   19.7209  -10.8244  -15.3936 C   0  0  0  0  0  0  0  0  0  0  0  0
   19.9001  -10.6559  -14.1626 O   0  0  0  0  0  0  0  0  0  0  0  0
   17.2435  -14.5369  -16.6487 C   0  0  0  0  0  0  0  0  0  0  0  0
   16.0903  -15.2225  -17.0267 C   0  0  0  0  0  0  0  0  0  0  0  0
   25.1183  -10.3080  -14.9784 N   0  0  0  0  0  0  0  0  0  0  0  0
   24.2769   -9.5214  -15.8043 C   0  0  0  0  0  0  0  0  0  0  0  0
   24.6106   -8.3100  -15.9267 O   0  0  0  0  0  0  0  0  0  0  0  0
   23.1201  -10.1627  -16.4308 C   0  0  0  0  0  0  0  0  0  0  0  0
   21.8533   -9.6655  -15.7704 C   0  0  2  0  0  0  0  0  0  0  0  0
   20.7347  -10.3585  -16.3118 N   0  0  0  0  0  0  0  0  0  0  0  0
   21.8031   -8.2001  -16.0299 C   0  0  0  0  0  0  0  0  0  0  0  0
   21.5274   -7.7858  -17.1864 O   0  0  0  0  0  0  0  0  0  0  0  0
   18.8634   -2.7748  -18.2077 C   0  0  0  0  0  0  0  0  0  0  0  0
   18.5673   -3.7566  -16.7381 S   0  0  0  0  0  0  0  0  0  0  0  0
   19.9828   -4.1220  -15.7320 C   0  0  0  0  0  0  0  0  0  0  0  0
   20.4728   -5.5033  -15.6429 C   0  0  0  0  0  0  0  0  0  0  0  0
   21.7943   -5.8403  -15.1243 C   0  0  2  0  0  0  0  0  0  0  0  0
   22.0604   -7.2564  -14.9964 N   0  0  0  0  0  0  0  0  0  0  0  0
   22.1716   -5.0412  -13.9421 C   0  0  0  0  0  0  0  0  0  0  0  0
   22.5505   -5.6045  -12.8910 O   0  0  0  0  0  0  0  0  0  0  0  0
   22.1143   -3.6563  -13.9551 O   0  0  0  0  0  0  0  0  0  0  0  0
  2  1  1  0
  3  2  2  0
  4  3  1  0
  5 11  1  0
  5  4  2  0
  6  5  1  0
  7  6  1  0
  7  8  1  6
  9  7  1  0
 10  9  2  0
 11 12  2  0
 12  2  1  0
 13 14  1  0
 14 15  2  0
 16 14  1  0
 17 16  1  6
 17 18  1  0
 18  9  1  0
 19 17  1  0
 19 26  1  0
 20 19  2  0
 22 21  1  0
 23 24  1  0
 23 22  1  0
 25 24  1  1
 25 26  1  0
 25 27  1  0
 27 28  2  0
 27 29  1  0
M  END
$$$$
