YNM.pdb
     RDKit          3D

 29 29  0  0  1  0  0  0  0  0999 V2000
   24.3838  -18.1605  -24.3661 O   0  0  0  0  0  0  0  0  0  0  0  0
   24.6737  -17.2822  -23.3210 C   0  0  0  0  0  0  0  0  0  0  0  0
   24.2622  -17.5642  -22.0225 C   0  0  0  0  0  0  0  0  0  0  0  0
   24.5381  -16.7105  -20.9755 C   0  0  0  0  0  0  0  0  0  0  0  0
   25.2402  -15.5588  -21.2577 C   0  0  0  0  0  0  0  0  0  0  0  0
   25.5673  -14.5999  -20.1715 C   0  0  0  0  0  0  0  0  0  0  0  0
   27.0563  -14.5629  -19.8897 C   0  0  2  0  0  0  0  0  0  0  0  0
   27.4728  -15.7903  -19.2432 N   0  0  0  0  0  0  0  0  0  0  0  0
   27.3392  -13.4252  -19.0110 C   0  0  0  0  0  0  0  0  0  0  0  0
   27.0997  -13.5219  -17.7825 O   0  0  0  0  0  0  0  0  0  0  0  0
   25.6604  -15.2569  -22.5435 C   0  0  0  0  0  0  0  0  0  0  0  0
   25.3786  -16.1239  -23.5979 C   0  0  0  0  0  0  0  0  0  0  0  0
   30.5065   -9.6039  -16.8713 N   0  0  0  0  0  0  0  0  0  0  0  0
   29.6480   -9.3524  -17.9707 C   0  0  0  0  0  0  0  0  0  0  0  0
   29.1537   -8.1920  -18.0225 O   0  0  0  0  0  0  0  0  0  0  0  0
   29.4118  -10.4319  -18.9303 C   0  0  0  0  0  0  0  0  0  0  0  0
   28.1181  -11.1353  -18.5843 C   0  0  2  0  0  0  0  0  0  0  0  0
   27.8887  -12.1872  -19.5145 N   0  0  0  0  0  0  0  0  0  0  0  0
   27.0587  -10.0897  -18.6251 C   0  0  0  0  0  0  0  0  0  0  0  0
   26.5904   -9.7266  -19.7359 O   0  0  0  0  0  0  0  0  0  0  0  0
   20.7409   -7.2413  -14.6977 C   0  0  0  0  0  0  0  0  0  0  0  0
   22.2830   -8.1538  -14.7125 S   0  0  0  0  0  0  0  0  0  0  0  0
   23.3582   -7.8684  -16.0952 C   0  0  0  0  0  0  0  0  0  0  0  0
   24.5415   -8.7177  -16.2818 C   0  0  0  0  0  0  0  0  0  0  0  0
   25.4566   -8.5604  -17.4073 C   0  0  2  0  0  0  0  0  0  0  0  0
   26.5635   -9.4912  -17.4328 N   0  0  0  0  0  0  0  0  0  0  0  0
   25.8378   -7.1552  -17.6494 C   0  0  0  0  0  0  0  0  0  0  0  0
   24.9681   -6.3033  -17.9386 O   0  0  0  0  0  0  0  0  0  0  0  0
   27.1574   -6.7384  -17.5704 O   0  0  0  0  0  0  0  0  0  0  0  0
  2  1  1  0
  3  2  2  0
  4  3  1  0
  5 11  1  0
  5  4  2  0
  6  5  1  0
  7  6  1  0
  7  8  1  1
  9  7  1  0
 10  9  2  0
 11 12  2  0
 12  2  1  0
 13 14  1  0
 14 15  2  0
 16 14  1  0
 17 16  1  6
 17 18  1  0
 18  9  1  0
 19 17  1  0
 19 26  1  0
 20 19  2  0
 22 21  1  0
 23 24  1  0
 23 22  1  0
 25 24  1  1
 25 26  1  0
 25 27  1  0
 27 28  2  0
 27 29  1  0
M  END
$$$$
