YMS.pdb
     RDKit          3D

 27 27  0  0  1  0  0  0  0  0999 V2000
   16.0669  -23.8718  -13.9410 O   0  0  0  0  0  0  0  0  0  0  0  0
   17.3124  -23.2926  -14.0053 C   0  0  0  0  0  0  0  0  0  0  0  0
   18.3607  -23.9358  -13.3540 C   0  0  0  0  0  0  0  0  0  0  0  0
   19.5957  -23.3562  -13.4211 C   0  0  0  0  0  0  0  0  0  0  0  0
   19.8724  -22.1802  -14.0888 C   0  0  0  0  0  0  0  0  0  0  0  0
   21.2468  -21.6866  -14.0693 C   0  0  0  0  0  0  0  0  0  0  0  0
   21.5474  -20.7621  -12.9126 C   0  0  2  0  0  0  0  0  0  0  0  0
   20.8149  -19.5238  -13.1296 N   0  0  0  0  0  0  0  0  0  0  0  0
   23.0106  -20.5295  -12.9446 C   0  0  0  0  0  0  0  0  0  0  0  0
   23.4154  -19.5213  -13.5647 O   0  0  0  0  0  0  0  0  0  0  0  0
   18.8262  -21.5522  -14.7301 C   0  0  0  0  0  0  0  0  0  0  0  0
   17.5652  -22.1112  -14.6821 C   0  0  0  0  0  0  0  0  0  0  0  0
   29.9046  -20.4386   -9.8915 C   0  0  0  0  0  0  0  0  0  0  0  0
   28.1240  -20.6558   -9.9098 S   0  0  0  0  0  0  0  0  0  0  0  0
   27.5685  -21.7519  -11.2116 C   0  0  0  0  0  0  0  0  0  0  0  0
   26.0949  -21.8911  -11.2548 C   0  0  0  0  0  0  0  0  0  0  0  0
   25.3750  -21.1577  -12.3505 C   0  0  2  0  0  0  0  0  0  0  0  0
   23.9723  -21.3846  -12.3128 N   0  0  0  0  0  0  0  0  0  0  0  0
   25.9891  -21.4577  -13.6652 C   0  0  0  0  0  0  0  0  0  0  0  0
   25.9320  -22.5878  -14.2147 O   0  0  0  0  0  0  0  0  0  0  0  0
   28.5008  -18.5519  -15.5767 O   0  0  0  0  0  0  0  0  0  0  0  0
   27.6313  -19.3089  -16.3295 C   0  0  0  0  0  0  0  0  0  0  0  0
   27.2579  -20.6197  -15.6756 C   0  0  2  0  0  0  0  0  0  0  0  0
   26.6853  -20.4332  -14.3640 N   0  0  0  0  0  0  0  0  0  0  0  0
   28.3942  -21.5465  -15.6862 C   0  0  0  0  0  0  0  0  0  0  0  0
   28.9512  -21.8419  -14.5889 O   0  0  0  0  0  0  0  0  0  0  0  0
   28.8318  -22.0739  -16.8718 O   0  0  0  0  0  0  0  0  0  0  0  0
  2 12  2  0
  2  1  1  0
  3  2  1  0
  4  5  1  0
  4  3  2  0
  5 11  2  0
  6  7  1  0
  6  5  1  0
  7  9  1  0
  7  8  1  6
  9 10  2  0
 11 12  1  0
 13 14  1  0
 14 15  1  0
 17 16  1  1
 16 15  1  0
 18 17  1  0
 18  9  1  0
 19 24  1  0
 19 17  1  0
 20 19  2  0
 22 21  1  0
 23 24  1  0
 23 22  1  1
 25 23  1  0
 26 25  2  0
 27 25  1  0
M  END
$$$$
