YMS.pdb
     RDKit          3D

 27 27  0  0  1  0  0  0  0  0999 V2000
   22.6044  -18.7929  -18.4373 O   0  0  0  0  0  0  0  0  0  0  0  0
   22.9489  -19.2240  -17.1777 C   0  0  0  0  0  0  0  0  0  0  0  0
   23.1265  -20.5909  -16.9864 C   0  0  0  0  0  0  0  0  0  0  0  0
   23.4686  -21.0136  -15.7334 C   0  0  0  0  0  0  0  0  0  0  0  0
   23.6491  -20.1790  -14.6488 C   0  0  0  0  0  0  0  0  0  0  0  0
   24.0151  -20.7836  -13.3706 C   0  0  0  0  0  0  0  0  0  0  0  0
   25.4897  -20.6956  -13.0533 C   0  0  2  0  0  0  0  0  0  0  0  0
   26.1862  -21.6491  -13.9034 N   0  0  0  0  0  0  0  0  0  0  0  0
   25.6225  -21.0593  -11.6228 C   0  0  0  0  0  0  0  0  0  0  0  0
   25.4479  -22.2604  -11.3200 O   0  0  0  0  0  0  0  0  0  0  0  0
   23.4705  -18.8272  -14.8504 C   0  0  0  0  0  0  0  0  0  0  0  0
   23.1245  -18.3665  -16.1046 C   0  0  0  0  0  0  0  0  0  0  0  0
   28.7128  -20.2077   -5.5214 C   0  0  0  0  0  0  0  0  0  0  0  0
   27.5879  -18.8872   -5.9784 S   0  0  0  0  0  0  0  0  0  0  0  0
   26.1492  -19.4734   -6.8679 C   0  0  0  0  0  0  0  0  0  0  0  0
   26.2627  -19.2830   -8.3319 C   0  0  0  0  0  0  0  0  0  0  0  0
   25.6907  -20.3642   -9.2041 C   0  0  2  0  0  0  0  0  0  0  0  0
   25.9357  -20.1229  -10.5834 N   0  0  0  0  0  0  0  0  0  0  0  0
   24.2605  -20.5846   -8.8855 C   0  0  0  0  0  0  0  0  0  0  0  0
   23.3249  -19.9261   -9.4084 O   0  0  0  0  0  0  0  0  0  0  0  0
   21.1340  -23.2433   -6.1676 O   0  0  0  0  0  0  0  0  0  0  0  0
   22.4310  -22.9123   -6.4905 C   0  0  0  0  0  0  0  0  0  0  0  0
   22.5300  -21.8949   -7.6041 C   0  0  2  0  0  0  0  0  0  0  0  0
   23.8984  -21.5861   -7.9430 N   0  0  0  0  0  0  0  0  0  0  0  0
   21.7269  -20.7077   -7.2945 C   0  0  0  0  0  0  0  0  0  0  0  0
   22.3053  -19.6850   -6.8244 O   0  0  0  0  0  0  0  0  0  0  0  0
   20.3757  -20.7227   -7.5166 O   0  0  0  0  0  0  0  0  0  0  0  0
  2 12  2  0
  2  1  1  0
  3  2  1  0
  4  5  1  0
  4  3  2  0
  5 11  2  0
  6  7  1  0
  6  5  1  0
  7  9  1  0
  7  8  1  6
  9 10  2  0
 11 12  1  0
 13 14  1  0
 14 15  1  0
 17 16  1  1
 16 15  1  0
 18 17  1  0
 18  9  1  0
 19 24  1  0
 19 17  1  0
 20 19  2  0
 22 21  1  0
 23 24  1  0
 23 22  1  1
 25 23  1  0
 26 25  2  0
 27 25  1  0
M  END
$$$$
