YMS.pdb
     RDKit          3D

 27 27  0  0  1  0  0  0  0  0999 V2000
   26.8268  -14.9753  -22.8301 O   0  0  0  0  0  0  0  0  0  0  0  0
   26.4920  -15.8414  -21.8159 C   0  0  0  0  0  0  0  0  0  0  0  0
   25.8950  -17.0490  -22.1654 C   0  0  0  0  0  0  0  0  0  0  0  0
   25.5644  -17.9056  -21.1541 C   0  0  0  0  0  0  0  0  0  0  0  0
   25.7820  -17.6545  -19.8143 C   0  0  0  0  0  0  0  0  0  0  0  0
   25.3722  -18.6718  -18.8497 C   0  0  0  0  0  0  0  0  0  0  0  0
   26.5233  -19.4520  -18.2588 C   0  0  2  0  0  0  0  0  0  0  0  0
   26.8530  -20.5276  -19.1815 N   0  0  0  0  0  0  0  0  0  0  0  0
   26.0335  -19.9882  -16.9670 C   0  0  0  0  0  0  0  0  0  0  0  0
   25.4209  -21.0784  -16.9963 O   0  0  0  0  0  0  0  0  0  0  0  0
   26.3738  -16.4552  -19.4803 C   0  0  0  0  0  0  0  0  0  0  0  0
   26.7205  -15.5668  -20.4780 C   0  0  0  0  0  0  0  0  0  0  0  0
   25.5662  -21.7856   -9.9143 C   0  0  0  0  0  0  0  0  0  0  0  0
   26.1813  -21.3528  -11.5429 S   0  0  0  0  0  0  0  0  0  0  0  0
   25.9217  -19.6292  -11.9510 C   0  0  0  0  0  0  0  0  0  0  0  0
   26.4418  -19.2720  -13.2906 C   0  0  0  0  0  0  0  0  0  0  0  0
   25.7060  -19.8292  -14.4759 C   0  0  2  0  0  0  0  0  0  0  0  0
   26.2212  -19.3345  -15.7049 N   0  0  0  0  0  0  0  0  0  0  0  0
   24.2462  -19.6280  -14.3210 C   0  0  0  0  0  0  0  0  0  0  0  0
   23.6938  -18.4988  -14.3673 O   0  0  0  0  0  0  0  0  0  0  0  0
   21.3092  -21.8995  -15.7933 O   0  0  0  0  0  0  0  0  0  0  0  0
   21.2050  -21.7987  -14.4240 C   0  0  0  0  0  0  0  0  0  0  0  0
   21.9871  -20.6408  -13.8473 C   0  0  2  0  0  0  0  0  0  0  0  0
   23.4022  -20.7526  -14.1078 N   0  0  0  0  0  0  0  0  0  0  0  0
   21.6713  -20.4581  -12.4271 C   0  0  0  0  0  0  0  0  0  0  0  0
   22.5993  -20.5778  -11.5750 O   0  0  0  0  0  0  0  0  0  0  0  0
   20.3890  -20.1633  -12.0470 O   0  0  0  0  0  0  0  0  0  0  0  0
  2 12  2  0
  2  1  1  0
  3  2  1  0
  4  5  1  0
  4  3  2  0
  5 11  2  0
  6  7  1  0
  6  5  1  0
  7  9  1  0
  7  8  1  6
  9 10  2  0
 11 12  1  0
 13 14  1  0
 14 15  1  0
 17 16  1  1
 16 15  1  0
 18 17  1  0
 18  9  1  0
 19 24  1  0
 19 17  1  0
 20 19  2  0
 22 21  1  0
 23 24  1  0
 23 22  1  1
 25 23  1  0
 26 25  2  0
 27 25  1  0
M  END
$$$$
