YMS.pdb
     RDKit          3D

 27 27  0  0  1  0  0  0  0  0999 V2000
   24.5781  -31.0460   -9.8061 O   0  0  0  0  0  0  0  0  0  0  0  0
   25.0716  -31.8263   -8.7870 C   0  0  0  0  0  0  0  0  0  0  0  0
   25.8934  -32.8960   -9.1294 C   0  0  0  0  0  0  0  0  0  0  0  0
   26.3807  -33.6678   -8.1133 C   0  0  0  0  0  0  0  0  0  0  0  0
   26.1137  -33.4586   -6.7753 C   0  0  0  0  0  0  0  0  0  0  0  0
   26.7106  -34.3726   -5.8049 C   0  0  0  0  0  0  0  0  0  0  0  0
   28.1395  -34.0358   -5.4473 C   0  0  2  0  0  0  0  0  0  0  0  0
   28.9785  -34.3916   -6.5815 N   0  0  0  0  0  0  0  0  0  0  0  0
   28.4690  -34.8594   -4.2603 C   0  0  0  0  0  0  0  0  0  0  0  0
   29.1263  -35.9057   -4.4554 O   0  0  0  0  0  0  0  0  0  0  0  0
   25.2985  -32.3962   -6.4483 C   0  0  0  0  0  0  0  0  0  0  0  0
   24.7891  -31.5962   -7.4511 C   0  0  0  0  0  0  0  0  0  0  0  0
   33.3471  -37.5239   -3.2345 C   0  0  0  0  0  0  0  0  0  0  0  0
   32.5172  -36.2229   -2.3199 S   0  0  0  0  0  0  0  0  0  0  0  0
   30.7430  -36.2256   -2.5583 C   0  0  0  0  0  0  0  0  0  0  0  0
   30.0464  -35.2445   -1.6952 C   0  0  0  0  0  0  0  0  0  0  0  0
   28.5462  -35.2185   -1.7697 C   0  0  2  0  0  0  0  0  0  0  0  0
   28.0808  -34.5266   -2.9209 N   0  0  0  0  0  0  0  0  0  0  0  0
   27.9732  -34.7112   -0.5009 C   0  0  0  0  0  0  0  0  0  0  0  0
   28.1306  -33.5319   -0.0924 O   0  0  0  0  0  0  0  0  0  0  0  0
   24.3218  -35.4724    0.8242 O   0  0  0  0  0  0  0  0  0  0  0  0
   25.2484  -35.8071    1.7862 C   0  0  0  0  0  0  0  0  0  0  0  0
   26.6006  -35.1692    1.5630 C   0  0  2  0  0  0  0  0  0  0  0  0
   27.2010  -35.5814    0.3170 N   0  0  0  0  0  0  0  0  0  0  0  0
   27.4710  -35.3798    2.7241 C   0  0  0  0  0  0  0  0  0  0  0  0
   28.5065  -36.0948    2.5891 O   0  0  0  0  0  0  0  0  0  0  0  0
   27.1540  -34.8052    3.9261 O   0  0  0  0  0  0  0  0  0  0  0  0
  2 12  2  0
  2  1  1  0
  3  2  1  0
  4  5  1  0
  4  3  2  0
  5 11  2  0
  6  7  1  0
  6  5  1  0
  7  9  1  0
  7  8  1  6
  9 10  2  0
 11 12  1  0
 13 14  1  0
 14 15  1  0
 17 16  1  1
 16 15  1  0
 18 17  1  0
 18  9  1  0
 19 24  1  0
 19 17  1  0
 20 19  2  0
 22 21  1  0
 23 24  1  0
 23 22  1  1
 25 23  1  0
 26 25  2  0
 27 25  1  0
M  END
$$$$
