YMS.pdb
     RDKit          3D

 27 27  0  0  1  0  0  0  0  0999 V2000
   29.6410  -12.4222  -16.0952 O   0  0  0  0  0  0  0  0  0  0  0  0
   28.5043  -11.6947  -16.3591 C   0  0  0  0  0  0  0  0  0  0  0  0
   27.9407  -11.8098  -17.6263 C   0  0  0  0  0  0  0  0  0  0  0  0
   26.8117  -11.0850  -17.8831 C   0  0  0  0  0  0  0  0  0  0  0  0
   26.1952  -10.2496  -16.9735 C   0  0  0  0  0  0  0  0  0  0  0  0
   24.9913   -9.5405  -17.3989 C   0  0  0  0  0  0  0  0  0  0  0  0
   23.7280  -10.0231  -16.7250 C   0  0  2  0  0  0  0  0  0  0  0  0
   23.5781  -11.4398  -17.0211 N   0  0  0  0  0  0  0  0  0  0  0  0
   22.6219   -9.2342  -17.3167 C   0  0  0  0  0  0  0  0  0  0  0  0
   22.2261   -9.5695  -18.4550 O   0  0  0  0  0  0  0  0  0  0  0  0
   26.7625  -10.1437  -15.7217 C   0  0  0  0  0  0  0  0  0  0  0  0
   27.9038  -10.8626  -15.4292 C   0  0  0  0  0  0  0  0  0  0  0  0
   15.3952   -7.0599  -17.2936 C   0  0  0  0  0  0  0  0  0  0  0  0
   16.8540   -7.8376  -16.5972 S   0  0  0  0  0  0  0  0  0  0  0  0
   18.3794   -7.1975  -17.2815 C   0  0  0  0  0  0  0  0  0  0  0  0
   19.5787   -7.8897  -16.7569 C   0  0  0  0  0  0  0  0  0  0  0  0
   20.9138   -7.3869  -17.2275 C   0  0  2  0  0  0  0  0  0  0  0  0
   21.9907   -8.1243  -16.6645 N   0  0  0  0  0  0  0  0  0  0  0  0
   21.0211   -5.9244  -17.0146 C   0  0  0  0  0  0  0  0  0  0  0  0
   21.3088   -5.4053  -15.9056 O   0  0  0  0  0  0  0  0  0  0  0  0
   20.9842   -1.5436  -19.2289 O   0  0  0  0  0  0  0  0  0  0  0  0
   20.8037   -2.9058  -19.3170 C   0  0  0  0  0  0  0  0  0  0  0  0
   20.8319   -3.6018  -17.9753 C   0  0  2  0  0  0  0  0  0  0  0  0
   20.7920   -5.0387  -18.1034 N   0  0  0  0  0  0  0  0  0  0  0  0
   19.7892   -3.0688  -17.0929 C   0  0  0  0  0  0  0  0  0  0  0  0
   18.6070   -3.5043  -17.2123 O   0  0  0  0  0  0  0  0  0  0  0  0
   20.1067   -2.1166  -16.1611 O   0  0  0  0  0  0  0  0  0  0  0  0
  2 12  2  0
  2  1  1  0
  3  2  1  0
  4  5  1  0
  4  3  2  0
  5 11  2  0
  6  7  1  0
  6  5  1  0
  7  9  1  0
  7  8  1  6
  9 10  2  0
 11 12  1  0
 13 14  1  0
 14 15  1  0
 17 16  1  1
 16 15  1  0
 18 17  1  0
 18  9  1  0
 19 24  1  0
 19 17  1  0
 20 19  2  0
 22 21  1  0
 23 24  1  0
 23 22  1  6
 25 23  1  0
 26 25  2  0
 27 25  1  0
M  END
$$$$
