YMS.pdb
     RDKit          3D

 27 27  0  0  1  0  0  0  0  0999 V2000
   16.0001  -15.8914  -18.8577 O   0  0  0  0  0  0  0  0  0  0  0  0
   16.7839  -14.7991  -18.5685 C   0  0  0  0  0  0  0  0  0  0  0  0
   17.8456  -14.9785  -17.6869 C   0  0  0  0  0  0  0  0  0  0  0  0
   18.6209  -13.8903  -17.4031 C   0  0  0  0  0  0  0  0  0  0  0  0
   18.4224  -12.6300  -17.9301 C   0  0  0  0  0  0  0  0  0  0  0  0
   19.3391  -11.5660  -17.5292 C   0  0  0  0  0  0  0  0  0  0  0  0
   20.2540  -11.0984  -18.6370 C   0  0  2  0  0  0  0  0  0  0  0  0
   21.2294  -12.1496  -18.8831 N   0  0  0  0  0  0  0  0  0  0  0  0
   20.9100   -9.8685  -18.1339 C   0  0  0  0  0  0  0  0  0  0  0  0
   21.9176  -10.0148  -17.4072 O   0  0  0  0  0  0  0  0  0  0  0  0
   17.3678  -12.4646  -18.8021 C   0  0  0  0  0  0  0  0  0  0  0  0
   16.5645  -13.5438  -19.1103 C   0  0  0  0  0  0  0  0  0  0  0  0
   20.8411   -5.0818  -22.2408 C   0  0  0  0  0  0  0  0  0  0  0  0
   22.4300   -5.5623  -21.5608 S   0  0  0  0  0  0  0  0  0  0  0  0
   22.2921   -6.7946  -20.2697 C   0  0  0  0  0  0  0  0  0  0  0  0
   21.3242   -6.4152  -19.2153 C   0  0  0  0  0  0  0  0  0  0  0  0
   21.1685   -7.3653  -18.0621 C   0  0  2  0  0  0  0  0  0  0  0  0
   20.4588   -8.5405  -18.4307 N   0  0  0  0  0  0  0  0  0  0  0  0
   20.5911   -6.6670  -16.8897 C   0  0  0  0  0  0  0  0  0  0  0  0
   19.3948   -6.2822  -16.8327 O   0  0  0  0  0  0  0  0  0  0  0  0
   21.3373   -7.7183  -13.1259 O   0  0  0  0  0  0  0  0  0  0  0  0
   21.5769   -6.3747  -13.3083 C   0  0  0  0  0  0  0  0  0  0  0  0
   20.9092   -5.8091  -14.5410 C   0  0  2  0  0  0  0  0  0  0  0  0
   21.4094   -6.4053  -15.7564 N   0  0  0  0  0  0  0  0  0  0  0  0
   20.9783   -4.3444  -14.5421 C   0  0  0  0  0  0  0  0  0  0  0  0
   21.6630   -3.7662  -15.4357 O   0  0  0  0  0  0  0  0  0  0  0  0
   20.3075   -3.6302  -13.5854 O   0  0  0  0  0  0  0  0  0  0  0  0
  2 12  2  0
  2  1  1  0
  3  2  1  0
  4  5  1  0
  4  3  2  0
  5 11  2  0
  6  7  1  0
  6  5  1  0
  7  9  1  0
  7  8  1  1
  9 10  2  0
 11 12  1  0
 13 14  1  0
 14 15  1  0
 17 16  1  6
 16 15  1  0
 18 17  1  0
 18  9  1  0
 19 24  1  0
 19 17  1  0
 20 19  2  0
 22 21  1  0
 23 24  1  0
 23 22  1  1
 25 23  1  0
 26 25  2  0
 27 25  1  0
M  END
$$$$
