YMS.pdb
     RDKit          3D

 27 27  0  0  1  0  0  0  0  0999 V2000
    9.3123  -15.2807   -0.7915 O   0  0  0  0  0  0  0  0  0  0  0  0
    9.8808  -16.3213   -0.0951 C   0  0  0  0  0  0  0  0  0  0  0  0
   11.1101  -16.0964    0.5173 C   0  0  0  0  0  0  0  0  0  0  0  0
   11.6702  -17.1334    1.2078 C   0  0  0  0  0  0  0  0  0  0  0  0
   11.1008  -18.3840    1.3381 C   0  0  0  0  0  0  0  0  0  0  0  0
   11.8244  -19.3908    2.1102 C   0  0  0  0  0  0  0  0  0  0  0  0
   12.7539  -20.2453    1.2803 C   0  0  2  0  0  0  0  0  0  0  0  0
   11.9361  -21.1228    0.4566 N   0  0  0  0  0  0  0  0  0  0  0  0
   13.5657  -21.0230    2.2458 C   0  0  0  0  0  0  0  0  0  0  0  0
   13.0318  -22.0305    2.7602 O   0  0  0  0  0  0  0  0  0  0  0  0
    9.8832  -18.5949    0.7272 C   0  0  0  0  0  0  0  0  0  0  0  0
    9.2896  -17.5681    0.0215 C   0  0  0  0  0  0  0  0  0  0  0  0
   20.3366  -24.4038    3.9227 C   0  0  0  0  0  0  0  0  0  0  0  0
   19.2258  -23.4718    2.8666 S   0  0  0  0  0  0  0  0  0  0  0  0
   17.7492  -22.9247    3.7180 C   0  0  0  0  0  0  0  0  0  0  0  0
   16.8654  -22.1004    2.8623 C   0  0  0  0  0  0  0  0  0  0  0  0
   15.6888  -21.4477    3.5304 C   0  0  2  0  0  0  0  0  0  0  0  0
   14.9096  -20.6878    2.6160 N   0  0  0  0  0  0  0  0  0  0  0  0
   16.1284  -20.6778    4.7176 C   0  0  0  0  0  0  0  0  0  0  0  0
   16.7099  -19.5648    4.6449 O   0  0  0  0  0  0  0  0  0  0  0  0
   15.5228  -22.2813    8.6810 O   0  0  0  0  0  0  0  0  0  0  0  0
   15.3313  -20.9482    8.3943 C   0  0  0  0  0  0  0  0  0  0  0  0
   16.1613  -20.4609    7.2287 C   0  0  2  0  0  0  0  0  0  0  0  0
   15.8933  -21.2009    6.0190 N   0  0  0  0  0  0  0  0  0  0  0  0
   17.5835  -20.4254    7.5839 C   0  0  0  0  0  0  0  0  0  0  0  0
   18.3929  -21.1509    6.9359 O   0  0  0  0  0  0  0  0  0  0  0  0
   18.0111  -19.6154    8.6020 O   0  0  0  0  0  0  0  0  0  0  0  0
  2 12  2  0
  2  1  1  0
  3  2  1  0
  4  5  1  0
  4  3  2  0
  5 11  2  0
  6  7  1  0
  6  5  1  0
  7  9  1  0
  7  8  1  6
  9 10  2  0
 11 12  1  0
 13 14  1  0
 14 15  1  0
 17 16  1  6
 16 15  1  0
 18 17  1  0
 18  9  1  0
 19 24  1  0
 19 17  1  0
 20 19  2  0
 22 21  1  0
 23 24  1  0
 23 22  1  1
 25 23  1  0
 26 25  2  0
 27 25  1  0
M  END
$$$$
