YMS.pdb
     RDKit          3D

 27 27  0  0  1  0  0  0  0  0999 V2000
   28.1074  -12.6174  -17.4168 O   0  0  0  0  0  0  0  0  0  0  0  0
   27.5778  -13.7601  -16.8648 C   0  0  0  0  0  0  0  0  0  0  0  0
   26.9664  -14.6705  -17.7216 C   0  0  0  0  0  0  0  0  0  0  0  0
   26.4421  -15.8039  -17.1681 C   0  0  0  0  0  0  0  0  0  0  0  0
   26.4780  -16.1052  -15.8215 C   0  0  0  0  0  0  0  0  0  0  0  0
   25.8726  -17.3597  -15.3823 C   0  0  0  0  0  0  0  0  0  0  0  0
   26.8740  -18.3918  -14.9187 C   0  0  2  0  0  0  0  0  0  0  0  0
   27.5506  -18.9163  -16.0953 N   0  0  0  0  0  0  0  0  0  0  0  0
   26.0877  -19.4484  -14.2397 C   0  0  0  0  0  0  0  0  0  0  0  0
   25.7239  -20.4243  -14.9326 O   0  0  0  0  0  0  0  0  0  0  0  0
   27.0861  -15.1960  -14.9827 C   0  0  0  0  0  0  0  0  0  0  0  0
   27.6263  -14.0403  -15.5096 C   0  0  0  0  0  0  0  0  0  0  0  0
   26.5756  -20.7469   -7.8756 C   0  0  0  0  0  0  0  0  0  0  0  0
   24.9710  -21.4793   -8.2022 S   0  0  0  0  0  0  0  0  0  0  0  0
   24.5707  -21.5327   -9.9463 C   0  0  0  0  0  0  0  0  0  0  0  0
   25.2407  -20.4639  -10.7218 C   0  0  0  0  0  0  0  0  0  0  0  0
   24.9892  -20.4393  -12.2027 C   0  0  2  0  0  0  0  0  0  0  0  0
   25.7271  -19.4128  -12.8526 N   0  0  0  0  0  0  0  0  0  0  0  0
   23.5345  -20.3908  -12.4804 C   0  0  0  0  0  0  0  0  0  0  0  0
   22.8308  -19.3623  -12.3096 O   0  0  0  0  0  0  0  0  0  0  0  0
   19.6578  -23.0625  -13.9182 O   0  0  0  0  0  0  0  0  0  0  0  0
   21.0232  -22.9336  -13.7964 C   0  0  0  0  0  0  0  0  0  0  0  0
   21.4481  -21.6221  -13.1764 C   0  0  2  0  0  0  0  0  0  0  0  0
   22.8742  -21.5529  -12.9660 N   0  0  0  0  0  0  0  0  0  0  0  0
   20.6690  -21.3447  -11.9655 C   0  0  0  0  0  0  0  0  0  0  0  0
   19.6022  -20.6715  -12.0669 O   0  0  0  0  0  0  0  0  0  0  0  0
   21.1029  -21.8136  -10.7542 O   0  0  0  0  0  0  0  0  0  0  0  0
  2 12  2  0
  2  1  1  0
  3  2  1  0
  4  5  1  0
  4  3  2  0
  5 11  2  0
  6  7  1  0
  6  5  1  0
  7  9  1  0
  7  8  1  6
  9 10  2  0
 11 12  1  0
 13 14  1  0
 14 15  1  0
 17 16  1  1
 16 15  1  0
 18 17  1  0
 18  9  1  0
 19 24  1  0
 19 17  1  0
 20 19  2  0
 22 21  1  0
 23 24  1  0
 23 22  1  1
 25 23  1  0
 26 25  2  0
 27 25  1  0
M  END
$$$$
