AMK.pdb
     RDKit          3D

 23 22  0  0  1  0  0  0  0  0999 V2000
   27.9956  -18.9037  -15.0655 C   0  0  0  0  0  0  0  0  0  0  0  0
   28.2863  -20.3015  -14.5526 C   0  0  2  0  0  0  0  0  0  0  0  0
   28.4625  -21.1495  -15.7101 N   0  0  0  0  0  0  0  0  0  0  0  0
   27.1597  -20.8348  -13.7283 C   0  0  0  0  0  0  0  0  0  0  0  0
   26.2807  -21.5026  -14.2930 O   0  0  0  0  0  0  0  0  0  0  0  0
   27.4506  -19.5101   -7.4827 C   0  0  0  0  0  0  0  0  0  0  0  0
   25.8678  -20.3941   -7.3691 S   0  0  0  0  0  0  0  0  0  0  0  0
   25.4062  -20.9480   -9.0649 C   0  0  0  0  0  0  0  0  0  0  0  0
   26.4647  -20.5217  -10.0245 C   0  0  0  0  0  0  0  0  0  0  0  0
   26.0425  -20.8771  -11.4421 C   0  0  2  0  0  0  0  0  0  0  0  0
   27.1072  -20.5777  -12.3380 N   0  0  0  0  0  0  0  0  0  0  0  0
   24.7905  -20.1999  -11.7722 C   0  0  0  0  0  0  0  0  0  0  0  0
   24.8524  -19.0336  -12.2846 O   0  0  0  0  0  0  0  0  0  0  0  0
   23.5014  -20.7351  -11.5687 N   0  0  0  0  0  0  0  0  0  0  0  0
   22.4298  -20.6580  -12.5632 C   0  0  1  0  0  0  0  0  0  0  0  0
   22.8324  -21.1861  -13.8844 C   0  0  0  0  0  0  0  0  0  0  0  0
   21.8303  -21.2127  -14.9700 C   0  0  0  0  0  0  0  0  0  0  0  0
   22.2926  -21.8394  -16.2605 C   0  0  0  0  0  0  0  0  0  0  0  0
   21.1159  -21.7851  -17.2183 C   0  0  0  0  0  0  0  0  0  0  0  0
   21.5357  -22.4535  -18.4364 N   0  0  0  0  0  0  0  0  0  0  0  0
   21.1716  -21.1853  -11.9982 C   0  0  0  0  0  0  0  0  0  0  0  0
   19.9258  -20.8526  -12.5034 O   0  0  0  0  0  0  0  0  0  0  0  0
   21.1872  -21.9720  -11.0173 O   0  0  0  0  0  0  0  0  0  0  0  0
  2  1  1  6
  2  3  1  0
  4  2  1  0
  4  5  2  0
  7  8  1  0
  7  6  1  0
  8  9  1  0
 10  9  1  1
 10 12  1  0
 10 11  1  0
 11  4  1  0
 12 14  1  0
 13 12  2  0
 14 15  1  0
 15 21  1  0
 15 16  1  6
 17 16  1  0
 18 17  1  0
 19 18  1  0
 20 19  1  0
 21 23  2  0
 21 22  1  0
M  END
$$$$
