AMK.pdb
     RDKit          3D

 23 22  0  0  1  0  0  0  0  0999 V2000
   20.2722  -13.0638  -19.5664 C   0  0  0  0  0  0  0  0  0  0  0  0
   21.6581  -13.3017  -18.9968 C   0  0  2  0  0  0  0  0  0  0  0  0
   21.7454  -14.7067  -18.6678 N   0  0  0  0  0  0  0  0  0  0  0  0
   21.8939  -12.4985  -17.7590 C   0  0  0  0  0  0  0  0  0  0  0  0
   21.1296  -12.6612  -16.7962 O   0  0  0  0  0  0  0  0  0  0  0  0
   27.8204  -13.2343  -15.0584 C   0  0  0  0  0  0  0  0  0  0  0  0
   27.1920  -11.7104  -15.8219 S   0  0  0  0  0  0  0  0  0  0  0  0
   25.3532  -11.8195  -15.8722 C   0  0  0  0  0  0  0  0  0  0  0  0
   24.8069  -10.5893  -16.5132 C   0  0  0  0  0  0  0  0  0  0  0  0
   23.2940  -10.7005  -16.6259 C   0  0  2  0  0  0  0  0  0  0  0  0
   22.9662  -11.5776  -17.6980 N   0  0  0  0  0  0  0  0  0  0  0  0
   22.7062   -9.3692  -16.7571 C   0  0  0  0  0  0  0  0  0  0  0  0
   22.7834   -8.7843  -17.8878 O   0  0  0  0  0  0  0  0  0  0  0  0
   22.0516   -8.6668  -15.7236 N   0  0  0  0  0  0  0  0  0  0  0  0
   21.4310   -7.3538  -15.9083 C   0  0  1  0  0  0  0  0  0  0  0  0
   20.0714   -7.4362  -16.4837 C   0  0  0  0  0  0  0  0  0  0  0  0
   19.3161   -6.1836  -16.6941 C   0  0  0  0  0  0  0  0  0  0  0  0
   17.9511   -6.3487  -17.3117 C   0  0  0  0  0  0  0  0  0  0  0  0
   17.3804   -4.9530  -17.4886 C   0  0  0  0  0  0  0  0  0  0  0  0
   16.1417   -5.0977  -18.2314 N   0  0  0  0  0  0  0  0  0  0  0  0
   21.5802   -6.5431  -14.6831 C   0  0  0  0  0  0  0  0  0  0  0  0
   22.0761   -7.0603  -13.4980 O   0  0  0  0  0  0  0  0  0  0  0  0
   21.2551   -5.3283  -14.6725 O   0  0  0  0  0  0  0  0  0  0  0  0
  2  1  1  1
  2  3  1  0
  4  2  1  0
  4  5  2  0
  7  8  1  0
  7  6  1  0
  8  9  1  0
 10  9  1  6
 10 12  1  0
 10 11  1  0
 11  4  1  0
 12 14  1  0
 13 12  2  0
 14 15  1  0
 15 21  1  0
 15 16  1  1
 17 16  1  0
 18 17  1  0
 19 18  1  0
 20 19  1  0
 21 23  2  0
 21 22  1  0
M  END
$$$$
