AMK.pdb
     RDKit          3D

 23 22  0  0  1  0  0  0  0  0999 V2000
   24.3237  -18.8106  -22.9590 C   0  0  0  0  0  0  0  0  0  0  0  0
   25.4077  -18.5964  -21.9195 C   0  0  2  0  0  0  0  0  0  0  0  0
   25.9082  -19.9026  -21.5541 N   0  0  0  0  0  0  0  0  0  0  0  0
   24.8773  -17.9212  -20.6966 C   0  0  0  0  0  0  0  0  0  0  0  0
   23.8856  -18.4110  -20.1360 O   0  0  0  0  0  0  0  0  0  0  0  0
   25.6934  -15.4974  -14.2702 C   0  0  0  0  0  0  0  0  0  0  0  0
   26.8007  -15.6346  -15.7037 S   0  0  0  0  0  0  0  0  0  0  0  0
   26.0085  -14.7564  -17.1167 C   0  0  0  0  0  0  0  0  0  0  0  0
   26.3779  -15.4413  -18.3883 C   0  0  0  0  0  0  0  0  0  0  0  0
   25.1264  -15.9937  -19.0536 C   0  0  2  0  0  0  0  0  0  0  0  0
   25.4992  -16.7519  -20.1990 N   0  0  0  0  0  0  0  0  0  0  0  0
   24.1982  -14.9043  -19.3483 C   0  0  0  0  0  0  0  0  0  0  0  0
   24.4814  -14.1133  -20.3079 O   0  0  0  0  0  0  0  0  0  0  0  0
   22.9987  -14.6504  -18.6507 N   0  0  0  0  0  0  0  0  0  0  0  0
   22.0528  -13.5991  -19.0290 C   0  0  1  0  0  0  0  0  0  0  0  0
   20.7124  -13.7905  -18.4347 C   0  0  0  0  0  0  0  0  0  0  0  0
   19.6410  -12.8351  -18.7853 C   0  0  0  0  0  0  0  0  0  0  0  0
   18.3192  -13.0669  -18.0993 C   0  0  0  0  0  0  0  0  0  0  0  0
   17.3572  -12.0251  -18.6417 C   0  0  0  0  0  0  0  0  0  0  0  0
   16.1003  -12.2091  -17.9393 N   0  0  0  0  0  0  0  0  0  0  0  0
   22.6700  -12.2698  -18.8490 C   0  0  0  0  0  0  0  0  0  0  0  0
   22.7482  -11.3356  -19.8683 O   0  0  0  0  0  0  0  0  0  0  0  0
   23.1568  -11.9318  -17.7398 O   0  0  0  0  0  0  0  0  0  0  0  0
  2  1  1  6
  2  3  1  0
  4  2  1  0
  4  5  2  0
  7  8  1  0
  7  6  1  0
  8  9  1  0
 10  9  1  6
 10 12  1  0
 10 11  1  0
 11  4  1  0
 12 14  1  0
 13 12  2  0
 14 15  1  0
 15 21  1  0
 15 16  1  1
 17 16  1  0
 18 17  1  0
 19 18  1  0
 20 19  1  0
 21 23  2  0
 21 22  1  0
M  END
$$$$
