AMK.pdb
     RDKit          3D

 23 22  0  0  1  0  0  0  0  0999 V2000
   19.5543  -20.2820  -14.0489 C   0  0  0  0  0  0  0  0  0  0  0  0
   20.6240  -21.2519  -13.5836 C   0  0  2  0  0  0  0  0  0  0  0  0
   20.1952  -21.7744  -12.3057 N   0  0  0  0  0  0  0  0  0  0  0  0
   21.9466  -20.5780  -13.4124 C   0  0  0  0  0  0  0  0  0  0  0  0
   22.0428  -19.3811  -13.7219 O   0  0  0  0  0  0  0  0  0  0  0  0
   25.1182  -20.6196   -8.2269 C   0  0  0  0  0  0  0  0  0  0  0  0
   25.9394  -19.7246   -9.5776 S   0  0  0  0  0  0  0  0  0  0  0  0
   26.1916  -20.9068  -10.9684 C   0  0  0  0  0  0  0  0  0  0  0  0
   24.8775  -21.4946  -11.3560 C   0  0  0  0  0  0  0  0  0  0  0  0
   24.3475  -20.7889  -12.5950 C   0  0  2  0  0  0  0  0  0  0  0  0
   23.0557  -21.2976  -12.9086 N   0  0  0  0  0  0  0  0  0  0  0  0
   25.3086  -20.9153  -13.6883 C   0  0  0  0  0  0  0  0  0  0  0  0
   25.3820  -22.0315  -14.3011 O   0  0  0  0  0  0  0  0  0  0  0  0
   26.1743  -19.8924  -14.1289 N   0  0  0  0  0  0  0  0  0  0  0  0
   26.9817  -19.9878  -15.3463 C   0  0  1  0  0  0  0  0  0  0  0  0
   27.6048  -18.7016  -15.7254 C   0  0  0  0  0  0  0  0  0  0  0  0
   28.4236  -18.6481  -16.9543 C   0  0  0  0  0  0  0  0  0  0  0  0
   29.0155  -17.3002  -17.2778 C   0  0  0  0  0  0  0  0  0  0  0  0
   29.7709  -17.4576  -18.5853 C   0  0  0  0  0  0  0  0  0  0  0  0
   30.4291  -16.1901  -18.8443 N   0  0  0  0  0  0  0  0  0  0  0  0
   27.8788  -21.1583  -15.2721 C   0  0  0  0  0  0  0  0  0  0  0  0
   28.1548  -21.9616  -16.3659 O   0  0  0  0  0  0  0  0  0  0  0  0
   28.4360  -21.4737  -14.1897 O   0  0  0  0  0  0  0  0  0  0  0  0
  2  1  1  1
  2  3  1  0
  4  2  1  0
  4  5  2  0
  7  8  1  0
  7  6  1  0
  8  9  1  0
 10  9  1  1
 10 12  1  0
 10 11  1  0
 11  4  1  0
 12 14  1  0
 13 12  2  0
 14 15  1  0
 15 21  1  0
 15 16  1  1
 17 16  1  0
 18 17  1  0
 19 18  1  0
 20 19  1  0
 21 23  2  0
 21 22  1  0
M  END
$$$$
