AMK.pdb
     RDKit          3D

 23 22  0  0  1  0  0  0  0  0999 V2000
   22.8983  -35.1778   -7.3744 C   0  0  0  0  0  0  0  0  0  0  0  0
   23.6809  -33.8800   -7.4447 C   0  0  2  0  0  0  0  0  0  0  0  0
   24.6440  -34.0234   -8.5133 N   0  0  0  0  0  0  0  0  0  0  0  0
   24.4094  -33.6025   -6.1699 C   0  0  0  0  0  0  0  0  0  0  0  0
   25.4962  -34.1673   -5.9769 O   0  0  0  0  0  0  0  0  0  0  0  0
   24.3119  -28.4654   -0.1624 C   0  0  0  0  0  0  0  0  0  0  0  0
   23.3443  -29.2213   -1.5011 S   0  0  0  0  0  0  0  0  0  0  0  0
   24.3272  -30.6199   -2.1893 C   0  0  0  0  0  0  0  0  0  0  0  0
   23.6599  -31.1276   -3.4221 C   0  0  0  0  0  0  0  0  0  0  0  0
   24.4468  -32.3029   -3.9821 C   0  0  2  0  0  0  0  0  0  0  0  0
   23.8631  -32.7149   -5.2131 N   0  0  0  0  0  0  0  0  0  0  0  0
   24.5258  -33.3682   -2.9851 C   0  0  0  0  0  0  0  0  0  0  0  0
   23.4785  -34.0592   -2.7562 O   0  0  0  0  0  0  0  0  0  0  0  0
   25.6791  -33.7011   -2.2442 N   0  0  0  0  0  0  0  0  0  0  0  0
   25.7115  -34.7617   -1.2357 C   0  0  1  0  0  0  0  0  0  0  0  0
   26.7090  -35.8110   -1.5365 C   0  0  0  0  0  0  0  0  0  0  0  0
   26.7792  -36.9933   -0.6528 C   0  0  0  0  0  0  0  0  0  0  0  0
   27.7909  -38.0374   -1.0504 C   0  0  0  0  0  0  0  0  0  0  0  0
   27.6161  -39.2018   -0.0919 C   0  0  0  0  0  0  0  0  0  0  0  0
   28.5227  -40.2465   -0.5319 N   0  0  0  0  0  0  0  0  0  0  0  0
   25.7597  -34.1753    0.1187 C   0  0  0  0  0  0  0  0  0  0  0  0
   25.8585  -32.8122    0.3421 O   0  0  0  0  0  0  0  0  0  0  0  0
   25.7118  -34.9089    1.1390 O   0  0  0  0  0  0  0  0  0  0  0  0
  2  1  1  1
  2  3  1  0
  4  2  1  0
  4  5  2  0
  7  8  1  0
  7  6  1  0
  8  9  1  0
 10  9  1  1
 10 12  1  0
 10 11  1  0
 11  4  1  0
 12 14  1  0
 13 12  2  0
 14 15  1  0
 15 21  1  0
 15 16  1  6
 17 16  1  0
 18 17  1  0
 19 18  1  0
 20 19  1  0
 21 23  2  0
 21 22  1  0
M  END
$$$$
