WNR.pdb
     RDKit          3D

 34 35  0  0  1  0  0  0  0  0999 V2000
    8.0260  -16.4291   20.1306 N   0  0  0  0  0  0  0  0  0  0  0  0
    8.8067  -15.9813   21.2512 C   0  0  1  0  0  0  0  0  0  0  0  0
    8.0549  -16.0774   22.5552 C   0  0  0  0  0  0  0  0  0  0  0  0
    7.3756  -14.7980   22.8803 C   0  0  0  0  0  0  0  0  0  0  0  0
    6.7502  -13.8980   22.0489 C   0  0  0  0  0  0  0  0  0  0  0  0
    6.2757  -12.8745   22.7822 N   0  0  0  0  0  0  0  0  0  0  0  0
    6.5697  -13.0719   24.0776 C   0  0  0  0  0  0  0  0  0  0  0  0
    6.3299  -12.3612   25.2290 C   0  0  0  0  0  0  0  0  0  0  0  0
    6.7631  -12.8271   26.4390 C   0  0  0  0  0  0  0  0  0  0  0  0
    7.4502  -14.0182   26.5421 C   0  0  0  0  0  0  0  0  0  0  0  0
    7.6833  -14.7224   25.3718 C   0  0  0  0  0  0  0  0  0  0  0  0
    7.2527  -14.2616   24.1586 C   0  0  0  0  0  0  0  0  0  0  0  0
   10.1188  -16.6372   21.2677 C   0  0  0  0  0  0  0  0  0  0  0  0
   10.1956  -17.7772   20.6814 O   0  0  0  0  0  0  0  0  0  0  0  0
   15.8242  -15.9335   23.2193 N   0  0  0  0  0  0  0  0  0  0  0  0
   14.9614  -16.5424   22.2131 C   0  0  0  0  0  0  0  0  0  0  0  0
   15.4665  -17.4621   21.5523 O   0  0  0  0  0  0  0  0  0  0  0  0
   13.6260  -16.0208   22.0888 C   0  0  0  0  0  0  0  0  0  0  0  0
   12.4687  -16.9895   22.0289 C   0  0  2  0  0  0  0  0  0  0  0  0
   11.2675  -16.0939   21.8781 N   0  0  0  0  0  0  0  0  0  0  0  0
   12.2802  -17.7498   23.2749 C   0  0  0  0  0  0  0  0  0  0  0  0
   13.2422  -18.5370   23.6267 O   0  0  0  0  0  0  0  0  0  0  0  0
   11.0110  -13.1168   28.3842 N   0  0  0  0  0  0  0  0  0  0  0  0
   10.6153  -14.2787   29.1098 C   0  0  0  0  0  0  0  0  0  0  0  0
   10.7684  -14.2498   30.3752 N   0  0  0  0  0  0  0  0  0  0  0  0
   10.0836  -15.3938   28.4349 N   0  0  0  0  0  0  0  0  0  0  0  0
    9.8995  -15.3674   27.0146 C   0  0  0  0  0  0  0  0  0  0  0  0
   10.9252  -16.2288   26.3095 C   0  0  0  0  0  0  0  0  0  0  0  0
   10.4268  -17.6569   26.4113 C   0  0  0  0  0  0  0  0  0  0  0  0
   11.1618  -18.5072   25.3975 C   0  0  2  0  0  0  0  0  0  0  0  0
   11.1974  -17.7430   24.1546 N   0  0  0  0  0  0  0  0  0  0  0  0
   10.3910  -19.7561   25.2469 C   0  0  0  0  0  0  0  0  0  0  0  0
   10.4222  -20.7174   26.2257 O   0  0  0  0  0  0  0  0  0  0  0  0
    9.7100  -19.9303   24.2213 O   0  0  0  0  0  0  0  0  0  0  0  0
  2  1  1  6
  3  4  1  0
  3  2  1  0
  4  5  2  0
  5  6  1  0
  7  6  1  0
  8  7  2  0
  9  8  1  0
 10 11  1  0
 10  9  2  0
 11 12  2  0
 12  4  1  0
 12  7  1  0
 13  2  1  0
 14 13  2  0
 16 15  1  0
 17 16  2  0
 18 16  1  0
 19 20  1  0
 19 18  1  1
 20 13  1  0
 21 19  1  0
 22 21  2  0
 24 23  1  0
 24 25  2  0
 26 27  1  0
 26 24  1  0
 27 28  1  0
 28 29  1  0
 30 29  1  1
 30 31  1  0
 31 21  1  0
 32 30  1  0
 33 32  1  0
 34 32  2  0
M  END
$$$$
