WNR.pdb
     RDKit          3D

 34 35  0  0  1  0  0  0  0  0999 V2000
    6.6760  -17.4795   23.3602 N   0  0  0  0  0  0  0  0  0  0  0  0
    7.8816  -16.7037   23.4616 C   0  0  1  0  0  0  0  0  0  0  0  0
    8.2254  -16.3527   24.8876 C   0  0  0  0  0  0  0  0  0  0  0  0
    7.2151  -15.4371   25.4749 C   0  0  0  0  0  0  0  0  0  0  0  0
    6.0335  -15.7266   26.1173 C   0  0  0  0  0  0  0  0  0  0  0  0
    5.4354  -14.5777   26.4818 N   0  0  0  0  0  0  0  0  0  0  0  0
    6.1889  -13.5343   26.0984 C   0  0  0  0  0  0  0  0  0  0  0  0
    6.0587  -12.1710   26.2123 C   0  0  0  0  0  0  0  0  0  0  0  0
    7.0166  -11.3347   25.7104 C   0  0  0  0  0  0  0  0  0  0  0  0
    8.1374  -11.8296   25.0777 C   0  0  0  0  0  0  0  0  0  0  0  0
    8.2532  -13.2063   24.9715 C   0  0  0  0  0  0  0  0  0  0  0  0
    7.2986  -14.0479   25.4714 C   0  0  0  0  0  0  0  0  0  0  0  0
    8.9762  -17.3426   22.7227 C   0  0  0  0  0  0  0  0  0  0  0  0
    9.0228  -18.6252   22.7656 O   0  0  0  0  0  0  0  0  0  0  0  0
   10.4762  -17.4087   18.9837 N   0  0  0  0  0  0  0  0  0  0  0  0
   11.5237  -16.4587   19.3411 C   0  0  0  0  0  0  0  0  0  0  0  0
   11.9611  -15.7614   18.4136 O   0  0  0  0  0  0  0  0  0  0  0  0
   11.9405  -16.4260   20.7181 C   0  0  0  0  0  0  0  0  0  0  0  0
   11.2556  -17.3385   21.7079 C   0  0  2  0  0  0  0  0  0  0  0  0
    9.9520  -16.6385   21.9883 N   0  0  0  0  0  0  0  0  0  0  0  0
   11.9675  -17.4446   22.9917 C   0  0  0  0  0  0  0  0  0  0  0  0
   11.5302  -16.7113   23.9612 O   0  0  0  0  0  0  0  0  0  0  0  0
    9.4267  -20.1662   28.6696 N   0  0  0  0  0  0  0  0  0  0  0  0
   10.3881  -21.1496   29.0460 C   0  0  0  0  0  0  0  0  0  0  0  0
   10.2749  -21.6518   30.2124 N   0  0  0  0  0  0  0  0  0  0  0  0
   11.4064  -21.5298   28.1516 N   0  0  0  0  0  0  0  0  0  0  0  0
   11.3591  -21.1267   26.7779 C   0  0  0  0  0  0  0  0  0  0  0  0
   12.5455  -20.2588   26.4166 C   0  0  0  0  0  0  0  0  0  0  0  0
   12.2441  -19.6688   25.0531 C   0  0  0  0  0  0  0  0  0  0  0  0
   13.3446  -18.6975   24.6840 C   0  0  2  0  0  0  0  0  0  0  0  0
   13.0637  -18.2397   23.3269 N   0  0  0  0  0  0  0  0  0  0  0  0
   14.6156  -19.4433   24.7548 C   0  0  0  0  0  0  0  0  0  0  0  0
   15.2423  -19.6406   25.9596 O   0  0  0  0  0  0  0  0  0  0  0  0
   15.1154  -19.8935   23.7092 O   0  0  0  0  0  0  0  0  0  0  0  0
  2  1  1  1
  3  4  1  0
  3  2  1  0
  4  5  2  0
  5  6  1  0
  7  6  1  0
  8  7  2  0
  9  8  1  0
 10 11  1  0
 10  9  2  0
 11 12  2  0
 12  4  1  0
 12  7  1  0
 13  2  1  0
 14 13  2  0
 16 15  1  0
 17 16  2  0
 18 16  1  0
 19 20  1  0
 19 18  1  6
 20 13  1  0
 21 19  1  0
 22 21  2  0
 24 23  1  0
 24 25  2  0
 26 27  1  0
 26 24  1  0
 27 28  1  0
 28 29  1  0
 30 29  1  6
 30 31  1  0
 31 21  1  0
 32 30  1  0
 33 32  1  0
 34 32  2  0
M  END
$$$$
