WNR.pdb
     RDKit          3D

 34 35  0  0  1  0  0  0  0  0999 V2000
    8.2278  -16.9130   24.0839 N   0  0  0  0  0  0  0  0  0  0  0  0
    9.2891  -15.9882   24.3739 C   0  0  1  0  0  0  0  0  0  0  0  0
    9.2054  -15.4320   25.7734 C   0  0  0  0  0  0  0  0  0  0  0  0
    7.8472  -14.9074   26.0636 C   0  0  0  0  0  0  0  0  0  0  0  0
    6.6683  -15.5852   26.2718 C   0  0  0  0  0  0  0  0  0  0  0  0
    5.6825  -14.6981   26.4993 N   0  0  0  0  0  0  0  0  0  0  0  0
    6.1763  -13.4503   26.4475 C   0  0  0  0  0  0  0  0  0  0  0  0
    5.6272  -12.2002   26.6026 C   0  0  0  0  0  0  0  0  0  0  0  0
    6.4020  -11.0795   26.4909 C   0  0  0  0  0  0  0  0  0  0  0  0
    7.7514  -11.1673   26.2209 C   0  0  0  0  0  0  0  0  0  0  0  0
    8.2891  -12.4351   26.0677 C   0  0  0  0  0  0  0  0  0  0  0  0
    7.5193  -13.5597   26.1781 C   0  0  0  0  0  0  0  0  0  0  0  0
   10.5934  -16.5700   24.0389 C   0  0  0  0  0  0  0  0  0  0  0  0
   11.6064  -15.7844   24.1144 O   0  0  0  0  0  0  0  0  0  0  0  0
   14.4310  -19.8557   22.4647 N   0  0  0  0  0  0  0  0  0  0  0  0
   13.3683  -20.5648   23.1685 C   0  0  0  0  0  0  0  0  0  0  0  0
   13.5688  -21.7704   23.3779 O   0  0  0  0  0  0  0  0  0  0  0  0
   12.2066  -19.8035   23.5450 C   0  0  0  0  0  0  0  0  0  0  0  0
   12.1711  -18.3264   23.2315 C   0  0  2  0  0  0  0  0  0  0  0  0
   10.7850  -17.9112   23.6490 N   0  0  0  0  0  0  0  0  0  0  0  0
   12.2895  -18.0328   21.7941 C   0  0  0  0  0  0  0  0  0  0  0  0
   11.3461  -18.4758   21.0308 O   0  0  0  0  0  0  0  0  0  0  0  0
    7.5556  -14.2696   18.3223 N   0  0  0  0  0  0  0  0  0  0  0  0
    8.5410  -13.3553   17.8468 C   0  0  0  0  0  0  0  0  0  0  0  0
    8.1636  -12.4959   16.9841 N   0  0  0  0  0  0  0  0  0  0  0  0
    9.8636  -13.4210   18.3243 N   0  0  0  0  0  0  0  0  0  0  0  0
   10.2203  -14.3435   19.3604 C   0  0  0  0  0  0  0  0  0  0  0  0
   11.7011  -14.2813   19.6684 C   0  0  0  0  0  0  0  0  0  0  0  0
   11.9759  -15.3847   20.6709 C   0  0  0  0  0  0  0  0  0  0  0  0
   13.0136  -16.3242   20.0952 C   0  0  2  0  0  0  0  0  0  0  0  0
   13.2864  -17.3278   21.1192 N   0  0  0  0  0  0  0  0  0  0  0  0
   14.2085  -15.5117   19.7974 C   0  0  0  0  0  0  0  0  0  0  0  0
   14.3872  -14.9646   18.5516 O   0  0  0  0  0  0  0  0  0  0  0  0
   15.0553  -15.3261   20.6888 O   0  0  0  0  0  0  0  0  0  0  0  0
  2  1  1  1
  3  4  1  0
  3  2  1  0
  4  5  2  0
  5  6  1  0
  7  6  1  0
  8  7  2  0
  9  8  1  0
 10 11  1  0
 10  9  2  0
 11 12  2  0
 12  4  1  0
 12  7  1  0
 13  2  1  0
 14 13  2  0
 16 15  1  0
 17 16  2  0
 18 16  1  0
 19 20  1  0
 19 18  1  6
 20 13  1  0
 21 19  1  0
 22 21  2  0
 24 23  1  0
 24 25  2  0
 26 27  1  0
 26 24  1  0
 27 28  1  0
 28 29  1  0
 30 29  1  1
 30 31  1  0
 31 21  1  0
 32 30  1  0
 33 32  1  0
 34 32  2  0
M  END
$$$$
