WNR.pdb
     RDKit          3D

 34 35  0  0  1  0  0  0  0  0999 V2000
    6.4136  -17.6894   24.5577 N   0  0  0  0  0  0  0  0  0  0  0  0
    7.0105  -16.4105   24.2864 C   0  0  1  0  0  0  0  0  0  0  0  0
    7.5694  -15.7582   25.5262 C   0  0  0  0  0  0  0  0  0  0  0  0
    6.6394  -14.7314   26.0599 C   0  0  0  0  0  0  0  0  0  0  0  0
    5.3636  -14.8723   26.5548 C   0  0  0  0  0  0  0  0  0  0  0  0
    4.8974  -13.6657   26.9254 N   0  0  0  0  0  0  0  0  0  0  0  0
    5.8300  -12.7287   26.6895 C   0  0  0  0  0  0  0  0  0  0  0  0
    5.8829  -11.3679   26.8741 C   0  0  0  0  0  0  0  0  0  0  0  0
    7.0005  -10.6603   26.5291 C   0  0  0  0  0  0  0  0  0  0  0  0
    8.1041  -11.2858   25.9883 C   0  0  0  0  0  0  0  0  0  0  0  0
    8.0343  -12.6580   25.8091 C   0  0  0  0  0  0  0  0  0  0  0  0
    6.9193  -13.3712   26.1521 C   0  0  0  0  0  0  0  0  0  0  0  0
    7.9671  -16.5063   23.1783 C   0  0  0  0  0  0  0  0  0  0  0  0
    8.6166  -17.6095   23.0774 O   0  0  0  0  0  0  0  0  0  0  0  0
    7.2956  -13.1902   19.4178 N   0  0  0  0  0  0  0  0  0  0  0  0
    8.0903  -14.4133   19.4225 C   0  0  0  0  0  0  0  0  0  0  0  0
    7.7333  -15.2935   18.6254 O   0  0  0  0  0  0  0  0  0  0  0  0
    9.1962  -14.4759   20.3412 C   0  0  0  0  0  0  0  0  0  0  0  0
    9.3183  -15.6739   21.2530 C   0  0  2  0  0  0  0  0  0  0  0  0
    8.2024  -15.4765   22.2447 N   0  0  0  0  0  0  0  0  0  0  0  0
   10.5733  -15.6954   22.0217 C   0  0  0  0  0  0  0  0  0  0  0  0
   10.9912  -14.5638   22.4839 O   0  0  0  0  0  0  0  0  0  0  0  0
    9.6516  -20.8510   25.7156 N   0  0  0  0  0  0  0  0  0  0  0  0
   10.1611  -21.1218   24.4118 C   0  0  0  0  0  0  0  0  0  0  0  0
    9.3073  -21.3622   23.4960 N   0  0  0  0  0  0  0  0  0  0  0  0
   11.5485  -21.1186   24.1739 N   0  0  0  0  0  0  0  0  0  0  0  0
   12.3352  -19.9563   24.4601 C   0  0  0  0  0  0  0  0  0  0  0  0
   11.6720  -18.6994   23.9390 C   0  0  0  0  0  0  0  0  0  0  0  0
   12.6325  -17.5609   24.2206 C   0  0  0  0  0  0  0  0  0  0  0  0
   12.6797  -16.6482   23.0142 C   0  0  2  0  0  0  0  0  0  0  0  0
   11.3933  -16.7790   22.3374 N   0  0  0  0  0  0  0  0  0  0  0  0
   13.7916  -17.1174   22.1655 C   0  0  0  0  0  0  0  0  0  0  0  0
   15.0939  -16.9212   22.5509 O   0  0  0  0  0  0  0  0  0  0  0  0
   13.5369  -17.6945   21.0940 O   0  0  0  0  0  0  0  0  0  0  0  0
  2  1  1  1
  3  4  1  0
  3  2  1  0
  4  5  2  0
  5  6  1  0
  7  6  1  0
  8  7  2  0
  9  8  1  0
 10 11  1  0
 10  9  2  0
 11 12  2  0
 12  4  1  0
 12  7  1  0
 13  2  1  0
 14 13  2  0
 16 15  1  0
 17 16  2  0
 18 16  1  0
 19 20  1  0
 19 18  1  6
 20 13  1  0
 21 19  1  0
 22 21  2  0
 24 23  1  0
 24 25  2  0
 26 27  1  0
 26 24  1  0
 27 28  1  0
 28 29  1  0
 30 29  1  1
 30 31  1  0
 31 21  1  0
 32 30  1  0
 33 32  1  0
 34 32  2  0
M  END
$$$$
