WNR.pdb
     RDKit          3D

 34 35  0  0  1  0  0  0  0  0999 V2000
    6.2530  -17.1813   23.3471 N   0  0  0  0  0  0  0  0  0  0  0  0
    7.2538  -16.1717   23.1358 C   0  0  1  0  0  0  0  0  0  0  0  0
    7.9975  -15.8208   24.4001 C   0  0  0  0  0  0  0  0  0  0  0  0
    7.1273  -15.0808   25.3484 C   0  0  0  0  0  0  0  0  0  0  0  0
    6.1334  -15.5470   26.1775 C   0  0  0  0  0  0  0  0  0  0  0  0
    5.6070  -14.5143   26.8608 N   0  0  0  0  0  0  0  0  0  0  0  0
    6.2254  -13.3760   26.5072 C   0  0  0  0  0  0  0  0  0  0  0  0
    6.0911  -12.0611   26.8833 C   0  0  0  0  0  0  0  0  0  0  0  0
    6.8861  -11.0940   26.3342 C   0  0  0  0  0  0  0  0  0  0  0  0
    7.8428  -11.4054   25.3912 C   0  0  0  0  0  0  0  0  0  0  0  0
    7.9653  -12.7356   25.0234 C   0  0  0  0  0  0  0  0  0  0  0  0
    7.1730  -13.7074   25.5688 C   0  0  0  0  0  0  0  0  0  0  0  0
    8.1240  -16.5280   22.0097 C   0  0  0  0  0  0  0  0  0  0  0  0
    8.2621  -17.7817   21.7682 O   0  0  0  0  0  0  0  0  0  0  0  0
    7.5952  -15.5713   18.2663 N   0  0  0  0  0  0  0  0  0  0  0  0
    8.7272  -14.6513   18.2668 C   0  0  0  0  0  0  0  0  0  0  0  0
    8.6440  -13.6907   17.4870 O   0  0  0  0  0  0  0  0  0  0  0  0
    9.8150  -14.9469   19.1613 C   0  0  0  0  0  0  0  0  0  0  0  0
    9.6833  -16.1186   20.1054 C   0  0  2  0  0  0  0  0  0  0  0  0
    8.7973  -15.5891   21.2020 N   0  0  0  0  0  0  0  0  0  0  0  0
   10.9563  -16.5054   20.7349 C   0  0  0  0  0  0  0  0  0  0  0  0
   11.5469  -15.6073   21.4514 O   0  0  0  0  0  0  0  0  0  0  0  0
    8.1816  -19.5514   21.6530 N   0  0  0  0  0  0  0  0  0  0  0  0
    8.5464  -20.9280   21.7209 C   0  0  0  0  0  0  0  0  0  0  0  0
    7.6444  -21.7801   21.4282 N   0  0  0  0  0  0  0  0  0  0  0  0
    9.8501  -21.3021   22.0979 N   0  0  0  0  0  0  0  0  0  0  0  0
   10.9877  -20.7988   21.3878 C   0  0  0  0  0  0  0  0  0  0  0  0
   11.9439  -20.0810   22.3160 C   0  0  0  0  0  0  0  0  0  0  0  0
   13.0345  -19.4982   21.4390 C   0  0  0  0  0  0  0  0  0  0  0  0
   12.8754  -17.9937   21.3918 C   0  0  2  0  0  0  0  0  0  0  0  0
   11.6318  -17.7247   20.6769 N   0  0  0  0  0  0  0  0  0  0  0  0
   14.0457  -17.4620   20.6677 C   0  0  0  0  0  0  0  0  0  0  0  0
   13.8886  -16.8153   19.4676 O   0  0  0  0  0  0  0  0  0  0  0  0
   15.1798  -17.6053   21.1567 O   0  0  0  0  0  0  0  0  0  0  0  0
  2  1  1  1
  3  4  1  0
  3  2  1  0
  4  5  2  0
  5  6  1  0
  7  6  1  0
  8  7  2  0
  9  8  1  0
 10 11  1  0
 10  9  2  0
 11 12  2  0
 12  4  1  0
 12  7  1  0
 13  2  1  0
 14 13  2  0
 16 15  1  0
 17 16  2  0
 18 16  1  0
 19 20  1  0
 19 18  1  6
 20 13  1  0
 21 19  1  0
 22 21  2  0
 24 23  1  0
 24 25  2  0
 26 27  1  0
 26 24  1  0
 27 28  1  0
 28 29  1  0
 30 29  1  6
 30 31  1  0
 31 21  1  0
 32 30  1  0
 33 32  1  0
 34 32  2  0
M  END
$$$$
