WNR.pdb
     RDKit          3D

 34 35  0  0  1  0  0  0  0  0999 V2000
    6.1549  -17.5399   24.1030 N   0  0  0  0  0  0  0  0  0  0  0  0
    6.9318  -16.3486   23.8960 C   0  0  1  0  0  0  0  0  0  0  0  0
    7.7421  -15.9682   25.1099 C   0  0  0  0  0  0  0  0  0  0  0  0
    7.0589  -14.9171   25.9051 C   0  0  0  0  0  0  0  0  0  0  0  0
    6.0317  -15.0294   26.8134 C   0  0  0  0  0  0  0  0  0  0  0  0
    5.7284  -13.8086   27.2909 N   0  0  0  0  0  0  0  0  0  0  0  0
    6.5269  -12.8899   26.7237 C   0  0  0  0  0  0  0  0  0  0  0  0
    6.6471  -11.5262   26.8436 C   0  0  0  0  0  0  0  0  0  0  0  0
    7.5805  -10.8418   26.1160 C   0  0  0  0  0  0  0  0  0  0  0  0
    8.4262  -11.4943   25.2439 C   0  0  0  0  0  0  0  0  0  0  0  0
    8.2919  -12.8691   25.1351 C   0  0  0  0  0  0  0  0  0  0  0  0
    7.3603  -13.5591   25.8600 C   0  0  0  0  0  0  0  0  0  0  0  0
    7.7163  -16.4462   22.6601 C   0  0  0  0  0  0  0  0  0  0  0  0
    8.2577  -17.5845   22.4149 O   0  0  0  0  0  0  0  0  0  0  0  0
    6.8726  -12.9457   19.2474 N   0  0  0  0  0  0  0  0  0  0  0  0
    7.7437  -14.0920   19.0141 C   0  0  0  0  0  0  0  0  0  0  0  0
    7.4335  -14.8223   18.0610 O   0  0  0  0  0  0  0  0  0  0  0  0
    8.8630  -14.2596   19.9029 C   0  0  0  0  0  0  0  0  0  0  0  0
    8.9709  -15.5346   20.7055 C   0  0  2  0  0  0  0  0  0  0  0  0
    7.9003  -15.3823   21.7536 N   0  0  0  0  0  0  0  0  0  0  0  0
   10.2511  -15.6671   21.4195 C   0  0  0  0  0  0  0  0  0  0  0  0
   10.6414  -14.6455   22.1071 O   0  0  0  0  0  0  0  0  0  0  0  0
   12.5734  -18.2792   27.2457 N   0  0  0  0  0  0  0  0  0  0  0  0
   11.2076  -18.6884   27.2431 C   0  0  0  0  0  0  0  0  0  0  0  0
   10.7556  -19.2004   28.3196 N   0  0  0  0  0  0  0  0  0  0  0  0
   10.4166  -18.5241   26.0903 N   0  0  0  0  0  0  0  0  0  0  0  0
   10.9725  -18.7371   24.7875 C   0  0  0  0  0  0  0  0  0  0  0  0
   11.9327  -17.6296   24.4098 C   0  0  0  0  0  0  0  0  0  0  0  0
   12.4580  -17.9714   23.0294 C   0  0  0  0  0  0  0  0  0  0  0  0
   12.4061  -16.7315   22.1631 C   0  0  2  0  0  0  0  0  0  0  0  0
   11.1216  -16.7560   21.4704 N   0  0  0  0  0  0  0  0  0  0  0  0
   13.5358  -16.8215   21.2184 C   0  0  0  0  0  0  0  0  0  0  0  0
   14.8257  -16.6538   21.6558 O   0  0  0  0  0  0  0  0  0  0  0  0
   13.3078  -17.0519   20.0181 O   0  0  0  0  0  0  0  0  0  0  0  0
  2  1  1  1
  3  4  1  0
  3  2  1  0
  4  5  2  0
  5  6  1  0
  7  6  1  0
  8  7  2  0
  9  8  1  0
 10 11  1  0
 10  9  2  0
 11 12  2  0
 12  4  1  0
 12  7  1  0
 13  2  1  0
 14 13  2  0
 16 15  1  0
 17 16  2  0
 18 16  1  0
 19 20  1  0
 19 18  1  6
 20 13  1  0
 21 19  1  0
 22 21  2  0
 24 23  1  0
 24 25  2  0
 26 27  1  0
 26 24  1  0
 27 28  1  0
 28 29  1  0
 30 29  1  1
 30 31  1  0
 31 21  1  0
 32 30  1  0
 33 32  1  0
 34 32  2  0
M  END
$$$$
