WNR.pdb
     RDKit          3D

 34 35  0  0  1  0  0  0  0  0999 V2000
    6.2522  -17.3020   23.6366 N   0  0  0  0  0  0  0  0  0  0  0  0
    6.9949  -16.1026   23.3620 C   0  0  1  0  0  0  0  0  0  0  0  0
    7.7683  -15.6138   24.5611 C   0  0  0  0  0  0  0  0  0  0  0  0
    6.9015  -14.8321   25.4784 C   0  0  0  0  0  0  0  0  0  0  0  0
    6.0336  -15.2675   26.4530 C   0  0  0  0  0  0  0  0  0  0  0  0
    5.4544  -14.2026   27.0370 N   0  0  0  0  0  0  0  0  0  0  0  0
    5.9150  -13.0729   26.4758 C   0  0  0  0  0  0  0  0  0  0  0  0
    5.6689  -11.7367   26.6815 C   0  0  0  0  0  0  0  0  0  0  0  0
    6.3075  -10.7869   25.9340 C   0  0  0  0  0  0  0  0  0  0  0  0
    7.2139  -11.1373   24.9557 C   0  0  0  0  0  0  0  0  0  0  0  0
    7.4506  -12.4886   24.7613 C   0  0  0  0  0  0  0  0  0  0  0  0
    6.8149  -13.4433   25.5056 C   0  0  0  0  0  0  0  0  0  0  0  0
    7.8066  -16.2582   22.1499 C   0  0  0  0  0  0  0  0  0  0  0  0
    8.3427  -17.4103   21.9647 O   0  0  0  0  0  0  0  0  0  0  0  0
    7.0585  -12.9129   18.5548 N   0  0  0  0  0  0  0  0  0  0  0  0
    7.8816  -14.1115   18.4390 C   0  0  0  0  0  0  0  0  0  0  0  0
    7.5180  -14.9374   17.5884 O   0  0  0  0  0  0  0  0  0  0  0  0
    9.0197  -14.2151   19.3135 C   0  0  0  0  0  0  0  0  0  0  0  0
    9.1392  -15.4225   20.2131 C   0  0  2  0  0  0  0  0  0  0  0  0
    8.0214  -15.2346   21.2046 N   0  0  0  0  0  0  0  0  0  0  0  0
   10.3926  -15.4529   20.9840 C   0  0  0  0  0  0  0  0  0  0  0  0
   10.4859  -14.6288   21.9744 O   0  0  0  0  0  0  0  0  0  0  0  0
   10.4522  -21.0329   26.4257 N   0  0  0  0  0  0  0  0  0  0  0  0
   11.8529  -20.7741   26.4882 C   0  0  0  0  0  0  0  0  0  0  0  0
   12.5324  -21.4675   27.3146 N   0  0  0  0  0  0  0  0  0  0  0  0
   12.4337  -19.7915   25.6644 N   0  0  0  0  0  0  0  0  0  0  0  0
   11.6558  -19.1269   24.6620 C   0  0  0  0  0  0  0  0  0  0  0  0
   12.5107  -18.1995   23.8252 C   0  0  0  0  0  0  0  0  0  0  0  0
   11.5943  -17.6054   22.7739 C   0  0  0  0  0  0  0  0  0  0  0  0
   12.3969  -16.6717   21.8935 C   0  0  2  0  0  0  0  0  0  0  0  0
   11.5165  -16.2598   20.8048 N   0  0  0  0  0  0  0  0  0  0  0  0
   13.5540  -17.4405   21.3968 C   0  0  0  0  0  0  0  0  0  0  0  0
   14.7206  -17.4891   22.1177 O   0  0  0  0  0  0  0  0  0  0  0  0
   13.4620  -18.0466   20.3150 O   0  0  0  0  0  0  0  0  0  0  0  0
  2  1  1  1
  3  4  1  0
  3  2  1  0
  4  5  2  0
  5  6  1  0
  7  6  1  0
  8  7  2  0
  9  8  1  0
 10 11  1  0
 10  9  2  0
 11 12  2  0
 12  4  1  0
 12  7  1  0
 13  2  1  0
 14 13  2  0
 16 15  1  0
 17 16  2  0
 18 16  1  0
 19 20  1  0
 19 18  1  6
 20 13  1  0
 21 19  1  0
 22 21  2  0
 24 23  1  0
 24 25  2  0
 26 27  1  0
 26 24  1  0
 27 28  1  0
 28 29  1  0
 30 29  1  1
 30 31  1  0
 31 21  1  0
 32 30  1  0
 33 32  1  0
 34 32  2  0
M  END
$$$$
