WNR.pdb
     RDKit          3D

 34 35  0  0  1  0  0  0  0  0999 V2000
    8.6092  -18.0982   21.0625 N   0  0  0  0  0  0  0  0  0  0  0  0
    9.5874  -17.1066   21.4170 C   0  0  1  0  0  0  0  0  0  0  0  0
    9.0395  -16.0646   22.3598 C   0  0  0  0  0  0  0  0  0  0  0  0
    7.9495  -15.2830   21.7233 C   0  0  0  0  0  0  0  0  0  0  0  0
    6.5987  -15.2836   21.9839 C   0  0  0  0  0  0  0  0  0  0  0  0
    5.9885  -14.4150   21.1569 N   0  0  0  0  0  0  0  0  0  0  0  0
    6.8986  -13.8386   20.3552 C   0  0  0  0  0  0  0  0  0  0  0  0
    6.8288  -12.9024   19.3516 C   0  0  0  0  0  0  0  0  0  0  0  0
    7.9578  -12.4982   18.6953 C   0  0  0  0  0  0  0  0  0  0  0  0
    9.1954  -13.0137   19.0177 C   0  0  0  0  0  0  0  0  0  0  0  0
    9.2482  -13.9564   20.0318 C   0  0  0  0  0  0  0  0  0  0  0  0
    8.1226  -14.3648   20.6919 C   0  0  0  0  0  0  0  0  0  0  0  0
   10.8268  -17.7398   21.8807 C   0  0  0  0  0  0  0  0  0  0  0  0
   10.7000  -18.8514   22.5111 O   0  0  0  0  0  0  0  0  0  0  0  0
   14.9899  -16.0006   19.7495 N   0  0  0  0  0  0  0  0  0  0  0  0
   14.8421  -17.2239   20.5300 C   0  0  0  0  0  0  0  0  0  0  0  0
   15.0547  -18.2831   19.9213 O   0  0  0  0  0  0  0  0  0  0  0  0
   14.4682  -17.0814   21.9123 C   0  0  0  0  0  0  0  0  0  0  0  0
   13.2609  -17.8329   22.4213 C   0  0  2  0  0  0  0  0  0  0  0  0
   12.1143  -17.2038   21.6746 N   0  0  0  0  0  0  0  0  0  0  0  0
   13.0041  -17.6205   23.8549 C   0  0  0  0  0  0  0  0  0  0  0  0
   13.2659  -16.4458   24.3244 O   0  0  0  0  0  0  0  0  0  0  0  0
    6.3013  -17.3058   24.5311 N   0  0  0  0  0  0  0  0  0  0  0  0
    6.8147  -18.6359   24.5495 C   0  0  0  0  0  0  0  0  0  0  0  0
    6.4989  -19.3908   23.5719 N   0  0  0  0  0  0  0  0  0  0  0  0
    7.6301  -19.0705   25.6114 N   0  0  0  0  0  0  0  0  0  0  0  0
    8.6366  -18.2101   26.1578 C   0  0  0  0  0  0  0  0  0  0  0  0
   10.0262  -18.7470   25.8893 C   0  0  0  0  0  0  0  0  0  0  0  0
   10.9946  -17.7407   26.4789 C   0  0  0  0  0  0  0  0  0  0  0  0
   12.4097  -18.2145   26.2263 C   0  0  2  0  0  0  0  0  0  0  0  0
   12.5044  -18.5153   24.8013 N   0  0  0  0  0  0  0  0  0  0  0  0
   12.6113  -19.4205   27.0519 C   0  0  0  0  0  0  0  0  0  0  0  0
   12.7161  -19.3219   28.4166 O   0  0  0  0  0  0  0  0  0  0  0  0
   12.6854  -20.5311   26.4979 O   0  0  0  0  0  0  0  0  0  0  0  0
  2  1  1  1
  3  4  1  0
  3  2  1  0
  4  5  2  0
  5  6  1  0
  7  6  1  0
  8  7  2  0
  9  8  1  0
 10 11  1  0
 10  9  2  0
 11 12  2  0
 12  4  1  0
 12  7  1  0
 13  2  1  0
 14 13  2  0
 16 15  1  0
 17 16  2  0
 18 16  1  0
 19 20  1  0
 19 18  1  6
 20 13  1  0
 21 19  1  0
 22 21  2  0
 24 23  1  0
 24 25  2  0
 26 27  1  0
 26 24  1  0
 27 28  1  0
 28 29  1  0
 30 29  1  6
 30 31  1  0
 31 21  1  0
 32 30  1  0
 33 32  1  0
 34 32  2  0
M  END
$$$$
