WNR.pdb
     RDKit          3D

 34 35  0  0  1  0  0  0  0  0999 V2000
    6.1961  -17.8549   24.0766 N   0  0  0  0  0  0  0  0  0  0  0  0
    6.7703  -16.5563   23.8539 C   0  0  1  0  0  0  0  0  0  0  0  0
    7.6980  -16.1354   24.9662 C   0  0  0  0  0  0  0  0  0  0  0  0
    7.0215  -15.2106   25.9102 C   0  0  0  0  0  0  0  0  0  0  0  0
    6.1714  -15.4874   26.9558 C   0  0  0  0  0  0  0  0  0  0  0  0
    5.7960  -14.3338   27.5377 N   0  0  0  0  0  0  0  0  0  0  0  0
    6.3746  -13.2995   26.9061 C   0  0  0  0  0  0  0  0  0  0  0  0
    6.3404  -11.9366   27.0788 C   0  0  0  0  0  0  0  0  0  0  0  0
    7.0553  -11.1114   26.2561 C   0  0  0  0  0  0  0  0  0  0  0  0
    7.8290  -11.6173   25.2329 C   0  0  0  0  0  0  0  0  0  0  0  0
    7.8525  -12.9934   25.0728 C   0  0  0  0  0  0  0  0  0  0  0  0
    7.1397  -13.8240   25.8923 C   0  0  0  0  0  0  0  0  0  0  0  0
    7.3650  -16.4719   22.5154 C   0  0  0  0  0  0  0  0  0  0  0  0
    7.4805  -17.5763   21.8704 O   0  0  0  0  0  0  0  0  0  0  0  0
    9.5570  -12.5354   18.5713 N   0  0  0  0  0  0  0  0  0  0  0  0
    8.6384  -13.6655   18.6531 C   0  0  0  0  0  0  0  0  0  0  0  0
    8.3994  -14.2469   17.5842 O   0  0  0  0  0  0  0  0  0  0  0  0
    8.1069  -13.9888   19.9507 C   0  0  0  0  0  0  0  0  0  0  0  0
    8.3872  -15.3541   20.5327 C   0  0  2  0  0  0  0  0  0  0  0  0
    7.8036  -15.2724   21.9186 N   0  0  0  0  0  0  0  0  0  0  0  0
    9.8230  -15.6367   20.6904 C   0  0  0  0  0  0  0  0  0  0  0  0
   10.4725  -14.8967   21.5267 O   0  0  0  0  0  0  0  0  0  0  0  0
   16.4862  -12.7443   17.6919 N   0  0  0  0  0  0  0  0  0  0  0  0
   16.0625  -13.7175   16.7400 C   0  0  0  0  0  0  0  0  0  0  0  0
   16.6417  -13.7056   15.6043 N   0  0  0  0  0  0  0  0  0  0  0  0
   15.0479  -14.6376   17.0648 N   0  0  0  0  0  0  0  0  0  0  0  0
   14.4299  -14.6164   18.3569 C   0  0  0  0  0  0  0  0  0  0  0  0
   13.3234  -15.6445   18.4560 C   0  0  0  0  0  0  0  0  0  0  0  0
   12.6632  -15.4334   19.8042 C   0  0  0  0  0  0  0  0  0  0  0  0
   12.0433  -16.7377   20.2573 C   0  0  2  0  0  0  0  0  0  0  0  0
   10.6026  -16.6085   20.0628 N   0  0  0  0  0  0  0  0  0  0  0  0
   12.3876  -16.9032   21.6824 C   0  0  0  0  0  0  0  0  0  0  0  0
   13.0365  -18.0316   22.1167 O   0  0  0  0  0  0  0  0  0  0  0  0
   12.0836  -16.0074   22.4893 O   0  0  0  0  0  0  0  0  0  0  0  0
  2  1  1  1
  3  4  1  0
  3  2  1  0
  4  5  2  0
  5  6  1  0
  7  6  1  0
  8  7  2  0
  9  8  1  0
 10 11  1  0
 10  9  2  0
 11 12  2  0
 12  4  1  0
 12  7  1  0
 13  2  1  0
 14 13  2  0
 16 15  1  0
 17 16  2  0
 18 16  1  0
 19 20  1  0
 19 18  1  1
 20 13  1  0
 21 19  1  0
 22 21  2  0
 24 23  1  0
 24 25  2  0
 26 27  1  0
 26 24  1  0
 27 28  1  0
 28 29  1  0
 30 29  1  1
 30 31  1  0
 31 21  1  0
 32 30  1  0
 33 32  1  0
 34 32  2  0
M  END
$$$$
