SHD.pdb
     RDKit          3D

 25 25  0  0  1  0  0  0  0  0999 V2000
   25.6191  -10.5968  -17.9164 O   0  0  0  0  0  0  0  0  0  0  0  0
   24.5265   -9.7895  -17.6590 C   0  0  0  0  0  0  0  0  0  0  0  0
   23.4549  -10.5600  -16.9113 C   0  0  2  0  0  0  0  0  0  0  0  0
   23.0234  -11.6469  -17.7249 N   0  0  0  0  0  0  0  0  0  0  0  0
   22.3493   -9.6024  -16.5759 C   0  0  0  0  0  0  0  0  0  0  0  0
   21.6104   -9.2297  -17.5120 O   0  0  0  0  0  0  0  0  0  0  0  0
   22.1403   -9.1348  -15.2697 N   0  0  0  0  0  0  0  0  0  0  0  0
   21.1694   -8.1985  -14.7903 C   0  0  1  0  0  0  0  0  0  0  0  0
   20.1998   -8.7840  -13.7859 C   0  0  0  0  0  0  0  0  0  0  0  0
   19.2003   -9.6465  -14.4638 C   0  0  0  0  0  0  0  0  0  0  0  0
   19.0760   -9.9121  -15.8332 C   0  0  0  0  0  0  0  0  0  0  0  0
   18.0074  -10.7103  -16.0474 N   0  0  0  0  0  0  0  0  0  0  0  0
   17.4614  -10.9502  -14.8516 C   0  0  0  0  0  0  0  0  0  0  0  0
   18.1688  -10.3196  -13.9141 N   0  0  0  0  0  0  0  0  0  0  0  0
   21.7611   -6.9206  -14.4062 C   0  0  0  0  0  0  0  0  0  0  0  0
   22.6997   -6.9006  -13.5374 O   0  0  0  0  0  0  0  0  0  0  0  0
   21.3299   -5.6901  -14.9661 N   0  0  0  0  0  0  0  0  0  0  0  0
   21.8867   -4.3959  -14.7084 C   0  0  1  0  0  0  0  0  0  0  0  0
   22.3433   -3.6833  -15.9265 C   0  0  0  0  0  0  0  0  0  0  0  0
   22.8511   -2.3443  -15.6100 C   0  0  0  0  0  0  0  0  0  0  0  0
   22.1410   -1.4278  -15.0838 O   0  0  0  0  0  0  0  0  0  0  0  0
   21.0604   -3.5595  -13.7918 C   0  0  0  0  0  0  0  0  0  0  0  0
   19.8088   -3.7075  -13.7357 O   0  0  0  0  0  0  0  0  0  0  0  0
   24.1937   -2.0712  -15.9083 O   0  0  0  0  0  0  0  0  0  0  0  0
   21.6055   -2.6038  -12.9815 O   0  0  0  0  0  0  0  0  0  0  0  0
  1  2  1  0
  3  2  1  0
  3  4  1  6
  5  6  2  0
  5  3  1  0
  7  5  1  0
  8  9  1  1
  8  7  1  0
  9 10  1  0
 10 14  1  0
 11 10  2  0
 11 12  1  0
 12 13  1  0
 14 13  2  0
 15  8  1  0
 16 15  2  0
 17 15  1  0
 18 17  1  0
 18 19  1  6
 19 20  1  0
 20 24  1  0
 21 20  2  0
 22 25  1  0
 22 18  1  0
 23 22  2  0
M  END
$$$$
