SHD.pdb
     RDKit          3D

 25 25  0  0  1  0  0  0  0  0999 V2000
   36.6573  -37.0607    0.0666 O   0  0  0  0  0  0  0  0  0  0  0  0
   37.4788  -36.6382   -0.9623 C   0  0  0  0  0  0  0  0  0  0  0  0
   37.1407  -35.2165   -1.3689 C   0  0  2  0  0  0  0  0  0  0  0  0
   37.4343  -34.3483   -0.2783 N   0  0  0  0  0  0  0  0  0  0  0  0
   35.6956  -35.1849   -1.7723 C   0  0  0  0  0  0  0  0  0  0  0  0
   34.8950  -34.6272   -0.9918 O   0  0  0  0  0  0  0  0  0  0  0  0
   35.2454  -35.7538   -2.9731 N   0  0  0  0  0  0  0  0  0  0  0  0
   33.9332  -35.7350   -3.5451 C   0  0  1  0  0  0  0  0  0  0  0  0
   33.9045  -36.0767   -5.0196 C   0  0  0  0  0  0  0  0  0  0  0  0
   33.7797  -34.8464   -5.8402 C   0  0  0  0  0  0  0  0  0  0  0  0
   33.4621  -33.5514   -5.4121 C   0  0  0  0  0  0  0  0  0  0  0  0
   33.4023  -32.7215   -6.4764 N   0  0  0  0  0  0  0  0  0  0  0  0
   33.6732  -33.4612   -7.5559 C   0  0  0  0  0  0  0  0  0  0  0  0
   33.8966  -34.7198   -7.1780 N   0  0  0  0  0  0  0  0  0  0  0  0
   32.9522  -36.4418   -2.7273 C   0  0  0  0  0  0  0  0  0  0  0  0
   33.2636  -37.5694   -2.2099 O   0  0  0  0  0  0  0  0  0  0  0  0
   31.6558  -35.9193   -2.4831 N   0  0  0  0  0  0  0  0  0  0  0  0
   30.6168  -36.5422   -1.7190 C   0  0  1  0  0  0  0  0  0  0  0  0
   29.5291  -35.6179   -1.3156 C   0  0  0  0  0  0  0  0  0  0  0  0
   29.2131  -35.7462    0.1108 C   0  0  0  0  0  0  0  0  0  0  0  0
   29.6936  -36.6570    0.8596 O   0  0  0  0  0  0  0  0  0  0  0  0
   30.1344  -37.8278   -2.2994 C   0  0  0  0  0  0  0  0  0  0  0  0
   29.8722  -37.9222   -3.5298 O   0  0  0  0  0  0  0  0  0  0  0  0
   28.3323  -34.8084    0.6681 O   0  0  0  0  0  0  0  0  0  0  0  0
   29.9511  -38.9502   -1.5418 O   0  0  0  0  0  0  0  0  0  0  0  0
  1  2  1  0
  3  2  1  0
  3  4  1  1
  5  6  2  0
  5  3  1  0
  7  5  1  0
  8  9  1  6
  8  7  1  0
  9 10  1  0
 10 14  1  0
 11 10  2  0
 11 12  1  0
 12 13  1  0
 14 13  2  0
 15  8  1  0
 16 15  2  0
 17 15  1  0
 18 17  1  0
 18 19  1  6
 19 20  1  0
 20 24  1  0
 21 20  2  0
 22 25  1  0
 22 18  1  0
 23 22  2  0
M  END
$$$$
