SHD.pdb
     RDKit          3D

 25 25  0  0  1  0  0  0  0  0999 V2000
   24.3136  -16.4056  -18.6327 O   0  0  0  0  0  0  0  0  0  0  0  0
   23.8956  -17.7211  -18.7142 C   0  0  0  0  0  0  0  0  0  0  0  0
   25.0054  -18.6635  -18.2886 C   0  0  2  0  0  0  0  0  0  0  0  0
   25.4062  -19.4351  -19.4171 N   0  0  0  0  0  0  0  0  0  0  0  0
   24.4875  -19.5027  -17.1574 C   0  0  0  0  0  0  0  0  0  0  0  0
   24.2232  -20.6984  -17.4054 O   0  0  0  0  0  0  0  0  0  0  0  0
   24.3019  -18.9814  -15.8682 N   0  0  0  0  0  0  0  0  0  0  0  0
   23.7576  -19.6171  -14.7068 C   0  0  1  0  0  0  0  0  0  0  0  0
   24.3899  -19.1627  -13.4086 C   0  0  0  0  0  0  0  0  0  0  0  0
   23.9204  -19.9993  -12.2762 C   0  0  0  0  0  0  0  0  0  0  0  0
   22.9382  -20.9975  -12.2890 C   0  0  0  0  0  0  0  0  0  0  0  0
   22.7727  -21.4899  -11.0420 N   0  0  0  0  0  0  0  0  0  0  0  0
   23.6229  -20.8279  -10.2517 C   0  0  0  0  0  0  0  0  0  0  0  0
   24.3023  -19.9451  -10.9837 N   0  0  0  0  0  0  0  0  0  0  0  0
   22.2980  -19.6396  -14.7091 C   0  0  0  0  0  0  0  0  0  0  0  0
   21.6545  -18.5359  -14.7695 O   0  0  0  0  0  0  0  0  0  0  0  0
   21.5614  -20.8507  -14.6465 N   0  0  0  0  0  0  0  0  0  0  0  0
   20.1392  -20.9884  -14.7454 C   0  0  1  0  0  0  0  0  0  0  0  0
   19.6983  -22.2780  -15.3308 C   0  0  0  0  0  0  0  0  0  0  0  0
   18.2566  -22.2836  -15.6003 C   0  0  0  0  0  0  0  0  0  0  0  0
   17.6288  -21.2929  -16.0958 O   0  0  0  0  0  0  0  0  0  0  0  0
   19.4121  -20.6085  -13.5007 C   0  0  0  0  0  0  0  0  0  0  0  0
   18.1525  -20.5406  -13.4846 O   0  0  0  0  0  0  0  0  0  0  0  0
   17.5422  -23.4496  -15.2907 O   0  0  0  0  0  0  0  0  0  0  0  0
   20.0606  -20.3161  -12.3341 O   0  0  0  0  0  0  0  0  0  0  0  0
  1  2  1  0
  3  2  1  0
  3  4  1  6
  5  6  2  0
  5  3  1  0
  7  5  1  0
  8  9  1  1
  8  7  1  0
  9 10  1  0
 10 14  1  0
 11 10  2  0
 11 12  1  0
 12 13  1  0
 14 13  2  0
 15  8  1  0
 16 15  2  0
 17 15  1  0
 18 17  1  0
 18 19  1  1
 19 20  1  0
 20 24  1  0
 21 20  2  0
 22 25  1  0
 22 18  1  0
 23 22  2  0
M  END
$$$$
