SHD.pdb
     RDKit          3D

 25 25  0  0  1  0  0  0  0  0999 V2000
   19.1271  -12.6358  -17.3792 O   0  0  0  0  0  0  0  0  0  0  0  0
   19.7772  -11.6283  -16.6906 C   0  0  0  0  0  0  0  0  0  0  0  0
   21.2783  -11.7289  -16.8843 C   0  0  2  0  0  0  0  0  0  0  0  0
   21.7116  -13.0084  -16.4319 N   0  0  0  0  0  0  0  0  0  0  0  0
   21.9155  -10.5947  -16.1362 C   0  0  0  0  0  0  0  0  0  0  0  0
   21.6210  -10.4676  -14.9287 O   0  0  0  0  0  0  0  0  0  0  0  0
   22.8075   -9.7044  -16.7528 N   0  0  0  0  0  0  0  0  0  0  0  0
   23.4982   -8.5837  -16.1902 C   0  0  1  0  0  0  0  0  0  0  0  0
   24.9634   -8.5180  -16.5650 C   0  0  0  0  0  0  0  0  0  0  0  0
   25.6853   -9.7162  -16.0692 C   0  0  0  0  0  0  0  0  0  0  0  0
   25.1962  -10.7416  -15.2503 C   0  0  0  0  0  0  0  0  0  0  0  0
   26.1838  -11.6253  -14.9878 N   0  0  0  0  0  0  0  0  0  0  0  0
   27.2745  -11.1809  -15.6190 C   0  0  0  0  0  0  0  0  0  0  0  0
   26.9782  -10.0500  -16.2594 N   0  0  0  0  0  0  0  0  0  0  0  0
   22.7630   -7.3325  -16.3473 C   0  0  0  0  0  0  0  0  0  0  0  0
   22.4551   -6.9298  -17.5217 O   0  0  0  0  0  0  0  0  0  0  0  0
   22.3741   -6.5406  -15.2360 N   0  0  0  0  0  0  0  0  0  0  0  0
   21.6838   -5.2866  -15.2840 C   0  0  1  0  0  0  0  0  0  0  0  0
   20.6051   -5.1538  -14.2747 C   0  0  0  0  0  0  0  0  0  0  0  0
   19.8275   -3.9263  -14.4739 C   0  0  0  0  0  0  0  0  0  0  0  0
   19.9146   -3.1984  -15.5149 O   0  0  0  0  0  0  0  0  0  0  0  0
   22.5905   -4.1057  -15.3598 C   0  0  0  0  0  0  0  0  0  0  0  0
   23.5475   -3.9739  -14.5485 O   0  0  0  0  0  0  0  0  0  0  0  0
   18.9436   -3.5445  -13.4547 O   0  0  0  0  0  0  0  0  0  0  0  0
   22.4331   -3.1203  -16.2933 O   0  0  0  0  0  0  0  0  0  0  0  0
  1  2  1  0
  3  2  1  0
  3  4  1  1
  5  6  2  0
  5  3  1  0
  7  5  1  0
  8  9  1  6
  8  7  1  0
  9 10  1  0
 10 14  1  0
 11 10  2  0
 11 12  1  0
 12 13  1  0
 14 13  2  0
 15  8  1  0
 16 15  2  0
 17 15  1  0
 18 17  1  0
 18 19  1  1
 19 20  1  0
 20 24  1  0
 21 20  2  0
 22 25  1  0
 22 18  1  0
 23 22  2  0
M  END
$$$$
