SHD.pdb
     RDKit          3D

 25 25  0  0  1  0  0  0  0  0999 V2000
   45.6829   -9.9771   -6.4836 O   0  0  0  0  0  0  0  0  0  0  0  0
   44.3577   -9.6268   -6.6657 C   0  0  0  0  0  0  0  0  0  0  0  0
   43.4939  -10.8631   -6.8283 C   0  0  2  0  0  0  0  0  0  0  0  0
   44.3429  -11.9889   -7.0315 N   0  0  0  0  0  0  0  0  0  0  0  0
   42.5554  -10.6209   -7.9739 C   0  0  0  0  0  0  0  0  0  0  0  0
   42.4706  -11.5138   -8.8437 O   0  0  0  0  0  0  0  0  0  0  0  0
   41.7969   -9.4453   -8.0791 N   0  0  0  0  0  0  0  0  0  0  0  0
   40.9138   -9.0310   -9.1268 C   0  0  1  0  0  0  0  0  0  0  0  0
   39.9094  -10.0883   -9.5331 C   0  0  0  0  0  0  0  0  0  0  0  0
   39.0510  -10.4651   -8.3826 C   0  0  0  0  0  0  0  0  0  0  0  0
   39.1530  -10.0381   -7.0527 C   0  0  0  0  0  0  0  0  0  0  0  0
   38.2091  -10.6494   -6.3042 N   0  0  0  0  0  0  0  0  0  0  0  0
   37.5212  -11.4452   -7.1284 C   0  0  0  0  0  0  0  0  0  0  0  0
   38.0208  -11.3353   -8.3593 N   0  0  0  0  0  0  0  0  0  0  0  0
   40.3549   -7.7019   -8.8996 C   0  0  0  0  0  0  0  0  0  0  0  0
   40.0473   -7.3465   -7.7100 O   0  0  0  0  0  0  0  0  0  0  0  0
   40.1389   -6.7824   -9.9585 N   0  0  0  0  0  0  0  0  0  0  0  0
   39.4821   -5.5131   -9.8633 C   0  0  1  0  0  0  0  0  0  0  0  0
   38.1084   -5.5024  -10.4226 C   0  0  0  0  0  0  0  0  0  0  0  0
   38.0874   -4.9788  -11.7925 C   0  0  0  0  0  0  0  0  0  0  0  0
   39.1235   -4.5599  -12.4025 O   0  0  0  0  0  0  0  0  0  0  0  0
   39.5930   -4.8801   -8.5182 C   0  0  0  0  0  0  0  0  0  0  0  0
   38.9171   -5.3118   -7.5443 O   0  0  0  0  0  0  0  0  0  0  0  0
   36.8525   -4.9429  -12.4555 O   0  0  0  0  0  0  0  0  0  0  0  0
   40.4153   -3.8162   -8.2750 O   0  0  0  0  0  0  0  0  0  0  0  0
  1  2  1  0
  3  2  1  0
  3  4  1  6
  5  6  2  0
  5  3  1  0
  7  5  1  0
  8  9  1  1
  8  7  1  0
  9 10  1  0
 10 14  1  0
 11 10  2  0
 11 12  1  0
 12 13  1  0
 14 13  2  0
 15  8  1  0
 16 15  2  0
 17 15  1  0
 18 17  1  0
 18 19  1  1
 19 20  1  0
 20 24  1  0
 21 20  2  0
 22 25  1  0
 22 18  1  0
 23 22  2  0
M  END
$$$$
