SHD.pdb
     RDKit          3D

 25 25  0  0  1  0  0  0  0  0999 V2000
   27.3622  -33.6953   -9.0541 O   0  0  0  0  0  0  0  0  0  0  0  0
   26.2538  -34.4864   -8.8144 C   0  0  0  0  0  0  0  0  0  0  0  0
   25.1632  -33.6870   -8.1271 C   0  0  2  0  0  0  0  0  0  0  0  0
   24.6267  -32.7526   -9.0591 N   0  0  0  0  0  0  0  0  0  0  0  0
   25.7653  -33.0316   -6.9189 C   0  0  0  0  0  0  0  0  0  0  0  0
   25.8926  -31.7890   -6.9448 O   0  0  0  0  0  0  0  0  0  0  0  0
   26.1739  -33.7695   -5.7978 N   0  0  0  0  0  0  0  0  0  0  0  0
   26.7153  -33.3025   -4.5576 C   0  0  1  0  0  0  0  0  0  0  0  0
   25.8767  -32.2344   -3.8885 C   0  0  0  0  0  0  0  0  0  0  0  0
   24.5358  -32.7646   -3.5374 C   0  0  0  0  0  0  0  0  0  0  0  0
   24.0132  -34.0364   -3.8034 C   0  0  0  0  0  0  0  0  0  0  0  0
   22.7388  -34.1070   -3.3607 N   0  0  0  0  0  0  0  0  0  0  0  0
   22.4512  -32.9165   -2.8265 C   0  0  0  0  0  0  0  0  0  0  0  0
   23.5163  -32.1219   -2.9316 N   0  0  0  0  0  0  0  0  0  0  0  0
   27.1422  -34.3911   -3.6839 C   0  0  0  0  0  0  0  0  0  0  0  0
   26.5107  -35.5031   -3.7141 O   0  0  0  0  0  0  0  0  0  0  0  0
   28.2409  -34.2600   -2.7957 N   0  0  0  0  0  0  0  0  0  0  0  0
   28.7226  -35.2545   -1.8845 C   0  0  1  0  0  0  0  0  0  0  0  0
   30.1437  -35.0790   -1.4976 C   0  0  0  0  0  0  0  0  0  0  0  0
   30.6048  -36.1668   -0.6286 C   0  0  0  0  0  0  0  0  0  0  0  0
   29.8676  -37.1396   -0.2662 O   0  0  0  0  0  0  0  0  0  0  0  0
   27.8087  -35.5064   -0.7341 C   0  0  0  0  0  0  0  0  0  0  0  0
   28.0067  -36.4775    0.0467 O   0  0  0  0  0  0  0  0  0  0  0  0
   31.9321  -36.1211   -0.1791 O   0  0  0  0  0  0  0  0  0  0  0  0
   26.7263  -34.7148   -0.4717 O   0  0  0  0  0  0  0  0  0  0  0  0
  1  2  1  0
  3  2  1  0
  3  4  1  6
  5  6  2  0
  5  3  1  0
  7  5  1  0
  8  9  1  1
  8  7  1  0
  9 10  1  0
 10 14  1  0
 11 10  2  0
 11 12  1  0
 12 13  1  0
 14 13  2  0
 15  8  1  0
 16 15  2  0
 17 15  1  0
 18 17  1  0
 18 19  1  1
 19 20  1  0
 20 24  1  0
 21 20  2  0
 22 25  1  0
 22 18  1  0
 23 22  2  0
M  END
$$$$
