SHD.pdb
     RDKit          3D

 25 25  0  0  1  0  0  0  0  0999 V2000
   19.9458  -13.1255  -14.8624 O   0  0  0  0  0  0  0  0  0  0  0  0
   18.6245  -13.2781  -15.2402 C   0  0  0  0  0  0  0  0  0  0  0  0
   18.4379  -12.9076  -16.6992 C   0  0  2  0  0  0  0  0  0  0  0  0
   19.3297  -13.6917  -17.4864 N   0  0  0  0  0  0  0  0  0  0  0  0
   18.6782  -11.4324  -16.8335 C   0  0  0  0  0  0  0  0  0  0  0  0
   19.5825  -11.0681  -17.6149 O   0  0  0  0  0  0  0  0  0  0  0  0
   17.9272  -10.4878  -16.1179 N   0  0  0  0  0  0  0  0  0  0  0  0
   17.8768   -9.0660  -16.2772 C   0  0  1  0  0  0  0  0  0  0  0  0
   16.4712   -8.5092  -16.3534 C   0  0  0  0  0  0  0  0  0  0  0  0
   15.8422   -8.8502  -17.6537 C   0  0  0  0  0  0  0  0  0  0  0  0
   16.4697   -9.0587  -18.8882 C   0  0  0  0  0  0  0  0  0  0  0  0
   15.5393   -9.3027  -19.8368 N   0  0  0  0  0  0  0  0  0  0  0  0
   14.3498   -9.2524  -19.2300 C   0  0  0  0  0  0  0  0  0  0  0  0
   14.5303   -8.9843  -17.9368 N   0  0  0  0  0  0  0  0  0  0  0  0
   18.7710   -8.3647  -15.3612 C   0  0  0  0  0  0  0  0  0  0  0  0
   18.7437   -8.6530  -14.1153 O   0  0  0  0  0  0  0  0  0  0  0  0
   19.6768   -7.3671  -15.8058 N   0  0  0  0  0  0  0  0  0  0  0  0
   20.5448   -6.5779  -14.9842 C   0  0  1  0  0  0  0  0  0  0  0  0
   21.6158   -5.8798  -15.7363 C   0  0  0  0  0  0  0  0  0  0  0  0
   22.5011   -5.1270  -14.8415 C   0  0  0  0  0  0  0  0  0  0  0  0
   22.4769   -5.2339  -13.5731 O   0  0  0  0  0  0  0  0  0  0  0  0
   19.8231   -5.7088  -14.0116 C   0  0  0  0  0  0  0  0  0  0  0  0
   18.9853   -4.8533  -14.4088 O   0  0  0  0  0  0  0  0  0  0  0  0
   23.4196   -4.2445  -15.4277 O   0  0  0  0  0  0  0  0  0  0  0  0
   20.0301   -5.7897  -12.6633 O   0  0  0  0  0  0  0  0  0  0  0  0
  1  2  1  0
  3  2  1  0
  3  4  1  6
  5  6  2  0
  5  3  1  0
  7  5  1  0
  8  9  1  1
  8  7  1  0
  9 10  1  0
 10 14  1  0
 11 10  2  0
 11 12  1  0
 12 13  1  0
 14 13  2  0
 15  8  1  0
 16 15  2  0
 17 15  1  0
 18 17  1  0
 18 19  1  6
 19 20  1  0
 20 24  1  0
 21 20  2  0
 22 25  1  0
 22 18  1  0
 23 22  2  0
M  END
$$$$
