RGG.pdb
     RDKit          3D

 20 19  0  0  1  0  0  0  0  0999 V2000
   26.0617  -21.4196  -13.3913 N   0  0  0  0  0  0  0  0  0  0  0  0
   25.4734  -20.9854  -12.1438 C   0  0  0  0  0  0  0  0  0  0  0  0
   26.1403  -20.9279  -11.0681 N   0  0  0  0  0  0  0  0  0  0  0  0
   24.1066  -20.6204  -12.1575 N   0  0  0  0  0  0  0  0  0  0  0  0
   23.3084  -20.6766  -13.3893 C   0  0  0  0  0  0  0  0  0  0  0  0
   23.2743  -19.3201  -14.0290 C   0  0  0  0  0  0  0  0  0  0  0  0
   21.9458  -18.6572  -13.9934 C   0  0  0  0  0  0  0  0  0  0  0  0
   21.4375  -18.2385  -15.3315 C   0  0  2  0  0  0  0  0  0  0  0  0
   21.2455  -19.3458  -16.2487 N   0  0  0  0  0  0  0  0  0  0  0  0
   22.5371  -17.4097  -15.9477 C   0  0  0  0  0  0  0  0  0  0  0  0
   23.1797  -17.8381  -16.9120 O   0  0  0  0  0  0  0  0  0  0  0  0
   25.7759  -20.6649  -10.1564 N   0  0  0  0  0  0  0  0  0  0  0  0
   22.7988  -16.1369  -15.3820 C   0  0  0  0  0  0  0  0  0  0  0  0
   23.8149  -15.3237  -16.0130 C   0  0  0  0  0  0  0  0  0  0  0  0
   25.1414  -15.8526  -15.5740 O   0  0  0  0  0  0  0  0  0  0  0  0
   25.7496  -15.4166  -14.5662 N   0  0  0  0  0  0  0  0  0  0  0  0
   25.7639  -16.9037  -16.3230 C   0  0  0  0  0  0  0  0  0  0  0  0
   27.0546  -17.3984  -15.9390 C   0  0  0  0  0  0  0  0  0  0  0  0
   27.4918  -18.5658  -16.7079 O   0  0  0  0  0  0  0  0  0  0  0  0
   28.7515  -19.0948  -16.5126 O   0  0  0  0  0  0  0  0  0  0  0  0
  2  1  1  0
  3  2  2  0
  4  2  1  0
  5  4  1  0
  6  5  1  0
  7  6  1  0
  8 10  1  0
  8  7  1  0
  8  9  1  6
 10 12  1  0
 11 10  2  0
 12 13  1  0
 13 14  1  0
 14 16  1  0
 14 15  2  0
 16 17  1  0
 17 18  1  0
 18 19  1  0
 20 18  2  0
M  END
$$$$
