RGG.pdb
     RDKit          3D

 20 19  0  0  1  0  0  0  0  0999 V2000
   27.0847  -25.8055  -16.4236 N   0  0  0  0  0  0  0  0  0  0  0  0
   25.9130  -25.6155  -17.2493 C   0  0  0  0  0  0  0  0  0  0  0  0
   25.3520  -26.5768  -17.8546 N   0  0  0  0  0  0  0  0  0  0  0  0
   25.4009  -24.3018  -17.3656 N   0  0  0  0  0  0  0  0  0  0  0  0
   26.2798  -23.1264  -17.3067 C   0  0  0  0  0  0  0  0  0  0  0  0
   26.5363  -22.7613  -15.8744 C   0  0  0  0  0  0  0  0  0  0  0  0
   25.6167  -21.7306  -15.3288 C   0  0  0  0  0  0  0  0  0  0  0  0
   25.7717  -20.3844  -15.9516 C   0  0  2  0  0  0  0  0  0  0  0  0
   27.0899  -19.8091  -15.7629 N   0  0  0  0  0  0  0  0  0  0  0  0
   24.8377  -19.4723  -15.1960 C   0  0  0  0  0  0  0  0  0  0  0  0
   25.1807  -18.9783  -14.1167 O   0  0  0  0  0  0  0  0  0  0  0  0
   24.5552  -26.5005  -18.4810 N   0  0  0  0  0  0  0  0  0  0  0  0
   23.5678  -19.2093  -15.7675 C   0  0  0  0  0  0  0  0  0  0  0  0
   22.6927  -18.3025  -15.0577 C   0  0  0  0  0  0  0  0  0  0  0  0
   21.4545  -18.1474  -15.8793 O   0  0  0  0  0  0  0  0  0  0  0  0
   21.2746  -18.7556  -16.9625 N   0  0  0  0  0  0  0  0  0  0  0  0
   20.4149  -17.2705  -15.4285 C   0  0  0  0  0  0  0  0  0  0  0  0
   19.2102  -17.1243  -16.1936 C   0  0  0  0  0  0  0  0  0  0  0  0
   18.1321  -18.0228  -15.7742 O   0  0  0  0  0  0  0  0  0  0  0  0
   16.8191  -17.5996  -15.8147 O   0  0  0  0  0  0  0  0  0  0  0  0
  2  1  1  0
  3  2  2  0
  4  2  1  0
  5  4  1  0
  6  5  1  0
  7  6  1  0
  8 10  1  0
  8  7  1  0
  8  9  1  1
 10 12  1  0
 11 10  2  0
 12 13  1  0
 13 14  1  0
 14 16  1  0
 14 15  2  0
 16 17  1  0
 17 18  1  0
 18 19  1  0
 20 18  2  0
M  END
$$$$
