RGG.pdb
     RDKit          3D

 20 19  0  0  1  0  0  0  0  0999 V2000
   28.8692  -20.6439   -9.9701 N   0  0  0  0  0  0  0  0  0  0  0  0
   29.8010  -21.2979  -10.8617 C   0  0  0  0  0  0  0  0  0  0  0  0
   30.5725  -22.2233  -10.4697 N   0  0  0  0  0  0  0  0  0  0  0  0
   29.8286  -20.8675  -12.2091 N   0  0  0  0  0  0  0  0  0  0  0  0
   28.6999  -21.1111  -13.1170 C   0  0  0  0  0  0  0  0  0  0  0  0
   27.5278  -20.2736  -12.6983 C   0  0  0  0  0  0  0  0  0  0  0  0
   26.3214  -20.4359  -13.5492 C   0  0  0  0  0  0  0  0  0  0  0  0
   25.2402  -21.2514  -12.9245 C   0  0  2  0  0  0  0  0  0  0  0  0
   25.1384  -22.5912  -13.4713 N   0  0  0  0  0  0  0  0  0  0  0  0
   23.9455  -20.5771  -13.3045 C   0  0  0  0  0  0  0  0  0  0  0  0
   23.7256  -19.4083  -12.9698 O   0  0  0  0  0  0  0  0  0  0  0  0
   31.2597  -22.7063  -11.0419 N   0  0  0  0  0  0  0  0  0  0  0  0
   23.0049  -21.3296  -14.0511 C   0  0  0  0  0  0  0  0  0  0  0  0
   21.7665  -20.6764  -14.4138 C   0  0  0  0  0  0  0  0  0  0  0  0
   20.6500  -21.5471  -13.9371 O   0  0  0  0  0  0  0  0  0  0  0  0
   20.8137  -22.7482  -13.6111 N   0  0  0  0  0  0  0  0  0  0  0  0
   19.3264  -21.0066  -13.8409 C   0  0  0  0  0  0  0  0  0  0  0  0
   18.2680  -21.7846  -13.2643 C   0  0  0  0  0  0  0  0  0  0  0  0
   17.6375  -22.7128  -14.2057 O   0  0  0  0  0  0  0  0  0  0  0  0
   16.5801  -23.5021  -13.8010 O   0  0  0  0  0  0  0  0  0  0  0  0
  2  1  1  0
  3  2  2  0
  4  2  1  0
  5  4  1  0
  6  5  1  0
  7  6  1  0
  8 10  1  0
  8  7  1  0
  8  9  1  6
 10 12  1  0
 11 10  2  0
 12 13  1  0
 13 14  1  0
 14 16  1  0
 14 15  2  0
 16 17  1  0
 17 18  1  0
 18 19  1  0
 20 18  2  0
M  END
$$$$
