RGG.pdb
     RDKit          3D

 20 19  0  0  1  0  0  0  0  0999 V2000
   21.3553  -20.3398   -8.6706 N   0  0  0  0  0  0  0  0  0  0  0  0
   20.7227  -21.0404   -9.7660 C   0  0  0  0  0  0  0  0  0  0  0  0
   19.8862  -21.9728   -9.5761 N   0  0  0  0  0  0  0  0  0  0  0  0
   21.0706  -20.6493  -11.0803 N   0  0  0  0  0  0  0  0  0  0  0  0
   22.4500  -20.2909  -11.4358 C   0  0  0  0  0  0  0  0  0  0  0  0
   23.3831  -20.7460  -10.3528 C   0  0  0  0  0  0  0  0  0  0  0  0
   24.8195  -20.4936  -10.6332 C   0  0  0  0  0  0  0  0  0  0  0  0
   25.3394  -21.2033  -11.8375 C   0  0  2  0  0  0  0  0  0  0  0  0
   26.1573  -22.3582  -11.5190 N   0  0  0  0  0  0  0  0  0  0  0  0
   26.2796  -20.2349  -12.5109 C   0  0  0  0  0  0  0  0  0  0  0  0
   25.9177  -19.0801  -12.7601 O   0  0  0  0  0  0  0  0  0  0  0  0
   19.4206  -22.5103  -10.3023 N   0  0  0  0  0  0  0  0  0  0  0  0
   27.5775  -20.6983  -12.8413 C   0  0  0  0  0  0  0  0  0  0  0  0
   28.4557  -19.7818  -13.5346 C   0  0  0  0  0  0  0  0  0  0  0  0
   28.2160  -19.9601  -14.9984 O   0  0  0  0  0  0  0  0  0  0  0  0
   29.1381  -20.1986  -15.8161 N   0  0  0  0  0  0  0  0  0  0  0  0
   26.8822  -19.8581  -15.5118 C   0  0  0  0  0  0  0  0  0  0  0  0
   26.6316  -20.0340  -16.9133 C   0  0  0  0  0  0  0  0  0  0  0  0
   26.0890  -21.3508  -17.2551 O   0  0  0  0  0  0  0  0  0  0  0  0
   25.0711  -21.4646  -18.1802 O   0  0  0  0  0  0  0  0  0  0  0  0
  2  1  1  0
  3  2  2  0
  4  2  1  0
  5  4  1  0
  6  5  1  0
  7  6  1  0
  8 10  1  0
  8  7  1  0
  8  9  1  1
 10 12  1  0
 11 10  2  0
 12 13  1  0
 13 14  1  0
 14 16  1  0
 14 15  2  0
 16 17  1  0
 17 18  1  0
 18 19  1  0
 20 18  2  0
M  END
$$$$
