RGG.pdb
     RDKit          3D

 20 19  0  0  1  0  0  0  0  0999 V2000
   22.9083  -15.3348  -16.8749 N   0  0  0  0  0  0  0  0  0  0  0  0
   23.9451  -14.3826  -16.5445 C   0  0  0  0  0  0  0  0  0  0  0  0
   24.0976  -13.3020  -17.1882 N   0  0  0  0  0  0  0  0  0  0  0  0
   24.8013  -14.6969  -15.4630 N   0  0  0  0  0  0  0  0  0  0  0  0
   26.2451  -14.8863  -15.6557 C   0  0  0  0  0  0  0  0  0  0  0  0
   26.4830  -15.7487  -16.8599 C   0  0  0  0  0  0  0  0  0  0  0  0
   27.3536  -16.9258  -16.6104 C   0  0  0  0  0  0  0  0  0  0  0  0
   26.6087  -18.1984  -16.3872 C   0  0  2  0  0  0  0  0  0  0  0  0
   25.2910  -18.0032  -15.8129 N   0  0  0  0  0  0  0  0  0  0  0  0
   27.3846  -18.9490  -15.3336 C   0  0  0  0  0  0  0  0  0  0  0  0
   28.5767  -19.2224  -15.5086 O   0  0  0  0  0  0  0  0  0  0  0  0
   24.8369  -12.6206  -17.0387 N   0  0  0  0  0  0  0  0  0  0  0  0
   26.6986  -19.3226  -14.1511 C   0  0  0  0  0  0  0  0  0  0  0  0
   27.4453  -20.0524  -13.1502 C   0  0  0  0  0  0  0  0  0  0  0  0
   26.6532  -20.0050  -11.8844 O   0  0  0  0  0  0  0  0  0  0  0  0
   25.9608  -19.0128  -11.5502 N   0  0  0  0  0  0  0  0  0  0  0  0
   26.6714  -21.1314  -10.9989 C   0  0  0  0  0  0  0  0  0  0  0  0
   25.9196  -21.1031   -9.7775 C   0  0  0  0  0  0  0  0  0  0  0  0
   24.4962  -21.4003   -9.9537 O   0  0  0  0  0  0  0  0  0  0  0  0
   23.6346  -21.3380   -8.8773 O   0  0  0  0  0  0  0  0  0  0  0  0
  2  1  1  0
  3  2  2  0
  4  2  1  0
  5  4  1  0
  6  5  1  0
  7  6  1  0
  8 10  1  0
  8  7  1  0
  8  9  1  1
 10 12  1  0
 11 10  2  0
 12 13  1  0
 13 14  1  0
 14 16  1  0
 14 15  2  0
 16 17  1  0
 17 18  1  0
 18 19  1  0
 20 18  2  0
M  END
$$$$
