RGG.pdb
     RDKit          3D

 20 19  0  0  1  0  0  0  0  0999 V2000
   21.7351  -20.2090  -10.0228 N   0  0  0  0  0  0  0  0  0  0  0  0
   22.5938  -20.9532   -9.1286 C   0  0  0  0  0  0  0  0  0  0  0  0
   22.2315  -21.2741   -7.9578 N   0  0  0  0  0  0  0  0  0  0  0  0
   23.8743  -21.3196   -9.6058 N   0  0  0  0  0  0  0  0  0  0  0  0
   25.0873  -21.0807   -8.8126 C   0  0  0  0  0  0  0  0  0  0  0  0
   25.9715  -20.1024   -9.5278 C   0  0  0  0  0  0  0  0  0  0  0  0
   26.7454  -20.6832  -10.6545 C   0  0  0  0  0  0  0  0  0  0  0  0
   26.3540  -20.1616  -11.9957 C   0  0  2  0  0  0  0  0  0  0  0  0
   25.3297  -20.9553  -12.6476 N   0  0  0  0  0  0  0  0  0  0  0  0
   27.5758  -20.3121  -12.8675 C   0  0  0  0  0  0  0  0  0  0  0  0
   28.6856  -19.9544  -12.4588 O   0  0  0  0  0  0  0  0  0  0  0  0
   22.8037  -21.7562   -7.2698 N   0  0  0  0  0  0  0  0  0  0  0  0
   27.4002  -20.8731  -14.1570 C   0  0  0  0  0  0  0  0  0  0  0  0
   27.7356  -20.0455  -15.2948 C   0  0  0  0  0  0  0  0  0  0  0  0
   26.4651  -19.7662  -16.0295 O   0  0  0  0  0  0  0  0  0  0  0  0
   26.1286  -18.6137  -16.3957 N   0  0  0  0  0  0  0  0  0  0  0  0
   25.5776  -20.8477  -16.3392 C   0  0  0  0  0  0  0  0  0  0  0  0
   24.3733  -20.6052  -17.0799 C   0  0  0  0  0  0  0  0  0  0  0  0
   23.2705  -20.0943  -16.2625 O   0  0  0  0  0  0  0  0  0  0  0  0
   23.4805  -19.7660  -14.9385 O   0  0  0  0  0  0  0  0  0  0  0  0
  2  1  1  0
  3  2  2  0
  4  2  1  0
  5  4  1  0
  6  5  1  0
  7  6  1  0
  8 10  1  0
  8  7  1  0
  8  9  1  6
 10 12  1  0
 11 10  2  0
 12 13  1  0
 13 14  1  0
 14 16  1  0
 14 15  2  0
 16 17  1  0
 17 18  1  0
 18 19  1  0
 20 18  2  0
M  END
$$$$
