RGG.pdb
     RDKit          3D

 20 19  0  0  1  0  0  0  0  0999 V2000
   23.8792  -20.5596  -10.0842 N   0  0  0  0  0  0  0  0  0  0  0  0
   25.2606  -20.7963   -9.7286 C   0  0  0  0  0  0  0  0  0  0  0  0
   25.8056  -20.2353   -8.7318 N   0  0  0  0  0  0  0  0  0  0  0  0
   26.0013  -21.6877  -10.5399 N   0  0  0  0  0  0  0  0  0  0  0  0
   25.5853  -22.0035  -11.9128 C   0  0  0  0  0  0  0  0  0  0  0  0
   26.2851  -21.0884  -12.8737 C   0  0  0  0  0  0  0  0  0  0  0  0
   25.3793  -20.2065  -13.6529 C   0  0  0  0  0  0  0  0  0  0  0  0
   24.4120  -20.9396  -14.5197 C   0  0  2  0  0  0  0  0  0  0  0  0
   25.0331  -21.9577  -15.3454 N   0  0  0  0  0  0  0  0  0  0  0  0
   23.8798  -19.9195  -15.4952 C   0  0  0  0  0  0  0  0  0  0  0  0
   23.5325  -18.8000  -15.1045 O   0  0  0  0  0  0  0  0  0  0  0  0
   26.7725  -20.3504   -8.4404 N   0  0  0  0  0  0  0  0  0  0  0  0
   23.7958  -20.2935  -16.8596 C   0  0  0  0  0  0  0  0  0  0  0  0
   22.4866  -20.6170  -17.3822 C   0  0  0  0  0  0  0  0  0  0  0  0
   21.5037  -19.7218  -16.7007 O   0  0  0  0  0  0  0  0  0  0  0  0
   21.4475  -18.4856  -16.9112 N   0  0  0  0  0  0  0  0  0  0  0  0
   20.5758  -20.2792  -15.7619 C   0  0  0  0  0  0  0  0  0  0  0  0
   19.6224  -19.4358  -15.1002 C   0  0  0  0  0  0  0  0  0  0  0  0
   18.7748  -20.1446  -14.1386 O   0  0  0  0  0  0  0  0  0  0  0  0
   17.7785  -19.4710  -13.4614 O   0  0  0  0  0  0  0  0  0  0  0  0
  2  1  1  0
  3  2  2  0
  4  2  1  0
  5  4  1  0
  6  5  1  0
  7  6  1  0
  8 10  1  0
  8  7  1  0
  8  9  1  6
 10 12  1  0
 11 10  2  0
 12 13  1  0
 13 14  1  0
 14 16  1  0
 14 15  2  0
 16 17  1  0
 17 18  1  0
 18 19  1  0
 20 18  2  0
M  END
$$$$
