HDG.pdb
     RDKit          3D

 23 23  0  0  1  0  0  0  0  0999 V2000
   11.4784  -12.8563   18.6624 N   0  0  0  0  0  0  0  0  0  0  0  0
   11.3287  -13.9744   19.5804 C   0  0  1  0  0  0  0  0  0  0  0  0
   10.2165  -14.8385   19.0311 C   0  0  0  0  0  0  0  0  0  0  0  0
    8.9632  -14.0445   19.0193 C   0  0  0  0  0  0  0  0  0  0  0  0
    8.8029  -12.6839   19.2493 C   0  0  0  0  0  0  0  0  0  0  0  0
    7.4986  -12.3739   19.1468 N   0  0  0  0  0  0  0  0  0  0  0  0
    6.8212  -13.4858   18.8609 C   0  0  0  0  0  0  0  0  0  0  0  0
    7.7225  -14.5009   18.7834 N   0  0  0  0  0  0  0  0  0  0  0  0
   12.6056  -14.7209   19.7147 C   0  0  0  0  0  0  0  0  0  0  0  0
   12.6260  -15.7432   20.4040 O   0  0  0  0  0  0  0  0  0  0  0  0
   13.7665  -14.2917   19.0829 N   0  0  0  0  0  0  0  0  0  0  0  0
   15.1017  -14.6994   19.1546 C   0  0  1  0  0  0  0  0  0  0  0  0
   16.0393  -14.3895   18.0923 C   0  0  0  0  0  0  0  0  0  0  0  0
   15.6132  -15.0978   16.8281 C   0  0  0  0  0  0  0  0  0  0  0  0
   15.1450  -16.2885   16.8537 O   0  0  0  0  0  0  0  0  0  0  0  0
   15.6382  -14.4959   20.5301 C   0  0  0  0  0  0  0  0  0  0  0  0
   15.8602  -13.3338   20.9290 O   0  0  0  0  0  0  0  0  0  0  0  0
   15.6985  -14.5153   15.5705 O   0  0  0  0  0  0  0  0  0  0  0  0
   15.9230  -15.5636   21.4412 N   0  0  0  0  0  0  0  0  0  0  0  0
   16.4241  -15.2860   22.7876 C   0  0  0  0  0  0  0  0  0  0  0  0
   16.8413  -16.5273   23.4641 C   0  0  0  0  0  0  0  0  0  0  0  0
   17.4291  -16.3915   24.7229 O   0  0  0  0  0  0  0  0  0  0  0  0
   16.7103  -17.6916   22.9989 O   0  0  0  0  0  0  0  0  0  0  0  0
  2  1  1  6
  2  3  1  0
  3  4  1  0
  4  5  2  0
  5  6  1  0
  7  6  1  0
  8  4  1  0
  8  7  2  0
  9  2  1  0
  9 11  1  0
 10  9  2  0
 12 11  1  0
 12 16  1  0
 12 13  1  6
 14 13  1  0
 14 18  1  0
 15 14  2  0
 16 17  2  0
 16 19  1  0
 19 20  1  0
 20 21  1  0
 21 22  1  0
 23 21  2  0
M  END
$$$$
