HDG.pdb
     RDKit          3D

 23 23  0  0  1  0  0  0  0  0999 V2000
    8.4674  -17.5486   18.4735 N   0  0  0  0  0  0  0  0  0  0  0  0
    9.3655  -16.8909   19.4096 C   0  0  1  0  0  0  0  0  0  0  0  0
    8.4979  -16.0703   20.3367 C   0  0  0  0  0  0  0  0  0  0  0  0
    8.2674  -14.7425   19.7161 C   0  0  0  0  0  0  0  0  0  0  0  0
    8.6933  -14.2857   18.4753 C   0  0  0  0  0  0  0  0  0  0  0  0
    8.2710  -13.0203   18.3067 N   0  0  0  0  0  0  0  0  0  0  0  0
    7.5925  -12.6530   19.3939 C   0  0  0  0  0  0  0  0  0  0  0  0
    7.5937  -13.7102   20.2488 N   0  0  0  0  0  0  0  0  0  0  0  0
   10.1846  -17.8887   20.1439 C   0  0  0  0  0  0  0  0  0  0  0  0
    9.6572  -18.9464   20.4958 O   0  0  0  0  0  0  0  0  0  0  0  0
   11.5222  -17.6537   20.4382 N   0  0  0  0  0  0  0  0  0  0  0  0
   12.5158  -18.4208   21.0533 C   0  0  1  0  0  0  0  0  0  0  0  0
   13.8917  -18.3728   20.5967 C   0  0  0  0  0  0  0  0  0  0  0  0
   14.6682  -19.5014   21.2330 C   0  0  0  0  0  0  0  0  0  0  0  0
   15.2052  -19.3764   22.3878 O   0  0  0  0  0  0  0  0  0  0  0  0
   12.3560  -18.3940   22.5349 C   0  0  0  0  0  0  0  0  0  0  0  0
   12.5669  -17.3275   23.1487 O   0  0  0  0  0  0  0  0  0  0  0  0
   14.8502  -20.7333   20.6187 O   0  0  0  0  0  0  0  0  0  0  0  0
   11.9713  -19.5309   23.3163 N   0  0  0  0  0  0  0  0  0  0  0  0
   11.6098  -19.3833   24.7264 C   0  0  0  0  0  0  0  0  0  0  0  0
   12.7872  -19.5563   25.5962 C   0  0  0  0  0  0  0  0  0  0  0  0
   12.5672  -19.4952   26.9733 O   0  0  0  0  0  0  0  0  0  0  0  0
   13.9667  -19.7531   25.1973 O   0  0  0  0  0  0  0  0  0  0  0  0
  2  1  1  6
  2  3  1  0
  3  4  1  0
  4  5  2  0
  5  6  1  0
  7  6  1  0
  8  4  1  0
  8  7  2  0
  9  2  1  0
  9 11  1  0
 10  9  2  0
 12 11  1  0
 12 16  1  0
 12 13  1  1
 14 13  1  0
 14 18  1  0
 15 14  2  0
 16 17  2  0
 16 19  1  0
 19 20  1  0
 20 21  1  0
 21 22  1  0
 23 21  2  0
M  END
$$$$
