HDG.pdb
     RDKit          3D

 23 23  0  0  1  0  0  0  0  0999 V2000
    7.0080  -15.9833   20.0599 N   0  0  0  0  0  0  0  0  0  0  0  0
    8.3759  -15.6017   20.3738 C   0  0  1  0  0  0  0  0  0  0  0  0
    8.4684  -14.1083   20.1571 C   0  0  0  0  0  0  0  0  0  0  0  0
    8.2018  -13.8211   18.7261 C   0  0  0  0  0  0  0  0  0  0  0  0
    7.0765  -13.2358   18.1597 C   0  0  0  0  0  0  0  0  0  0  0  0
    7.2438  -13.1656   16.8275 N   0  0  0  0  0  0  0  0  0  0  0  0
    8.4332  -13.6850   16.5230 C   0  0  0  0  0  0  0  0  0  0  0  0
    9.0123  -14.0815   17.6876 N   0  0  0  0  0  0  0  0  0  0  0  0
    8.7258  -15.9900   21.7639 C   0  0  0  0  0  0  0  0  0  0  0  0
    7.9609  -15.6754   22.6786 O   0  0  0  0  0  0  0  0  0  0  0  0
    9.8887  -16.6952   22.0490 N   0  0  0  0  0  0  0  0  0  0  0  0
   10.4437  -17.1864   23.2343 C   0  0  1  0  0  0  0  0  0  0  0  0
   10.4033  -18.6009   23.5525 C   0  0  0  0  0  0  0  0  0  0  0  0
    8.9847  -19.1022   23.4184 C   0  0  0  0  0  0  0  0  0  0  0  0
    8.0682  -18.7434   24.2363 O   0  0  0  0  0  0  0  0  0  0  0  0
   11.7520  -16.5285   23.5119 C   0  0  0  0  0  0  0  0  0  0  0  0
   12.2642  -16.6505   24.6440 O   0  0  0  0  0  0  0  0  0  0  0  0
    8.5832  -19.9733   22.4144 O   0  0  0  0  0  0  0  0  0  0  0  0
   12.4734  -15.7504   22.5502 N   0  0  0  0  0  0  0  0  0  0  0  0
   13.7042  -15.0521   22.9226 C   0  0  0  0  0  0  0  0  0  0  0  0
   14.8658  -15.9574   22.8630 C   0  0  0  0  0  0  0  0  0  0  0  0
   16.0918  -15.3868   22.5165 O   0  0  0  0  0  0  0  0  0  0  0  0
   14.8391  -17.1956   23.0980 O   0  0  0  0  0  0  0  0  0  0  0  0
  2  1  1  1
  2  3  1  0
  3  4  1  0
  4  5  2  0
  5  6  1  0
  7  6  1  0
  8  4  1  0
  8  7  2  0
  9  2  1  0
  9 11  1  0
 10  9  2  0
 12 11  1  0
 12 16  1  0
 12 13  1  6
 14 13  1  0
 14 18  1  0
 15 14  2  0
 16 17  2  0
 16 19  1  0
 19 20  1  0
 20 21  1  0
 21 22  1  0
 23 21  2  0
M  END
$$$$
