HDG.pdb
     RDKit          3D

 23 23  0  0  1  0  0  0  0  0999 V2000
    9.4074  -15.7192   19.9271 N   0  0  0  0  0  0  0  0  0  0  0  0
    8.5199  -16.8109   19.5586 C   0  0  1  0  0  0  0  0  0  0  0  0
    8.0187  -16.5085   18.1647 C   0  0  0  0  0  0  0  0  0  0  0  0
    7.5961  -15.0872   18.1125 C   0  0  0  0  0  0  0  0  0  0  0  0
    7.8248  -14.0853   19.0472 C   0  0  0  0  0  0  0  0  0  0  0  0
    7.2656  -12.9435   18.6099 N   0  0  0  0  0  0  0  0  0  0  0  0
    6.6882  -13.1799   17.4318 C   0  0  0  0  0  0  0  0  0  0  0  0
    6.8956  -14.4904   17.1346 N   0  0  0  0  0  0  0  0  0  0  0  0
    9.2290  -18.1138   19.6299 C   0  0  0  0  0  0  0  0  0  0  0  0
    8.5951  -19.1478   19.4069 O   0  0  0  0  0  0  0  0  0  0  0  0
   10.5815  -18.1874   19.9404 N   0  0  0  0  0  0  0  0  0  0  0  0
   11.4562  -19.2555   20.1597 C   0  0  1  0  0  0  0  0  0  0  0  0
   12.4160  -19.6594   19.1501 C   0  0  0  0  0  0  0  0  0  0  0  0
   11.6945  -19.9072   17.8464 C   0  0  0  0  0  0  0  0  0  0  0  0
   10.7152  -20.7273   17.7691 O   0  0  0  0  0  0  0  0  0  0  0  0
   12.0013  -19.2098   21.5462 C   0  0  0  0  0  0  0  0  0  0  0  0
   12.7281  -20.1440   21.9434 O   0  0  0  0  0  0  0  0  0  0  0  0
   12.0384  -19.2724   16.6603 O   0  0  0  0  0  0  0  0  0  0  0  0
   11.7413  -18.1475   22.4707 N   0  0  0  0  0  0  0  0  0  0  0  0
   12.2699  -18.1948   23.8344 C   0  0  0  0  0  0  0  0  0  0  0  0
   13.7155  -17.9076   23.8526 C   0  0  0  0  0  0  0  0  0  0  0  0
   14.3263  -17.8298   25.1054 O   0  0  0  0  0  0  0  0  0  0  0  0
   14.4369  -17.7281   22.8346 O   0  0  0  0  0  0  0  0  0  0  0  0
  2  1  1  6
  2  3  1  0
  3  4  1  0
  4  5  2  0
  5  6  1  0
  7  6  1  0
  8  4  1  0
  8  7  2  0
  9  2  1  0
  9 11  1  0
 10  9  2  0
 12 11  1  0
 12 16  1  0
 12 13  1  6
 14 13  1  0
 14 18  1  0
 15 14  2  0
 16 17  2  0
 16 19  1  0
 19 20  1  0
 20 21  1  0
 21 22  1  0
 23 21  2  0
M  END
$$$$
