HDG.pdb
     RDKit          3D

 23 23  0  0  1  0  0  0  0  0999 V2000
    8.7958  -16.2928   22.1312 N   0  0  0  0  0  0  0  0  0  0  0  0
    8.8962  -16.8150   20.7775 C   0  0  1  0  0  0  0  0  0  0  0  0
    9.5499  -15.7352   19.9453 C   0  0  0  0  0  0  0  0  0  0  0  0
    8.8136  -14.4646   20.1574 C   0  0  0  0  0  0  0  0  0  0  0  0
    7.7431  -14.2207   21.0083 C   0  0  0  0  0  0  0  0  0  0  0  0
    7.3739  -12.9334   20.8885 N   0  0  0  0  0  0  0  0  0  0  0  0
    8.1683  -12.3476   19.9925 C   0  0  0  0  0  0  0  0  0  0  0  0
    9.0453  -13.2886   19.5519 N   0  0  0  0  0  0  0  0  0  0  0  0
    9.6682  -18.0836   20.7577 C   0  0  0  0  0  0  0  0  0  0  0  0
    9.7691  -18.7007   19.6949 O   0  0  0  0  0  0  0  0  0  0  0  0
   10.2732  -18.5823   21.9050 N   0  0  0  0  0  0  0  0  0  0  0  0
   10.9986  -19.7463   22.1755 C   0  0  1  0  0  0  0  0  0  0  0  0
   12.1343  -20.1299   21.3589 C   0  0  0  0  0  0  0  0  0  0  0  0
   11.6387  -20.7817   20.0896 C   0  0  0  0  0  0  0  0  0  0  0  0
   10.5643  -21.4766   20.0697 O   0  0  0  0  0  0  0  0  0  0  0  0
   11.2130  -19.9008   23.6423 C   0  0  0  0  0  0  0  0  0  0  0  0
   11.6134  -20.9974   24.0848 O   0  0  0  0  0  0  0  0  0  0  0  0
   12.3041  -20.6738   18.8756 O   0  0  0  0  0  0  0  0  0  0  0  0
   10.9848  -18.8570   24.5960 N   0  0  0  0  0  0  0  0  0  0  0  0
   11.0499  -19.1273   26.0326 C   0  0  0  0  0  0  0  0  0  0  0  0
   12.4398  -19.0708   26.5200 C   0  0  0  0  0  0  0  0  0  0  0  0
   12.6303  -19.2032   27.8965 O   0  0  0  0  0  0  0  0  0  0  0  0
   13.4607  -18.9135   25.7976 O   0  0  0  0  0  0  0  0  0  0  0  0
  2  1  1  1
  2  3  1  0
  3  4  1  0
  4  5  2  0
  5  6  1  0
  7  6  1  0
  8  4  1  0
  8  7  2  0
  9  2  1  0
  9 11  1  0
 10  9  2  0
 12 11  1  0
 12 16  1  0
 12 13  1  6
 14 13  1  0
 14 18  1  0
 15 14  2  0
 16 17  2  0
 16 19  1  0
 19 20  1  0
 20 21  1  0
 21 22  1  0
 23 21  2  0
M  END
$$$$
