HDG.pdb
     RDKit          3D

 23 23  0  0  1  0  0  0  0  0999 V2000
    8.5664  -15.9958   21.0453 N   0  0  0  0  0  0  0  0  0  0  0  0
    9.6238  -15.0101   21.2048 C   0  0  1  0  0  0  0  0  0  0  0  0
    8.9738  -13.6525   21.0636 C   0  0  0  0  0  0  0  0  0  0  0  0
    8.3316  -13.5727   19.7285 C   0  0  0  0  0  0  0  0  0  0  0  0
    6.9847  -13.4124   19.4283 C   0  0  0  0  0  0  0  0  0  0  0  0
    6.8336  -13.3953   18.0924 N   0  0  0  0  0  0  0  0  0  0  0  0
    8.0334  -13.5396   17.5295 C   0  0  0  0  0  0  0  0  0  0  0  0
    8.9426  -13.6459   18.5349 N   0  0  0  0  0  0  0  0  0  0  0  0
   10.3036  -15.1735   22.5151 C   0  0  0  0  0  0  0  0  0  0  0  0
   10.0025  -14.4143   23.4390 O   0  0  0  0  0  0  0  0  0  0  0  0
   11.2636  -16.1578   22.7163 N   0  0  0  0  0  0  0  0  0  0  0  0
   12.1283  -16.4489   23.7754 C   0  0  1  0  0  0  0  0  0  0  0  0
   12.1374  -17.7585   24.3989 C   0  0  0  0  0  0  0  0  0  0  0  0
   10.7588  -18.0660   24.9340 C   0  0  0  0  0  0  0  0  0  0  0  0
    9.9378  -18.8020   24.2845 O   0  0  0  0  0  0  0  0  0  0  0  0
   13.4810  -15.8780   23.5192 C   0  0  0  0  0  0  0  0  0  0  0  0
   14.2405  -15.6599   24.4859 O   0  0  0  0  0  0  0  0  0  0  0  0
   10.2941  -17.5792   26.1486 O   0  0  0  0  0  0  0  0  0  0  0  0
   13.9765  -15.5553   22.2149 N   0  0  0  0  0  0  0  0  0  0  0  0
   15.3212  -15.0057   22.0390 C   0  0  0  0  0  0  0  0  0  0  0  0
   15.5967  -14.7233   20.6188 C   0  0  0  0  0  0  0  0  0  0  0  0
   16.8408  -14.1668   20.3172 O   0  0  0  0  0  0  0  0  0  0  0  0
   14.8037  -14.9429   19.6638 O   0  0  0  0  0  0  0  0  0  0  0  0
  2  1  1  1
  2  3  1  0
  3  4  1  0
  4  5  2  0
  5  6  1  0
  7  6  1  0
  8  4  1  0
  8  7  2  0
  9  2  1  0
  9 11  1  0
 10  9  2  0
 12 11  1  0
 12 16  1  0
 12 13  1  6
 14 13  1  0
 14 18  1  0
 15 14  2  0
 16 17  2  0
 16 19  1  0
 19 20  1  0
 20 21  1  0
 21 22  1  0
 23 21  2  0
M  END
$$$$
