GTH.pdb
     RDKit          3D

 22 22  0  0  1  0  0  0  0  0999 V2000
    4.0345  -18.3538   21.3631 N   0  0  0  0  0  0  0  0  0  0  0  0
    4.5706  -17.0107   21.4595 C   0  0  0  0  0  0  0  0  0  0  0  0
    6.0044  -16.9750   21.0332 C   0  0  0  0  0  0  0  0  0  0  0  0
    6.6027  -18.0513   20.9490 O   0  0  0  0  0  0  0  0  0  0  0  0
    7.6007  -15.1489   18.0537 C   0  0  0  0  0  0  0  0  0  0  0  0
    8.2691  -14.6773   19.3217 C   0  0  1  0  0  0  0  0  0  0  0  0
    8.0482  -13.3194   19.5209 O   0  0  0  0  0  0  0  0  0  0  0  0
    8.0316  -15.5398   20.4971 C   0  0  2  0  0  0  0  0  0  0  0  0
    6.6396  -15.7415   20.7398 N   0  0  0  0  0  0  0  0  0  0  0  0
    8.7517  -15.2078   21.7356 C   0  0  0  0  0  0  0  0  0  0  0  0
    8.3618  -14.2295   22.4108 O   0  0  0  0  0  0  0  0  0  0  0  0
    9.8712  -15.9089   22.2477 N   0  0  0  0  0  0  0  0  0  0  0  0
   10.4832  -15.4927   23.5454 C   0  0  1  0  0  0  0  0  0  0  0  0
    9.8481  -16.2307   24.6622 C   0  0  0  0  0  0  0  0  0  0  0  0
    8.5573  -15.6266   25.0442 C   0  0  0  0  0  0  0  0  0  0  0  0
    8.1880  -14.3191   25.2198 C   0  0  0  0  0  0  0  0  0  0  0  0
    6.8518  -14.2632   25.4955 N   0  0  0  0  0  0  0  0  0  0  0  0
    6.4097  -15.5146   25.4873 C   0  0  0  0  0  0  0  0  0  0  0  0
    7.4074  -16.3599   25.2192 N   0  0  0  0  0  0  0  0  0  0  0  0
   11.9382  -15.8198   23.4134 C   0  0  0  0  0  0  0  0  0  0  0  0
   12.9192  -15.5725   24.3258 O   0  0  0  0  0  0  0  0  0  0  0  0
   12.3136  -16.3945   22.3381 O   0  0  0  0  0  0  0  0  0  0  0  0
  2  1  1  0
  3  2  1  0
  4  3  2  0
  6  5  1  6
  6  8  1  0
  7  6  1  0
  8  9  1  1
  8 10  1  0
  9  3  1  0
 10 12  1  0
 11 10  2  0
 12 13  1  0
 13 14  1  1
 13 20  1  0
 15 14  1  0
 16 15  2  0
 17 16  1  0
 18 17  1  0
 18 19  2  0
 19 15  1  0
 20 22  2  0
 20 21  1  0
M  END
$$$$
