GTH.pdb
     RDKit          3D

 22 22  0  0  1  0  0  0  0  0999 V2000
    9.4398  -16.7835   13.6611 N   0  0  0  0  0  0  0  0  0  0  0  0
   10.3655  -16.3963   14.7070 C   0  0  0  0  0  0  0  0  0  0  0  0
    9.8576  -16.8117   16.0517 C   0  0  0  0  0  0  0  0  0  0  0  0
    8.6346  -16.8469   16.2151 O   0  0  0  0  0  0  0  0  0  0  0  0
   10.4920  -20.0837   17.6007 C   0  0  0  0  0  0  0  0  0  0  0  0
   10.9964  -19.0392   18.5659 C   0  0  1  0  0  0  0  0  0  0  0  0
   12.3817  -19.0899   18.6691 O   0  0  0  0  0  0  0  0  0  0  0  0
   10.4220  -17.6928   18.3673 C   0  0  2  0  0  0  0  0  0  0  0  0
   10.7607  -17.1498   17.0915 N   0  0  0  0  0  0  0  0  0  0  0  0
   10.6203  -16.7083   19.4415 C   0  0  0  0  0  0  0  0  0  0  0  0
   11.5445  -15.8733   19.3252 O   0  0  0  0  0  0  0  0  0  0  0  0
    9.8440  -16.6144   20.6229 N   0  0  0  0  0  0  0  0  0  0  0  0
   10.0302  -15.4569   21.5488 C   0  0  1  0  0  0  0  0  0  0  0  0
    8.7604  -14.7039   21.6764 C   0  0  0  0  0  0  0  0  0  0  0  0
    8.3744  -14.0748   20.3989 C   0  0  0  0  0  0  0  0  0  0  0  0
    8.9378  -13.0457   19.6915 C   0  0  0  0  0  0  0  0  0  0  0  0
    8.2574  -12.8815   18.5191 N   0  0  0  0  0  0  0  0  0  0  0  0
    7.2950  -13.7953   18.5074 C   0  0  0  0  0  0  0  0  0  0  0  0
    7.3359  -14.5300   19.6211 N   0  0  0  0  0  0  0  0  0  0  0  0
   10.4557  -16.0623   22.8501 C   0  0  0  0  0  0  0  0  0  0  0  0
   10.9355  -15.4036   23.9418 O   0  0  0  0  0  0  0  0  0  0  0  0
   10.3618  -17.3295   22.9645 O   0  0  0  0  0  0  0  0  0  0  0  0
  2  1  1  0
  3  2  1  0
  4  3  2  0
  6  5  1  6
  6  8  1  0
  7  6  1  0
  8  9  1  6
  8 10  1  0
  9  3  1  0
 10 12  1  0
 11 10  2  0
 12 13  1  0
 13 14  1  1
 13 20  1  0
 15 14  1  0
 16 15  2  0
 17 16  1  0
 18 17  1  0
 18 19  2  0
 19 15  1  0
 20 22  2  0
 20 21  1  0
M  END
$$$$
