GTH.pdb
     RDKit          3D

 22 22  0  0  1  0  0  0  0  0999 V2000
    8.0713  -13.2482   16.6912 N   0  0  0  0  0  0  0  0  0  0  0  0
    8.8077  -13.3262   17.9372 C   0  0  0  0  0  0  0  0  0  0  0  0
    8.2715  -14.4182   18.8082 C   0  0  0  0  0  0  0  0  0  0  0  0
    7.1539  -14.8678   18.5386 O   0  0  0  0  0  0  0  0  0  0  0  0
    8.1122  -17.4779   18.8119 C   0  0  0  0  0  0  0  0  0  0  0  0
    8.8774  -17.3038   20.1008 C   0  0  1  0  0  0  0  0  0  0  0  0
   10.1994  -17.7057   19.9485 O   0  0  0  0  0  0  0  0  0  0  0  0
    8.6818  -15.9954   20.7578 C   0  0  2  0  0  0  0  0  0  0  0  0
    9.0311  -14.9090   19.9004 N   0  0  0  0  0  0  0  0  0  0  0  0
    9.2492  -15.8233   22.1036 C   0  0  0  0  0  0  0  0  0  0  0  0
   10.2332  -15.0641   22.2458 O   0  0  0  0  0  0  0  0  0  0  0  0
    8.7741  -16.4509   23.2815 N   0  0  0  0  0  0  0  0  0  0  0  0
    9.4188  -16.1567   24.5965 C   0  0  1  0  0  0  0  0  0  0  0  0
    8.3800  -15.9573   25.6341 C   0  0  0  0  0  0  0  0  0  0  0  0
    7.7182  -14.6464   25.4914 C   0  0  0  0  0  0  0  0  0  0  0  0
    8.1138  -13.4984   24.8569 C   0  0  0  0  0  0  0  0  0  0  0  0
    7.1125  -12.5736   24.9365 N   0  0  0  0  0  0  0  0  0  0  0  0
    6.1198  -13.1454   25.6067 C   0  0  0  0  0  0  0  0  0  0  0  0
    6.4492  -14.3911   25.9552 N   0  0  0  0  0  0  0  0  0  0  0  0
   10.2779  -17.3482   24.8855 C   0  0  0  0  0  0  0  0  0  0  0  0
   11.2150  -17.4633   25.8676 O   0  0  0  0  0  0  0  0  0  0  0  0
   10.1249  -18.3739   24.1426 O   0  0  0  0  0  0  0  0  0  0  0  0
  2  1  1  0
  3  2  1  0
  4  3  2  0
  6  5  1  6
  6  8  1  0
  7  6  1  0
  8  9  1  6
  8 10  1  0
  9  3  1  0
 10 12  1  0
 11 10  2  0
 12 13  1  0
 13 14  1  1
 13 20  1  0
 15 14  1  0
 16 15  2  0
 17 16  1  0
 18 17  1  0
 18 19  2  0
 19 15  1  0
 20 22  2  0
 20 21  1  0
M  END
$$$$
