GTH.pdb
     RDKit          3D

 22 22  0  0  1  0  0  0  0  0999 V2000
    9.6917  -15.1266   14.0124 N   0  0  0  0  0  0  0  0  0  0  0  0
    9.0644  -15.5874   15.2351 C   0  0  0  0  0  0  0  0  0  0  0  0
    9.5694  -14.8213   16.4171 C   0  0  0  0  0  0  0  0  0  0  0  0
   10.5699  -14.1164   16.2565 O   0  0  0  0  0  0  0  0  0  0  0  0
    7.3156  -12.9228   19.1835 C   0  0  0  0  0  0  0  0  0  0  0  0
    8.2329  -13.9635   19.7772 C   0  0  1  0  0  0  0  0  0  0  0  0
    7.5021  -15.0139   20.3205 O   0  0  0  0  0  0  0  0  0  0  0  0
    9.3596  -14.3558   18.9063 C   0  0  2  0  0  0  0  0  0  0  0  0
    8.9118  -14.9117   17.6703 N   0  0  0  0  0  0  0  0  0  0  0  0
   10.4270  -15.1696   19.5074 C   0  0  0  0  0  0  0  0  0  0  0  0
   10.5350  -16.3664   19.1600 O   0  0  0  0  0  0  0  0  0  0  0  0
   11.3665  -14.7139   20.4649 N   0  0  0  0  0  0  0  0  0  0  0  0
   12.3341  -15.6734   21.0771 C   0  0  1  0  0  0  0  0  0  0  0  0
   13.7136  -15.1474   20.9519 C   0  0  0  0  0  0  0  0  0  0  0  0
   14.1899  -15.2060   19.5567 C   0  0  0  0  0  0  0  0  0  0  0  0
   14.2025  -14.2605   18.5654 C   0  0  0  0  0  0  0  0  0  0  0  0
   14.8246  -14.7736   17.4636 N   0  0  0  0  0  0  0  0  0  0  0  0
   15.1883  -16.0115   17.7748 C   0  0  0  0  0  0  0  0  0  0  0  0
   14.8233  -16.3045   19.0249 N   0  0  0  0  0  0  0  0  0  0  0  0
   11.9092  -15.7972   22.5073 C   0  0  0  0  0  0  0  0  0  0  0  0
   10.8175  -15.2271   23.0895 O   0  0  0  0  0  0  0  0  0  0  0  0
   12.6362  -16.5123   23.2739 O   0  0  0  0  0  0  0  0  0  0  0  0
  2  1  1  0
  3  2  1  0
  4  3  2  0
  6  5  1  6
  6  8  1  0
  7  6  1  0
  8  9  1  6
  8 10  1  0
  9  3  1  0
 10 12  1  0
 11 10  2  0
 12 13  1  0
 13 14  1  1
 13 20  1  0
 15 14  1  0
 16 15  2  0
 17 16  1  0
 18 17  1  0
 18 19  2  0
 19 15  1  0
 20 22  2  0
 20 21  1  0
M  END
$$$$
