GTH.pdb
     RDKit          3D

 22 22  0  0  1  0  0  0  0  0999 V2000
    8.1010  -12.9869   17.0834 N   0  0  0  0  0  0  0  0  0  0  0  0
    8.9588  -13.3347   18.1988 C   0  0  0  0  0  0  0  0  0  0  0  0
    8.3224  -14.3823   19.0568 C   0  0  0  0  0  0  0  0  0  0  0  0
    7.3300  -14.9635   18.6081 O   0  0  0  0  0  0  0  0  0  0  0  0
    8.0710  -17.1972   19.0249 C   0  0  0  0  0  0  0  0  0  0  0  0
    8.8835  -17.0935   20.2923 C   0  0  1  0  0  0  0  0  0  0  0  0
   10.2227  -17.3719   20.0446 O   0  0  0  0  0  0  0  0  0  0  0  0
    8.6233  -15.8774   21.0893 C   0  0  2  0  0  0  0  0  0  0  0  0
    8.8513  -14.6860   20.3370 N   0  0  0  0  0  0  0  0  0  0  0  0
    9.2389  -15.7985   22.4225 C   0  0  0  0  0  0  0  0  0  0  0  0
   10.3435  -15.2232   22.5388 O   0  0  0  0  0  0  0  0  0  0  0  0
    8.6846  -16.3249   23.6154 N   0  0  0  0  0  0  0  0  0  0  0  0
    9.2907  -15.9795   24.9364 C   0  0  1  0  0  0  0  0  0  0  0  0
    8.2234  -15.7875   25.9462 C   0  0  0  0  0  0  0  0  0  0  0  0
    7.5167  -14.5075   25.7489 C   0  0  0  0  0  0  0  0  0  0  0  0
    7.7769  -13.4501   24.9177 C   0  0  0  0  0  0  0  0  0  0  0  0
    6.7804  -12.5250   25.0427 N   0  0  0  0  0  0  0  0  0  0  0  0
    5.9236  -13.0079   25.9338 C   0  0  0  0  0  0  0  0  0  0  0  0
    6.3343  -14.1975   26.3787 N   0  0  0  0  0  0  0  0  0  0  0  0
   10.1788  -17.1367   25.2730 C   0  0  0  0  0  0  0  0  0  0  0  0
   11.0987  -17.1984   26.2760 O   0  0  0  0  0  0  0  0  0  0  0  0
   10.0719  -18.1850   24.5538 O   0  0  0  0  0  0  0  0  0  0  0  0
  2  1  1  0
  3  2  1  0
  4  3  2  0
  6  5  1  6
  6  8  1  0
  7  6  1  0
  8  9  1  6
  8 10  1  0
  9  3  1  0
 10 12  1  0
 11 10  2  0
 12 13  1  0
 13 14  1  1
 13 20  1  0
 15 14  1  0
 16 15  2  0
 17 16  1  0
 18 17  1  0
 18 19  2  0
 19 15  1  0
 20 22  2  0
 20 21  1  0
M  END
$$$$
