GTH.pdb
     RDKit          3D

 22 22  0  0  1  0  0  0  0  0999 V2000
   12.1339  -17.7564   14.3910 N   0  0  0  0  0  0  0  0  0  0  0  0
   12.9327  -18.1249   15.5429 C   0  0  0  0  0  0  0  0  0  0  0  0
   12.4361  -17.4431   16.7786 C   0  0  0  0  0  0  0  0  0  0  0  0
   12.3971  -16.2093   16.7744 O   0  0  0  0  0  0  0  0  0  0  0  0
    9.4166  -18.7814   19.1071 C   0  0  0  0  0  0  0  0  0  0  0  0
   10.6918  -18.5474   19.8792 C   0  0  1  0  0  0  0  0  0  0  0  0
   11.1905  -19.7430   20.3834 O   0  0  0  0  0  0  0  0  0  0  0  0
   11.6760  -17.6874   19.1910 C   0  0  2  0  0  0  0  0  0  0  0  0
   12.0282  -18.2000   17.9063 N   0  0  0  0  0  0  0  0  0  0  0  0
   12.8658  -17.2787   19.9525 C   0  0  0  0  0  0  0  0  0  0  0  0
   13.9389  -17.8926   19.7613 O   0  0  0  0  0  0  0  0  0  0  0  0
   12.9116  -16.2300   20.9040 N   0  0  0  0  0  0  0  0  0  0  0  0
   14.1954  -15.9041   21.5949 C   0  0  1  0  0  0  0  0  0  0  0  0
   14.5305  -14.4756   21.3890 C   0  0  0  0  0  0  0  0  0  0  0  0
   15.0922  -14.2406   20.0451 C   0  0  0  0  0  0  0  0  0  0  0  0
   15.3280  -15.0964   19.0016 C   0  0  0  0  0  0  0  0  0  0  0  0
   15.7862  -14.3835   17.9310 N   0  0  0  0  0  0  0  0  0  0  0  0
   15.8288  -13.1127   18.3112 C   0  0  0  0  0  0  0  0  0  0  0  0
   15.4183  -12.9901   19.5755 N   0  0  0  0  0  0  0  0  0  0  0  0
   13.9533  -16.2204   23.0381 C   0  0  0  0  0  0  0  0  0  0  0  0
   14.8908  -16.3347   24.0198 O   0  0  0  0  0  0  0  0  0  0  0  0
   12.7442  -16.4020   23.4025 O   0  0  0  0  0  0  0  0  0  0  0  0
  2  1  1  0
  3  2  1  0
  4  3  2  0
  6  5  1  6
  6  8  1  0
  7  6  1  0
  8  9  1  6
  8 10  1  0
  9  3  1  0
 10 12  1  0
 11 10  2  0
 12 13  1  0
 13 14  1  1
 13 20  1  0
 15 14  1  0
 16 15  2  0
 17 16  1  0
 18 17  1  0
 18 19  2  0
 19 15  1  0
 20 22  2  0
 20 21  1  0
M  END
$$$$
