GTH.pdb
     RDKit          3D

 22 22  0  0  1  0  0  0  0  0999 V2000
    2.6501  -19.8554   22.1253 N   0  0  0  0  0  0  0  0  0  0  0  0
    3.2854  -18.5700   22.3372 C   0  0  0  0  0  0  0  0  0  0  0  0
    4.7673  -18.6692   22.1558 C   0  0  0  0  0  0  0  0  0  0  0  0
    5.1881  -19.4694   21.3153 O   0  0  0  0  0  0  0  0  0  0  0  0
    6.8397  -18.3671   20.2689 C   0  0  0  0  0  0  0  0  0  0  0  0
    7.2532  -17.2837   21.2344 C   0  0  1  0  0  0  0  0  0  0  0  0
    6.7797  -16.0446   20.8188 O   0  0  0  0  0  0  0  0  0  0  0  0
    7.0217  -17.6090   22.6565 C   0  0  2  0  0  0  0  0  0  0  0  0
    5.6444  -17.8666   22.9288 N   0  0  0  0  0  0  0  0  0  0  0  0
    7.6099  -16.7093   23.6601 C   0  0  0  0  0  0  0  0  0  0  0  0
    6.8514  -15.9452   24.2969 O   0  0  0  0  0  0  0  0  0  0  0  0
    8.9873  -16.6257   23.9810 N   0  0  0  0  0  0  0  0  0  0  0  0
    9.4488  -15.6947   25.0543 C   0  0  1  0  0  0  0  0  0  0  0  0
    8.9476  -16.1545   26.3707 C   0  0  0  0  0  0  0  0  0  0  0  0
    9.4089  -15.2751   27.4618 C   0  0  0  0  0  0  0  0  0  0  0  0
    9.5845  -13.9174   27.5156 C   0  0  0  0  0  0  0  0  0  0  0  0
    9.9540  -13.5623   28.7812 N   0  0  0  0  0  0  0  0  0  0  0  0
   10.0024  -14.6827   29.4911 C   0  0  0  0  0  0  0  0  0  0  0  0
    9.6804  -15.7311   28.7303 N   0  0  0  0  0  0  0  0  0  0  0  0
   10.9438  -15.7260   24.9820 C   0  0  0  0  0  0  0  0  0  0  0  0
   11.8001  -14.7125   25.2910 O   0  0  0  0  0  0  0  0  0  0  0  0
   11.4883  -16.8125   24.5939 O   0  0  0  0  0  0  0  0  0  0  0  0
  2  1  1  0
  3  2  1  0
  4  3  2  0
  6  5  1  6
  6  8  1  0
  7  6  1  0
  8  9  1  6
  8 10  1  0
  9  3  1  0
 10 12  1  0
 11 10  2  0
 12 13  1  0
 13 14  1  1
 13 20  1  0
 15 14  1  0
 16 15  2  0
 17 16  1  0
 18 17  1  0
 18 19  2  0
 19 15  1  0
 20 22  2  0
 20 21  1  0
M  END
$$$$
