GTH.pdb
     RDKit          3D

 22 22  0  0  1  0  0  0  0  0999 V2000
    8.4674  -13.2557   17.4472 N   0  0  0  0  0  0  0  0  0  0  0  0
    9.1112  -13.3143   18.7444 C   0  0  0  0  0  0  0  0  0  0  0  0
    8.3342  -14.1763   19.6889 C   0  0  0  0  0  0  0  0  0  0  0  0
    7.2575  -14.6321   19.2928 O   0  0  0  0  0  0  0  0  0  0  0  0
    7.4899  -16.8619   19.9873 C   0  0  0  0  0  0  0  0  0  0  0  0
    8.3221  -16.7913   21.2441 C   0  0  1  0  0  0  0  0  0  0  0  0
    9.5589  -17.3961   21.0522 O   0  0  0  0  0  0  0  0  0  0  0  0
    8.3572  -15.4595   21.8820 C   0  0  2  0  0  0  0  0  0  0  0  0
    8.8294  -14.4511   20.9890 N   0  0  0  0  0  0  0  0  0  0  0  0
    9.0032  -15.3577   23.1992 C   0  0  0  0  0  0  0  0  0  0  0  0
   10.1739  -14.9214   23.2596 O   0  0  0  0  0  0  0  0  0  0  0  0
    8.4094  -15.7154   24.4348 N   0  0  0  0  0  0  0  0  0  0  0  0
    9.1567  -15.5048   25.7111 C   0  0  1  0  0  0  0  0  0  0  0  0
    8.2048  -15.2359   26.8143 C   0  0  0  0  0  0  0  0  0  0  0  0
    7.5015  -13.9534   26.6207 C   0  0  0  0  0  0  0  0  0  0  0  0
    7.8882  -12.6635   26.8724 C   0  0  0  0  0  0  0  0  0  0  0  0
    6.9111  -11.8105   26.4455 N   0  0  0  0  0  0  0  0  0  0  0  0
    5.9433  -12.5646   25.9395 C   0  0  0  0  0  0  0  0  0  0  0  0
    6.2646  -13.8572   26.0279 N   0  0  0  0  0  0  0  0  0  0  0  0
    9.9228  -16.7725   25.9286 C   0  0  0  0  0  0  0  0  0  0  0  0
   10.9599  -16.9648   26.7908 O   0  0  0  0  0  0  0  0  0  0  0  0
    9.5767  -17.7906   25.2422 O   0  0  0  0  0  0  0  0  0  0  0  0
  2  1  1  0
  3  2  1  0
  4  3  2  0
  6  5  1  6
  6  8  1  0
  7  6  1  0
  8  9  1  6
  8 10  1  0
  9  3  1  0
 10 12  1  0
 11 10  2  0
 12 13  1  0
 13 14  1  1
 13 20  1  0
 15 14  1  0
 16 15  2  0
 17 16  1  0
 18 17  1  0
 18 19  2  0
 19 15  1  0
 20 22  2  0
 20 21  1  0
M  END
$$$$
