GTH.pdb
     RDKit          3D

 22 22  0  0  1  0  0  0  0  0999 V2000
    9.0233  -15.3883   14.2177 N   0  0  0  0  0  0  0  0  0  0  0  0
    8.2852  -15.3923   15.4651 C   0  0  0  0  0  0  0  0  0  0  0  0
    9.0608  -14.7103   16.5478 C   0  0  0  0  0  0  0  0  0  0  0  0
   10.0141  -14.0029   16.2094 O   0  0  0  0  0  0  0  0  0  0  0  0
    7.4688  -12.5716   19.3033 C   0  0  0  0  0  0  0  0  0  0  0  0
    8.3212  -13.6420   19.9395 C   0  0  1  0  0  0  0  0  0  0  0  0
    7.5361  -14.5375   20.6565 O   0  0  0  0  0  0  0  0  0  0  0  0
    9.3163  -14.2518   19.0340 C   0  0  2  0  0  0  0  0  0  0  0  0
    8.7017  -14.8798   17.9092 N   0  0  0  0  0  0  0  0  0  0  0  0
   10.3414  -15.1152   19.6393 C   0  0  0  0  0  0  0  0  0  0  0  0
   10.2513  -16.3528   19.4810 O   0  0  0  0  0  0  0  0  0  0  0  0
   11.4474  -14.6658   20.4022 N   0  0  0  0  0  0  0  0  0  0  0  0
   12.4163  -15.6533   20.9660 C   0  0  1  0  0  0  0  0  0  0  0  0
   13.7910  -15.1044   20.9011 C   0  0  0  0  0  0  0  0  0  0  0  0
   14.2925  -15.0656   19.5141 C   0  0  0  0  0  0  0  0  0  0  0  0
   14.2071  -15.9785   18.4961 C   0  0  0  0  0  0  0  0  0  0  0  0
   14.7600  -15.4452   17.3673 N   0  0  0  0  0  0  0  0  0  0  0  0
   15.1755  -14.2261   17.6875 C   0  0  0  0  0  0  0  0  0  0  0  0
   14.9104  -13.9646   18.9693 N   0  0  0  0  0  0  0  0  0  0  0  0
   11.9686  -15.8777   22.3768 C   0  0  0  0  0  0  0  0  0  0  0  0
   12.4950  -16.7587   23.2727 O   0  0  0  0  0  0  0  0  0  0  0  0
   10.9925  -15.1736   22.8001 O   0  0  0  0  0  0  0  0  0  0  0  0
  2  1  1  0
  3  2  1  0
  4  3  2  0
  6  5  1  6
  6  8  1  0
  7  6  1  0
  8  9  1  6
  8 10  1  0
  9  3  1  0
 10 12  1  0
 11 10  2  0
 12 13  1  0
 13 14  1  1
 13 20  1  0
 15 14  1  0
 16 15  2  0
 17 16  1  0
 18 17  1  0
 18 19  2  0
 19 15  1  0
 20 22  2  0
 20 21  1  0
M  END
$$$$
