DCY.pdb
     RDKit          3D

 27 27  0  0  1  0  0  0  0  0999 V2000
   11.0048  -19.1067   16.2140 N   0  0  0  0  0  0  0  0  0  0  0  0
   11.5924  -18.2631   17.2200 C   0  0  1  0  0  0  0  0  0  0  0  0
   11.7515  -16.8471   16.7746 C   0  0  0  0  0  0  0  0  0  0  0  0
   12.6933  -16.6898   15.6377 C   0  0  0  0  0  0  0  0  0  0  0  0
   12.3666  -16.1928   14.5342 O   0  0  0  0  0  0  0  0  0  0  0  0
   10.8864  -18.3441   18.5113 C   0  0  0  0  0  0  0  0  0  0  0  0
    9.6176  -18.2242   18.5939 O   0  0  0  0  0  0  0  0  0  0  0  0
   14.0324  -17.1038   15.7533 O   0  0  0  0  0  0  0  0  0  0  0  0
   11.5431  -18.5572   19.7587 N   0  0  0  0  0  0  0  0  0  0  0  0
   10.8362  -18.7836   21.0022 C   0  0  1  0  0  0  0  0  0  0  0  0
   11.1261  -20.1564   21.4918 C   0  0  0  0  0  0  0  0  0  0  0  0
   10.0558  -20.5178   22.9076 S   0  0  0  0  0  0  0  0  0  0  0  0
   11.1462  -17.7290   22.0028 C   0  0  0  0  0  0  0  0  0  0  0  0
   12.3269  -17.3060   22.0521 O   0  0  0  0  0  0  0  0  0  0  0  0
   10.8681  -13.5951   29.8445 O   0  0  0  0  0  0  0  0  0  0  0  0
   10.5158  -14.1997   28.6369 C   0  0  0  0  0  0  0  0  0  0  0  0
   10.0657  -13.4453   27.5752 C   0  0  0  0  0  0  0  0  0  0  0  0
    9.7120  -14.0503   26.3634 C   0  0  0  0  0  0  0  0  0  0  0  0
    9.7991  -15.4069   26.1871 C   0  0  0  0  0  0  0  0  0  0  0  0
    9.4352  -16.0660   24.9254 C   0  0  0  0  0  0  0  0  0  0  0  0
   10.6123  -16.4065   24.0418 C   0  0  2  0  0  0  0  0  0  0  0  0
   10.2014  -17.1865   22.8853 N   0  0  0  0  0  0  0  0  0  0  0  0
   11.6895  -17.0932   24.8002 C   0  0  0  0  0  0  0  0  0  0  0  0
   11.6094  -18.4289   25.1670 O   0  0  0  0  0  0  0  0  0  0  0  0
   10.2503  -16.1576   27.2530 C   0  0  0  0  0  0  0  0  0  0  0  0
   10.6015  -15.5636   28.4543 C   0  0  0  0  0  0  0  0  0  0  0  0
   12.7015  -16.4364   25.1154 O   0  0  0  0  0  0  0  0  0  0  0  0
  2  1  1  6
  3  2  1  0
  4  3  1  0
  5  4  2  0
  6  2  1  0
  7  6  2  0
  8  4  1  0
  9  6  1  0
 10  9  1  0
 10 11  1  1
 11 12  1  0
 13 22  1  0
 13 10  1  0
 14 13  2  0
 16 15  1  0
 17 16  2  0
 18 17  1  0
 19 25  1  0
 19 18  2  0
 20 19  1  0
 21 23  1  0
 21 20  1  1
 21 22  1  0
 23 24  1  0
 25 26  2  0
 26 16  1  0
 27 23  2  0
M  END
$$$$
