DCY.pdb
     RDKit          3D

 27 27  0  0  1  0  0  0  0  0999 V2000
   12.5271  -17.0077   18.2390 N   0  0  0  0  0  0  0  0  0  0  0  0
   11.4426  -17.5975   18.9773 C   0  0  1  0  0  0  0  0  0  0  0  0
   11.8122  -18.8909   19.6248 C   0  0  0  0  0  0  0  0  0  0  0  0
   12.4914  -19.8372   18.7041 C   0  0  0  0  0  0  0  0  0  0  0  0
   13.6641  -20.2456   18.8757 O   0  0  0  0  0  0  0  0  0  0  0  0
   10.8423  -16.6635   19.9467 C   0  0  0  0  0  0  0  0  0  0  0  0
   11.5507  -16.0339   20.8027 O   0  0  0  0  0  0  0  0  0  0  0  0
   11.8286  -20.3309   17.5662 O   0  0  0  0  0  0  0  0  0  0  0  0
    9.4455  -16.3864   20.0160 N   0  0  0  0  0  0  0  0  0  0  0  0
    8.8389  -15.6135   21.0799 C   0  0  1  0  0  0  0  0  0  0  0  0
    7.3734  -15.5235   20.8508 C   0  0  0  0  0  0  0  0  0  0  0  0
    6.6408  -14.4579   22.1190 S   0  0  0  0  0  0  0  0  0  0  0  0
    9.1886  -16.1617   22.4166 C   0  0  0  0  0  0  0  0  0  0  0  0
   10.4020  -16.3756   22.6559 O   0  0  0  0  0  0  0  0  0  0  0  0
   10.7667  -14.7522   30.6625 O   0  0  0  0  0  0  0  0  0  0  0  0
   10.3533  -14.8220   29.3312 C   0  0  0  0  0  0  0  0  0  0  0  0
    9.5128  -13.8663   28.8026 C   0  0  0  0  0  0  0  0  0  0  0  0
    9.0973  -13.9349   27.4676 C   0  0  0  0  0  0  0  0  0  0  0  0
    9.5076  -14.9480   26.6402 C   0  0  0  0  0  0  0  0  0  0  0  0
    9.0869  -15.0421   25.2357 C   0  0  0  0  0  0  0  0  0  0  0  0
    8.6069  -16.4137   24.8228 C   0  0  2  0  0  0  0  0  0  0  0  0
    8.2467  -16.4497   23.4143 N   0  0  0  0  0  0  0  0  0  0  0  0
    7.4874  -16.8857   25.6778 C   0  0  0  0  0  0  0  0  0  0  0  0
    7.6652  -17.8089   26.6981 O   0  0  0  0  0  0  0  0  0  0  0  0
   10.3489  -15.9021   27.1743 C   0  0  0  0  0  0  0  0  0  0  0  0
   10.7628  -15.8387   28.4949 C   0  0  0  0  0  0  0  0  0  0  0  0
    6.3469  -16.4294   25.4636 O   0  0  0  0  0  0  0  0  0  0  0  0
  2  1  1  1
  3  2  1  0
  4  3  1  0
  5  4  2  0
  6  2  1  0
  7  6  2  0
  8  4  1  0
  9  6  1  0
 10  9  1  0
 10 11  1  6
 11 12  1  0
 13 22  1  0
 13 10  1  0
 14 13  2  0
 16 15  1  0
 17 16  2  0
 18 17  1  0
 19 25  1  0
 19 18  2  0
 20 19  1  0
 21 23  1  0
 21 20  1  1
 21 22  1  0
 23 24  1  0
 25 26  2  0
 26 16  1  0
 27 23  2  0
M  END
$$$$
