DCY.pdb
     RDKit          3D

 27 27  0  0  1  0  0  0  0  0999 V2000
   11.4781  -18.2930   18.5152 N   0  0  0  0  0  0  0  0  0  0  0  0
   12.1692  -17.2770   19.2629 C   0  0  1  0  0  0  0  0  0  0  0  0
   13.0484  -16.4217   18.4117 C   0  0  0  0  0  0  0  0  0  0  0  0
   14.2635  -17.1245   17.9280 C   0  0  0  0  0  0  0  0  0  0  0  0
   15.3550  -17.1200   18.5446 O   0  0  0  0  0  0  0  0  0  0  0  0
   11.2591  -16.4603   20.0858 C   0  0  0  0  0  0  0  0  0  0  0  0
   11.6209  -15.3398   20.5804 O   0  0  0  0  0  0  0  0  0  0  0  0
   14.2417  -17.8469   16.7216 O   0  0  0  0  0  0  0  0  0  0  0  0
    9.9212  -16.8409   20.3989 N   0  0  0  0  0  0  0  0  0  0  0  0
    9.0779  -16.1039   21.3169 C   0  0  1  0  0  0  0  0  0  0  0  0
    7.6561  -16.4647   21.0791 C   0  0  0  0  0  0  0  0  0  0  0  0
    6.6138  -15.5737   22.2625 S   0  0  0  0  0  0  0  0  0  0  0  0
    9.5038  -16.3059   22.7268 C   0  0  0  0  0  0  0  0  0  0  0  0
    9.8437  -17.4647   23.0691 O   0  0  0  0  0  0  0  0  0  0  0  0
   10.3744  -15.2988   31.5142 O   0  0  0  0  0  0  0  0  0  0  0  0
   10.1324  -15.0878   30.1560 C   0  0  0  0  0  0  0  0  0  0  0  0
    9.0243  -15.6326   29.5439 C   0  0  0  0  0  0  0  0  0  0  0  0
    8.7802  -15.4218   28.1817 C   0  0  0  0  0  0  0  0  0  0  0  0
    9.6279  -14.6707   27.4093 C   0  0  0  0  0  0  0  0  0  0  0  0
    9.3937  -14.4337   25.9784 C   0  0  0  0  0  0  0  0  0  0  0  0
    9.8225  -15.5725   25.0830 C   0  0  2  0  0  0  0  0  0  0  0  0
    9.5461  -15.2833   23.6849 N   0  0  0  0  0  0  0  0  0  0  0  0
    9.2094  -16.8604   25.4986 C   0  0  0  0  0  0  0  0  0  0  0  0
    7.8772  -17.1648   25.2588 O   0  0  0  0  0  0  0  0  0  0  0  0
   10.7356  -14.1277   28.0268 C   0  0  0  0  0  0  0  0  0  0  0  0
   10.9816  -14.3333   29.3746 C   0  0  0  0  0  0  0  0  0  0  0  0
    9.9270  -17.6946   26.0852 O   0  0  0  0  0  0  0  0  0  0  0  0
  2  1  1  6
  3  2  1  0
  4  3  1  0
  5  4  2  0
  6  2  1  0
  7  6  2  0
  8  4  1  0
  9  6  1  0
 10  9  1  0
 10 11  1  1
 11 12  1  0
 13 22  1  0
 13 10  1  0
 14 13  2  0
 16 15  1  0
 17 16  2  0
 18 17  1  0
 19 25  1  0
 19 18  2  0
 20 19  1  0
 21 23  1  0
 21 20  1  1
 21 22  1  0
 23 24  1  0
 25 26  2  0
 26 16  1  0
 27 23  2  0
M  END
$$$$
