DCY.pdb
     RDKit          3D

 27 27  0  0  1  0  0  0  0  0999 V2000
    8.6574  -19.4723   15.6511 N   0  0  0  0  0  0  0  0  0  0  0  0
    9.5166  -18.5569   16.3532 C   0  0  1  0  0  0  0  0  0  0  0  0
    9.6714  -17.2474   15.6529 C   0  0  0  0  0  0  0  0  0  0  0  0
   10.5159  -17.3277   14.4345 C   0  0  0  0  0  0  0  0  0  0  0  0
   11.0539  -18.3876   14.0359 O   0  0  0  0  0  0  0  0  0  0  0  0
    9.1180  -18.3701   17.7598 C   0  0  0  0  0  0  0  0  0  0  0  0
    8.0363  -17.7710   18.0794 O   0  0  0  0  0  0  0  0  0  0  0  0
   10.7560  -16.1842   13.6517 O   0  0  0  0  0  0  0  0  0  0  0  0
    9.8890  -18.8302   18.8673 N   0  0  0  0  0  0  0  0  0  0  0  0
    9.4114  -18.8077   20.2342 C   0  0  1  0  0  0  0  0  0  0  0  0
    9.6901  -20.1187   20.8760 C   0  0  0  0  0  0  0  0  0  0  0  0
    9.0227  -20.1067   22.5599 S   0  0  0  0  0  0  0  0  0  0  0  0
    9.9752  -17.6569   20.9875 C   0  0  0  0  0  0  0  0  0  0  0  0
   11.1240  -17.2633   20.6699 O   0  0  0  0  0  0  0  0  0  0  0  0
    7.2360  -12.4621   18.0216 O   0  0  0  0  0  0  0  0  0  0  0  0
    7.6734  -13.0190   19.2243 C   0  0  0  0  0  0  0  0  0  0  0  0
    8.9559  -12.7992   19.6782 C   0  0  0  0  0  0  0  0  0  0  0  0
    9.3962  -13.3571   20.8842 C   0  0  0  0  0  0  0  0  0  0  0  0
    8.5745  -14.1381   21.6551 C   0  0  0  0  0  0  0  0  0  0  0  0
    9.0118  -14.7341   22.9247 C   0  0  0  0  0  0  0  0  0  0  0  0
    9.9360  -15.9188   22.7677 C   0  0  2  0  0  0  0  0  0  0  0  0
    9.3009  -16.9942   22.0227 N   0  0  0  0  0  0  0  0  0  0  0  0
   10.4442  -16.3982   24.0788 C   0  0  0  0  0  0  0  0  0  0  0  0
   11.3217  -15.6560   24.8560 O   0  0  0  0  0  0  0  0  0  0  0  0
    7.2917  -14.3550   21.1962 C   0  0  0  0  0  0  0  0  0  0  0  0
    6.8512  -13.8052   20.0033 C   0  0  0  0  0  0  0  0  0  0  0  0
   10.0624  -17.5120   24.4894 O   0  0  0  0  0  0  0  0  0  0  0  0
  2  1  1  6
  3  2  1  0
  4  3  1  0
  5  4  2  0
  6  2  1  0
  7  6  2  0
  8  4  1  0
  9  6  1  0
 10  9  1  0
 10 11  1  1
 11 12  1  0
 13 22  1  0
 13 10  1  0
 14 13  2  0
 16 15  1  0
 17 16  2  0
 18 17  1  0
 19 25  1  0
 19 18  2  0
 20 19  1  0
 21 23  1  0
 21 20  1  1
 21 22  1  0
 23 24  1  0
 25 26  2  0
 26 16  1  0
 27 23  2  0
M  END
$$$$
