DCY.pdb
     RDKit          3D

 27 27  0  0  1  0  0  0  0  0999 V2000
    4.3859  -18.8266   21.9771 N   0  0  0  0  0  0  0  0  0  0  0  0
    5.0350  -18.9246   23.2569 C   0  0  1  0  0  0  0  0  0  0  0  0
    5.1743  -20.3321   23.7348 C   0  0  0  0  0  0  0  0  0  0  0  0
    4.0268  -21.1970   23.3611 C   0  0  0  0  0  0  0  0  0  0  0  0
    3.0732  -20.8080   22.6463 O   0  0  0  0  0  0  0  0  0  0  0  0
    6.3260  -18.2143   23.2941 C   0  0  0  0  0  0  0  0  0  0  0  0
    7.3931  -18.7782   23.7115 O   0  0  0  0  0  0  0  0  0  0  0  0
    3.9582  -22.5293   23.8060 O   0  0  0  0  0  0  0  0  0  0  0  0
    6.4956  -16.8612   22.8781 N   0  0  0  0  0  0  0  0  0  0  0  0
    7.7694  -16.1730   22.9070 C   0  0  1  0  0  0  0  0  0  0  0  0
    7.9374  -15.3927   21.6536 C   0  0  0  0  0  0  0  0  0  0  0  0
    6.5273  -14.2722   21.4609 S   0  0  0  0  0  0  0  0  0  0  0  0
    7.9118  -15.3456   24.1337 C   0  0  0  0  0  0  0  0  0  0  0  0
    6.8650  -14.8677   24.6351 O   0  0  0  0  0  0  0  0  0  0  0  0
    9.2123  -18.9442   30.0302 O   0  0  0  0  0  0  0  0  0  0  0  0
    8.9742  -17.8030   29.2627 C   0  0  0  0  0  0  0  0  0  0  0  0
    9.6461  -16.6275   29.5194 C   0  0  0  0  0  0  0  0  0  0  0  0
    9.4084  -15.4821   28.7505 C   0  0  0  0  0  0  0  0  0  0  0  0
    8.5045  -15.4853   27.7198 C   0  0  0  0  0  0  0  0  0  0  0  0
    8.2377  -14.2973   26.8976 C   0  0  0  0  0  0  0  0  0  0  0  0
    9.2471  -14.0652   25.7977 C   0  0  2  0  0  0  0  0  0  0  0  0
    9.1388  -15.0728   24.7547 N   0  0  0  0  0  0  0  0  0  0  0  0
   10.6321  -13.9861   26.3293 C   0  0  0  0  0  0  0  0  0  0  0  0
   11.6509  -14.8165   25.8849 O   0  0  0  0  0  0  0  0  0  0  0  0
    7.8346  -16.6645   27.4671 C   0  0  0  0  0  0  0  0  0  0  0  0
    8.0663  -17.8008   28.2252 C   0  0  0  0  0  0  0  0  0  0  0  0
   10.8802  -13.1377   27.2088 O   0  0  0  0  0  0  0  0  0  0  0  0
  2  1  1  6
  3  2  1  0
  4  3  1  0
  5  4  2  0
  6  2  1  0
  7  6  2  0
  8  4  1  0
  9  6  1  0
 10  9  1  0
 10 11  1  6
 11 12  1  0
 13 22  1  0
 13 10  1  0
 14 13  2  0
 16 15  1  0
 17 16  2  0
 18 17  1  0
 19 25  1  0
 19 18  2  0
 20 19  1  0
 21 23  1  0
 21 20  1  1
 21 22  1  0
 23 24  1  0
 25 26  2  0
 26 16  1  0
 27 23  2  0
M  END
$$$$
