DCY.pdb
     RDKit          3D

 27 27  0  0  1  0  0  0  0  0999 V2000
   10.3567  -19.0168   18.5568 N   0  0  0  0  0  0  0  0  0  0  0  0
   10.9823  -17.7734   18.9195 C   0  0  1  0  0  0  0  0  0  0  0  0
   11.6101  -17.0751   17.7589 C   0  0  0  0  0  0  0  0  0  0  0  0
   12.5490  -17.9333   16.9931 C   0  0  0  0  0  0  0  0  0  0  0  0
   13.5866  -18.4337   17.4875 O   0  0  0  0  0  0  0  0  0  0  0  0
   10.0762  -16.8771   19.6598 C   0  0  0  0  0  0  0  0  0  0  0  0
   10.4218  -15.6928   19.9898 O   0  0  0  0  0  0  0  0  0  0  0  0
   12.3075  -18.2307   15.6399 O   0  0  0  0  0  0  0  0  0  0  0  0
    8.7604  -17.2448   20.0674 N   0  0  0  0  0  0  0  0  0  0  0  0
    7.9268  -16.4137   20.9109 C   0  0  1  0  0  0  0  0  0  0  0  0
    6.4965  -16.6919   20.6188 C   0  0  0  0  0  0  0  0  0  0  0  0
    5.4657  -15.8189   21.8254 S   0  0  0  0  0  0  0  0  0  0  0  0
    8.2723  -16.5788   22.3472 C   0  0  0  0  0  0  0  0  0  0  0  0
    8.4848  -17.7443   22.7619 O   0  0  0  0  0  0  0  0  0  0  0  0
   10.6958  -15.0686   30.7682 O   0  0  0  0  0  0  0  0  0  0  0  0
   10.3213  -14.9218   29.4317 C   0  0  0  0  0  0  0  0  0  0  0  0
   10.9740  -15.6158   28.4359 C   0  0  0  0  0  0  0  0  0  0  0  0
   10.5996  -15.4696   27.0950 C   0  0  0  0  0  0  0  0  0  0  0  0
    9.5765  -14.6364   26.7231 C   0  0  0  0  0  0  0  0  0  0  0  0
    9.1636  -14.4662   25.3234 C   0  0  0  0  0  0  0  0  0  0  0  0
    8.7229  -15.7434   24.6473 C   0  0  2  0  0  0  0  0  0  0  0  0
    8.3728  -15.5147   23.2545 N   0  0  0  0  0  0  0  0  0  0  0  0
    7.6110  -16.3998   25.3820 C   0  0  0  0  0  0  0  0  0  0  0  0
    6.2767  -16.1436   25.1011 O   0  0  0  0  0  0  0  0  0  0  0  0
    8.9265  -13.9440   27.7237 C   0  0  0  0  0  0  0  0  0  0  0  0
    9.2933  -14.0852   29.0522 C   0  0  0  0  0  0  0  0  0  0  0  0
    7.8967  -17.2113   26.2846 O   0  0  0  0  0  0  0  0  0  0  0  0
  2  1  1  6
  3  2  1  0
  4  3  1  0
  5  4  2  0
  6  2  1  0
  7  6  2  0
  8  4  1  0
  9  6  1  0
 10  9  1  0
 10 11  1  1
 11 12  1  0
 13 22  1  0
 13 10  1  0
 14 13  2  0
 16 15  1  0
 17 16  2  0
 18 17  1  0
 19 25  1  0
 19 18  2  0
 20 19  1  0
 21 23  1  0
 21 20  1  1
 21 22  1  0
 23 24  1  0
 25 26  2  0
 26 16  1  0
 27 23  2  0
M  END
$$$$
