DCY.pdb
     RDKit          3D

 27 27  0  0  1  0  0  0  0  0999 V2000
   10.0629  -17.6618   18.4187 N   0  0  0  0  0  0  0  0  0  0  0  0
   10.8577  -17.4290   19.5948 C   0  0  1  0  0  0  0  0  0  0  0  0
   12.2992  -17.1908   19.2877 C   0  0  0  0  0  0  0  0  0  0  0  0
   12.7282  -17.7703   17.9898 C   0  0  0  0  0  0  0  0  0  0  0  0
   11.9522  -17.9422   17.0203 O   0  0  0  0  0  0  0  0  0  0  0  0
   10.3070  -16.3621   20.4496 C   0  0  0  0  0  0  0  0  0  0  0  0
   10.9848  -15.8427   21.3993 O   0  0  0  0  0  0  0  0  0  0  0  0
   14.0631  -18.1631   17.7860 O   0  0  0  0  0  0  0  0  0  0  0  0
    8.9946  -15.8263   20.2976 N   0  0  0  0  0  0  0  0  0  0  0  0
    8.4148  -14.8675   21.2151 C   0  0  1  0  0  0  0  0  0  0  0  0
    7.0871  -14.4369   20.7052 C   0  0  0  0  0  0  0  0  0  0  0  0
    7.2840  -13.7678   19.0336 S   0  0  0  0  0  0  0  0  0  0  0  0
    8.3625  -15.4044   22.6002 C   0  0  0  0  0  0  0  0  0  0  0  0
    8.3409  -16.6518   22.7378 O   0  0  0  0  0  0  0  0  0  0  0  0
   10.8422  -16.0616   31.0690 O   0  0  0  0  0  0  0  0  0  0  0  0
   10.5619  -15.6399   29.7683 C   0  0  0  0  0  0  0  0  0  0  0  0
   10.9128  -16.4152   28.6844 C   0  0  0  0  0  0  0  0  0  0  0  0
   10.6323  -15.9936   27.3793 C   0  0  0  0  0  0  0  0  0  0  0  0
   10.0022  -14.8018   27.1307 C   0  0  0  0  0  0  0  0  0  0  0  0
    9.6957  -14.3372   25.7710 C   0  0  0  0  0  0  0  0  0  0  0  0
    8.6416  -15.1531   25.0600 C   0  0  2  0  0  0  0  0  0  0  0  0
    8.3362  -14.6018   23.7494 N   0  0  0  0  0  0  0  0  0  0  0  0
    7.4131  -15.3017   25.8821 C   0  0  0  0  0  0  0  0  0  0  0  0
    7.2330  -16.3501   26.7728 O   0  0  0  0  0  0  0  0  0  0  0  0
    9.6532  -14.0294   28.2193 C   0  0  0  0  0  0  0  0  0  0  0  0
    9.9285  -14.4422   29.5128 C   0  0  0  0  0  0  0  0  0  0  0  0
    6.5136  -14.4466   25.7607 O   0  0  0  0  0  0  0  0  0  0  0  0
  2  1  1  6
  3  2  1  0
  4  3  1  0
  5  4  2  0
  6  2  1  0
  7  6  2  0
  8  4  1  0
  9  6  1  0
 10  9  1  0
 10 11  1  6
 11 12  1  0
 13 22  1  0
 13 10  1  0
 14 13  2  0
 16 15  1  0
 17 16  2  0
 18 17  1  0
 19 25  1  0
 19 18  2  0
 20 19  1  0
 21 23  1  0
 21 20  1  1
 21 22  1  0
 23 24  1  0
 25 26  2  0
 26 16  1  0
 27 23  2  0
M  END
$$$$
