DCY.pdb
     RDKit          3D

 27 27  0  0  1  0  0  0  0  0999 V2000
   11.3281  -18.3827   19.8203 N   0  0  0  0  0  0  0  0  0  0  0  0
   10.8271  -18.3917   21.1687 C   0  0  1  0  0  0  0  0  0  0  0  0
   11.7959  -18.9678   22.1477 C   0  0  0  0  0  0  0  0  0  0  0  0
   12.2633  -20.3288   21.7820 C   0  0  0  0  0  0  0  0  0  0  0  0
   11.9637  -20.8953   20.7046 O   0  0  0  0  0  0  0  0  0  0  0  0
   10.3463  -17.0682   21.6040 C   0  0  0  0  0  0  0  0  0  0  0  0
   11.1468  -16.1639   22.0191 O   0  0  0  0  0  0  0  0  0  0  0  0
   13.0869  -21.0626   22.6544 O   0  0  0  0  0  0  0  0  0  0  0  0
    8.9724  -16.6871   21.6027 N   0  0  0  0  0  0  0  0  0  0  0  0
    8.5065  -15.3866   22.0371 C   0  0  1  0  0  0  0  0  0  0  0  0
    7.3839  -14.9487   21.1675 C   0  0  0  0  0  0  0  0  0  0  0  0
    6.9280  -13.2500   21.6004 S   0  0  0  0  0  0  0  0  0  0  0  0
    8.1591  -15.3892   23.4824 C   0  0  0  0  0  0  0  0  0  0  0  0
    8.4031  -16.4331   24.1352 O   0  0  0  0  0  0  0  0  0  0  0  0
   10.9921  -16.4461   30.6600 O   0  0  0  0  0  0  0  0  0  0  0  0
   10.5874  -15.8370   29.4713 C   0  0  0  0  0  0  0  0  0  0  0  0
   10.5802  -16.5394   28.2856 C   0  0  0  0  0  0  0  0  0  0  0  0
   10.1745  -15.9299   27.0925 C   0  0  0  0  0  0  0  0  0  0  0  0
    9.7715  -14.6201   27.0575 C   0  0  0  0  0  0  0  0  0  0  0  0
    9.3402  -13.9576   25.8191 C   0  0  0  0  0  0  0  0  0  0  0  0
    7.8555  -14.0447   25.5540 C   0  0  2  0  0  0  0  0  0  0  0  0
    7.5798  -14.3004   24.1493 N   0  0  0  0  0  0  0  0  0  0  0  0
    7.1389  -12.8343   26.0324 C   0  0  0  0  0  0  0  0  0  0  0  0
    7.0030  -11.6919   25.2570 O   0  0  0  0  0  0  0  0  0  0  0  0
    9.7806  -13.9214   28.2471 C   0  0  0  0  0  0  0  0  0  0  0  0
   10.1812  -14.5201   29.4305 C   0  0  0  0  0  0  0  0  0  0  0  0
    6.6435  -12.8543   27.1766 O   0  0  0  0  0  0  0  0  0  0  0  0
  2  1  1  6
  3  2  1  0
  4  3  1  0
  5  4  2  0
  6  2  1  0
  7  6  2  0
  8  4  1  0
  9  6  1  0
 10  9  1  0
 10 11  1  6
 11 12  1  0
 13 22  1  0
 13 10  1  0
 14 13  2  0
 16 15  1  0
 17 16  2  0
 18 17  1  0
 19 25  1  0
 19 18  2  0
 20 19  1  0
 21 23  1  0
 21 20  1  6
 21 22  1  0
 23 24  1  0
 25 26  2  0
 26 16  1  0
 27 23  2  0
M  END
$$$$
