SRN.pdb
     RDKit          3D

 26 25  0  0  1  0  0  0  0  0999 V2000
    9.8768  -21.1673   24.7875 O   0  0  0  0  0  0  0  0  0  0  0  0
    9.0266  -21.1538   23.7056 C   0  0  0  0  0  0  0  0  0  0  0  0
    9.5976  -20.4967   22.4858 C   0  0  2  0  0  0  0  0  0  0  0  0
   10.5749  -21.3813   21.8972 N   0  0  0  0  0  0  0  0  0  0  0  0
   10.1762  -19.1747   22.7358 C   0  0  0  0  0  0  0  0  0  0  0  0
   11.3960  -18.9845   22.4962 O   0  0  0  0  0  0  0  0  0  0  0  0
    7.4370  -11.8308   20.2985 N   0  0  0  0  0  0  0  0  0  0  0  0
    7.7984  -12.9453   19.4968 C   0  0  0  0  0  0  0  0  0  0  0  0
    7.7989  -12.8842   18.1986 N   0  0  0  0  0  0  0  0  0  0  0  0
    8.1711  -14.1666   20.1411 N   0  0  0  0  0  0  0  0  0  0  0  0
    9.5202  -14.3919   20.5858 C   0  0  0  0  0  0  0  0  0  0  0  0
    9.6726  -15.7494   21.2220 C   0  0  0  0  0  0  0  0  0  0  0  0
    9.3362  -15.6657   22.6910 C   0  0  0  0  0  0  0  0  0  0  0  0
   10.0544  -16.7704   23.4685 C   0  0  2  0  0  0  0  0  0  0  0  0
    9.4501  -18.0617   23.2404 N   0  0  0  0  0  0  0  0  0  0  0  0
   10.0143  -16.3760   24.8946 C   0  0  0  0  0  0  0  0  0  0  0  0
    8.9067  -16.3955   25.4990 O   0  0  0  0  0  0  0  0  0  0  0  0
    8.0953  -13.7136   17.6397 N   0  0  0  0  0  0  0  0  0  0  0  0
    8.8578  -13.4315   29.2832 C   0  0  0  0  0  0  0  0  0  0  0  0
    9.8923  -14.2268   28.7111 O   0  0  0  0  0  0  0  0  0  0  0  0
   10.7672  -14.6395   29.4984 C   0  0  0  0  0  0  0  0  0  0  0  0
    9.9584  -14.5619   27.2834 C   0  0  2  0  0  0  0  0  0  0  0  0
   11.0396  -15.5517   27.0369 N   0  0  0  0  0  0  0  0  0  0  0  0
   11.1295  -15.9721   25.6500 C   0  0  0  0  0  0  0  0  0  0  0  0
   10.6965  -16.7960   27.7958 O   0  0  0  0  0  0  0  0  0  0  0  0
    9.6389  -17.4283   27.7306 O   0  0  0  0  0  0  0  0  0  0  0  0
  2  1  1  0
  3  2  1  0
  3  4  1  1
  5  3  1  0
  5  6  2  0
  7  8  1  0
  8 10  1  0
  8  9  2  0
 10 11  1  0
 11 12  1  0
 12 13  1  0
 14 13  1  6
 14 15  1  0
 15  5  1  0
 16 14  1  0
 17 16  2  0
 18 19  1  0
 19 20  2  0
 19 21  1  0
 22 21  1  6
 22 23  1  0
 22 24  1  0
 23 16  1  0
 24 26  1  0
 25 24  2  0
M  END
$$$$
