SRN.pdb
     RDKit          3D

 26 25  0  0  1  0  0  0  0  0999 V2000
    8.0061  -22.7799   19.2025 O   0  0  0  0  0  0  0  0  0  0  0  0
    6.8199  -22.6011   18.5281 C   0  0  0  0  0  0  0  0  0  0  0  0
    6.1600  -21.2812   18.7889 C   0  0  2  0  0  0  0  0  0  0  0  0
    6.7913  -20.2767   17.9663 N   0  0  0  0  0  0  0  0  0  0  0  0
    6.1655  -20.8791   20.1972 C   0  0  0  0  0  0  0  0  0  0  0  0
    6.8739  -19.9028   20.5529 O   0  0  0  0  0  0  0  0  0  0  0  0
    0.4433  -24.4124   25.4512 N   0  0  0  0  0  0  0  0  0  0  0  0
    1.5812  -25.2392   25.2587 C   0  0  0  0  0  0  0  0  0  0  0  0
    1.6019  -26.4785   25.6498 N   0  0  0  0  0  0  0  0  0  0  0  0
    2.7338  -24.6876   24.6162 N   0  0  0  0  0  0  0  0  0  0  0  0
    2.8187  -23.2833   24.3173 C   0  0  0  0  0  0  0  0  0  0  0  0
    4.1213  -22.9402   23.6418 C   0  0  0  0  0  0  0  0  0  0  0  0
    4.1659  -21.4622   23.3391 C   0  0  0  0  0  0  0  0  0  0  0  0
    5.4580  -21.1056   22.6015 C   0  0  2  0  0  0  0  0  0  0  0  0
    5.4147  -21.5210   21.2194 N   0  0  0  0  0  0  0  0  0  0  0  0
    6.5610  -21.7521   23.3475 C   0  0  0  0  0  0  0  0  0  0  0  0
    6.9540  -22.8941   22.9816 O   0  0  0  0  0  0  0  0  0  0  0  0
    2.4127  -27.0870   25.4044 N   0  0  0  0  0  0  0  0  0  0  0  0
   10.7728  -22.6842   26.1981 C   0  0  0  0  0  0  0  0  0  0  0  0
   10.8200  -21.4984   25.4097 O   0  0  0  0  0  0  0  0  0  0  0  0
   11.9478  -20.9914   25.2467 C   0  0  0  0  0  0  0  0  0  0  0  0
    9.6323  -20.8801   24.8080 C   0  0  2  0  0  0  0  0  0  0  0  0
    8.4410  -21.7444   25.0165 N   0  0  0  0  0  0  0  0  0  0  0  0
    7.2226  -21.1901   24.4538 C   0  0  0  0  0  0  0  0  0  0  0  0
    8.1868  -21.8177   26.4902 O   0  0  0  0  0  0  0  0  0  0  0  0
    7.2581  -21.2843   27.1031 O   0  0  0  0  0  0  0  0  0  0  0  0
  2  1  1  0
  3  2  1  0
  3  4  1  6
  5  3  1  0
  5  6  2  0
  7  8  1  0
  8 10  1  0
  8  9  2  0
 10 11  1  0
 11 12  1  0
 12 13  1  0
 14 13  1  1
 14 15  1  0
 15  5  1  0
 16 14  1  0
 17 16  2  0
 18 19  1  0
 19 20  2  0
 19 21  1  0
 22 21  1  6
 22 23  1  0
 22 24  1  0
 23 16  1  0
 24 26  1  0
 25 24  2  0
M  END
$$$$
