SRN.pdb
     RDKit          3D

 26 25  0  0  1  0  0  0  0  0999 V2000
   14.1299  -17.0335   16.0340 O   0  0  0  0  0  0  0  0  0  0  0  0
   13.9959  -16.6360   17.3447 C   0  0  0  0  0  0  0  0  0  0  0  0
   13.9378  -15.1502   17.5313 C   0  0  2  0  0  0  0  0  0  0  0  0
   15.2449  -14.5981   17.2650 N   0  0  0  0  0  0  0  0  0  0  0  0
   13.4554  -14.7327   18.8496 C   0  0  0  0  0  0  0  0  0  0  0  0
   14.2902  -14.4733   19.7536 O   0  0  0  0  0  0  0  0  0  0  0  0
    8.0558  -15.2480   17.1265 N   0  0  0  0  0  0  0  0  0  0  0  0
    7.9903  -13.8303   17.1630 C   0  0  0  0  0  0  0  0  0  0  0  0
    8.0044  -13.1154   16.0776 N   0  0  0  0  0  0  0  0  0  0  0  0
    7.9068  -13.1761   18.4321 N   0  0  0  0  0  0  0  0  0  0  0  0
    7.9375  -13.9256   19.6593 C   0  0  0  0  0  0  0  0  0  0  0  0
    9.2656  -14.6099   19.8555 C   0  0  0  0  0  0  0  0  0  0  0  0
   10.2329  -13.6650   20.5259 C   0  0  0  0  0  0  0  0  0  0  0  0
   11.6437  -14.2570   20.5300 C   0  0  2  0  0  0  0  0  0  0  0  0
   12.0839  -14.5941   19.1969 N   0  0  0  0  0  0  0  0  0  0  0  0
   11.6027  -15.4370   21.4227 C   0  0  0  0  0  0  0  0  0  0  0  0
   11.1563  -16.5266   20.9687 O   0  0  0  0  0  0  0  0  0  0  0  0
    7.8680  -12.0829   16.1341 N   0  0  0  0  0  0  0  0  0  0  0  0
   15.4057  -15.1995   23.8004 C   0  0  0  0  0  0  0  0  0  0  0  0
   14.6083  -16.3692   23.6387 O   0  0  0  0  0  0  0  0  0  0  0  0
   14.9960  -17.1837   22.7774 C   0  0  0  0  0  0  0  0  0  0  0  0
   13.3950  -16.6348   24.4212 C   0  0  2  0  0  0  0  0  0  0  0  0
   12.2054  -16.6675   23.5305 N   0  0  0  0  0  0  0  0  0  0  0  0
   12.0276  -15.4477   22.7631 C   0  0  0  0  0  0  0  0  0  0  0  0
   10.9902  -16.7566   24.4006 O   0  0  0  0  0  0  0  0  0  0  0  0
   10.0500  -15.9580   24.4337 O   0  0  0  0  0  0  0  0  0  0  0  0
  2  1  1  0
  3  2  1  0
  3  4  1  1
  5  3  1  0
  5  6  2  0
  7  8  1  0
  8 10  1  0
  8  9  2  0
 10 11  1  0
 11 12  1  0
 12 13  1  0
 14 13  1  6
 14 15  1  0
 15  5  1  0
 16 14  1  0
 17 16  2  0
 18 19  1  0
 19 20  2  0
 19 21  1  0
 22 21  1  6
 22 23  1  0
 22 24  1  0
 23 16  1  0
 24 26  1  0
 25 24  2  0
M  END
$$$$
