SRN.pdb
     RDKit          3D

 26 25  0  0  1  0  0  0  0  0999 V2000
    5.3920  -19.9379   23.7028 O   0  0  0  0  0  0  0  0  0  0  0  0
    4.4069  -19.1047   23.2244 C   0  0  0  0  0  0  0  0  0  0  0  0
    4.5385  -18.7731   21.7689 C   0  0  2  0  0  0  0  0  0  0  0  0
    4.4680  -19.9970   21.0064 N   0  0  0  0  0  0  0  0  0  0  0  0
    5.7504  -18.0214   21.4353 C   0  0  0  0  0  0  0  0  0  0  0  0
    6.7423  -18.6352   20.9654 O   0  0  0  0  0  0  0  0  0  0  0  0
    7.4334  -13.9339   17.3507 N   0  0  0  0  0  0  0  0  0  0  0  0
    8.7966  -13.7315   17.6915 C   0  0  0  0  0  0  0  0  0  0  0  0
    9.7630  -14.1890   16.9526 N   0  0  0  0  0  0  0  0  0  0  0  0
    9.1091  -13.0033   18.8821 N   0  0  0  0  0  0  0  0  0  0  0  0
    8.1082  -12.7484   19.8831 C   0  0  0  0  0  0  0  0  0  0  0  0
    8.2358  -13.6981   21.0461 C   0  0  0  0  0  0  0  0  0  0  0  0
    6.9219  -14.4045   21.2753 C   0  0  0  0  0  0  0  0  0  0  0  0
    7.1294  -15.9196   21.3211 C   0  0  2  0  0  0  0  0  0  0  0  0
    5.8979  -16.6178   21.6048 N   0  0  0  0  0  0  0  0  0  0  0  0
    8.1666  -16.1718   22.3465 C   0  0  0  0  0  0  0  0  0  0  0  0
    7.9295  -15.8469   23.5426 O   0  0  0  0  0  0  0  0  0  0  0  0
   10.7532  -13.9789   17.2041 N   0  0  0  0  0  0  0  0  0  0  0  0
   12.2218  -19.8121   24.7854 C   0  0  0  0  0  0  0  0  0  0  0  0
   11.9639  -18.5640   24.1485 O   0  0  0  0  0  0  0  0  0  0  0  0
   12.6466  -17.5961   24.5394 C   0  0  0  0  0  0  0  0  0  0  0  0
   10.9615  -18.3883   23.0906 C   0  0  1  0  0  0  0  0  0  0  0  0
   10.3998  -17.0128   23.1376 N   0  0  0  0  0  0  0  0  0  0  0  0
    9.4214  -16.7551   22.0961 C   0  0  0  0  0  0  0  0  0  0  0  0
   11.5185  -16.0568   22.8612 O   0  0  0  0  0  0  0  0  0  0  0  0
   12.0852  -15.3315   23.6830 O   0  0  0  0  0  0  0  0  0  0  0  0
  2  1  1  0
  3  2  1  0
  3  4  1  6
  5  3  1  0
  5  6  2  0
  7  8  1  0
  8 10  1  0
  8  9  2  0
 10 11  1  0
 11 12  1  0
 12 13  1  0
 14 13  1  1
 14 15  1  0
 15  5  1  0
 16 14  1  0
 17 16  2  0
 18 19  1  0
 19 20  2  0
 19 21  1  0
 22 21  1  1
 22 23  1  0
 22 24  1  0
 23 16  1  0
 24 26  1  0
 25 24  2  0
M  END
$$$$
