SRN.pdb
     RDKit          3D

 26 25  0  0  1  0  0  0  0  0999 V2000
   10.9463  -20.5216   17.5069 O   0  0  0  0  0  0  0  0  0  0  0  0
   10.2447  -19.5886   16.7782 C   0  0  0  0  0  0  0  0  0  0  0  0
   10.8594  -18.2218   16.7795 C   0  0  2  0  0  0  0  0  0  0  0  0
   12.1680  -18.3014   16.1751 N   0  0  0  0  0  0  0  0  0  0  0  0
   10.9351  -17.6029   18.1047 C   0  0  0  0  0  0  0  0  0  0  0  0
   12.0303  -17.6105   18.7228 O   0  0  0  0  0  0  0  0  0  0  0  0
    8.3183  -12.6654   17.3137 N   0  0  0  0  0  0  0  0  0  0  0  0
    7.3843  -13.7346   17.3045 C   0  0  0  0  0  0  0  0  0  0  0  0
    6.9838  -14.2851   16.1974 N   0  0  0  0  0  0  0  0  0  0  0  0
    6.8733  -14.2148   18.5510 N   0  0  0  0  0  0  0  0  0  0  0  0
    7.3828  -13.7237   19.8031 C   0  0  0  0  0  0  0  0  0  0  0  0
    8.7588  -14.2667   20.0906 C   0  0  0  0  0  0  0  0  0  0  0  0
    8.6595  -15.7126   20.5122 C   0  0  0  0  0  0  0  0  0  0  0  0
    9.9252  -16.4744   20.1144 C   0  0  2  0  0  0  0  0  0  0  0  0
    9.8414  -16.9786   18.7641 N   0  0  0  0  0  0  0  0  0  0  0  0
   10.0946  -17.5578   21.1086 C   0  0  0  0  0  0  0  0  0  0  0  0
    9.5154  -18.6611   20.9089 O   0  0  0  0  0  0  0  0  0  0  0  0
    6.2869  -15.0607   16.2255 N   0  0  0  0  0  0  0  0  0  0  0  0
   12.4454  -21.6379   23.7352 C   0  0  0  0  0  0  0  0  0  0  0  0
   12.6743  -20.2519   23.9732 O   0  0  0  0  0  0  0  0  0  0  0  0
   13.0916  -19.9511   25.1094 C   0  0  0  0  0  0  0  0  0  0  0  0
   12.4440  -19.2100   22.9651 C   0  0  1  0  0  0  0  0  0  0  0  0
   11.1098  -18.5862   23.1658 N   0  0  0  0  0  0  0  0  0  0  0  0
   10.8624  -17.4605   22.2827 C   0  0  0  0  0  0  0  0  0  0  0  0
   11.0835  -18.0067   24.5461 O   0  0  0  0  0  0  0  0  0  0  0  0
   11.2294  -16.8190   24.8473 O   0  0  0  0  0  0  0  0  0  0  0  0
  2  1  1  0
  3  2  1  0
  3  4  1  1
  5  3  1  0
  5  6  2  0
  7  8  1  0
  8 10  1  0
  8  9  2  0
 10 11  1  0
 11 12  1  0
 12 13  1  0
 14 13  1  1
 14 15  1  0
 15  5  1  0
 16 14  1  0
 17 16  2  0
 18 19  1  0
 19 20  2  0
 19 21  1  0
 22 21  1  6
 22 23  1  0
 22 24  1  0
 23 16  1  0
 24 26  1  0
 25 24  2  0
M  END
$$$$
