SRN.pdb
     RDKit          3D

 26 25  0  0  1  0  0  0  0  0999 V2000
    9.8022  -21.8158   20.1386 O   0  0  0  0  0  0  0  0  0  0  0  0
   10.4942  -20.6677   20.4496 C   0  0  0  0  0  0  0  0  0  0  0  0
   10.7486  -19.7693   19.2775 C   0  0  2  0  0  0  0  0  0  0  0  0
   11.5319  -20.4901   18.3024 N   0  0  0  0  0  0  0  0  0  0  0  0
   11.3917  -18.5006   19.6266 C   0  0  0  0  0  0  0  0  0  0  0  0
   12.6174  -18.3494   19.3895 O   0  0  0  0  0  0  0  0  0  0  0  0
    8.0619  -11.4010   20.5137 N   0  0  0  0  0  0  0  0  0  0  0  0
    7.4952  -12.6993   20.6077 C   0  0  0  0  0  0  0  0  0  0  0  0
    6.5338  -12.9687   21.4398 N   0  0  0  0  0  0  0  0  0  0  0  0
    8.0003  -13.7353   19.7610 N   0  0  0  0  0  0  0  0  0  0  0  0
    9.1491  -13.5181   18.9232 C   0  0  0  0  0  0  0  0  0  0  0  0
   10.1173  -14.6700   19.0040 C   0  0  0  0  0  0  0  0  0  0  0  0
   10.4414  -14.9645   20.4483 C   0  0  0  0  0  0  0  0  0  0  0  0
   11.3904  -16.1602   20.5510 C   0  0  2  0  0  0  0  0  0  0  0  0
   10.7234  -17.3991   20.2272 N   0  0  0  0  0  0  0  0  0  0  0  0
   11.9262  -16.1552   21.9308 C   0  0  0  0  0  0  0  0  0  0  0  0
   11.1160  -16.2068   22.8970 O   0  0  0  0  0  0  0  0  0  0  0  0
    6.1558  -13.9390   21.4999 N   0  0  0  0  0  0  0  0  0  0  0  0
   11.8169  -18.8577   25.2322 C   0  0  0  0  0  0  0  0  0  0  0  0
   13.1206  -18.3119   25.0515 O   0  0  0  0  0  0  0  0  0  0  0  0
   13.7703  -18.0851   26.0917 C   0  0  0  0  0  0  0  0  0  0  0  0
   13.6992  -18.0200   23.7344 C   0  0  2  0  0  0  0  0  0  0  0  0
   13.8177  -16.5513   23.5387 N   0  0  0  0  0  0  0  0  0  0  0  0
   13.2909  -16.0964   22.2644 C   0  0  0  0  0  0  0  0  0  0  0  0
   15.2764  -16.2163   23.4949 O   0  0  0  0  0  0  0  0  0  0  0  0
   15.9222  -15.8739   22.5007 O   0  0  0  0  0  0  0  0  0  0  0  0
  2  1  1  0
  3  2  1  0
  3  4  1  6
  5  3  1  0
  5  6  2  0
  7  8  1  0
  8 10  1  0
  8  9  2  0
 10 11  1  0
 11 12  1  0
 12 13  1  0
 14 13  1  1
 14 15  1  0
 15  5  1  0
 16 14  1  0
 17 16  2  0
 18 19  1  0
 19 20  2  0
 19 21  1  0
 22 21  1  1
 22 23  1  0
 22 24  1  0
 23 16  1  0
 24 26  1  0
 25 24  2  0
M  END
$$$$
