SRN.pdb
     RDKit          3D

 26 25  0  0  1  0  0  0  0  0999 V2000
    7.8286  -17.8598   28.3531 O   0  0  0  0  0  0  0  0  0  0  0  0
    8.2967  -17.8833   27.0592 C   0  0  0  0  0  0  0  0  0  0  0  0
    7.2774  -18.3094   26.0467 C   0  0  2  0  0  0  0  0  0  0  0  0
    7.0688  -19.7326   26.1695 N   0  0  0  0  0  0  0  0  0  0  0  0
    7.6192  -17.9506   24.6684 C   0  0  0  0  0  0  0  0  0  0  0  0
    8.2061  -18.7940   23.9434 O   0  0  0  0  0  0  0  0  0  0  0  0
    9.9558  -13.6156   19.6452 N   0  0  0  0  0  0  0  0  0  0  0  0
    8.9699  -13.2959   18.6749 C   0  0  0  0  0  0  0  0  0  0  0  0
    9.2562  -13.2086   17.4102 N   0  0  0  0  0  0  0  0  0  0  0  0
    7.6264  -13.0645   19.1071 N   0  0  0  0  0  0  0  0  0  0  0  0
    7.2177  -13.3547   20.4552 C   0  0  0  0  0  0  0  0  0  0  0  0
    7.9152  -14.5776   20.9927 C   0  0  0  0  0  0  0  0  0  0  0  0
    7.3348  -14.9477   22.3359 C   0  0  0  0  0  0  0  0  0  0  0  0
    7.9635  -16.2435   22.8521 C   0  0  2  0  0  0  0  0  0  0  0  0
    7.3328  -16.6932   24.0705 N   0  0  0  0  0  0  0  0  0  0  0  0
    9.4062  -15.9676   23.0356 C   0  0  0  0  0  0  0  0  0  0  0  0
    9.7661  -15.2301   23.9943 O   0  0  0  0  0  0  0  0  0  0  0  0
    8.5265  -12.8975   16.7329 N   0  0  0  0  0  0  0  0  0  0  0  0
   12.1142  -18.7935   25.0212 C   0  0  0  0  0  0  0  0  0  0  0  0
   12.3527  -17.5325   24.4023 O   0  0  0  0  0  0  0  0  0  0  0  0
   12.3516  -16.5404   25.1582 C   0  0  0  0  0  0  0  0  0  0  0  0
   12.5896  -17.3706   22.9627 C   0  0  2  0  0  0  0  0  0  0  0  0
   11.8396  -16.1954   22.4469 N   0  0  0  0  0  0  0  0  0  0  0  0
   10.4324  -16.4678   22.2147 C   0  0  0  0  0  0  0  0  0  0  0  0
   12.3954  -15.8597   21.0978 O   0  0  0  0  0  0  0  0  0  0  0  0
   11.7921  -15.9055   20.0223 O   0  0  0  0  0  0  0  0  0  0  0  0
  2  1  1  0
  3  2  1  0
  3  4  1  6
  5  3  1  0
  5  6  2  0
  7  8  1  0
  8 10  1  0
  8  9  2  0
 10 11  1  0
 11 12  1  0
 12 13  1  0
 14 13  1  1
 14 15  1  0
 15  5  1  0
 16 14  1  0
 17 16  2  0
 18 19  1  0
 19 20  2  0
 19 21  1  0
 22 21  1  1
 22 23  1  0
 22 24  1  0
 23 16  1  0
 24 26  1  0
 25 24  2  0
M  END
$$$$
