ARH.pdb
     RDKit          3D

 27 27  0  0  1  0  0  0  0  0999 V2000
    8.1528  -12.4262   19.0277 C   0  0  0  0  0  0  0  0  0  0  0  0
    7.9670  -13.5807   18.0840 C   0  0  2  0  0  0  0  0  0  0  0  0
    6.5684  -13.6743   17.7129 N   0  0  0  0  0  0  0  0  0  0  0  0
    8.4418  -14.8486   18.6968 C   0  0  0  0  0  0  0  0  0  0  0  0
    7.6844  -15.4607   19.4835 O   0  0  0  0  0  0  0  0  0  0  0  0
   12.6186  -22.8320   18.3295 N   0  0  0  0  0  0  0  0  0  0  0  0
   12.2597  -21.5131   17.9016 C   0  0  0  0  0  0  0  0  0  0  0  0
   11.1078  -21.3219   17.3547 N   0  0  0  0  0  0  0  0  0  0  0  0
   13.1451  -20.4320   18.0708 N   0  0  0  0  0  0  0  0  0  0  0  0
   12.8255  -19.0869   17.6543 C   0  0  0  0  0  0  0  0  0  0  0  0
   11.7153  -18.5676   18.4896 C   0  0  0  0  0  0  0  0  0  0  0  0
   11.2663  -17.1782   18.1471 C   0  0  0  0  0  0  0  0  0  0  0  0
   10.1734  -16.6548   19.0229 C   0  0  2  0  0  0  0  0  0  0  0  0
    9.7185  -15.3967   18.4285 N   0  0  0  0  0  0  0  0  0  0  0  0
   10.6815  -16.3274   20.3863 C   0  0  0  0  0  0  0  0  0  0  0  0
   11.4583  -15.3369   20.5686 O   0  0  0  0  0  0  0  0  0  0  0  0
   10.4442  -22.1133   17.2429 N   0  0  0  0  0  0  0  0  0  0  0  0
   10.3390  -17.0785   21.5275 C   0  0  2  0  0  0  0  0  0  0  0  0
   10.7144  -16.7543   22.8927 C   0  0  0  0  0  0  0  0  0  0  0  0
    9.5346  -16.5977   23.7812 C   0  0  0  0  0  0  0  0  0  0  0  0
    8.6827  -15.4520   23.4162 C   0  0  0  0  0  0  0  0  0  0  0  0
    7.3221  -15.4453   23.1725 N   0  0  0  0  0  0  0  0  0  0  0  0
    6.9230  -14.2079   22.8484 C   0  0  0  0  0  0  0  0  0  0  0  0
    7.9975  -13.4149   22.8773 N   0  0  0  0  0  0  0  0  0  0  0  0
    9.0701  -14.1571   23.2200 C   0  0  0  0  0  0  0  0  0  0  0  0
   11.6050  -17.8353   23.3547 O   0  0  0  0  0  0  0  0  0  0  0  0
   11.8589  -18.8736   22.6528 O   0  0  0  0  0  0  0  0  0  0  0  0
  2  1  1  1
  3  2  1  0
  4  5  2  0
  4  2  1  0
  7  9  1  0
  7  6  1  0
  8  7  2  0
 10  9  1  0
 11 10  1  0
 11 12  1  0
 13 12  1  6
 13 14  1  0
 14  4  1  0
 15 13  1  0
 16 15  2  0
 17 15  1  0
 18 25  1  0
 18 17  1  0
 18 19  1  6
 20 19  1  0
 20 24  1  0
 21 20  2  0
 22 21  1  0
 22 23  1  0
 23 24  2  0
 25 27  1  0
 26 25  2  0
M  END
$$$$
