ARH.pdb
     RDKit          3D

 27 27  0  0  1  0  0  0  0  0999 V2000
    9.2174  -21.4313   19.6051 C   0  0  0  0  0  0  0  0  0  0  0  0
    8.6261  -20.2521   18.8855 C   0  0  2  0  0  0  0  0  0  0  0  0
    9.1143  -20.2316   17.5202 N   0  0  0  0  0  0  0  0  0  0  0  0
    8.9529  -18.9837   19.5875 C   0  0  0  0  0  0  0  0  0  0  0  0
   10.1164  -18.5291   19.5045 O   0  0  0  0  0  0  0  0  0  0  0  0
    7.4851  -12.4469   18.3153 N   0  0  0  0  0  0  0  0  0  0  0  0
    8.4038  -12.7710   19.3652 C   0  0  0  0  0  0  0  0  0  0  0  0
    9.4756  -12.0673   19.5015 N   0  0  0  0  0  0  0  0  0  0  0  0
    8.1504  -13.8418   20.2430 N   0  0  0  0  0  0  0  0  0  0  0  0
    7.0811  -13.8216   21.2132 C   0  0  0  0  0  0  0  0  0  0  0  0
    7.1728  -15.0312   22.0665 C   0  0  0  0  0  0  0  0  0  0  0  0
    7.0294  -16.3315   21.3331 C   0  0  0  0  0  0  0  0  0  0  0  0
    8.3272  -17.0078   21.0268 C   0  0  2  0  0  0  0  0  0  0  0  0
    8.0020  -18.2640   20.3491 N   0  0  0  0  0  0  0  0  0  0  0  0
    9.0577  -17.3696   22.2757 C   0  0  0  0  0  0  0  0  0  0  0  0
    8.6483  -18.3204   23.0145 O   0  0  0  0  0  0  0  0  0  0  0  0
   10.2180  -12.3680   20.1630 N   0  0  0  0  0  0  0  0  0  0  0  0
   10.2185  -16.6949   22.7017 C   0  0  2  0  0  0  0  0  0  0  0  0
   10.9396  -16.9567   23.9350 C   0  0  0  0  0  0  0  0  0  0  0  0
   12.2875  -16.3330   23.9449 C   0  0  0  0  0  0  0  0  0  0  0  0
   13.2424  -17.0032   23.0446 C   0  0  0  0  0  0  0  0  0  0  0  0
   13.0664  -18.1778   22.3377 N   0  0  0  0  0  0  0  0  0  0  0  0
   14.1788  -18.4663   21.6485 C   0  0  0  0  0  0  0  0  0  0  0  0
   15.0700  -17.5026   21.8957 N   0  0  0  0  0  0  0  0  0  0  0  0
   14.5145  -16.6101   22.7405 C   0  0  0  0  0  0  0  0  0  0  0  0
   10.0965  -16.4500   25.0339 O   0  0  0  0  0  0  0  0  0  0  0  0
    9.0408  -15.7561   24.8359 O   0  0  0  0  0  0  0  0  0  0  0  0
  2  1  1  1
  3  2  1  0
  4  5  2  0
  4  2  1  0
  7  9  1  0
  7  6  1  0
  8  7  2  0
 10  9  1  0
 11 10  1  0
 11 12  1  0
 13 12  1  1
 13 14  1  0
 14  4  1  0
 15 13  1  0
 16 15  2  0
 17 15  1  0
 18 25  1  0
 18 17  1  0
 18 19  1  6
 20 19  1  0
 20 24  1  0
 21 20  2  0
 22 21  1  0
 22 23  1  0
 23 24  2  0
 25 27  1  0
 26 25  2  0
M  END
$$$$
