ARH.pdb
     RDKit          3D

 27 27  0  0  1  0  0  0  0  0999 V2000
    6.6718  -13.6186   17.7998 C   0  0  0  0  0  0  0  0  0  0  0  0
    7.6866  -12.9691   18.6976 C   0  0  2  0  0  0  0  0  0  0  0  0
    8.5131  -12.0716   17.9140 N   0  0  0  0  0  0  0  0  0  0  0  0
    8.5159  -13.9913   19.3877 C   0  0  0  0  0  0  0  0  0  0  0  0
    7.9438  -14.9034   20.0262 O   0  0  0  0  0  0  0  0  0  0  0  0
   16.2004  -15.2288   17.0103 N   0  0  0  0  0  0  0  0  0  0  0  0
   16.1047  -14.5923   18.2899 C   0  0  0  0  0  0  0  0  0  0  0  0
   17.1154  -13.9297   18.7391 N   0  0  0  0  0  0  0  0  0  0  0  0
   14.9272  -14.6824   19.0560 N   0  0  0  0  0  0  0  0  0  0  0  0
   14.3993  -15.9384   19.5340 C   0  0  0  0  0  0  0  0  0  0  0  0
   13.1392  -15.6883   20.2751 C   0  0  0  0  0  0  0  0  0  0  0  0
   12.1323  -14.8534   19.5414 C   0  0  0  0  0  0  0  0  0  0  0  0
   10.7420  -14.9557   20.0818 C   0  0  2  0  0  0  0  0  0  0  0  0
    9.9305  -13.9783   19.3542 N   0  0  0  0  0  0  0  0  0  0  0  0
   10.6905  -14.5706   21.5216 C   0  0  0  0  0  0  0  0  0  0  0  0
   11.3361  -13.5606   21.9465 O   0  0  0  0  0  0  0  0  0  0  0  0
   17.0541  -13.4375   19.6519 N   0  0  0  0  0  0  0  0  0  0  0  0
    9.9407  -15.2866   22.4752 C   0  0  1  0  0  0  0  0  0  0  0  0
    9.5213  -14.7792   23.7699 C   0  0  0  0  0  0  0  0  0  0  0  0
    8.0637  -14.4988   23.8218 C   0  0  0  0  0  0  0  0  0  0  0  0
    7.6309  -13.9181   25.1051 C   0  0  0  0  0  0  0  0  0  0  0  0
    8.4028  -13.6375   26.2169 N   0  0  0  0  0  0  0  0  0  0  0  0
    7.6328  -13.1348   27.1916 C   0  0  0  0  0  0  0  0  0  0  0  0
    6.3793  -13.0851   26.7328 N   0  0  0  0  0  0  0  0  0  0  0  0
    6.3651  -13.5571   25.4696 C   0  0  0  0  0  0  0  0  0  0  0  0
    9.9180  -15.7890   24.7689 O   0  0  0  0  0  0  0  0  0  0  0  0
   10.1636  -17.0068   24.4656 O   0  0  0  0  0  0  0  0  0  0  0  0
  2  1  1  6
  3  2  1  0
  4  5  2  0
  4  2  1  0
  7  9  1  0
  7  6  1  0
  8  7  2  0
 10  9  1  0
 11 10  1  0
 11 12  1  0
 13 12  1  6
 13 14  1  0
 14  4  1  0
 15 13  1  0
 16 15  2  0
 17 15  1  0
 18 25  1  0
 18 17  1  0
 18 19  1  1
 20 19  1  0
 20 24  1  0
 21 20  2  0
 22 21  1  0
 22 23  1  0
 23 24  2  0
 25 27  1  0
 26 25  2  0
M  END
$$$$
