ARH.pdb
     RDKit          3D

 27 27  0  0  1  0  0  0  0  0999 V2000
   11.4387  -19.4140   18.6977 C   0  0  0  0  0  0  0  0  0  0  0  0
   11.2191  -17.9905   18.2695 C   0  0  2  0  0  0  0  0  0  0  0  0
   12.3773  -17.5304   17.5282 N   0  0  0  0  0  0  0  0  0  0  0  0
   10.9565  -17.1178   19.4434 C   0  0  0  0  0  0  0  0  0  0  0  0
   11.8999  -16.4485   19.9222 O   0  0  0  0  0  0  0  0  0  0  0  0
    7.5218  -15.0963   16.7353 N   0  0  0  0  0  0  0  0  0  0  0  0
    7.8661  -13.7889   17.2082 C   0  0  0  0  0  0  0  0  0  0  0  0
    8.6315  -13.0418   16.4881 N   0  0  0  0  0  0  0  0  0  0  0  0
    7.3810  -13.3152   18.4418 N   0  0  0  0  0  0  0  0  0  0  0  0
    7.8760  -13.7915   19.7118 C   0  0  0  0  0  0  0  0  0  0  0  0
    7.4317  -15.1919   19.9151 C   0  0  0  0  0  0  0  0  0  0  0  0
    7.9431  -15.8391   21.1677 C   0  0  0  0  0  0  0  0  0  0  0  0
    9.4148  -16.1024   21.1637 C   0  0  2  0  0  0  0  0  0  0  0  0
    9.6809  -17.0100   20.0463 N   0  0  0  0  0  0  0  0  0  0  0  0
    9.8420  -16.8112   22.4044 C   0  0  0  0  0  0  0  0  0  0  0  0
    9.0410  -17.5858   23.0175 O   0  0  0  0  0  0  0  0  0  0  0  0
    8.9801  -12.1371   16.8612 N   0  0  0  0  0  0  0  0  0  0  0  0
   11.1290  -16.6681   22.9586 C   0  0  2  0  0  0  0  0  0  0  0  0
   11.6110  -17.3402   24.1526 C   0  0  0  0  0  0  0  0  0  0  0  0
   13.0259  -17.0064   24.4567 C   0  0  0  0  0  0  0  0  0  0  0  0
   13.9679  -17.4870   23.4305 C   0  0  0  0  0  0  0  0  0  0  0  0
   13.6810  -17.9457   22.1585 N   0  0  0  0  0  0  0  0  0  0  0  0
   14.8119  -18.3121   21.5401 C   0  0  0  0  0  0  0  0  0  0  0  0
   15.8235  -18.1000   22.3862 N   0  0  0  0  0  0  0  0  0  0  0  0
   15.3249  -17.6002   23.5353 C   0  0  0  0  0  0  0  0  0  0  0  0
   10.7099  -16.9475   25.2521 O   0  0  0  0  0  0  0  0  0  0  0  0
   10.7777  -17.4593   26.4220 O   0  0  0  0  0  0  0  0  0  0  0  0
  2  1  1  1
  3  2  1  0
  4  5  2  0
  4  2  1  0
  7  9  1  0
  7  6  1  0
  8  7  2  0
 10  9  1  0
 11 10  1  0
 11 12  1  0
 13 12  1  1
 13 14  1  0
 14  4  1  0
 15 13  1  0
 16 15  2  0
 17 15  1  0
 18 25  1  0
 18 17  1  0
 18 19  1  6
 20 19  1  0
 20 24  1  0
 21 20  2  0
 22 21  1  0
 22 23  1  0
 23 24  2  0
 25 27  1  0
 26 25  2  0
M  END
$$$$
