ARH.pdb
     RDKit          3D

 27 27  0  0  1  0  0  0  0  0999 V2000
    8.3229  -12.1693   19.8632 C   0  0  0  0  0  0  0  0  0  0  0  0
    8.5341  -13.4743   19.1488 C   0  0  2  0  0  0  0  0  0  0  0  0
    7.6089  -13.5650   18.0359 N   0  0  0  0  0  0  0  0  0  0  0  0
    8.3640  -14.6215   20.0782 C   0  0  0  0  0  0  0  0  0  0  0  0
    7.2099  -15.0508   20.3038 O   0  0  0  0  0  0  0  0  0  0  0  0
    9.0921  -17.1973   15.9898 N   0  0  0  0  0  0  0  0  0  0  0  0
    9.8390  -18.0515   16.8638 C   0  0  0  0  0  0  0  0  0  0  0  0
   11.1255  -17.9675   16.8759 N   0  0  0  0  0  0  0  0  0  0  0  0
    9.1875  -18.9747   17.7033 N   0  0  0  0  0  0  0  0  0  0  0  0
    9.2776  -18.9213   19.1434 C   0  0  0  0  0  0  0  0  0  0  0  0
   10.0171  -17.6988   19.5416 C   0  0  0  0  0  0  0  0  0  0  0  0
   10.1586  -17.5027   21.0217 C   0  0  0  0  0  0  0  0  0  0  0  0
    9.2870  -16.4250   21.5824 C   0  0  2  0  0  0  0  0  0  0  0  0
    9.4547  -15.2525   20.7220 N   0  0  0  0  0  0  0  0  0  0  0  0
    9.7322  -16.0235   22.9479 C   0  0  0  0  0  0  0  0  0  0  0  0
   10.9233  -15.6269   23.1515 O   0  0  0  0  0  0  0  0  0  0  0  0
   11.6825  -18.5649   17.5178 N   0  0  0  0  0  0  0  0  0  0  0  0
    8.8791  -16.0588   24.0682 C   0  0  1  0  0  0  0  0  0  0  0  0
    9.2688  -15.7510   25.4332 C   0  0  0  0  0  0  0  0  0  0  0  0
    8.1066  -15.3924   26.2855 C   0  0  0  0  0  0  0  0  0  0  0  0
    7.5358  -14.0731   25.9613 C   0  0  0  0  0  0  0  0  0  0  0  0
    8.1076  -13.0560   25.2203 N   0  0  0  0  0  0  0  0  0  0  0  0
    7.2773  -12.0054   25.1710 C   0  0  0  0  0  0  0  0  0  0  0  0
    6.1810  -12.3224   25.8650 N   0  0  0  0  0  0  0  0  0  0  0  0
    6.3255  -13.5729   26.3490 C   0  0  0  0  0  0  0  0  0  0  0  0
    9.9773  -16.9374   25.9486 O   0  0  0  0  0  0  0  0  0  0  0  0
   10.6496  -16.9267   27.0364 O   0  0  0  0  0  0  0  0  0  0  0  0
  2  1  1  1
  3  2  1  0
  4  5  2  0
  4  2  1  0
  7  9  1  0
  7  6  1  0
  8  7  2  0
 10  9  1  0
 11 10  1  0
 11 12  1  0
 13 12  1  6
 13 14  1  0
 14  4  1  0
 15 13  1  0
 16 15  2  0
 17 15  1  0
 18 25  1  0
 18 17  1  0
 18 19  1  1
 20 19  1  0
 20 24  1  0
 21 20  2  0
 22 21  1  0
 22 23  1  0
 23 24  2  0
 25 27  1  0
 26 25  2  0
M  END
$$$$
