ARH.pdb
     RDKit          3D

 27 27  0  0  1  0  0  0  0  0999 V2000
    8.1059  -11.9672   20.0432 C   0  0  0  0  0  0  0  0  0  0  0  0
    8.3053  -13.3030   19.3846 C   0  0  2  0  0  0  0  0  0  0  0  0
    7.3582  -13.4451   18.2958 N   0  0  0  0  0  0  0  0  0  0  0  0
    8.1563  -14.4071   20.3681 C   0  0  0  0  0  0  0  0  0  0  0  0
    7.0280  -14.9250   20.5293 O   0  0  0  0  0  0  0  0  0  0  0  0
   12.7228  -21.2911   19.9693 N   0  0  0  0  0  0  0  0  0  0  0  0
   11.6075  -20.5794   19.4206 C   0  0  0  0  0  0  0  0  0  0  0  0
   11.2429  -20.8215   18.2078 N   0  0  0  0  0  0  0  0  0  0  0  0
   10.9109  -19.6255   20.1863 N   0  0  0  0  0  0  0  0  0  0  0  0
   11.2345  -19.3413   21.5645 C   0  0  0  0  0  0  0  0  0  0  0  0
   10.2436  -18.3827   22.1113 C   0  0  0  0  0  0  0  0  0  0  0  0
   10.2112  -17.0500   21.4242 C   0  0  0  0  0  0  0  0  0  0  0  0
    9.1455  -16.1288   21.9252 C   0  0  2  0  0  0  0  0  0  0  0  0
    9.2390  -14.9008   21.1338 N   0  0  0  0  0  0  0  0  0  0  0  0
    9.3856  -15.7441   23.3460 C   0  0  0  0  0  0  0  0  0  0  0  0
   10.3431  -14.9658   23.6544 O   0  0  0  0  0  0  0  0  0  0  0  0
   10.4357  -20.3156   17.7936 N   0  0  0  0  0  0  0  0  0  0  0  0
    8.5844  -16.2093   24.4069 C   0  0  2  0  0  0  0  0  0  0  0  0
    8.8194  -15.9488   25.8164 C   0  0  0  0  0  0  0  0  0  0  0  0
    7.5630  -15.6653   26.5559 C   0  0  0  0  0  0  0  0  0  0  0  0
    7.1086  -14.2709   26.4126 C   0  0  0  0  0  0  0  0  0  0  0  0
    7.8231  -13.1862   25.9399 N   0  0  0  0  0  0  0  0  0  0  0  0
    7.0625  -12.0839   25.9862 C   0  0  0  0  0  0  0  0  0  0  0  0
    5.8715  -12.4338   26.4793 N   0  0  0  0  0  0  0  0  0  0  0  0
    5.8869  -13.7566   26.7417 C   0  0  0  0  0  0  0  0  0  0  0  0
    9.5138  -17.1330   26.3555 O   0  0  0  0  0  0  0  0  0  0  0  0
    9.6865  -18.2045   25.6793 O   0  0  0  0  0  0  0  0  0  0  0  0
  2  1  1  1
  3  2  1  0
  4  5  2  0
  4  2  1  0
  7  9  1  0
  7  6  1  0
  8  7  2  0
 10  9  1  0
 11 10  1  0
 11 12  1  0
 13 12  1  6
 13 14  1  0
 14  4  1  0
 15 13  1  0
 16 15  2  0
 17 15  1  0
 18 25  1  0
 18 17  1  0
 18 19  1  6
 20 19  1  0
 20 24  1  0
 21 20  2  0
 22 21  1  0
 22 23  1  0
 23 24  2  0
 25 27  1  0
 26 25  2  0
M  END
$$$$
