TTS.pdb
     RDKit          3D

 21 20  0  0  1  0  0  0  0  0999 V2000
   10.3999  -17.8215   15.9842 C   0  0  0  0  0  0  0  0  0  0  0  0
   10.1045  -16.6598   15.1033 C   0  0  1  0  0  0  0  0  0  0  0  0
    9.6227  -17.1467   13.8880 O   0  0  0  0  0  0  0  0  0  0  0  0
    9.1403  -15.6709   15.6669 C   0  0  2  0  0  0  0  0  0  0  0  0
    8.6979  -14.7267   14.6712 N   0  0  0  0  0  0  0  0  0  0  0  0
    9.5952  -14.9749   16.8643 C   0  0  0  0  0  0  0  0  0  0  0  0
   10.5480  -14.1469   16.8798 O   0  0  0  0  0  0  0  0  0  0  0  0
    7.5108  -13.1023   19.0629 C   0  0  0  0  0  0  0  0  0  0  0  0
    8.0736  -14.1393   20.0277 C   0  0  1  0  0  0  0  0  0  0  0  0
    7.0718  -15.0847   20.2164 O   0  0  0  0  0  0  0  0  0  0  0  0
    9.2963  -14.7171   19.3701 C   0  0  2  0  0  0  0  0  0  0  0  0
    8.9308  -15.2389   18.0946 N   0  0  0  0  0  0  0  0  0  0  0  0
   10.0430  -15.6723   20.2291 C   0  0  0  0  0  0  0  0  0  0  0  0
    9.9400  -16.8952   19.9857 O   0  0  0  0  0  0  0  0  0  0  0  0
   13.6481  -15.3423   21.5478 O   0  0  0  0  0  0  0  0  0  0  0  0
   12.8722  -15.7093   22.6317 C   0  0  0  0  0  0  0  0  0  0  0  0
   11.5397  -16.2488   22.1332 C   0  0  2  0  0  0  0  0  0  0  0  0
   10.8604  -15.2726   21.3026 N   0  0  0  0  0  0  0  0  0  0  0  0
   10.7271  -16.6568   23.2927 C   0  0  0  0  0  0  0  0  0  0  0  0
    9.4923  -16.0764   23.5310 O   0  0  0  0  0  0  0  0  0  0  0  0
   11.1444  -17.5396   24.0835 O   0  0  0  0  0  0  0  0  0  0  0  0
  2  1  1  1
  2  4  1  0
  3  2  1  0
  4  5  1  6
  6  4  1  0
  6  7  2  0
  9  8  1  6
  9 11  1  0
 10  9  1  0
 11 12  1  6
 11 13  1  0
 12  6  1  0
 13 14  2  0
 13 18  1  0
 17 16  1  1
 16 15  1  0
 17 19  1  0
 18 17  1  0
 19 20  1  0
 21 19  2  0
M  END
$$$$
