TTS.pdb
     RDKit          3D

 21 20  0  0  1  0  0  0  0  0999 V2000
   13.1252  -16.7692   16.6076 C   0  0  0  0  0  0  0  0  0  0  0  0
   12.3797  -16.2904   17.8025 C   0  0  1  0  0  0  0  0  0  0  0  0
   12.9010  -16.9318   18.9263 O   0  0  0  0  0  0  0  0  0  0  0  0
   12.4035  -14.8134   18.0098 C   0  0  2  0  0  0  0  0  0  0  0  0
   13.7321  -14.2731   17.8624 N   0  0  0  0  0  0  0  0  0  0  0  0
   11.7997  -14.3524   19.2540 C   0  0  0  0  0  0  0  0  0  0  0  0
   12.4602  -13.9522   20.2526 O   0  0  0  0  0  0  0  0  0  0  0  0
    8.4148  -12.4723   19.0855 C   0  0  0  0  0  0  0  0  0  0  0  0
    8.2445  -13.5968   20.1001 C   0  0  1  0  0  0  0  0  0  0  0  0
    7.5602  -14.6153   19.4464 O   0  0  0  0  0  0  0  0  0  0  0  0
    9.6286  -14.0082   20.5200 C   0  0  2  0  0  0  0  0  0  0  0  0
   10.3806  -14.3499   19.3579 N   0  0  0  0  0  0  0  0  0  0  0  0
    9.6479  -15.0436   21.5856 C   0  0  0  0  0  0  0  0  0  0  0  0
   10.0084  -16.2022   21.2812 O   0  0  0  0  0  0  0  0  0  0  0  0
    8.0903  -14.3803   25.3627 O   0  0  0  0  0  0  0  0  0  0  0  0
    9.1273  -15.2933   25.3130 C   0  0  0  0  0  0  0  0  0  0  0  0
    9.2326  -15.8544   23.9026 C   0  0  2  0  0  0  0  0  0  0  0  0
    9.2815  -14.7882   22.9201 N   0  0  0  0  0  0  0  0  0  0  0  0
    8.1060  -16.7754   23.6708 C   0  0  0  0  0  0  0  0  0  0  0  0
    7.9911  -17.9497   24.3962 O   0  0  0  0  0  0  0  0  0  0  0  0
    7.2313  -16.5073   22.8094 O   0  0  0  0  0  0  0  0  0  0  0  0
  2  1  1  6
  2  4  1  0
  3  2  1  0
  4  5  1  1
  6  4  1  0
  6  7  2  0
  9  8  1  6
  9 11  1  0
 10  9  1  0
 11 12  1  6
 11 13  1  0
 12  6  1  0
 13 14  2  0
 13 18  1  0
 17 16  1  1
 16 15  1  0
 17 19  1  0
 18 17  1  0
 19 20  1  0
 21 19  2  0
M  END
$$$$
