TTS.pdb
     RDKit          3D

 21 20  0  0  1  0  0  0  0  0999 V2000
    3.8435  -20.3616   22.3123 C   0  0  0  0  0  0  0  0  0  0  0  0
    5.2511  -19.9500   22.5613 C   0  0  1  0  0  0  0  0  0  0  0  0
    5.9908  -21.0926   22.8673 O   0  0  0  0  0  0  0  0  0  0  0  0
    5.9010  -19.2159   21.4371 C   0  0  2  0  0  0  0  0  0  0  0  0
    5.8120  -19.9468   20.1975 N   0  0  0  0  0  0  0  0  0  0  0  0
    7.2746  -18.7945   21.6840 C   0  0  0  0  0  0  0  0  0  0  0  0
    8.2767  -19.2661   21.0782 O   0  0  0  0  0  0  0  0  0  0  0  0
   10.1134  -15.3296   23.5639 C   0  0  0  0  0  0  0  0  0  0  0  0
    8.7151  -15.8018   23.1834 C   0  0  1  0  0  0  0  0  0  0  0  0
    8.4089  -15.1880   21.9741 O   0  0  0  0  0  0  0  0  0  0  0  0
    8.7851  -17.2996   23.0691 C   0  0  2  0  0  0  0  0  0  0  0  0
    7.5091  -17.7914   22.6655 N   0  0  0  0  0  0  0  0  0  0  0  0
    9.3428  -17.9664   24.2741 C   0  0  0  0  0  0  0  0  0  0  0  0
    8.6388  -18.0111   25.3073 O   0  0  0  0  0  0  0  0  0  0  0  0
   13.0179  -19.8770   24.2451 O   0  0  0  0  0  0  0  0  0  0  0  0
   12.0240  -20.4275   25.0327 C   0  0  0  0  0  0  0  0  0  0  0  0
   11.0566  -19.3319   25.4559 C   0  0  2  0  0  0  0  0  0  0  0  0
   10.6226  -18.5504   24.3134 N   0  0  0  0  0  0  0  0  0  0  0  0
   11.7003  -18.5007   26.4883 C   0  0  0  0  0  0  0  0  0  0  0  0
   12.0350  -19.0364   27.7210 O   0  0  0  0  0  0  0  0  0  0  0  0
   11.9551  -17.2909   26.2641 O   0  0  0  0  0  0  0  0  0  0  0  0
  2  1  1  6
  2  4  1  0
  3  2  1  0
  4  5  1  6
  6  4  1  0
  6  7  2  0
  9  8  1  6
  9 11  1  0
 10  9  1  0
 11 12  1  1
 11 13  1  0
 12  6  1  0
 13 14  2  0
 13 18  1  0
 17 16  1  6
 16 15  1  0
 17 19  1  0
 18 17  1  0
 19 20  1  0
 21 19  2  0
M  END
$$$$
