TTS.pdb
     RDKit          3D

 21 20  0  0  1  0  0  0  0  0999 V2000
   16.2134  -18.0703   17.7194 C   0  0  0  0  0  0  0  0  0  0  0  0
   16.1732  -17.0811   16.6091 C   0  0  1  0  0  0  0  0  0  0  0  0
   17.0428  -17.5150   15.6082 O   0  0  0  0  0  0  0  0  0  0  0  0
   14.8201  -16.8388   16.0299 C   0  0  2  0  0  0  0  0  0  0  0  0
   14.8942  -16.1499   14.7655 N   0  0  0  0  0  0  0  0  0  0  0  0
   13.8753  -16.1742   16.9191 C   0  0  0  0  0  0  0  0  0  0  0  0
   13.9870  -14.9753   17.2980 O   0  0  0  0  0  0  0  0  0  0  0  0
   10.2262  -16.6403   16.5270 C   0  0  0  0  0  0  0  0  0  0  0  0
   10.4505  -16.9994   17.9912 C   0  0  1  0  0  0  0  0  0  0  0  0
   10.3812  -18.3857   18.0706 O   0  0  0  0  0  0  0  0  0  0  0  0
   11.8079  -16.4672   18.3596 C   0  0  2  0  0  0  0  0  0  0  0  0
   12.7563  -16.9142   17.3934 N   0  0  0  0  0  0  0  0  0  0  0  0
   12.1960  -16.7406   19.7676 C   0  0  0  0  0  0  0  0  0  0  0  0
   13.1878  -17.4734   19.9784 O   0  0  0  0  0  0  0  0  0  0  0  0
    9.8336  -15.6222   22.8814 O   0  0  0  0  0  0  0  0  0  0  0  0
   11.1683  -15.6616   23.2393 C   0  0  0  0  0  0  0  0  0  0  0  0
   11.9314  -16.5095   22.2323 C   0  0  2  0  0  0  0  0  0  0  0  0
   11.5054  -16.2178   20.8767 N   0  0  0  0  0  0  0  0  0  0  0  0
   11.7578  -17.9313   22.5780 C   0  0  0  0  0  0  0  0  0  0  0  0
   12.2653  -18.4388   23.7626 O   0  0  0  0  0  0  0  0  0  0  0  0
   11.1450  -18.7053   21.8005 O   0  0  0  0  0  0  0  0  0  0  0  0
  2  1  1  1
  2  4  1  0
  3  2  1  0
  4  5  1  6
  6  4  1  0
  6  7  2  0
  9  8  1  6
  9 11  1  0
 10  9  1  0
 11 12  1  6
 11 13  1  0
 12  6  1  0
 13 14  2  0
 13 18  1  0
 17 16  1  1
 16 15  1  0
 17 19  1  0
 18 17  1  0
 19 20  1  0
 21 19  2  0
M  END
$$$$
