TTS.pdb
     RDKit          3D

 21 20  0  0  1  0  0  0  0  0999 V2000
    9.0337  -18.0600   16.0136 C   0  0  0  0  0  0  0  0  0  0  0  0
    9.0185  -17.0680   14.9051 C   0  0  1  0  0  0  0  0  0  0  0  0
    8.2220  -17.5753   13.8783 O   0  0  0  0  0  0  0  0  0  0  0  0
    8.5430  -15.7062   15.2850 C   0  0  2  0  0  0  0  0  0  0  0  0
    8.2954  -14.8830   14.1274 N   0  0  0  0  0  0  0  0  0  0  0  0
    9.3852  -15.0004   16.2429 C   0  0  0  0  0  0  0  0  0  0  0  0
   10.5003  -14.4835   15.9550 O   0  0  0  0  0  0  0  0  0  0  0  0
    7.8032  -12.7727   18.7891 C   0  0  0  0  0  0  0  0  0  0  0  0
    8.7059  -13.6710   19.6265 C   0  0  1  0  0  0  0  0  0  0  0  0
    7.8724  -14.5895   20.2545 O   0  0  0  0  0  0  0  0  0  0  0  0
    9.6671  -14.3227   18.6711 C   0  0  2  0  0  0  0  0  0  0  0  0
    8.9306  -14.8822   17.5861 N   0  0  0  0  0  0  0  0  0  0  0  0
   10.6087  -15.2698   19.3223 C   0  0  0  0  0  0  0  0  0  0  0  0
   10.3651  -16.4947   19.2477 O   0  0  0  0  0  0  0  0  0  0  0  0
   14.3153  -14.1774   20.8026 O   0  0  0  0  0  0  0  0  0  0  0  0
   14.0848  -15.4977   20.4636 C   0  0  0  0  0  0  0  0  0  0  0  0
   12.6153  -15.8226   20.6883 C   0  0  2  0  0  0  0  0  0  0  0  0
   11.7608  -14.8603   20.0189 N   0  0  0  0  0  0  0  0  0  0  0  0
   12.3573  -15.8846   22.1377 C   0  0  0  0  0  0  0  0  0  0  0  0
   13.0446  -16.7794   22.9412 O   0  0  0  0  0  0  0  0  0  0  0  0
   11.5078  -15.1245   22.6663 O   0  0  0  0  0  0  0  0  0  0  0  0
  2  1  1  1
  2  4  1  0
  3  2  1  0
  4  5  1  6
  6  4  1  0
  6  7  2  0
  9  8  1  6
  9 11  1  0
 10  9  1  0
 11 12  1  6
 11 13  1  0
 12  6  1  0
 13 14  2  0
 13 18  1  0
 17 16  1  1
 16 15  1  0
 17 19  1  0
 18 17  1  0
 19 20  1  0
 21 19  2  0
M  END
$$$$
