TTS.pdb
     RDKit          3D

 21 20  0  0  1  0  0  0  0  0999 V2000
    8.2809  -18.0096   13.7371 C   0  0  0  0  0  0  0  0  0  0  0  0
    9.0545  -17.2243   14.7360 C   0  0  1  0  0  0  0  0  0  0  0  0
   10.4107  -17.3551   14.4363 O   0  0  0  0  0  0  0  0  0  0  0  0
    8.6942  -15.7791   14.8171 C   0  0  2  0  0  0  0  0  0  0  0  0
    8.6728  -15.1584   13.5159 N   0  0  0  0  0  0  0  0  0  0  0  0
    9.4961  -14.9916   15.7454 C   0  0  0  0  0  0  0  0  0  0  0  0
   10.5665  -14.4022   15.4284 O   0  0  0  0  0  0  0  0  0  0  0  0
    7.7161  -12.9757   18.5212 C   0  0  0  0  0  0  0  0  0  0  0  0
    8.7763  -13.8238   19.2139 C   0  0  1  0  0  0  0  0  0  0  0  0
    8.1092  -14.9094   19.7699 O   0  0  0  0  0  0  0  0  0  0  0  0
    9.7591  -14.2325   18.1516 C   0  0  2  0  0  0  0  0  0  0  0  0
    9.0530  -14.8748   17.0926 N   0  0  0  0  0  0  0  0  0  0  0  0
   10.9153  -15.0071   18.6721 C   0  0  0  0  0  0  0  0  0  0  0  0
   11.0057  -16.2168   18.3659 O   0  0  0  0  0  0  0  0  0  0  0  0
   15.3845  -15.1524   20.3717 O   0  0  0  0  0  0  0  0  0  0  0  0
   14.3203  -14.3763   19.9517 C   0  0  0  0  0  0  0  0  0  0  0  0
   13.0623  -15.2314   19.9124 C   0  0  2  0  0  0  0  0  0  0  0  0
   11.9144  -14.4504   19.4920 N   0  0  0  0  0  0  0  0  0  0  0  0
   12.8635  -15.8474   21.2361 C   0  0  0  0  0  0  0  0  0  0  0  0
   13.7642  -16.7788   21.7258 O   0  0  0  0  0  0  0  0  0  0  0  0
   11.8711  -15.5354   21.9409 O   0  0  0  0  0  0  0  0  0  0  0  0
  2  1  1  6
  2  4  1  0
  3  2  1  0
  4  5  1  6
  6  4  1  0
  6  7  2  0
  9  8  1  6
  9 11  1  0
 10  9  1  0
 11 12  1  6
 11 13  1  0
 12  6  1  0
 13 14  2  0
 13 18  1  0
 17 16  1  1
 16 15  1  0
 17 19  1  0
 18 17  1  0
 19 20  1  0
 21 19  2  0
M  END
$$$$
