TTS.pdb
     RDKit          3D

 21 20  0  0  1  0  0  0  0  0999 V2000
    8.7838  -12.6828   20.6931 C   0  0  0  0  0  0  0  0  0  0  0  0
    7.9765  -12.7545   19.4458 C   0  0  1  0  0  0  0  0  0  0  0  0
    7.8997  -11.4717   18.9029 O   0  0  0  0  0  0  0  0  0  0  0  0
    8.4887  -13.7062   18.4176 C   0  0  2  0  0  0  0  0  0  0  0  0
    7.6799  -13.6918   17.2241 N   0  0  0  0  0  0  0  0  0  0  0  0
    8.6879  -15.0732   18.8831 C   0  0  0  0  0  0  0  0  0  0  0  0
    8.2028  -16.0900   18.3135 O   0  0  0  0  0  0  0  0  0  0  0  0
    9.8239  -17.1759   18.2396 C   0  0  0  0  0  0  0  0  0  0  0  0
   10.6152  -17.3127   19.5350 C   0  0  1  0  0  0  0  0  0  0  0  0
   11.8715  -16.7715   19.2868 O   0  0  0  0  0  0  0  0  0  0  0  0
    9.8549  -16.5495   20.5842 C   0  0  2  0  0  0  0  0  0  0  0  0
    9.4756  -15.2835   20.0493 N   0  0  0  0  0  0  0  0  0  0  0  0
   10.5532  -16.4744   21.8936 C   0  0  0  0  0  0  0  0  0  0  0  0
   11.2240  -15.4502   22.1508 O   0  0  0  0  0  0  0  0  0  0  0  0
   10.7779  -17.7745   26.4852 O   0  0  0  0  0  0  0  0  0  0  0  0
   10.1594  -17.8905   25.2543 C   0  0  0  0  0  0  0  0  0  0  0  0
   11.0690  -17.3113   24.1808 C   0  0  2  0  0  0  0  0  0  0  0  0
   10.4992  -17.4962   22.8597 N   0  0  0  0  0  0  0  0  0  0  0  0
   12.4026  -17.9256   24.3042 C   0  0  0  0  0  0  0  0  0  0  0  0
   13.2141  -17.6434   25.3907 O   0  0  0  0  0  0  0  0  0  0  0  0
   12.8234  -18.7162   23.4228 O   0  0  0  0  0  0  0  0  0  0  0  0
  2  1  1  1
  2  4  1  0
  3  2  1  0
  4  5  1  6
  6  4  1  0
  6  7  2  0
  9  8  1  6
  9 11  1  0
 10  9  1  0
 11 12  1  6
 11 13  1  0
 12  6  1  0
 13 14  2  0
 13 18  1  0
 17 16  1  1
 16 15  1  0
 17 19  1  0
 18 17  1  0
 19 20  1  0
 21 19  2  0
M  END
$$$$
