TTS.pdb
     RDKit          3D

 21 20  0  0  1  0  0  0  0  0999 V2000
    8.6986  -13.1413   19.4369 C   0  0  0  0  0  0  0  0  0  0  0  0
    8.0624  -13.5181   18.1461 C   0  0  1  0  0  0  0  0  0  0  0  0
    7.9225  -12.3630   17.3764 O   0  0  0  0  0  0  0  0  0  0  0  0
    8.7915  -14.5585   17.3644 C   0  0  2  0  0  0  0  0  0  0  0  0
    8.1451  -14.8336   16.1054 N   0  0  0  0  0  0  0  0  0  0  0  0
    9.0599  -15.7985   18.0824 C   0  0  0  0  0  0  0  0  0  0  0  0
    8.2553  -16.7695   18.1382 O   0  0  0  0  0  0  0  0  0  0  0  0
   12.8708  -17.0607   18.6047 C   0  0  0  0  0  0  0  0  0  0  0  0
   11.6351  -17.9017   18.9024 C   0  0  1  0  0  0  0  0  0  0  0  0
   12.0645  -18.9671   19.6856 O   0  0  0  0  0  0  0  0  0  0  0  0
   10.6706  -17.0042   19.6274 C   0  0  2  0  0  0  0  0  0  0  0  0
   10.3017  -15.9308   18.7645 N   0  0  0  0  0  0  0  0  0  0  0  0
   11.1455  -16.5739   20.9680 C   0  0  0  0  0  0  0  0  0  0  0  0
   11.8653  -15.5534   21.0434 O   0  0  0  0  0  0  0  0  0  0  0  0
    9.0477  -16.1294   23.9853 O   0  0  0  0  0  0  0  0  0  0  0  0
   10.1417  -16.8220   24.4700 C   0  0  0  0  0  0  0  0  0  0  0  0
   11.2670  -16.7584   23.4477 C   0  0  2  0  0  0  0  0  0  0  0  0
   10.8275  -17.2550   22.1576 N   0  0  0  0  0  0  0  0  0  0  0  0
   12.4258  -17.5052   23.9678 C   0  0  0  0  0  0  0  0  0  0  0  0
   12.9257  -18.6015   23.2848 O   0  0  0  0  0  0  0  0  0  0  0  0
   12.9782  -17.1567   25.0413 O   0  0  0  0  0  0  0  0  0  0  0  0
  2  1  1  1
  2  4  1  0
  3  2  1  0
  4  5  1  6
  6  4  1  0
  6  7  2  0
  9  8  1  1
  9 11  1  0
 10  9  1  0
 11 12  1  6
 11 13  1  0
 12  6  1  0
 13 14  2  0
 13 18  1  0
 17 16  1  1
 16 15  1  0
 17 19  1  0
 18 17  1  0
 19 20  1  0
 21 19  2  0
M  END
$$$$
