TTS.pdb
     RDKit          3D

 21 20  0  0  1  0  0  0  0  0999 V2000
    7.7846  -18.9325   18.2662 C   0  0  0  0  0  0  0  0  0  0  0  0
    8.2187  -18.3108   16.9864 C   0  0  1  0  0  0  0  0  0  0  0  0
    7.4834  -18.8881   15.9509 O   0  0  0  0  0  0  0  0  0  0  0  0
    8.0864  -16.8260   16.9306 C   0  0  2  0  0  0  0  0  0  0  0  0
    8.3314  -16.3158   15.6045 N   0  0  0  0  0  0  0  0  0  0  0  0
    8.8780  -16.0959   17.9131 C   0  0  0  0  0  0  0  0  0  0  0  0
   10.0932  -15.7926   17.7552 O   0  0  0  0  0  0  0  0  0  0  0  0
    7.5875  -13.0863   19.6649 C   0  0  0  0  0  0  0  0  0  0  0  0
    7.9554  -14.0297   20.8041 C   0  0  1  0  0  0  0  0  0  0  0  0
    6.7636  -14.5883   21.2517 O   0  0  0  0  0  0  0  0  0  0  0  0
    8.8920  -15.0544   20.2261 C   0  0  2  0  0  0  0  0  0  0  0  0
    8.2510  -15.6969   19.1266 N   0  0  0  0  0  0  0  0  0  0  0  0
    9.4539  -15.9886   21.2358 C   0  0  0  0  0  0  0  0  0  0  0  0
    8.9647  -17.1370   21.3191 O   0  0  0  0  0  0  0  0  0  0  0  0
   13.1167  -16.5282   22.3318 O   0  0  0  0  0  0  0  0  0  0  0  0
   12.3877  -16.3773   23.4967 C   0  0  0  0  0  0  0  0  0  0  0  0
   10.9067  -16.5310   23.1835 C   0  0  2  0  0  0  0  0  0  0  0  0
   10.5083  -15.6483   22.1035 N   0  0  0  0  0  0  0  0  0  0  0  0
   10.1321  -16.2919   24.4139 C   0  0  0  0  0  0  0  0  0  0  0  0
   10.3168  -17.0879   25.5324 O   0  0  0  0  0  0  0  0  0  0  0  0
    9.2909  -15.3599   24.4658 O   0  0  0  0  0  0  0  0  0  0  0  0
  2  1  1  1
  2  4  1  0
  3  2  1  0
  4  5  1  6
  6  4  1  0
  6  7  2  0
  9  8  1  6
  9 11  1  0
 10  9  1  0
 11 12  1  6
 11 13  1  0
 12  6  1  0
 13 14  2  0
 13 18  1  0
 17 16  1  1
 16 15  1  0
 17 19  1  0
 18 17  1  0
 19 20  1  0
 21 19  2  0
M  END
$$$$
