AMD.pdb
     RDKit          3D

 22 21  0  0  1  0  0  0  0  0999 V2000
   17.8653  -10.5063  -16.1815 C   0  0  0  0  0  0  0  0  0  0  0  0
   18.3136   -9.9451  -14.8750 C   0  0  2  0  0  0  0  0  0  0  0  0
   19.0101  -10.9591  -14.1242 N   0  0  0  0  0  0  0  0  0  0  0  0
   17.2261   -9.3059  -14.0849 C   0  0  0  0  0  0  0  0  0  0  0  0
   16.5907   -8.3086  -14.5186 O   0  0  0  0  0  0  0  0  0  0  0  0
   11.3584  -11.0261   -9.3993 C   0  0  0  0  0  0  0  0  0  0  0  0
   12.8661  -11.4497  -10.2862 S   0  0  0  0  0  0  0  0  0  0  0  0
   13.8191   -9.9431  -10.7193 C   0  0  0  0  0  0  0  0  0  0  0  0
   15.0689  -10.4357  -11.4242 C   0  0  0  0  0  0  0  0  0  0  0  0
   15.9025   -9.2891  -11.9672 C   0  0  2  0  0  0  0  0  0  0  0  0
   16.9333   -9.8708  -12.8133 N   0  0  0  0  0  0  0  0  0  0  0  0
   16.5111   -8.6258  -10.7714 C   0  0  0  0  0  0  0  0  0  0  0  0
   17.3600   -9.2084  -10.0537 O   0  0  0  0  0  0  0  0  0  0  0  0
   16.1275   -7.3122  -10.4348 N   0  0  0  0  0  0  0  0  0  0  0  0
   16.6516   -6.5873   -9.2659 C   0  0  1  0  0  0  0  0  0  0  0  0
   17.4956   -5.4229   -9.7231 C   0  0  0  0  0  0  0  0  0  0  0  0
   16.6973   -4.5127  -10.5419 C   0  0  0  0  0  0  0  0  0  0  0  0
   16.5828   -4.7565  -11.7866 O   0  0  0  0  0  0  0  0  0  0  0  0
   15.4535   -6.1356   -8.5258 C   0  0  0  0  0  0  0  0  0  0  0  0
   14.3070   -6.1631   -9.0030 O   0  0  0  0  0  0  0  0  0  0  0  0
   16.0789   -3.4148  -10.0059 O   0  0  0  0  0  0  0  0  0  0  0  0
   15.5590   -5.6395   -7.2107 O   0  0  0  0  0  0  0  0  0  0  0  0
  2  1  1  6
  3  2  1  0
  4 11  1  0
  4  2  1  0
  5  4  2  0
  6  7  1  0
  7  8  1  0
  8  9  1  0
 10  9  1  1
 10 11  1  0
 12 14  1  0
 12 10  1  0
 13 12  2  0
 15 14  1  0
 15 16  1  6
 17 16  1  0
 17 21  1  0
 18 17  2  0
 19 15  1  0
 20 19  2  0
 22 19  1  0
M  END
$$$$
