AMD.pdb
     RDKit          3D

 22 21  0  0  1  0  0  0  0  0999 V2000
   18.3982  -14.5431  -18.0600 C   0  0  0  0  0  0  0  0  0  0  0  0
   19.0327  -13.2656  -18.4936 C   0  0  2  0  0  0  0  0  0  0  0  0
   19.9435  -13.5204  -19.5811 N   0  0  0  0  0  0  0  0  0  0  0  0
   19.6737  -12.5017  -17.3886 C   0  0  0  0  0  0  0  0  0  0  0  0
   19.0309  -12.1573  -16.3616 O   0  0  0  0  0  0  0  0  0  0  0  0
   26.8114  -10.7829  -14.5222 C   0  0  0  0  0  0  0  0  0  0  0  0
   25.7201  -11.6148  -15.6868 S   0  0  0  0  0  0  0  0  0  0  0  0
   23.9881  -11.0441  -15.4871 C   0  0  0  0  0  0  0  0  0  0  0  0
   23.1895  -11.7739  -16.5506 C   0  0  0  0  0  0  0  0  0  0  0  0
   21.7290  -11.3600  -16.5466 C   0  0  2  0  0  0  0  0  0  0  0  0
   21.0490  -12.1747  -17.5419 N   0  0  0  0  0  0  0  0  0  0  0  0
   21.7134   -9.9168  -16.9435 C   0  0  0  0  0  0  0  0  0  0  0  0
   22.0569   -9.5439  -18.0916 O   0  0  0  0  0  0  0  0  0  0  0  0
   21.3033   -8.9436  -16.0103 N   0  0  0  0  0  0  0  0  0  0  0  0
   21.1302   -7.5206  -16.3440 C   0  0  1  0  0  0  0  0  0  0  0  0
   20.0287   -6.9282  -15.4995 C   0  0  0  0  0  0  0  0  0  0  0  0
   18.7271   -7.4082  -15.9601 C   0  0  0  0  0  0  0  0  0  0  0  0
   18.5041   -7.4525  -17.2131 O   0  0  0  0  0  0  0  0  0  0  0  0
   22.4384   -6.8960  -16.0510 C   0  0  0  0  0  0  0  0  0  0  0  0
   23.3848   -7.5088  -15.5297 O   0  0  0  0  0  0  0  0  0  0  0  0
   17.7530   -7.8043  -15.0831 O   0  0  0  0  0  0  0  0  0  0  0  0
   22.6788   -5.5413  -16.3569 O   0  0  0  0  0  0  0  0  0  0  0  0
  2  1  1  1
  3  2  1  0
  4 11  1  0
  4  2  1  0
  5  4  2  0
  6  7  1  0
  7  8  1  0
  8  9  1  0
 10  9  1  6
 10 11  1  0
 12 14  1  0
 12 10  1  0
 13 12  2  0
 15 14  1  0
 15 16  1  1
 17 16  1  0
 17 21  1  0
 18 17  2  0
 19 15  1  0
 20 19  2  0
 22 19  1  0
M  END
$$$$
