AMD.pdb
     RDKit          3D

 22 21  0  0  1  0  0  0  0  0999 V2000
   19.0164  -15.7809  -17.7610 C   0  0  0  0  0  0  0  0  0  0  0  0
   19.2766  -14.3803  -18.2008 C   0  0  2  0  0  0  0  0  0  0  0  0
   20.0683  -14.3887  -19.4051 N   0  0  0  0  0  0  0  0  0  0  0  0
   19.8663  -13.5131  -17.1446 C   0  0  0  0  0  0  0  0  0  0  0  0
   19.2603  -13.2785  -16.0656 O   0  0  0  0  0  0  0  0  0  0  0  0
   26.9030  -10.7366  -14.9121 C   0  0  0  0  0  0  0  0  0  0  0  0
   25.8385  -11.7390  -15.9617 S   0  0  0  0  0  0  0  0  0  0  0  0
   24.0694  -11.3686  -15.6481 C   0  0  0  0  0  0  0  0  0  0  0  0
   23.2896  -12.2340  -16.6199 C   0  0  0  0  0  0  0  0  0  0  0  0
   21.7904  -12.0907  -16.4294 C   0  0  2  0  0  0  0  0  0  0  0  0
   21.1486  -12.9573  -17.4062 N   0  0  0  0  0  0  0  0  0  0  0  0
   21.4793  -10.6540  -16.7110 C   0  0  0  0  0  0  0  0  0  0  0  0
   21.6817  -10.1434  -17.8396 O   0  0  0  0  0  0  0  0  0  0  0  0
   20.9443   -9.8452  -15.6884 N   0  0  0  0  0  0  0  0  0  0  0  0
   20.5852   -8.4302  -15.8762 C   0  0  1  0  0  0  0  0  0  0  0  0
   19.1631   -8.2001  -15.4266 C   0  0  0  0  0  0  0  0  0  0  0  0
   18.8530   -6.7719  -15.4471 C   0  0  0  0  0  0  0  0  0  0  0  0
   19.0253   -6.1278  -16.5321 O   0  0  0  0  0  0  0  0  0  0  0  0
   21.5489   -7.6764  -15.0453 C   0  0  0  0  0  0  0  0  0  0  0  0
   22.2313   -8.1996  -14.1489 O   0  0  0  0  0  0  0  0  0  0  0  0
   18.3888   -6.1188  -14.3367 O   0  0  0  0  0  0  0  0  0  0  0  0
   21.7431   -6.2935  -15.2363 O   0  0  0  0  0  0  0  0  0  0  0  0
  2  1  1  1
  3  2  1  0
  4 11  1  0
  4  2  1  0
  5  4  2  0
  6  7  1  0
  7  8  1  0
  8  9  1  0
 10  9  1  6
 10 11  1  0
 12 14  1  0
 12 10  1  0
 13 12  2  0
 15 14  1  0
 15 16  1  1
 17 16  1  0
 17 21  1  0
 18 17  2  0
 19 15  1  0
 20 19  2  0
 22 19  1  0
M  END
$$$$
