AMD.pdb
     RDKit          3D

 22 21  0  0  1  0  0  0  0  0999 V2000
   18.8734  -12.6085  -16.8009 C   0  0  0  0  0  0  0  0  0  0  0  0
   19.4994  -11.3628  -17.3293 C   0  0  2  0  0  0  0  0  0  0  0  0
   20.1914  -11.6515  -18.5601 N   0  0  0  0  0  0  0  0  0  0  0  0
   20.3667  -10.6567  -16.3472 C   0  0  0  0  0  0  0  0  0  0  0  0
   19.9233  -10.2602  -15.2369 O   0  0  0  0  0  0  0  0  0  0  0  0
   26.9358  -11.8245  -14.8912 C   0  0  0  0  0  0  0  0  0  0  0  0
   26.6838  -10.2709  -15.7644 S   0  0  0  0  0  0  0  0  0  0  0  0
   25.0799   -9.5098  -15.3018 C   0  0  0  0  0  0  0  0  0  0  0  0
   24.0407  -10.1704  -16.1879 C   0  0  0  0  0  0  0  0  0  0  0  0
   22.6307   -9.7411  -15.8246 C   0  0  2  0  0  0  0  0  0  0  0  0
   21.7236  -10.4470  -16.7168 N   0  0  0  0  0  0  0  0  0  0  0  0
   22.5769   -8.2661  -16.0736 C   0  0  0  0  0  0  0  0  0  0  0  0
   22.9363   -7.7676  -17.1679 O   0  0  0  0  0  0  0  0  0  0  0  0
   22.1113   -7.4064  -15.0586 N   0  0  0  0  0  0  0  0  0  0  0  0
   21.9358   -5.9563  -15.2398 C   0  0  1  0  0  0  0  0  0  0  0  0
   20.5376   -5.6681  -15.7289 C   0  0  0  0  0  0  0  0  0  0  0  0
   20.3192   -4.2250  -15.8089 C   0  0  0  0  0  0  0  0  0  0  0  0
   21.2474   -3.4952  -16.2861 O   0  0  0  0  0  0  0  0  0  0  0  0
   22.1780   -5.3708  -13.9034 C   0  0  0  0  0  0  0  0  0  0  0  0
   22.1604   -4.1488  -13.6813 O   0  0  0  0  0  0  0  0  0  0  0  0
   19.1524   -3.6476  -15.3845 O   0  0  0  0  0  0  0  0  0  0  0  0
   22.4475   -6.1929  -12.7906 O   0  0  0  0  0  0  0  0  0  0  0  0
  2  1  1  1
  3  2  1  0
  4 11  1  0
  4  2  1  0
  5  4  2  0
  6  7  1  0
  7  8  1  0
  8  9  1  0
 10  9  1  6
 10 11  1  0
 12 14  1  0
 12 10  1  0
 13 12  2  0
 15 14  1  0
 15 16  1  1
 17 16  1  0
 17 21  1  0
 18 17  2  0
 19 15  1  0
 20 19  2  0
 22 19  1  0
M  END
$$$$
