AMD.pdb
     RDKit          3D

 22 21  0  0  1  0  0  0  0  0999 V2000
   13.3791  -14.2458  -13.4431 C   0  0  0  0  0  0  0  0  0  0  0  0
   14.7108  -13.5760  -13.4186 C   0  0  2  0  0  0  0  0  0  0  0  0
   15.5359  -14.1732  -12.3990 N   0  0  0  0  0  0  0  0  0  0  0  0
   14.6419  -12.0946  -13.2920 C   0  0  0  0  0  0  0  0  0  0  0  0
   14.0095  -11.3877  -14.1208 O   0  0  0  0  0  0  0  0  0  0  0  0
   11.5038   -9.9566   -7.9420 C   0  0  0  0  0  0  0  0  0  0  0  0
   13.2308   -9.7890   -8.4205 S   0  0  0  0  0  0  0  0  0  0  0  0
   13.4343   -9.9995  -10.2315 C   0  0  0  0  0  0  0  0  0  0  0  0
   14.9223   -9.8670  -10.4961 C   0  0  0  0  0  0  0  0  0  0  0  0
   15.2577  -10.0723  -11.9623 C   0  0  2  0  0  0  0  0  0  0  0  0
   15.3237  -11.5077  -12.1909 N   0  0  0  0  0  0  0  0  0  0  0  0
   16.5998   -9.4416  -12.1655 C   0  0  0  0  0  0  0  0  0  0  0  0
   17.6641  -10.0603  -11.9209 O   0  0  0  0  0  0  0  0  0  0  0  0
   16.6809   -8.1186  -12.6442 N   0  0  0  0  0  0  0  0  0  0  0  0
   17.9384   -7.4862  -13.0743 C   0  0  1  0  0  0  0  0  0  0  0  0
   18.5949   -8.3279  -14.1410 C   0  0  0  0  0  0  0  0  0  0  0  0
   19.7486   -7.6249  -14.6986 C   0  0  0  0  0  0  0  0  0  0  0  0
   20.0743   -6.4995  -14.1994 O   0  0  0  0  0  0  0  0  0  0  0  0
   17.5424   -6.1591  -13.5932 C   0  0  0  0  0  0  0  0  0  0  0  0
   18.2107   -5.1283  -13.4096 O   0  0  0  0  0  0  0  0  0  0  0  0
   20.4769   -8.1434  -15.7358 O   0  0  0  0  0  0  0  0  0  0  0  0
   16.3576   -5.9974  -14.3394 O   0  0  0  0  0  0  0  0  0  0  0  0
  2  1  1  1
  3  2  1  0
  4 11  1  0
  4  2  1  0
  5  4  2  0
  6  7  1  0
  7  8  1  0
  8  9  1  0
 10  9  1  1
 10 11  1  0
 12 14  1  0
 12 10  1  0
 13 12  2  0
 15 14  1  0
 15 16  1  6
 17 16  1  0
 17 21  1  0
 18 17  2  0
 19 15  1  0
 20 19  2  0
 22 19  1  0
M  END
$$$$
