AMD.pdb
     RDKit          3D

 22 21  0  0  1  0  0  0  0  0999 V2000
   28.6825  -21.2903  -17.3547 C   0  0  0  0  0  0  0  0  0  0  0  0
   27.6208  -20.4129  -16.7839 C   0  0  2  0  0  0  0  0  0  0  0  0
   28.1992  -19.1617  -16.3633 N   0  0  0  0  0  0  0  0  0  0  0  0
   26.8194  -21.0542  -15.7059 C   0  0  0  0  0  0  0  0  0  0  0  0
   26.2260  -22.1507  -15.8849 O   0  0  0  0  0  0  0  0  0  0  0  0
   30.3685  -21.6971  -10.2014 C   0  0  0  0  0  0  0  0  0  0  0  0
   28.7465  -20.9398  -10.3888 S   0  0  0  0  0  0  0  0  0  0  0  0
   27.9642  -21.4447  -11.9695 C   0  0  0  0  0  0  0  0  0  0  0  0
   26.6939  -20.6229  -12.0805 C   0  0  0  0  0  0  0  0  0  0  0  0
   25.9462  -20.9065  -13.3708 C   0  0  2  0  0  0  0  0  0  0  0  0
   26.7510  -20.3734  -14.4594 N   0  0  0  0  0  0  0  0  0  0  0  0
   24.6489  -20.1681  -13.2608 C   0  0  0  0  0  0  0  0  0  0  0  0
   24.5998  -18.9140  -13.2712 O   0  0  0  0  0  0  0  0  0  0  0  0
   23.4452  -20.8915  -13.1426 N   0  0  0  0  0  0  0  0  0  0  0  0
   22.1148  -20.2907  -13.3306 C   0  0  1  0  0  0  0  0  0  0  0  0
   21.5327  -20.7403  -14.6483 C   0  0  0  0  0  0  0  0  0  0  0  0
   21.5871  -19.6508  -15.6212 C   0  0  0  0  0  0  0  0  0  0  0  0
   22.0638  -18.5291  -15.2518 O   0  0  0  0  0  0  0  0  0  0  0  0
   21.3112  -20.7725  -12.1862 C   0  0  0  0  0  0  0  0  0  0  0  0
   20.2826  -20.2018  -11.7873 O   0  0  0  0  0  0  0  0  0  0  0  0
   21.1395  -19.8079  -16.9056 O   0  0  0  0  0  0  0  0  0  0  0  0
   21.6846  -21.9314  -11.4761 O   0  0  0  0  0  0  0  0  0  0  0  0
  2  1  1  1
  3  2  1  0
  4 11  1  0
  4  2  1  0
  5  4  2  0
  6  7  1  0
  7  8  1  0
  8  9  1  0
 10  9  1  1
 10 11  1  0
 12 14  1  0
 12 10  1  0
 13 12  2  0
 15 14  1  0
 15 16  1  6
 17 16  1  0
 17 21  1  0
 18 17  2  0
 19 15  1  0
 20 19  2  0
 22 19  1  0
M  END
$$$$
