AMD.pdb
     RDKit          3D

 22 21  0  0  1  0  0  0  0  0999 V2000
   15.7760  -11.6792  -14.3688 C   0  0  0  0  0  0  0  0  0  0  0  0
   16.4684  -10.5162  -13.7437 C   0  0  2  0  0  0  0  0  0  0  0  0
   17.5428  -10.9843  -12.9049 N   0  0  0  0  0  0  0  0  0  0  0  0
   15.5579   -9.5832  -13.0255 C   0  0  0  0  0  0  0  0  0  0  0  0
   14.6169   -8.9900  -13.6164 O   0  0  0  0  0  0  0  0  0  0  0  0
   11.1427   -9.5284   -7.1178 C   0  0  0  0  0  0  0  0  0  0  0  0
   12.8241   -9.7978   -7.7009 S   0  0  0  0  0  0  0  0  0  0  0  0
   13.1665   -8.8009   -9.2023 C   0  0  0  0  0  0  0  0  0  0  0  0
   14.6021   -9.1103   -9.5827 C   0  0  0  0  0  0  0  0  0  0  0  0
   15.0037   -8.4317  -10.8799 C   0  0  2  0  0  0  0  0  0  0  0  0
   15.7963   -9.3882  -11.6374 N   0  0  0  0  0  0  0  0  0  0  0  0
   15.8351   -7.2522  -10.4824 C   0  0  0  0  0  0  0  0  0  0  0  0
   16.9811   -7.3883   -9.9889 O   0  0  0  0  0  0  0  0  0  0  0  0
   15.3265   -5.9504  -10.6636 N   0  0  0  0  0  0  0  0  0  0  0  0
   16.1359   -4.7321  -10.4996 C   0  0  1  0  0  0  0  0  0  0  0  0
   16.8766   -4.4347  -11.7803 C   0  0  0  0  0  0  0  0  0  0  0  0
   17.5611   -3.1472  -11.6791 C   0  0  0  0  0  0  0  0  0  0  0  0
   17.5646   -2.5471  -10.5558 O   0  0  0  0  0  0  0  0  0  0  0  0
   15.1636   -3.6671  -10.1715 C   0  0  0  0  0  0  0  0  0  0  0  0
   14.0452   -3.5773  -10.7045 O   0  0  0  0  0  0  0  0  0  0  0  0
   18.1893   -2.5780  -12.7544 O   0  0  0  0  0  0  0  0  0  0  0  0
   15.4683   -2.6782   -9.2144 O   0  0  0  0  0  0  0  0  0  0  0  0
  2  1  1  1
  3  2  1  0
  4 11  1  0
  4  2  1  0
  5  4  2  0
  6  7  1  0
  7  8  1  0
  8  9  1  0
 10  9  1  1
 10 11  1  0
 12 14  1  0
 12 10  1  0
 13 12  2  0
 15 14  1  0
 15 16  1  6
 17 16  1  0
 17 21  1  0
 18 17  2  0
 19 15  1  0
 20 19  2  0
 22 19  1  0
M  END
$$$$
