AMD.pdb
     RDKit          3D

 22 21  0  0  1  0  0  0  0  0999 V2000
   20.2327  -13.3379  -16.5210 C   0  0  0  0  0  0  0  0  0  0  0  0
   20.6401  -12.0483  -17.1485 C   0  0  2  0  0  0  0  0  0  0  0  0
   21.4704  -12.3084  -18.2975 N   0  0  0  0  0  0  0  0  0  0  0  0
   21.2706  -11.0869  -16.2033 C   0  0  0  0  0  0  0  0  0  0  0  0
   20.7106  -10.7541  -15.1253 O   0  0  0  0  0  0  0  0  0  0  0  0
   27.6965  -12.8034  -15.3518 C   0  0  0  0  0  0  0  0  0  0  0  0
   26.9635  -11.2593  -15.9159 S   0  0  0  0  0  0  0  0  0  0  0  0
   25.2083  -11.1368  -15.3967 C   0  0  0  0  0  0  0  0  0  0  0  0
   24.7153   -9.8031  -15.9255 C   0  0  0  0  0  0  0  0  0  0  0  0
   23.2260   -9.6183  -15.6970 C   0  0  2  0  0  0  0  0  0  0  0  0
   22.5379  -10.5567  -16.5703 N   0  0  0  0  0  0  0  0  0  0  0  0
   22.9248   -8.2069  -16.0943 C   0  0  0  0  0  0  0  0  0  0  0  0
   22.8644   -7.8584  -17.2984 O   0  0  0  0  0  0  0  0  0  0  0  0
   22.7012   -7.2366  -15.0969 N   0  0  0  0  0  0  0  0  0  0  0  0
   22.2447   -5.8672  -15.3839 C   0  0  1  0  0  0  0  0  0  0  0  0
   20.8816   -5.9079  -16.0302 C   0  0  0  0  0  0  0  0  0  0  0  0
   20.4339   -4.5533  -16.3479 C   0  0  0  0  0  0  0  0  0  0  0  0
   19.4802   -4.0531  -15.6683 O   0  0  0  0  0  0  0  0  0  0  0  0
   22.2051   -5.1925  -14.0684 C   0  0  0  0  0  0  0  0  0  0  0  0
   22.2568   -5.8026  -12.9877 O   0  0  0  0  0  0  0  0  0  0  0  0
   21.0099   -3.8200  -17.3507 O   0  0  0  0  0  0  0  0  0  0  0  0
   22.1037   -3.7896  -13.9768 O   0  0  0  0  0  0  0  0  0  0  0  0
  2  1  1  1
  3  2  1  0
  4 11  1  0
  4  2  1  0
  5  4  2  0
  6  7  1  0
  7  8  1  0
  8  9  1  0
 10  9  1  6
 10 11  1  0
 12 14  1  0
 12 10  1  0
 13 12  2  0
 15 14  1  0
 15 16  1  1
 17 16  1  0
 17 21  1  0
 18 17  2  0
 19 15  1  0
 20 19  2  0
 22 19  1  0
M  END
$$$$
