AMD.pdb
     RDKit          3D

 22 21  0  0  1  0  0  0  0  0999 V2000
   27.6084  -18.5932  -15.3278 C   0  0  0  0  0  0  0  0  0  0  0  0
   27.9157  -19.9264  -14.7354 C   0  0  2  0  0  0  0  0  0  0  0  0
   28.6335  -20.7294  -15.6931 N   0  0  0  0  0  0  0  0  0  0  0  0
   26.7273  -20.6335  -14.1849 C   0  0  0  0  0  0  0  0  0  0  0  0
   26.1416  -21.5442  -14.8284 O   0  0  0  0  0  0  0  0  0  0  0  0
   26.0384  -19.1748   -8.1569 C   0  0  0  0  0  0  0  0  0  0  0  0
   26.2192  -20.9576   -8.3254 S   0  0  0  0  0  0  0  0  0  0  0  0
   26.2717  -21.4486  -10.0923 C   0  0  0  0  0  0  0  0  0  0  0  0
   25.2160  -20.6072  -10.7843 C   0  0  0  0  0  0  0  0  0  0  0  0
   25.1438  -20.8996  -12.2721 C   0  0  2  0  0  0  0  0  0  0  0  0
   26.2782  -20.2355  -12.8959 N   0  0  0  0  0  0  0  0  0  0  0  0
   23.8553  -20.3008  -12.7431 C   0  0  0  0  0  0  0  0  0  0  0  0
   23.7574  -19.0815  -13.0237 O   0  0  0  0  0  0  0  0  0  0  0  0
   22.7166  -21.1201  -12.8786 N   0  0  0  0  0  0  0  0  0  0  0  0
   21.5724  -20.7840  -13.7411 C   0  0  1  0  0  0  0  0  0  0  0  0
   21.9113  -21.0863  -15.1802 C   0  0  0  0  0  0  0  0  0  0  0  0
   20.8162  -20.6695  -16.0541 C   0  0  0  0  0  0  0  0  0  0  0  0
   19.8057  -20.0969  -15.5316 O   0  0  0  0  0  0  0  0  0  0  0  0
   20.4622  -21.6303  -13.2525 C   0  0  0  0  0  0  0  0  0  0  0  0
   20.5850  -22.8422  -13.0094 O   0  0  0  0  0  0  0  0  0  0  0  0
   20.8521  -20.8813  -17.4064 O   0  0  0  0  0  0  0  0  0  0  0  0
   19.1797  -21.0876  -13.0345 O   0  0  0  0  0  0  0  0  0  0  0  0
  2  1  1  6
  3  2  1  0
  4 11  1  0
  4  2  1  0
  5  4  2  0
  6  7  1  0
  7  8  1  0
  8  9  1  0
 10  9  1  1
 10 11  1  0
 12 14  1  0
 12 10  1  0
 13 12  2  0
 15 14  1  0
 15 16  1  6
 17 16  1  0
 17 21  1  0
 18 17  2  0
 19 15  1  0
 20 19  2  0
 22 19  1  0
M  END
$$$$
