VGT.pdb
     RDKit          3D

 19 18  0  0  1  0  0  0  0  0999 V2000
7963164.5000125767.76569713469.0000 C   0  0  0  0  0  0  0  0  0  0  0  0
7963162.0000125766.82819713467.0000 C   0  0  2  0  0  0  0  0  0  0  0  0
7963164.0000125769.07819713470.0000 C   0  0  0  0  0  0  0  0  0  0  0  0
7963162.0000125766.45319713469.0000 C   0  0  1  0  0  0  0  0  0  0  0  0
7963164.0000125766.42199713471.0000 N   0  0  0  0  0  0  0  0  0  0  0  0
7963161.0000125766.70319713470.0000 C   0  0  0  0  0  0  0  0  0  0  0  0
7963161.0000125766.10949713469.0000 O   0  0  0  0  0  0  0  0  0  0  0  0
7963160.0000125766.54699713471.0000 N   0  0  0  0  0  0  0  0  0  0  0  0
7963159.0000125767.35949713471.0000 C   0  0  0  0  0  0  0  0  0  0  0  0
7963159.0000125768.85949713471.0000 C   0  0  0  0  0  0  0  0  0  0  0  0
7963160.0000125769.64069713472.0000 O   0  0  0  0  0  0  0  0  0  0  0  0
7963157.5000125770.89069713468.0000 C   0  0  0  0  0  0  0  0  0  0  0  0
7963157.0000125769.42199713467.0000 C   0  0  1  0  0  0  0  0  0  0  0  0
7963158.0000125769.45319713467.0000 O   0  0  0  0  0  0  0  0  0  0  0  0
7963158.5000125768.29699713469.0000 C   0  0  2  0  0  0  0  0  0  0  0  0
7963158.0000125769.64069713469.0000 N   0  0  0  0  0  0  0  0  0  0  0  0
7963158.0000125767.70319713467.0000 C   0  0  0  0  0  0  0  0  0  0  0  0
7963159.5000125768.10949713466.0000 O   0  0  0  0  0  0  0  0  0  0  0  0
7963160.0000125766.76569713469.0000 O   0  0  0  0  0  0  0  0  0  0  0  0
  2  1  1  6
  2  4  1  0
  3  2  1  0
  4  5  1  6
  6  4  1  0
  6  7  2  0
  8  6  1  0
  9  8  1  0
  9 10  1  0
 10 11  2  0
 10 16  1  0
 13 12  1  1
 13 15  1  0
 14 13  1  0
 15 17  1  0
 15 16  1  6
 17 18  2  0
 17 19  1  0
M  END
$$$$
