VGT.pdb
     RDKit          3D

 19 18  0  0  1  0  0  0  0  0999 V2000
   16.7624  -16.5721  -17.0931 C   0  0  0  0  0  0  0  0  0  0  0  0
   16.7235  -15.0637  -16.9749 C   0  0  2  0  0  0  0  0  0  0  0  0
   17.6902  -14.4911  -17.9559 C   0  0  0  0  0  0  0  0  0  0  0  0
   16.9010  -14.5924  -15.5675 C   0  0  2  0  0  0  0  0  0  0  0  0
   15.9642  -15.2759  -14.7024 N   0  0  0  0  0  0  0  0  0  0  0  0
   16.7637  -13.1367  -15.3959 C   0  0  0  0  0  0  0  0  0  0  0  0
   15.6366  -12.5779  -15.1890 O   0  0  0  0  0  0  0  0  0  0  0  0
   17.8757  -12.2757  -15.4510 N   0  0  0  0  0  0  0  0  0  0  0  0
   17.7218  -10.8203  -15.3023 C   0  0  0  0  0  0  0  0  0  0  0  0
   19.0377  -10.1549  -15.2484 C   0  0  0  0  0  0  0  0  0  0  0  0
   20.0690  -10.8707  -15.1946 O   0  0  0  0  0  0  0  0  0  0  0  0
   20.3124   -7.7577  -17.7327 C   0  0  0  0  0  0  0  0  0  0  0  0
   20.4949   -7.1009  -16.4038 C   0  0  1  0  0  0  0  0  0  0  0  0
   19.4690   -6.1481  -16.2112 O   0  0  0  0  0  0  0  0  0  0  0  0
   20.4490   -8.0682  -15.2432 C   0  0  2  0  0  0  0  0  0  0  0  0
   19.1973   -8.7602  -15.2542 N   0  0  0  0  0  0  0  0  0  0  0  0
   20.7835   -7.4492  -13.9649 C   0  0  0  0  0  0  0  0  0  0  0  0
   19.9322   -7.3211  -13.0555 O   0  0  0  0  0  0  0  0  0  0  0  0
   22.0657   -6.9871  -13.7336 O   0  0  0  0  0  0  0  0  0  0  0  0
  2  1  1  1
  2  4  1  0
  3  2  1  0
  4  5  1  1
  6  4  1  0
  6  7  2  0
  8  6  1  0
  9  8  1  0
  9 10  1  0
 10 11  2  0
 10 16  1  0
 13 12  1  6
 13 15  1  0
 14 13  1  0
 15 17  1  0
 15 16  1  1
 17 18  2  0
 17 19  1  0
M  END
$$$$
