LEG.pdb
     RDKit          3D

 22 21  0  0  1  0  0  0  0  0999 V2000
   23.9396  -12.4581  -20.4211 C   0  0  0  0  0  0  0  0  0  0  0  0
   22.4434  -12.3602  -20.3212 C   0  0  2  0  0  0  0  0  0  0  0  0
   21.8074  -12.8009  -21.6217 C   0  0  0  0  0  0  0  0  0  0  0  0
   21.9588  -10.9827  -20.0115 C   0  0  0  0  0  0  0  0  0  0  0  0
   22.3776  -10.5108  -18.6370 C   0  0  2  0  0  0  0  0  0  0  0  0
   22.2991  -11.5381  -17.6494 N   0  0  0  0  0  0  0  0  0  0  0  0
   21.6587   -9.2727  -18.2427 C   0  0  0  0  0  0  0  0  0  0  0  0
   21.6378   -8.2958  -19.0099 O   0  0  0  0  0  0  0  0  0  0  0  0
   20.9777   -9.1543  -16.9963 N   0  0  0  0  0  0  0  0  0  0  0  0
   20.1483   -7.9933  -16.6711 C   0  0  1  0  0  0  0  0  0  0  0  0
   18.7993   -8.4417  -16.1273 C   0  0  0  0  0  0  0  0  0  0  0  0
   17.9339   -7.2664  -15.7353 C   0  0  0  0  0  0  0  0  0  0  0  0
   16.6194   -7.7863  -15.3287 C   0  0  0  0  0  0  0  0  0  0  0  0
   16.4227   -9.0409  -15.2932 O   0  0  0  0  0  0  0  0  0  0  0  0
   20.8542   -7.2172  -15.6232 C   0  0  0  0  0  0  0  0  0  0  0  0
   21.6331   -7.7820  -14.8052 O   0  0  0  0  0  0  0  0  0  0  0  0
   15.5409   -6.9907  -14.9689 O   0  0  0  0  0  0  0  0  0  0  0  0
   20.7074   -5.8153  -15.4690 N   0  0  0  0  0  0  0  0  0  0  0  0
   21.4508   -5.0725  -14.4481 C   0  0  0  0  0  0  0  0  0  0  0  0
   22.6173   -4.3911  -15.0108 C   0  0  0  0  0  0  0  0  0  0  0  0
   23.3746   -3.5666  -14.1959 O   0  0  0  0  0  0  0  0  0  0  0  0
   22.9629   -4.5224  -16.2065 O   0  0  0  0  0  0  0  0  0  0  0  0
  2  1  1  6
  2  3  1  0
  4  2  1  0
  4  5  1  0
  5  7  1  0
  5  6  1  1
  7  9  1  0
  7  8  2  0
  9 10  1  0
 10 15  1  0
 10 11  1  1
 12 13  1  0
 12 11  1  0
 13 14  2  0
 15 16  2  0
 17 13  1  0
 18 15  1  0
 18 19  1  0
 19 20  1  0
 20 22  2  0
 20 21  1  0
M  END
$$$$
