LEG.pdb
     RDKit          3D

 22 21  0  0  1  0  0  0  0  0999 V2000
   22.7262  -10.8069  -13.5604 C   0  0  0  0  0  0  0  0  0  0  0  0
   23.1093  -10.8641  -15.0124 C   0  0  2  0  0  0  0  0  0  0  0  0
   24.5506  -10.4365  -15.1852 C   0  0  0  0  0  0  0  0  0  0  0  0
   22.2611   -9.9983  -15.8839 C   0  0  0  0  0  0  0  0  0  0  0  0
   20.7845  -10.2916  -15.7397 C   0  0  2  0  0  0  0  0  0  0  0  0
   20.4279  -11.5909  -16.2108 N   0  0  0  0  0  0  0  0  0  0  0  0
   19.9535   -9.2130  -16.3323 C   0  0  0  0  0  0  0  0  0  0  0  0
   19.9004   -9.0770  -17.5660 O   0  0  0  0  0  0  0  0  0  0  0  0
   19.1987   -8.3084  -15.5303 N   0  0  0  0  0  0  0  0  0  0  0  0
   18.3757   -7.2503  -16.1173 C   0  0  1  0  0  0  0  0  0  0  0  0
   16.9111   -7.4583  -15.7593 C   0  0  0  0  0  0  0  0  0  0  0  0
   16.3267   -8.6607  -16.4641 C   0  0  0  0  0  0  0  0  0  0  0  0
   14.9434   -8.8337  -15.9954 C   0  0  0  0  0  0  0  0  0  0  0  0
   14.5100   -8.1206  -15.0373 O   0  0  0  0  0  0  0  0  0  0  0  0
   18.8306   -5.9595  -15.5467 C   0  0  0  0  0  0  0  0  0  0  0  0
   18.2821   -4.8705  -15.8754 O   0  0  0  0  0  0  0  0  0  0  0  0
   14.0433   -9.7430  -16.5327 O   0  0  0  0  0  0  0  0  0  0  0  0
   19.8914   -5.8590  -14.6111 N   0  0  0  0  0  0  0  0  0  0  0  0
   20.2782   -4.5741  -14.0230 C   0  0  0  0  0  0  0  0  0  0  0  0
   21.3255   -3.9115  -14.8013 C   0  0  0  0  0  0  0  0  0  0  0  0
   21.9391   -2.7835  -14.2832 O   0  0  0  0  0  0  0  0  0  0  0  0
   21.6937   -4.3237  -15.9243 O   0  0  0  0  0  0  0  0  0  0  0  0
  2  1  1  1
  2  3  1  0
  4  2  1  0
  4  5  1  0
  5  7  1  0
  5  6  1  6
  7  9  1  0
  7  8  2  0
  9 10  1  0
 10 15  1  0
 10 11  1  1
 12 13  1  0
 12 11  1  0
 13 14  2  0
 15 16  2  0
 17 13  1  0
 18 15  1  0
 18 19  1  0
 19 20  1  0
 20 22  2  0
 20 21  1  0
M  END
$$$$
