LEG.pdb
     RDKit          3D

 22 21  0  0  1  0  0  0  0  0999 V2000
   18.2558  -15.4361    1.5972 C   0  0  0  0  0  0  0  0  0  0  0  0
   17.5989  -14.6085    2.6657 C   0  0  2  0  0  0  0  0  0  0  0  0
   18.4885  -13.4423    3.0380 C   0  0  0  0  0  0  0  0  0  0  0  0
   17.2971  -15.3771    3.9093 C   0  0  0  0  0  0  0  0  0  0  0  0
   16.2601  -16.4563    3.6926 C   0  0  2  0  0  0  0  0  0  0  0  0
   14.9482  -15.9327    3.4879 N   0  0  0  0  0  0  0  0  0  0  0  0
   16.3121  -17.4857    4.7617 C   0  0  0  0  0  0  0  0  0  0  0  0
   15.6581  -17.3294    5.8062 O   0  0  0  0  0  0  0  0  0  0  0  0
   17.0961  -18.6694    4.6385 N   0  0  0  0  0  0  0  0  0  0  0  0
   17.2145  -19.6399    5.7275 C   0  0  1  0  0  0  0  0  0  0  0  0
   17.4894  -21.0296    5.1708 C   0  0  0  0  0  0  0  0  0  0  0  0
   16.2252  -21.6982    4.6821 C   0  0  0  0  0  0  0  0  0  0  0  0
   16.5958  -22.9931    4.0912 C   0  0  0  0  0  0  0  0  0  0  0  0
   17.1181  -23.0298    2.9336 O   0  0  0  0  0  0  0  0  0  0  0  0
   18.3596  -19.2269    6.5740 C   0  0  0  0  0  0  0  0  0  0  0  0
   19.4186  -18.7674    6.0616 O   0  0  0  0  0  0  0  0  0  0  0  0
   16.4151  -24.2186    4.7166 O   0  0  0  0  0  0  0  0  0  0  0  0
   18.3468  -19.3167    7.9891 N   0  0  0  0  0  0  0  0  0  0  0  0
   19.5035  -18.9176    8.7949 C   0  0  0  0  0  0  0  0  0  0  0  0
   20.4876  -19.9948    8.9072 C   0  0  0  0  0  0  0  0  0  0  0  0
   21.6591  -19.7674    9.6095 O   0  0  0  0  0  0  0  0  0  0  0  0
   20.3148  -21.1222    8.3918 O   0  0  0  0  0  0  0  0  0  0  0  0
  2  1  1  6
  2  3  1  0
  4  2  1  0
  4  5  1  0
  5  7  1  0
  5  6  1  1
  7  9  1  0
  7  8  2  0
  9 10  1  0
 10 15  1  0
 10 11  1  6
 12 13  1  0
 12 11  1  0
 13 14  2  0
 15 16  2  0
 17 13  1  0
 18 15  1  0
 18 19  1  0
 19 20  1  0
 20 22  2  0
 20 21  1  0
M  END
$$$$
