LEG.pdb
     RDKit          3D

 22 21  0  0  1  0  0  0  0  0999 V2000
   16.6607  -10.9356  -18.2326 C   0  0  0  0  0  0  0  0  0  0  0  0
   16.1073  -10.7011  -16.8553 C   0  0  2  0  0  0  0  0  0  0  0  0
   14.7723   -9.9944  -16.9469 C   0  0  0  0  0  0  0  0  0  0  0  0
   17.0055   -9.8846  -15.9866 C   0  0  0  0  0  0  0  0  0  0  0  0
   18.3678  -10.5141  -15.7987 C   0  0  2  0  0  0  0  0  0  0  0  0
   18.3207  -11.7246  -15.0440 N   0  0  0  0  0  0  0  0  0  0  0  0
   19.3513   -9.5375  -15.2655 C   0  0  0  0  0  0  0  0  0  0  0  0
   19.3333   -9.2330  -14.0613 O   0  0  0  0  0  0  0  0  0  0  0  0
   20.3351   -8.9221  -16.0927 N   0  0  0  0  0  0  0  0  0  0  0  0
   21.3759   -8.0508  -15.5456 C   0  0  1  0  0  0  0  0  0  0  0  0
   22.7140   -8.3426  -16.2095 C   0  0  0  0  0  0  0  0  0  0  0  0
   23.8295   -7.5184  -15.6093 C   0  0  0  0  0  0  0  0  0  0  0  0
   25.0883   -7.9188  -16.2561 C   0  0  0  0  0  0  0  0  0  0  0  0
   25.4678   -7.3272  -17.3145 O   0  0  0  0  0  0  0  0  0  0  0  0
   20.9891   -6.6501  -15.8404 C   0  0  0  0  0  0  0  0  0  0  0  0
   20.4677   -6.3355  -16.9469 O   0  0  0  0  0  0  0  0  0  0  0  0
   25.9228   -8.9240  -15.7883 O   0  0  0  0  0  0  0  0  0  0  0  0
   21.1735   -5.5871  -14.9202 N   0  0  0  0  0  0  0  0  0  0  0  0
   20.7559   -4.2182  -15.2335 C   0  0  0  0  0  0  0  0  0  0  0  0
   20.9642   -3.3125  -14.1031 C   0  0  0  0  0  0  0  0  0  0  0  0
   20.7264   -1.9587  -14.2711 O   0  0  0  0  0  0  0  0  0  0  0  0
   21.3511   -3.7117  -12.9818 O   0  0  0  0  0  0  0  0  0  0  0  0
  2  1  1  6
  2  3  1  0
  4  2  1  0
  4  5  1  0
  5  7  1  0
  5  6  1  1
  7  9  1  0
  7  8  2  0
  9 10  1  0
 10 15  1  0
 10 11  1  6
 12 13  1  0
 12 11  1  0
 13 14  2  0
 15 16  2  0
 17 13  1  0
 18 15  1  0
 18 19  1  0
 19 20  1  0
 20 22  2  0
 20 21  1  0
M  END
$$$$
