LEG.pdb
     RDKit          3D

 22 21  0  0  1  0  0  0  0  0999 V2000
   21.9669  -10.9470  -21.3808 C   0  0  0  0  0  0  0  0  0  0  0  0
   21.1267  -11.9737  -20.6750 C   0  0  2  0  0  0  0  0  0  0  0  0
   19.9914  -12.4188  -21.5711 C   0  0  0  0  0  0  0  0  0  0  0  0
   20.5403  -11.4807  -19.3938 C   0  0  0  0  0  0  0  0  0  0  0  0
   21.5888  -10.9845  -18.4235 C   0  0  2  0  0  0  0  0  0  0  0  0
   22.4293  -12.0284  -17.9326 N   0  0  0  0  0  0  0  0  0  0  0  0
   20.9862  -10.1685  -17.3391 C   0  0  0  0  0  0  0  0  0  0  0  0
   20.3953  -10.7249  -16.3986 O   0  0  0  0  0  0  0  0  0  0  0  0
   21.0579   -8.7451  -17.3305 N   0  0  0  0  0  0  0  0  0  0  0  0
   20.5620   -7.9487  -16.2073 C   0  0  1  0  0  0  0  0  0  0  0  0
   21.6812   -7.0952  -15.6283 C   0  0  0  0  0  0  0  0  0  0  0  0
   21.1958   -6.2340  -14.4851 C   0  0  0  0  0  0  0  0  0  0  0  0
   22.3187   -5.3947  -14.0404 C   0  0  0  0  0  0  0  0  0  0  0  0
   23.4591   -5.5302  -14.5838 O   0  0  0  0  0  0  0  0  0  0  0  0
   19.4971   -7.0566  -16.7256 C   0  0  0  0  0  0  0  0  0  0  0  0
   19.6779   -6.3566  -17.7612 O   0  0  0  0  0  0  0  0  0  0  0  0
   22.2304   -4.4349  -13.0421 O   0  0  0  0  0  0  0  0  0  0  0  0
   18.2270   -6.9291  -16.1080 N   0  0  0  0  0  0  0  0  0  0  0  0
   17.2410   -5.9505  -16.5734 C   0  0  0  0  0  0  0  0  0  0  0  0
   16.4756   -6.4492  -17.7167 C   0  0  0  0  0  0  0  0  0  0  0  0
   15.9041   -5.5420  -18.5929 O   0  0  0  0  0  0  0  0  0  0  0  0
   16.3139   -7.6703  -17.9386 O   0  0  0  0  0  0  0  0  0  0  0  0
  2  1  1  6
  2  3  1  0
  4  2  1  0
  4  5  1  0
  5  7  1  0
  5  6  1  1
  7  9  1  0
  7  8  2  0
  9 10  1  0
 10 15  1  0
 10 11  1  6
 12 13  1  0
 12 11  1  0
 13 14  2  0
 15 16  2  0
 17 13  1  0
 18 15  1  0
 18 19  1  0
 19 20  1  0
 20 22  2  0
 20 21  1  0
M  END
$$$$
