LMG.pdb
     RDKit          3D

 21 20  0  0  1  0  0  0  0  0999 V2000
    8.6210  -12.3241   20.2889 C   0  0  0  0  0  0  0  0  0  0  0  0
    7.9261  -13.6353   19.9019 C   0  0  2  0  0  0  0  0  0  0  0  0
    6.5515  -13.3105   19.3619 C   0  0  0  0  0  0  0  0  0  0  0  0
    7.8489  -14.4542   21.1505 C   0  0  0  0  0  0  0  0  0  0  0  0
    9.2103  -14.6617   21.7284 C   0  0  2  0  0  0  0  0  0  0  0  0
    9.9501  -15.5895   20.9199 N   0  0  0  0  0  0  0  0  0  0  0  0
    9.0784  -15.1435   23.1368 C   0  0  0  0  0  0  0  0  0  0  0  0
   10.0283  -15.7864   23.6349 O   0  0  0  0  0  0  0  0  0  0  0  0
    6.1417  -10.6138   26.2659 C   0  0  0  0  0  0  0  0  0  0  0  0
    6.3131  -12.1592   27.2050 S   0  0  0  0  0  0  0  0  0  0  0  0
    7.5520  -13.2026   26.3539 C   0  0  0  0  0  0  0  0  0  0  0  0
    6.8828  -14.4969   25.9979 C   0  0  0  0  0  0  0  0  0  0  0  0
    7.8288  -15.3905   25.2590 C   0  0  2  0  0  0  0  0  0  0  0  0
    7.9145  -14.8789   23.8800 N   0  0  0  0  0  0  0  0  0  0  0  0
    7.4221  -16.8116   25.2189 C   0  0  0  0  0  0  0  0  0  0  0  0
    6.6456  -17.3173   26.0533 O   0  0  0  0  0  0  0  0  0  0  0  0
    7.9182  -17.6795   24.1944 N   0  0  0  0  0  0  0  0  0  0  0  0
    9.2139  -18.3168   24.3470 C   0  0  0  0  0  0  0  0  0  0  0  0
    9.1330  -19.2988   25.4529 C   0  0  0  0  0  0  0  0  0  0  0  0
    9.3172  -18.8645   26.7699 O   0  0  0  0  0  0  0  0  0  0  0  0
    8.9037  -20.5054   25.2305 O   0  0  0  0  0  0  0  0  0  0  0  0
  2  3  1  1
  2  1  1  0
  4  5  1  0
  4  2  1  0
  5  6  1  6
  5  7  1  0
  7  8  2  0
  9 10  1  0
 10 11  1  0
 11 12  1  0
 13 12  1  1
 14  7  1  0
 14 13  1  0
 15 13  1  0
 15 16  2  0
 17 18  1  0
 17 15  1  0
 19 18  1  0
 20 19  1  0
 21 19  2  0
M  END
$$$$
