LMG.pdb
     RDKit          3D

 21 20  0  0  1  0  0  0  0  0999 V2000
    8.4581  -14.4527   18.5245 C   0  0  0  0  0  0  0  0  0  0  0  0
    7.6180  -13.7629   19.6063 C   0  0  2  0  0  0  0  0  0  0  0  0
    7.1662  -12.4188   19.0809 C   0  0  0  0  0  0  0  0  0  0  0  0
    8.5067  -13.6183   20.7999 C   0  0  0  0  0  0  0  0  0  0  0  0
    8.7260  -14.9420   21.4558 C   0  0  2  0  0  0  0  0  0  0  0  0
    7.5817  -15.7854   21.2532 N   0  0  0  0  0  0  0  0  0  0  0  0
    9.0026  -14.7308   22.9091 C   0  0  0  0  0  0  0  0  0  0  0  0
   10.0018  -14.0508   23.2297 O   0  0  0  0  0  0  0  0  0  0  0  0
    7.3306  -11.6318   27.9833 C   0  0  0  0  0  0  0  0  0  0  0  0
    6.0898  -12.3200   26.8490 S   0  0  0  0  0  0  0  0  0  0  0  0
    6.9750  -13.1900   25.5046 C   0  0  0  0  0  0  0  0  0  0  0  0
    7.2962  -14.5703   25.9960 C   0  0  0  0  0  0  0  0  0  0  0  0
    8.5131  -15.1024   25.3067 C   0  0  2  0  0  0  0  0  0  0  0  0
    8.1586  -15.2840   23.8883 N   0  0  0  0  0  0  0  0  0  0  0  0
    9.0081  -16.3874   25.8455 C   0  0  0  0  0  0  0  0  0  0  0  0
    9.2544  -16.5644   27.0551 O   0  0  0  0  0  0  0  0  0  0  0  0
    9.2279  -17.5025   24.9752 N   0  0  0  0  0  0  0  0  0  0  0  0
    9.6606  -18.7761   25.5219 C   0  0  0  0  0  0  0  0  0  0  0  0
   11.1402  -18.7861   25.5893 C   0  0  0  0  0  0  0  0  0  0  0  0
   11.8433  -19.8723   25.0574 O   0  0  0  0  0  0  0  0  0  0  0  0
   11.7698  -17.8435   26.1118 O   0  0  0  0  0  0  0  0  0  0  0  0
  2  3  1  6
  2  1  1  0
  4  5  1  0
  4  2  1  0
  5  6  1  1
  5  7  1  0
  7  8  2  0
  9 10  1  0
 10 11  1  0
 11 12  1  0
 13 12  1  1
 14  7  1  0
 14 13  1  0
 15 13  1  0
 15 16  2  0
 17 18  1  0
 17 15  1  0
 19 18  1  0
 20 19  1  0
 21 19  2  0
M  END
$$$$
