LMG.pdb
     RDKit          3D

 21 20  0  0  1  0  0  0  0  0999 V2000
    8.6129  -16.6795   18.9152 C   0  0  0  0  0  0  0  0  0  0  0  0
    7.8240  -15.8472   19.9334 C   0  0  2  0  0  0  0  0  0  0  0  0
    6.3482  -16.0992   19.7210 C   0  0  0  0  0  0  0  0  0  0  0  0
    8.1824  -14.4186   19.6761 C   0  0  0  0  0  0  0  0  0  0  0  0
    7.5699  -13.5288   20.7073 C   0  0  2  0  0  0  0  0  0  0  0  0
    7.7799  -12.1527   20.3551 N   0  0  0  0  0  0  0  0  0  0  0  0
    8.1558  -13.8495   22.0441 C   0  0  0  0  0  0  0  0  0  0  0  0
    9.3191  -13.4622   22.2899 O   0  0  0  0  0  0  0  0  0  0  0  0
    6.3800  -10.5333   26.6664 C   0  0  0  0  0  0  0  0  0  0  0  0
    7.0151  -12.2325   26.7623 S   0  0  0  0  0  0  0  0  0  0  0  0
    6.5413  -13.1000   25.2225 C   0  0  0  0  0  0  0  0  0  0  0  0
    6.9983  -14.5231   25.3482 C   0  0  0  0  0  0  0  0  0  0  0  0
    8.0301  -14.8362   24.3106 C   0  0  2  0  0  0  0  0  0  0  0  0
    7.4151  -14.5685   22.9988 N   0  0  0  0  0  0  0  0  0  0  0  0
    8.5182  -16.2317   24.3356 C   0  0  0  0  0  0  0  0  0  0  0  0
    8.0010  -17.1173   25.0450 O   0  0  0  0  0  0  0  0  0  0  0  0
    9.6307  -16.6257   23.5255 N   0  0  0  0  0  0  0  0  0  0  0  0
   10.9839  -16.3100   23.9468 C   0  0  0  0  0  0  0  0  0  0  0  0
   11.4051  -17.2953   24.9694 C   0  0  0  0  0  0  0  0  0  0  0  0
   11.8786  -18.5468   24.5613 O   0  0  0  0  0  0  0  0  0  0  0  0
   11.3451  -17.0287   26.1873 O   0  0  0  0  0  0  0  0  0  0  0  0
  2  3  1  6
  2  1  1  0
  4  5  1  0
  4  2  1  0
  5  6  1  6
  5  7  1  0
  7  8  2  0
  9 10  1  0
 10 11  1  0
 11 12  1  0
 13 12  1  1
 14  7  1  0
 14 13  1  0
 15 13  1  0
 15 16  2  0
 17 18  1  0
 17 15  1  0
 19 18  1  0
 20 19  1  0
 21 19  2  0
M  END
$$$$
