LMG.pdb
     RDKit          3D

 21 20  0  0  1  0  0  0  0  0999 V2000
    9.2926  -13.0133   19.1275 C   0  0  0  0  0  0  0  0  0  0  0  0
    7.9576  -13.7677   19.1064 C   0  0  2  0  0  0  0  0  0  0  0  0
    6.8988  -12.8564   18.5274 C   0  0  0  0  0  0  0  0  0  0  0  0
    7.6574  -14.1301   20.5256 C   0  0  0  0  0  0  0  0  0  0  0  0
    8.7370  -14.9963   21.0868 C   0  0  2  0  0  0  0  0  0  0  0  0
    8.3001  -16.3636   21.1223 N   0  0  0  0  0  0  0  0  0  0  0  0
    9.1064  -14.5018   22.4477 C   0  0  0  0  0  0  0  0  0  0  0  0
    9.4192  -13.2980   22.5765 O   0  0  0  0  0  0  0  0  0  0  0  0
    6.5543  -11.9358   28.0075 C   0  0  0  0  0  0  0  0  0  0  0  0
    7.3579  -12.4446   26.4600 S   0  0  0  0  0  0  0  0  0  0  0  0
    6.5389  -13.9724   25.8743 C   0  0  0  0  0  0  0  0  0  0  0  0
    7.1965  -14.3709   24.5864 C   0  0  0  0  0  0  0  0  0  0  0  0
    8.5842  -14.8707   24.8389 C   0  0  2  0  0  0  0  0  0  0  0  0
    9.1012  -15.3709   23.5532 N   0  0  0  0  0  0  0  0  0  0  0  0
    8.6711  -15.9519   25.8439 C   0  0  0  0  0  0  0  0  0  0  0  0
    8.3603  -15.7903   27.0407 O   0  0  0  0  0  0  0  0  0  0  0  0
    9.1271  -17.2560   25.4690 N   0  0  0  0  0  0  0  0  0  0  0  0
    9.2153  -18.3087   26.4651 C   0  0  0  0  0  0  0  0  0  0  0  0
   10.5567  -18.2590   27.0913 C   0  0  0  0  0  0  0  0  0  0  0  0
   11.4413  -17.2350   26.7364 O   0  0  0  0  0  0  0  0  0  0  0  0
   10.9110  -19.1139   27.9289 O   0  0  0  0  0  0  0  0  0  0  0  0
  2  3  1  1
  2  1  1  0
  4  5  1  0
  4  2  1  0
  5  6  1  1
  5  7  1  0
  7  8  2  0
  9 10  1  0
 10 11  1  0
 11 12  1  0
 13 12  1  6
 14  7  1  0
 14 13  1  0
 15 13  1  0
 15 16  2  0
 17 18  1  0
 17 15  1  0
 19 18  1  0
 20 19  1  0
 21 19  2  0
M  END
$$$$
