LMG.pdb
     RDKit          3D

 21 20  0  0  1  0  0  0  0  0999 V2000
    9.2005  -13.5047   20.6025 C   0  0  0  0  0  0  0  0  0  0  0  0
    7.7859  -13.7960   20.0869 C   0  0  2  0  0  0  0  0  0  0  0  0
    7.1744  -12.5012   19.6009 C   0  0  0  0  0  0  0  0  0  0  0  0
    7.0265  -14.3652   21.2423 C   0  0  0  0  0  0  0  0  0  0  0  0
    7.8369  -15.4060   21.9427 C   0  0  2  0  0  0  0  0  0  0  0  0
    6.9749  -16.4256   22.4708 N   0  0  0  0  0  0  0  0  0  0  0  0
    8.6450  -14.7576   23.0196 C   0  0  0  0  0  0  0  0  0  0  0  0
    8.2241  -13.6894   23.5150 O   0  0  0  0  0  0  0  0  0  0  0  0
   10.6051  -13.5384   28.6239 C   0  0  0  0  0  0  0  0  0  0  0  0
    9.1984  -13.9288   27.5429 S   0  0  0  0  0  0  0  0  0  0  0  0
    9.2802  -15.7097   27.1310 C   0  0  0  0  0  0  0  0  0  0  0  0
    9.0515  -15.8416   25.6544 C   0  0  0  0  0  0  0  0  0  0  0  0
   10.1903  -15.2410   24.8917 C   0  0  2  0  0  0  0  0  0  0  0  0
    9.8476  -15.3366   23.4620 N   0  0  0  0  0  0  0  0  0  0  0  0
   11.4935  -15.9021   25.1177 C   0  0  0  0  0  0  0  0  0  0  0  0
   11.8722  -16.2855   26.2423 O   0  0  0  0  0  0  0  0  0  0  0  0
   12.3899  -16.1312   24.0254 N   0  0  0  0  0  0  0  0  0  0  0  0
   12.3327  -17.3813   23.2889 C   0  0  0  0  0  0  0  0  0  0  0  0
   12.9741  -18.4409   24.1010 C   0  0  0  0  0  0  0  0  0  0  0  0
   14.2769  -18.8467   23.7926 O   0  0  0  0  0  0  0  0  0  0  0  0
   12.3732  -18.9774   25.0544 O   0  0  0  0  0  0  0  0  0  0  0  0
  2  3  1  1
  2  1  1  0
  4  5  1  0
  4  2  1  0
  5  6  1  1
  5  7  1  0
  7  8  2  0
  9 10  1  0
 10 11  1  0
 11 12  1  0
 13 12  1  1
 14  7  1  0
 14 13  1  0
 15 13  1  0
 15 16  2  0
 17 18  1  0
 17 15  1  0
 19 18  1  0
 20 19  1  0
 21 19  2  0
M  END
$$$$
