LMG.pdb
     RDKit          3D

 21 20  0  0  1  0  0  0  0  0999 V2000
    9.4161  -13.9034   18.7762 C   0  0  0  0  0  0  0  0  0  0  0  0
    7.9491  -13.8130   19.2139 C   0  0  2  0  0  0  0  0  0  0  0  0
    7.3429  -12.5655   18.6115 C   0  0  0  0  0  0  0  0  0  0  0  0
    7.9593  -13.7554   20.7079 C   0  0  0  0  0  0  0  0  0  0  0  0
    8.5447  -15.0053   21.2785 C   0  0  2  0  0  0  0  0  0  0  0  0
    7.6138  -16.0899   21.1415 N   0  0  0  0  0  0  0  0  0  0  0  0
    8.9076  -14.7699   22.7089 C   0  0  0  0  0  0  0  0  0  0  0  0
    9.8818  -14.0268   22.9589 O   0  0  0  0  0  0  0  0  0  0  0  0
    6.1309  -10.5138   26.7457 C   0  0  0  0  0  0  0  0  0  0  0  0
    5.9935  -12.3242   26.6890 S   0  0  0  0  0  0  0  0  0  0  0  0
    7.4851  -12.9777   25.8546 C   0  0  0  0  0  0  0  0  0  0  0  0
    7.3523  -14.4707   25.7985 C   0  0  0  0  0  0  0  0  0  0  0  0
    8.5495  -15.0792   25.1384 C   0  0  2  0  0  0  0  0  0  0  0  0
    8.1702  -15.3702   23.7448 N   0  0  0  0  0  0  0  0  0  0  0  0
    9.0312  -16.3243   25.7741 C   0  0  0  0  0  0  0  0  0  0  0  0
    9.1920  -16.4374   27.0055 O   0  0  0  0  0  0  0  0  0  0  0  0
    9.3381  -17.4737   24.9780 N   0  0  0  0  0  0  0  0  0  0  0  0
    9.7585  -18.7082   25.6164 C   0  0  0  0  0  0  0  0  0  0  0  0
   11.2371  -18.7843   25.5759 C   0  0  0  0  0  0  0  0  0  0  0  0
   11.8808  -19.9038   26.1140 O   0  0  0  0  0  0  0  0  0  0  0  0
   11.9180  -17.8682   25.0708 O   0  0  0  0  0  0  0  0  0  0  0  0
  2  3  1  6
  2  1  1  0
  4  5  1  0
  4  2  1  0
  5  6  1  1
  5  7  1  0
  7  8  2  0
  9 10  1  0
 10 11  1  0
 11 12  1  0
 13 12  1  1
 14  7  1  0
 14 13  1  0
 15 13  1  0
 15 16  2  0
 17 18  1  0
 17 15  1  0
 19 18  1  0
 20 19  1  0
 21 19  2  0
M  END
$$$$
