LMG.pdb
     RDKit          3D

 21 20  0  0  1  0  0  0  0  0999 V2000
    6.2215  -14.0632   20.3344 C   0  0  0  0  0  0  0  0  0  0  0  0
    7.6280  -13.5614   20.6836 C   0  0  2  0  0  0  0  0  0  0  0  0
    7.8811  -12.2751   19.9300 C   0  0  0  0  0  0  0  0  0  0  0  0
    8.5747  -14.6408   20.2662 C   0  0  0  0  0  0  0  0  0  0  0  0
    8.6048  -15.7356   21.2816 C   0  0  2  0  0  0  0  0  0  0  0  0
    7.3169  -16.3654   21.3621 N   0  0  0  0  0  0  0  0  0  0  0  0
    9.0241  -15.1716   22.6004 C   0  0  0  0  0  0  0  0  0  0  0  0
   10.0462  -14.4522   22.6396 O   0  0  0  0  0  0  0  0  0  0  0  0
    6.7661  -12.0092   27.6359 C   0  0  0  0  0  0  0  0  0  0  0  0
    5.9336  -12.2507   26.0396 S   0  0  0  0  0  0  0  0  0  0  0  0
    7.0607  -13.1972   24.9525 C   0  0  0  0  0  0  0  0  0  0  0  0
    7.6355  -14.3184   25.7663 C   0  0  0  0  0  0  0  0  0  0  0  0
    8.7939  -14.9430   25.0542 C   0  0  2  0  0  0  0  0  0  0  0  0
    8.2860  -15.4450   23.7656 N   0  0  0  0  0  0  0  0  0  0  0  0
    9.4316  -16.0587   25.7857 C   0  0  0  0  0  0  0  0  0  0  0  0
   10.1913  -15.8836   26.7590 O   0  0  0  0  0  0  0  0  0  0  0  0
    9.1936  -17.4143   25.3922 N   0  0  0  0  0  0  0  0  0  0  0  0
   10.2968  -18.2444   24.9426 C   0  0  0  0  0  0  0  0  0  0  0  0
   11.2135  -18.4748   26.0829 C   0  0  0  0  0  0  0  0  0  0  0  0
   10.8770  -19.4264   27.0515 O   0  0  0  0  0  0  0  0  0  0  0  0
   12.2797  -17.8354   26.1945 O   0  0  0  0  0  0  0  0  0  0  0  0
  2  3  1  6
  2  1  1  0
  4  5  1  0
  4  2  1  0
  5  6  1  1
  5  7  1  0
  7  8  2  0
  9 10  1  0
 10 11  1  0
 11 12  1  0
 13 12  1  1
 14  7  1  0
 14 13  1  0
 15 13  1  0
 15 16  2  0
 17 18  1  0
 17 15  1  0
 19 18  1  0
 20 19  1  0
 21 19  2  0
M  END
$$$$
