IPY.pdb
     RDKit          3D

 28 29  0  0  1  0  0  0  0  0999 V2000
   26.8309  -14.3189  -16.6626 C   0  0  0  0  0  0  0  0  0  0  0  0
   27.1676  -15.5221  -17.4782 C   0  0  0  0  0  0  0  0  0  0  0  0
   26.7260  -16.8399  -16.9468 C   0  0  2  0  0  0  0  0  0  0  0  0
   27.5559  -17.0859  -15.6835 C   0  0  0  0  0  0  0  0  0  0  0  0
   27.0029  -17.9391  -17.9644 C   0  0  2  0  0  0  0  0  0  0  0  0
   26.4131  -17.6128  -19.2005 N   0  0  0  0  0  0  0  0  0  0  0  0
   26.5598  -19.2575  -17.4674 C   0  0  0  0  0  0  0  0  0  0  0  0
   25.2856  -19.4614  -17.6161 O   0  0  0  0  0  0  0  0  0  0  0  0
   27.3634  -20.2391  -16.8838 N   0  0  0  0  0  0  0  0  0  0  0  0
   28.8359  -20.0355  -16.7685 C   0  0  0  0  0  0  0  0  0  0  0  0
   29.4341  -21.4036  -16.6911 C   0  0  0  0  0  0  0  0  0  0  0  0
   28.2863  -22.3568  -16.7473 C   0  0  0  0  0  0  0  0  0  0  0  0
   27.0749  -21.5094  -16.3356 C   0  0  1  0  0  0  0  0  0  0  0  0
   26.8756  -21.5669  -14.8780 C   0  0  0  0  0  0  0  0  0  0  0  0
   27.4576  -20.6926  -14.1861 O   0  0  0  0  0  0  0  0  0  0  0  0
   20.4690  -19.5877   -9.4896 O   0  0  0  0  0  0  0  0  0  0  0  0
   21.4480  -19.9160  -10.4305 C   0  0  0  0  0  0  0  0  0  0  0  0
   21.1187  -20.2282  -11.7361 C   0  0  0  0  0  0  0  0  0  0  0  0
   22.0788  -20.5546  -12.6769 C   0  0  0  0  0  0  0  0  0  0  0  0
   23.4267  -20.5839  -12.3503 C   0  0  0  0  0  0  0  0  0  0  0  0
   24.4640  -20.9216  -13.3561 C   0  0  0  0  0  0  0  0  0  0  0  0
   25.2726  -22.1264  -13.0249 C   0  0  2  0  0  0  0  0  0  0  0  0
   26.0878  -22.5179  -14.1817 N   0  0  0  0  0  0  0  0  0  0  0  0
   24.4437  -23.2281  -12.5353 C   0  0  0  0  0  0  0  0  0  0  0  0
   24.4996  -23.6276  -11.2154 O   0  0  0  0  0  0  0  0  0  0  0  0
   23.7416  -20.2698  -11.0413 C   0  0  0  0  0  0  0  0  0  0  0  0
   22.7863  -19.9447  -10.1059 C   0  0  0  0  0  0  0  0  0  0  0  0
   23.6695  -23.8256  -13.3119 O   0  0  0  0  0  0  0  0  0  0  0  0
  1  2  1  0
  2  3  1  0
  3  4  1  1
  5  3  1  0
  5  6  1  6
  7  9  1  0
  7  5  1  0
  8  7  2  0
  9 10  1  0
 10 11  1  0
 12 11  1  0
 13  9  1  0
 13 12  1  0
 13 14  1  1
 15 14  2  0
 16 17  1  0
 17 18  2  0
 18 19  1  0
 20 19  2  0
 20 21  1  0
 22 21  1  6
 22 24  1  0
 22 23  1  0
 23 14  1  0
 24 25  1  0
 26 20  1  0
 27 17  1  0
 27 26  2  0
 28 24  2  0
M  END
$$$$
