IPY.pdb
     RDKit          3D

 28 29  0  0  1  0  0  0  0  0999 V2000
   25.5907  -15.2144  -15.6373 C   0  0  0  0  0  0  0  0  0  0  0  0
   26.0702  -16.5974  -15.9264 C   0  0  0  0  0  0  0  0  0  0  0  0
   25.9392  -17.5970  -14.8320 C   0  0  2  0  0  0  0  0  0  0  0  0
   26.9165  -17.1569  -13.7382 C   0  0  0  0  0  0  0  0  0  0  0  0
   26.3222  -18.9831  -15.3345 C   0  0  2  0  0  0  0  0  0  0  0  0
   25.5313  -19.3294  -16.4466 N   0  0  0  0  0  0  0  0  0  0  0  0
   26.2375  -19.9894  -14.2567 C   0  0  0  0  0  0  0  0  0  0  0  0
   25.0842  -20.5841  -14.1980 O   0  0  0  0  0  0  0  0  0  0  0  0
   27.2463  -20.3251  -13.3513 N   0  0  0  0  0  0  0  0  0  0  0  0
   28.5516  -19.6050  -13.3782 C   0  0  0  0  0  0  0  0  0  0  0  0
   29.5480  -20.5397  -12.7708 C   0  0  0  0  0  0  0  0  0  0  0  0
   28.7840  -21.7665  -12.3960 C   0  0  0  0  0  0  0  0  0  0  0  0
   27.3261  -21.2928  -12.3244 C   0  0  1  0  0  0  0  0  0  0  0  0
   26.9972  -20.8366  -10.9638 C   0  0  0  0  0  0  0  0  0  0  0  0
   27.3702  -19.6791  -10.6427 O   0  0  0  0  0  0  0  0  0  0  0  0
   29.4364  -19.4560   -3.8119 O   0  0  0  0  0  0  0  0  0  0  0  0
   28.6636  -19.4951   -4.9751 C   0  0  0  0  0  0  0  0  0  0  0  0
   28.6559  -18.4437   -5.8723 C   0  0  0  0  0  0  0  0  0  0  0  0
   27.8953  -18.4705   -7.0274 C   0  0  0  0  0  0  0  0  0  0  0  0
   27.0991  -19.5625   -7.3404 C   0  0  0  0  0  0  0  0  0  0  0  0
   26.2892  -19.6045   -8.5829 C   0  0  0  0  0  0  0  0  0  0  0  0
   25.6401  -20.9169   -8.8499 C   0  0  2  0  0  0  0  0  0  0  0  0
   26.2988  -21.5824   -9.9810 N   0  0  0  0  0  0  0  0  0  0  0  0
   24.1968  -20.7865   -9.0503 C   0  0  0  0  0  0  0  0  0  0  0  0
   23.3023  -21.3915   -8.1909 O   0  0  0  0  0  0  0  0  0  0  0  0
   27.1163  -20.6066   -6.4342 C   0  0  0  0  0  0  0  0  0  0  0  0
   27.8734  -20.5797   -5.2856 C   0  0  0  0  0  0  0  0  0  0  0  0
   23.7527  -20.1212  -10.0093 O   0  0  0  0  0  0  0  0  0  0  0  0
  1  2  1  0
  2  3  1  0
  3  4  1  1
  5  3  1  0
  5  6  1  6
  7  9  1  0
  7  5  1  0
  8  7  2  0
  9 10  1  0
 10 11  1  0
 12 11  1  0
 13  9  1  0
 13 12  1  0
 13 14  1  1
 15 14  2  0
 16 17  1  0
 17 18  2  0
 18 19  1  0
 20 19  2  0
 20 21  1  0
 22 21  1  6
 22 24  1  0
 22 23  1  0
 23 14  1  0
 24 25  1  0
 26 20  1  0
 27 17  1  0
 27 26  2  0
 28 24  2  0
M  END
$$$$
