IPY.pdb
     RDKit          3D

 28 29  0  0  1  0  0  0  0  0999 V2000
   22.5874  -18.8631  -14.1451 C   0  0  0  0  0  0  0  0  0  0  0  0
   23.5208  -19.9553  -14.5476 C   0  0  0  0  0  0  0  0  0  0  0  0
   24.7265  -19.5576  -15.3237 C   0  0  2  0  0  0  0  0  0  0  0  0
   24.2108  -19.0350  -16.6676 C   0  0  0  0  0  0  0  0  0  0  0  0
   25.6275  -20.7640  -15.5541 C   0  0  2  0  0  0  0  0  0  0  0  0
   24.9512  -21.7331  -16.3195 N   0  0  0  0  0  0  0  0  0  0  0  0
   26.1289  -21.3136  -14.2782 C   0  0  0  0  0  0  0  0  0  0  0  0
   25.5441  -22.4198  -13.9296 O   0  0  0  0  0  0  0  0  0  0  0  0
   27.1244  -20.7617  -13.4692 N   0  0  0  0  0  0  0  0  0  0  0  0
   27.7973  -19.4914  -13.8648 C   0  0  0  0  0  0  0  0  0  0  0  0
   29.1288  -19.5037  -13.1849 C   0  0  0  0  0  0  0  0  0  0  0  0
   29.1781  -20.7746  -12.4028 C   0  0  0  0  0  0  0  0  0  0  0  0
   27.7054  -21.1779  -12.2499 C   0  0  1  0  0  0  0  0  0  0  0  0
   27.1369  -20.6018  -11.0201 C   0  0  0  0  0  0  0  0  0  0  0  0
   26.5815  -19.4777  -11.1185 O   0  0  0  0  0  0  0  0  0  0  0  0
   22.0698  -20.5883   -3.7222 O   0  0  0  0  0  0  0  0  0  0  0  0
   22.9202  -20.9065   -4.7838 C   0  0  0  0  0  0  0  0  0  0  0  0
   24.2754  -21.0979   -4.5909 C   0  0  0  0  0  0  0  0  0  0  0  0
   25.1276  -21.4134   -5.6337 C   0  0  0  0  0  0  0  0  0  0  0  0
   24.6573  -21.5531   -6.9313 C   0  0  0  0  0  0  0  0  0  0  0  0
   25.5624  -21.9028   -8.0538 C   0  0  0  0  0  0  0  0  0  0  0  0
   26.2555  -20.7390   -8.6704 C   0  0  2  0  0  0  0  0  0  0  0  0
   27.1584  -21.1975   -9.7337 N   0  0  0  0  0  0  0  0  0  0  0  0
   26.9462  -19.9190   -7.6749 C   0  0  0  0  0  0  0  0  0  0  0  0
   28.2284  -20.2260   -7.2670 O   0  0  0  0  0  0  0  0  0  0  0  0
   23.3001  -21.3587   -7.1097 C   0  0  0  0  0  0  0  0  0  0  0  0
   22.4527  -21.0453   -6.0720 C   0  0  0  0  0  0  0  0  0  0  0  0
   26.3795  -18.9235   -7.1777 O   0  0  0  0  0  0  0  0  0  0  0  0
  1  2  1  0
  2  3  1  0
  3  4  1  6
  5  3  1  0
  5  6  1  1
  7  9  1  0
  7  5  1  0
  8  7  2  0
  9 10  1  0
 10 11  1  0
 12 11  1  0
 13  9  1  0
 13 12  1  0
 13 14  1  1
 15 14  2  0
 16 17  1  0
 17 18  2  0
 18 19  1  0
 20 19  2  0
 20 21  1  0
 22 21  1  1
 22 24  1  0
 22 23  1  0
 23 14  1  0
 24 25  1  0
 26 20  1  0
 27 17  1  0
 27 26  2  0
 28 24  2  0
M  END
$$$$
