IPY.pdb
     RDKit          3D

 28 29  0  0  1  0  0  0  0  0999 V2000
   23.0189  -15.7694  -15.9128 C   0  0  0  0  0  0  0  0  0  0  0  0
   24.3335  -16.4719  -15.9806 C   0  0  0  0  0  0  0  0  0  0  0  0
   24.6110  -17.4828  -14.9245 C   0  0  2  0  0  0  0  0  0  0  0  0
   25.7971  -16.9410  -14.1217 C   0  0  0  0  0  0  0  0  0  0  0  0
   24.9861  -18.8170  -15.5566 C   0  0  2  0  0  0  0  0  0  0  0  0
   23.9791  -19.2284  -16.4505 N   0  0  0  0  0  0  0  0  0  0  0  0
   25.2692  -19.8394  -14.5290 C   0  0  0  0  0  0  0  0  0  0  0  0
   24.2410  -20.5799  -14.2434 O   0  0  0  0  0  0  0  0  0  0  0  0
   26.4880  -20.0524  -13.8815 N   0  0  0  0  0  0  0  0  0  0  0  0
   27.6428  -19.1436  -14.1335 C   0  0  0  0  0  0  0  0  0  0  0  0
   28.8679  -19.9393  -13.8150 C   0  0  0  0  0  0  0  0  0  0  0  0
   28.3824  -21.2800  -13.3723 C   0  0  0  0  0  0  0  0  0  0  0  0
   26.9240  -21.0341  -12.9630 C   0  0  1  0  0  0  0  0  0  0  0  0
   26.8400  -20.6827  -11.5357 C   0  0  0  0  0  0  0  0  0  0  0  0
   27.0052  -19.4730  -11.2337 O   0  0  0  0  0  0  0  0  0  0  0  0
   28.9103  -19.5765   -3.2952 O   0  0  0  0  0  0  0  0  0  0  0  0
   28.5649  -19.6904   -4.6441 C   0  0  0  0  0  0  0  0  0  0  0  0
   28.8876  -20.8154   -5.3795 C   0  0  0  0  0  0  0  0  0  0  0  0
   28.5511  -20.9401   -6.7153 C   0  0  0  0  0  0  0  0  0  0  0  0
   27.8690  -19.9337   -7.3833 C   0  0  0  0  0  0  0  0  0  0  0  0
   27.4939  -20.0641   -8.8130 C   0  0  0  0  0  0  0  0  0  0  0  0
   26.4660  -21.1050   -9.0866 C   0  0  2  0  0  0  0  0  0  0  0  0
   26.5905  -21.5830  -10.4693 N   0  0  0  0  0  0  0  0  0  0  0  0
   25.1136  -20.6361   -8.7841 C   0  0  0  0  0  0  0  0  0  0  0  0
   24.4165  -19.8510   -9.6800 O   0  0  0  0  0  0  0  0  0  0  0  0
   27.5529  -18.8144   -6.6358 C   0  0  0  0  0  0  0  0  0  0  0  0
   27.8875  -18.6909   -5.3069 C   0  0  0  0  0  0  0  0  0  0  0  0
   24.5690  -20.9423   -7.7028 O   0  0  0  0  0  0  0  0  0  0  0  0
  1  2  1  0
  2  3  1  0
  3  4  1  1
  5  3  1  0
  5  6  1  6
  7  9  1  0
  7  5  1  0
  8  7  2  0
  9 10  1  0
 10 11  1  0
 12 11  1  0
 13  9  1  0
 13 12  1  0
 13 14  1  1
 15 14  2  0
 16 17  1  0
 17 18  2  0
 18 19  1  0
 20 19  2  0
 20 21  1  0
 22 21  1  6
 22 24  1  0
 22 23  1  0
 23 14  1  0
 24 25  1  0
 26 20  1  0
 27 17  1  0
 27 26  2  0
 28 24  2  0
M  END
$$$$
