IPY.pdb
     RDKit          3D

 28 29  0  0  1  0  0  0  0  0999 V2000
   24.1794  -15.7497  -16.9051 C   0  0  0  0  0  0  0  0  0  0  0  0
   25.4775  -16.4171  -16.5953 C   0  0  0  0  0  0  0  0  0  0  0  0
   25.4578  -17.4716  -15.5457 C   0  0  2  0  0  0  0  0  0  0  0  0
   26.1259  -16.8544  -14.3137 C   0  0  0  0  0  0  0  0  0  0  0  0
   26.2518  -18.6880  -16.0044 C   0  0  2  0  0  0  0  0  0  0  0  0
   25.8189  -19.0942  -17.2811 N   0  0  0  0  0  0  0  0  0  0  0  0
   26.1773  -19.7838  -15.0170 C   0  0  0  0  0  0  0  0  0  0  0  0
   25.1545  -20.5650  -15.1921 O   0  0  0  0  0  0  0  0  0  0  0  0
   27.0722  -20.0240  -13.9723 N   0  0  0  0  0  0  0  0  0  0  0  0
   28.1015  -19.0064  -13.6142 C   0  0  0  0  0  0  0  0  0  0  0  0
   29.2066  -19.7590  -12.9451 C   0  0  0  0  0  0  0  0  0  0  0  0
   28.7744  -21.1879  -12.9221 C   0  0  0  0  0  0  0  0  0  0  0  0
   27.2517  -21.1218  -13.1005 C   0  0  1  0  0  0  0  0  0  0  0  0
   26.5813  -21.0391  -11.7923 C   0  0  0  0  0  0  0  0  0  0  0  0
   26.9026  -21.8960  -10.9296 O   0  0  0  0  0  0  0  0  0  0  0  0
   28.5521  -20.6206   -5.7078 O   0  0  0  0  0  0  0  0  0  0  0  0
   27.5102  -20.3964   -6.6110 C   0  0  0  0  0  0  0  0  0  0  0  0
   27.2331  -19.1313   -7.0939 C   0  0  0  0  0  0  0  0  0  0  0  0
   26.2045  -18.8965   -7.9884 C   0  0  0  0  0  0  0  0  0  0  0  0
   25.3976  -19.9283   -8.4454 C   0  0  0  0  0  0  0  0  0  0  0  0
   24.2996  -19.6872   -9.4138 C   0  0  0  0  0  0  0  0  0  0  0  0
   24.4034  -20.4776  -10.6705 C   0  0  2  0  0  0  0  0  0  0  0  0
   25.6056  -20.0822  -11.4151 N   0  0  0  0  0  0  0  0  0  0  0  0
   23.1920  -20.3784  -11.4848 C   0  0  0  0  0  0  0  0  0  0  0  0
   21.9876  -20.8764  -11.0308 O   0  0  0  0  0  0  0  0  0  0  0  0
   25.6860  -21.1880   -7.9542 C   0  0  0  0  0  0  0  0  0  0  0  0
   26.7095  -21.4212   -7.0646 C   0  0  0  0  0  0  0  0  0  0  0  0
   23.2332  -19.8380  -12.6099 O   0  0  0  0  0  0  0  0  0  0  0  0
  1  2  1  0
  2  3  1  0
  3  4  1  1
  5  3  1  0
  5  6  1  6
  7  9  1  0
  7  5  1  0
  8  7  2  0
  9 10  1  0
 10 11  1  0
 12 11  1  0
 13  9  1  0
 13 12  1  0
 13 14  1  1
 15 14  2  0
 16 17  1  0
 17 18  2  0
 18 19  1  0
 20 19  2  0
 20 21  1  0
 22 21  1  1
 22 24  1  0
 22 23  1  0
 23 14  1  0
 24 25  1  0
 26 20  1  0
 27 17  1  0
 27 26  2  0
 28 24  2  0
M  END
$$$$
