IPY.pdb
     RDKit          3D

 28 29  0  0  1  0  0  0  0  0999 V2000
   27.4993  -20.3830   -3.7012 C   0  0  0  0  0  0  0  0  0  0  0  0
   28.0282  -19.6721   -4.9017 C   0  0  0  0  0  0  0  0  0  0  0  0
   27.2864  -19.8632   -6.1774 C   0  0  2  0  0  0  0  0  0  0  0  0
   27.3512  -21.3623   -6.4837 C   0  0  0  0  0  0  0  0  0  0  0  0
   27.9564  -19.0811   -7.2999 C   0  0  2  0  0  0  0  0  0  0  0  0
   28.0339  -17.7172   -6.9589 N   0  0  0  0  0  0  0  0  0  0  0  0
   27.2689  -19.2938   -8.5897 C   0  0  0  0  0  0  0  0  0  0  0  0
   26.2108  -18.5549   -8.7364 O   0  0  0  0  0  0  0  0  0  0  0  0
   27.6512  -20.1792   -9.5996 N   0  0  0  0  0  0  0  0  0  0  0  0
   28.6441  -21.2558   -9.3202 C   0  0  0  0  0  0  0  0  0  0  0  0
   29.2618  -21.5961  -10.6386 C   0  0  0  0  0  0  0  0  0  0  0  0
   28.5943  -20.7162  -11.6433 C   0  0  0  0  0  0  0  0  0  0  0  0
   27.2872  -20.2920  -10.9605 C   0  0  1  0  0  0  0  0  0  0  0  0
   26.2075  -21.2420  -11.2759 C   0  0  0  0  0  0  0  0  0  0  0  0
   26.1414  -22.2855  -10.5770 O   0  0  0  0  0  0  0  0  0  0  0  0
   20.1237  -17.4657  -15.0120 O   0  0  0  0  0  0  0  0  0  0  0  0
   20.8013  -18.3681  -14.1885 C   0  0  0  0  0  0  0  0  0  0  0  0
   22.0715  -18.0992  -13.7143 C   0  0  0  0  0  0  0  0  0  0  0  0
   22.7526  -18.9844  -12.8983 C   0  0  0  0  0  0  0  0  0  0  0  0
   22.1876  -20.1922  -12.5157 C   0  0  0  0  0  0  0  0  0  0  0  0
   22.9064  -21.1423  -11.6313 C   0  0  0  0  0  0  0  0  0  0  0  0
   24.0055  -21.8920  -12.2983 C   0  0  2  0  0  0  0  0  0  0  0  0
   25.2349  -21.0892  -12.2961 N   0  0  0  0  0  0  0  0  0  0  0  0
   23.6349  -22.3307  -13.6439 C   0  0  0  0  0  0  0  0  0  0  0  0
   22.6318  -23.2585  -13.8380 O   0  0  0  0  0  0  0  0  0  0  0  0
   20.9172  -20.4482  -12.9974 C   0  0  0  0  0  0  0  0  0  0  0  0
   20.2398  -19.5672  -13.8087 C   0  0  0  0  0  0  0  0  0  0  0  0
   24.2268  -21.8679  -14.6414 O   0  0  0  0  0  0  0  0  0  0  0  0
  1  2  1  0
  2  3  1  0
  3  4  1  6
  5  3  1  0
  5  6  1  1
  7  9  1  0
  7  5  1  0
  8  7  2  0
  9 10  1  0
 10 11  1  0
 12 11  1  0
 13  9  1  0
 13 12  1  0
 13 14  1  1
 15 14  2  0
 16 17  1  0
 17 18  2  0
 18 19  1  0
 20 19  2  0
 20 21  1  0
 22 21  1  6
 22 24  1  0
 22 23  1  0
 23 14  1  0
 24 25  1  0
 26 20  1  0
 27 17  1  0
 27 26  2  0
 28 24  2  0
M  END
$$$$
