NPS.pdb
     RDKit          3D

 22 22  0  0  1  0  0  0  0  0999 V2000
    8.2200  -18.5593   16.3693 N   0  0  0  0  0  0  0  0  0  0  0  0
    8.0011  -17.3899   15.6028 C   0  0  0  0  0  0  0  0  0  0  0  0
    8.1034  -17.5310   14.3329 O   0  0  0  0  0  0  0  0  0  0  0  0
    7.6727  -16.0717   16.1437 C   0  0  0  0  0  0  0  0  0  0  0  0
    8.6721  -14.9866   15.8288 C   0  0  2  0  0  0  0  0  0  0  0  0
    9.2892  -15.3316   14.5950 N   0  0  0  0  0  0  0  0  0  0  0  0
    9.5426  -14.6995   16.9659 C   0  0  0  0  0  0  0  0  0  0  0  0
   10.6925  -15.2673   16.9456 O   0  0  0  0  0  0  0  0  0  0  0  0
    9.2982  -13.8867   18.0815 N   0  0  0  0  0  0  0  0  0  0  0  0
    8.6485  -12.5464   18.0466 C   0  0  0  0  0  0  0  0  0  0  0  0
    7.5337  -12.7878   19.0844 C   0  0  0  0  0  0  0  0  0  0  0  0
    8.0253  -13.9561   19.9477 C   0  0  0  0  0  0  0  0  0  0  0  0
    9.4761  -13.9989   19.4890 C   0  0  1  0  0  0  0  0  0  0  0  0
   10.2830  -15.0275   20.0782 C   0  0  0  0  0  0  0  0  0  0  0  0
   10.0049  -16.2377   20.0286 O   0  0  0  0  0  0  0  0  0  0  0  0
   14.2995  -14.7668   20.4377 O   0  0  0  0  0  0  0  0  0  0  0  0
   13.7112  -15.1811   21.6134 C   0  0  0  0  0  0  0  0  0  0  0  0
   12.3147  -15.7582   21.3991 C   0  0  2  0  0  0  0  0  0  0  0  0
   11.5095  -14.7502   20.7932 N   0  0  0  0  0  0  0  0  0  0  0  0
   11.8194  -16.1254   22.7719 C   0  0  0  0  0  0  0  0  0  0  0  0
   10.8577  -15.4432   23.2233 O   0  0  0  0  0  0  0  0  0  0  0  0
   12.3704  -17.1505   23.5197 O   0  0  0  0  0  0  0  0  0  0  0  0
  1  2  1  0
  2  4  1  0
  3  2  2  0
  4  5  1  0
  5  7  1  0
  5  6  1  6
  7  8  2  0
  9 13  1  0
  9  7  1  0
 10  9  1  0
 11 10  1  0
 11 12  1  0
 12 13  1  0
 13 14  1  6
 14 15  2  0
 14 19  1  0
 17 16  1  0
 18 17  1  1
 19 18  1  0
 20 18  1  0
 20 22  1  0
 21 20  2  0
M  END
$$$$
