NPS.pdb
     RDKit          3D

 22 22  0  0  1  0  0  0  0  0999 V2000
    7.6883  -15.3198   14.3081 N   0  0  0  0  0  0  0  0  0  0  0  0
    7.7613  -16.4257   15.1883 C   0  0  0  0  0  0  0  0  0  0  0  0
    7.2646  -17.5213   14.7459 O   0  0  0  0  0  0  0  0  0  0  0  0
    8.3500  -16.4055   16.5266 C   0  0  0  0  0  0  0  0  0  0  0  0
    8.8765  -15.0636   16.9710 C   0  0  2  0  0  0  0  0  0  0  0  0
    9.7614  -14.6048   15.9570 N   0  0  0  0  0  0  0  0  0  0  0  0
    9.3771  -15.1007   18.3426 C   0  0  0  0  0  0  0  0  0  0  0  0
   10.3123  -15.9478   18.5725 O   0  0  0  0  0  0  0  0  0  0  0  0
    8.9786  -14.3372   19.4487 N   0  0  0  0  0  0  0  0  0  0  0  0
    8.5447  -12.9127   19.4023 C   0  0  0  0  0  0  0  0  0  0  0  0
    7.1873  -13.0469   20.1216 C   0  0  0  0  0  0  0  0  0  0  0  0
    7.2895  -14.3335   20.9501 C   0  0  0  0  0  0  0  0  0  0  0  0
    8.7890  -14.5709   20.8396 C   0  0  1  0  0  0  0  0  0  0  0  0
    9.2801  -15.7504   21.4907 C   0  0  0  0  0  0  0  0  0  0  0  0
    8.7509  -16.8698   21.3843 O   0  0  0  0  0  0  0  0  0  0  0  0
   12.9874  -15.6530   23.3917 O   0  0  0  0  0  0  0  0  0  0  0  0
   12.4918  -16.8473   22.9143 C   0  0  0  0  0  0  0  0  0  0  0  0
   10.9683  -16.9158   22.9733 C   0  0  2  0  0  0  0  0  0  0  0  0
   10.4498  -15.7480   22.3416 N   0  0  0  0  0  0  0  0  0  0  0  0
   10.6271  -16.9625   24.4383 C   0  0  0  0  0  0  0  0  0  0  0  0
    9.9669  -15.9870   24.8928 O   0  0  0  0  0  0  0  0  0  0  0  0
   11.0045  -18.0060   25.2643 O   0  0  0  0  0  0  0  0  0  0  0  0
  1  2  1  0
  2  4  1  0
  3  2  2  0
  4  5  1  0
  5  7  1  0
  5  6  1  6
  7  8  2  0
  9 13  1  0
  9  7  1  0
 10  9  1  0
 11 10  1  0
 11 12  1  0
 12 13  1  0
 13 14  1  6
 14 15  2  0
 14 19  1  0
 17 16  1  0
 18 17  1  1
 19 18  1  0
 20 18  1  0
 20 22  1  0
 21 20  2  0
M  END
$$$$
