NPS.pdb
     RDKit          3D

 22 22  0  0  1  0  0  0  0  0999 V2000
    8.1366  -15.9727   13.6276 N   0  0  0  0  0  0  0  0  0  0  0  0
    7.6758  -16.6035   14.8077 C   0  0  0  0  0  0  0  0  0  0  0  0
    6.8536  -17.5716   14.6352 O   0  0  0  0  0  0  0  0  0  0  0  0
    8.0644  -16.2398   16.1696 C   0  0  0  0  0  0  0  0  0  0  0  0
    9.0205  -15.0774   16.2705 C   0  0  2  0  0  0  0  0  0  0  0  0
    9.9208  -15.1801   15.1747 N   0  0  0  0  0  0  0  0  0  0  0  0
    9.5920  -14.9553   17.6090 C   0  0  0  0  0  0  0  0  0  0  0  0
   10.6057  -15.7022   17.8531 O   0  0  0  0  0  0  0  0  0  0  0  0
    9.1878  -14.1327   18.6697 N   0  0  0  0  0  0  0  0  0  0  0  0
    8.7917  -12.7016   18.5490 C   0  0  0  0  0  0  0  0  0  0  0  0
    7.4150  -12.7696   19.2406 C   0  0  0  0  0  0  0  0  0  0  0  0
    7.4651  -14.0193   20.1281 C   0  0  0  0  0  0  0  0  0  0  0  0
    8.9602  -14.2983   20.0648 C   0  0  1  0  0  0  0  0  0  0  0  0
    9.4057  -15.4587   20.7799 C   0  0  0  0  0  0  0  0  0  0  0  0
    8.8232  -16.5559   20.7483 O   0  0  0  0  0  0  0  0  0  0  0  0
   13.2988  -15.6208   22.2407 O   0  0  0  0  0  0  0  0  0  0  0  0
   12.5805  -16.7465   21.8991 C   0  0  0  0  0  0  0  0  0  0  0  0
   11.1004  -16.6276   22.2521 C   0  0  2  0  0  0  0  0  0  0  0  0
   10.5875  -15.4609   21.6140 N   0  0  0  0  0  0  0  0  0  0  0  0
   11.0555  -16.5152   23.7522 C   0  0  0  0  0  0  0  0  0  0  0  0
   10.5626  -15.4518   24.2214 O   0  0  0  0  0  0  0  0  0  0  0  0
   11.5225  -17.5086   24.5940 O   0  0  0  0  0  0  0  0  0  0  0  0
  1  2  1  0
  2  4  1  0
  3  2  2  0
  4  5  1  0
  5  7  1  0
  5  6  1  6
  7  8  2  0
  9 13  1  0
  9  7  1  0
 10  9  1  0
 11 10  1  0
 11 12  1  0
 12 13  1  0
 13 14  1  6
 14 15  2  0
 14 19  1  0
 17 16  1  0
 18 17  1  6
 19 18  1  0
 20 18  1  0
 20 22  1  0
 21 20  2  0
M  END
$$$$
