NPS.pdb
     RDKit          3D

 22 22  0  0  1  0  0  0  0  0999 V2000
    7.1725  -18.0957   15.4027 N   0  0  0  0  0  0  0  0  0  0  0  0
    6.5433  -18.1187   16.6702 C   0  0  0  0  0  0  0  0  0  0  0  0
    5.4370  -18.7634   16.7293 O   0  0  0  0  0  0  0  0  0  0  0  0
    7.0550  -17.4796   17.8816 C   0  0  0  0  0  0  0  0  0  0  0  0
    8.2522  -16.5858   17.6734 C   0  0  2  0  0  0  0  0  0  0  0  0
    9.1131  -17.2470   16.7550 N   0  0  0  0  0  0  0  0  0  0  0  0
    8.8261  -16.1382   18.9397 C   0  0  0  0  0  0  0  0  0  0  0  0
    9.4366  -17.0353   19.6236 O   0  0  0  0  0  0  0  0  0  0  0  0
    8.8045  -14.8605   19.5160 N   0  0  0  0  0  0  0  0  0  0  0  0
    8.9081  -13.5755   18.7693 C   0  0  0  0  0  0  0  0  0  0  0  0
    7.6454  -12.8753   19.3109 C   0  0  0  0  0  0  0  0  0  0  0  0
    7.3360  -13.5658   20.6449 C   0  0  0  0  0  0  0  0  0  0  0  0
    8.6393  -14.3309   20.8265 C   0  0  1  0  0  0  0  0  0  0  0  0
    8.7181  -15.1527   21.9990 C   0  0  0  0  0  0  0  0  0  0  0  0
    7.7325  -15.6833   22.5388 O   0  0  0  0  0  0  0  0  0  0  0  0
   11.2669  -17.9161   22.5156 O   0  0  0  0  0  0  0  0  0  0  0  0
   10.1896  -17.7225   23.3534 C   0  0  0  0  0  0  0  0  0  0  0  0
   10.0649  -16.2761   23.8240 C   0  0  2  0  0  0  0  0  0  0  0  0
    9.9656  -15.4444   22.6708 N   0  0  0  0  0  0  0  0  0  0  0  0
   11.3189  -16.0023   24.6098 C   0  0  0  0  0  0  0  0  0  0  0  0
   12.1495  -15.2099   24.0842 O   0  0  0  0  0  0  0  0  0  0  0  0
   11.5722  -16.5750   25.8432 O   0  0  0  0  0  0  0  0  0  0  0  0
  1  2  1  0
  2  4  1  0
  3  2  2  0
  4  5  1  0
  5  7  1  0
  5  6  1  1
  7  8  2  0
  9 13  1  0
  9  7  1  0
 10  9  1  0
 11 10  1  0
 11 12  1  0
 12 13  1  0
 13 14  1  1
 14 15  2  0
 14 19  1  0
 17 16  1  0
 18 17  1  6
 19 18  1  0
 20 18  1  0
 20 22  1  0
 21 20  2  0
M  END
$$$$
