NPS.pdb
     RDKit          3D

 22 22  0  0  1  0  0  0  0  0999 V2000
    6.8793  -15.7967   13.7337 N   0  0  0  0  0  0  0  0  0  0  0  0
    7.5266  -16.7839   14.5143 C   0  0  0  0  0  0  0  0  0  0  0  0
    7.5759  -17.9561   13.9980 O   0  0  0  0  0  0  0  0  0  0  0  0
    8.1282  -16.5643   15.8288 C   0  0  0  0  0  0  0  0  0  0  0  0
    8.8419  -15.2452   15.9906 C   0  0  2  0  0  0  0  0  0  0  0  0
    9.6586  -15.0676   14.8403 N   0  0  0  0  0  0  0  0  0  0  0  0
    9.4784  -15.1259   17.2997 C   0  0  0  0  0  0  0  0  0  0  0  0
   10.4711  -15.9102   17.5110 O   0  0  0  0  0  0  0  0  0  0  0  0
    9.1569  -14.2709   18.3630 N   0  0  0  0  0  0  0  0  0  0  0  0
    8.7017  -12.8589   18.2272 C   0  0  0  0  0  0  0  0  0  0  0  0
    7.4061  -12.9383   19.0598 C   0  0  0  0  0  0  0  0  0  0  0  0
    7.5894  -14.1465   19.9864 C   0  0  0  0  0  0  0  0  0  0  0  0
    9.0788  -14.3830   19.7796 C   0  0  1  0  0  0  0  0  0  0  0  0
    9.6346  -15.4976   20.4903 C   0  0  0  0  0  0  0  0  0  0  0  0
    9.2592  -16.6722   20.3363 O   0  0  0  0  0  0  0  0  0  0  0  0
   13.4214  -15.9493   21.5836 O   0  0  0  0  0  0  0  0  0  0  0  0
   12.6025  -16.1300   22.6775 C   0  0  0  0  0  0  0  0  0  0  0  0
   11.1575  -16.4265   22.2860 C   0  0  2  0  0  0  0  0  0  0  0  0
   10.6956  -15.3579   21.4636 N   0  0  0  0  0  0  0  0  0  0  0  0
   10.4003  -16.5061   23.5841 C   0  0  0  0  0  0  0  0  0  0  0  0
    9.5731  -15.5794   23.8099 O   0  0  0  0  0  0  0  0  0  0  0  0
   10.5821  -17.5286   24.4979 O   0  0  0  0  0  0  0  0  0  0  0  0
  1  2  1  0
  2  4  1  0
  3  2  2  0
  4  5  1  0
  5  7  1  0
  5  6  1  6
  7  8  2  0
  9 13  1  0
  9  7  1  0
 10  9  1  0
 11 10  1  0
 11 12  1  0
 12 13  1  0
 13 14  1  6
 14 15  2  0
 14 19  1  0
 17 16  1  0
 18 17  1  1
 19 18  1  0
 20 18  1  0
 20 22  1  0
 21 20  2  0
M  END
$$$$
