NPS.pdb
     RDKit          3D

 22 22  0  0  1  0  0  0  0  0999 V2000
    6.0262  -20.2568   17.7179 N   0  0  0  0  0  0  0  0  0  0  0  0
    7.1239  -19.5300   18.2373 C   0  0  0  0  0  0  0  0  0  0  0  0
    8.2832  -20.0004   17.9586 O   0  0  0  0  0  0  0  0  0  0  0  0
    7.0292  -18.3137   19.0433 C   0  0  0  0  0  0  0  0  0  0  0  0
    7.7861  -17.1279   18.4987 C   0  0  2  0  0  0  0  0  0  0  0  0
    8.2486  -17.4862   17.2027 N   0  0  0  0  0  0  0  0  0  0  0  0
    8.7683  -16.6218   19.4538 C   0  0  0  0  0  0  0  0  0  0  0  0
    9.9281  -17.1673   19.4033 O   0  0  0  0  0  0  0  0  0  0  0  0
    8.6224  -15.6189   20.4223 N   0  0  0  0  0  0  0  0  0  0  0  0
    8.0505  -14.2644   20.1820 C   0  0  0  0  0  0  0  0  0  0  0  0
    6.9720  -14.2551   21.2841 C   0  0  0  0  0  0  0  0  0  0  0  0
    7.4339  -15.2910   22.3163 C   0  0  0  0  0  0  0  0  0  0  0  0
    8.8574  -15.5041   21.8212 C   0  0  1  0  0  0  0  0  0  0  0  0
    9.6294  -16.4692   22.5486 C   0  0  0  0  0  0  0  0  0  0  0  0
    9.2287  -17.6144   22.8171 O   0  0  0  0  0  0  0  0  0  0  0  0
   13.5740  -15.5522   23.6448 O   0  0  0  0  0  0  0  0  0  0  0  0
   13.2369  -16.8557   23.3498 C   0  0  0  0  0  0  0  0  0  0  0  0
   11.7812  -17.1742   23.6796 C   0  0  2  0  0  0  0  0  0  0  0  0
   10.9612  -16.1973   23.0433 N   0  0  0  0  0  0  0  0  0  0  0  0
   11.6859  -17.0991   25.1796 C   0  0  0  0  0  0  0  0  0  0  0  0
   10.9284  -16.2056   25.6505 O   0  0  0  0  0  0  0  0  0  0  0  0
   12.3803  -17.9509   26.0198 O   0  0  0  0  0  0  0  0  0  0  0  0
  1  2  1  0
  2  4  1  0
  3  2  2  0
  4  5  1  0
  5  7  1  0
  5  6  1  6
  7  8  2  0
  9 13  1  0
  9  7  1  0
 10  9  1  0
 11 10  1  0
 11 12  1  0
 12 13  1  0
 13 14  1  1
 14 15  2  0
 14 19  1  0
 17 16  1  0
 18 17  1  1
 19 18  1  0
 20 18  1  0
 20 22  1  0
 21 20  2  0
M  END
$$$$
