NPS.pdb
     RDKit          3D

 22 22  0  0  1  0  0  0  0  0999 V2000
   11.2947  -18.4535   17.0559 N   0  0  0  0  0  0  0  0  0  0  0  0
   11.6930  -17.1761   16.5947 C   0  0  0  0  0  0  0  0  0  0  0  0
   12.9239  -16.8750   16.7875 O   0  0  0  0  0  0  0  0  0  0  0  0
   10.8234  -16.2065   15.9302 C   0  0  0  0  0  0  0  0  0  0  0  0
    9.5106  -15.9460   16.6260 C   0  0  2  0  0  0  0  0  0  0  0  0
    8.7747  -15.0459   15.8075 N   0  0  0  0  0  0  0  0  0  0  0  0
    9.6984  -15.5881   18.0296 C   0  0  0  0  0  0  0  0  0  0  0  0
   10.3168  -16.4523   18.7478 O   0  0  0  0  0  0  0  0  0  0  0  0
    9.2970  -14.4277   18.7059 N   0  0  0  0  0  0  0  0  0  0  0  0
    9.2022  -13.0679   18.1046 C   0  0  0  0  0  0  0  0  0  0  0  0
    7.7470  -12.7315   18.4885 C   0  0  0  0  0  0  0  0  0  0  0  0
    7.4214  -13.6337   19.6852 C   0  0  0  0  0  0  0  0  0  0  0  0
    8.8281  -14.1144   20.0125 C   0  0  1  0  0  0  0  0  0  0  0  0
    8.9295  -15.0394   21.1036 C   0  0  0  0  0  0  0  0  0  0  0  0
    7.9485  -15.5145   21.7004 O   0  0  0  0  0  0  0  0  0  0  0  0
   11.2446  -18.1263   21.3792 O   0  0  0  0  0  0  0  0  0  0  0  0
   10.2394  -17.8093   22.2674 C   0  0  0  0  0  0  0  0  0  0  0  0
   10.3192  -16.3645   22.7526 C   0  0  2  0  0  0  0  0  0  0  0  0
   10.1967  -15.5111   21.6176 N   0  0  0  0  0  0  0  0  0  0  0  0
   11.6670  -16.2378   23.4098 C   0  0  0  0  0  0  0  0  0  0  0  0
   12.5269  -15.5438   22.7992 O   0  0  0  0  0  0  0  0  0  0  0  0
   11.9731  -16.8393   24.6174 O   0  0  0  0  0  0  0  0  0  0  0  0
  1  2  1  0
  2  4  1  0
  3  2  2  0
  4  5  1  0
  5  7  1  0
  5  6  1  6
  7  8  2  0
  9 13  1  0
  9  7  1  0
 10  9  1  0
 11 10  1  0
 11 12  1  0
 12 13  1  0
 13 14  1  1
 14 15  2  0
 14 19  1  0
 17 16  1  0
 18 17  1  6
 19 18  1  0
 20 18  1  0
 20 22  1  0
 21 20  2  0
M  END
$$$$
