NPS.pdb
     RDKit          3D

 22 22  0  0  1  0  0  0  0  0999 V2000
    9.1124  -14.6210   12.6663 N   0  0  0  0  0  0  0  0  0  0  0  0
    9.6211  -15.5097   13.6433 C   0  0  0  0  0  0  0  0  0  0  0  0
    9.7151  -16.7362   13.2830 O   0  0  0  0  0  0  0  0  0  0  0  0
   10.0375  -15.1354   14.9940 C   0  0  0  0  0  0  0  0  0  0  0  0
    9.0262  -15.4238   16.0755 C   0  0  2  0  0  0  0  0  0  0  0  0
    7.8515  -14.6889   15.7566 N   0  0  0  0  0  0  0  0  0  0  0  0
    9.5918  -15.2530   17.4112 C   0  0  0  0  0  0  0  0  0  0  0  0
   10.5667  -16.0319   17.7081 O   0  0  0  0  0  0  0  0  0  0  0  0
    9.2186  -14.3534   18.4194 N   0  0  0  0  0  0  0  0  0  0  0  0
    8.8105  -12.9369   18.2038 C   0  0  0  0  0  0  0  0  0  0  0  0
    7.4582  -12.9564   18.9446 C   0  0  0  0  0  0  0  0  0  0  0  0
    7.5450  -14.1347   19.9224 C   0  0  0  0  0  0  0  0  0  0  0  0
    9.0387  -14.4130   19.8299 C   0  0  1  0  0  0  0  0  0  0  0  0
    9.5145  -15.5142   20.6156 C   0  0  0  0  0  0  0  0  0  0  0  0
    8.9887  -16.6402   20.6174 O   0  0  0  0  0  0  0  0  0  0  0  0
   13.2981  -15.3620   21.8839 O   0  0  0  0  0  0  0  0  0  0  0  0
   12.6952  -16.6013   21.9068 C   0  0  0  0  0  0  0  0  0  0  0  0
   11.2017  -16.5217   22.2108 C   0  0  2  0  0  0  0  0  0  0  0  0
   10.6633  -15.4167   21.4892 N   0  0  0  0  0  0  0  0  0  0  0  0
   11.1073  -16.3222   23.6994 C   0  0  0  0  0  0  0  0  0  0  0  0
   10.6048  -15.2316   24.0895 O   0  0  0  0  0  0  0  0  0  0  0  0
   11.5404  -17.2667   24.6126 O   0  0  0  0  0  0  0  0  0  0  0  0
  1  2  1  0
  2  4  1  0
  3  2  2  0
  4  5  1  0
  5  7  1  0
  5  6  1  6
  7  8  2  0
  9 13  1  0
  9  7  1  0
 10  9  1  0
 11 10  1  0
 11 12  1  0
 12 13  1  0
 13 14  1  6
 14 15  2  0
 14 19  1  0
 17 16  1  0
 18 17  1  6
 19 18  1  0
 20 18  1  0
 20 22  1  0
 21 20  2  0
M  END
$$$$
