NPS.pdb
     RDKit          3D

 22 22  0  0  1  0  0  0  0  0999 V2000
    7.2795  -17.2324   17.7315 N   0  0  0  0  0  0  0  0  0  0  0  0
    8.1119  -17.7077   16.6903 C   0  0  0  0  0  0  0  0  0  0  0  0
    7.7851  -18.8427   16.1925 O   0  0  0  0  0  0  0  0  0  0  0  0
    9.2822  -17.0121   16.1571 C   0  0  0  0  0  0  0  0  0  0  0  0
    9.3669  -15.5471   16.5068 C   0  0  2  0  0  0  0  0  0  0  0  0
   10.2527  -14.9445   15.5719 N   0  0  0  0  0  0  0  0  0  0  0  0
    9.6357  -15.3396   17.9273 C   0  0  0  0  0  0  0  0  0  0  0  0
   10.4517  -16.1687   18.4676 O   0  0  0  0  0  0  0  0  0  0  0  0
    9.1261  -14.3574   18.7879 N   0  0  0  0  0  0  0  0  0  0  0  0
    8.8566  -12.9402   18.4158 C   0  0  0  0  0  0  0  0  0  0  0  0
    7.3857  -12.8437   18.8687 C   0  0  0  0  0  0  0  0  0  0  0  0
    7.2044  -13.9569   19.9079 C   0  0  0  0  0  0  0  0  0  0  0  0
    8.6668  -14.3137   20.1342 C   0  0  1  0  0  0  0  0  0  0  0  0
    8.9089  -15.3819   21.0597 C   0  0  0  0  0  0  0  0  0  0  0  0
    8.1218  -16.3249   21.2481 O   0  0  0  0  0  0  0  0  0  0  0  0
   12.7419  -15.9097   22.6451 O   0  0  0  0  0  0  0  0  0  0  0  0
   11.8721  -16.9611   22.4502 C   0  0  0  0  0  0  0  0  0  0  0  0
   10.4179  -16.5745   22.7050 C   0  0  2  0  0  0  0  0  0  0  0  0
   10.1046  -15.4628   21.8698 N   0  0  0  0  0  0  0  0  0  0  0  0
   10.3493  -16.2187   24.1657 C   0  0  0  0  0  0  0  0  0  0  0  0
   10.1050  -15.0105   24.4388 O   0  0  0  0  0  0  0  0  0  0  0  0
   10.5401  -17.1461   25.1742 O   0  0  0  0  0  0  0  0  0  0  0  0
  1  2  1  0
  2  4  1  0
  3  2  2  0
  4  5  1  0
  5  7  1  0
  5  6  1  6
  7  8  2  0
  9 13  1  0
  9  7  1  0
 10  9  1  0
 11 10  1  0
 11 12  1  0
 12 13  1  0
 13 14  1  6
 14 15  2  0
 14 19  1  0
 17 16  1  0
 18 17  1  6
 19 18  1  0
 20 18  1  0
 20 22  1  0
 21 20  2  0
M  END
$$$$
