WSK.pdb
     RDKit          3D

 30 31  0  0  1  0  0  0  0  0999 V2000
   22.1105  -18.1730  -14.8643 N   0  0  0  0  0  0  0  0  0  0  0  0
   21.5564  -19.4220  -15.3357 C   0  0  1  0  0  0  0  0  0  0  0  0
   22.4024  -19.8891  -16.5132 C   0  0  0  0  0  0  0  0  0  0  0  0
   22.5174  -18.7967  -17.5085 C   0  0  0  0  0  0  0  0  0  0  0  0
   23.6700  -18.1814  -17.9513 C   0  0  0  0  0  0  0  0  0  0  0  0
   23.3574  -17.2429  -18.8591 N   0  0  0  0  0  0  0  0  0  0  0  0
   22.0176  -17.2043  -19.0455 C   0  0  0  0  0  0  0  0  0  0  0  0
   21.2056  -16.4367  -19.8493 C   0  0  0  0  0  0  0  0  0  0  0  0
   19.8477  -16.6467  -19.8047 C   0  0  0  0  0  0  0  0  0  0  0  0
   19.2887  -17.6085  -18.9725 C   0  0  0  0  0  0  0  0  0  0  0  0
   20.1250  -18.3616  -18.1795 C   0  0  0  0  0  0  0  0  0  0  0  0
   21.4907  -18.1778  -18.1991 C   0  0  0  0  0  0  0  0  0  0  0  0
   21.5765  -20.4028  -14.2381 C   0  0  0  0  0  0  0  0  0  0  0  0
   21.5872  -21.6280  -14.5096 O   0  0  0  0  0  0  0  0  0  0  0  0
   21.2396  -19.1893  -10.4057 O   0  0  0  0  0  0  0  0  0  0  0  0
   22.0329  -20.3188  -10.5424 C   0  0  0  0  0  0  0  0  0  0  0  0
   21.5681  -21.0260  -11.8250 C   0  0  2  0  0  0  0  0  0  0  0  0
   21.5838  -20.0269  -12.8605 N   0  0  0  0  0  0  0  0  0  0  0  0
   20.1721  -21.4825  -11.5256 C   0  0  0  0  0  0  0  0  0  0  0  0
   19.2469  -20.7817  -11.9950 O   0  0  0  0  0  0  0  0  0  0  0  0
   19.8758  -22.6110  -10.7759 N   0  0  0  0  0  0  0  0  0  0  0  0
   18.4942  -23.0763  -10.4614 C   0  0  1  0  0  0  0  0  0  0  0  0
   18.5847  -24.3689   -9.7686 C   0  0  0  0  0  0  0  0  0  0  0  0
   17.4838  -25.1771   -9.3276 C   0  0  0  0  0  0  0  0  0  0  0  0
   17.5842  -26.5126   -8.7369 C   0  0  0  0  0  0  0  0  0  0  0  0
   16.1101  -26.9186   -8.3862 C   0  0  0  0  0  0  0  0  0  0  0  0
   16.0761  -28.2713   -7.8987 N   0  0  0  0  0  0  0  0  0  0  0  0
   17.9307  -21.9546   -9.6901 C   0  0  0  0  0  0  0  0  0  0  0  0
   18.7407  -21.1525   -8.8747 O   0  0  0  0  0  0  0  0  0  0  0  0
   16.7318  -21.6523   -9.7093 O   0  0  0  0  0  0  0  0  0  0  0  0
  2  1  1  1
  2 13  1  0
  2  3  1  0
  3  4  1  0
  4  5  2  0
  6  5  1  0
  7  6  1  0
  8  7  2  0
  9  8  1  0
 10  9  2  0
 10 11  1  0
 11 12  2  0
 12  7  1  0
 12  4  1  0
 13 14  2  0
 17 16  1  1
 16 15  1  0
 18 17  1  0
 18 13  1  0
 19 20  2  0
 19 17  1  0
 21 19  1  0
 22 28  1  0
 22 21  1  0
 22 23  1  1
 24 23  1  0
 25 24  1  0
 26 27  1  0
 26 25  1  0
 28 29  1  0
 30 28  2  0
M  END
$$$$
