WSK.pdb
     RDKit          3D

 30 31  0  0  1  0  0  0  0  0999 V2000
   14.4694  -18.7011    2.1494 N   0  0  0  0  0  0  0  0  0  0  0  0
   14.8677  -19.5726    3.2316 C   0  0  1  0  0  0  0  0  0  0  0  0
   16.2674  -20.0869    2.9211 C   0  0  0  0  0  0  0  0  0  0  0  0
   16.2009  -21.0812    1.8238 C   0  0  0  0  0  0  0  0  0  0  0  0
   16.0524  -20.8349    0.4745 C   0  0  0  0  0  0  0  0  0  0  0  0
   16.0431  -21.9982   -0.1957 N   0  0  0  0  0  0  0  0  0  0  0  0
   16.1818  -23.0323    0.6659 C   0  0  0  0  0  0  0  0  0  0  0  0
   16.2317  -24.3968    0.4911 C   0  0  0  0  0  0  0  0  0  0  0  0
   16.3822  -25.1969    1.5989 C   0  0  0  0  0  0  0  0  0  0  0  0
   16.4836  -24.6581    2.8754 C   0  0  0  0  0  0  0  0  0  0  0  0
   16.4307  -23.2900    3.0202 C   0  0  0  0  0  0  0  0  0  0  0  0
   16.2806  -22.4583    1.9317 C   0  0  0  0  0  0  0  0  0  0  0  0
   14.8419  -18.8158    4.4940 C   0  0  0  0  0  0  0  0  0  0  0  0
   15.3158  -17.6542    4.5233 O   0  0  0  0  0  0  0  0  0  0  0  0
   12.1383  -19.4429    6.7750 O   0  0  0  0  0  0  0  0  0  0  0  0
   12.8347  -18.3676    7.3067 C   0  0  0  0  0  0  0  0  0  0  0  0
   14.3075  -18.5651    6.9154 C   0  0  2  0  0  0  0  0  0  0  0  0
   14.2987  -19.3430    5.7049 N   0  0  0  0  0  0  0  0  0  0  0  0
   14.9063  -19.3325    8.0552 C   0  0  0  0  0  0  0  0  0  0  0  0
   15.0306  -20.5670    7.8879 O   0  0  0  0  0  0  0  0  0  0  0  0
   15.3142  -18.7491    9.2455 N   0  0  0  0  0  0  0  0  0  0  0  0
   15.9274  -19.4931   10.3832 C   0  0  1  0  0  0  0  0  0  0  0  0
   16.4923  -18.5183   11.3265 C   0  0  0  0  0  0  0  0  0  0  0  0
   17.8495  -18.0529   11.3586 C   0  0  0  0  0  0  0  0  0  0  0  0
   18.3794  -17.0183   12.2481 C   0  0  0  0  0  0  0  0  0  0  0  0
   19.8962  -16.8884   11.8695 C   0  0  0  0  0  0  0  0  0  0  0  0
   20.5211  -15.8811   12.6840 N   0  0  0  0  0  0  0  0  0  0  0  0
   14.8147  -20.3210   10.8804 C   0  0  0  0  0  0  0  0  0  0  0  0
   15.0499  -21.4898   11.6172 O   0  0  0  0  0  0  0  0  0  0  0  0
   13.6248  -20.0468   10.6849 O   0  0  0  0  0  0  0  0  0  0  0  0
  2  1  1  6
  2 13  1  0
  2  3  1  0
  3  4  1  0
  4  5  2  0
  6  5  1  0
  7  6  1  0
  8  7  2  0
  9  8  1  0
 10  9  2  0
 10 11  1  0
 11 12  2  0
 12  7  1  0
 12  4  1  0
 13 14  2  0
 17 16  1  1
 16 15  1  0
 18 17  1  0
 18 13  1  0
 19 20  2  0
 19 17  1  0
 21 19  1  0
 22 28  1  0
 22 21  1  0
 22 23  1  1
 24 23  1  0
 25 24  1  0
 26 27  1  0
 26 25  1  0
 28 29  1  0
 30 28  2  0
M  END
$$$$
