WSK.pdb
     RDKit          3D

 30 31  0  0  1  0  0  0  0  0999 V2000
   28.2048  -19.2625  -12.0490 N   0  0  0  0  0  0  0  0  0  0  0  0
   27.7600  -20.5919  -12.4016 C   0  0  1  0  0  0  0  0  0  0  0  0
   26.9238  -21.1229  -11.2445 C   0  0  0  0  0  0  0  0  0  0  0  0
   27.7157  -21.0713   -9.9926 C   0  0  0  0  0  0  0  0  0  0  0  0
   27.3407  -20.5242   -8.7829 C   0  0  0  0  0  0  0  0  0  0  0  0
   28.3330  -20.6815   -7.8923 N   0  0  0  0  0  0  0  0  0  0  0  0
   29.3763  -21.3234   -8.4672 C   0  0  0  0  0  0  0  0  0  0  0  0
   30.6081  -21.7177   -7.9959 C   0  0  0  0  0  0  0  0  0  0  0  0
   31.4645  -22.3651   -8.8546 C   0  0  0  0  0  0  0  0  0  0  0  0
   31.1119  -22.6247  -10.1730 C   0  0  0  0  0  0  0  0  0  0  0  0
   29.8735  -22.2191  -10.6170 C   0  0  0  0  0  0  0  0  0  0  0  0
   28.9901  -21.5678   -9.7835 C   0  0  0  0  0  0  0  0  0  0  0  0
   26.9740  -20.5230  -13.6444 C   0  0  0  0  0  0  0  0  0  0  0  0
   26.2918  -19.4971  -13.8834 O   0  0  0  0  0  0  0  0  0  0  0  0
   26.4874  -23.7651  -15.8843 O   0  0  0  0  0  0  0  0  0  0  0  0
   26.5856  -22.6478  -16.7002 C   0  0  0  0  0  0  0  0  0  0  0  0
   26.2061  -21.4384  -15.8316 C   0  0  2  0  0  0  0  0  0  0  0  0
   26.9463  -21.5787  -14.6056 N   0  0  0  0  0  0  0  0  0  0  0  0
   24.7319  -21.5811  -15.6006 C   0  0  0  0  0  0  0  0  0  0  0  0
   24.3894  -22.1432  -14.5356 O   0  0  0  0  0  0  0  0  0  0  0  0
   23.7668  -21.1302  -16.4887 N   0  0  0  0  0  0  0  0  0  0  0  0
   22.2974  -21.2925  -16.2920 C   0  0  1  0  0  0  0  0  0  0  0  0
   21.6038  -20.3012  -17.1258 C   0  0  0  0  0  0  0  0  0  0  0  0
   20.1906  -20.0524  -17.1541 C   0  0  0  0  0  0  0  0  0  0  0  0
   19.5096  -19.0770  -18.0070 C   0  0  0  0  0  0  0  0  0  0  0  0
   17.9901  -19.1973  -17.6362 C   0  0  0  0  0  0  0  0  0  0  0  0
   17.2301  -18.2086  -18.3529 N   0  0  0  0  0  0  0  0  0  0  0  0
   22.0693  -22.7090  -16.6270 C   0  0  0  0  0  0  0  0  0  0  0  0
   22.9121  -23.3918  -17.5146 O   0  0  0  0  0  0  0  0  0  0  0  0
   21.1392  -23.3759  -16.1586 O   0  0  0  0  0  0  0  0  0  0  0  0
  2  1  1  1
  2 13  1  0
  2  3  1  0
  3  4  1  0
  4  5  2  0
  6  5  1  0
  7  6  1  0
  8  7  2  0
  9  8  1  0
 10  9  2  0
 10 11  1  0
 11 12  2  0
 12  7  1  0
 12  4  1  0
 13 14  2  0
 17 16  1  6
 16 15  1  0
 18 17  1  0
 18 13  1  0
 19 20  2  0
 19 17  1  0
 21 19  1  0
 22 28  1  0
 22 21  1  0
 22 23  1  6
 24 23  1  0
 25 24  1  0
 26 27  1  0
 26 25  1  0
 28 29  1  0
 30 28  2  0
M  END
$$$$
