WSK.pdb
     RDKit          3D

 30 31  0  0  1  0  0  0  0  0999 V2000
   25.4275  -19.3309  -11.6748 N   0  0  0  0  0  0  0  0  0  0  0  0
   25.8646  -20.6572  -12.0480 C   0  0  1  0  0  0  0  0  0  0  0  0
   25.7401  -21.5489  -10.8193 C   0  0  0  0  0  0  0  0  0  0  0  0
   26.3994  -20.8980   -9.6623 C   0  0  0  0  0  0  0  0  0  0  0  0
   25.8038  -20.1529   -8.6657 C   0  0  0  0  0  0  0  0  0  0  0  0
   26.7384  -19.7398   -7.7948 N   0  0  0  0  0  0  0  0  0  0  0  0
   27.9579  -20.1862   -8.1750 C   0  0  0  0  0  0  0  0  0  0  0  0
   29.2172  -20.0422   -7.6381 C   0  0  0  0  0  0  0  0  0  0  0  0
   30.2785  -20.6327   -8.2823 C   0  0  0  0  0  0  0  0  0  0  0  0
   30.1033  -21.3630   -9.4510 C   0  0  0  0  0  0  0  0  0  0  0  0
   28.8325  -21.4907   -9.9651 C   0  0  0  0  0  0  0  0  0  0  0  0
   27.7461  -20.9120   -9.3454 C   0  0  0  0  0  0  0  0  0  0  0  0
   25.0261  -21.1474  -13.1540 C   0  0  0  0  0  0  0  0  0  0  0  0
   23.8618  -20.6985  -13.2875 O   0  0  0  0  0  0  0  0  0  0  0  0
   26.3115  -24.1538  -15.2542 O   0  0  0  0  0  0  0  0  0  0  0  0
   25.5251  -23.3933  -16.1067 C   0  0  0  0  0  0  0  0  0  0  0  0
   24.6503  -22.5003  -15.2132 C   0  0  2  0  0  0  0  0  0  0  0  0
   25.4749  -22.1222  -14.0962 N   0  0  0  0  0  0  0  0  0  0  0  0
   23.5171  -23.3824  -14.7836 C   0  0  0  0  0  0  0  0  0  0  0  0
   23.6350  -23.9310  -13.6645 O   0  0  0  0  0  0  0  0  0  0  0  0
   22.3830  -23.6061  -15.5499 N   0  0  0  0  0  0  0  0  0  0  0  0
   21.2256  -24.4426  -15.1200 C   0  0  1  0  0  0  0  0  0  0  0  0
   20.0245  -23.9726  -15.8240 C   0  0  0  0  0  0  0  0  0  0  0  0
   18.6713  -24.3683  -15.5558 C   0  0  0  0  0  0  0  0  0  0  0  0
   17.4810  -23.8746  -16.2499 C   0  0  0  0  0  0  0  0  0  0  0  0
   16.2673  -24.5208  -15.4947 C   0  0  0  0  0  0  0  0  0  0  0  0
   15.0309  -24.0503  -16.0591 N   0  0  0  0  0  0  0  0  0  0  0  0
   21.6721  -25.8134  -15.4239 C   0  0  0  0  0  0  0  0  0  0  0  0
   21.1649  -26.9162  -14.7233 O   0  0  0  0  0  0  0  0  0  0  0  0
   22.5063  -26.0773  -16.2978 O   0  0  0  0  0  0  0  0  0  0  0  0
  2  1  1  1
  2 13  1  0
  2  3  1  0
  3  4  1  0
  4  5  2  0
  6  5  1  0
  7  6  1  0
  8  7  2  0
  9  8  1  0
 10  9  2  0
 10 11  1  0
 11 12  2  0
 12  7  1  0
 12  4  1  0
 13 14  2  0
 17 16  1  6
 16 15  1  0
 18 17  1  0
 18 13  1  0
 19 20  2  0
 19 17  1  0
 21 19  1  0
 22 28  1  0
 22 21  1  0
 22 23  1  6
 24 23  1  0
 25 24  1  0
 26 27  1  0
 26 25  1  0
 28 29  1  0
 30 28  2  0
M  END
$$$$
