WSK.pdb
     RDKit          3D

 30 31  0  0  1  0  0  0  0  0999 V2000
   27.3386  -33.8410  -14.8191 N   0  0  0  0  0  0  0  0  0  0  0  0
   28.0595  -33.2648  -15.9316 C   0  0  1  0  0  0  0  0  0  0  0  0
   29.4364  -32.8520  -15.4276 C   0  0  0  0  0  0  0  0  0  0  0  0
   29.8901  -31.6414  -16.1526 C   0  0  0  0  0  0  0  0  0  0  0  0
   29.1460  -30.5240  -16.4702 C   0  0  0  0  0  0  0  0  0  0  0  0
   29.9180  -29.6420  -17.1249 N   0  0  0  0  0  0  0  0  0  0  0  0
   31.1717  -30.1326  -17.2611 C   0  0  0  0  0  0  0  0  0  0  0  0
   32.3149  -29.6331  -17.8428 C   0  0  0  0  0  0  0  0  0  0  0  0
   33.4562  -30.3990  -17.8144 C   0  0  0  0  0  0  0  0  0  0  0  0
   33.4746  -31.6526  -17.2160 C   0  0  0  0  0  0  0  0  0  0  0  0
   32.3166  -32.1268  -16.6419 C   0  0  0  0  0  0  0  0  0  0  0  0
   31.1548  -31.3858  -16.6521 C   0  0  0  0  0  0  0  0  0  0  0  0
   28.1595  -34.2625  -17.0094 C   0  0  0  0  0  0  0  0  0  0  0  0
   28.6357  -35.3954  -16.7551 O   0  0  0  0  0  0  0  0  0  0  0  0
   26.7844  -33.3063  -20.5494 O   0  0  0  0  0  0  0  0  0  0  0  0
   26.8898  -34.6867  -20.4645 C   0  0  0  0  0  0  0  0  0  0  0  0
   27.9459  -34.9783  -19.3871 C   0  0  2  0  0  0  0  0  0  0  0  0
   27.7374  -34.0040  -18.3489 N   0  0  0  0  0  0  0  0  0  0  0  0
   29.2614  -34.7721  -20.0754 C   0  0  0  0  0  0  0  0  0  0  0  0
   29.6850  -33.5949  -20.1207 O   0  0  0  0  0  0  0  0  0  0  0  0
   30.0017  -35.7982  -20.6434 N   0  0  0  0  0  0  0  0  0  0  0  0
   31.3284  -35.6179  -21.3002 C   0  0  1  0  0  0  0  0  0  0  0  0
   32.3453  -36.3042  -20.4914 C   0  0  0  0  0  0  0  0  0  0  0  0
   33.7218  -36.5036  -20.8451 C   0  0  0  0  0  0  0  0  0  0  0  0
   34.7234  -37.1957  -20.0325 C   0  0  0  0  0  0  0  0  0  0  0  0
   36.0546  -37.1072  -20.8577 C   0  0  0  0  0  0  0  0  0  0  0  0
   37.0987  -37.8322  -20.1847 N   0  0  0  0  0  0  0  0  0  0  0  0
   31.1038  -36.1428  -22.6583 C   0  0  0  0  0  0  0  0  0  0  0  0
   30.1273  -37.1162  -22.9100 O   0  0  0  0  0  0  0  0  0  0  0  0
   31.7477  -35.7688  -23.6456 O   0  0  0  0  0  0  0  0  0  0  0  0
  2  1  1  1
  2 13  1  0
  2  3  1  0
  3  4  1  0
  4  5  2  0
  6  5  1  0
  7  6  1  0
  8  7  2  0
  9  8  1  0
 10  9  2  0
 10 11  1  0
 11 12  2  0
 12  7  1  0
 12  4  1  0
 13 14  2  0
 17 16  1  6
 16 15  1  0
 18 17  1  0
 18 13  1  0
 19 20  2  0
 19 17  1  0
 21 19  1  0
 22 28  1  0
 22 21  1  0
 22 23  1  1
 24 23  1  0
 25 24  1  0
 26 27  1  0
 26 25  1  0
 28 29  1  0
 30 28  2  0
M  END
$$$$
