WSK.pdb
     RDKit          3D

 30 31  0  0  1  0  0  0  0  0999 V2000
   28.5128  -20.7859  -15.6806 N   0  0  0  0  0  0  0  0  0  0  0  0
   27.5624  -20.0018  -14.9249 C   0  0  1  0  0  0  0  0  0  0  0  0
   26.6540  -19.2903  -15.9193 C   0  0  0  0  0  0  0  0  0  0  0  0
   27.3881  -18.1677  -16.5501 C   0  0  0  0  0  0  0  0  0  0  0  0
   28.0636  -18.1760  -17.7530 C   0  0  0  0  0  0  0  0  0  0  0  0
   28.5927  -16.9629  -17.9789 N   0  0  0  0  0  0  0  0  0  0  0  0
   28.2934  -16.1275  -16.9573 C   0  0  0  0  0  0  0  0  0  0  0  0
   28.5919  -14.8069  -16.7091 C   0  0  0  0  0  0  0  0  0  0  0  0
   28.1286  -14.2345  -15.5482 C   0  0  0  0  0  0  0  0  0  0  0  0
   27.3737  -14.9576  -14.6332 C   0  0  0  0  0  0  0  0  0  0  0  0
   27.0903  -16.2767  -14.9075 C   0  0  0  0  0  0  0  0  0  0  0  0
   27.5386  -16.8821  -16.0614 C   0  0  0  0  0  0  0  0  0  0  0  0
   26.7953  -20.8950  -14.0413 C   0  0  0  0  0  0  0  0  0  0  0  0
   26.3503  -21.9760  -14.4975 O   0  0  0  0  0  0  0  0  0  0  0  0
   26.2760  -19.6552  -10.4604 O   0  0  0  0  0  0  0  0  0  0  0  0
   25.6617  -20.8986  -10.4774 C   0  0  0  0  0  0  0  0  0  0  0  0
   25.4852  -21.2780  -11.9560 C   0  0  2  0  0  0  0  0  0  0  0  0
   26.5267  -20.5903  -12.6722 N   0  0  0  0  0  0  0  0  0  0  0  0
   24.1296  -20.7559  -12.3255 C   0  0  0  0  0  0  0  0  0  0  0  0
   24.0869  -19.5823  -12.7595 O   0  0  0  0  0  0  0  0  0  0  0  0
   22.9624  -21.4959  -12.2101 N   0  0  0  0  0  0  0  0  0  0  0  0
   21.6144  -21.0168  -12.6317 C   0  0  1  0  0  0  0  0  0  0  0  0
   21.0629  -21.9728  -13.6018 C   0  0  0  0  0  0  0  0  0  0  0  0
   19.7623  -21.9176  -14.2059 C   0  0  0  0  0  0  0  0  0  0  0  0
   19.2000  -22.9120  -15.1210 C   0  0  0  0  0  0  0  0  0  0  0  0
   17.8092  -22.3308  -15.5552 C   0  0  0  0  0  0  0  0  0  0  0  0
   17.1545  -23.2433  -16.4537 N   0  0  0  0  0  0  0  0  0  0  0  0
   20.8917  -20.8848  -11.3547 C   0  0  0  0  0  0  0  0  0  0  0  0
   19.9063  -19.9046  -11.1740 O   0  0  0  0  0  0  0  0  0  0  0  0
   21.1015  -21.6132  -10.3776 O   0  0  0  0  0  0  0  0  0  0  0  0
  2  1  1  6
  2 13  1  0
  2  3  1  0
  3  4  1  0
  4  5  2  0
  6  5  1  0
  7  6  1  0
  8  7  2  0
  9  8  1  0
 10  9  2  0
 10 11  1  0
 11 12  2  0
 12  7  1  0
 12  4  1  0
 13 14  2  0
 17 16  1  1
 16 15  1  0
 18 17  1  0
 18 13  1  0
 19 20  2  0
 19 17  1  0
 21 19  1  0
 22 28  1  0
 22 21  1  0
 22 23  1  6
 24 23  1  0
 25 24  1  0
 26 27  1  0
 26 25  1  0
 28 29  1  0
 30 28  2  0
M  END
$$$$
