WSK.pdb
     RDKit          3D

 30 31  0  0  1  0  0  0  0  0999 V2000
   23.4134  -20.9827  -15.6363 N   0  0  0  0  0  0  0  0  0  0  0  0
   22.2265  -20.3443  -15.1136 C   0  0  1  0  0  0  0  0  0  0  0  0
   21.1060  -20.5506  -16.1246 C   0  0  0  0  0  0  0  0  0  0  0  0
   21.0647  -19.4043  -17.0634 C   0  0  0  0  0  0  0  0  0  0  0  0
   21.7149  -19.2862  -18.2744 C   0  0  0  0  0  0  0  0  0  0  0  0
   21.4192  -18.0997  -18.8287 N   0  0  0  0  0  0  0  0  0  0  0  0
   20.5821  -17.4059  -18.0231 C   0  0  0  0  0  0  0  0  0  0  0  0
   19.9951  -16.1652  -18.1283 C   0  0  0  0  0  0  0  0  0  0  0  0
   19.1748  -15.7371  -17.1116 C   0  0  0  0  0  0  0  0  0  0  0  0
   18.9314  -16.5259  -15.9941 C   0  0  0  0  0  0  0  0  0  0  0  0
   19.5318  -17.7624  -15.9158 C   0  0  0  0  0  0  0  0  0  0  0  0
   20.3597  -18.2229  -16.9165 C   0  0  0  0  0  0  0  0  0  0  0  0
   21.8913  -20.9432  -13.8113 C   0  0  0  0  0  0  0  0  0  0  0  0
   22.1376  -22.1576  -13.6123 O   0  0  0  0  0  0  0  0  0  0  0  0
   20.9491  -18.5180  -11.1330 O   0  0  0  0  0  0  0  0  0  0  0  0
   20.5552  -19.7083  -10.5399 C   0  0  0  0  0  0  0  0  0  0  0  0
   20.9926  -20.8346  -11.4892 C   0  0  2  0  0  0  0  0  0  0  0  0
   21.2907  -20.2035  -12.7476 N   0  0  0  0  0  0  0  0  0  0  0  0
   19.7960  -21.7310  -11.5960 C   0  0  0  0  0  0  0  0  0  0  0  0
   18.9911  -21.4737  -12.5198 O   0  0  0  0  0  0  0  0  0  0  0  0
   19.5544  -22.7967  -10.7421 N   0  0  0  0  0  0  0  0  0  0  0  0
   18.3407  -23.6617  -10.7946 C   0  0  1  0  0  0  0  0  0  0  0  0
   18.4747  -24.7142   -9.7780 C   0  0  0  0  0  0  0  0  0  0  0  0
   17.5184  -25.7445   -9.4884 C   0  0  0  0  0  0  0  0  0  0  0  0
   17.8237  -27.0667   -8.9399 C   0  0  0  0  0  0  0  0  0  0  0  0
   16.4290  -27.7187   -8.6390 C   0  0  0  0  0  0  0  0  0  0  0  0
   16.6101  -29.0464   -8.1164 N   0  0  0  0  0  0  0  0  0  0  0  0
   17.2379  -22.7029  -10.6074 C   0  0  0  0  0  0  0  0  0  0  0  0
   17.3121  -21.6872   -9.6446 O   0  0  0  0  0  0  0  0  0  0  0  0
   16.1954  -22.7294  -11.2721 O   0  0  0  0  0  0  0  0  0  0  0  0
  2  1  1  6
  2 13  1  0
  2  3  1  0
  3  4  1  0
  4  5  2  0
  6  5  1  0
  7  6  1  0
  8  7  2  0
  9  8  1  0
 10  9  2  0
 10 11  1  0
 11 12  2  0
 12  7  1  0
 12  4  1  0
 13 14  2  0
 17 16  1  1
 16 15  1  0
 18 17  1  0
 18 13  1  0
 19 20  2  0
 19 17  1  0
 21 19  1  0
 22 28  1  0
 22 21  1  0
 22 23  1  1
 24 23  1  0
 25 24  1  0
 26 27  1  0
 26 25  1  0
 28 29  1  0
 30 28  2  0
M  END
$$$$
