WSK.pdb
     RDKit          3D

 30 31  0  0  1  0  0  0  0  0999 V2000
   25.3913  -21.5064   -9.2306 N   0  0  0  0  0  0  0  0  0  0  0  0
   26.2945  -20.4011   -9.4581 C   0  0  1  0  0  0  0  0  0  0  0  0
   27.5518  -20.6533   -8.6359 C   0  0  0  0  0  0  0  0  0  0  0  0
   27.2576  -20.4433   -7.1984 C   0  0  0  0  0  0  0  0  0  0  0  0
   26.1220  -20.8168   -6.5098 C   0  0  0  0  0  0  0  0  0  0  0  0
   26.2384  -20.4545   -5.2222 N   0  0  0  0  0  0  0  0  0  0  0  0
   27.4276  -19.8422   -5.0172 C   0  0  0  0  0  0  0  0  0  0  0  0
   28.0190  -19.2947   -3.9013 C   0  0  0  0  0  0  0  0  0  0  0  0
   29.2670  -18.7320   -4.0272 C   0  0  0  0  0  0  0  0  0  0  0  0
   29.9326  -18.7072   -5.2464 C   0  0  0  0  0  0  0  0  0  0  0  0
   29.3170  -19.2623   -6.3456 C   0  0  0  0  0  0  0  0  0  0  0  0
   28.0667  -19.8347   -6.2554 C   0  0  0  0  0  0  0  0  0  0  0  0
   26.6012  -20.3175  -10.8954 C   0  0  0  0  0  0  0  0  0  0  0  0
   27.7838  -20.4825  -11.2815 O   0  0  0  0  0  0  0  0  0  0  0  0
   25.1544  -22.0623  -13.7860 O   0  0  0  0  0  0  0  0  0  0  0  0
   26.3369  -21.3384  -13.7527 C   0  0  0  0  0  0  0  0  0  0  0  0
   25.9700  -19.9250  -13.2743 C   0  0  2  0  0  0  0  0  0  0  0  0
   25.6085  -20.0536  -11.8875 N   0  0  0  0  0  0  0  0  0  0  0  0
   24.7919  -19.5311  -14.1132 C   0  0  0  0  0  0  0  0  0  0  0  0
   23.6623  -19.7380  -13.6146 O   0  0  0  0  0  0  0  0  0  0  0  0
   24.9004  -18.9662  -15.3751 N   0  0  0  0  0  0  0  0  0  0  0  0
   23.7614  -18.3774  -16.1368 C   0  0  1  0  0  0  0  0  0  0  0  0
   24.2997  -17.4215  -17.1143 C   0  0  0  0  0  0  0  0  0  0  0  0
   23.5590  -16.4090  -17.8114 C   0  0  0  0  0  0  0  0  0  0  0  0
   24.0973  -15.4964  -18.8213 C   0  0  0  0  0  0  0  0  0  0  0  0
   22.8758  -14.6262  -19.2815 C   0  0  0  0  0  0  0  0  0  0  0  0
   23.2934  -13.6866  -20.2872 N   0  0  0  0  0  0  0  0  0  0  0  0
   23.0765  -19.5617  -16.6834 C   0  0  0  0  0  0  0  0  0  0  0  0
   21.6895  -19.5722  -16.8845 O   0  0  0  0  0  0  0  0  0  0  0  0
   23.6659  -20.6035  -16.9942 O   0  0  0  0  0  0  0  0  0  0  0  0
  2  1  1  6
  2 13  1  0
  2  3  1  0
  3  4  1  0
  4  5  2  0
  6  5  1  0
  7  6  1  0
  8  7  2  0
  9  8  1  0
 10  9  2  0
 10 11  1  0
 11 12  2  0
 12  7  1  0
 12  4  1  0
 13 14  2  0
 17 16  1  6
 16 15  1  0
 18 17  1  0
 18 13  1  0
 19 20  2  0
 19 17  1  0
 21 19  1  0
 22 28  1  0
 22 21  1  0
 22 23  1  6
 24 23  1  0
 25 24  1  0
 26 27  1  0
 26 25  1  0
 28 29  1  0
 30 28  2  0
M  END
$$$$
