WSK.pdb
     RDKit          3D

 30 31  0  0  1  0  0  0  0  0999 V2000
   24.9031  -19.7484  -11.9330 N   0  0  0  0  0  0  0  0  0  0  0  0
   25.8221  -20.8168  -12.2544 C   0  0  1  0  0  0  0  0  0  0  0  0
   25.7765  -21.8258  -11.1142 C   0  0  0  0  0  0  0  0  0  0  0  0
   26.2979  -21.2015   -9.8751 C   0  0  0  0  0  0  0  0  0  0  0  0
   25.5718  -20.6072   -8.8639 C   0  0  0  0  0  0  0  0  0  0  0  0
   26.4079  -20.1658   -7.9106 N   0  0  0  0  0  0  0  0  0  0  0  0
   27.6878  -20.4456   -8.2489 C   0  0  0  0  0  0  0  0  0  0  0  0
   28.8936  -20.2090   -7.6286 C   0  0  0  0  0  0  0  0  0  0  0  0
   30.0464  -20.6277   -8.2497 C   0  0  0  0  0  0  0  0  0  0  0  0
   30.0149  -21.2773   -9.4773 C   0  0  0  0  0  0  0  0  0  0  0  0
   28.7947  -21.5007  -10.0745 C   0  0  0  0  0  0  0  0  0  0  0  0
   27.6196  -21.0945   -9.4801 C   0  0  0  0  0  0  0  0  0  0  0  0
   25.4200  -21.4306  -13.5306 C   0  0  0  0  0  0  0  0  0  0  0  0
   24.2007  -21.5080  -13.8173 O   0  0  0  0  0  0  0  0  0  0  0  0
   28.0243  -23.5863  -15.6248 O   0  0  0  0  0  0  0  0  0  0  0  0
   27.1806  -22.9062  -16.4904 C   0  0  0  0  0  0  0  0  0  0  0  0
   25.9117  -22.5724  -15.6906 C   0  0  2  0  0  0  0  0  0  0  0  0
   26.3589  -21.9508  -14.4724 N   0  0  0  0  0  0  0  0  0  0  0  0
   25.2677  -23.8994  -15.4240 C   0  0  0  0  0  0  0  0  0  0  0  0
   25.7298  -24.5571  -14.4641 O   0  0  0  0  0  0  0  0  0  0  0  0
   24.2169  -24.4089  -16.1720 N   0  0  0  0  0  0  0  0  0  0  0  0
   23.5281  -25.7011  -15.8889 C   0  0  1  0  0  0  0  0  0  0  0  0
   22.0943  -25.4347  -15.7089 C   0  0  0  0  0  0  0  0  0  0  0  0
   21.1837  -26.1905  -14.8971 C   0  0  0  0  0  0  0  0  0  0  0  0
   21.2159  -26.2872  -13.4369 C   0  0  0  0  0  0  0  0  0  0  0  0
   19.9661  -27.1551  -13.0550 C   0  0  0  0  0  0  0  0  0  0  0  0
   20.0017  -27.4770  -11.6536 N   0  0  0  0  0  0  0  0  0  0  0  0
   23.9019  -26.5392  -17.0415 C   0  0  0  0  0  0  0  0  0  0  0  0
   24.0963  -25.9830  -18.3132 O   0  0  0  0  0  0  0  0  0  0  0  0
   24.0650  -27.7627  -16.9664 O   0  0  0  0  0  0  0  0  0  0  0  0
  2  1  1  1
  2 13  1  0
  2  3  1  0
  3  4  1  0
  4  5  2  0
  6  5  1  0
  7  6  1  0
  8  7  2  0
  9  8  1  0
 10  9  2  0
 10 11  1  0
 11 12  2  0
 12  7  1  0
 12  4  1  0
 13 14  2  0
 17 16  1  6
 16 15  1  0
 18 17  1  0
 18 13  1  0
 19 20  2  0
 19 17  1  0
 21 19  1  0
 22 28  1  0
 22 21  1  0
 22 23  1  6
 24 23  1  0
 25 24  1  0
 26 27  1  0
 26 25  1  0
 28 29  1  0
 30 28  2  0
M  END
$$$$
