WSK.pdb
     RDKit          3D

 30 31  0  0  1  0  0  0  0  0999 V2000
   26.5579  -21.6652  -11.6520 N   0  0  0  0  0  0  0  0  0  0  0  0
   25.9370  -21.0622  -10.4943 C   0  0  1  0  0  0  0  0  0  0  0  0
   26.8018  -19.8837  -10.0658 C   0  0  0  0  0  0  0  0  0  0  0  0
   27.9716  -20.3764   -9.3003 C   0  0  0  0  0  0  0  0  0  0  0  0
   29.0943  -21.0073   -9.7950 C   0  0  0  0  0  0  0  0  0  0  0  0
   29.9306  -21.2930   -8.7843 N   0  0  0  0  0  0  0  0  0  0  0  0
   29.4036  -20.8712   -7.6115 C   0  0  0  0  0  0  0  0  0  0  0  0
   29.8513  -20.9237   -6.3109 C   0  0  0  0  0  0  0  0  0  0  0  0
   29.0586  -20.3942   -5.3203 C   0  0  0  0  0  0  0  0  0  0  0  0
   27.8290  -19.8143   -5.6066 C   0  0  0  0  0  0  0  0  0  0  0  0
   27.4067  -19.7756   -6.9164 C   0  0  0  0  0  0  0  0  0  0  0  0
   28.1758  -20.2969   -7.9342 C   0  0  0  0  0  0  0  0  0  0  0  0
   24.5759  -20.6280  -10.8489 C   0  0  0  0  0  0  0  0  0  0  0  0
   23.9303  -19.9131  -10.0445 O   0  0  0  0  0  0  0  0  0  0  0  0
   23.4221  -21.0919  -14.4584 O   0  0  0  0  0  0  0  0  0  0  0  0
   22.4678  -20.3133  -13.8206 C   0  0  0  0  0  0  0  0  0  0  0  0
   22.5662  -20.6422  -12.3229 C   0  0  2  0  0  0  0  0  0  0  0  0
   23.9424  -20.9841  -12.0782 N   0  0  0  0  0  0  0  0  0  0  0  0
   21.6656  -21.8250  -12.1312 C   0  0  0  0  0  0  0  0  0  0  0  0
   22.1246  -22.9346  -12.4857 O   0  0  0  0  0  0  0  0  0  0  0  0
   20.3893  -21.7414  -11.5950 N   0  0  0  0  0  0  0  0  0  0  0  0
   19.5146  -22.9155  -11.3113 C   0  0  1  0  0  0  0  0  0  0  0  0
   19.0560  -22.8286   -9.9180 C   0  0  0  0  0  0  0  0  0  0  0  0
   18.5489  -23.9083   -9.1200 C   0  0  0  0  0  0  0  0  0  0  0  0
   18.0278  -23.7946   -7.7570 C   0  0  0  0  0  0  0  0  0  0  0  0
   17.5444  -25.2386   -7.3801 C   0  0  0  0  0  0  0  0  0  0  0  0
   17.0260  -25.2484   -6.0385 N   0  0  0  0  0  0  0  0  0  0  0  0
   18.4769  -22.8192  -12.3527 C   0  0  0  0  0  0  0  0  0  0  0  0
   17.7258  -23.9382  -12.7374 O   0  0  0  0  0  0  0  0  0  0  0  0
   18.2051  -21.7681  -12.9448 O   0  0  0  0  0  0  0  0  0  0  0  0
  2  1  1  6
  2 13  1  0
  2  3  1  0
  3  4  1  0
  4  5  2  0
  6  5  1  0
  7  6  1  0
  8  7  2  0
  9  8  1  0
 10  9  2  0
 10 11  1  0
 11 12  2  0
 12  7  1  0
 12  4  1  0
 13 14  2  0
 17 16  1  6
 16 15  1  0
 18 17  1  0
 18 13  1  0
 19 20  2  0
 19 17  1  0
 21 19  1  0
 22 28  1  0
 22 21  1  0
 22 23  1  1
 24 23  1  0
 25 24  1  0
 26 27  1  0
 26 25  1  0
 28 29  1  0
 30 28  2  0
M  END
$$$$
