WSK.pdb
     RDKit          3D

 30 31  0  0  1  0  0  0  0  0999 V2000
   24.1871  -18.1047  -16.7787 N   0  0  0  0  0  0  0  0  0  0  0  0
   23.5545  -19.4043  -16.7684 C   0  0  1  0  0  0  0  0  0  0  0  0
   24.5570  -20.4120  -17.3160 C   0  0  0  0  0  0  0  0  0  0  0  0
   24.6009  -20.3182  -18.7946 C   0  0  0  0  0  0  0  0  0  0  0  0
   25.5539  -19.6893  -19.5687 C   0  0  0  0  0  0  0  0  0  0  0  0
   25.2430  -19.8319  -20.8670 N   0  0  0  0  0  0  0  0  0  0  0  0
   24.0995  -20.5437  -20.9958 C   0  0  0  0  0  0  0  0  0  0  0  0
   23.3706  -20.9555  -22.0885 C   0  0  0  0  0  0  0  0  0  0  0  0
   22.2228  -21.6821  -21.8779 C   0  0  0  0  0  0  0  0  0  0  0  0
   21.7918  -22.0035  -20.5969 C   0  0  0  0  0  0  0  0  0  0  0  0
   22.5407  -21.5786  -19.5226 C   0  0  0  0  0  0  0  0  0  0  0  0
   23.6964  -20.8486  -19.6973 C   0  0  0  0  0  0  0  0  0  0  0  0
   23.1583  -19.7363  -15.3901 C   0  0  0  0  0  0  0  0  0  0  0  0
   23.8550  -19.3189  -14.4335 O   0  0  0  0  0  0  0  0  0  0  0  0
   19.9449  -19.1908  -13.7601 O   0  0  0  0  0  0  0  0  0  0  0  0
   21.1461  -19.4717  -13.1261 C   0  0  0  0  0  0  0  0  0  0  0  0
   21.6501  -20.7988  -13.7143 C   0  0  2  0  0  0  0  0  0  0  0  0
   22.0059  -20.5210  -15.0806 N   0  0  0  0  0  0  0  0  0  0  0  0
   20.4742  -21.7247  -13.6320 C   0  0  0  0  0  0  0  0  0  0  0  0
   19.5959  -21.5851  -14.5133 O   0  0  0  0  0  0  0  0  0  0  0  0
   20.3265  -22.6957  -12.6530 N   0  0  0  0  0  0  0  0  0  0  0  0
   19.2311  -23.7074  -12.6263 C   0  0  1  0  0  0  0  0  0  0  0  0
   19.5654  -24.7293  -11.6248 C   0  0  0  0  0  0  0  0  0  0  0  0
   19.3976  -26.1475  -11.7672 C   0  0  0  0  0  0  0  0  0  0  0  0
   19.8666  -27.1644  -10.8247 C   0  0  0  0  0  0  0  0  0  0  0  0
   19.3331  -28.5266  -11.3908 C   0  0  0  0  0  0  0  0  0  0  0  0
   19.6973  -29.6018  -10.5076 N   0  0  0  0  0  0  0  0  0  0  0  0
   18.0311  -22.8947  -12.3616 C   0  0  0  0  0  0  0  0  0  0  0  0
   16.7833  -23.2437  -12.8957 O   0  0  0  0  0  0  0  0  0  0  0  0
   18.0439  -21.8722  -11.6661 O   0  0  0  0  0  0  0  0  0  0  0  0
  2  1  1  1
  2 13  1  0
  2  3  1  0
  3  4  1  0
  4  5  2  0
  6  5  1  0
  7  6  1  0
  8  7  2  0
  9  8  1  0
 10  9  2  0
 10 11  1  0
 11 12  2  0
 12  7  1  0
 12  4  1  0
 13 14  2  0
 17 16  1  6
 16 15  1  0
 18 17  1  0
 18 13  1  0
 19 20  2  0
 19 17  1  0
 21 19  1  0
 22 28  1  0
 22 21  1  0
 22 23  1  1
 24 23  1  0
 25 24  1  0
 26 27  1  0
 26 25  1  0
 28 29  1  0
 30 28  2  0
M  END
$$$$
