WSK.pdb
     RDKit          3D

 30 31  0  0  1  0  0  0  0  0999 V2000
   24.8681  -19.3318  -11.7163 N   0  0  0  0  0  0  0  0  0  0  0  0
   25.9733  -20.1823  -12.0965 C   0  0  1  0  0  0  0  0  0  0  0  0
   25.9465  -21.4086  -11.1933 C   0  0  0  0  0  0  0  0  0  0  0  0
   26.1777  -20.9975   -9.7880 C   0  0  0  0  0  0  0  0  0  0  0  0
   25.2294  -20.7710   -8.8120 C   0  0  0  0  0  0  0  0  0  0  0  0
   25.8380  -20.4203   -7.6678 N   0  0  0  0  0  0  0  0  0  0  0  0
   27.1799  -20.4025   -7.8415 C   0  0  0  0  0  0  0  0  0  0  0  0
   28.2295  -20.1136   -6.9991 C   0  0  0  0  0  0  0  0  0  0  0  0
   29.5099  -20.1875   -7.4941 C   0  0  0  0  0  0  0  0  0  0  0  0
   29.7588  -20.5444   -8.8135 C   0  0  0  0  0  0  0  0  0  0  0  0
   28.6897  -20.8281   -9.6332 C   0  0  0  0  0  0  0  0  0  0  0  0
   27.3933  -20.7640   -9.1701 C   0  0  0  0  0  0  0  0  0  0  0  0
   25.8285  -20.5559  -13.5130 C   0  0  0  0  0  0  0  0  0  0  0  0
   24.7341  -20.3531  -14.0927 O   0  0  0  0  0  0  0  0  0  0  0  0
   28.4242  -22.9464  -15.5047 O   0  0  0  0  0  0  0  0  0  0  0  0
   28.1443  -21.7736  -16.1903 C   0  0  0  0  0  0  0  0  0  0  0  0
   26.7682  -21.2985  -15.6987 C   0  0  2  0  0  0  0  0  0  0  0  0
   26.8838  -21.1466  -14.2724 N   0  0  0  0  0  0  0  0  0  0  0  0
   25.8293  -22.4107  -16.0567 C   0  0  0  0  0  0  0  0  0  0  0  0
   25.5998  -23.2531  -15.1594 O   0  0  0  0  0  0  0  0  0  0  0  0
   25.2257  -22.5382  -17.2988 N   0  0  0  0  0  0  0  0  0  0  0  0
   24.0242  -23.3788  -17.5709 C   0  0  1  0  0  0  0  0  0  0  0  0
   23.1052  -22.6145  -18.4255 C   0  0  0  0  0  0  0  0  0  0  0  0
   21.7786  -22.1885  -18.0812 C   0  0  0  0  0  0  0  0  0  0  0  0
   21.3975  -21.4761  -16.8607 C   0  0  0  0  0  0  0  0  0  0  0  0
   19.8428  -21.2924  -16.9607 C   0  0  0  0  0  0  0  0  0  0  0  0
   19.1912  -22.0515  -15.9273 N   0  0  0  0  0  0  0  0  0  0  0  0
   24.5981  -24.6045  -18.1531 C   0  0  0  0  0  0  0  0  0  0  0  0
   25.9665  -24.7027  -18.4394 O   0  0  0  0  0  0  0  0  0  0  0  0
   23.9258  -25.6067  -18.4230 O   0  0  0  0  0  0  0  0  0  0  0  0
  2  1  1  1
  2 13  1  0
  2  3  1  0
  3  4  1  0
  4  5  2  0
  6  5  1  0
  7  6  1  0
  8  7  2  0
  9  8  1  0
 10  9  2  0
 10 11  1  0
 11 12  2  0
 12  7  1  0
 12  4  1  0
 13 14  2  0
 17 16  1  1
 16 15  1  0
 18 17  1  0
 18 13  1  0
 19 20  2  0
 19 17  1  0
 21 19  1  0
 22 28  1  0
 22 21  1  0
 22 23  1  6
 24 23  1  0
 25 24  1  0
 26 27  1  0
 26 25  1  0
 28 29  1  0
 30 28  2  0
M  END
$$$$
