QNK.pdb
     RDKit          3D

 27 26  0  0  1  0  0  0  0  0999 V2000
   17.3549  -15.6367   17.1223 N   0  0  0  0  0  0  0  0  0  0  0  0
   17.0146  -14.3186   16.7069 C   0  0  0  0  0  0  0  0  0  0  0  0
   17.6532  -13.8514   15.7343 O   0  0  0  0  0  0  0  0  0  0  0  0
   15.9594  -13.6181   17.4364 C   0  0  0  0  0  0  0  0  0  0  0  0
   15.2909  -14.4155   18.5014 C   0  0  0  0  0  0  0  0  0  0  0  0
   13.8770  -14.7999   18.2449 C   0  0  2  0  0  0  0  0  0  0  0  0
   12.9327  -13.7327   18.4638 N   0  0  0  0  0  0  0  0  0  0  0  0
   13.5747  -15.9896   19.0964 C   0  0  0  0  0  0  0  0  0  0  0  0
   13.1578  -15.8013   20.2667 O   0  0  0  0  0  0  0  0  0  0  0  0
   11.3836  -20.9581   20.2955 N   0  0  0  0  0  0  0  0  0  0  0  0
   12.4903  -20.7957   19.4223 C   0  0  0  0  0  0  0  0  0  0  0  0
   13.2709  -21.7756   19.3046 O   0  0  0  0  0  0  0  0  0  0  0  0
   12.7799  -19.5835   18.6614 C   0  0  0  0  0  0  0  0  0  0  0  0
   13.3999  -18.4813   19.4465 C   0  0  2  0  0  0  0  0  0  0  0  0
   13.7371  -17.3279   18.6434 N   0  0  0  0  0  0  0  0  0  0  0  0
   14.5470  -18.9307   20.2781 C   0  0  0  0  0  0  0  0  0  0  0  0
   15.2552  -19.8976   19.8977 O   0  0  0  0  0  0  0  0  0  0  0  0
   14.8928  -18.3139   21.5040 N   0  0  0  0  0  0  0  0  0  0  0  0
   15.7079  -19.0575   22.5016 C   0  0  1  0  0  0  0  0  0  0  0  0
   15.3486  -20.5090   22.4444 C   0  0  0  0  0  0  0  0  0  0  0  0
   16.1944  -21.3089   23.3859 C   0  0  0  0  0  0  0  0  0  0  0  0
   15.3510  -21.9211   24.5037 C   0  0  0  0  0  0  0  0  0  0  0  0
   16.0800  -23.0160   25.2071 C   0  0  0  0  0  0  0  0  0  0  0  0
   15.4045  -23.4902   26.3960 N   0  0  0  0  0  0  0  0  0  0  0  0
   17.1219  -18.7854   22.2886 C   0  0  0  0  0  0  0  0  0  0  0  0
   17.9498  -19.0737   23.2193 O   0  0  0  0  0  0  0  0  0  0  0  0
   17.6838  -18.2382   21.1597 O   0  0  0  0  0  0  0  0  0  0  0  0
  2  1  1  0
  3  2  2  0
  4  2  1  0
  5  4  1  0
  6  5  1  0
  6  7  1  1
  8  9  2  0
  8  6  1  0
 10 11  1  0
 11 13  1  0
 12 11  2  0
 14 13  1  6
 14 15  1  0
 15  8  1  0
 16 14  1  0
 16 18  1  0
 17 16  2  0
 18 19  1  0
 19 25  1  0
 20 21  1  0
 19 20  1  6
 22 21  1  0
 23 22  1  0
 24 23  1  0
 25 26  2  0
 25 27  1  0
M  END
$$$$
