QNK.pdb
     RDKit          3D

 27 26  0  0  1  0  0  0  0  0999 V2000
   10.8440  -19.2310   15.0718 N   0  0  0  0  0  0  0  0  0  0  0  0
   11.4568  -17.9474   15.0197 C   0  0  0  0  0  0  0  0  0  0  0  0
   12.5886  -17.8843   14.4837 O   0  0  0  0  0  0  0  0  0  0  0  0
   10.7293  -16.8141   15.5876 C   0  0  0  0  0  0  0  0  0  0  0  0
    9.3378  -17.1117   16.0258 C   0  0  0  0  0  0  0  0  0  0  0  0
    8.5461  -15.9573   16.5290 C   0  0  2  0  0  0  0  0  0  0  0  0
    8.4073  -14.8846   15.5759 N   0  0  0  0  0  0  0  0  0  0  0  0
    9.1873  -15.4926   17.7957 C   0  0  0  0  0  0  0  0  0  0  0  0
   10.4174  -15.2363   17.7884 O   0  0  0  0  0  0  0  0  0  0  0  0
    8.3991  -12.2792   19.2873 N   0  0  0  0  0  0  0  0  0  0  0  0
    7.8998  -12.7655   20.5234 C   0  0  0  0  0  0  0  0  0  0  0  0
    7.1192  -12.0101   21.1585 O   0  0  0  0  0  0  0  0  0  0  0  0
    8.2272  -14.0666   21.0998 C   0  0  0  0  0  0  0  0  0  0  0  0
    9.0954  -14.9292   20.2526 C   0  0  2  0  0  0  0  0  0  0  0  0
    8.4691  -15.3263   19.0119 N   0  0  0  0  0  0  0  0  0  0  0  0
    9.6555  -16.0939   20.9869 C   0  0  0  0  0  0  0  0  0  0  0  0
    9.0114  -17.1728   21.0343 O   0  0  0  0  0  0  0  0  0  0  0  0
   10.9044  -16.0523   21.6512 N   0  0  0  0  0  0  0  0  0  0  0  0
   11.4114  -17.2644   22.3487 C   0  0  1  0  0  0  0  0  0  0  0  0
   12.7562  -17.6207   21.7976 C   0  0  0  0  0  0  0  0  0  0  0  0
   13.2922  -18.8580   22.4483 C   0  0  0  0  0  0  0  0  0  0  0  0
   14.6976  -19.1841   21.9441 C   0  0  0  0  0  0  0  0  0  0  0  0
   15.2026  -20.4674   22.5124 C   0  0  0  0  0  0  0  0  0  0  0  0
   16.5613  -20.7780   22.1222 N   0  0  0  0  0  0  0  0  0  0  0  0
   11.3955  -17.0510   23.7885 C   0  0  0  0  0  0  0  0  0  0  0  0
   11.2554  -15.8598   24.2314 O   0  0  0  0  0  0  0  0  0  0  0  0
   11.5152  -18.0204   24.7558 O   0  0  0  0  0  0  0  0  0  0  0  0
  2  1  1  0
  3  2  2  0
  4  2  1  0
  5  4  1  0
  6  5  1  0
  6  7  1  6
  8  9  2  0
  8  6  1  0
 10 11  1  0
 11 13  1  0
 12 11  2  0
 14 13  1  1
 14 15  1  0
 15  8  1  0
 16 14  1  0
 16 18  1  0
 17 16  2  0
 18 19  1  0
 19 25  1  0
 20 21  1  0
 19 20  1  6
 22 21  1  0
 23 22  1  0
 24 23  1  0
 25 26  2  0
 25 27  1  0
M  END
$$$$
