QNK.pdb
     RDKit          3D

 27 26  0  0  1  0  0  0  0  0999 V2000
    8.5126  -12.2916   18.4091 N   0  0  0  0  0  0  0  0  0  0  0  0
    8.1759  -13.5956   17.9486 C   0  0  0  0  0  0  0  0  0  0  0  0
    7.4905  -13.6641   16.9009 O   0  0  0  0  0  0  0  0  0  0  0  0
    8.6488  -14.7420   18.7222 C   0  0  0  0  0  0  0  0  0  0  0  0
    9.4512  -14.4021   19.9296 C   0  0  0  0  0  0  0  0  0  0  0  0
    9.8541  -15.5438   20.7937 C   0  0  2  0  0  0  0  0  0  0  0  0
    9.0877  -16.7443   20.5701 N   0  0  0  0  0  0  0  0  0  0  0  0
    9.7633  -15.0855   22.2127 C   0  0  0  0  0  0  0  0  0  0  0  0
    9.7818  -13.8514   22.4485 O   0  0  0  0  0  0  0  0  0  0  0  0
    5.9995  -15.4855   26.2005 N   0  0  0  0  0  0  0  0  0  0  0  0
    6.7978  -14.6576   25.3693 C   0  0  0  0  0  0  0  0  0  0  0  0
    6.8592  -13.4377   25.6718 O   0  0  0  0  0  0  0  0  0  0  0  0
    7.5428  -15.1206   24.2018 C   0  0  0  0  0  0  0  0  0  0  0  0
    8.8853  -15.6911   24.4983 C   0  0  2  0  0  0  0  0  0  0  0  0
    9.6567  -15.9824   23.3112 N   0  0  0  0  0  0  0  0  0  0  0  0
    8.8343  -16.8533   25.4236 C   0  0  0  0  0  0  0  0  0  0  0  0
    8.1770  -16.7740   26.4927 O   0  0  0  0  0  0  0  0  0  0  0  0
    9.5016  -18.0729   25.1594 N   0  0  0  0  0  0  0  0  0  0  0  0
   10.0619  -18.8680   26.2848 C   0  0  1  0  0  0  0  0  0  0  0  0
   11.4439  -19.3171   25.9277 C   0  0  0  0  0  0  0  0  0  0  0  0
   11.4189  -20.2525   24.7589 C   0  0  0  0  0  0  0  0  0  0  0  0
   12.8282  -20.7137   24.3889 C   0  0  0  0  0  0  0  0  0  0  0  0
   12.8382  -21.4832   23.1111 C   0  0  0  0  0  0  0  0  0  0  0  0
   14.1360  -22.0275   22.7737 N   0  0  0  0  0  0  0  0  0  0  0  0
    9.9856  -18.1012   27.5198 C   0  0  0  0  0  0  0  0  0  0  0  0
    9.9515  -16.8251   27.4493 O   0  0  0  0  0  0  0  0  0  0  0  0
    9.9416  -18.6143   28.7943 O   0  0  0  0  0  0  0  0  0  0  0  0
  2  1  1  0
  3  2  2  0
  4  2  1  0
  5  4  1  0
  6  5  1  0
  6  7  1  1
  8  9  2  0
  8  6  1  0
 10 11  1  0
 11 13  1  0
 12 11  2  0
 14 13  1  6
 14 15  1  0
 15  8  1  0
 16 14  1  0
 16 18  1  0
 17 16  2  0
 18 19  1  0
 19 25  1  0
 20 21  1  0
 19 20  1  6
 22 21  1  0
 23 22  1  0
 24 23  1  0
 25 26  2  0
 25 27  1  0
M  END
$$$$
