QNK.pdb
     RDKit          3D

 27 26  0  0  1  0  0  0  0  0999 V2000
    8.9426  -11.9941   20.1967 N   0  0  0  0  0  0  0  0  0  0  0  0
    8.0827  -13.1255   20.2770 C   0  0  0  0  0  0  0  0  0  0  0  0
    6.9330  -12.9284   20.7369 O   0  0  0  0  0  0  0  0  0  0  0  0
    8.5985  -14.4154   19.8227 C   0  0  0  0  0  0  0  0  0  0  0  0
   10.0133  -14.4025   19.3590 C   0  0  0  0  0  0  0  0  0  0  0  0
   10.6144  -15.7267   19.0460 C   0  0  2  0  0  0  0  0  0  0  0  0
    9.9612  -16.4240   17.9663 N   0  0  0  0  0  0  0  0  0  0  0  0
   10.6104  -16.5295   20.3058 C   0  0  0  0  0  0  0  0  0  0  0  0
    9.5761  -17.1787   20.6020 O   0  0  0  0  0  0  0  0  0  0  0  0
   14.0932  -19.3743   20.8195 N   0  0  0  0  0  0  0  0  0  0  0  0
   13.0727  -19.2566   21.7986 C   0  0  0  0  0  0  0  0  0  0  0  0
   12.2570  -20.2104   21.8879 O   0  0  0  0  0  0  0  0  0  0  0  0
   12.9085  -18.1175   22.6974 C   0  0  0  0  0  0  0  0  0  0  0  0
   11.6938  -17.2928   22.4518 C   0  0  2  0  0  0  0  0  0  0  0  0
   11.7246  -16.5934   21.1873 N   0  0  0  0  0  0  0  0  0  0  0  0
   11.3693  -16.3813   23.5802 C   0  0  0  0  0  0  0  0  0  0  0  0
   12.1597  -15.4504   23.8802 O   0  0  0  0  0  0  0  0  0  0  0  0
   10.1906  -16.5080   24.3530 N   0  0  0  0  0  0  0  0  0  0  0  0
    9.9591  -15.5942   25.5036 C   0  0  1  0  0  0  0  0  0  0  0  0
    8.6892  -14.8352   25.2793 C   0  0  0  0  0  0  0  0  0  0  0  0
    8.4068  -13.9114   26.4231 C   0  0  0  0  0  0  0  0  0  0  0  0
    7.0823  -13.1750   26.2258 C   0  0  0  0  0  0  0  0  0  0  0  0
    6.8355  -12.1845   27.3135 C   0  0  0  0  0  0  0  0  0  0  0  0
    5.6532  -11.3767   27.1030 N   0  0  0  0  0  0  0  0  0  0  0  0
    9.9906  -16.3472   26.7490 C   0  0  0  0  0  0  0  0  0  0  0  0
    9.9708  -15.7060   27.8550 O   0  0  0  0  0  0  0  0  0  0  0  0
   10.0374  -17.7156   26.8711 O   0  0  0  0  0  0  0  0  0  0  0  0
  2  1  1  0
  3  2  2  0
  4  2  1  0
  5  4  1  0
  6  5  1  0
  6  7  1  6
  8  9  2  0
  8  6  1  0
 10 11  1  0
 11 13  1  0
 12 11  2  0
 14 13  1  1
 14 15  1  0
 15  8  1  0
 16 14  1  0
 16 18  1  0
 17 16  2  0
 18 19  1  0
 19 25  1  0
 20 21  1  0
 19 20  1  6
 22 21  1  0
 23 22  1  0
 24 23  1  0
 25 26  2  0
 25 27  1  0
M  END
$$$$
