QNK.pdb
     RDKit          3D

 27 26  0  0  1  0  0  0  0  0999 V2000
   12.9896  -17.7861   19.3762 N   0  0  0  0  0  0  0  0  0  0  0  0
   13.2431  -19.0818   18.8445 C   0  0  0  0  0  0  0  0  0  0  0  0
   13.9029  -19.1351   17.7796 O   0  0  0  0  0  0  0  0  0  0  0  0
   12.7217  -20.2378   19.5711 C   0  0  0  0  0  0  0  0  0  0  0  0
   12.0021  -19.9181   20.8348 C   0  0  0  0  0  0  0  0  0  0  0  0
   10.5856  -20.3648   20.9155 C   0  0  2  0  0  0  0  0  0  0  0  0
    9.7601  -19.8873   19.8342 N   0  0  0  0  0  0  0  0  0  0  0  0
   10.0564  -19.9380   22.2458 C   0  0  0  0  0  0  0  0  0  0  0  0
   10.2224  -18.7453   22.6046 O   0  0  0  0  0  0  0  0  0  0  0  0
    7.2948  -19.6451   26.7580 N   0  0  0  0  0  0  0  0  0  0  0  0
    6.6664  -20.3635   25.7079 C   0  0  0  0  0  0  0  0  0  0  0  0
    5.4500  -20.6468   25.8606 O   0  0  0  0  0  0  0  0  0  0  0  0
    7.3285  -20.7903   24.4783 C   0  0  0  0  0  0  0  0  0  0  0  0
    8.7563  -20.3863   24.3601 C   0  0  2  0  0  0  0  0  0  0  0  0
    9.3722  -20.8203   23.1267 N   0  0  0  0  0  0  0  0  0  0  0  0
    9.5693  -20.7620   25.5464 C   0  0  0  0  0  0  0  0  0  0  0  0
   10.0364  -21.9256   25.6422 O   0  0  0  0  0  0  0  0  0  0  0  0
    9.8524  -19.8589   26.5985 N   0  0  0  0  0  0  0  0  0  0  0  0
   10.6928  -20.2988   27.7444 C   0  0  1  0  0  0  0  0  0  0  0  0
   11.1802  -19.0939   28.4859 C   0  0  0  0  0  0  0  0  0  0  0  0
   11.9060  -19.4893   29.7344 C   0  0  0  0  0  0  0  0  0  0  0  0
   13.3225  -19.9706   29.4222 C   0  0  0  0  0  0  0  0  0  0  0  0
   14.0472  -20.3876   30.6575 C   0  0  0  0  0  0  0  0  0  0  0  0
   15.3301  -21.0042   30.3953 N   0  0  0  0  0  0  0  0  0  0  0  0
    9.9536  -21.2454   28.5668 C   0  0  0  0  0  0  0  0  0  0  0  0
    8.6764  -21.2438   28.5078 O   0  0  0  0  0  0  0  0  0  0  0  0
   10.4946  -22.1728   29.4251 O   0  0  0  0  0  0  0  0  0  0  0  0
  2  1  1  0
  3  2  2  0
  4  2  1  0
  5  4  1  0
  6  5  1  0
  6  7  1  6
  8  9  2  0
  8  6  1  0
 10 11  1  0
 11 13  1  0
 12 11  2  0
 14 13  1  1
 14 15  1  0
 15  8  1  0
 16 14  1  0
 16 18  1  0
 17 16  2  0
 18 19  1  0
 19 25  1  0
 20 21  1  0
 19 20  1  1
 22 21  1  0
 23 22  1  0
 24 23  1  0
 25 26  2  0
 25 27  1  0
M  END
$$$$
