QNK.pdb
     RDKit          3D

 27 26  0  0  1  0  0  0  0  0999 V2000
   11.4525  -22.4268   15.4724 N   0  0  0  0  0  0  0  0  0  0  0  0
   10.5102  -21.3898   15.2222 C   0  0  0  0  0  0  0  0  0  0  0  0
    9.7403  -21.5511   14.2457 O   0  0  0  0  0  0  0  0  0  0  0  0
   10.5112  -20.2300   16.1115 C   0  0  0  0  0  0  0  0  0  0  0  0
   11.5669  -20.2394   17.1614 C   0  0  0  0  0  0  0  0  0  0  0  0
   11.0959  -20.1299   18.5681 C   0  0  2  0  0  0  0  0  0  0  0  0
   10.0569  -19.1492   18.7614 N   0  0  0  0  0  0  0  0  0  0  0  0
   12.2901  -19.8461   19.4196 C   0  0  0  0  0  0  0  0  0  0  0  0
   13.4325  -20.0738   18.9485 O   0  0  0  0  0  0  0  0  0  0  0  0
   13.9895  -15.5993   23.3163 N   0  0  0  0  0  0  0  0  0  0  0  0
   14.1249  -16.4289   22.1731 C   0  0  0  0  0  0  0  0  0  0  0  0
   15.2740  -16.5194   21.6685 O   0  0  0  0  0  0  0  0  0  0  0  0
   13.0342  -17.1747   21.5515 C   0  0  0  0  0  0  0  0  0  0  0  0
   13.2776  -18.6354   21.3997 C   0  0  2  0  0  0  0  0  0  0  0  0
   12.1941  -19.3293   20.7411 N   0  0  0  0  0  0  0  0  0  0  0  0
   13.6658  -19.2977   22.6725 C   0  0  0  0  0  0  0  0  0  0  0  0
   12.9979  -19.0872   23.7169 O   0  0  0  0  0  0  0  0  0  0  0  0
   14.7731  -20.1731   22.7739 N   0  0  0  0  0  0  0  0  0  0  0  0
   15.0902  -20.8160   24.0773 C   0  0  1  0  0  0  0  0  0  0  0  0
   15.6365  -22.1866   23.8279 C   0  0  0  0  0  0  0  0  0  0  0  0
   14.5684  -23.1065   23.3233 C   0  0  0  0  0  0  0  0  0  0  0  0
   15.1479  -24.4652   22.9313 C   0  0  0  0  0  0  0  0  0  0  0  0
   14.1193  -25.3408   22.2985 C   0  0  0  0  0  0  0  0  0  0  0  0
   14.6501  -26.5938   21.8056 N   0  0  0  0  0  0  0  0  0  0  0  0
   15.9719  -19.9558   24.8530 C   0  0  0  0  0  0  0  0  0  0  0  0
   15.8251  -19.9108   26.1223 O   0  0  0  0  0  0  0  0  0  0  0  0
   16.9793  -19.1637   24.3559 O   0  0  0  0  0  0  0  0  0  0  0  0
  2  1  1  0
  3  2  2  0
  4  2  1  0
  5  4  1  0
  6  5  1  0
  6  7  1  6
  8  9  2  0
  8  6  1  0
 10 11  1  0
 11 13  1  0
 12 11  2  0
 14 13  1  1
 14 15  1  0
 15  8  1  0
 16 14  1  0
 16 18  1  0
 17 16  2  0
 18 19  1  0
 19 25  1  0
 20 21  1  0
 19 20  1  6
 22 21  1  0
 23 22  1  0
 24 23  1  0
 25 26  2  0
 25 27  1  0
M  END
$$$$
