QNK.pdb
     RDKit          3D

 27 26  0  0  1  0  0  0  0  0999 V2000
    8.6658  -12.4744   17.6815 N   0  0  0  0  0  0  0  0  0  0  0  0
    7.8115  -13.6127   17.6702 C   0  0  0  0  0  0  0  0  0  0  0  0
    7.3830  -13.9850   16.5522 O   0  0  0  0  0  0  0  0  0  0  0  0
    7.5026  -14.2539   18.9468 C   0  0  0  0  0  0  0  0  0  0  0  0
    8.1194  -15.5943   19.1465 C   0  0  0  0  0  0  0  0  0  0  0  0
    8.9121  -15.7740   20.3923 C   0  0  2  0  0  0  0  0  0  0  0  0
    8.7107  -14.7320   21.3681 N   0  0  0  0  0  0  0  0  0  0  0  0
   10.3479  -15.8915   19.9966 C   0  0  0  0  0  0  0  0  0  0  0  0
   10.6626  -16.7323   19.1174 O   0  0  0  0  0  0  0  0  0  0  0  0
   15.2639  -15.4447   18.4761 N   0  0  0  0  0  0  0  0  0  0  0  0
   14.4762  -14.2701   18.5927 C   0  0  0  0  0  0  0  0  0  0  0  0
   15.0304  -13.1811   18.2920 O   0  0  0  0  0  0  0  0  0  0  0  0
   13.0841  -14.2412   19.0324 C   0  0  0  0  0  0  0  0  0  0  0  0
   12.7589  -15.1671   20.1517 C   0  0  2  0  0  0  0  0  0  0  0  0
   11.3771  -15.0946   20.5695 N   0  0  0  0  0  0  0  0  0  0  0  0
   13.6918  -15.0423   21.3022 C   0  0  0  0  0  0  0  0  0  0  0  0
   14.9328  -15.1122   21.1123 O   0  0  0  0  0  0  0  0  0  0  0  0
   13.2472  -14.8445   22.6311 N   0  0  0  0  0  0  0  0  0  0  0  0
   13.5807  -15.8461   23.6790 C   0  0  1  0  0  0  0  0  0  0  0  0
   12.4740  -16.8493   23.7684 C   0  0  0  0  0  0  0  0  0  0  0  0
   12.8410  -17.9730   24.6873 C   0  0  0  0  0  0  0  0  0  0  0  0
   11.7151  -19.0021   24.7803 C   0  0  0  0  0  0  0  0  0  0  0  0
   12.0071  -20.0469   25.8042 C   0  0  0  0  0  0  0  0  0  0  0  0
   11.0235  -21.1078   25.8451 N   0  0  0  0  0  0  0  0  0  0  0  0
   14.8893  -16.4254   23.4128 C   0  0  0  0  0  0  0  0  0  0  0  0
   15.0892  -17.0003   22.2883 O   0  0  0  0  0  0  0  0  0  0  0  0
   15.9696  -16.4196   24.2628 O   0  0  0  0  0  0  0  0  0  0  0  0
  2  1  1  0
  3  2  2  0
  4  2  1  0
  5  4  1  0
  6  5  1  0
  6  7  1  1
  8  9  2  0
  8  6  1  0
 10 11  1  0
 11 13  1  0
 12 11  2  0
 14 13  1  6
 14 15  1  0
 15  8  1  0
 16 14  1  0
 16 18  1  0
 17 16  2  0
 18 19  1  0
 19 25  1  0
 20 21  1  0
 19 20  1  6
 22 21  1  0
 23 22  1  0
 24 23  1  0
 25 26  2  0
 25 27  1  0
M  END
$$$$
