QNK.pdb
     RDKit          3D

 27 26  0  0  1  0  0  0  0  0999 V2000
    8.8324  -21.2251   10.7749 N   0  0  0  0  0  0  0  0  0  0  0  0
   10.1580  -21.6506   11.0711 C   0  0  0  0  0  0  0  0  0  0  0  0
   10.7797  -22.2382   10.1544 O   0  0  0  0  0  0  0  0  0  0  0  0
   10.6877  -21.3736   12.4049 C   0  0  0  0  0  0  0  0  0  0  0  0
    9.7928  -20.5749   13.2870 C   0  0  0  0  0  0  0  0  0  0  0  0
   10.4639  -19.6561   14.2452 C   0  0  2  0  0  0  0  0  0  0  0  0
   11.8584  -19.4295   13.9578 N   0  0  0  0  0  0  0  0  0  0  0  0
   10.2652  -20.2154   15.6161 C   0  0  0  0  0  0  0  0  0  0  0  0
    9.3945  -19.6949   16.3577 O   0  0  0  0  0  0  0  0  0  0  0  0
    8.5180  -24.2692   18.4760 N   0  0  0  0  0  0  0  0  0  0  0  0
    9.2796  -23.8197   17.3662 C   0  0  0  0  0  0  0  0  0  0  0  0
    8.7127  -23.8356   16.2430 O   0  0  0  0  0  0  0  0  0  0  0  0
   10.6590  -23.3462   17.4398 C   0  0  0  0  0  0  0  0  0  0  0  0
   10.8166  -21.8661   17.4417 C   0  0  2  0  0  0  0  0  0  0  0  0
   11.0169  -21.3115   16.1221 N   0  0  0  0  0  0  0  0  0  0  0  0
   11.8449  -21.3898   18.4037 C   0  0  0  0  0  0  0  0  0  0  0  0
   13.0575  -21.6589   18.2080 O   0  0  0  0  0  0  0  0  0  0  0  0
   11.5244  -20.6320   19.5550 N   0  0  0  0  0  0  0  0  0  0  0  0
   12.2233  -20.9067   20.8390 C   0  0  1  0  0  0  0  0  0  0  0  0
   11.8580  -22.2784   21.3124 C   0  0  0  0  0  0  0  0  0  0  0  0
   10.8346  -22.2149   22.4033 C   0  0  0  0  0  0  0  0  0  0  0  0
   10.4146  -23.6147   22.8504 C   0  0  0  0  0  0  0  0  0  0  0  0
    9.4998  -23.5656   24.0276 C   0  0  0  0  0  0  0  0  0  0  0  0
    9.0724  -24.8711   24.4830 N   0  0  0  0  0  0  0  0  0  0  0  0
   13.6544  -20.6931   20.6802 C   0  0  0  0  0  0  0  0  0  0  0  0
   14.4410  -21.6946   20.7931 O   0  0  0  0  0  0  0  0  0  0  0  0
   14.2730  -19.4956   20.4104 O   0  0  0  0  0  0  0  0  0  0  0  0
  2  1  1  0
  3  2  2  0
  4  2  1  0
  5  4  1  0
  6  5  1  0
  6  7  1  6
  8  9  2  0
  8  6  1  0
 10 11  1  0
 11 13  1  0
 12 11  2  0
 14 13  1  6
 14 15  1  0
 15  8  1  0
 16 14  1  0
 16 18  1  0
 17 16  2  0
 18 19  1  0
 19 25  1  0
 20 21  1  0
 19 20  1  6
 22 21  1  0
 23 22  1  0
 24 23  1  0
 25 26  2  0
 25 27  1  0
M  END
$$$$
