QNK.pdb
     RDKit          3D

 27 26  0  0  1  0  0  0  0  0999 V2000
    7.9577  -11.9064   16.6779 N   0  0  0  0  0  0  0  0  0  0  0  0
    7.6644  -13.2192   16.2129 C   0  0  0  0  0  0  0  0  0  0  0  0
    7.3418  -13.3311   15.0064 O   0  0  0  0  0  0  0  0  0  0  0  0
    7.7605  -14.3240   17.1650 C   0  0  0  0  0  0  0  0  0  0  0  0
    8.1799  -13.9381   18.5406 C   0  0  0  0  0  0  0  0  0  0  0  0
    9.1014  -14.8774   19.2344 C   0  0  2  0  0  0  0  0  0  0  0  0
    9.4635  -16.0291   18.4464 N   0  0  0  0  0  0  0  0  0  0  0  0
    8.4547  -15.2695   20.5228 C   0  0  0  0  0  0  0  0  0  0  0  0
    8.0990  -14.3634   21.3174 O   0  0  0  0  0  0  0  0  0  0  0  0
    5.4017  -18.9166   20.0430 N   0  0  0  0  0  0  0  0  0  0  0  0
    5.6149  -18.2492   21.2771 C   0  0  0  0  0  0  0  0  0  0  0  0
    4.6571  -17.5701   21.7297 O   0  0  0  0  0  0  0  0  0  0  0  0
    6.8551  -18.2973   22.0464 C   0  0  0  0  0  0  0  0  0  0  0  0
    7.5907  -17.0062   22.1348 C   0  0  2  0  0  0  0  0  0  0  0  0
    8.2225  -16.6229   20.8927 N   0  0  0  0  0  0  0  0  0  0  0  0
    8.5397  -16.9523   23.2777 C   0  0  0  0  0  0  0  0  0  0  0  0
    9.7173  -17.3690   23.1337 O   0  0  0  0  0  0  0  0  0  0  0  0
    8.1800  -16.4452   24.5489 N   0  0  0  0  0  0  0  0  0  0  0  0
    9.1937  -16.3886   25.6361 C   0  0  1  0  0  0  0  0  0  0  0  0
    8.7036  -15.4766   26.7165 C   0  0  0  0  0  0  0  0  0  0  0  0
    9.6368  -15.4814   27.8873 C   0  0  0  0  0  0  0  0  0  0  0  0
    9.1363  -14.5585   28.9978 C   0  0  0  0  0  0  0  0  0  0  0  0
   10.0402  -14.5839   30.1842 C   0  0  0  0  0  0  0  0  0  0  0  0
    9.5789  -13.7595   31.2807 N   0  0  0  0  0  0  0  0  0  0  0  0
    9.5088  -17.7349   26.0909 C   0  0  0  0  0  0  0  0  0  0  0  0
   10.7081  -17.9977   26.4476 O   0  0  0  0  0  0  0  0  0  0  0  0
    8.6303  -18.7880   26.1854 O   0  0  0  0  0  0  0  0  0  0  0  0
  2  1  1  0
  3  2  2  0
  4  2  1  0
  5  4  1  0
  6  5  1  0
  6  7  1  6
  8  9  2  0
  8  6  1  0
 10 11  1  0
 11 13  1  0
 12 11  2  0
 14 13  1  6
 14 15  1  0
 15  8  1  0
 16 14  1  0
 16 18  1  0
 17 16  2  0
 18 19  1  0
 19 25  1  0
 20 21  1  0
 19 20  1  1
 22 21  1  0
 23 22  1  0
 24 23  1  0
 25 26  2  0
 25 27  1  0
M  END
$$$$
