TPR.pdb
     RDKit          3D

 26 26  0  0  1  0  0  0  0  0999 V2000
    7.3263  -15.6563   15.2713 C   0  0  0  0  0  0  0  0  0  0  0  0
    7.9218  -15.6418   16.6552 C   0  0  1  0  0  0  0  0  0  0  0  0
    8.9845  -16.5665   16.6728 O   0  0  0  0  0  0  0  0  0  0  0  0
    8.4733  -14.2828   16.9540 C   0  0  2  0  0  0  0  0  0  0  0  0
    9.2685  -13.8296   15.8689 N   0  0  0  0  0  0  0  0  0  0  0  0
    9.0997  -14.1943   18.2883 C   0  0  0  0  0  0  0  0  0  0  0  0
   10.3543  -14.1126   18.3038 O   0  0  0  0  0  0  0  0  0  0  0  0
    8.4016  -14.1958   19.5336 N   0  0  0  0  0  0  0  0  0  0  0  0
    6.9729  -14.1861   19.7543 C   0  0  0  0  0  0  0  0  0  0  0  0
    6.8004  -14.2220   21.2781 C   0  0  0  0  0  0  0  0  0  0  0  0
    8.1128  -13.5699   21.7612 C   0  0  0  0  0  0  0  0  0  0  0  0
    9.0743  -14.2247   20.7850 C   0  0  1  0  0  0  0  0  0  0  0  0
    9.3563  -15.6201   21.2474 C   0  0  0  0  0  0  0  0  0  0  0  0
    8.7186  -16.6345   20.9659 O   0  0  0  0  0  0  0  0  0  0  0  0
   15.8995  -21.1182   22.7704 N   0  0  0  0  0  0  0  0  0  0  0  0
   15.4580  -20.9716   21.4281 C   0  0  0  0  0  0  0  0  0  0  0  0
   15.9706  -21.7955   20.5399 N   0  0  0  0  0  0  0  0  0  0  0  0
   14.5216  -20.0243   20.9695 N   0  0  0  0  0  0  0  0  0  0  0  0
   14.3874  -18.7592   21.6420 C   0  0  0  0  0  0  0  0  0  0  0  0
   12.9498  -18.6567   22.1882 C   0  0  0  0  0  0  0  0  0  0  0  0
   12.3915  -17.3030   21.9059 C   0  0  0  0  0  0  0  0  0  0  0  0
   10.9808  -17.1781   22.3797 C   0  0  2  0  0  0  0  0  0  0  0  0
   10.4955  -15.8028   22.1247 N   0  0  0  0  0  0  0  0  0  0  0  0
   11.0015  -17.3018   23.8907 C   0  0  0  0  0  0  0  0  0  0  0  0
   10.7053  -16.2351   24.7009 O   0  0  0  0  0  0  0  0  0  0  0  0
   11.3049  -18.4077   24.3731 O   0  0  0  0  0  0  0  0  0  0  0  0
  2  1  1  6
  2  3  1  0
  2  4  1  0
  4  5  1  6
  6  8  1  0
  6  4  1  0
  7  6  2  0
  8  9  1  0
 10  9  1  0
 10 11  1  0
 12  8  1  0
 12 13  1  1
 12 11  1  0
 13 14  2  0
 16 15  1  0
 17 16  2  0
 18 16  1  0
 19 18  1  0
 20 19  1  0
 20 21  1  0
 22 21  1  1
 22 24  1  0
 23 22  1  0
 23 13  1  0
 24 26  2  0
 24 25  1  0
M  END
$$$$
