TPR.pdb
     RDKit          3D

 26 26  0  0  1  0  0  0  0  0999 V2000
    8.2665  -16.3093   17.6468 C   0  0  0  0  0  0  0  0  0  0  0  0
    8.8286  -15.0140   17.1211 C   0  0  1  0  0  0  0  0  0  0  0  0
    8.2718  -14.7929   15.8462 O   0  0  0  0  0  0  0  0  0  0  0  0
    8.4213  -13.8859   18.0166 C   0  0  2  0  0  0  0  0  0  0  0  0
    8.5262  -12.6511   17.3242 N   0  0  0  0  0  0  0  0  0  0  0  0
    9.0731  -13.9355   19.3407 C   0  0  0  0  0  0  0  0  0  0  0  0
   10.2792  -13.5819   19.3749 O   0  0  0  0  0  0  0  0  0  0  0  0
    8.4491  -14.3470   20.5571 N   0  0  0  0  0  0  0  0  0  0  0  0
    7.0915  -14.8042   20.7518 C   0  0  0  0  0  0  0  0  0  0  0  0
    6.9880  -15.1342   22.2462 C   0  0  0  0  0  0  0  0  0  0  0  0
    8.0591  -14.2029   22.8515 C   0  0  0  0  0  0  0  0  0  0  0  0
    9.1402  -14.3719   21.7984 C   0  0  1  0  0  0  0  0  0  0  0  0
    9.8433  -15.6724   22.0323 C   0  0  0  0  0  0  0  0  0  0  0  0
    9.5050  -16.7802   21.6164 O   0  0  0  0  0  0  0  0  0  0  0  0
   14.7559  -16.4066   18.4214 N   0  0  0  0  0  0  0  0  0  0  0  0
   14.9733  -15.0157   18.6127 C   0  0  0  0  0  0  0  0  0  0  0  0
   15.0906  -14.2776   17.5302 N   0  0  0  0  0  0  0  0  0  0  0  0
   15.0723  -14.3626   19.8569 N   0  0  0  0  0  0  0  0  0  0  0  0
   14.9930  -15.1207   21.0774 C   0  0  0  0  0  0  0  0  0  0  0  0
   13.5353  -15.5878   21.2579 C   0  0  0  0  0  0  0  0  0  0  0  0
   13.3759  -16.2659   22.5764 C   0  0  0  0  0  0  0  0  0  0  0  0
   11.9853  -16.7748   22.7706 C   0  0  2  0  0  0  0  0  0  0  0  0
   11.0473  -15.6315   22.8385 N   0  0  0  0  0  0  0  0  0  0  0  0
   11.9245  -17.4012   24.1501 C   0  0  0  0  0  0  0  0  0  0  0  0
   12.4264  -18.6551   24.3901 O   0  0  0  0  0  0  0  0  0  0  0  0
   11.3947  -16.7383   25.0598 O   0  0  0  0  0  0  0  0  0  0  0  0
  2  1  1  1
  2  3  1  0
  2  4  1  0
  4  5  1  6
  6  8  1  0
  6  4  1  0
  7  6  2  0
  8  9  1  0
 10  9  1  0
 10 11  1  0
 12  8  1  0
 12 13  1  1
 12 11  1  0
 13 14  2  0
 16 15  1  0
 17 16  2  0
 18 16  1  0
 19 18  1  0
 20 19  1  0
 20 21  1  0
 22 21  1  1
 22 24  1  0
 23 22  1  0
 23 13  1  0
 24 26  2  0
 24 25  1  0
M  END
$$$$
