TPR.pdb
     RDKit          3D

 26 26  0  0  1  0  0  0  0  0999 V2000
    7.4041  -17.7260   17.6123 C   0  0  0  0  0  0  0  0  0  0  0  0
    8.5449  -17.4522   16.6669 C   0  0  1  0  0  0  0  0  0  0  0  0
    8.1298  -17.8317   15.3753 O   0  0  0  0  0  0  0  0  0  0  0  0
    8.8497  -15.9868   16.6536 C   0  0  2  0  0  0  0  0  0  0  0  0
    9.6687  -15.6690   15.5385 N   0  0  0  0  0  0  0  0  0  0  0  0
    9.3213  -15.4832   17.9592 C   0  0  0  0  0  0  0  0  0  0  0  0
   10.5246  -15.7177   18.2384 O   0  0  0  0  0  0  0  0  0  0  0  0
    8.5291  -14.7669   18.9066 N   0  0  0  0  0  0  0  0  0  0  0  0
    7.1278  -14.4230   18.8178 C   0  0  0  0  0  0  0  0  0  0  0  0
    6.8104  -13.6847   20.1243 C   0  0  0  0  0  0  0  0  0  0  0  0
    8.1877  -13.0991   20.5001 C   0  0  0  0  0  0  0  0  0  0  0  0
    9.0570  -14.2902   20.1367 C   0  0  1  0  0  0  0  0  0  0  0  0
    8.9621  -15.3086   21.2296 C   0  0  0  0  0  0  0  0  0  0  0  0
    7.9793  -15.9895   21.5212 O   0  0  0  0  0  0  0  0  0  0  0  0
   14.9097  -20.3816   20.0356 N   0  0  0  0  0  0  0  0  0  0  0  0
   13.6739  -20.1710   19.3672 C   0  0  0  0  0  0  0  0  0  0  0  0
   13.5361  -20.7263   18.1827 N   0  0  0  0  0  0  0  0  0  0  0  0
   12.5883  -19.4225   19.8629 N   0  0  0  0  0  0  0  0  0  0  0  0
   12.6447  -18.8602   21.1863 C   0  0  0  0  0  0  0  0  0  0  0  0
   11.3925  -17.9848   21.3890 C   0  0  0  0  0  0  0  0  0  0  0  0
   11.3361  -17.4920   22.7954 C   0  0  0  0  0  0  0  0  0  0  0  0
   10.1476  -16.6177   23.0265 C   0  0  2  0  0  0  0  0  0  0  0  0
   10.1472  -15.5156   22.0381 N   0  0  0  0  0  0  0  0  0  0  0  0
   10.3478  -15.9314   24.3637 C   0  0  0  0  0  0  0  0  0  0  0  0
   10.5132  -14.5725   24.4537 O   0  0  0  0  0  0  0  0  0  0  0  0
   10.3640  -16.6474   25.3809 O   0  0  0  0  0  0  0  0  0  0  0  0
  2  1  1  1
  2  3  1  0
  2  4  1  0
  4  5  1  6
  6  8  1  0
  6  4  1  0
  7  6  2  0
  8  9  1  0
 10  9  1  0
 10 11  1  0
 12  8  1  0
 12 13  1  1
 12 11  1  0
 13 14  2  0
 16 15  1  0
 17 16  2  0
 18 16  1  0
 19 18  1  0
 20 19  1  0
 20 21  1  0
 22 21  1  6
 22 24  1  0
 23 22  1  0
 23 13  1  0
 24 26  2  0
 24 25  1  0
M  END
$$$$
