TPR.pdb
     RDKit          3D

 26 26  0  0  1  0  0  0  0  0999 V2000
    6.3685  -13.8906   18.5042 C   0  0  0  0  0  0  0  0  0  0  0  0
    7.0527  -14.2580   19.7953 C   0  0  1  0  0  0  0  0  0  0  0  0
    7.9636  -15.2956   19.5158 O   0  0  0  0  0  0  0  0  0  0  0  0
    7.8207  -13.0820   20.3128 C   0  0  2  0  0  0  0  0  0  0  0  0
    8.6058  -12.5166   19.2740 N   0  0  0  0  0  0  0  0  0  0  0  0
    8.5355  -13.3684   21.5728 C   0  0  0  0  0  0  0  0  0  0  0  0
    9.7827  -13.4996   21.4814 O   0  0  0  0  0  0  0  0  0  0  0  0
    7.9284  -13.5051   22.8577 N   0  0  0  0  0  0  0  0  0  0  0  0
    6.5584  -13.2318   23.2296 C   0  0  0  0  0  0  0  0  0  0  0  0
    6.4681  -13.5819   24.7203 C   0  0  0  0  0  0  0  0  0  0  0  0
    7.9235  -13.3664   25.1854 C   0  0  0  0  0  0  0  0  0  0  0  0
    8.6436  -13.9720   23.9933 C   0  0  1  0  0  0  0  0  0  0  0  0
    8.6084  -15.4635   24.1144 C   0  0  0  0  0  0  0  0  0  0  0  0
    7.9098  -16.2410   23.4646 O   0  0  0  0  0  0  0  0  0  0  0  0
   14.3559  -15.1917   19.7204 N   0  0  0  0  0  0  0  0  0  0  0  0
   13.0522  -15.2989   20.2745 C   0  0  0  0  0  0  0  0  0  0  0  0
   12.4179  -14.1740   20.5248 N   0  0  0  0  0  0  0  0  0  0  0  0
   12.3836  -16.5015   20.5764 N   0  0  0  0  0  0  0  0  0  0  0  0
   12.5025  -17.0831   21.8873 C   0  0  0  0  0  0  0  0  0  0  0  0
   11.3526  -16.5408   22.7585 C   0  0  0  0  0  0  0  0  0  0  0  0
   11.4914  -17.0408   24.1565 C   0  0  0  0  0  0  0  0  0  0  0  0
   10.1628  -17.3342   24.7722 C   0  0  2  0  0  0  0  0  0  0  0  0
    9.4821  -16.0622   25.1041 N   0  0  0  0  0  0  0  0  0  0  0  0
   10.4242  -17.9891   26.1145 C   0  0  0  0  0  0  0  0  0  0  0  0
   10.4781  -19.3534   26.2475 O   0  0  0  0  0  0  0  0  0  0  0  0
   10.5819  -17.2430   27.0974 O   0  0  0  0  0  0  0  0  0  0  0  0
  2  1  1  6
  2  3  1  0
  2  4  1  0
  4  5  1  6
  6  8  1  0
  6  4  1  0
  7  6  2  0
  8  9  1  0
 10  9  1  0
 10 11  1  0
 12  8  1  0
 12 13  1  1
 12 11  1  0
 13 14  2  0
 16 15  1  0
 17 16  2  0
 18 16  1  0
 19 18  1  0
 20 19  1  0
 20 21  1  0
 22 21  1  1
 22 24  1  0
 23 22  1  0
 23 13  1  0
 24 26  2  0
 24 25  1  0
M  END
$$$$
