TPR.pdb
     RDKit          3D

 26 26  0  0  1  0  0  0  0  0999 V2000
    7.7287  -16.1731   17.7502 C   0  0  0  0  0  0  0  0  0  0  0  0
    8.3725  -14.9137   17.2311 C   0  0  1  0  0  0  0  0  0  0  0  0
    7.8132  -14.6373   15.9680 O   0  0  0  0  0  0  0  0  0  0  0  0
    8.0592  -13.7716   18.1464 C   0  0  2  0  0  0  0  0  0  0  0  0
    8.1770  -12.5408   17.4489 N   0  0  0  0  0  0  0  0  0  0  0  0
    8.7779  -13.8497   19.4340 C   0  0  0  0  0  0  0  0  0  0  0  0
    9.9981  -13.5480   19.4033 O   0  0  0  0  0  0  0  0  0  0  0  0
    8.2025  -14.2348   20.6826 N   0  0  0  0  0  0  0  0  0  0  0  0
    6.8155  -14.5192   20.9746 C   0  0  0  0  0  0  0  0  0  0  0  0
    6.7872  -14.9053   22.4589 C   0  0  0  0  0  0  0  0  0  0  0  0
    8.0185  -14.1530   23.0057 C   0  0  0  0  0  0  0  0  0  0  0  0
    8.9801  -14.4105   21.8588 C   0  0  1  0  0  0  0  0  0  0  0  0
    9.5182  -15.8018   21.9828 C   0  0  0  0  0  0  0  0  0  0  0  0
    9.0472  -16.8230   21.4830 O   0  0  0  0  0  0  0  0  0  0  0  0
   15.0485  -14.9737   16.6915 N   0  0  0  0  0  0  0  0  0  0  0  0
   15.5897  -14.7004   17.9763 C   0  0  0  0  0  0  0  0  0  0  0  0
   16.6886  -13.9786   18.0175 N   0  0  0  0  0  0  0  0  0  0  0  0
   15.0518  -15.1336   19.2041 N   0  0  0  0  0  0  0  0  0  0  0  0
   14.0585  -16.1746   19.2288 C   0  0  0  0  0  0  0  0  0  0  0  0
   13.7956  -16.5515   20.7000 C   0  0  0  0  0  0  0  0  0  0  0  0
   12.5378  -15.9067   21.1754 C   0  0  0  0  0  0  0  0  0  0  0  0
   11.8465  -16.7385   22.2054 C   0  0  2  0  0  0  0  0  0  0  0  0
   10.7169  -15.9730   22.7795 N   0  0  0  0  0  0  0  0  0  0  0  0
   12.8124  -16.9180   23.3603 C   0  0  0  0  0  0  0  0  0  0  0  0
   12.6241  -16.2761   24.5580 O   0  0  0  0  0  0  0  0  0  0  0  0
   13.7904  -17.6658   23.1812 O   0  0  0  0  0  0  0  0  0  0  0  0
  2  1  1  1
  2  3  1  0
  2  4  1  0
  4  5  1  6
  6  8  1  0
  6  4  1  0
  7  6  2  0
  8  9  1  0
 10  9  1  0
 10 11  1  0
 12  8  1  0
 12 13  1  1
 12 11  1  0
 13 14  2  0
 16 15  1  0
 17 16  2  0
 18 16  1  0
 19 18  1  0
 20 19  1  0
 20 21  1  0
 22 21  1  6
 22 24  1  0
 23 22  1  0
 23 13  1  0
 24 26  2  0
 24 25  1  0
M  END
$$$$
