TPR.pdb
     RDKit          3D

 26 26  0  0  1  0  0  0  0  0999 V2000
    7.2507  -17.4921   17.3899 C   0  0  0  0  0  0  0  0  0  0  0  0
    8.3704  -17.2963   16.4009 C   0  0  1  0  0  0  0  0  0  0  0  0
    7.9121  -17.7374   15.1440 O   0  0  0  0  0  0  0  0  0  0  0  0
    8.7048  -15.8410   16.2976 C   0  0  2  0  0  0  0  0  0  0  0  0
    9.4019  -15.5853   15.0877 N   0  0  0  0  0  0  0  0  0  0  0  0
    9.3296  -15.3037   17.5230 C   0  0  0  0  0  0  0  0  0  0  0  0
   10.5347  -15.6113   17.7076 O   0  0  0  0  0  0  0  0  0  0  0  0
    8.6804  -14.4803   18.4920 N   0  0  0  0  0  0  0  0  0  0  0  0
    7.3493  -13.9191   18.4363 C   0  0  0  0  0  0  0  0  0  0  0  0
    7.1800  -13.1521   19.7538 C   0  0  0  0  0  0  0  0  0  0  0  0
    8.6400  -12.7944   20.1024 C   0  0  0  0  0  0  0  0  0  0  0  0
    9.3027  -14.1042   19.7128 C   0  0  1  0  0  0  0  0  0  0  0  0
    9.0713  -15.1050   20.8015 C   0  0  0  0  0  0  0  0  0  0  0  0
    8.1020  -15.8537   20.9227 O   0  0  0  0  0  0  0  0  0  0  0  0
   15.3520  -20.8449   22.5999 N   0  0  0  0  0  0  0  0  0  0  0  0
   14.0602  -21.3002   22.9771 C   0  0  0  0  0  0  0  0  0  0  0  0
   13.9401  -22.5786   23.2627 N   0  0  0  0  0  0  0  0  0  0  0  0
   12.9028  -20.5028   23.0721 N   0  0  0  0  0  0  0  0  0  0  0  0
   12.8756  -19.1967   22.4686 C   0  0  0  0  0  0  0  0  0  0  0  0
   11.5404  -18.5236   22.8422 C   0  0  0  0  0  0  0  0  0  0  0  0
   11.4525  -17.1767   22.2083 C   0  0  0  0  0  0  0  0  0  0  0  0
   10.1994  -16.4639   22.5985 C   0  0  2  0  0  0  0  0  0  0  0  0
   10.0893  -15.2042   21.8286 N   0  0  0  0  0  0  0  0  0  0  0  0
   10.3655  -16.0184   24.0382 C   0  0  0  0  0  0  0  0  0  0  0  0
    9.9932  -16.8236   25.0847 O   0  0  0  0  0  0  0  0  0  0  0  0
   10.8470  -14.8890   24.2389 O   0  0  0  0  0  0  0  0  0  0  0  0
  2  1  1  1
  2  3  1  0
  2  4  1  0
  4  5  1  6
  6  8  1  0
  6  4  1  0
  7  6  2  0
  8  9  1  0
 10  9  1  0
 10 11  1  0
 12  8  1  0
 12 13  1  1
 12 11  1  0
 13 14  2  0
 16 15  1  0
 17 16  2  0
 18 16  1  0
 19 18  1  0
 20 19  1  0
 20 21  1  0
 22 21  1  6
 22 24  1  0
 23 22  1  0
 23 13  1  0
 24 26  2  0
 24 25  1  0
M  END
$$$$
