TPR.pdb
     RDKit          3D

 26 26  0  0  1  0  0  0  0  0999 V2000
    8.1354  -11.4030   25.6006 C   0  0  0  0  0  0  0  0  0  0  0  0
    7.1774  -12.1788   26.4669 C   0  0  1  0  0  0  0  0  0  0  0  0
    6.4833  -11.2534   27.2709 O   0  0  0  0  0  0  0  0  0  0  0  0
    6.1841  -12.8950   25.6062 C   0  0  2  0  0  0  0  0  0  0  0  0
    5.0680  -13.3012   26.3837 N   0  0  0  0  0  0  0  0  0  0  0  0
    6.7973  -13.9448   24.7680 C   0  0  0  0  0  0  0  0  0  0  0  0
    6.7690  -15.1110   25.2370 O   0  0  0  0  0  0  0  0  0  0  0  0
    7.4069  -13.7374   23.4937 N   0  0  0  0  0  0  0  0  0  0  0  0
    7.6213  -12.4866   22.8014 C   0  0  0  0  0  0  0  0  0  0  0  0
    8.3375  -12.8647   21.4988 C   0  0  0  0  0  0  0  0  0  0  0  0
    7.8506  -14.3121   21.2779 C   0  0  0  0  0  0  0  0  0  0  0  0
    7.9226  -14.8062   22.7121 C   0  0  1  0  0  0  0  0  0  0  0  0
    9.3484  -15.1180   23.0445 C   0  0  0  0  0  0  0  0  0  0  0  0
   10.2197  -14.3176   23.3834 O   0  0  0  0  0  0  0  0  0  0  0  0
   10.2070  -18.6866   29.6663 N   0  0  0  0  0  0  0  0  0  0  0  0
   10.6071  -19.4755   28.5546 C   0  0  0  0  0  0  0  0  0  0  0  0
    9.8916  -20.5493   28.2989 N   0  0  0  0  0  0  0  0  0  0  0  0
   11.6989  -19.2064   27.7060 N   0  0  0  0  0  0  0  0  0  0  0  0
   11.6048  -18.1637   26.7187 C   0  0  0  0  0  0  0  0  0  0  0  0
   11.5258  -18.8253   25.3288 C   0  0  0  0  0  0  0  0  0  0  0  0
   10.4135  -18.2228   24.5390 C   0  0  0  0  0  0  0  0  0  0  0  0
   10.8494  -16.9835   23.8287 C   0  0  2  0  0  0  0  0  0  0  0  0
    9.7546  -16.5064   22.9538 N   0  0  0  0  0  0  0  0  0  0  0  0
   11.9574  -17.3797   22.8724 C   0  0  0  0  0  0  0  0  0  0  0  0
   11.6899  -17.7409   21.5763 O   0  0  0  0  0  0  0  0  0  0  0  0
   13.1227  -17.3727   23.3079 O   0  0  0  0  0  0  0  0  0  0  0  0
  2  1  1  6
  2  3  1  0
  2  4  1  0
  4  5  1  1
  6  8  1  0
  6  4  1  0
  7  6  2  0
  8  9  1  0
 10  9  1  0
 10 11  1  0
 12  8  1  0
 12 13  1  1
 12 11  1  0
 13 14  2  0
 16 15  1  0
 17 16  2  0
 18 16  1  0
 19 18  1  0
 20 19  1  0
 20 21  1  0
 22 21  1  6
 22 24  1  0
 23 22  1  0
 23 13  1  0
 24 26  2  0
 24 25  1  0
M  END
$$$$
