TPR.pdb
     RDKit          3D

 26 26  0  0  1  0  0  0  0  0999 V2000
    6.7489  -17.8878   18.5896 C   0  0  0  0  0  0  0  0  0  0  0  0
    7.7813  -17.9029   17.4923 C   0  0  1  0  0  0  0  0  0  0  0  0
    7.1884  -18.4872   16.3558 O   0  0  0  0  0  0  0  0  0  0  0  0
    8.1761  -16.5001   17.1506 C   0  0  2  0  0  0  0  0  0  0  0  0
    8.7581  -16.4586   15.8564 N   0  0  0  0  0  0  0  0  0  0  0  0
    8.9490  -15.8405   18.2221 C   0  0  0  0  0  0  0  0  0  0  0  0
   10.1510  -16.1930   18.3317 O   0  0  0  0  0  0  0  0  0  0  0  0
    8.4431  -14.8552   19.1230 N   0  0  0  0  0  0  0  0  0  0  0  0
    7.1145  -14.2872   19.1678 C   0  0  0  0  0  0  0  0  0  0  0  0
    7.1346  -13.3079   20.3483 C   0  0  0  0  0  0  0  0  0  0  0  0
    8.6275  -12.9234   20.4158 C   0  0  0  0  0  0  0  0  0  0  0  0
    9.2348  -14.2916   20.1597 C   0  0  1  0  0  0  0  0  0  0  0  0
    9.1718  -15.0921   21.4229 C   0  0  0  0  0  0  0  0  0  0  0  0
    8.1992  -15.7064   21.8603 O   0  0  0  0  0  0  0  0  0  0  0  0
    9.3530  -22.0746   22.3450 N   0  0  0  0  0  0  0  0  0  0  0  0
   10.5748  -21.9364   23.0566 C   0  0  0  0  0  0  0  0  0  0  0  0
   11.0103  -22.9964   23.7024 N   0  0  0  0  0  0  0  0  0  0  0  0
   11.3566  -20.7667   23.1283 N   0  0  0  0  0  0  0  0  0  0  0  0
   10.9149  -19.5632   22.4745 C   0  0  0  0  0  0  0  0  0  0  0  0
   12.0324  -18.5096   22.6038 C   0  0  0  0  0  0  0  0  0  0  0  0
   11.6034  -17.2296   21.9703 C   0  0  0  0  0  0  0  0  0  0  0  0
   10.7333  -16.4275   22.8813 C   0  0  2  0  0  0  0  0  0  0  0  0
   10.3784  -15.1492   22.2242 N   0  0  0  0  0  0  0  0  0  0  0  0
   11.5812  -16.0226   24.0713 C   0  0  0  0  0  0  0  0  0  0  0  0
   12.4606  -14.9721   24.0000 O   0  0  0  0  0  0  0  0  0  0  0  0
   11.4566  -16.6837   25.1178 O   0  0  0  0  0  0  0  0  0  0  0  0
  2  1  1  1
  2  3  1  0
  2  4  1  0
  4  5  1  6
  6  8  1  0
  6  4  1  0
  7  6  2  0
  8  9  1  0
 10  9  1  0
 10 11  1  0
 12  8  1  0
 12 13  1  1
 12 11  1  0
 13 14  2  0
 16 15  1  0
 17 16  2  0
 18 16  1  0
 19 18  1  0
 20 19  1  0
 20 21  1  0
 22 21  1  6
 22 24  1  0
 23 22  1  0
 23 13  1  0
 24 26  2  0
 24 25  1  0
M  END
$$$$
