DPI.pdb
     RDKit          3D

 24 24  0  0  1  0  0  0  0  0999 V2000
   23.8568  -20.1324  -16.1756 N   0  0  0  0  0  0  0  0  0  0  0  0
   24.9071  -19.4903  -15.3896 C   0  0  1  0  0  0  0  0  0  0  0  0
   24.5105  -18.0559  -15.2371 C   0  0  0  0  0  0  0  0  0  0  0  0
   24.5503  -17.3076  -16.5066 C   0  0  0  0  0  0  0  0  0  0  0  0
   25.5743  -17.2257  -17.2460 O   0  0  0  0  0  0  0  0  0  0  0  0
   25.1150  -20.1294  -14.0773 C   0  0  0  0  0  0  0  0  0  0  0  0
   24.0891  -20.5702  -13.4590 O   0  0  0  0  0  0  0  0  0  0  0  0
   23.3874  -16.6536  -16.9111 O   0  0  0  0  0  0  0  0  0  0  0  0
   26.3791  -20.2882  -13.4551 N   0  0  0  0  0  0  0  0  0  0  0  0
   27.6151  -19.7349  -13.9767 C   0  0  0  0  0  0  0  0  0  0  0  0
   28.6104  -20.8363  -13.6850 C   0  0  0  0  0  0  0  0  0  0  0  0
   28.2467  -21.1158  -12.2177 C   0  0  0  0  0  0  0  0  0  0  0  0
   26.7162  -20.9880  -12.2440 C   0  0  1  0  0  0  0  0  0  0  0  0
   26.3228  -20.2442  -11.0269 C   0  0  0  0  0  0  0  0  0  0  0  0
   26.3719  -18.9894  -10.9843 O   0  0  0  0  0  0  0  0  0  0  0  0
   23.4725  -21.1638   -5.5503 C   0  0  0  0  0  0  0  0  0  0  0  0
   24.3601  -20.3803   -6.4625 C   0  0  0  0  0  0  0  0  0  0  0  0
   24.6442  -21.0704   -7.7641 C   0  0  2  0  0  0  0  0  0  0  0  0
   25.3154  -22.3825   -7.4696 C   0  0  0  0  0  0  0  0  0  0  0  0
   25.5355  -20.2690   -8.6787 C   0  0  2  0  0  0  0  0  0  0  0  0
   25.8804  -20.9618   -9.8822 N   0  0  0  0  0  0  0  0  0  0  0  0
   26.7796  -19.9698   -7.9280 C   0  0  0  0  0  0  0  0  0  0  0  0
   26.7577  -19.0374   -7.0840 O   0  0  0  0  0  0  0  0  0  0  0  0
   27.9561  -20.6862   -8.1317 O   0  0  0  0  0  0  0  0  0  0  0  0
  2  1  1  1
  2  3  1  0
  3  4  1  0
  4  8  1  0
  5  4  2  0
  6  7  2  0
  6  2  1  0
  9  6  1  0
 10  9  1  0
 11 10  1  0
 12 11  1  0
 12 13  1  0
 13 14  1  1
 13  9  1  0
 14 21  1  0
 15 14  2  0
 17 16  1  0
 18 20  1  0
 18 17  1  0
 18 19  1  1
 20 22  1  0
 20 21  1  6
 22 23  2  0
 22 24  1  0
M  END
$$$$
