DPI.pdb
     RDKit          3D

 24 24  0  0  1  0  0  0  0  0999 V2000
   28.4040  -22.9468  -18.2234 N   0  0  0  0  0  0  0  0  0  0  0  0
   27.3984  -21.9969  -17.7546 C   0  0  1  0  0  0  0  0  0  0  0  0
   26.0660  -22.6385  -17.9807 C   0  0  0  0  0  0  0  0  0  0  0  0
   25.7176  -22.7584  -19.4081 C   0  0  0  0  0  0  0  0  0  0  0  0
   25.8046  -21.8072  -20.2384 O   0  0  0  0  0  0  0  0  0  0  0  0
   27.5775  -21.6218  -16.3400 C   0  0  0  0  0  0  0  0  0  0  0  0
   28.0957  -22.4845  -15.5549 O   0  0  0  0  0  0  0  0  0  0  0  0
   25.2659  -23.9961  -19.8640 O   0  0  0  0  0  0  0  0  0  0  0  0
   27.2130  -20.3659  -15.7922 N   0  0  0  0  0  0  0  0  0  0  0  0
   26.5941  -19.2972  -16.5543 C   0  0  0  0  0  0  0  0  0  0  0  0
   27.2636  -18.0655  -15.9857 C   0  0  0  0  0  0  0  0  0  0  0  0
   27.1068  -18.3687  -14.4869 C   0  0  0  0  0  0  0  0  0  0  0  0
   27.3605  -19.8831  -14.4448 C   0  0  1  0  0  0  0  0  0  0  0  0
   26.3634  -20.4636  -13.5184 C   0  0  0  0  0  0  0  0  0  0  0  0
   25.2485  -20.8705  -13.9307 O   0  0  0  0  0  0  0  0  0  0  0  0
   25.5155  -20.6840   -7.4043 C   0  0  0  0  0  0  0  0  0  0  0  0
   25.0627  -20.9371   -8.8059 C   0  0  0  0  0  0  0  0  0  0  0  0
   26.1903  -21.0867   -9.7844 C   0  0  2  0  0  0  0  0  0  0  0  0
   27.1228  -19.9200   -9.6167 C   0  0  0  0  0  0  0  0  0  0  0  0
   25.7291  -21.1312  -11.2192 C   0  0  2  0  0  0  0  0  0  0  0  0
   26.6715  -20.5636  -12.1341 N   0  0  0  0  0  0  0  0  0  0  0  0
   24.4645  -20.3596  -11.2981 C   0  0  0  0  0  0  0  0  0  0  0  0
   23.4051  -20.9078  -10.8988 O   0  0  0  0  0  0  0  0  0  0  0  0
   24.4213  -19.0603  -11.7968 O   0  0  0  0  0  0  0  0  0  0  0  0
  2  1  1  1
  2  3  1  0
  3  4  1  0
  4  8  1  0
  5  4  2  0
  6  7  2  0
  6  2  1  0
  9  6  1  0
 10  9  1  0
 11 10  1  0
 12 11  1  0
 12 13  1  0
 13 14  1  1
 13  9  1  0
 14 21  1  0
 15 14  2  0
 17 16  1  0
 18 20  1  0
 18 17  1  0
 18 19  1  6
 20 22  1  0
 20 21  1  6
 22 23  2  0
 22 24  1  0
M  END
$$$$
