DPI.pdb
     RDKit          3D

 24 24  0  0  1  0  0  0  0  0999 V2000
   17.0200   -7.4850  -17.8851 N   0  0  0  0  0  0  0  0  0  0  0  0
   17.2994   -6.9492  -16.5554 C   0  0  1  0  0  0  0  0  0  0  0  0
   18.5920   -7.5580  -16.1122 C   0  0  0  0  0  0  0  0  0  0  0  0
   18.5330   -9.0273  -16.0088 C   0  0  0  0  0  0  0  0  0  0  0  0
   17.4608   -9.6816  -15.8531 O   0  0  0  0  0  0  0  0  0  0  0  0
   17.3665   -5.4765  -16.5316 C   0  0  0  0  0  0  0  0  0  0  0  0
   17.9741   -4.8913  -17.4895 O   0  0  0  0  0  0  0  0  0  0  0  0
   19.7332   -9.7321  -16.0881 O   0  0  0  0  0  0  0  0  0  0  0  0
   16.8007   -4.6654  -15.5156 N   0  0  0  0  0  0  0  0  0  0  0  0
   16.0698   -5.1858  -14.3751 C   0  0  0  0  0  0  0  0  0  0  0  0
   14.9582   -4.1723  -14.2142 C   0  0  0  0  0  0  0  0  0  0  0  0
   15.7880   -2.8807  -14.2937 C   0  0  0  0  0  0  0  0  0  0  0  0
   16.8132   -3.2328  -15.3820 C   0  0  1  0  0  0  0  0  0  0  0  0
   18.1222   -2.7135  -14.9280 C   0  0  0  0  0  0  0  0  0  0  0  0
   18.8355   -3.3584  -14.1193 O   0  0  0  0  0  0  0  0  0  0  0  0
   22.8373    0.4446  -17.1144 C   0  0  0  0  0  0  0  0  0  0  0  0
   22.0136    0.0609  -15.9278 C   0  0  0  0  0  0  0  0  0  0  0  0
   20.6784   -0.5221  -16.2858 C   0  0  2  0  0  0  0  0  0  0  0  0
   19.8774    0.5290  -17.0015 C   0  0  0  0  0  0  0  0  0  0  0  0
   19.8942   -0.9903  -15.0861 C   0  0  2  0  0  0  0  0  0  0  0  0
   18.5834   -1.4601  -15.4154 N   0  0  0  0  0  0  0  0  0  0  0  0
   19.7684    0.1659  -14.1653 C   0  0  0  0  0  0  0  0  0  0  0  0
   18.7306    0.8735  -14.2342 O   0  0  0  0  0  0  0  0  0  0  0  0
   20.7576    0.4837  -13.2383 O   0  0  0  0  0  0  0  0  0  0  0  0
  2  1  1  6
  2  3  1  0
  3  4  1  0
  4  8  1  0
  5  4  2  0
  6  7  2  0
  6  2  1  0
  9  6  1  0
 10  9  1  0
 11 10  1  0
 12 11  1  0
 12 13  1  0
 13 14  1  1
 13  9  1  0
 14 21  1  0
 15 14  2  0
 17 16  1  0
 18 20  1  0
 18 17  1  0
 18 19  1  1
 20 22  1  0
 20 21  1  6
 22 23  2  0
 22 24  1  0
M  END
$$$$
