DPI.pdb
     RDKit          3D

 24 24  0  0  1  0  0  0  0  0999 V2000
   27.2762  -21.7294  -18.1783 N   0  0  0  0  0  0  0  0  0  0  0  0
   26.3353  -20.8861  -17.4456 C   0  0  1  0  0  0  0  0  0  0  0  0
   24.9930  -21.5345  -17.5706 C   0  0  0  0  0  0  0  0  0  0  0  0
   24.2675  -21.1303  -18.7885 C   0  0  0  0  0  0  0  0  0  0  0  0
   23.8194  -19.9637  -18.9888 O   0  0  0  0  0  0  0  0  0  0  0  0
   26.7099  -20.7015  -16.0315 C   0  0  0  0  0  0  0  0  0  0  0  0
   27.3414  -21.6479  -15.4531 O   0  0  0  0  0  0  0  0  0  0  0  0
   24.0664  -22.0953  -19.7744 O   0  0  0  0  0  0  0  0  0  0  0  0
   26.4160  -19.5422  -15.2700 N   0  0  0  0  0  0  0  0  0  0  0  0
   25.6561  -18.4126  -15.7725 C   0  0  0  0  0  0  0  0  0  0  0  0
   26.3853  -17.2359  -15.1625 C   0  0  0  0  0  0  0  0  0  0  0  0
   26.4878  -17.7338  -13.7117 C   0  0  0  0  0  0  0  0  0  0  0  0
   26.7766  -19.2290  -13.9128 C   0  0  1  0  0  0  0  0  0  0  0  0
   25.9609  -19.9646  -12.9214 C   0  0  0  0  0  0  0  0  0  0  0  0
   24.8453  -20.4544  -13.2284 O   0  0  0  0  0  0  0  0  0  0  0  0
   26.8932  -19.7932   -7.1631 C   0  0  0  0  0  0  0  0  0  0  0  0
   26.2967  -19.7230   -8.5317 C   0  0  0  0  0  0  0  0  0  0  0  0
   26.4122  -21.0039   -9.3044 C   0  0  2  0  0  0  0  0  0  0  0  0
   27.8703  -21.3107   -9.5006 C   0  0  0  0  0  0  0  0  0  0  0  0
   25.7473  -20.9436  -10.6563 C   0  0  2  0  0  0  0  0  0  0  0  0
   26.4476  -20.1213  -11.5948 N   0  0  0  0  0  0  0  0  0  0  0  0
   24.3888  -20.3834  -10.4529 C   0  0  0  0  0  0  0  0  0  0  0  0
   23.5162  -21.1139   -9.9170 O   0  0  0  0  0  0  0  0  0  0  0  0
   24.0595  -19.0857  -10.8354 O   0  0  0  0  0  0  0  0  0  0  0  0
  2  1  1  1
  2  3  1  0
  3  4  1  0
  4  8  1  0
  5  4  2  0
  6  7  2  0
  6  2  1  0
  9  6  1  0
 10  9  1  0
 11 10  1  0
 12 11  1  0
 12 13  1  0
 13 14  1  1
 13  9  1  0
 14 21  1  0
 15 14  2  0
 17 16  1  0
 18 20  1  0
 18 17  1  0
 18 19  1  6
 20 22  1  0
 20 21  1  6
 22 23  2  0
 22 24  1  0
M  END
$$$$
