DPI.pdb
     RDKit          3D

 24 24  0  0  1  0  0  0  0  0999 V2000
   25.9005  -22.1422  -11.7565 N   0  0  0  0  0  0  0  0  0  0  0  0
   27.0399  -21.2726  -11.4755 C   0  0  1  0  0  0  0  0  0  0  0  0
   26.5149  -19.8718  -11.4598 C   0  0  0  0  0  0  0  0  0  0  0  0
   25.9740  -19.4431  -12.7624 C   0  0  0  0  0  0  0  0  0  0  0  0
   24.8928  -18.7999  -12.9007 O   0  0  0  0  0  0  0  0  0  0  0  0
   27.7168  -21.6036  -10.2082 C   0  0  0  0  0  0  0  0  0  0  0  0
   26.9884  -21.8659   -9.1934 O   0  0  0  0  0  0  0  0  0  0  0  0
   26.7017  -19.7688  -13.9061 O   0  0  0  0  0  0  0  0  0  0  0  0
   29.1238  -21.6509  -10.0404 N   0  0  0  0  0  0  0  0  0  0  0  0
   30.0768  -21.3567  -11.0945 C   0  0  0  0  0  0  0  0  0  0  0  0
   31.1601  -22.3830  -10.8461 C   0  0  0  0  0  0  0  0  0  0  0  0
   31.3395  -22.1914   -9.3315 C   0  0  0  0  0  0  0  0  0  0  0  0
   29.8903  -21.9802   -8.8681 C   0  0  1  0  0  0  0  0  0  0  0  0
   29.9092  -20.8856   -7.8726 C   0  0  0  0  0  0  0  0  0  0  0  0
   30.1392  -19.6981   -8.2125 O   0  0  0  0  0  0  0  0  0  0  0  0
   25.9221  -19.2409   -5.5300 C   0  0  0  0  0  0  0  0  0  0  0  0
   27.2948  -19.5150   -6.0538 C   0  0  0  0  0  0  0  0  0  0  0  0
   28.2970  -19.8245   -4.9810 C   0  0  2  0  0  0  0  0  0  0  0  0
   28.4038  -18.6323   -4.0722 C   0  0  0  0  0  0  0  0  0  0  0  0
   29.6681  -20.1403   -5.5230 C   0  0  2  0  0  0  0  0  0  0  0  0
   29.6623  -21.1817   -6.5042 N   0  0  0  0  0  0  0  0  0  0  0  0
   30.5050  -20.5709   -4.3763 C   0  0  0  0  0  0  0  0  0  0  0  0
   30.5687  -21.7992   -4.1120 O   0  0  0  0  0  0  0  0  0  0  0  0
   31.2130  -19.6614   -3.5951 O   0  0  0  0  0  0  0  0  0  0  0  0
  2  1  1  1
  2  3  1  0
  3  4  1  0
  4  8  1  0
  5  4  2  0
  6  7  2  0
  6  2  1  0
  9  6  1  0
 10  9  1  0
 11 10  1  0
 12 11  1  0
 12 13  1  0
 13 14  1  1
 13  9  1  0
 14 21  1  0
 15 14  2  0
 17 16  1  0
 18 20  1  0
 18 17  1  0
 18 19  1  1
 20 22  1  0
 20 21  1  6
 22 23  2  0
 22 24  1  0
M  END
$$$$
