DPI.pdb
     RDKit          3D

 24 24  0  0  1  0  0  0  0  0999 V2000
   23.3551  -21.8231  -12.5783 N   0  0  0  0  0  0  0  0  0  0  0  0
   24.4340  -20.8588  -12.3803 C   0  0  1  0  0  0  0  0  0  0  0  0
   23.7993  -19.5042  -12.3653 C   0  0  0  0  0  0  0  0  0  0  0  0
   23.3960  -19.0405  -13.7052 C   0  0  0  0  0  0  0  0  0  0  0  0
   22.2210  -18.6758  -14.0020 O   0  0  0  0  0  0  0  0  0  0  0  0
   25.2031  -21.1021  -11.1461 C   0  0  0  0  0  0  0  0  0  0  0  0
   24.5778  -21.5675  -10.1354 O   0  0  0  0  0  0  0  0  0  0  0  0
   24.3719  -19.0040  -14.7002 O   0  0  0  0  0  0  0  0  0  0  0  0
   26.5920  -20.8544  -11.0061 N   0  0  0  0  0  0  0  0  0  0  0  0
   27.4039  -20.1949  -12.0120 C   0  0  0  0  0  0  0  0  0  0  0  0
   28.6985  -20.9747  -11.9442 C   0  0  0  0  0  0  0  0  0  0  0  0
   28.9040  -20.9804  -10.4208 C   0  0  0  0  0  0  0  0  0  0  0  0
   27.4683  -21.1762   -9.9111 C   0  0  1  0  0  0  0  0  0  0  0  0
   27.2923  -20.2706   -8.7543 C   0  0  0  0  0  0  0  0  0  0  0  0
   26.8362  -19.1087   -8.8983 O   0  0  0  0  0  0  0  0  0  0  0  0
   29.9479  -20.2770   -3.9714 C   0  0  0  0  0  0  0  0  0  0  0  0
   29.0792  -21.1162   -4.8516 C   0  0  0  0  0  0  0  0  0  0  0  0
   27.6844  -20.5846   -5.0028 C   0  0  2  0  0  0  0  0  0  0  0  0
   26.7239  -21.7367   -4.9079 C   0  0  0  0  0  0  0  0  0  0  0  0
   27.4579  -19.8767   -6.3147 C   0  0  2  0  0  0  0  0  0  0  0  0
   27.6456  -20.7224   -7.4535 N   0  0  0  0  0  0  0  0  0  0  0  0
   28.4319  -18.7600   -6.3849 C   0  0  0  0  0  0  0  0  0  0  0  0
   29.4090  -18.8689   -7.1697 O   0  0  0  0  0  0  0  0  0  0  0  0
   28.2937  -17.6090   -5.6137 O   0  0  0  0  0  0  0  0  0  0  0  0
  2  1  1  1
  2  3  1  0
  3  4  1  0
  4  8  1  0
  5  4  2  0
  6  7  2  0
  6  2  1  0
  9  6  1  0
 10  9  1  0
 11 10  1  0
 12 11  1  0
 12 13  1  0
 13 14  1  1
 13  9  1  0
 14 21  1  0
 15 14  2  0
 17 16  1  0
 18 20  1  0
 18 17  1  0
 18 19  1  6
 20 22  1  0
 20 21  1  6
 22 23  2  0
 22 24  1  0
M  END
$$$$
