DPI.pdb
     RDKit          3D

 24 24  0  0  1  0  0  0  0  0999 V2000
   20.7166  -15.7111  -17.6220 N   0  0  0  0  0  0  0  0  0  0  0  0
   21.7106  -14.6783  -17.9020 C   0  0  1  0  0  0  0  0  0  0  0  0
   21.3787  -14.1196  -19.2494 C   0  0  0  0  0  0  0  0  0  0  0  0
   21.4444  -15.1263  -20.3242 C   0  0  0  0  0  0  0  0  0  0  0  0
   22.4318  -15.8957  -20.5115 O   0  0  0  0  0  0  0  0  0  0  0  0
   21.7427  -13.6186  -16.8773 C   0  0  0  0  0  0  0  0  0  0  0  0
   20.6322  -13.2432  -16.3722 O   0  0  0  0  0  0  0  0  0  0  0  0
   20.3505  -15.2320  -21.1820 O   0  0  0  0  0  0  0  0  0  0  0  0
   22.9250  -12.9879  -16.4142 N   0  0  0  0  0  0  0  0  0  0  0  0
   24.2538  -13.2882  -16.9143 C   0  0  0  0  0  0  0  0  0  0  0  0
   25.0936  -13.2256  -15.6575 C   0  0  0  0  0  0  0  0  0  0  0  0
   24.5798  -11.8956  -15.0829 C   0  0  0  0  0  0  0  0  0  0  0  0
   23.0803  -11.9720  -15.4072 C   0  0  1  0  0  0  0  0  0  0  0  0
   22.6710  -10.6315  -15.8812 C   0  0  0  0  0  0  0  0  0  0  0  0
   22.9277  -10.2455  -17.0490 O   0  0  0  0  0  0  0  0  0  0  0  0
   17.6469   -9.1562  -15.5068 C   0  0  0  0  0  0  0  0  0  0  0  0
   19.0374   -9.0245  -14.9748 C   0  0  0  0  0  0  0  0  0  0  0  0
   20.0448   -8.6328  -16.0154 C   0  0  2  0  0  0  0  0  0  0  0  0
   20.0357   -9.6725  -17.1006 C   0  0  0  0  0  0  0  0  0  0  0  0
   21.4462   -8.5181  -15.4712 C   0  0  2  0  0  0  0  0  0  0  0  0
   21.9733   -9.7618  -14.9991 N   0  0  0  0  0  0  0  0  0  0  0  0
   21.4008   -7.5599  -14.3396 C   0  0  0  0  0  0  0  0  0  0  0  0
   21.4263   -8.0180  -13.1683 O   0  0  0  0  0  0  0  0  0  0  0  0
   21.3314   -6.1835  -14.5388 O   0  0  0  0  0  0  0  0  0  0  0  0
  2  1  1  1
  2  3  1  0
  3  4  1  0
  4  8  1  0
  5  4  2  0
  6  7  2  0
  6  2  1  0
  9  6  1  0
 10  9  1  0
 11 10  1  0
 12 11  1  0
 12 13  1  0
 13 14  1  6
 13  9  1  0
 14 21  1  0
 15 14  2  0
 17 16  1  0
 18 20  1  0
 18 17  1  0
 18 19  1  6
 20 22  1  0
 20 21  1  1
 22 23  2  0
 22 24  1  0
M  END
$$$$
