DPI.pdb
     RDKit          3D

 24 24  0  0  1  0  0  0  0  0999 V2000
   23.4737  -21.9175  -12.9311 N   0  0  0  0  0  0  0  0  0  0  0  0
   24.4006  -20.8552  -12.5494 C   0  0  1  0  0  0  0  0  0  0  0  0
   23.5836  -19.6124  -12.3882 C   0  0  0  0  0  0  0  0  0  0  0  0
   22.9418  -19.1765  -13.6417 C   0  0  0  0  0  0  0  0  0  0  0  0
   23.5743  -18.9289  -14.7097 O   0  0  0  0  0  0  0  0  0  0  0  0
   25.1528  -21.1633  -11.3193 C   0  0  0  0  0  0  0  0  0  0  0  0
   24.5075  -21.6498  -10.3314 O   0  0  0  0  0  0  0  0  0  0  0  0
   21.5554  -19.0302  -13.6442 O   0  0  0  0  0  0  0  0  0  0  0  0
   26.5462  -20.9559  -11.1596 N   0  0  0  0  0  0  0  0  0  0  0  0
   27.3964  -20.3472  -12.1659 C   0  0  0  0  0  0  0  0  0  0  0  0
   28.6641  -21.1654  -12.0555 C   0  0  0  0  0  0  0  0  0  0  0  0
   28.8423  -21.1401  -10.5288 C   0  0  0  0  0  0  0  0  0  0  0  0
   27.3923  -21.2780  -10.0412 C   0  0  1  0  0  0  0  0  0  0  0  0
   27.2247  -20.3391   -8.9100 C   0  0  0  0  0  0  0  0  0  0  0  0
   26.8057  -19.1684   -9.0899 O   0  0  0  0  0  0  0  0  0  0  0  0
   27.9308  -20.2004   -2.6846 C   0  0  0  0  0  0  0  0  0  0  0  0
   27.5579  -19.5850   -3.9945 C   0  0  0  0  0  0  0  0  0  0  0  0
   27.6352  -20.5384   -5.1505 C   0  0  2  0  0  0  0  0  0  0  0  0
   28.9970  -21.1740   -5.1520 C   0  0  0  0  0  0  0  0  0  0  0  0
   27.4139  -19.8724   -6.4849 C   0  0  2  0  0  0  0  0  0  0  0  0
   27.5437  -20.7686   -7.5928 N   0  0  0  0  0  0  0  0  0  0  0  0
   28.4330  -18.8024   -6.6160 C   0  0  0  0  0  0  0  0  0  0  0  0
   29.4710  -19.0455   -7.2838 O   0  0  0  0  0  0  0  0  0  0  0  0
   28.2716  -17.5515   -6.0260 O   0  0  0  0  0  0  0  0  0  0  0  0
  2  1  1  1
  2  3  1  0
  3  4  1  0
  4  8  1  0
  5  4  2  0
  6  7  2  0
  6  2  1  0
  9  6  1  0
 10  9  1  0
 11 10  1  0
 12 11  1  0
 12 13  1  0
 13 14  1  1
 13  9  1  0
 14 21  1  0
 15 14  2  0
 17 16  1  0
 18 20  1  0
 18 17  1  0
 18 19  1  6
 20 22  1  0
 20 21  1  6
 22 23  2  0
 22 24  1  0
M  END
$$$$
