DPI.pdb
     RDKit          3D

 24 24  0  0  1  0  0  0  0  0999 V2000
   17.1435  -12.0858  -17.4775 N   0  0  0  0  0  0  0  0  0  0  0  0
   16.7341  -10.9987  -16.5921 C   0  0  1  0  0  0  0  0  0  0  0  0
   16.6664  -11.5734  -15.2126 C   0  0  0  0  0  0  0  0  0  0  0  0
   15.7384  -12.7139  -15.1070 C   0  0  0  0  0  0  0  0  0  0  0  0
   16.0426  -13.8255  -14.5839 O   0  0  0  0  0  0  0  0  0  0  0  0
   17.6454   -9.8408  -16.6443 C   0  0  0  0  0  0  0  0  0  0  0  0
   18.8445  -10.0422  -17.0328 O   0  0  0  0  0  0  0  0  0  0  0  0
   14.4504  -12.5517  -15.6154 O   0  0  0  0  0  0  0  0  0  0  0  0
   17.2794   -8.5171  -16.2923 N   0  0  0  0  0  0  0  0  0  0  0  0
   15.9444   -8.1277  -15.8775 C   0  0  0  0  0  0  0  0  0  0  0  0
   15.7816   -6.7771  -16.5393 C   0  0  0  0  0  0  0  0  0  0  0  0
   17.1199   -6.1396  -16.1322 C   0  0  0  0  0  0  0  0  0  0  0  0
   18.0862   -7.3261  -16.2655 C   0  0  1  0  0  0  0  0  0  0  0  0
   18.9943   -7.2782  -15.0982 C   0  0  0  0  0  0  0  0  0  0  0  0
   18.6071   -7.6279  -13.9552 O   0  0  0  0  0  0  0  0  0  0  0  0
   24.1158   -9.7456  -13.9424 C   0  0  0  0  0  0  0  0  0  0  0  0
   23.2837   -8.5438  -13.6308 C   0  0  0  0  0  0  0  0  0  0  0  0
   22.2337   -8.2554  -14.6630 C   0  0  2  0  0  0  0  0  0  0  0  0
   22.9194   -7.9157  -15.9564 C   0  0  0  0  0  0  0  0  0  0  0  0
   21.3275   -7.1114  -14.2842 C   0  0  2  0  0  0  0  0  0  0  0  0
   20.3316   -6.8279  -15.2716 N   0  0  0  0  0  0  0  0  0  0  0  0
   22.1831   -5.9118  -14.1126 C   0  0  0  0  0  0  0  0  0  0  0  0
   22.2894   -5.1116  -15.0775 O   0  0  0  0  0  0  0  0  0  0  0  0
   22.8630   -5.6524  -12.9255 O   0  0  0  0  0  0  0  0  0  0  0  0
  2  1  1  6
  2  3  1  0
  3  4  1  0
  4  8  1  0
  5  4  2  0
  6  7  2  0
  6  2  1  0
  9  6  1  0
 10  9  1  0
 11 10  1  0
 12 11  1  0
 12 13  1  0
 13 14  1  1
 13  9  1  0
 14 21  1  0
 15 14  2  0
 17 16  1  0
 18 20  1  0
 18 17  1  0
 18 19  1  6
 20 22  1  0
 20 21  1  6
 22 23  2  0
 22 24  1  0
M  END
$$$$
