GLN.pdb
     RDKit          3D

 21 20  0  0  1  0  0  0  0  0999 V2000
   20.1669  -11.1883  -20.4198 N   0  0  0  0  0  0  0  0  0  0  0  0
   21.5917  -11.3571  -20.2855 C   0  0  0  0  0  0  0  0  0  0  0  0
   22.0778  -10.9887  -18.9472 C   0  0  0  0  0  0  0  0  0  0  0  0
   21.3272  -11.1229  -17.9484 O   0  0  0  0  0  0  0  0  0  0  0  0
   27.2569  -10.6272  -15.6301 C   0  0  0  0  0  0  0  0  0  0  0  0
   25.8117  -10.1930  -15.7626 C   0  0  2  0  0  0  0  0  0  0  0  0
   25.0753  -10.4702  -14.5208 C   0  0  0  0  0  0  0  0  0  0  0  0
   25.1990  -10.4893  -17.0701 C   0  0  0  0  0  0  0  0  0  0  0  0
   23.8451  -10.0577  -17.3930 C   0  0  2  0  0  0  0  0  0  0  0  0
   23.3631  -10.4810  -18.6971 N   0  0  0  0  0  0  0  0  0  0  0  0
   23.6289   -8.6037  -17.3299 C   0  0  0  0  0  0  0  0  0  0  0  0
   24.0365   -7.7609  -18.1776 O   0  0  0  0  0  0  0  0  0  0  0  0
   21.6384   -3.9449  -16.1115 N   0  0  0  0  0  0  0  0  0  0  0  0
   21.0788   -4.8246  -17.0675 C   0  0  0  0  0  0  0  0  0  0  0  0
   20.2135   -4.3499  -17.8447 O   0  0  0  0  0  0  0  0  0  0  0  0
   21.4721   -6.2442  -17.1740 C   0  0  0  0  0  0  0  0  0  0  0  0
   22.5427   -6.5996  -16.2014 C   0  0  2  0  0  0  0  0  0  0  0  0
   22.8978   -7.9996  -16.2396 N   0  0  0  0  0  0  0  0  0  0  0  0
   22.1705   -6.2804  -14.8072 C   0  0  0  0  0  0  0  0  0  0  0  0
   21.6747   -7.1557  -14.0599 O   0  0  0  0  0  0  0  0  0  0  0  0
   22.3437   -5.0171  -14.2513 O   0  0  0  0  0  0  0  0  0  0  0  0
  1  2  1  0
  2  3  1  0
  3  4  2  0
  3 10  1  0
  6  5  1  1
  6  7  1  0
  8  6  1  0
  9  8  1  6
  9 11  1  0
 10  9  1  0
 11 12  2  0
 11 18  1  0
 13 14  1  0
 14 16  1  0
 14 15  2  0
 17 16  1  6
 17 19  1  0
 18 17  1  0
 19 21  1  0
 20 19  2  0
M  END
$$$$
