GLN.pdb
     RDKit          3D

 21 20  0  0  1  0  0  0  0  0999 V2000
   28.9733  -20.1097  -15.0685 N   0  0  0  0  0  0  0  0  0  0  0  0
   27.9902  -19.3741  -14.3142 C   0  0  0  0  0  0  0  0  0  0  0  0
   27.1165  -20.2527  -13.5219 C   0  0  0  0  0  0  0  0  0  0  0  0
   27.0155  -21.4696  -13.8186 O   0  0  0  0  0  0  0  0  0  0  0  0
   26.0283  -19.9748   -7.9414 C   0  0  0  0  0  0  0  0  0  0  0  0
   25.9488  -20.8342   -9.1864 C   0  0  2  0  0  0  0  0  0  0  0  0
   27.2356  -21.5000   -9.4350 C   0  0  0  0  0  0  0  0  0  0  0  0
   25.1982  -20.2305  -10.3021 C   0  0  0  0  0  0  0  0  0  0  0  0
   25.4223  -20.6412  -11.6822 C   0  0  2  0  0  0  0  0  0  0  0  0
   26.3622  -19.8150  -12.4211 N   0  0  0  0  0  0  0  0  0  0  0  0
   24.2075  -20.7169  -12.5090 C   0  0  0  0  0  0  0  0  0  0  0  0
   23.6885  -19.7572  -13.1450 O   0  0  0  0  0  0  0  0  0  0  0  0
   24.0830  -25.0564  -14.5353 N   0  0  0  0  0  0  0  0  0  0  0  0
   23.3162  -23.9101  -14.8503 C   0  0  0  0  0  0  0  0  0  0  0  0
   23.6614  -23.2510  -15.8625 O   0  0  0  0  0  0  0  0  0  0  0  0
   22.1550  -23.4795  -14.0456 C   0  0  0  0  0  0  0  0  0  0  0  0
   22.3246  -22.0964  -13.5194 C   0  0  2  0  0  0  0  0  0  0  0  0
   23.4802  -21.9559  -12.6637 N   0  0  0  0  0  0  0  0  0  0  0  0
   21.1508  -21.6354  -12.7489 C   0  0  0  0  0  0  0  0  0  0  0  0
   21.2607  -21.3195  -11.5412 O   0  0  0  0  0  0  0  0  0  0  0  0
   19.8801  -21.5263  -13.3044 O   0  0  0  0  0  0  0  0  0  0  0  0
  1  2  1  0
  2  3  1  0
  3  4  2  0
  3 10  1  0
  6  5  1  1
  6  7  1  0
  8  6  1  0
  9  8  1  1
  9 11  1  0
 10  9  1  0
 11 12  2  0
 11 18  1  0
 13 14  1  0
 14 16  1  0
 14 15  2  0
 17 16  1  1
 17 19  1  0
 18 17  1  0
 19 21  1  0
 20 19  2  0
M  END
$$$$
