GLN.pdb
     RDKit          3D

 21 20  0  0  1  0  0  0  0  0999 V2000
   15.7076   -9.7814  -15.7356 N   0  0  0  0  0  0  0  0  0  0  0  0
   17.0692  -10.2345  -15.6038 C   0  0  0  0  0  0  0  0  0  0  0  0
   17.7107   -9.7379  -14.3770 C   0  0  0  0  0  0  0  0  0  0  0  0
   17.4163  -10.2454  -13.2658 O   0  0  0  0  0  0  0  0  0  0  0  0
   21.6754   -9.9895  -11.9933 C   0  0  0  0  0  0  0  0  0  0  0  0
   21.6896   -9.1844  -13.2766 C   0  0  2  0  0  0  0  0  0  0  0  0
   23.0646   -9.0342  -13.7744 C   0  0  0  0  0  0  0  0  0  0  0  0
   20.7659   -8.0359  -13.2910 C   0  0  0  0  0  0  0  0  0  0  0  0
   19.3254   -8.2144  -13.1617 C   0  0  2  0  0  0  0  0  0  0  0  0
   18.6600   -8.7032  -14.3576 N   0  0  0  0  0  0  0  0  0  0  0  0
   18.5886   -7.0099  -12.7478 C   0  0  0  0  0  0  0  0  0  0  0  0
   18.3711   -5.9956  -13.4682 O   0  0  0  0  0  0  0  0  0  0  0  0
   15.6747   -3.5812  -10.1717 N   0  0  0  0  0  0  0  0  0  0  0  0
   15.0673   -4.6567  -10.8613 C   0  0  0  0  0  0  0  0  0  0  0  0
   13.8317   -4.5757  -11.0734 O   0  0  0  0  0  0  0  0  0  0  0  0
   15.8235   -5.8376  -11.3249 C   0  0  0  0  0  0  0  0  0  0  0  0
   17.2693   -5.7434  -10.9800 C   0  0  2  0  0  0  0  0  0  0  0  0
   18.0304   -6.8899  -11.4203 N   0  0  0  0  0  0  0  0  0  0  0  0
   17.4970   -5.5989   -9.5269 C   0  0  0  0  0  0  0  0  0  0  0  0
   16.9895   -4.6462   -8.8903 O   0  0  0  0  0  0  0  0  0  0  0  0
   18.2713   -6.4916   -8.7929 O   0  0  0  0  0  0  0  0  0  0  0  0
  1  2  1  0
  2  3  1  0
  3  4  2  0
  3 10  1  0
  6  5  1  1
  6  7  1  0
  8  6  1  0
  9  8  1  6
  9 11  1  0
 10  9  1  0
 11 12  2  0
 11 18  1  0
 13 14  1  0
 14 16  1  0
 14 15  2  0
 17 16  1  1
 17 19  1  0
 18 17  1  0
 19 21  1  0
 20 19  2  0
M  END
$$$$
