GLN.pdb
     RDKit          3D

 21 20  0  0  1  0  0  0  0  0999 V2000
   21.4040  -11.6656  -21.2230 N   0  0  0  0  0  0  0  0  0  0  0  0
   20.9185  -12.6078  -20.2466 C   0  0  0  0  0  0  0  0  0  0  0  0
   19.8751  -12.0350  -19.3828 C   0  0  0  0  0  0  0  0  0  0  0  0
   18.7171  -11.8520  -19.8352 O   0  0  0  0  0  0  0  0  0  0  0  0
   17.6406  -13.3319  -14.3257 C   0  0  0  0  0  0  0  0  0  0  0  0
   17.5902  -12.2973  -15.4312 C   0  0  2  0  0  0  0  0  0  0  0  0
   16.5363  -12.6309  -16.4003 C   0  0  0  0  0  0  0  0  0  0  0  0
   18.9089  -11.8344  -15.8994 C   0  0  0  0  0  0  0  0  0  0  0  0
   19.0638  -11.1271  -17.1640 C   0  0  2  0  0  0  0  0  0  0  0  0
   20.0868  -11.6657  -18.0446 N   0  0  0  0  0  0  0  0  0  0  0  0
   19.3502   -9.6895  -17.0365 C   0  0  0  0  0  0  0  0  0  0  0  0
   20.4731   -9.1843  -16.7557 O   0  0  0  0  0  0  0  0  0  0  0  0
   19.1377   -4.5873  -17.7373 N   0  0  0  0  0  0  0  0  0  0  0  0
   17.8283   -5.0684  -17.9716 C   0  0  0  0  0  0  0  0  0  0  0  0
   16.9886   -4.2482  -18.4191 O   0  0  0  0  0  0  0  0  0  0  0  0
   17.4326   -6.4675  -17.7120 C   0  0  0  0  0  0  0  0  0  0  0  0
   18.5626   -7.2749  -17.1739 C   0  0  2  0  0  0  0  0  0  0  0  0
   18.3178   -8.6976  -17.2324 N   0  0  0  0  0  0  0  0  0  0  0  0
   18.8778   -6.9426  -15.7688 C   0  0  0  0  0  0  0  0  0  0  0  0
   18.1837   -7.3996  -14.8309 O   0  0  0  0  0  0  0  0  0  0  0  0
   19.9407   -6.1203  -15.4090 O   0  0  0  0  0  0  0  0  0  0  0  0
  1  2  1  0
  2  3  1  0
  3  4  2  0
  3 10  1  0
  6  5  1  6
  6  7  1  0
  8  6  1  0
  9  8  1  1
  9 11  1  0
 10  9  1  0
 11 12  2  0
 11 18  1  0
 13 14  1  0
 14 16  1  0
 14 15  2  0
 17 16  1  1
 17 19  1  0
 18 17  1  0
 19 21  1  0
 20 19  2  0
M  END
$$$$
