GLN.pdb
     RDKit          3D

 21 20  0  0  1  0  0  0  0  0999 V2000
   21.5305  -15.6312  -18.2136 N   0  0  0  0  0  0  0  0  0  0  0  0
   21.5717  -14.2394  -18.5850 C   0  0  0  0  0  0  0  0  0  0  0  0
   22.1641  -13.3950  -17.5366 C   0  0  0  0  0  0  0  0  0  0  0  0
   21.9273  -13.6386  -16.3267 O   0  0  0  0  0  0  0  0  0  0  0  0
   25.8872  -10.6680  -14.7764 C   0  0  0  0  0  0  0  0  0  0  0  0
   25.6413  -10.0651  -16.1442 C   0  0  2  0  0  0  0  0  0  0  0  0
   25.2728   -8.6472  -16.0227 C   0  0  0  0  0  0  0  0  0  0  0  0
   24.9159  -10.9425  -17.0804 C   0  0  0  0  0  0  0  0  0  0  0  0
   23.5780  -11.4365  -16.7811 C   0  0  2  0  0  0  0  0  0  0  0  0
   23.0030  -12.2998  -17.7990 N   0  0  0  0  0  0  0  0  0  0  0  0
   22.5772  -10.3900  -16.5202 C   0  0  0  0  0  0  0  0  0  0  0  0
   22.0136   -9.6752  -17.3957 O   0  0  0  0  0  0  0  0  0  0  0  0
   18.5253   -8.4917  -12.2273 N   0  0  0  0  0  0  0  0  0  0  0  0
   19.1107   -8.6342  -13.5071 C   0  0  0  0  0  0  0  0  0  0  0  0
   18.6821   -7.8841  -14.4192 O   0  0  0  0  0  0  0  0  0  0  0  0
   20.1804   -9.6118  -13.7924 C   0  0  0  0  0  0  0  0  0  0  0  0
   21.0864   -9.1446  -14.8782 C   0  0  2  0  0  0  0  0  0  0  0  0
   22.1417  -10.0853  -15.1765 N   0  0  0  0  0  0  0  0  0  0  0  0
   21.7290   -7.8516  -14.5630 C   0  0  0  0  0  0  0  0  0  0  0  0
   22.8601   -7.8124  -14.0248 O   0  0  0  0  0  0  0  0  0  0  0  0
   21.1311   -6.6260  -14.8381 O   0  0  0  0  0  0  0  0  0  0  0  0
  1  2  1  0
  2  3  1  0
  3  4  2  0
  3 10  1  0
  6  5  1  1
  6  7  1  0
  8  6  1  0
  9  8  1  6
  9 11  1  0
 10  9  1  0
 11 12  2  0
 11 18  1  0
 13 14  1  0
 14 16  1  0
 14 15  2  0
 17 16  1  1
 17 19  1  0
 18 17  1  0
 19 21  1  0
 20 19  2  0
M  END
$$$$
