ECM.pdb
     RDKit          3D

 24 23  0  0  1  0  0  0  0  0999 V2000
   25.3227  -18.7574  -15.5964 N   0  0  0  0  0  0  0  0  0  0  0  0
   24.1514  -18.6529  -14.7110 C   0  0  1  0  0  0  0  0  0  0  0  0
   22.9649  -19.0153  -15.5646 C   0  0  0  0  0  0  0  0  0  0  0  0
   22.8062  -18.2255  -16.8104 C   0  0  0  0  0  0  0  0  0  0  0  0
   22.4631  -16.8209  -16.5157 C   0  0  0  0  0  0  0  0  0  0  0  0
   22.9175  -15.8956  -17.2152 O   0  0  0  0  0  0  0  0  0  0  0  0
   24.2240  -19.6842  -13.6378 C   0  0  0  0  0  0  0  0  0  0  0  0
   23.1472  -20.0577  -13.1059 O   0  0  0  0  0  0  0  0  0  0  0  0
   21.6170  -16.5152  -15.4385 O   0  0  0  0  0  0  0  0  0  0  0  0
   25.4137  -20.2674  -13.1798 N   0  0  0  0  0  0  0  0  0  0  0  0
   25.4382  -21.1627  -12.0436 C   0  0  1  0  0  0  0  0  0  0  0  0
   26.3113  -22.3576  -12.4424 C   0  0  0  0  0  0  0  0  0  0  0  0
   28.0047  -21.8101  -12.7880 S   0  0  0  0  0  0  0  0  0  0  0  0
   26.0058  -20.5218  -10.8365 C   0  0  0  0  0  0  0  0  0  0  0  0
   27.1818  -20.0761  -10.8821 O   0  0  0  0  0  0  0  0  0  0  0  0
   29.7329  -18.7930   -6.7815 C   0  0  0  0  0  0  0  0  0  0  0  0
   28.2888  -18.8802   -5.6926 S   0  0  0  0  0  0  0  0  0  0  0  0
   27.1596  -20.1093   -6.3423 C   0  0  0  0  0  0  0  0  0  0  0  0
   26.7054  -19.8332   -7.7368 C   0  0  0  0  0  0  0  0  0  0  0  0
   25.8252  -20.8781   -8.3407 C   0  0  2  0  0  0  0  0  0  0  0  0
   25.3107  -20.3691   -9.6088 N   0  0  0  0  0  0  0  0  0  0  0  0
   24.7391  -21.3569   -7.4646 C   0  0  0  0  0  0  0  0  0  0  0  0
   23.5423  -21.2196   -7.8226 O   0  0  0  0  0  0  0  0  0  0  0  0
   24.9608  -21.9655   -6.2382 O   0  0  0  0  0  0  0  0  0  0  0  0
  2  1  1  6
  3  2  1  0
  4  3  1  0
  5  6  2  0
  5  4  1  0
  7  8  2  0
  7  2  1  0
  9  5  1  0
 10  7  1  0
 11 10  1  0
 11 14  1  0
 11 12  1  6
 13 12  1  0
 14 21  1  0
 15 14  2  0
 17 16  1  0
 18 17  1  0
 20 19  1  1
 19 18  1  0
 20 22  1  0
 21 20  1  0
 22 23  2  0
 22 24  1  0
M  END
$$$$
