ECM.pdb
     RDKit          3D

 24 23  0  0  1  0  0  0  0  0999 V2000
   27.6927  -21.6778  -15.3366 N   0  0  0  0  0  0  0  0  0  0  0  0
   26.9081  -20.5538  -14.8001 C   0  0  1  0  0  0  0  0  0  0  0  0
   26.1744  -19.9726  -15.9798 C   0  0  0  0  0  0  0  0  0  0  0  0
   27.0171  -19.2590  -16.9707 C   0  0  0  0  0  0  0  0  0  0  0  0
   27.6719  -18.0813  -16.3696 C   0  0  0  0  0  0  0  0  0  0  0  0
   27.0033  -17.2237  -15.7616 O   0  0  0  0  0  0  0  0  0  0  0  0
   25.8626  -21.0563  -13.8647 C   0  0  0  0  0  0  0  0  0  0  0  0
   25.1252  -21.9971  -14.2558 O   0  0  0  0  0  0  0  0  0  0  0  0
   29.0615  -17.9175  -16.4789 O   0  0  0  0  0  0  0  0  0  0  0  0
   25.6448  -20.5503  -12.5755 N   0  0  0  0  0  0  0  0  0  0  0  0
   24.5718  -21.0353  -11.7351 C   0  0  1  0  0  0  0  0  0  0  0  0
   24.8313  -20.4862  -10.3278 C   0  0  0  0  0  0  0  0  0  0  0  0
   26.3842  -21.1521   -9.6707 S   0  0  0  0  0  0  0  0  0  0  0  0
   23.2436  -20.5796  -12.2021 C   0  0  0  0  0  0  0  0  0  0  0  0
   23.0914  -19.3692  -12.5112 O   0  0  0  0  0  0  0  0  0  0  0  0
   19.3115  -24.2153  -15.4775 C   0  0  0  0  0  0  0  0  0  0  0  0
   18.0296  -23.0214  -15.0193 S   0  0  0  0  0  0  0  0  0  0  0  0
   18.7977  -21.6824  -14.1109 C   0  0  0  0  0  0  0  0  0  0  0  0
   20.1526  -22.0135  -13.5802 C   0  0  0  0  0  0  0  0  0  0  0  0
   20.8100  -20.9318  -12.7871 C   0  0  2  0  0  0  0  0  0  0  0  0
   22.1077  -21.4205  -12.3301 N   0  0  0  0  0  0  0  0  0  0  0  0
   20.0032  -20.4023  -11.6713 C   0  0  0  0  0  0  0  0  0  0  0  0
   20.1817  -20.8431  -10.5081 O   0  0  0  0  0  0  0  0  0  0  0  0
   19.0342  -19.4225  -11.8286 O   0  0  0  0  0  0  0  0  0  0  0  0
  2  1  1  6
  3  2  1  0
  4  3  1  0
  5  6  2  0
  5  4  1  0
  7  8  2  0
  7  2  1  0
  9  5  1  0
 10  7  1  0
 11 10  1  0
 11 14  1  0
 11 12  1  1
 13 12  1  0
 14 21  1  0
 15 14  2  0
 17 16  1  0
 18 17  1  0
 20 19  1  1
 19 18  1  0
 20 22  1  0
 21 20  1  0
 22 23  2  0
 22 24  1  0
M  END
$$$$
