ECM.pdb
     RDKit          3D

 24 23  0  0  1  0  0  0  0  0999 V2000
   16.5007  -14.4131  -18.0114 N   0  0  0  0  0  0  0  0  0  0  0  0
   17.0926  -13.8039  -16.8091 C   0  0  1  0  0  0  0  0  0  0  0  0
   18.1300  -14.7836  -16.3277 C   0  0  0  0  0  0  0  0  0  0  0  0
   17.6031  -16.0571  -15.7785 C   0  0  0  0  0  0  0  0  0  0  0  0
   18.6953  -16.9954  -15.4559 C   0  0  0  0  0  0  0  0  0  0  0  0
   19.2806  -16.9358  -14.3577 O   0  0  0  0  0  0  0  0  0  0  0  0
   17.8293  -12.5605  -17.1719 C   0  0  0  0  0  0  0  0  0  0  0  0
   18.1433  -12.3925  -18.3781 O   0  0  0  0  0  0  0  0  0  0  0  0
   19.0851  -17.9680  -16.3896 O   0  0  0  0  0  0  0  0  0  0  0  0
   18.1969  -11.5631  -16.2578 N   0  0  0  0  0  0  0  0  0  0  0  0
   18.8325  -10.3345  -16.6814 C   0  0  1  0  0  0  0  0  0  0  0  0
   17.8287   -9.2060  -16.4205 C   0  0  0  0  0  0  0  0  0  0  0  0
   17.3060   -9.2197  -14.6846 S   0  0  0  0  0  0  0  0  0  0  0  0
   20.0811  -10.0625  -15.9351 C   0  0  0  0  0  0  0  0  0  0  0  0
   20.1812  -10.4727  -14.7496 O   0  0  0  0  0  0  0  0  0  0  0  0
   27.5407  -10.4313  -14.7893 C   0  0  0  0  0  0  0  0  0  0  0  0
   26.0986  -10.7649  -15.8323 S   0  0  0  0  0  0  0  0  0  0  0  0
   24.7867   -9.6379  -15.3669 C   0  0  0  0  0  0  0  0  0  0  0  0
   23.4817   -9.9246  -16.0316 C   0  0  0  0  0  0  0  0  0  0  0  0
   22.3617   -9.0076  -15.6628 C   0  0  2  0  0  0  0  0  0  0  0  0
   21.1947   -9.3610  -16.4658 N   0  0  0  0  0  0  0  0  0  0  0  0
   22.6777   -7.5701  -15.7636 C   0  0  0  0  0  0  0  0  0  0  0  0
   23.3680   -7.0189  -14.8698 O   0  0  0  0  0  0  0  0  0  0  0  0
   22.2499   -6.7667  -16.8101 O   0  0  0  0  0  0  0  0  0  0  0  0
  2  1  1  6
  3  2  1  0
  4  3  1  0
  5  6  2  0
  5  4  1  0
  7  8  2  0
  7  2  1  0
  9  5  1  0
 10  7  1  0
 11 10  1  0
 11 14  1  0
 11 12  1  1
 13 12  1  0
 14 21  1  0
 15 14  2  0
 17 16  1  0
 18 17  1  0
 20 19  1  6
 19 18  1  0
 20 22  1  0
 21 20  1  0
 22 23  2  0
 22 24  1  0
M  END
$$$$
