ECM.pdb
     RDKit          3D

 24 23  0  0  1  0  0  0  0  0999 V2000
   18.1278  -13.4053  -19.4530 N   0  0  0  0  0  0  0  0  0  0  0  0
   17.5873  -12.4822  -18.4419 C   0  0  1  0  0  0  0  0  0  0  0  0
   17.9848  -13.0623  -17.1103 C   0  0  0  0  0  0  0  0  0  0  0  0
   16.8679  -13.3494  -16.1769 C   0  0  0  0  0  0  0  0  0  0  0  0
   16.4784  -14.7718  -16.2270 C   0  0  0  0  0  0  0  0  0  0  0  0
   17.3439  -15.6656  -16.2917 O   0  0  0  0  0  0  0  0  0  0  0  0
   18.2645  -11.1584  -18.5394 C   0  0  0  0  0  0  0  0  0  0  0  0
   19.3938  -11.1137  -19.0913 O   0  0  0  0  0  0  0  0  0  0  0  0
   15.1219  -15.1304  -16.2016 O   0  0  0  0  0  0  0  0  0  0  0  0
   17.7271   -9.9570  -18.0565 N   0  0  0  0  0  0  0  0  0  0  0  0
   18.4102   -8.6926  -18.2227 C   0  0  1  0  0  0  0  0  0  0  0  0
   17.3451   -7.6650  -18.6215 C   0  0  0  0  0  0  0  0  0  0  0  0
   15.9511   -7.7243  -17.4639 S   0  0  0  0  0  0  0  0  0  0  0  0
   19.0789   -8.2485  -16.9795 C   0  0  0  0  0  0  0  0  0  0  0  0
   18.6354   -8.6539  -15.8737 O   0  0  0  0  0  0  0  0  0  0  0  0
   24.8102   -8.7406  -12.3335 C   0  0  0  0  0  0  0  0  0  0  0  0
   23.9643   -9.1125  -13.8907 S   0  0  0  0  0  0  0  0  0  0  0  0
   22.7351   -7.8441  -14.1875 C   0  0  0  0  0  0  0  0  0  0  0  0
   21.9223   -8.0687  -15.4187 C   0  0  0  0  0  0  0  0  0  0  0  0
   20.8852   -7.0306  -15.6980 C   0  0  2  0  0  0  0  0  0  0  0  0
   20.2035   -7.3840  -16.9398 N   0  0  0  0  0  0  0  0  0  0  0  0
   21.3874   -5.6437  -15.7275 C   0  0  0  0  0  0  0  0  0  0  0  0
   21.4787   -5.0364  -16.8239 O   0  0  0  0  0  0  0  0  0  0  0  0
   21.7757   -4.9489  -14.5917 O   0  0  0  0  0  0  0  0  0  0  0  0
  2  1  1  6
  3  2  1  0
  4  3  1  0
  5  6  2  0
  5  4  1  0
  7  8  2  0
  7  2  1  0
  9  5  1  0
 10  7  1  0
 11 10  1  0
 11 14  1  0
 11 12  1  1
 13 12  1  0
 14 21  1  0
 15 14  2  0
 17 16  1  0
 18 17  1  0
 20 19  1  6
 19 18  1  0
 20 22  1  0
 21 20  1  0
 22 23  2  0
 22 24  1  0
M  END
$$$$
