ECM.pdb
     RDKit          3D

 24 23  0  0  1  0  0  0  0  0999 V2000
   26.7624  -22.7682  -16.5488 N   0  0  0  0  0  0  0  0  0  0  0  0
   27.8348  -21.8584  -16.1142 C   0  0  1  0  0  0  0  0  0  0  0  0
   28.0932  -20.9482  -17.2858 C   0  0  0  0  0  0  0  0  0  0  0  0
   27.3188  -21.2496  -18.5149 C   0  0  0  0  0  0  0  0  0  0  0  0
   26.1288  -20.3842  -18.6254 C   0  0  0  0  0  0  0  0  0  0  0  0
   24.9970  -20.8206  -18.3410 O   0  0  0  0  0  0  0  0  0  0  0  0
   27.3523  -20.9861  -15.0066 C   0  0  0  0  0  0  0  0  0  0  0  0
   28.1114  -20.0658  -14.6082 O   0  0  0  0  0  0  0  0  0  0  0  0
   26.2639  -19.0547  -19.0542 O   0  0  0  0  0  0  0  0  0  0  0  0
   26.1070  -21.1221  -14.3772 N   0  0  0  0  0  0  0  0  0  0  0  0
   25.7048  -20.2634  -13.2846 C   0  0  1  0  0  0  0  0  0  0  0  0
   24.2741  -19.8047  -13.5880 C   0  0  0  0  0  0  0  0  0  0  0  0
   24.2736  -18.6105  -14.9521 S   0  0  0  0  0  0  0  0  0  0  0  0
   25.7292  -20.9646  -11.9817 C   0  0  0  0  0  0  0  0  0  0  0  0
   25.3109  -22.1500  -11.9225 O   0  0  0  0  0  0  0  0  0  0  0  0
   27.7233  -18.0948   -6.4296 C   0  0  0  0  0  0  0  0  0  0  0  0
   27.5265  -19.7960   -5.8416 S   0  0  0  0  0  0  0  0  0  0  0  0
   26.5389  -20.6989   -7.0322 C   0  0  0  0  0  0  0  0  0  0  0  0
   26.7383  -20.2531   -8.4423 C   0  0  0  0  0  0  0  0  0  0  0  0
   25.9072  -20.9630   -9.4605 C   0  0  2  0  0  0  0  0  0  0  0  0
   26.1975  -20.3900  -10.7716 N   0  0  0  0  0  0  0  0  0  0  0  0
   24.4589  -20.9761   -9.1798 C   0  0  0  0  0  0  0  0  0  0  0  0
   23.9955  -21.7768   -8.3292 O   0  0  0  0  0  0  0  0  0  0  0  0
   23.5520  -20.1385   -9.8118 O   0  0  0  0  0  0  0  0  0  0  0  0
  2  1  1  6
  3  2  1  0
  4  3  1  0
  5  6  2  0
  5  4  1  0
  7  8  2  0
  7  2  1  0
  9  5  1  0
 10  7  1  0
 11 10  1  0
 11 14  1  0
 11 12  1  6
 13 12  1  0
 14 21  1  0
 15 14  2  0
 17 16  1  0
 18 17  1  0
 20 19  1  1
 19 18  1  0
 20 22  1  0
 21 20  1  0
 22 23  2  0
 22 24  1  0
M  END
$$$$
