ECM.pdb
     RDKit          3D

 24 23  0  0  1  0  0  0  0  0999 V2000
   26.6497  -21.7011  -16.2462 N   0  0  0  0  0  0  0  0  0  0  0  0
   25.6512  -20.7222  -16.7061 C   0  0  1  0  0  0  0  0  0  0  0  0
   24.8754  -21.4160  -17.7945 C   0  0  0  0  0  0  0  0  0  0  0  0
   24.7345  -20.6598  -19.0632 C   0  0  0  0  0  0  0  0  0  0  0  0
   23.3167  -20.5055  -19.4417 C   0  0  0  0  0  0  0  0  0  0  0  0
   22.8933  -19.4238  -19.8919 O   0  0  0  0  0  0  0  0  0  0  0  0
   24.6754  -20.4325  -15.6178 C   0  0  0  0  0  0  0  0  0  0  0  0
   25.1287  -20.0843  -14.4975 O   0  0  0  0  0  0  0  0  0  0  0  0
   22.4293  -21.5830  -19.2967 O   0  0  0  0  0  0  0  0  0  0  0  0
   23.2834  -20.5220  -15.7584 N   0  0  0  0  0  0  0  0  0  0  0  0
   22.3819  -20.1562  -14.6878 C   0  0  1  0  0  0  0  0  0  0  0  0
   22.5011  -18.6384  -14.5101 C   0  0  0  0  0  0  0  0  0  0  0  0
   21.0364  -17.8104  -15.1854 S   0  0  0  0  0  0  0  0  0  0  0  0
   20.9767  -20.5053  -14.9937 C   0  0  0  0  0  0  0  0  0  0  0  0
   20.4477  -20.0362  -16.0347 O   0  0  0  0  0  0  0  0  0  0  0  0
   17.3968  -24.3671  -11.1605 C   0  0  0  0  0  0  0  0  0  0  0  0
   16.3374  -24.4011  -12.6286 S   0  0  0  0  0  0  0  0  0  0  0  0
   16.8599  -23.0955  -13.7378 C   0  0  0  0  0  0  0  0  0  0  0  0
   18.2824  -22.6829  -13.5552 C   0  0  0  0  0  0  0  0  0  0  0  0
   18.7690  -21.6318  -14.4985 C   0  0  2  0  0  0  0  0  0  0  0  0
   20.1660  -21.3448  -14.1863 N   0  0  0  0  0  0  0  0  0  0  0  0
   17.9541  -20.4024  -14.5319 C   0  0  0  0  0  0  0  0  0  0  0  0
   17.0595  -20.2704  -15.4046 O   0  0  0  0  0  0  0  0  0  0  0  0
   18.1169  -19.3551  -13.6374 O   0  0  0  0  0  0  0  0  0  0  0  0
  2  1  1  1
  3  2  1  0
  4  3  1  0
  5  6  2  0
  5  4  1  0
  7  8  2  0
  7  2  1  0
  9  5  1  0
 10  7  1  0
 11 10  1  0
 11 14  1  0
 11 12  1  6
 13 12  1  0
 14 21  1  0
 15 14  2  0
 17 16  1  0
 18 17  1  0
 20 19  1  1
 19 18  1  0
 20 22  1  0
 21 20  1  0
 22 23  2  0
 22 24  1  0
M  END
$$$$
