ECM.pdb
     RDKit          3D

 24 23  0  0  1  0  0  0  0  0999 V2000
   30.3865  -37.3206   -2.4083 N   0  0  0  0  0  0  0  0  0  0  0  0
   30.4138  -35.9958   -1.7673 C   0  0  1  0  0  0  0  0  0  0  0  0
   29.2705  -35.2278   -2.3761 C   0  0  0  0  0  0  0  0  0  0  0  0
   29.4009  -34.9229   -3.8222 C   0  0  0  0  0  0  0  0  0  0  0  0
   28.1717  -34.3032   -4.3534 C   0  0  0  0  0  0  0  0  0  0  0  0
   28.0961  -33.9659   -5.5503 O   0  0  0  0  0  0  0  0  0  0  0  0
   30.1060  -36.1206   -0.3146 C   0  0  0  0  0  0  0  0  0  0  0  0
   29.2979  -37.0162    0.0415 O   0  0  0  0  0  0  0  0  0  0  0  0
   27.0716  -34.0880   -3.5089 O   0  0  0  0  0  0  0  0  0  0  0  0
   30.6573  -35.3057    0.6841 N   0  0  0  0  0  0  0  0  0  0  0  0
   30.3111  -35.4665    2.0795 C   0  0  1  0  0  0  0  0  0  0  0  0
   31.5659  -35.9893    2.7878 C   0  0  0  0  0  0  0  0  0  0  0  0
   31.2874  -36.0741    4.5772 S   0  0  0  0  0  0  0  0  0  0  0  0
   29.8905  -34.1924    2.7037 C   0  0  0  0  0  0  0  0  0  0  0  0
   30.6555  -33.1963    2.6246 O   0  0  0  0  0  0  0  0  0  0  0  0
   24.4519  -30.0821    3.0930 C   0  0  0  0  0  0  0  0  0  0  0  0
   24.7239  -31.6524    2.2335 S   0  0  0  0  0  0  0  0  0  0  0  0
   26.4489  -32.1031    2.4041 C   0  0  0  0  0  0  0  0  0  0  0  0
   26.8293  -32.5195    3.7857 C   0  0  0  0  0  0  0  0  0  0  0  0
   28.2906  -32.7345    4.0087 C   0  0  2  0  0  0  0  0  0  0  0  0
   28.6668  -34.0060    3.3976 N   0  0  0  0  0  0  0  0  0  0  0  0
   28.7212  -32.6584    5.4177 C   0  0  0  0  0  0  0  0  0  0  0  0
   28.7336  -33.6982    6.1233 O   0  0  0  0  0  0  0  0  0  0  0  0
   29.1242  -31.4807    6.0294 O   0  0  0  0  0  0  0  0  0  0  0  0
  2  1  1  6
  3  2  1  0
  4  3  1  0
  5  6  2  0
  5  4  1  0
  7  8  2  0
  7  2  1  0
  9  5  1  0
 10  7  1  0
 11 10  1  0
 11 14  1  0
 11 12  1  1
 13 12  1  0
 14 21  1  0
 15 14  2  0
 17 16  1  0
 18 17  1  0
 20 19  1  1
 19 18  1  0
 20 22  1  0
 21 20  1  0
 22 23  2  0
 22 24  1  0
M  END
$$$$
