ECM.pdb
     RDKit          3D

 24 23  0  0  1  0  0  0  0  0999 V2000
   19.1802  -11.7384  -17.2206 N   0  0  0  0  0  0  0  0  0  0  0  0
   19.6611  -10.4211  -17.6682 C   0  0  1  0  0  0  0  0  0  0  0  0
   18.6229   -9.9188  -18.6366 C   0  0  0  0  0  0  0  0  0  0  0  0
   18.5885  -10.6039  -19.9521 C   0  0  0  0  0  0  0  0  0  0  0  0
   17.5401  -10.0400  -20.8239 C   0  0  0  0  0  0  0  0  0  0  0  0
   16.8405   -9.0835  -20.4394 O   0  0  0  0  0  0  0  0  0  0  0  0
   19.6678   -9.4613  -16.5285 C   0  0  0  0  0  0  0  0  0  0  0  0
   18.8118   -9.6188  -15.6206 O   0  0  0  0  0  0  0  0  0  0  0  0
   17.3221  -10.5801  -22.1008 O   0  0  0  0  0  0  0  0  0  0  0  0
   20.5655   -8.3922  -16.3993 N   0  0  0  0  0  0  0  0  0  0  0  0
   20.5734   -7.5373  -15.2322 C   0  0  1  0  0  0  0  0  0  0  0  0
   21.9954   -7.5828  -14.6619 C   0  0  0  0  0  0  0  0  0  0  0  0
   22.1373   -8.9095  -13.4345 S   0  0  0  0  0  0  0  0  0  0  0  0
   20.2208   -6.1379  -15.5595 C   0  0  0  0  0  0  0  0  0  0  0  0
   20.5316   -5.6823  -16.6907 O   0  0  0  0  0  0  0  0  0  0  0  0
   16.0677   -1.3951  -18.8309 C   0  0  0  0  0  0  0  0  0  0  0  0
   16.6267   -3.0237  -18.2706 S   0  0  0  0  0  0  0  0  0  0  0  0
   17.6241   -2.8076  -16.7987 C   0  0  0  0  0  0  0  0  0  0  0  0
   18.2630   -4.0660  -16.3135 C   0  0  0  0  0  0  0  0  0  0  0  0
   19.0952   -3.9260  -15.0810 C   0  0  2  0  0  0  0  0  0  0  0  0
   19.5460   -5.2547  -14.6772 N   0  0  0  0  0  0  0  0  0  0  0  0
   18.4416   -3.2107  -13.9686 C   0  0  0  0  0  0  0  0  0  0  0  0
   17.8440   -3.8607  -13.0744 O   0  0  0  0  0  0  0  0  0  0  0  0
   18.4448   -1.8294  -13.8436 O   0  0  0  0  0  0  0  0  0  0  0  0
  2  1  1  1
  3  2  1  0
  4  3  1  0
  5  6  2  0
  5  4  1  0
  7  8  2  0
  7  2  1  0
  9  5  1  0
 10  7  1  0
 11 10  1  0
 11 14  1  0
 11 12  1  6
 13 12  1  0
 14 21  1  0
 15 14  2  0
 17 16  1  0
 18 17  1  0
 20 19  1  6
 19 18  1  0
 20 22  1  0
 21 20  1  0
 22 23  2  0
 22 24  1  0
M  END
$$$$
