DLK.pdb
     RDKit          3D

 26 25  0  0  1  0  0  0  0  0999 V2000
   16.0141  -10.9416  -15.2074 N   0  0  0  0  0  0  0  0  0  0  0  0
   16.3676   -9.5288  -15.3403 C   0  0  1  0  0  0  0  0  0  0  0  0
   15.0536   -8.7880  -15.5410 C   0  0  0  0  0  0  0  0  0  0  0  0
   14.5412   -9.0773  -16.9243 C   0  0  0  0  0  0  0  0  0  0  0  0
   13.3290   -8.9825  -17.2153 O   0  0  0  0  0  0  0  0  0  0  0  0
   16.9436   -9.0923  -14.0447 C   0  0  0  0  0  0  0  0  0  0  0  0
   16.5555   -9.5860  -12.9328 O   0  0  0  0  0  0  0  0  0  0  0  0
   15.4393   -9.4596  -17.9026 O   0  0  0  0  0  0  0  0  0  0  0  0
   21.9099   -6.1444  -11.8866 C   0  0  0  0  0  0  0  0  0  0  0  0
   20.5007   -6.6267  -11.5386 C   0  0  2  0  0  0  0  0  0  0  0  0
   20.6046   -7.5446  -10.3708 C   0  0  0  0  0  0  0  0  0  0  0  0
   19.9433   -7.2561  -12.7930 C   0  0  0  0  0  0  0  0  0  0  0  0
   18.4715   -7.5764  -12.7031 C   0  0  2  0  0  0  0  0  0  0  0  0
   17.9596   -8.1017  -13.9509 N   0  0  0  0  0  0  0  0  0  0  0  0
   17.6387   -6.5411  -12.1033 C   0  0  0  0  0  0  0  0  0  0  0  0
   17.4127   -5.4767  -12.7657 O   0  0  0  0  0  0  0  0  0  0  0  0
   17.0562   -6.6371  -10.8257 N   0  0  0  0  0  0  0  0  0  0  0  0
   16.1099   -5.5754  -10.3122 C   0  0  1  0  0  0  0  0  0  0  0  0
   15.2321   -6.2598   -9.3204 C   0  0  0  0  0  0  0  0  0  0  0  0
   14.1412   -5.5917   -8.6438 C   0  0  0  0  0  0  0  0  0  0  0  0
   13.2670   -6.2429   -7.6630 C   0  0  0  0  0  0  0  0  0  0  0  0
   12.1563   -5.3196   -7.1809 C   0  0  0  0  0  0  0  0  0  0  0  0
   11.2143   -6.1536   -6.4321 N   0  0  0  0  0  0  0  0  0  0  0  0
   16.9083   -4.4412   -9.8987 C   0  0  0  0  0  0  0  0  0  0  0  0
   16.5438   -3.1332  -10.0317 O   0  0  0  0  0  0  0  0  0  0  0  0
   18.0678   -4.6205   -9.3633 O   0  0  0  0  0  0  0  0  0  0  0  0
  2  1  1  1
  2  3  1  0
  3  4  1  0
  4  8  1  0
  5  4  2  0
  6  7  2  0
  6  2  1  0
 10 11  1  1
 10  9  1  0
 10 12  1  0
 13 12  1  6
 13 14  1  0
 14  6  1  0
 15 13  1  0
 16 15  2  0
 17 15  1  0
 18 17  1  0
 19 20  1  0
 18 19  1  1
 20 21  1  0
 21 22  1  0
 23 22  1  0
 24 18  1  0
 24 25  1  0
 26 24  2  0
M  END
$$$$
