DLK.pdb
     RDKit          3D

 26 25  0  0  1  0  0  0  0  0999 V2000
   29.3317  -18.9158  -16.0431 N   0  0  0  0  0  0  0  0  0  0  0  0
   28.2884  -19.9229  -16.2328 C   0  0  1  0  0  0  0  0  0  0  0  0
   28.8536  -20.9252  -17.2288 C   0  0  0  0  0  0  0  0  0  0  0  0
   29.2680  -20.1901  -18.4728 C   0  0  0  0  0  0  0  0  0  0  0  0
   28.5444  -19.3163  -18.9982 O   0  0  0  0  0  0  0  0  0  0  0  0
   28.1061  -20.6217  -14.9369 C   0  0  0  0  0  0  0  0  0  0  0  0
   27.3581  -21.6505  -14.8240 O   0  0  0  0  0  0  0  0  0  0  0  0
   30.4862  -20.4909  -19.0517 O   0  0  0  0  0  0  0  0  0  0  0  0
   30.6519  -22.5553  -11.7329 C   0  0  0  0  0  0  0  0  0  0  0  0
   30.8232  -21.0390  -11.8365 C   0  0  2  0  0  0  0  0  0  0  0  0
   31.9840  -20.6488  -10.9894 C   0  0  0  0  0  0  0  0  0  0  0  0
   29.5038  -20.4314  -11.4239 C   0  0  0  0  0  0  0  0  0  0  0  0
   28.3937  -20.6707  -12.4175 C   0  0  2  0  0  0  0  0  0  0  0  0
   28.7461  -20.1984  -13.7395 N   0  0  0  0  0  0  0  0  0  0  0  0
   27.0608  -20.2773  -11.9772 C   0  0  0  0  0  0  0  0  0  0  0  0
   26.7467  -19.0430  -12.0030 O   0  0  0  0  0  0  0  0  0  0  0  0
   26.0811  -21.1789  -11.5209 N   0  0  0  0  0  0  0  0  0  0  0  0
   24.7495  -20.6920  -10.9955 C   0  0  1  0  0  0  0  0  0  0  0  0
   23.7361  -21.1174  -12.0027 C   0  0  0  0  0  0  0  0  0  0  0  0
   22.3167  -20.8920  -11.8327 C   0  0  0  0  0  0  0  0  0  0  0  0
   21.3015  -21.3046  -12.8072 C   0  0  0  0  0  0  0  0  0  0  0  0
   21.8029  -21.1946  -14.2407 C   0  0  0  0  0  0  0  0  0  0  0  0
   20.6935  -21.6026  -15.1046 N   0  0  0  0  0  0  0  0  0  0  0  0
   24.6293  -21.1420   -9.6252 C   0  0  0  0  0  0  0  0  0  0  0  0
   23.7082  -20.6881   -8.7269 O   0  0  0  0  0  0  0  0  0  0  0  0
   25.4344  -22.0352   -9.1591 O   0  0  0  0  0  0  0  0  0  0  0  0
  2  1  1  1
  2  3  1  0
  3  4  1  0
  4  8  1  0
  5  4  2  0
  6  7  2  0
  6  2  1  0
 10 11  1  1
 10  9  1  0
 10 12  1  0
 13 12  1  1
 13 14  1  0
 14  6  1  0
 15 13  1  0
 16 15  2  0
 17 15  1  0
 18 17  1  0
 19 20  1  0
 18 19  1  6
 20 21  1  0
 21 22  1  0
 23 22  1  0
 24 18  1  0
 24 25  1  0
 26 24  2  0
M  END
$$$$
