DLK.pdb
     RDKit          3D

 26 25  0  0  1  0  0  0  0  0999 V2000
   27.7411  -20.1722  -15.2743 N   0  0  0  0  0  0  0  0  0  0  0  0
   26.6184  -19.6515  -14.4952 C   0  0  1  0  0  0  0  0  0  0  0  0
   25.4370  -19.5966  -15.4529 C   0  0  0  0  0  0  0  0  0  0  0  0
   24.9138  -18.1881  -15.4959 C   0  0  0  0  0  0  0  0  0  0  0  0
   25.6180  -17.2092  -15.1654 O   0  0  0  0  0  0  0  0  0  0  0  0
   26.3069  -20.6510  -13.4441 C   0  0  0  0  0  0  0  0  0  0  0  0
   26.0763  -21.8754  -13.7240 O   0  0  0  0  0  0  0  0  0  0  0  0
   23.6146  -17.9708  -15.9137 O   0  0  0  0  0  0  0  0  0  0  0  0
   28.7191  -21.5845  -10.0526 C   0  0  0  0  0  0  0  0  0  0  0  0
   27.8631  -20.3551   -9.7440 C   0  0  2  0  0  0  0  0  0  0  0  0
   28.3754  -19.7422   -8.4874 C   0  0  0  0  0  0  0  0  0  0  0  0
   26.4332  -20.8365   -9.6782 C   0  0  0  0  0  0  0  0  0  0  0  0
   25.8748  -21.2495  -11.0177 C   0  0  2  0  0  0  0  0  0  0  0  0
   26.2437  -20.3187  -12.0629 N   0  0  0  0  0  0  0  0  0  0  0  0
   24.4665  -21.6264  -11.0221 C   0  0  0  0  0  0  0  0  0  0  0  0
   24.1138  -22.6849  -10.4071 O   0  0  0  0  0  0  0  0  0  0  0  0
   23.4536  -20.8911  -11.6656 N   0  0  0  0  0  0  0  0  0  0  0  0
   22.0354  -21.4096  -11.7434 C   0  0  1  0  0  0  0  0  0  0  0  0
   21.4837  -21.2906  -10.3635 C   0  0  0  0  0  0  0  0  0  0  0  0
   20.8814  -22.4023   -9.6596 C   0  0  0  0  0  0  0  0  0  0  0  0
   20.2585  -22.2905   -8.3367 C   0  0  0  0  0  0  0  0  0  0  0  0
   19.7103  -23.6233   -7.8453 C   0  0  0  0  0  0  0  0  0  0  0  0
   19.1571  -23.3822   -6.5114 N   0  0  0  0  0  0  0  0  0  0  0  0
   21.3795  -20.7262  -12.8378 C   0  0  0  0  0  0  0  0  0  0  0  0
   21.6792  -19.4676  -13.2709 O   0  0  0  0  0  0  0  0  0  0  0  0
   20.4240  -21.3006  -13.4863 O   0  0  0  0  0  0  0  0  0  0  0  0
  2  1  1  6
  2  3  1  0
  3  4  1  0
  4  8  1  0
  5  4  2  0
  6  7  2  0
  6  2  1  0
 10 11  1  1
 10  9  1  0
 10 12  1  0
 13 12  1  1
 13 14  1  0
 14  6  1  0
 15 13  1  0
 16 15  2  0
 17 15  1  0
 18 17  1  0
 19 20  1  0
 18 19  1  1
 20 21  1  0
 21 22  1  0
 23 22  1  0
 24 18  1  0
 24 25  1  0
 26 24  2  0
M  END
$$$$
