DLK.pdb
     RDKit          3D

 26 25  0  0  1  0  0  0  0  0999 V2000
   22.5887  -13.4478  -19.2500 N   0  0  0  0  0  0  0  0  0  0  0  0
   21.3841  -13.0346  -18.5312 C   0  0  1  0  0  0  0  0  0  0  0  0
   21.0326  -14.1923  -17.6080 C   0  0  0  0  0  0  0  0  0  0  0  0
   20.5829  -15.3582  -18.4434 C   0  0  0  0  0  0  0  0  0  0  0  0
   19.8366  -15.2134  -19.4360 O   0  0  0  0  0  0  0  0  0  0  0  0
   21.7496  -11.8720  -17.6853 C   0  0  0  0  0  0  0  0  0  0  0  0
   20.9168  -11.3344  -16.8803 O   0  0  0  0  0  0  0  0  0  0  0  0
   21.0084  -16.6279  -18.1020 O   0  0  0  0  0  0  0  0  0  0  0  0
   27.0095  -10.0816  -15.5521 C   0  0  0  0  0  0  0  0  0  0  0  0
   25.4922  -10.2391  -15.4395 C   0  0  2  0  0  0  0  0  0  0  0  0
   25.2112  -11.5857  -14.8694 C   0  0  0  0  0  0  0  0  0  0  0  0
   24.9353  -10.0071  -16.8238 C   0  0  0  0  0  0  0  0  0  0  0  0
   23.4348  -10.1468  -16.9004 C   0  0  2  0  0  0  0  0  0  0  0  0
   23.0422  -11.2796  -17.7113 N   0  0  0  0  0  0  0  0  0  0  0  0
   22.7038   -8.9198  -17.1926 C   0  0  0  0  0  0  0  0  0  0  0  0
   22.7619   -8.4379  -18.3704 O   0  0  0  0  0  0  0  0  0  0  0  0
   21.9248   -8.2209  -16.2515 N   0  0  0  0  0  0  0  0  0  0  0  0
   21.2060   -6.9430  -16.6211 C   0  0  1  0  0  0  0  0  0  0  0  0
   19.7759   -7.3214  -16.8070 C   0  0  0  0  0  0  0  0  0  0  0  0
   18.7216   -6.3458  -16.9825 C   0  0  0  0  0  0  0  0  0  0  0  0
   17.3024   -6.6912  -17.1125 C   0  0  0  0  0  0  0  0  0  0  0  0
   16.4277   -5.4611  -17.3128 C   0  0  0  0  0  0  0  0  0  0  0  0
   15.0401   -5.9283  -17.3041 N   0  0  0  0  0  0  0  0  0  0  0  0
   21.5594   -5.9424  -15.6369 C   0  0  0  0  0  0  0  0  0  0  0  0
   21.9832   -6.2045  -14.3668 O   0  0  0  0  0  0  0  0  0  0  0  0
   21.4794   -4.6878  -15.9249 O   0  0  0  0  0  0  0  0  0  0  0  0
  2  1  1  6
  2  3  1  0
  3  4  1  0
  4  8  1  0
  5  4  2  0
  6  7  2  0
  6  2  1  0
 10 11  1  6
 10  9  1  0
 10 12  1  0
 13 12  1  6
 13 14  1  0
 14  6  1  0
 15 13  1  0
 16 15  2  0
 17 15  1  0
 18 17  1  0
 19 20  1  0
 18 19  1  1
 20 21  1  0
 21 22  1  0
 23 22  1  0
 24 18  1  0
 24 25  1  0
 26 24  2  0
M  END
$$$$
