DLK.pdb
     RDKit          3D

 26 25  0  0  1  0  0  0  0  0999 V2000
   27.1890  -21.3249  -16.3180 N   0  0  0  0  0  0  0  0  0  0  0  0
   26.5703  -20.2166  -15.5917 C   0  0  1  0  0  0  0  0  0  0  0  0
   25.9069  -19.3452  -16.6483 C   0  0  0  0  0  0  0  0  0  0  0  0
   26.9709  -18.5698  -17.3739 C   0  0  0  0  0  0  0  0  0  0  0  0
   28.1819  -18.6717  -17.0800 O   0  0  0  0  0  0  0  0  0  0  0  0
   25.5018  -20.7889  -14.7364 C   0  0  0  0  0  0  0  0  0  0  0  0
   24.8166  -21.8032  -15.1002 O   0  0  0  0  0  0  0  0  0  0  0  0
   26.5968  -17.7189  -18.3965 O   0  0  0  0  0  0  0  0  0  0  0  0
   25.9044  -22.3830  -10.7613 C   0  0  0  0  0  0  0  0  0  0  0  0
   25.8239  -20.8568  -10.7023 C   0  0  2  0  0  0  0  0  0  0  0  0
   26.1794  -20.4310   -9.3204 C   0  0  0  0  0  0  0  0  0  0  0  0
   24.4274  -20.4859  -11.1412 C   0  0  0  0  0  0  0  0  0  0  0  0
   24.1491  -20.7978  -12.5910 C   0  0  2  0  0  0  0  0  0  0  0  0
   25.1682  -20.2525  -13.4623 N   0  0  0  0  0  0  0  0  0  0  0  0
   22.7840  -20.5469  -13.0369 C   0  0  0  0  0  0  0  0  0  0  0  0
   22.4507  -19.3578  -13.3497 O   0  0  0  0  0  0  0  0  0  0  0  0
   21.7942  -21.5410  -13.1498 N   0  0  0  0  0  0  0  0  0  0  0  0
   20.3945  -21.2066  -13.6137 C   0  0  1  0  0  0  0  0  0  0  0  0
   19.8354  -22.4748  -14.1630 C   0  0  0  0  0  0  0  0  0  0  0  0
   18.4893  -22.5794  -14.6837 C   0  0  0  0  0  0  0  0  0  0  0  0
   17.9168  -23.8159  -15.2257 C   0  0  0  0  0  0  0  0  0  0  0  0
   16.5398  -23.5923  -15.8359 C   0  0  0  0  0  0  0  0  0  0  0  0
   16.1768  -24.8364  -16.5171 N   0  0  0  0  0  0  0  0  0  0  0  0
   19.7190  -20.5410  -12.5203 C   0  0  0  0  0  0  0  0  0  0  0  0
   18.7300  -19.6111  -12.6570 O   0  0  0  0  0  0  0  0  0  0  0  0
   20.0411  -20.8022  -11.2991 O   0  0  0  0  0  0  0  0  0  0  0  0
  2  1  1  6
  2  3  1  0
  3  4  1  0
  4  8  1  0
  5  4  2  0
  6  7  2  0
  6  2  1  0
 10 11  1  1
 10  9  1  0
 10 12  1  0
 13 12  1  1
 13 14  1  0
 14  6  1  0
 15 13  1  0
 16 15  2  0
 17 15  1  0
 18 17  1  0
 19 20  1  0
 18 19  1  1
 20 21  1  0
 21 22  1  0
 23 22  1  0
 24 18  1  0
 24 25  1  0
 26 24  2  0
M  END
$$$$
