DLK.pdb
     RDKit          3D

 26 25  0  0  1  0  0  0  0  0999 V2000
   27.0590  -37.6739   -8.1967 N   0  0  0  0  0  0  0  0  0  0  0  0
   26.2109  -37.4483   -7.0268 C   0  0  1  0  0  0  0  0  0  0  0  0
   26.5257  -38.5805   -6.0599 C   0  0  0  0  0  0  0  0  0  0  0  0
   25.6012  -38.4794   -4.8789 C   0  0  0  0  0  0  0  0  0  0  0  0
   24.7000  -37.6153   -4.8148 O   0  0  0  0  0  0  0  0  0  0  0  0
   26.6503  -36.1778   -6.3993 C   0  0  0  0  0  0  0  0  0  0  0  0
   27.8124  -36.0444   -5.8871 O   0  0  0  0  0  0  0  0  0  0  0  0
   25.7541  -39.3698   -3.8331 O   0  0  0  0  0  0  0  0  0  0  0  0
   27.1647  -32.6820   -8.2205 C   0  0  0  0  0  0  0  0  0  0  0  0
   25.6770  -32.6671   -7.8659 C   0  0  2  0  0  0  0  0  0  0  0  0
   25.0450  -31.5258   -8.5837 C   0  0  0  0  0  0  0  0  0  0  0  0
   25.5982  -32.5915   -6.3597 C   0  0  0  0  0  0  0  0  0  0  0  0
   26.1854  -33.7952   -5.6648 C   0  0  2  0  0  0  0  0  0  0  0  0
   25.8153  -35.0291   -6.3247 N   0  0  0  0  0  0  0  0  0  0  0  0
   26.0299  -33.8220   -4.2155 C   0  0  0  0  0  0  0  0  0  0  0  0
   26.4513  -32.8302   -3.5360 O   0  0  0  0  0  0  0  0  0  0  0  0
   25.4364  -34.8811   -3.5038 N   0  0  0  0  0  0  0  0  0  0  0  0
   25.4082  -34.8931   -1.9921 C   0  0  1  0  0  0  0  0  0  0  0  0
   24.1789  -35.6478   -1.6153 C   0  0  0  0  0  0  0  0  0  0  0  0
   23.2663  -35.1992   -0.5857 C   0  0  0  0  0  0  0  0  0  0  0  0
   21.8752  -34.8109   -0.8396 C   0  0  0  0  0  0  0  0  0  0  0  0
   21.1807  -34.3066    0.4180 C   0  0  0  0  0  0  0  0  0  0  0  0
   19.8283  -33.9117    0.0196 N   0  0  0  0  0  0  0  0  0  0  0  0
   26.7008  -35.3563   -1.5345 C   0  0  0  0  0  0  0  0  0  0  0  0
   27.5544  -36.1407   -2.2539 O   0  0  0  0  0  0  0  0  0  0  0  0
   27.1281  -35.0403   -0.3593 O   0  0  0  0  0  0  0  0  0  0  0  0
  2  1  1  6
  2  3  1  0
  3  4  1  0
  4  8  1  0
  5  4  2  0
  6  7  2  0
  6  2  1  0
 10 11  1  6
 10  9  1  0
 10 12  1  0
 13 12  1  6
 13 14  1  0
 14  6  1  0
 15 13  1  0
 16 15  2  0
 17 15  1  0
 18 17  1  0
 19 20  1  0
 18 19  1  6
 20 21  1  0
 21 22  1  0
 23 22  1  0
 24 18  1  0
 24 25  1  0
 26 24  2  0
M  END
$$$$
