DLK.pdb
     RDKit          3D

 26 25  0  0  1  0  0  0  0  0999 V2000
   28.1285  -21.7370  -15.1948 N   0  0  0  0  0  0  0  0  0  0  0  0
   27.8093  -20.6378  -14.2846 C   0  0  1  0  0  0  0  0  0  0  0  0
   27.1952  -19.5464  -15.1493 C   0  0  0  0  0  0  0  0  0  0  0  0
   28.2888  -18.8796  -15.9361 C   0  0  0  0  0  0  0  0  0  0  0  0
   28.8201  -19.4263  -16.9271 O   0  0  0  0  0  0  0  0  0  0  0  0
   26.7625  -21.1238  -13.3526 C   0  0  0  0  0  0  0  0  0  0  0  0
   25.7467  -21.7808  -13.7616 O   0  0  0  0  0  0  0  0  0  0  0  0
   28.7186  -17.6240  -15.5506 O   0  0  0  0  0  0  0  0  0  0  0  0
   28.0405  -20.4341   -8.2556 C   0  0  0  0  0  0  0  0  0  0  0  0
   26.7232  -20.1391   -8.9748 C   0  0  2  0  0  0  0  0  0  0  0  0
   25.7669  -19.5892   -7.9747 C   0  0  0  0  0  0  0  0  0  0  0  0
   26.2909  -21.4336   -9.6213 C   0  0  0  0  0  0  0  0  0  0  0  0
   25.7649  -21.2594  -11.0247 C   0  0  2  0  0  0  0  0  0  0  0  0
   26.8161  -20.8942  -11.9502 N   0  0  0  0  0  0  0  0  0  0  0  0
   24.5545  -20.4560  -11.1468 C   0  0  0  0  0  0  0  0  0  0  0  0
   24.5961  -19.2298  -10.8038 O   0  0  0  0  0  0  0  0  0  0  0  0
   23.3255  -20.9465  -11.6262 N   0  0  0  0  0  0  0  0  0  0  0  0
   22.1975  -20.0106  -11.9976 C   0  0  1  0  0  0  0  0  0  0  0  0
   22.0991  -20.0640  -13.4843 C   0  0  0  0  0  0  0  0  0  0  0  0
   21.0678  -19.3737  -14.2287 C   0  0  0  0  0  0  0  0  0  0  0  0
   20.9044  -19.4730  -15.6826 C   0  0  0  0  0  0  0  0  0  0  0  0
   19.6998  -18.6860  -16.1805 C   0  0  0  0  0  0  0  0  0  0  0  0
   19.6626  -18.8532  -17.6346 N   0  0  0  0  0  0  0  0  0  0  0  0
   21.0500  -20.3673  -11.1911 C   0  0  0  0  0  0  0  0  0  0  0  0
   20.8574  -21.5767  -10.5896 O   0  0  0  0  0  0  0  0  0  0  0  0
   20.0993  -19.5175  -10.9977 O   0  0  0  0  0  0  0  0  0  0  0  0
  2  1  1  6
  2  3  1  0
  3  4  1  0
  4  8  1  0
  5  4  2  0
  6  7  2  0
  6  2  1  0
 10 11  1  1
 10  9  1  0
 10 12  1  0
 13 12  1  1
 13 14  1  0
 14  6  1  0
 15 13  1  0
 16 15  2  0
 17 15  1  0
 18 17  1  0
 19 20  1  0
 18 19  1  6
 20 21  1  0
 21 22  1  0
 23 22  1  0
 24 18  1  0
 24 25  1  0
 26 24  2  0
M  END
$$$$
