DLK.pdb
     RDKit          3D

 26 25  0  0  1  0  0  0  0  0999 V2000
   23.2996  -14.4761  -18.6687 N   0  0  0  0  0  0  0  0  0  0  0  0
   23.6755  -13.2474  -19.3671 C   0  0  1  0  0  0  0  0  0  0  0  0
   22.5717  -12.9917  -20.3831 C   0  0  0  0  0  0  0  0  0  0  0  0
   22.6819  -14.0094  -21.4839 C   0  0  0  0  0  0  0  0  0  0  0  0
   21.7839  -14.8522  -21.6995 O   0  0  0  0  0  0  0  0  0  0  0  0
   23.6448  -12.1459  -18.3738 C   0  0  0  0  0  0  0  0  0  0  0  0
   22.7000  -12.0308  -17.5225 O   0  0  0  0  0  0  0  0  0  0  0  0
   23.8110  -14.0116  -22.2807 O   0  0  0  0  0  0  0  0  0  0  0  0
   26.5886  -11.2773  -15.3280 C   0  0  0  0  0  0  0  0  0  0  0  0
   27.0457  -10.7382  -16.6844 C   0  0  2  0  0  0  0  0  0  0  0  0
   28.4723  -10.3302  -16.5596 C   0  0  0  0  0  0  0  0  0  0  0  0
   26.0949   -9.6207  -17.0417 C   0  0  0  0  0  0  0  0  0  0  0  0
   24.6873  -10.0914  -17.3134 C   0  0  2  0  0  0  0  0  0  0  0  0
   24.6567  -11.1494  -18.3007 N   0  0  0  0  0  0  0  0  0  0  0  0
   23.7042   -9.0379  -17.5346 C   0  0  0  0  0  0  0  0  0  0  0  0
   23.6207   -8.5113  -18.6916 O   0  0  0  0  0  0  0  0  0  0  0  0
   22.8262   -8.5560  -16.5459 N   0  0  0  0  0  0  0  0  0  0  0  0
   21.8316   -7.4576  -16.8466 C   0  0  1  0  0  0  0  0  0  0  0  0
   20.6373   -7.7499  -16.0034 C   0  0  0  0  0  0  0  0  0  0  0  0
   19.4359   -6.9439  -16.0364 C   0  0  0  0  0  0  0  0  0  0  0  0
   18.3085   -7.1198  -15.1153 C   0  0  0  0  0  0  0  0  0  0  0  0
   17.2047   -6.0991  -15.3567 C   0  0  0  0  0  0  0  0  0  0  0  0
   16.3768   -6.6269  -16.4428 N   0  0  0  0  0  0  0  0  0  0  0  0
   22.5194   -6.1927  -16.6993 C   0  0  0  0  0  0  0  0  0  0  0  0
   22.2130   -5.0481  -17.3757 O   0  0  0  0  0  0  0  0  0  0  0  0
   23.5129   -6.0817  -15.8845 O   0  0  0  0  0  0  0  0  0  0  0  0
  2  1  1  1
  2  3  1  0
  3  4  1  0
  4  8  1  0
  5  4  2  0
  6  7  2  0
  6  2  1  0
 10 11  1  1
 10  9  1  0
 10 12  1  0
 13 12  1  6
 13 14  1  0
 14  6  1  0
 15 13  1  0
 16 15  2  0
 17 15  1  0
 18 17  1  0
 19 20  1  0
 18 19  1  1
 20 21  1  0
 21 22  1  0
 23 22  1  0
 24 18  1  0
 24 25  1  0
 26 24  2  0
M  END
$$$$
