DLK.pdb
     RDKit          3D

 26 25  0  0  1  0  0  0  0  0999 V2000
   25.6461  -19.8270   -9.7210 N   0  0  0  0  0  0  0  0  0  0  0  0
   24.9319  -20.7727  -10.5779 C   0  0  1  0  0  0  0  0  0  0  0  0
   23.5449  -20.9203   -9.9693 C   0  0  0  0  0  0  0  0  0  0  0  0
   23.6858  -21.4239   -8.5600 C   0  0  0  0  0  0  0  0  0  0  0  0
   24.8031  -21.5837   -8.0221 O   0  0  0  0  0  0  0  0  0  0  0  0
   24.7798  -20.1366  -11.9095 C   0  0  0  0  0  0  0  0  0  0  0  0
   24.1951  -19.0111  -12.0572 O   0  0  0  0  0  0  0  0  0  0  0  0
   22.5444  -21.7185   -7.8388 O   0  0  0  0  0  0  0  0  0  0  0  0
   27.5318  -18.2360  -14.2265 C   0  0  0  0  0  0  0  0  0  0  0  0
   27.7345  -19.7442  -14.3804 C   0  0  2  0  0  0  0  0  0  0  0  0
   29.0467  -19.9655  -15.0484 C   0  0  0  0  0  0  0  0  0  0  0  0
   26.5384  -20.2596  -15.1447 C   0  0  0  0  0  0  0  0  0  0  0  0
   25.2340  -20.0944  -14.4044 C   0  0  2  0  0  0  0  0  0  0  0  0
   25.2705  -20.7306  -13.1048 N   0  0  0  0  0  0  0  0  0  0  0  0
   24.0320  -20.3818  -15.1776 C   0  0  0  0  0  0  0  0  0  0  0  0
   23.6688  -21.5949  -15.3170 O   0  0  0  0  0  0  0  0  0  0  0  0
   23.2313  -19.3985  -15.7882 N   0  0  0  0  0  0  0  0  0  0  0  0
   22.0425  -19.7738  -16.6440 C   0  0  1  0  0  0  0  0  0  0  0  0
   20.8435  -19.2672  -15.9171 C   0  0  0  0  0  0  0  0  0  0  0  0
   19.4935  -19.4498  -16.4053 C   0  0  0  0  0  0  0  0  0  0  0  0
   18.3065  -18.8842  -15.7561 C   0  0  0  0  0  0  0  0  0  0  0  0
   17.0209  -19.2640  -16.4780 C   0  0  0  0  0  0  0  0  0  0  0  0
   15.9172  -18.7427  -15.6695 N   0  0  0  0  0  0  0  0  0  0  0  0
   22.3105  -19.3145  -17.9901 C   0  0  0  0  0  0  0  0  0  0  0  0
   21.7204  -19.8027  -19.1192 O   0  0  0  0  0  0  0  0  0  0  0  0
   23.1713  -18.3773  -18.2000 O   0  0  0  0  0  0  0  0  0  0  0  0
  2  1  1  1
  2  3  1  0
  3  4  1  0
  4  8  1  0
  5  4  2  0
  6  7  2  0
  6  2  1  0
 10 11  1  6
 10  9  1  0
 10 12  1  0
 13 12  1  6
 13 14  1  0
 14  6  1  0
 15 13  1  0
 16 15  2  0
 17 15  1  0
 18 17  1  0
 19 20  1  0
 18 19  1  1
 20 21  1  0
 21 22  1  0
 23 22  1  0
 24 18  1  0
 24 25  1  0
 26 24  2  0
M  END
$$$$
