DLK.pdb
     RDKit          3D

 26 25  0  0  1  0  0  0  0  0999 V2000
   27.4136  -19.4987  -15.0840 N   0  0  0  0  0  0  0  0  0  0  0  0
   26.1139  -19.0215  -15.5549 C   0  0  1  0  0  0  0  0  0  0  0  0
   26.0220  -19.4377  -17.0158 C   0  0  0  0  0  0  0  0  0  0  0  0
   27.1102  -18.7435  -17.7862 C   0  0  0  0  0  0  0  0  0  0  0  0
   28.1056  -19.3582  -18.2272 O   0  0  0  0  0  0  0  0  0  0  0  0
   25.0710  -19.7624  -14.8036 C   0  0  0  0  0  0  0  0  0  0  0  0
   24.2188  -20.5103  -15.3909 O   0  0  0  0  0  0  0  0  0  0  0  0
   27.0051  -17.3843  -18.0126 O   0  0  0  0  0  0  0  0  0  0  0  0
   25.7245  -22.4426  -11.4336 C   0  0  0  0  0  0  0  0  0  0  0  0
   25.6985  -20.9881  -10.9612 C   0  0  2  0  0  0  0  0  0  0  0  0
   26.1669  -20.9557   -9.5481 C   0  0  0  0  0  0  0  0  0  0  0  0
   24.2867  -20.4959  -11.1733 C   0  0  0  0  0  0  0  0  0  0  0  0
   23.9104  -20.3547  -12.6277 C   0  0  2  0  0  0  0  0  0  0  0  0
   24.9483  -19.6922  -13.3885 N   0  0  0  0  0  0  0  0  0  0  0  0
   22.5668  -19.8498  -12.8828 C   0  0  0  0  0  0  0  0  0  0  0  0
   22.2492  -18.7001  -12.4352 O   0  0  0  0  0  0  0  0  0  0  0  0
   21.5817  -20.5527  -13.6015 N   0  0  0  0  0  0  0  0  0  0  0  0
   20.1754  -20.0143  -13.7384 C   0  0  1  0  0  0  0  0  0  0  0  0
   19.7957  -20.2297  -15.1639 C   0  0  0  0  0  0  0  0  0  0  0  0
   18.5367  -19.7803  -15.7181 C   0  0  0  0  0  0  0  0  0  0  0  0
   18.1059  -20.0524  -17.0932 C   0  0  0  0  0  0  0  0  0  0  0  0
   16.7063  -19.5217  -17.3724 C   0  0  0  0  0  0  0  0  0  0  0  0
   16.3448  -19.9807  -18.7149 N   0  0  0  0  0  0  0  0  0  0  0  0
   19.3762  -20.6070  -12.6874 C   0  0  0  0  0  0  0  0  0  0  0  0
   18.3017  -20.0163  -12.0891 O   0  0  0  0  0  0  0  0  0  0  0  0
   19.6602  -21.7812  -12.2356 O   0  0  0  0  0  0  0  0  0  0  0  0
  2  1  1  1
  2  3  1  0
  3  4  1  0
  4  8  1  0
  5  4  2  0
  6  7  2  0
  6  2  1  0
 10 11  1  1
 10  9  1  0
 10 12  1  0
 13 12  1  1
 13 14  1  0
 14  6  1  0
 15 13  1  0
 16 15  2  0
 17 15  1  0
 18 17  1  0
 19 20  1  0
 18 19  1  6
 20 21  1  0
 21 22  1  0
 23 22  1  0
 24 18  1  0
 24 25  1  0
 26 24  2  0
M  END
$$$$
