DLK.pdb
     RDKit          3D

 26 25  0  0  1  0  0  0  0  0999 V2000
   27.3147  -22.0377  -17.0051 N   0  0  0  0  0  0  0  0  0  0  0  0
   27.3220  -20.9274  -16.0534 C   0  0  1  0  0  0  0  0  0  0  0  0
   26.7807  -19.7247  -16.8127 C   0  0  0  0  0  0  0  0  0  0  0  0
   27.8611  -19.1947  -17.7134 C   0  0  0  0  0  0  0  0  0  0  0  0
   29.0067  -19.6947  -17.7394 O   0  0  0  0  0  0  0  0  0  0  0  0
   26.3561  -21.2596  -14.9776 C   0  0  0  0  0  0  0  0  0  0  0  0
   25.3894  -22.0725  -15.1655 O   0  0  0  0  0  0  0  0  0  0  0  0
   27.5773  -18.1218  -18.5369 O   0  0  0  0  0  0  0  0  0  0  0  0
   24.0228  -20.2317  -10.1821 C   0  0  0  0  0  0  0  0  0  0  0  0
   25.2285  -21.1692  -10.0990 C   0  0  2  0  0  0  0  0  0  0  0  0
   25.8332  -21.0211   -8.7463 C   0  0  0  0  0  0  0  0  0  0  0  0
   26.1383  -20.7966  -11.2452 C   0  0  0  0  0  0  0  0  0  0  0  0
   25.5083  -20.9922  -12.6022 C   0  0  2  0  0  0  0  0  0  0  0  0
   26.4381  -20.7007  -13.6724 N   0  0  0  0  0  0  0  0  0  0  0  0
   24.1903  -20.3936  -12.7752 C   0  0  0  0  0  0  0  0  0  0  0  0
   24.0686  -19.1323  -12.6445 O   0  0  0  0  0  0  0  0  0  0  0  0
   23.0259  -21.1217  -13.0831 N   0  0  0  0  0  0  0  0  0  0  0  0
   21.7044  -20.4263  -13.3198 C   0  0  1  0  0  0  0  0  0  0  0  0
   21.2806  -20.8178  -14.6945 C   0  0  0  0  0  0  0  0  0  0  0  0
   20.0583  -20.3414  -15.3054 C   0  0  0  0  0  0  0  0  0  0  0  0
   19.5353  -20.8386  -16.5820 C   0  0  0  0  0  0  0  0  0  0  0  0
   18.2276  -20.1621  -16.9699 C   0  0  0  0  0  0  0  0  0  0  0  0
   17.8146  -20.7497  -18.2457 N   0  0  0  0  0  0  0  0  0  0  0  0
   20.8454  -20.7248  -12.1938 C   0  0  0  0  0  0  0  0  0  0  0  0
   19.9871  -19.8430  -11.6047 O   0  0  0  0  0  0  0  0  0  0  0  0
   20.8557  -21.8983  -11.6590 O   0  0  0  0  0  0  0  0  0  0  0  0
  2  1  1  6
  2  3  1  0
  3  4  1  0
  4  8  1  0
  5  4  2  0
  6  7  2  0
  6  2  1  0
 10 11  1  1
 10  9  1  0
 10 12  1  0
 13 12  1  1
 13 14  1  0
 14  6  1  0
 15 13  1  0
 16 15  2  0
 17 15  1  0
 18 17  1  0
 19 20  1  0
 18 19  1  6
 20 21  1  0
 21 22  1  0
 23 22  1  0
 24 18  1  0
 24 25  1  0
 26 24  2  0
M  END
$$$$
