DLK.pdb
     RDKit          3D

 26 25  0  0  1  0  0  0  0  0999 V2000
   18.8988  -11.6367  -17.3095 N   0  0  0  0  0  0  0  0  0  0  0  0
   20.1661  -11.0707  -17.7703 C   0  0  1  0  0  0  0  0  0  0  0  0
   19.8267  -10.2303  -18.9927 C   0  0  0  0  0  0  0  0  0  0  0  0
   19.5439  -11.1490  -20.1484 C   0  0  0  0  0  0  0  0  0  0  0  0
   19.5314  -12.3925  -20.0187 O   0  0  0  0  0  0  0  0  0  0  0  0
   20.6546  -10.1558  -16.7096 C   0  0  0  0  0  0  0  0  0  0  0  0
   19.8607   -9.6057  -15.8742 O   0  0  0  0  0  0  0  0  0  0  0  0
   19.2904  -10.6004  -21.3912 O   0  0  0  0  0  0  0  0  0  0  0  0
   23.3189  -10.8186  -13.4168 C   0  0  0  0  0  0  0  0  0  0  0  0
   24.1027  -10.6570  -14.7202 C   0  0  2  0  0  0  0  0  0  0  0  0
   25.5088  -11.0756  -14.4656 C   0  0  0  0  0  0  0  0  0  0  0  0
   23.9359   -9.2167  -15.1425 C   0  0  0  0  0  0  0  0  0  0  0  0
   22.5334   -8.8772  -15.5836 C   0  0  2  0  0  0  0  0  0  0  0  0
   22.0296   -9.8298  -16.5499 N   0  0  0  0  0  0  0  0  0  0  0  0
   22.3086   -7.4829  -15.9449 C   0  0  0  0  0  0  0  0  0  0  0  0
   22.5427   -6.5799  -15.0772 O   0  0  0  0  0  0  0  0  0  0  0  0
   21.8464   -7.0575  -17.2043 N   0  0  0  0  0  0  0  0  0  0  0  0
   21.5950   -5.5952  -17.4958 C   0  0  1  0  0  0  0  0  0  0  0  0
   21.2787   -5.5203  -18.9508 C   0  0  0  0  0  0  0  0  0  0  0  0
   20.8716   -4.2949  -19.6042 C   0  0  0  0  0  0  0  0  0  0  0  0
   20.4874   -4.2111  -21.0169 C   0  0  0  0  0  0  0  0  0  0  0  0
   19.9910   -2.8224  -21.3959 C   0  0  0  0  0  0  0  0  0  0  0  0
   18.8993   -2.5022  -20.4743 N   0  0  0  0  0  0  0  0  0  0  0  0
   20.6312   -5.1160  -16.5283 C   0  0  0  0  0  0  0  0  0  0  0  0
   19.4955   -5.7750  -16.1576 O   0  0  0  0  0  0  0  0  0  0  0  0
   20.8036   -3.9791  -15.9442 O   0  0  0  0  0  0  0  0  0  0  0  0
  2  1  1  1
  2  3  1  0
  3  4  1  0
  4  8  1  0
  5  4  2  0
  6  7  2  0
  6  2  1  0
 10 11  1  1
 10  9  1  0
 10 12  1  0
 13 12  1  6
 13 14  1  0
 14  6  1  0
 15 13  1  0
 16 15  2  0
 17 15  1  0
 18 17  1  0
 19 20  1  0
 18 19  1  6
 20 21  1  0
 21 22  1  0
 23 22  1  0
 24 18  1  0
 24 25  1  0
 26 24  2  0
M  END
$$$$
