DLK.pdb
     RDKit          3D

 26 25  0  0  1  0  0  0  0  0999 V2000
   27.0174  -19.2438  -15.1531 N   0  0  0  0  0  0  0  0  0  0  0  0
   26.2771  -20.2560  -15.9054 C   0  0  1  0  0  0  0  0  0  0  0  0
   27.2885  -21.3387  -16.2530 C   0  0  0  0  0  0  0  0  0  0  0  0
   28.1981  -20.8225  -17.3328 C   0  0  0  0  0  0  0  0  0  0  0  0
   29.1311  -21.5120  -17.7989 O   0  0  0  0  0  0  0  0  0  0  0  0
   25.2749  -20.8472  -14.9851 C   0  0  0  0  0  0  0  0  0  0  0  0
   24.6870  -21.9504  -15.2458 O   0  0  0  0  0  0  0  0  0  0  0  0
   27.9949  -19.5468  -17.8237 O   0  0  0  0  0  0  0  0  0  0  0  0
   25.5954  -22.3503  -10.9321 C   0  0  0  0  0  0  0  0  0  0  0  0
   25.5883  -20.8219  -10.9906 C   0  0  2  0  0  0  0  0  0  0  0  0
   26.0036  -20.3091   -9.6558 C   0  0  0  0  0  0  0  0  0  0  0  0
   24.1985  -20.4179  -11.4214 C   0  0  0  0  0  0  0  0  0  0  0  0
   23.8929  -20.7530  -12.8605 C   0  0  2  0  0  0  0  0  0  0  0  0
   24.9016  -20.2322  -13.7585 N   0  0  0  0  0  0  0  0  0  0  0  0
   22.5226  -20.4980  -13.2877 C   0  0  0  0  0  0  0  0  0  0  0  0
   22.1028  -19.2955  -13.3135 O   0  0  0  0  0  0  0  0  0  0  0  0
   21.6179  -21.5016  -13.6816 N   0  0  0  0  0  0  0  0  0  0  0  0
   20.2243  -21.1596  -14.1581 C   0  0  1  0  0  0  0  0  0  0  0  0
   19.8490  -22.2356  -15.1194 C   0  0  0  0  0  0  0  0  0  0  0  0
   18.5774  -22.2639  -15.8098 C   0  0  0  0  0  0  0  0  0  0  0  0
   18.1816  -23.3174  -16.7499 C   0  0  0  0  0  0  0  0  0  0  0  0
   16.8466  -23.0188  -17.4186 C   0  0  0  0  0  0  0  0  0  0  0  0
   16.5974  -24.1107  -18.3616 N   0  0  0  0  0  0  0  0  0  0  0  0
   19.4060  -20.9290  -12.9868 C   0  0  0  0  0  0  0  0  0  0  0  0
   18.3577  -20.0584  -12.9194 O   0  0  0  0  0  0  0  0  0  0  0  0
   19.6453  -21.5625  -11.8892 O   0  0  0  0  0  0  0  0  0  0  0  0
  2  1  1  1
  2  3  1  0
  3  4  1  0
  4  8  1  0
  5  4  2  0
  6  7  2  0
  6  2  1  0
 10 11  1  1
 10  9  1  0
 10 12  1  0
 13 12  1  1
 13 14  1  0
 14  6  1  0
 15 13  1  0
 16 15  2  0
 17 15  1  0
 18 17  1  0
 19 20  1  0
 18 19  1  1
 20 21  1  0
 21 22  1  0
 23 22  1  0
 24 18  1  0
 24 25  1  0
 26 24  2  0
M  END
$$$$
