PQN.pdb
     RDKit          3D

 25 25  0  0  1  0  0  0  0  0999 V2000
   18.5207  -11.2168  -14.7133 N   0  0  0  0  0  0  0  0  0  0  0  0
   17.6136  -11.5941  -15.7800 C   0  0  0  0  0  0  0  0  0  0  0  0
   18.4519  -12.1265  -16.9206 C   0  0  0  0  0  0  0  0  0  0  0  0
   19.8922  -12.0687  -16.4284 C   0  0  0  0  0  0  0  0  0  0  0  0
   19.8378  -11.1211  -15.2466 C   0  0  1  0  0  0  0  0  0  0  0  0
   20.1565   -9.7530  -15.7682 C   0  0  0  0  0  0  0  0  0  0  0  0
   21.2836   -9.5806  -16.2469 O   0  0  0  0  0  0  0  0  0  0  0  0
   15.8720   -8.1579  -17.8245 N   0  0  0  0  0  0  0  0  0  0  0  0
   16.9808   -8.3722  -18.6770 C   0  0  0  0  0  0  0  0  0  0  0  0
   16.8117   -9.0999  -19.6886 O   0  0  0  0  0  0  0  0  0  0  0  0
   18.3229   -7.7723  -18.4204 C   0  0  0  0  0  0  0  0  0  0  0  0
   18.2647   -6.9475  -17.1579 C   0  0  0  0  0  0  0  0  0  0  0  0
   19.3025   -7.3819  -16.1355 C   0  0  2  0  0  0  0  0  0  0  0  0
   19.1915   -8.7306  -15.6985 N   0  0  0  0  0  0  0  0  0  0  0  0
   19.5443   -6.4067  -15.0754 C   0  0  0  0  0  0  0  0  0  0  0  0
   19.6447   -5.1607  -15.2860 O   0  0  0  0  0  0  0  0  0  0  0  0
   20.0035   -4.1918  -10.5505 N   0  0  0  0  0  0  0  0  0  0  0  0
   19.4851   -5.4699  -10.2402 C   0  0  0  0  0  0  0  0  0  0  0  0
   19.1413   -5.7493   -9.0756 O   0  0  0  0  0  0  0  0  0  0  0  0
   19.3506   -6.4859  -11.3261 C   0  0  0  0  0  0  0  0  0  0  0  0
   19.8596   -5.8611  -12.6218 C   0  0  2  0  0  0  0  0  0  0  0  0
   19.6873   -6.8047  -13.7045 N   0  0  0  0  0  0  0  0  0  0  0  0
   21.3009   -5.6028  -12.4449 C   0  0  0  0  0  0  0  0  0  0  0  0
   21.7228   -4.4613  -11.7592 O   0  0  0  0  0  0  0  0  0  0  0  0
   22.1588   -6.3885  -12.9004 O   0  0  0  0  0  0  0  0  0  0  0  0
  1  2  1  0
  3  2  1  0
  4  5  1  0
  4  3  1  0
  5  6  1  6
  5  1  1  0
  6  7  2  0
  9 11  1  0
  9  8  1  0
 10  9  2  0
 13 12  1  1
 12 11  1  0
 14 13  1  0
 14  6  1  0
 15 22  1  0
 15 13  1  0
 16 15  2  0
 17 18  1  0
 18 20  1  0
 19 18  2  0
 21 22  1  0
 21 20  1  1
 23 21  1  0
 24 23  1  0
 25 23  2  0
M  END
$$$$
