PQN.pdb
     RDKit          3D

 25 25  0  0  1  0  0  0  0  0999 V2000
   44.1862  -11.4623   -8.5362 N   0  0  0  0  0  0  0  0  0  0  0  0
   44.1631  -12.7304   -7.8331 C   0  0  0  0  0  0  0  0  0  0  0  0
   43.1136  -13.5958   -8.4940 C   0  0  0  0  0  0  0  0  0  0  0  0
   42.5638  -12.7619   -9.6439 C   0  0  0  0  0  0  0  0  0  0  0  0
   42.9964  -11.3480   -9.3107 C   0  0  1  0  0  0  0  0  0  0  0  0
   41.8692  -10.7123   -8.5553 C   0  0  0  0  0  0  0  0  0  0  0  0
   40.7206  -11.0402   -8.8753 O   0  0  0  0  0  0  0  0  0  0  0  0
   42.5165   -6.6764   -3.5428 N   0  0  0  0  0  0  0  0  0  0  0  0
   41.5489   -6.0541   -4.3666 C   0  0  0  0  0  0  0  0  0  0  0  0
   41.0332   -4.9818   -3.9595 O   0  0  0  0  0  0  0  0  0  0  0  0
   41.1273   -6.6183   -5.6822 C   0  0  0  0  0  0  0  0  0  0  0  0
   41.9042   -7.8838   -5.9516 C   0  0  0  0  0  0  0  0  0  0  0  0
   41.4366   -8.5916   -7.2131 C   0  0  2  0  0  0  0  0  0  0  0  0
   42.1420   -9.7843   -7.5328 N   0  0  0  0  0  0  0  0  0  0  0  0
   41.1860   -7.7001   -8.3425 C   0  0  0  0  0  0  0  0  0  0  0  0
   42.0943   -7.3110   -9.1366 O   0  0  0  0  0  0  0  0  0  0  0  0
   38.7751   -5.0436  -11.9501 N   0  0  0  0  0  0  0  0  0  0  0  0
   38.1980   -6.3287  -11.8327 C   0  0  0  0  0  0  0  0  0  0  0  0
   37.4213   -6.7576  -12.7075 O   0  0  0  0  0  0  0  0  0  0  0  0
   38.5311   -7.1724  -10.6465 C   0  0  0  0  0  0  0  0  0  0  0  0
   39.5636   -6.4225   -9.8098 C   0  0  2  0  0  0  0  0  0  0  0  0
   39.8728   -7.1983   -8.6288 N   0  0  0  0  0  0  0  0  0  0  0  0
   38.9454   -5.1505   -9.3912 C   0  0  0  0  0  0  0  0  0  0  0  0
   38.9359   -4.0619  -10.2664 O   0  0  0  0  0  0  0  0  0  0  0  0
   38.4278   -5.0249   -8.2612 O   0  0  0  0  0  0  0  0  0  0  0  0
  1  2  1  0
  3  2  1  0
  4  5  1  0
  4  3  1  0
  5  6  1  1
  5  1  1  0
  6  7  2  0
  9 11  1  0
  9  8  1  0
 10  9  2  0
 13 12  1  1
 12 11  1  0
 14 13  1  0
 14  6  1  0
 15 22  1  0
 15 13  1  0
 16 15  2  0
 17 18  1  0
 18 20  1  0
 19 18  2  0
 21 22  1  0
 21 20  1  6
 23 21  1  0
 24 23  1  0
 25 23  2  0
M  END
$$$$
