PQN.pdb
     RDKit          3D

 25 25  0  0  1  0  0  0  0  0999 V2000
   26.5171  -18.0314  -16.5614 N   0  0  0  0  0  0  0  0  0  0  0  0
   27.9069  -18.2787  -16.2297 C   0  0  0  0  0  0  0  0  0  0  0  0
   28.3282  -19.5383  -16.9529 C   0  0  0  0  0  0  0  0  0  0  0  0
   27.1073  -19.9767  -17.7512 C   0  0  0  0  0  0  0  0  0  0  0  0
   25.9600  -19.2217  -17.1102 C   0  0  1  0  0  0  0  0  0  0  0  0
   25.3715  -20.1232  -16.0678 C   0  0  0  0  0  0  0  0  0  0  0  0
   24.8324  -21.1639  -16.4619 O   0  0  0  0  0  0  0  0  0  0  0  0
   26.9297  -20.3962   -9.8988 N   0  0  0  0  0  0  0  0  0  0  0  0
   25.6312  -20.9576   -9.9283 C   0  0  0  0  0  0  0  0  0  0  0  0
   25.1734  -21.4350   -8.8588 O   0  0  0  0  0  0  0  0  0  0  0  0
   24.7996  -21.0008  -11.1666 C   0  0  0  0  0  0  0  0  0  0  0  0
   25.5863  -20.4150  -12.3136 C   0  0  0  0  0  0  0  0  0  0  0  0
   24.7814  -20.3688  -13.6025 C   0  0  2  0  0  0  0  0  0  0  0  0
   25.4454  -19.7686  -14.7076 N   0  0  0  0  0  0  0  0  0  0  0  0
   23.3887  -19.9661  -13.4252 C   0  0  0  0  0  0  0  0  0  0  0  0
   23.0245  -18.7587  -13.2968 O   0  0  0  0  0  0  0  0  0  0  0  0
   18.4681  -18.6533  -14.2750 N   0  0  0  0  0  0  0  0  0  0  0  0
   18.8726  -20.0019  -14.4020 C   0  0  0  0  0  0  0  0  0  0  0  0
   18.0344  -20.9226  -14.3558 O   0  0  0  0  0  0  0  0  0  0  0  0
   20.3200  -20.3142  -14.5952 C   0  0  0  0  0  0  0  0  0  0  0  0
   20.9356  -20.5646  -13.2217 C   0  0  2  0  0  0  0  0  0  0  0  0
   22.3261  -20.9290  -13.3830 N   0  0  0  0  0  0  0  0  0  0  0  0
   20.2152  -21.7031  -12.6216 C   0  0  0  0  0  0  0  0  0  0  0  0
   20.5772  -23.0094  -12.9586 O   0  0  0  0  0  0  0  0  0  0  0  0
   19.2798  -21.5222  -11.8135 O   0  0  0  0  0  0  0  0  0  0  0  0
  1  2  1  0
  3  2  1  0
  4  5  1  0
  4  3  1  0
  5  6  1  1
  5  1  1  0
  6  7  2  0
  9 11  1  0
  9  8  1  0
 10  9  2  0
 13 12  1  1
 12 11  1  0
 14 13  1  0
 14  6  1  0
 15 22  1  0
 15 13  1  0
 16 15  2  0
 17 18  1  0
 18 20  1  0
 19 18  2  0
 21 22  1  0
 21 20  1  6
 23 21  1  0
 24 23  1  0
 25 23  2  0
M  END
$$$$
