PQN.pdb
     RDKit          3D

 25 25  0  0  1  0  0  0  0  0999 V2000
   32.6679  -35.8595   -5.7221 N   0  0  0  0  0  0  0  0  0  0  0  0
   33.8468  -35.3910   -6.4247 C   0  0  0  0  0  0  0  0  0  0  0  0
   34.3941  -36.5560   -7.2186 C   0  0  0  0  0  0  0  0  0  0  0  0
   33.4351  -37.7108   -6.9600 C   0  0  0  0  0  0  0  0  0  0  0  0
   32.6729  -37.2838   -5.7216 C   0  0  1  0  0  0  0  0  0  0  0  0
   33.3944  -37.8627   -4.5427 C   0  0  0  0  0  0  0  0  0  0  0  0
   33.4486  -39.0957   -4.4650 O   0  0  0  0  0  0  0  0  0  0  0  0
   39.2592  -36.9630   -0.2590 N   0  0  0  0  0  0  0  0  0  0  0  0
   38.2301  -36.5923   -1.1566 C   0  0  0  0  0  0  0  0  0  0  0  0
   38.4683  -35.6656   -1.9726 O   0  0  0  0  0  0  0  0  0  0  0  0
   36.8928  -37.2544   -1.1677 C   0  0  0  0  0  0  0  0  0  0  0  0
   36.0562  -36.6649   -2.2769 C   0  0  0  0  0  0  0  0  0  0  0  0
   34.7141  -37.3639   -2.4224 C   0  0  2  0  0  0  0  0  0  0  0  0
   33.9721  -37.0105   -3.5830 N   0  0  0  0  0  0  0  0  0  0  0  0
   33.9362  -37.4305   -1.1880 C   0  0  0  0  0  0  0  0  0  0  0  0
   33.1616  -36.5038   -0.8029 O   0  0  0  0  0  0  0  0  0  0  0  0
   32.1400  -42.2862    0.8204 N   0  0  0  0  0  0  0  0  0  0  0  0
   32.2385  -40.8887    0.6306 C   0  0  0  0  0  0  0  0  0  0  0  0
   31.4772  -40.3010   -0.1616 O   0  0  0  0  0  0  0  0  0  0  0  0
   33.2663  -40.1196    1.3933 C   0  0  0  0  0  0  0  0  0  0  0  0
   33.2332  -38.6748    0.9036 C   0  0  2  0  0  0  0  0  0  0  0  0
   34.0018  -38.5687   -0.3171 N   0  0  0  0  0  0  0  0  0  0  0  0
   33.8773  -37.8476    1.9410 C   0  0  0  0  0  0  0  0  0  0  0  0
   33.3258  -37.7876    3.2230 O   0  0  0  0  0  0  0  0  0  0  0  0
   34.9127  -37.1933    1.6949 O   0  0  0  0  0  0  0  0  0  0  0  0
  1  2  1  0
  3  2  1  0
  4  5  1  0
  4  3  1  0
  5  6  1  1
  5  1  1  0
  6  7  2  0
  9 11  1  0
  9  8  1  0
 10  9  2  0
 13 12  1  1
 12 11  1  0
 14 13  1  0
 14  6  1  0
 15 22  1  0
 15 13  1  0
 16 15  2  0
 17 18  1  0
 18 20  1  0
 19 18  2  0
 21 22  1  0
 21 20  1  1
 23 21  1  0
 24 23  1  0
 25 23  2  0
M  END
$$$$
