PQN.pdb
     RDKit          3D

 25 25  0  0  1  0  0  0  0  0999 V2000
   15.4678  -18.6242    2.3544 N   0  0  0  0  0  0  0  0  0  0  0  0
   14.2011  -18.0251    2.7276 C   0  0  0  0  0  0  0  0  0  0  0  0
   14.4467  -17.1711    3.9513 C   0  0  0  0  0  0  0  0  0  0  0  0
   15.9391  -17.2851    4.2340 C   0  0  0  0  0  0  0  0  0  0  0  0
   16.3674  -18.5113    3.4528 C   0  0  1  0  0  0  0  0  0  0  0  0
   16.2892  -19.6769    4.3912 C   0  0  0  0  0  0  0  0  0  0  0  0
   16.1372  -19.4245    5.5922 O   0  0  0  0  0  0  0  0  0  0  0  0
   17.1327  -25.5097    1.9399 N   0  0  0  0  0  0  0  0  0  0  0  0
   15.9559  -24.7266    1.8759 C   0  0  0  0  0  0  0  0  0  0  0  0
   15.0801  -25.0504    1.0336 O   0  0  0  0  0  0  0  0  0  0  0  0
   15.7227  -23.5481    2.7612 C   0  0  0  0  0  0  0  0  0  0  0  0
   16.8719  -23.4206    3.7311 C   0  0  0  0  0  0  0  0  0  0  0  0
   16.7675  -22.1705    4.5898 C   0  0  2  0  0  0  0  0  0  0  0  0
   16.3901  -20.9896    3.8932 N   0  0  0  0  0  0  0  0  0  0  0  0
   17.8632  -22.0036    5.5410 C   0  0  0  0  0  0  0  0  0  0  0  0
   18.8842  -21.2895    5.3078 O   0  0  0  0  0  0  0  0  0  0  0  0
   19.2212  -20.9106   11.1640 N   0  0  0  0  0  0  0  0  0  0  0  0
   19.5369  -21.2566    9.8302 C   0  0  0  0  0  0  0  0  0  0  0  0
   20.7227  -21.4027    9.4765 O   0  0  0  0  0  0  0  0  0  0  0  0
   18.4313  -21.4486    8.8451 C   0  0  0  0  0  0  0  0  0  0  0  0
   18.8960  -22.4662    7.8074 C   0  0  2  0  0  0  0  0  0  0  0  0
   17.8535  -22.6501    6.8217 N   0  0  0  0  0  0  0  0  0  0  0  0
   19.1093  -23.7433    8.5137 C   0  0  0  0  0  0  0  0  0  0  0  0
   20.4089  -24.1945    8.7556 O   0  0  0  0  0  0  0  0  0  0  0  0
   18.1447  -24.4361    8.9014 O   0  0  0  0  0  0  0  0  0  0  0  0
  1  2  1  0
  3  2  1  0
  4  5  1  0
  4  3  1  0
  5  6  1  1
  5  1  1  0
  6  7  2  0
  9 11  1  0
  9  8  1  0
 10  9  2  0
 13 12  1  6
 12 11  1  0
 14 13  1  0
 14  6  1  0
 15 22  1  0
 15 13  1  0
 16 15  2  0
 17 18  1  0
 18 20  1  0
 19 18  2  0
 21 22  1  0
 21 20  1  1
 23 21  1  0
 24 23  1  0
 25 23  2  0
M  END
$$$$
