LSY.pdb
     RDKit          3D

 27 27  0  0  1  0  0  0  0  0999 V2000
    6.9014  -12.4467   19.4114 C   0  0  0  0  0  0  0  0  0  0  0  0
    7.9800  -13.4673   19.3194 C   0  0  1  0  0  0  0  0  0  0  0  0
    9.3651  -12.8672   19.4696 C   0  0  0  0  0  0  0  0  0  0  0  0
    7.8291  -14.5084   20.3795 C   0  0  0  0  0  0  0  0  0  0  0  0
    8.8153  -15.6166   20.2060 C   0  0  2  0  0  0  0  0  0  0  0  0
    8.5002  -16.3692   19.0188 N   0  0  0  0  0  0  0  0  0  0  0  0
    8.7965  -16.4481   21.4323 C   0  0  0  0  0  0  0  0  0  0  0  0
    8.2246  -17.5905   21.3573 O   0  0  0  0  0  0  0  0  0  0  0  0
   10.4753  -19.0650   24.2951 O   0  0  0  0  0  0  0  0  0  0  0  0
   10.3060  -18.1463   23.2852 C   0  0  0  0  0  0  0  0  0  0  0  0
    9.5800  -16.9007   23.7378 C   0  0  2  0  0  0  0  0  0  0  0  0
    9.3864  -15.9952   22.6346 N   0  0  0  0  0  0  0  0  0  0  0  0
   10.2563  -16.2197   24.8514 C   0  0  0  0  0  0  0  0  0  0  0  0
   11.5136  -16.2162   24.8737 O   0  0  0  0  0  0  0  0  0  0  0  0
    5.8152  -10.9953   26.0166 O   0  0  0  0  0  0  0  0  0  0  0  0
    6.6216  -11.9821   26.5659 C   0  0  0  0  0  0  0  0  0  0  0  0
    7.8989  -11.6505   26.9760 C   0  0  0  0  0  0  0  0  0  0  0  0
    8.7336  -12.5930   27.5256 C   0  0  0  0  0  0  0  0  0  0  0  0
    8.2725  -13.9031   27.6667 C   0  0  0  0  0  0  0  0  0  0  0  0
    9.1337  -14.9661   28.2276 C   0  0  0  0  0  0  0  0  0  0  0  0
   10.1659  -15.3997   27.2493 C   0  0  2  0  0  0  0  0  0  0  0  0
    9.6005  -15.5627   25.9086 N   0  0  0  0  0  0  0  0  0  0  0  0
   10.8645  -16.6292   27.6337 C   0  0  0  0  0  0  0  0  0  0  0  0
   10.3102  -17.8698   27.4293 O   0  0  0  0  0  0  0  0  0  0  0  0
    6.9866  -14.2228   27.2502 C   0  0  0  0  0  0  0  0  0  0  0  0
    6.1531  -13.2762   26.7001 C   0  0  0  0  0  0  0  0  0  0  0  0
   11.9940  -16.5554   28.1642 O   0  0  0  0  0  0  0  0  0  0  0  0
  2  1  1  1
  2  4  1  0
  2  3  1  0
  5  4  1  0
  5  6  1  6
  7  5  1  0
  8  7  2  0
  9 10  1  0
 11 10  1  6
 11 12  1  0
 12  7  1  0
 13 22  1  0
 13 11  1  0
 14 13  2  0
 16 15  1  0
 17 16  2  0
 18 17  1  0
 19 25  1  0
 19 18  2  0
 21 20  1  1
 20 19  1  0
 21 23  1  0
 21 22  1  0
 23 24  1  0
 25 26  2  0
 26 16  1  0
 27 23  2  0
M  END
$$$$
