LSY.pdb
     RDKit          3D

 27 27  0  0  1  0  0  0  0  0999 V2000
    7.7044  -12.1318   18.9229 C   0  0  0  0  0  0  0  0  0  0  0  0
    8.1237  -13.5474   18.7391 C   0  0  1  0  0  0  0  0  0  0  0  0
    9.6310  -13.7164   18.7589 C   0  0  0  0  0  0  0  0  0  0  0  0
    7.5642  -14.4196   19.8146 C   0  0  0  0  0  0  0  0  0  0  0  0
    7.9688  -15.8457   19.6321 C   0  0  2  0  0  0  0  0  0  0  0  0
    7.1281  -16.4688   18.6421 N   0  0  0  0  0  0  0  0  0  0  0  0
    7.8963  -16.5189   20.9500 C   0  0  0  0  0  0  0  0  0  0  0  0
    6.7611  -16.5305   21.5407 O   0  0  0  0  0  0  0  0  0  0  0  0
   10.6530  -19.3119   22.3756 O   0  0  0  0  0  0  0  0  0  0  0  0
    9.3915  -19.1056   22.8842 C   0  0  0  0  0  0  0  0  0  0  0  0
    8.9802  -17.6516   22.8673 C   0  0  2  0  0  0  0  0  0  0  0  0
    9.0362  -17.1224   21.5290 N   0  0  0  0  0  0  0  0  0  0  0  0
    9.7775  -16.8231   23.7834 C   0  0  0  0  0  0  0  0  0  0  0  0
   10.8983  -16.4091   23.3914 O   0  0  0  0  0  0  0  0  0  0  0  0
    5.1298  -12.1484   26.9308 O   0  0  0  0  0  0  0  0  0  0  0  0
    6.3784  -12.6872   26.6545 C   0  0  0  0  0  0  0  0  0  0  0  0
    7.4206  -12.4425   27.5283 C   0  0  0  0  0  0  0  0  0  0  0  0
    8.6741  -12.9546   27.2969 C   0  0  0  0  0  0  0  0  0  0  0  0
    8.8858  -13.7331   26.1575 C   0  0  0  0  0  0  0  0  0  0  0  0
   10.2187  -14.2900   25.8423 C   0  0  0  0  0  0  0  0  0  0  0  0
   10.2504  -15.7635   26.0382 C   0  0  2  0  0  0  0  0  0  0  0  0
    9.3815  -16.4514   25.0812 N   0  0  0  0  0  0  0  0  0  0  0  0
    9.9045  -16.1862   27.3980 C   0  0  0  0  0  0  0  0  0  0  0  0
    8.8681  -17.0542   27.6436 O   0  0  0  0  0  0  0  0  0  0  0  0
    7.8295  -13.9710   25.2875 C   0  0  0  0  0  0  0  0  0  0  0  0
    6.5750  -13.4566   25.5224 C   0  0  0  0  0  0  0  0  0  0  0  0
   10.5637  -15.7479   28.3654 O   0  0  0  0  0  0  0  0  0  0  0  0
  2  1  1  1
  2  4  1  0
  2  3  1  0
  5  4  1  0
  5  6  1  6
  7  5  1  0
  8  7  2  0
  9 10  1  0
 11 10  1  6
 11 12  1  0
 12  7  1  0
 13 22  1  0
 13 11  1  0
 14 13  2  0
 16 15  1  0
 17 16  2  0
 18 17  1  0
 19 25  1  0
 19 18  2  0
 21 20  1  1
 20 19  1  0
 21 23  1  0
 21 22  1  0
 23 24  1  0
 25 26  2  0
 26 16  1  0
 27 23  2  0
M  END
$$$$
