LSY.pdb
     RDKit          3D

 27 27  0  0  1  0  0  0  0  0999 V2000
   11.4760  -19.4720   21.4869 C   0  0  0  0  0  0  0  0  0  0  0  0
   11.8563  -19.0273   20.1190 C   0  0  1  0  0  0  0  0  0  0  0  0
   10.8328  -18.0913   19.5045 C   0  0  0  0  0  0  0  0  0  0  0  0
   13.1656  -18.3091   20.1299 C   0  0  0  0  0  0  0  0  0  0  0  0
   13.5589  -17.8620   18.7601 C   0  0  2  0  0  0  0  0  0  0  0  0
   13.5389  -18.9833   17.8561 N   0  0  0  0  0  0  0  0  0  0  0  0
   14.8923  -17.2217   18.8480 C   0  0  0  0  0  0  0  0  0  0  0  0
   15.9023  -17.9907   19.0093 O   0  0  0  0  0  0  0  0  0  0  0  0
   15.4109  -12.9935   18.7619 O   0  0  0  0  0  0  0  0  0  0  0  0
   16.3612  -13.8461   18.2493 C   0  0  0  0  0  0  0  0  0  0  0  0
   16.3380  -15.2114   18.8966 C   0  0  2  0  0  0  0  0  0  0  0  0
   15.0394  -15.8185   18.7577 N   0  0  0  0  0  0  0  0  0  0  0  0
   16.7440  -15.1793   20.3092 C   0  0  0  0  0  0  0  0  0  0  0  0
   15.8534  -15.2970   21.1891 O   0  0  0  0  0  0  0  0  0  0  0  0
   13.5466  -18.3669   24.1149 O   0  0  0  0  0  0  0  0  0  0  0  0
   14.7925  -17.8486   23.7907 C   0  0  0  0  0  0  0  0  0  0  0  0
   15.3265  -16.8480   24.5800 C   0  0  0  0  0  0  0  0  0  0  0  0
   16.5562  -16.3042   24.2988 C   0  0  0  0  0  0  0  0  0  0  0  0
   17.2679  -16.7784   23.1953 C   0  0  0  0  0  0  0  0  0  0  0  0
   18.5844  -16.2146   22.8280 C   0  0  0  0  0  0  0  0  0  0  0  0
   18.4416  -14.8887   22.1704 C   0  0  2  0  0  0  0  0  0  0  0  0
   18.0673  -15.0254   20.7615 N   0  0  0  0  0  0  0  0  0  0  0  0
   19.6356  -14.0457   22.2754 C   0  0  0  0  0  0  0  0  0  0  0  0
   20.2857  -13.5712   21.1617 O   0  0  0  0  0  0  0  0  0  0  0  0
   16.7192  -17.7844   22.4102 C   0  0  0  0  0  0  0  0  0  0  0  0
   15.4872  -18.3270   22.6949 C   0  0  0  0  0  0  0  0  0  0  0  0
   20.0817  -13.7479   23.4044 O   0  0  0  0  0  0  0  0  0  0  0  0
  2  1  1  1
  2  4  1  0
  2  3  1  0
  5  4  1  0
  5  6  1  6
  7  5  1  0
  8  7  2  0
  9 10  1  0
 11 10  1  1
 11 12  1  0
 12  7  1  0
 13 22  1  0
 13 11  1  0
 14 13  2  0
 16 15  1  0
 17 16  2  0
 18 17  1  0
 19 25  1  0
 19 18  2  0
 21 20  1  6
 20 19  1  0
 21 23  1  0
 21 22  1  0
 23 24  1  0
 25 26  2  0
 26 16  1  0
 27 23  2  0
M  END
$$$$
