VKD.pdb
     RDKit          3D

 25 24  0  0  1  0  0  0  0  0999 V2000
    6.9694  -13.2632   18.4040 C   0  0  0  0  0  0  0  0  0  0  0  0
    7.5476  -13.2961   19.7980 C   0  0  2  0  0  0  0  0  0  0  0  0
    8.6538  -12.2811   19.9108 C   0  0  0  0  0  0  0  0  0  0  0  0
    8.0699  -14.6978   20.1111 C   0  0  2  0  0  0  0  0  0  0  0  0
    6.9263  -15.5763   20.0509 N   0  0  0  0  0  0  0  0  0  0  0  0
    8.5945  -14.6667   21.4764 C   0  0  0  0  0  0  0  0  0  0  0  0
    9.7424  -14.1541   21.6793 O   0  0  0  0  0  0  0  0  0  0  0  0
    7.8857  -15.1835   22.6044 N   0  0  0  0  0  0  0  0  0  0  0  0
    8.4294  -15.1827   23.9347 C   0  0  1  0  0  0  0  0  0  0  0  0
    7.4462  -14.8337   24.9909 C   0  0  0  0  0  0  0  0  0  0  0  0
    7.1486  -13.3988   25.2135 C   0  0  0  0  0  0  0  0  0  0  0  0
    6.1648  -13.2037   26.3059 C   0  0  0  0  0  0  0  0  0  0  0  0
    5.8522  -11.7519   26.5856 C   0  0  0  0  0  0  0  0  0  0  0  0
    4.8737  -11.5550   27.5958 N   0  0  0  0  0  0  0  0  0  0  0  0
    9.3082  -16.3367   24.2222 C   0  0  0  0  0  0  0  0  0  0  0  0
    8.9419  -17.5404   24.0112 O   0  0  0  0  0  0  0  0  0  0  0  0
   10.6290  -16.2091   24.7522 N   0  0  0  0  0  0  0  0  0  0  0  0
   11.4832  -17.3526   24.9628 C   0  0  1  0  0  0  0  0  0  0  0  0
   12.8977  -16.9918   24.5461 C   0  0  0  0  0  0  0  0  0  0  0  0
   13.8614  -18.0941   24.7406 C   0  0  0  0  0  0  0  0  0  0  0  0
   15.0007  -17.8760   25.2003 O   0  0  0  0  0  0  0  0  0  0  0  0
   11.4562  -17.7213   26.3892 C   0  0  0  0  0  0  0  0  0  0  0  0
   12.0873  -18.7249   26.7735 O   0  0  0  0  0  0  0  0  0  0  0  0
   13.5402  -19.4030   24.4228 O   0  0  0  0  0  0  0  0  0  0  0  0
   10.7427  -16.9661   27.2880 O   0  0  0  0  0  0  0  0  0  0  0  0
  2  1  1  6
  3  2  1  0
  4  2  1  0
  4  5  1  1
  6  7  2  0
  6  4  1  0
  8  6  1  0
  9  8  1  0
  9 10  1  1
 11 10  1  0
 11 12  1  0
 13 12  1  0
 13 14  1  0
 15  9  1  0
 16 15  2  0
 17 15  1  0
 18 22  1  0
 18 17  1  0
 18 19  1  1
 20 21  2  0
 20 19  1  0
 22 25  1  0
 23 22  2  0
 24 20  1  0
M  END
$$$$
