VKD.pdb
     RDKit          3D

 25 24  0  0  1  0  0  0  0  0999 V2000
    7.3496  -12.2348   18.5082 C   0  0  0  0  0  0  0  0  0  0  0  0
    7.7738  -13.2430   19.5484 C   0  0  2  0  0  0  0  0  0  0  0  0
    9.0333  -12.7719   20.2254 C   0  0  0  0  0  0  0  0  0  0  0  0
    7.9935  -14.6056   18.8922 C   0  0  2  0  0  0  0  0  0  0  0  0
    6.7895  -14.8940   18.1503 N   0  0  0  0  0  0  0  0  0  0  0  0
    8.1522  -15.5820   19.9702 C   0  0  0  0  0  0  0  0  0  0  0  0
    7.4154  -15.4777   21.0035 O   0  0  0  0  0  0  0  0  0  0  0  0
    9.0951  -16.6549   19.9285 N   0  0  0  0  0  0  0  0  0  0  0  0
    9.2967  -17.5594   21.0269 C   0  0  1  0  0  0  0  0  0  0  0  0
    8.6717  -18.8925   20.8364 C   0  0  0  0  0  0  0  0  0  0  0  0
    7.2357  -18.9386   20.4718 C   0  0  0  0  0  0  0  0  0  0  0  0
    6.7563  -20.3314   20.2987 C   0  0  0  0  0  0  0  0  0  0  0  0
    5.2799  -20.4284   19.9908 C   0  0  0  0  0  0  0  0  0  0  0  0
    4.8219  -21.7537   19.7658 N   0  0  0  0  0  0  0  0  0  0  0  0
   10.6777  -17.5599   21.5554 C   0  0  0  0  0  0  0  0  0  0  0  0
   11.6888  -17.8073   20.8177 O   0  0  0  0  0  0  0  0  0  0  0  0
   10.9998  -17.2847   22.9201 N   0  0  0  0  0  0  0  0  0  0  0  0
   12.3427  -17.4152   23.4311 C   0  0  1  0  0  0  0  0  0  0  0  0
   13.0730  -16.0991   23.2334 C   0  0  0  0  0  0  0  0  0  0  0  0
   14.4692  -16.2696   22.7828 C   0  0  0  0  0  0  0  0  0  0  0  0
   14.9437  -17.4059   22.5815 O   0  0  0  0  0  0  0  0  0  0  0  0
   12.2850  -17.7494   24.8650 C   0  0  0  0  0  0  0  0  0  0  0  0
   11.2380  -17.5264   25.5033 O   0  0  0  0  0  0  0  0  0  0  0  0
   15.2999  -15.1829   22.5678 O   0  0  0  0  0  0  0  0  0  0  0  0
   13.3742  -18.3025   25.4934 O   0  0  0  0  0  0  0  0  0  0  0  0
  2  1  1  6
  3  2  1  0
  4  2  1  0
  4  5  1  1
  6  7  2  0
  6  4  1  0
  8  6  1  0
  9  8  1  0
  9 10  1  6
 11 10  1  0
 11 12  1  0
 13 12  1  0
 13 14  1  0
 15  9  1  0
 16 15  2  0
 17 15  1  0
 18 22  1  0
 18 17  1  0
 18 19  1  1
 20 21  2  0
 20 19  1  0
 22 25  1  0
 23 22  2  0
 24 20  1  0
M  END
$$$$
