VKD.pdb
     RDKit          3D

 25 24  0  0  1  0  0  0  0  0999 V2000
    9.6113  -18.2840   27.1179 C   0  0  0  0  0  0  0  0  0  0  0  0
    8.3870  -17.4395   27.3758 C   0  0  2  0  0  0  0  0  0  0  0  0
    7.9066  -17.6622   28.7851 C   0  0  0  0  0  0  0  0  0  0  0  0
    7.2906  -17.7934   26.3717 C   0  0  2  0  0  0  0  0  0  0  0  0
    7.0253  -19.2015   26.5450 N   0  0  0  0  0  0  0  0  0  0  0  0
    7.8378  -17.5572   25.0356 C   0  0  0  0  0  0  0  0  0  0  0  0
    8.4362  -18.5117   24.4420 O   0  0  0  0  0  0  0  0  0  0  0  0
    7.7378  -16.3056   24.3535 N   0  0  0  0  0  0  0  0  0  0  0  0
    8.3951  -16.0441   23.1025 C   0  0  1  0  0  0  0  0  0  0  0  0
    7.8534  -14.8741   22.3665 C   0  0  0  0  0  0  0  0  0  0  0  0
    8.5026  -14.4990   21.0878 C   0  0  0  0  0  0  0  0  0  0  0  0
    7.5985  -13.7004   20.2250 C   0  0  0  0  0  0  0  0  0  0  0  0
    8.2093  -13.3231   18.8953 C   0  0  0  0  0  0  0  0  0  0  0  0
    7.4206  -12.4227   18.1311 N   0  0  0  0  0  0  0  0  0  0  0  0
    9.8689  -16.1430   23.1692 C   0  0  0  0  0  0  0  0  0  0  0  0
   10.5462  -15.5972   24.1025 O   0  0  0  0  0  0  0  0  0  0  0  0
   10.6558  -16.8510   22.2094 N   0  0  0  0  0  0  0  0  0  0  0  0
   12.0938  -16.9248   22.3029 C   0  0  1  0  0  0  0  0  0  0  0  0
   12.4822  -18.2998   22.8157 C   0  0  0  0  0  0  0  0  0  0  0  0
   13.9383  -18.5449   22.7799 C   0  0  0  0  0  0  0  0  0  0  0  0
   14.7365  -17.7427   23.3053 O   0  0  0  0  0  0  0  0  0  0  0  0
   12.6780  -16.7004   20.9690 C   0  0  0  0  0  0  0  0  0  0  0  0
   11.9529  -16.7953   19.9598 O   0  0  0  0  0  0  0  0  0  0  0  0
   14.4702  -19.6665   22.1663 O   0  0  0  0  0  0  0  0  0  0  0  0
   14.0095  -16.3888   20.8377 O   0  0  0  0  0  0  0  0  0  0  0  0
  2  1  1  6
  3  2  1  0
  4  2  1  0
  4  5  1  6
  6  7  2  0
  6  4  1  0
  8  6  1  0
  9  8  1  0
  9 10  1  1
 11 10  1  0
 11 12  1  0
 13 12  1  0
 13 14  1  0
 15  9  1  0
 16 15  2  0
 17 15  1  0
 18 22  1  0
 18 17  1  0
 18 19  1  6
 20 21  2  0
 20 19  1  0
 22 25  1  0
 23 22  2  0
 24 20  1  0
M  END
$$$$
