VKD.pdb
     RDKit          3D

 25 24  0  0  1  0  0  0  0  0999 V2000
    6.7886  -13.7587   20.7174 C   0  0  0  0  0  0  0  0  0  0  0  0
    8.0787  -13.3498   20.0488 C   0  0  2  0  0  0  0  0  0  0  0  0
    7.7761  -12.5110   18.8358 C   0  0  0  0  0  0  0  0  0  0  0  0
    8.8779  -14.5923   19.6576 C   0  0  2  0  0  0  0  0  0  0  0  0
    8.0331  -15.3499   18.7656 N   0  0  0  0  0  0  0  0  0  0  0  0
    9.1108  -15.3578   20.8824 C   0  0  0  0  0  0  0  0  0  0  0  0
    9.7800  -14.8194   21.8225 O   0  0  0  0  0  0  0  0  0  0  0  0
    8.6257  -16.6865   21.0850 N   0  0  0  0  0  0  0  0  0  0  0  0
    8.9942  -17.4871   22.2201 C   0  0  1  0  0  0  0  0  0  0  0  0
    8.1146  -18.6618   22.4443 C   0  0  0  0  0  0  0  0  0  0  0  0
    6.6490  -18.4398   22.4442 C   0  0  0  0  0  0  0  0  0  0  0  0
    5.8987  -19.7188   22.4712 C   0  0  0  0  0  0  0  0  0  0  0  0
    4.4000  -19.5388   22.5453 C   0  0  0  0  0  0  0  0  0  0  0  0
    3.6706  -20.7573   22.5496 N   0  0  0  0  0  0  0  0  0  0  0  0
   10.4478  -17.7345   22.3307 C   0  0  0  0  0  0  0  0  0  0  0  0
   11.0685  -18.5125   21.5325 O   0  0  0  0  0  0  0  0  0  0  0  0
   11.2769  -17.1311   23.3259 N   0  0  0  0  0  0  0  0  0  0  0  0
   12.6819  -17.4383   23.4409 C   0  0  1  0  0  0  0  0  0  0  0  0
   13.4863  -16.2302   22.9961 C   0  0  0  0  0  0  0  0  0  0  0  0
   14.9441  -16.4134   23.1468 C   0  0  0  0  0  0  0  0  0  0  0  0
   15.4891  -17.4943   22.8443 O   0  0  0  0  0  0  0  0  0  0  0  0
   12.9935  -17.7628   24.8441 C   0  0  0  0  0  0  0  0  0  0  0  0
   14.1436  -18.1374   25.1443 O   0  0  0  0  0  0  0  0  0  0  0  0
   15.7568  -15.4000   23.6262 O   0  0  0  0  0  0  0  0  0  0  0  0
   12.0261  -17.6531   25.8133 O   0  0  0  0  0  0  0  0  0  0  0  0
  2  1  1  6
  3  2  1  0
  4  2  1  0
  4  5  1  6
  6  7  2  0
  6  4  1  0
  8  6  1  0
  9  8  1  0
  9 10  1  6
 11 10  1  0
 11 12  1  0
 13 12  1  0
 13 14  1  0
 15  9  1  0
 16 15  2  0
 17 15  1  0
 18 22  1  0
 18 17  1  0
 18 19  1  1
 20 21  2  0
 20 19  1  0
 22 25  1  0
 23 22  2  0
 24 20  1  0
M  END
$$$$
