VKD.pdb
     RDKit          3D

 25 24  0  0  1  0  0  0  0  0999 V2000
    7.4115  -13.5811   18.4099 C   0  0  0  0  0  0  0  0  0  0  0  0
    8.2556  -13.9789   19.5964 C   0  0  2  0  0  0  0  0  0  0  0  0
    9.1459  -15.1330   19.2197 C   0  0  0  0  0  0  0  0  0  0  0  0
    7.3549  -14.3560   20.7720 C   0  0  2  0  0  0  0  0  0  0  0  0
    6.5548  -13.1890   21.0567 N   0  0  0  0  0  0  0  0  0  0  0  0
    8.2290  -14.6422   21.9097 C   0  0  0  0  0  0  0  0  0  0  0  0
    8.9470  -13.7021   22.3812 O   0  0  0  0  0  0  0  0  0  0  0  0
    8.3233  -15.9275   22.5268 N   0  0  0  0  0  0  0  0  0  0  0  0
    9.1823  -16.1937   23.6478 C   0  0  1  0  0  0  0  0  0  0  0  0
    8.5318  -16.9586   24.7413 C   0  0  0  0  0  0  0  0  0  0  0  0
    9.3583  -17.3273   25.9153 C   0  0  0  0  0  0  0  0  0  0  0  0
    8.6051  -18.1698   26.8758 C   0  0  0  0  0  0  0  0  0  0  0  0
    9.4065  -18.5581   28.0968 C   0  0  0  0  0  0  0  0  0  0  0  0
    8.6368  -19.1629   29.1256 N   0  0  0  0  0  0  0  0  0  0  0  0
   10.5419  -16.6337   23.2680 C   0  0  0  0  0  0  0  0  0  0  0  0
   10.7455  -17.5193   22.3725 O   0  0  0  0  0  0  0  0  0  0  0  0
   11.7334  -16.1120   23.8595 N   0  0  0  0  0  0  0  0  0  0  0  0
   13.0462  -16.5472   23.4483 C   0  0  1  0  0  0  0  0  0  0  0  0
   13.9760  -15.3474   23.4258 C   0  0  0  0  0  0  0  0  0  0  0  0
   15.3430  -15.6783   22.9746 C   0  0  0  0  0  0  0  0  0  0  0  0
   16.3396  -15.1498   23.5078 O   0  0  0  0  0  0  0  0  0  0  0  0
   13.5440  -17.5532   24.4029 C   0  0  0  0  0  0  0  0  0  0  0  0
   13.0363  -17.6222   25.5390 O   0  0  0  0  0  0  0  0  0  0  0  0
   15.5700  -16.5813   21.9498 O   0  0  0  0  0  0  0  0  0  0  0  0
   14.5579  -18.4081   24.0448 O   0  0  0  0  0  0  0  0  0  0  0  0
  2  1  1  6
  3  2  1  0
  4  2  1  0
  4  5  1  1
  6  7  2  0
  6  4  1  0
  8  6  1  0
  9  8  1  0
  9 10  1  1
 11 10  1  0
 11 12  1  0
 13 12  1  0
 13 14  1  0
 15  9  1  0
 16 15  2  0
 17 15  1  0
 18 22  1  0
 18 17  1  0
 18 19  1  1
 20 21  2  0
 20 19  1  0
 22 25  1  0
 23 22  2  0
 24 20  1  0
M  END
$$$$
