HDK.pdb
     RDKit          3D

 28 28  0  0  1  0  0  0  0  0999 V2000
   20.3373  -13.2133  -17.2024 N   0  0  0  0  0  0  0  0  0  0  0  0
   18.9538  -12.7996  -17.0649 C   0  0  1  0  0  0  0  0  0  0  0  0
   18.2751  -13.8337  -16.1805 C   0  0  0  0  0  0  0  0  0  0  0  0
   18.2984  -15.1378  -16.8950 C   0  0  0  0  0  0  0  0  0  0  0  0
   19.2668  -16.1172  -16.7484 C   0  0  0  0  0  0  0  0  0  0  0  0
   18.9752  -17.1505  -17.5373 N   0  0  0  0  0  0  0  0  0  0  0  0
   17.8401  -16.8269  -18.1715 C   0  0  0  0  0  0  0  0  0  0  0  0
   17.4167  -15.6148  -17.7961 N   0  0  0  0  0  0  0  0  0  0  0  0
   18.8680  -11.4573  -16.4092 C   0  0  0  0  0  0  0  0  0  0  0  0
   17.7659  -10.9156  -16.1571 O   0  0  0  0  0  0  0  0  0  0  0  0
   20.0548  -10.7708  -16.0594 N   0  0  0  0  0  0  0  0  0  0  0  0
   20.0968   -9.4341  -15.5082 C   0  0  1  0  0  0  0  0  0  0  0  0
   21.0611   -9.3513  -14.3554 C   0  0  0  0  0  0  0  0  0  0  0  0
   20.9860   -8.0824  -13.6323 C   0  0  0  0  0  0  0  0  0  0  0  0
   21.8107   -7.1673  -13.8098 O   0  0  0  0  0  0  0  0  0  0  0  0
   20.4986   -8.4257  -16.4946 C   0  0  0  0  0  0  0  0  0  0  0  0
   21.4995   -8.5997  -17.2099 O   0  0  0  0  0  0  0  0  0  0  0  0
   19.9625   -7.8894  -12.7172 O   0  0  0  0  0  0  0  0  0  0  0  0
   19.7324   -7.2559  -16.6195 N   0  0  0  0  0  0  0  0  0  0  0  0
   20.0987   -6.1992  -17.6512 C   0  0  1  0  0  0  0  0  0  0  0  0
   18.7890   -5.9334  -18.2749 C   0  0  0  0  0  0  0  0  0  0  0  0
   18.5826   -5.0583  -19.4139 C   0  0  0  0  0  0  0  0  0  0  0  0
   17.2334   -4.8179  -19.9697 C   0  0  0  0  0  0  0  0  0  0  0  0
   17.4228   -3.9528  -21.2366 C   0  0  0  0  0  0  0  0  0  0  0  0
   16.1357   -3.5372  -21.7040 N   0  0  0  0  0  0  0  0  0  0  0  0
   20.7144   -5.1472  -16.8277 C   0  0  0  0  0  0  0  0  0  0  0  0
   21.6750   -4.2576  -17.2538 O   0  0  0  0  0  0  0  0  0  0  0  0
   20.3848   -4.9817  -15.5873 O   0  0  0  0  0  0  0  0  0  0  0  0
  2  1  1  1
  2  3  1  0
  4  3  1  0
  4  5  2  0
  6  5  1  0
  7  8  2  0
  7  6  1  0
  8  4  1  0
  9  2  1  0
 10  9  2  0
 11  9  1  0
 12 11  1  0
 13 14  1  0
 12 13  1  1
 14 15  2  0
 16 12  1  0
 16 19  1  0
 17 16  2  0
 18 14  1  0
 20 19  1  0
 20 21  1  1
 21 22  1  0
 23 22  1  0
 24 25  1  0
 24 23  1  0
 26 20  1  0
 26 27  1  0
 28 26  2  0
M  END
$$$$
