HDK.pdb
     RDKit          3D

 28 28  0  0  1  0  0  0  0  0999 V2000
   21.0880   -9.7857  -15.5798 N   0  0  0  0  0  0  0  0  0  0  0  0
   19.7387   -9.3292  -15.8539 C   0  0  1  0  0  0  0  0  0  0  0  0
   18.8001  -10.4118  -15.3445 C   0  0  0  0  0  0  0  0  0  0  0  0
   18.9930  -11.6224  -16.1866 C   0  0  0  0  0  0  0  0  0  0  0  0
   19.8824  -11.7334  -17.2426 C   0  0  0  0  0  0  0  0  0  0  0  0
   19.7925  -12.9529  -17.7716 N   0  0  0  0  0  0  0  0  0  0  0  0
   18.8603  -13.6006  -17.0595 C   0  0  0  0  0  0  0  0  0  0  0  0
   18.3664  -12.8126  -16.0980 N   0  0  0  0  0  0  0  0  0  0  0  0
   19.4573   -8.0513  -15.1282 C   0  0  0  0  0  0  0  0  0  0  0  0
   18.5704   -7.9755  -14.2454 O   0  0  0  0  0  0  0  0  0  0  0  0
   20.2049   -6.8903  -15.4373 N   0  0  0  0  0  0  0  0  0  0  0  0
   19.9207   -5.5699  -14.9193 C   0  0  1  0  0  0  0  0  0  0  0  0
   21.1742   -4.7424  -14.8225 C   0  0  0  0  0  0  0  0  0  0  0  0
   22.0471   -5.1467  -13.7210 C   0  0  0  0  0  0  0  0  0  0  0  0
   21.6031   -5.4443  -12.5970 O   0  0  0  0  0  0  0  0  0  0  0  0
   18.9640   -4.8289  -15.7480 C   0  0  0  0  0  0  0  0  0  0  0  0
   19.0160   -4.8903  -16.9879 O   0  0  0  0  0  0  0  0  0  0  0  0
   23.4162   -5.2013  -13.9331 O   0  0  0  0  0  0  0  0  0  0  0  0
   17.9842   -4.0457  -15.1173 N   0  0  0  0  0  0  0  0  0  0  0  0
   16.9340   -3.3132  -15.9392 C   0  0  1  0  0  0  0  0  0  0  0  0
   15.6866   -3.8125  -15.3313 C   0  0  0  0  0  0  0  0  0  0  0  0
   14.3551   -3.3784  -15.7110 C   0  0  0  0  0  0  0  0  0  0  0  0
   13.1513   -3.8698  -15.0063 C   0  0  0  0  0  0  0  0  0  0  0  0
   12.9997   -5.3633  -15.3749 C   0  0  0  0  0  0  0  0  0  0  0  0
   11.7609   -5.8428  -14.8427 N   0  0  0  0  0  0  0  0  0  0  0  0
   17.2994   -1.9020  -15.7416 C   0  0  0  0  0  0  0  0  0  0  0  0
   16.6095   -0.8198  -16.2404 O   0  0  0  0  0  0  0  0  0  0  0  0
   18.3460   -1.5652  -15.0589 O   0  0  0  0  0  0  0  0  0  0  0  0
  2  1  1  1
  2  3  1  0
  4  3  1  0
  4  5  2  0
  6  5  1  0
  7  8  2  0
  7  6  1  0
  8  4  1  0
  9  2  1  0
 10  9  2  0
 11  9  1  0
 12 11  1  0
 13 14  1  0
 12 13  1  6
 14 15  2  0
 16 12  1  0
 16 19  1  0
 17 16  2  0
 18 14  1  0
 20 19  1  0
 20 21  1  1
 21 22  1  0
 23 22  1  0
 24 25  1  0
 24 23  1  0
 26 20  1  0
 26 27  1  0
 28 26  2  0
M  END
$$$$
