HDK.pdb
     RDKit          3D

 28 28  0  0  1  0  0  0  0  0999 V2000
   20.4239  -11.6419  -16.5946 N   0  0  0  0  0  0  0  0  0  0  0  0
   20.6140  -10.3449  -17.2157 C   0  0  1  0  0  0  0  0  0  0  0  0
   19.7433  -10.3263  -18.4622 C   0  0  0  0  0  0  0  0  0  0  0  0
   20.3836  -11.1959  -19.4846 C   0  0  0  0  0  0  0  0  0  0  0  0
   19.9943  -12.4875  -19.7988 C   0  0  0  0  0  0  0  0  0  0  0  0
   20.7855  -12.9683  -20.7569 N   0  0  0  0  0  0  0  0  0  0  0  0
   21.6602  -11.9942  -21.0421 C   0  0  0  0  0  0  0  0  0  0  0  0
   21.4328  -10.9162  -20.2835 N   0  0  0  0  0  0  0  0  0  0  0  0
   20.1782   -9.2502  -16.2934 C   0  0  0  0  0  0  0  0  0  0  0  0
   19.0738   -9.2871  -15.7013 O   0  0  0  0  0  0  0  0  0  0  0  0
   21.0259   -8.1383  -16.0752 N   0  0  0  0  0  0  0  0  0  0  0  0
   20.7310   -7.0470  -15.1726 C   0  0  1  0  0  0  0  0  0  0  0  0
   21.9923   -6.4642  -14.5938 C   0  0  0  0  0  0  0  0  0  0  0  0
   21.7418   -5.3960  -13.6270 C   0  0  0  0  0  0  0  0  0  0  0  0
   20.6933   -5.3377  -12.9588 O   0  0  0  0  0  0  0  0  0  0  0  0
   19.9966   -5.9560  -15.8220 C   0  0  0  0  0  0  0  0  0  0  0  0
   20.4200   -5.4405  -16.8702 O   0  0  0  0  0  0  0  0  0  0  0  0
   22.7031   -4.4134  -13.4463 O   0  0  0  0  0  0  0  0  0  0  0  0
   18.8031   -5.5007  -15.2394 N   0  0  0  0  0  0  0  0  0  0  0  0
   18.0383   -4.3377  -15.8540 C   0  0  1  0  0  0  0  0  0  0  0  0
   16.6418   -4.7516  -15.6228 C   0  0  0  0  0  0  0  0  0  0  0  0
   15.4817   -4.0769  -16.1746 C   0  0  0  0  0  0  0  0  0  0  0  0
   14.1123   -4.5916  -15.9579 C   0  0  0  0  0  0  0  0  0  0  0  0
   13.1455   -3.5535  -16.5721 C   0  0  0  0  0  0  0  0  0  0  0  0
   11.8014   -3.9616  -16.2985 N   0  0  0  0  0  0  0  0  0  0  0  0
   18.5634   -3.1811  -15.1122 C   0  0  0  0  0  0  0  0  0  0  0  0
   19.0284   -3.2061  -13.8164 O   0  0  0  0  0  0  0  0  0  0  0  0
   18.6216   -2.0050  -15.6490 O   0  0  0  0  0  0  0  0  0  0  0  0
  2  1  1  1
  2  3  1  0
  4  3  1  0
  4  5  2  0
  6  5  1  0
  7  8  2  0
  7  6  1  0
  8  4  1  0
  9  2  1  0
 10  9  2  0
 11  9  1  0
 12 11  1  0
 13 14  1  0
 12 13  1  6
 14 15  2  0
 16 12  1  0
 16 19  1  0
 17 16  2  0
 18 14  1  0
 20 19  1  0
 20 21  1  1
 21 22  1  0
 23 22  1  0
 24 25  1  0
 24 23  1  0
 26 20  1  0
 26 27  1  0
 28 26  2  0
M  END
$$$$
