HDK.pdb
     RDKit          3D

 28 28  0  0  1  0  0  0  0  0999 V2000
   20.7300  -12.7692  -17.8147 N   0  0  0  0  0  0  0  0  0  0  0  0
   21.0324  -11.4854  -18.4185 C   0  0  1  0  0  0  0  0  0  0  0  0
   20.4287  -11.5067  -19.8140 C   0  0  0  0  0  0  0  0  0  0  0  0
   21.1407  -12.5429  -20.6083 C   0  0  0  0  0  0  0  0  0  0  0  0
   22.3843  -12.3892  -21.1986 C   0  0  0  0  0  0  0  0  0  0  0  0
   22.7173  -13.5141  -21.8301 N   0  0  0  0  0  0  0  0  0  0  0  0
   21.6987  -14.3639  -21.6405 C   0  0  0  0  0  0  0  0  0  0  0  0
   20.7375  -13.7945  -20.9048 N   0  0  0  0  0  0  0  0  0  0  0  0
   20.4139  -10.3738  -17.6305 C   0  0  0  0  0  0  0  0  0  0  0  0
   19.1716  -10.2727  -17.4958 O   0  0  0  0  0  0  0  0  0  0  0  0
   21.2421   -9.4048  -17.0163 N   0  0  0  0  0  0  0  0  0  0  0  0
   20.7559   -8.2683  -16.2649 C   0  0  1  0  0  0  0  0  0  0  0  0
   21.4642   -8.1477  -14.9422 C   0  0  0  0  0  0  0  0  0  0  0  0
   20.9138   -7.0957  -14.0885 C   0  0  0  0  0  0  0  0  0  0  0  0
   19.6932   -6.8595  -14.0292 O   0  0  0  0  0  0  0  0  0  0  0  0
   20.9317   -6.9989  -16.9784 C   0  0  0  0  0  0  0  0  0  0  0  0
   22.0430   -6.6703  -17.4266 O   0  0  0  0  0  0  0  0  0  0  0  0
   21.7786   -6.3339  -13.3177 O   0  0  0  0  0  0  0  0  0  0  0  0
   19.8212   -6.1569  -17.1484 N   0  0  0  0  0  0  0  0  0  0  0  0
   19.9348   -4.8870  -17.9789 C   0  0  1  0  0  0  0  0  0  0  0  0
   18.5156   -4.5320  -18.1656 C   0  0  0  0  0  0  0  0  0  0  0  0
   18.0320   -3.5475  -19.1155 C   0  0  0  0  0  0  0  0  0  0  0  0
   16.5881   -3.2683  -19.2721 C   0  0  0  0  0  0  0  0  0  0  0  0
   16.4638   -2.1589  -20.3413 C   0  0  0  0  0  0  0  0  0  0  0  0
   15.0757   -1.9201  -20.5941 N   0  0  0  0  0  0  0  0  0  0  0  0
   20.7724   -4.0240  -17.1318 C   0  0  0  0  0  0  0  0  0  0  0  0
   21.7776   -3.1965  -17.5798 O   0  0  0  0  0  0  0  0  0  0  0  0
   20.6191   -3.9859  -15.8473 O   0  0  0  0  0  0  0  0  0  0  0  0
  2  1  1  1
  2  3  1  0
  4  3  1  0
  4  5  2  0
  6  5  1  0
  7  8  2  0
  7  6  1  0
  8  4  1  0
  9  2  1  0
 10  9  2  0
 11  9  1  0
 12 11  1  0
 13 14  1  0
 12 13  1  1
 14 15  2  0
 16 12  1  0
 16 19  1  0
 17 16  2  0
 18 14  1  0
 20 19  1  0
 20 21  1  1
 21 22  1  0
 23 22  1  0
 24 25  1  0
 24 23  1  0
 26 20  1  0
 26 27  1  0
 28 26  2  0
M  END
$$$$
