HDK.pdb
     RDKit          3D

 28 28  0  0  1  0  0  0  0  0999 V2000
   18.8036  -11.4265  -17.3837 N   0  0  0  0  0  0  0  0  0  0  0  0
   18.6267  -11.1264  -15.9756 C   0  0  1  0  0  0  0  0  0  0  0  0
   19.2323  -12.2874  -15.2026 C   0  0  0  0  0  0  0  0  0  0  0  0
   18.3477  -13.4697  -15.3789 C   0  0  0  0  0  0  0  0  0  0  0  0
   18.3113  -14.2867  -16.4969 C   0  0  0  0  0  0  0  0  0  0  0  0
   17.4056  -15.2467  -16.3151 N   0  0  0  0  0  0  0  0  0  0  0  0
   16.8791  -15.0377  -15.1008 C   0  0  0  0  0  0  0  0  0  0  0  0
   17.4360  -13.9688  -14.5205 N   0  0  0  0  0  0  0  0  0  0  0  0
   19.3436   -9.8643  -15.6119 C   0  0  0  0  0  0  0  0  0  0  0  0
   19.3294   -9.4110  -14.4432 O   0  0  0  0  0  0  0  0  0  0  0  0
   20.0603   -9.1543  -16.6041 N   0  0  0  0  0  0  0  0  0  0  0  0
   20.6945   -7.8708  -16.3970 C   0  0  1  0  0  0  0  0  0  0  0  0
   22.0810   -7.8486  -16.9824 C   0  0  0  0  0  0  0  0  0  0  0  0
   23.0301   -8.6823  -16.2457 C   0  0  0  0  0  0  0  0  0  0  0  0
   22.7467   -9.2021  -15.1510 O   0  0  0  0  0  0  0  0  0  0  0  0
   19.9430   -6.7631  -16.9967 C   0  0  0  0  0  0  0  0  0  0  0  0
   19.5651   -6.8179  -18.1790 O   0  0  0  0  0  0  0  0  0  0  0  0
   24.2893   -8.9028  -16.7826 O   0  0  0  0  0  0  0  0  0  0  0  0
   19.6556   -5.6350  -16.2118 N   0  0  0  0  0  0  0  0  0  0  0  0
   18.9053   -4.4519  -16.8056 C   0  0  1  0  0  0  0  0  0  0  0  0
   17.5669   -4.6267  -16.2114 C   0  0  0  0  0  0  0  0  0  0  0  0
   16.4449   -3.7339  -16.4342 C   0  0  0  0  0  0  0  0  0  0  0  0
   15.1450   -3.9428  -15.7606 C   0  0  0  0  0  0  0  0  0  0  0  0
   14.1836   -2.8623  -16.3061 C   0  0  0  0  0  0  0  0  0  0  0  0
   12.8729   -3.1126  -15.7892 N   0  0  0  0  0  0  0  0  0  0  0  0
   19.7231   -3.3064  -16.3776 C   0  0  0  0  0  0  0  0  0  0  0  0
   19.8282   -2.1057  -17.0432 O   0  0  0  0  0  0  0  0  0  0  0  0
   20.4376   -3.3528  -15.2996 O   0  0  0  0  0  0  0  0  0  0  0  0
  2  1  1  6
  2  3  1  0
  4  3  1  0
  4  5  2  0
  6  5  1  0
  7  8  2  0
  7  6  1  0
  8  4  1  0
  9  2  1  0
 10  9  2  0
 11  9  1  0
 12 11  1  0
 13 14  1  0
 12 13  1  6
 14 15  2  0
 16 12  1  0
 16 19  1  0
 17 16  2  0
 18 14  1  0
 20 19  1  0
 20 21  1  1
 21 22  1  0
 23 22  1  0
 24 25  1  0
 24 23  1  0
 26 20  1  0
 26 27  1  0
 28 26  2  0
M  END
$$$$
