HDK.pdb
     RDKit          3D

 28 28  0  0  1  0  0  0  0  0999 V2000
   23.6564   -7.3990  -17.6388 N   0  0  0  0  0  0  0  0  0  0  0  0
   22.8863   -8.4655  -17.0274 C   0  0  1  0  0  0  0  0  0  0  0  0
   23.3050   -8.5238  -15.5668 C   0  0  0  0  0  0  0  0  0  0  0  0
   24.5822   -9.2809  -15.4834 C   0  0  0  0  0  0  0  0  0  0  0  0
   25.2704   -9.8169  -16.5594 C   0  0  0  0  0  0  0  0  0  0  0  0
   26.3708  -10.4275  -16.1220 N   0  0  0  0  0  0  0  0  0  0  0  0
   26.3760  -10.2784  -14.7904 C   0  0  0  0  0  0  0  0  0  0  0  0
   25.3034   -9.5885  -14.3868 N   0  0  0  0  0  0  0  0  0  0  0  0
   21.4215   -8.1710  -17.1091 C   0  0  0  0  0  0  0  0  0  0  0  0
   20.9838   -6.9962  -17.1092 O   0  0  0  0  0  0  0  0  0  0  0  0
   20.4953   -9.2378  -17.1888 N   0  0  0  0  0  0  0  0  0  0  0  0
   19.0761   -9.0763  -17.4176 C   0  0  1  0  0  0  0  0  0  0  0  0
   18.4698  -10.3333  -17.9816 C   0  0  0  0  0  0  0  0  0  0  0  0
   19.0078  -10.6936  -19.2928 C   0  0  0  0  0  0  0  0  0  0  0  0
   18.7765  -10.0197  -20.3134 O   0  0  0  0  0  0  0  0  0  0  0  0
   18.3389   -8.7390  -16.1954 C   0  0  0  0  0  0  0  0  0  0  0  0
   18.7765   -9.0643  -15.0789 O   0  0  0  0  0  0  0  0  0  0  0  0
   19.8029  -11.8238  -19.4062 O   0  0  0  0  0  0  0  0  0  0  0  0
   17.1262   -8.0402  -16.3057 N   0  0  0  0  0  0  0  0  0  0  0  0
   16.4044   -7.5448  -15.0612 C   0  0  1  0  0  0  0  0  0  0  0  0
   15.5887   -6.4475  -15.6139 C   0  0  0  0  0  0  0  0  0  0  0  0
   14.8269   -5.5057  -14.8149 C   0  0  0  0  0  0  0  0  0  0  0  0
   14.1446   -4.3458  -15.4284 C   0  0  0  0  0  0  0  0  0  0  0  0
   13.3764   -3.6312  -14.2932 C   0  0  0  0  0  0  0  0  0  0  0  0
   12.8678   -2.3912  -14.7946 N   0  0  0  0  0  0  0  0  0  0  0  0
   15.7236   -8.7575  -14.5816 C   0  0  0  0  0  0  0  0  0  0  0  0
   15.2047   -8.9369  -13.3189 O   0  0  0  0  0  0  0  0  0  0  0  0
   15.5635   -9.7888  -15.3467 O   0  0  0  0  0  0  0  0  0  0  0  0
  2  1  1  6
  2  3  1  0
  4  3  1  0
  4  5  2  0
  6  5  1  0
  7  8  2  0
  7  6  1  0
  8  4  1  0
  9  2  1  0
 10  9  2  0
 11  9  1  0
 12 11  1  0
 13 14  1  0
 12 13  1  1
 14 15  2  0
 16 12  1  0
 16 19  1  0
 17 16  2  0
 18 14  1  0
 20 19  1  0
 20 21  1  6
 21 22  1  0
 23 22  1  0
 24 25  1  0
 24 23  1  0
 26 20  1  0
 26 27  1  0
 28 26  2  0
M  END
$$$$
