HDK.pdb
     RDKit          3D

 28 28  0  0  1  0  0  0  0  0999 V2000
   22.8423  -11.8336  -18.0934 N   0  0  0  0  0  0  0  0  0  0  0  0
   22.3293  -10.9970  -19.1617 C   0  0  1  0  0  0  0  0  0  0  0  0
   22.2877  -11.8620  -20.4115 C   0  0  0  0  0  0  0  0  0  0  0  0
   23.6874  -12.1917  -20.7905 C   0  0  0  0  0  0  0  0  0  0  0  0
   24.3869  -13.3155  -20.3828 C   0  0  0  0  0  0  0  0  0  0  0  0
   25.6107  -13.2910  -20.9089 N   0  0  0  0  0  0  0  0  0  0  0  0
   25.6813  -12.1685  -21.6372 C   0  0  0  0  0  0  0  0  0  0  0  0
   24.5289  -11.4918  -21.5775 N   0  0  0  0  0  0  0  0  0  0  0  0
   20.9457  -10.5247  -18.8426 C   0  0  0  0  0  0  0  0  0  0  0  0
   20.2641   -9.8733  -19.6689 O   0  0  0  0  0  0  0  0  0  0  0  0
   20.3802  -10.8143  -17.5783 N   0  0  0  0  0  0  0  0  0  0  0  0
   19.0782  -10.3620  -17.1393 C   0  0  1  0  0  0  0  0  0  0  0  0
   18.3066  -11.4776  -16.4868 C   0  0  0  0  0  0  0  0  0  0  0  0
   16.9341  -11.1054  -16.1459 C   0  0  0  0  0  0  0  0  0  0  0  0
   16.2572  -10.3410  -16.8577 O   0  0  0  0  0  0  0  0  0  0  0  0
   19.1555   -9.2564  -16.1787 C   0  0  0  0  0  0  0  0  0  0  0  0
   19.9730   -9.2830  -15.2433 O   0  0  0  0  0  0  0  0  0  0  0  0
   16.3647  -11.6200  -14.9912 O   0  0  0  0  0  0  0  0  0  0  0  0
   18.2886   -8.1627  -16.3319 N   0  0  0  0  0  0  0  0  0  0  0  0
   18.4608   -6.9152  -15.4780 C   0  0  1  0  0  0  0  0  0  0  0  0
   18.2495   -5.8480  -16.4737 C   0  0  0  0  0  0  0  0  0  0  0  0
   18.3802   -4.4291  -16.1993 C   0  0  0  0  0  0  0  0  0  0  0  0
   18.1580   -3.4144  -17.2519 C   0  0  0  0  0  0  0  0  0  0  0  0
   18.3806   -2.0343  -16.5922 C   0  0  0  0  0  0  0  0  0  0  0  0
   18.1740   -1.0172  -17.5774 N   0  0  0  0  0  0  0  0  0  0  0  0
   17.4524   -7.1065  -14.4242 C   0  0  0  0  0  0  0  0  0  0  0  0
   17.3847   -6.4001  -13.2443 O   0  0  0  0  0  0  0  0  0  0  0  0
   16.5202   -7.9972  -14.5361 O   0  0  0  0  0  0  0  0  0  0  0  0
  2  1  1  1
  2  3  1  0
  4  3  1  0
  4  5  2  0
  6  5  1  0
  7  8  2  0
  7  6  1  0
  8  4  1  0
  9  2  1  0
 10  9  2  0
 11  9  1  0
 12 11  1  0
 13 14  1  0
 12 13  1  1
 14 15  2  0
 16 12  1  0
 16 19  1  0
 17 16  2  0
 18 14  1  0
 20 19  1  0
 20 21  1  6
 21 22  1  0
 23 22  1  0
 24 25  1  0
 24 23  1  0
 26 20  1  0
 26 27  1  0
 28 26  2  0
M  END
$$$$
