HDK.pdb
     RDKit          3D

 28 28  0  0  1  0  0  0  0  0999 V2000
   15.6102  -11.9577  -13.5283 N   0  0  0  0  0  0  0  0  0  0  0  0
   16.6933  -10.9928  -13.5164 C   0  0  1  0  0  0  0  0  0  0  0  0
   17.1972  -10.8849  -14.9471 C   0  0  0  0  0  0  0  0  0  0  0  0
   17.8712  -12.1638  -15.2959 C   0  0  0  0  0  0  0  0  0  0  0  0
   19.2378  -12.3874  -15.2613 C   0  0  0  0  0  0  0  0  0  0  0  0
   19.4913  -13.6411  -15.6344 N   0  0  0  0  0  0  0  0  0  0  0  0
   18.3024  -14.1990  -15.9001 C   0  0  0  0  0  0  0  0  0  0  0  0
   17.3124  -13.3216  -15.7012 N   0  0  0  0  0  0  0  0  0  0  0  0
   16.2012   -9.6539  -13.0647 C   0  0  0  0  0  0  0  0  0  0  0  0
   15.2154   -9.0974  -13.6033 O   0  0  0  0  0  0  0  0  0  0  0  0
   16.8570   -8.9877  -12.0024 N   0  0  0  0  0  0  0  0  0  0  0  0
   16.5057   -7.6702  -11.5194 C   0  0  1  0  0  0  0  0  0  0  0  0
   16.8717   -7.5076  -10.0685 C   0  0  0  0  0  0  0  0  0  0  0  0
   16.4575   -6.2205   -9.5112 C   0  0  0  0  0  0  0  0  0  0  0  0
   15.6544   -5.4712  -10.0966 O   0  0  0  0  0  0  0  0  0  0  0  0
   17.1689   -6.5963  -12.2664 C   0  0  0  0  0  0  0  0  0  0  0  0
   18.4081   -6.5472  -12.3435 O   0  0  0  0  0  0  0  0  0  0  0  0
   16.9752   -5.8187   -8.2895 O   0  0  0  0  0  0  0  0  0  0  0  0
   16.3799   -5.6203  -12.8957 N   0  0  0  0  0  0  0  0  0  0  0  0
   17.0255   -4.5341  -13.7434 C   0  0  1  0  0  0  0  0  0  0  0  0
   16.2215   -4.6099  -14.9774 C   0  0  0  0  0  0  0  0  0  0  0  0
   16.3945   -3.7410  -16.1266 C   0  0  0  0  0  0  0  0  0  0  0  0
   15.4956   -3.8206  -17.2983 C   0  0  0  0  0  0  0  0  0  0  0  0
   15.9577   -2.7265  -18.2875 C   0  0  0  0  0  0  0  0  0  0  0  0
   15.1533   -2.8074  -19.4683 N   0  0  0  0  0  0  0  0  0  0  0  0
   16.8972   -3.3429  -12.8898 C   0  0  0  0  0  0  0  0  0  0  0  0
   15.9846   -3.1835  -11.8712 O   0  0  0  0  0  0  0  0  0  0  0  0
   17.6645   -2.3130  -13.0489 O   0  0  0  0  0  0  0  0  0  0  0  0
  2  1  1  6
  2  3  1  0
  4  3  1  0
  4  5  2  0
  6  5  1  0
  7  8  2  0
  7  6  1  0
  8  4  1  0
  9  2  1  0
 10  9  2  0
 11  9  1  0
 12 11  1  0
 13 14  1  0
 12 13  1  1
 14 15  2  0
 16 12  1  0
 16 19  1  0
 17 16  2  0
 18 14  1  0
 20 19  1  0
 20 21  1  6
 21 22  1  0
 23 22  1  0
 24 25  1  0
 24 23  1  0
 26 20  1  0
 26 27  1  0
 28 26  2  0
M  END
$$$$
