NFM.pdb
     RDKit          3D

 28 28  0  0  1  0  0  0  0  0999 V2000
   11.4936  -17.8826   17.5613 N   0  0  0  0  0  0  0  0  0  0  0  0
   12.1309  -17.7400   18.8175 C   0  0  0  0  0  0  0  0  0  0  0  0
   13.1286  -18.4622   19.0565 O   0  0  0  0  0  0  0  0  0  0  0  0
   11.5804  -16.7479   19.7707 C   0  0  0  0  0  0  0  0  0  0  0  0
   11.0026  -17.4169   21.0013 C   0  0  2  0  0  0  0  0  0  0  0  0
    9.8431  -18.2196   20.6870 N   0  0  0  0  0  0  0  0  0  0  0  0
   10.6610  -16.3935   22.0336 C   0  0  0  0  0  0  0  0  0  0  0  0
   11.5223  -15.5616   22.4493 O   0  0  0  0  0  0  0  0  0  0  0  0
    9.3704  -16.3024   22.5945 N   0  0  0  0  0  0  0  0  0  0  0  0
    8.9868  -15.3439   23.6104 C   0  0  1  0  0  0  0  0  0  0  0  0
    7.6491  -14.7293   23.2603 C   0  0  0  0  0  0  0  0  0  0  0  0
    7.1880  -13.7781   24.3043 C   0  0  0  0  0  0  0  0  0  0  0  0
    7.5398  -12.4368   24.2714 C   0  0  0  0  0  0  0  0  0  0  0  0
    7.1104  -11.5497   25.2421 C   0  0  0  0  0  0  0  0  0  0  0  0
    6.3095  -11.9648   26.2898 C   0  0  0  0  0  0  0  0  0  0  0  0
    5.9560  -13.2960   26.3292 C   0  0  0  0  0  0  0  0  0  0  0  0
    6.3906  -14.1753   25.3535 C   0  0  0  0  0  0  0  0  0  0  0  0
    9.0489  -15.9761   24.9237 C   0  0  0  0  0  0  0  0  0  0  0  0
    8.2154  -15.6233   25.8162 O   0  0  0  0  0  0  0  0  0  0  0  0
    9.4488  -13.8665   29.2018 C   0  0  0  0  0  0  0  0  0  0  0  0
   11.0294  -14.7511   29.3101 S   0  0  0  0  0  0  0  0  0  0  0  0
   10.6468  -16.5163   28.9673 C   0  0  0  0  0  0  0  0  0  0  0  0
    9.9562  -16.5541   27.6469 C   0  0  0  0  0  0  0  0  0  0  0  0
   10.8617  -16.8501   26.4684 C   0  0  2  0  0  0  0  0  0  0  0  0
    9.9633  -16.9683   25.3171 N   0  0  0  0  0  0  0  0  0  0  0  0
   11.7113  -18.0202   26.6323 C   0  0  0  0  0  0  0  0  0  0  0  0
   12.5881  -18.0944   27.5341 O   0  0  0  0  0  0  0  0  0  0  0  0
   11.5995  -19.1207   25.8018 O   0  0  0  0  0  0  0  0  0  0  0  0
  1  2  1  0
  2  3  2  0
  4  5  1  0
  4  2  1  0
  5  6  1  6
  7  5  1  0
  7  8  2  0
  9  7  1  0
 10  9  1  0
 10 11  1  6
 11 12  1  0
 12 17  2  0
 13 12  1  0
 13 14  2  0
 14 15  1  0
 15 16  2  0
 17 16  1  0
 18 10  1  0
 19 18  2  0
 21 20  1  0
 22 21  1  0
 24 23  1  1
 23 22  1  0
 24 25  1  0
 25 18  1  0
 26 24  1  0
 27 26  2  0
 28 26  1  0
M  END
$$$$
