NFM.pdb
     RDKit          3D

 28 28  0  0  1  0  0  0  0  0999 V2000
   10.5780  -19.3998   17.9619 N   0  0  0  0  0  0  0  0  0  0  0  0
   11.1044  -19.7931   19.2159 C   0  0  0  0  0  0  0  0  0  0  0  0
   11.4672  -20.9862   19.3538 O   0  0  0  0  0  0  0  0  0  0  0  0
   11.1941  -18.7721   20.2863 C   0  0  0  0  0  0  0  0  0  0  0  0
   10.5817  -17.4552   19.8544 C   0  0  2  0  0  0  0  0  0  0  0  0
   11.3929  -16.7785   18.8687 N   0  0  0  0  0  0  0  0  0  0  0  0
   10.3623  -16.5739   21.0397 C   0  0  0  0  0  0  0  0  0  0  0  0
   11.3134  -15.9164   21.5590 O   0  0  0  0  0  0  0  0  0  0  0  0
    9.0930  -16.4303   21.6370 N   0  0  0  0  0  0  0  0  0  0  0  0
    8.8143  -15.5668   22.7661 C   0  0  1  0  0  0  0  0  0  0  0  0
    7.3705  -15.1155   22.7257 C   0  0  0  0  0  0  0  0  0  0  0  0
    7.0202  -14.2787   23.9024 C   0  0  0  0  0  0  0  0  0  0  0  0
    6.3095  -14.7955   24.9756 C   0  0  0  0  0  0  0  0  0  0  0  0
    5.9833  -14.0180   26.0721 C   0  0  0  0  0  0  0  0  0  0  0  0
    6.3537  -12.6879   26.1445 C   0  0  0  0  0  0  0  0  0  0  0  0
    7.0598  -12.1675   25.0819 C   0  0  0  0  0  0  0  0  0  0  0  0
    7.3811  -12.9534   23.9896 C   0  0  0  0  0  0  0  0  0  0  0  0
    9.2165  -16.2338   23.9995 C   0  0  0  0  0  0  0  0  0  0  0  0
    9.1129  -17.4984   24.0770 O   0  0  0  0  0  0  0  0  0  0  0  0
    9.9565  -13.0854   29.5331 C   0  0  0  0  0  0  0  0  0  0  0  0
   11.3662  -14.2187   29.6770 S   0  0  0  0  0  0  0  0  0  0  0  0
   10.9230  -15.7066   28.6923 C   0  0  0  0  0  0  0  0  0  0  0  0
   10.5548  -15.2229   27.3313 C   0  0  0  0  0  0  0  0  0  0  0  0
   10.1008  -16.3084   26.3762 C   0  0  2  0  0  0  0  0  0  0  0  0
    9.7248  -15.6033   25.1481 N   0  0  0  0  0  0  0  0  0  0  0  0
    9.0297  -17.1544   26.8811 C   0  0  0  0  0  0  0  0  0  0  0  0
    7.8133  -16.8790   26.7020 O   0  0  0  0  0  0  0  0  0  0  0  0
    9.2923  -18.3138   27.5882 O   0  0  0  0  0  0  0  0  0  0  0  0
  1  2  1  0
  2  3  2  0
  4  5  1  0
  4  2  1  0
  5  6  1  6
  7  5  1  0
  7  8  2  0
  9  7  1  0
 10  9  1  0
 10 11  1  1
 11 12  1  0
 12 17  2  0
 13 12  1  0
 13 14  2  0
 14 15  1  0
 15 16  2  0
 17 16  1  0
 18 10  1  0
 19 18  2  0
 21 20  1  0
 22 21  1  0
 24 23  1  1
 23 22  1  0
 24 25  1  0
 25 18  1  0
 26 24  1  0
 27 26  2  0
 28 26  1  0
M  END
$$$$
