NFM.pdb
     RDKit          3D

 28 28  0  0  1  0  0  0  0  0999 V2000
   13.3684  -19.9775   19.2835 N   0  0  0  0  0  0  0  0  0  0  0  0
   12.8070  -18.7188   18.9597 C   0  0  0  0  0  0  0  0  0  0  0  0
   12.5604  -18.4772   17.7535 O   0  0  0  0  0  0  0  0  0  0  0  0
   12.5459  -17.7661   20.0644 C   0  0  0  0  0  0  0  0  0  0  0  0
   11.0638  -17.6376   20.3522 C   0  0  2  0  0  0  0  0  0  0  0  0
   10.3258  -17.1809   19.1971 N   0  0  0  0  0  0  0  0  0  0  0  0
   10.8395  -16.7191   21.5079 C   0  0  0  0  0  0  0  0  0  0  0  0
   11.5664  -15.6968   21.6898 O   0  0  0  0  0  0  0  0  0  0  0  0
    9.8137  -16.9425   22.4493 N   0  0  0  0  0  0  0  0  0  0  0  0
    9.4501  -16.0116   23.4979 C   0  0  1  0  0  0  0  0  0  0  0  0
    8.0036  -15.5966   23.3399 C   0  0  0  0  0  0  0  0  0  0  0  0
    7.8311  -14.5967   22.2546 C   0  0  0  0  0  0  0  0  0  0  0  0
    8.1876  -13.2676   22.4280 C   0  0  0  0  0  0  0  0  0  0  0  0
    8.0284  -12.3357   21.4182 C   0  0  0  0  0  0  0  0  0  0  0  0
    7.5053  -12.6918   20.1889 C   0  0  0  0  0  0  0  0  0  0  0  0
    7.1488  -14.0105   20.0094 C   0  0  0  0  0  0  0  0  0  0  0  0
    7.3118  -14.9350   21.0256 C   0  0  0  0  0  0  0  0  0  0  0  0
    9.7877  -16.5853   24.7960 C   0  0  0  0  0  0  0  0  0  0  0  0
    9.2213  -17.6643   25.1577 O   0  0  0  0  0  0  0  0  0  0  0  0
    7.4107  -12.5445   27.5190 C   0  0  0  0  0  0  0  0  0  0  0  0
    9.1062  -11.9933   27.8568 S   0  0  0  0  0  0  0  0  0  0  0  0
   10.0873  -13.5207   28.1471 C   0  0  0  0  0  0  0  0  0  0  0  0
    9.6092  -14.5288   27.1587 C   0  0  0  0  0  0  0  0  0  0  0  0
   10.4078  -15.8165   27.1329 C   0  0  2  0  0  0  0  0  0  0  0  0
   10.7052  -16.0527   25.7177 N   0  0  0  0  0  0  0  0  0  0  0  0
    9.7499  -16.9534   27.7593 C   0  0  0  0  0  0  0  0  0  0  0  0
    8.6686  -17.4300   27.3223 O   0  0  0  0  0  0  0  0  0  0  0  0
   10.2811  -17.5756   28.8746 O   0  0  0  0  0  0  0  0  0  0  0  0
  1  2  1  0
  2  3  2  0
  4  5  1  0
  4  2  1  0
  5  6  1  6
  7  5  1  0
  7  8  2  0
  9  7  1  0
 10  9  1  0
 10 11  1  1
 11 12  1  0
 12 17  2  0
 13 12  1  0
 13 14  2  0
 14 15  1  0
 15 16  2  0
 17 16  1  0
 18 10  1  0
 19 18  2  0
 21 20  1  0
 22 21  1  0
 24 23  1  6
 23 22  1  0
 24 25  1  0
 25 18  1  0
 26 24  1  0
 27 26  2  0
 28 26  1  0
M  END
$$$$
