NFM.pdb
     RDKit          3D

 28 28  0  0  1  0  0  0  0  0999 V2000
   12.7870  -18.7937   17.7213 N   0  0  0  0  0  0  0  0  0  0  0  0
   11.5108  -18.1986   17.8675 C   0  0  0  0  0  0  0  0  0  0  0  0
   10.5930  -18.5786   17.1011 O   0  0  0  0  0  0  0  0  0  0  0  0
   11.3386  -17.1652   18.9156 C   0  0  0  0  0  0  0  0  0  0  0  0
   10.8010  -17.7586   20.2019 C   0  0  2  0  0  0  0  0  0  0  0  0
    9.5653  -18.4773   19.9914 N   0  0  0  0  0  0  0  0  0  0  0  0
   10.6109  -16.6880   21.2252 C   0  0  0  0  0  0  0  0  0  0  0  0
   11.5831  -15.9848   21.6338 O   0  0  0  0  0  0  0  0  0  0  0  0
    9.3474  -16.4079   21.7851 N   0  0  0  0  0  0  0  0  0  0  0  0
    9.1120  -15.4191   22.8171 C   0  0  1  0  0  0  0  0  0  0  0  0
    7.6293  -15.3115   23.0992 C   0  0  0  0  0  0  0  0  0  0  0  0
    7.3314  -14.2454   24.0902 C   0  0  0  0  0  0  0  0  0  0  0  0
    6.6094  -14.5083   25.2450 C   0  0  0  0  0  0  0  0  0  0  0  0
    6.3320  -13.5170   26.1691 C   0  0  0  0  0  0  0  0  0  0  0  0
    6.7647  -12.2176   25.9794 C   0  0  0  0  0  0  0  0  0  0  0  0
    7.4825  -11.9490   24.8344 C   0  0  0  0  0  0  0  0  0  0  0  0
    7.7546  -12.9473   23.9161 C   0  0  0  0  0  0  0  0  0  0  0  0
    9.9392  -15.7232   23.9797 C   0  0  0  0  0  0  0  0  0  0  0  0
   10.9467  -14.9885   24.2268 O   0  0  0  0  0  0  0  0  0  0  0  0
   10.7596  -13.3403   30.2399 C   0  0  0  0  0  0  0  0  0  0  0  0
    9.5626  -13.9344   29.0125 S   0  0  0  0  0  0  0  0  0  0  0  0
   10.2364  -15.5212   28.3740 C   0  0  0  0  0  0  0  0  0  0  0  0
    9.8213  -15.6167   26.9456 C   0  0  0  0  0  0  0  0  0  0  0  0
   10.3296  -16.8466   26.2206 C   0  0  2  0  0  0  0  0  0  0  0  0
    9.7303  -16.7773   24.8854 N   0  0  0  0  0  0  0  0  0  0  0  0
   10.0489  -18.1075   26.8907 C   0  0  0  0  0  0  0  0  0  0  0  0
    9.0337  -18.8026   26.6193 O   0  0  0  0  0  0  0  0  0  0  0  0
   10.8882  -18.6136   27.8669 O   0  0  0  0  0  0  0  0  0  0  0  0
  1  2  1  0
  2  3  2  0
  4  5  1  0
  4  2  1  0
  5  6  1  6
  7  5  1  0
  7  8  2  0
  9  7  1  0
 10  9  1  0
 10 11  1  1
 11 12  1  0
 12 17  2  0
 13 12  1  0
 13 14  2  0
 14 15  1  0
 15 16  2  0
 17 16  1  0
 18 10  1  0
 19 18  2  0
 21 20  1  0
 22 21  1  0
 24 23  1  1
 23 22  1  0
 24 25  1  0
 25 18  1  0
 26 24  1  0
 27 26  2  0
 28 26  1  0
M  END
$$$$
