NFM.pdb
     RDKit          3D

 28 28  0  0  1  0  0  0  0  0999 V2000
   12.6415  -18.4773   17.5448 N   0  0  0  0  0  0  0  0  0  0  0  0
   11.3161  -18.2071   17.9626 C   0  0  0  0  0  0  0  0  0  0  0  0
   10.3969  -18.9300   17.5081 O   0  0  0  0  0  0  0  0  0  0  0  0
   11.0972  -17.0885   18.9098 C   0  0  0  0  0  0  0  0  0  0  0  0
   10.6206  -17.5851   20.2596 C   0  0  2  0  0  0  0  0  0  0  0  0
    9.4211  -18.3832   20.1501 N   0  0  0  0  0  0  0  0  0  0  0  0
   10.3956  -16.4341   21.1837 C   0  0  0  0  0  0  0  0  0  0  0  0
   11.2941  -15.5629   21.3847 O   0  0  0  0  0  0  0  0  0  0  0  0
    9.1790  -16.2602   21.8753 N   0  0  0  0  0  0  0  0  0  0  0  0
    8.9498  -15.2452   22.8830 C   0  0  1  0  0  0  0  0  0  0  0  0
    7.4813  -15.2012   23.2454 C   0  0  0  0  0  0  0  0  0  0  0  0
    7.1938  -14.1544   24.2598 C   0  0  0  0  0  0  0  0  0  0  0  0
    6.5088  -14.4456   25.4302 C   0  0  0  0  0  0  0  0  0  0  0  0
    6.2412  -13.4722   26.3759 C   0  0  0  0  0  0  0  0  0  0  0  0
    6.6470  -12.1633   26.1933 C   0  0  0  0  0  0  0  0  0  0  0  0
    7.3279  -11.8664   25.0328 C   0  0  0  0  0  0  0  0  0  0  0  0
    7.5906  -12.8470   24.0929 C   0  0  0  0  0  0  0  0  0  0  0  0
    9.8549  -15.4621   24.0064 C   0  0  0  0  0  0  0  0  0  0  0  0
   10.7007  -14.5591   24.2980 O   0  0  0  0  0  0  0  0  0  0  0  0
    8.9931  -14.6180   31.0199 C   0  0  0  0  0  0  0  0  0  0  0  0
    8.5759  -14.6709   29.2548 S   0  0  0  0  0  0  0  0  0  0  0  0
    9.8623  -15.7173   28.4610 C   0  0  0  0  0  0  0  0  0  0  0  0
    9.5683  -15.7192   26.9998 C   0  0  0  0  0  0  0  0  0  0  0  0
   10.4594  -16.6279   26.1770 C   0  0  2  0  0  0  0  0  0  0  0  0
    9.8889  -16.6020   24.8277 N   0  0  0  0  0  0  0  0  0  0  0  0
   10.5951  -17.9804   26.6968 C   0  0  0  0  0  0  0  0  0  0  0  0
    9.7708  -18.8928   26.4223 O   0  0  0  0  0  0  0  0  0  0  0  0
   11.6441  -18.3383   27.5243 O   0  0  0  0  0  0  0  0  0  0  0  0
  1  2  1  0
  2  3  2  0
  4  5  1  0
  4  2  1  0
  5  6  1  6
  7  5  1  0
  7  8  2  0
  9  7  1  0
 10  9  1  0
 10 11  1  1
 11 12  1  0
 12 17  2  0
 13 12  1  0
 13 14  2  0
 14 15  1  0
 15 16  2  0
 17 16  1  0
 18 10  1  0
 19 18  2  0
 21 20  1  0
 22 21  1  0
 24 23  1  1
 23 22  1  0
 24 25  1  0
 25 18  1  0
 26 24  1  0
 27 26  2  0
 28 26  1  0
M  END
$$$$
