NFM.pdb
     RDKit          3D

 28 28  0  0  1  0  0  0  0  0999 V2000
   11.2329  -17.0834   16.4050 N   0  0  0  0  0  0  0  0  0  0  0  0
   11.7844  -17.2943   17.6917 C   0  0  0  0  0  0  0  0  0  0  0  0
   12.6691  -18.1752   17.8156 O   0  0  0  0  0  0  0  0  0  0  0  0
   11.2831  -16.4621   18.8108 C   0  0  0  0  0  0  0  0  0  0  0  0
   10.7530  -17.3141   19.9462 C   0  0  2  0  0  0  0  0  0  0  0  0
    9.5844  -18.0691   19.5563 N   0  0  0  0  0  0  0  0  0  0  0  0
   10.4477  -16.4614   21.1333 C   0  0  0  0  0  0  0  0  0  0  0  0
   11.3194  -15.6889   21.6333 O   0  0  0  0  0  0  0  0  0  0  0  0
    9.1815  -16.4733   21.7538 N   0  0  0  0  0  0  0  0  0  0  0  0
    8.8558  -15.7405   22.9600 C   0  0  1  0  0  0  0  0  0  0  0  0
    7.3833  -15.3921   22.9697 C   0  0  0  0  0  0  0  0  0  0  0  0
    7.0110  -14.5991   24.1697 C   0  0  0  0  0  0  0  0  0  0  0  0
    6.2984  -15.1605   25.2190 C   0  0  0  0  0  0  0  0  0  0  0  0
    5.9519  -14.4238   26.3373 C   0  0  0  0  0  0  0  0  0  0  0  0
    6.3029  -13.0918   26.4563 C   0  0  0  0  0  0  0  0  0  0  0  0
    7.0109  -12.5273   25.4177 C   0  0  0  0  0  0  0  0  0  0  0  0
    7.3526  -13.2725   24.3033 C   0  0  0  0  0  0  0  0  0  0  0  0
    9.3188  -16.4887   24.1236 C   0  0  0  0  0  0  0  0  0  0  0  0
    9.2268  -17.7565   24.1163 O   0  0  0  0  0  0  0  0  0  0  0  0
   11.0228  -12.5459   28.1040 C   0  0  0  0  0  0  0  0  0  0  0  0
   11.2212  -13.9235   29.2681 S   0  0  0  0  0  0  0  0  0  0  0  0
   10.3707  -15.3616   28.5012 C   0  0  0  0  0  0  0  0  0  0  0  0
   11.1433  -15.7096   27.2750 C   0  0  0  0  0  0  0  0  0  0  0  0
   10.4716  -16.7239   26.3714 C   0  0  2  0  0  0  0  0  0  0  0  0
    9.8760  -15.9357   25.2894 N   0  0  0  0  0  0  0  0  0  0  0  0
    9.4997  -17.5804   27.0345 C   0  0  0  0  0  0  0  0  0  0  0  0
    8.2726  -17.2980   27.0778 O   0  0  0  0  0  0  0  0  0  0  0  0
    9.8742  -18.7582   27.6556 O   0  0  0  0  0  0  0  0  0  0  0  0
  1  2  1  0
  2  3  2  0
  4  5  1  0
  4  2  1  0
  5  6  1  6
  7  5  1  0
  7  8  2  0
  9  7  1  0
 10  9  1  0
 10 11  1  1
 11 12  1  0
 12 17  2  0
 13 12  1  0
 13 14  2  0
 14 15  1  0
 15 16  2  0
 17 16  1  0
 18 10  1  0
 19 18  2  0
 21 20  1  0
 22 21  1  0
 24 23  1  1
 23 22  1  0
 24 25  1  0
 25 18  1  0
 26 24  1  0
 27 26  2  0
 28 26  1  0
M  END
$$$$
