NFM.pdb
     RDKit          3D

 28 28  0  0  1  0  0  0  0  0999 V2000
   10.4418  -17.8871   16.7951 N   0  0  0  0  0  0  0  0  0  0  0  0
   11.2775  -18.0308   17.9288 C   0  0  0  0  0  0  0  0  0  0  0  0
   12.1078  -18.9714   17.9324 O   0  0  0  0  0  0  0  0  0  0  0  0
   11.1197  -17.0623   19.0394 C   0  0  0  0  0  0  0  0  0  0  0  0
   10.5627  -17.7249   20.2830 C   0  0  2  0  0  0  0  0  0  0  0  0
    9.3252  -18.4216   20.0169 N   0  0  0  0  0  0  0  0  0  0  0  0
   10.3668  -16.7134   21.3638 C   0  0  0  0  0  0  0  0  0  0  0  0
   11.3115  -15.9562   21.7388 O   0  0  0  0  0  0  0  0  0  0  0  0
    9.1279  -16.5516   22.0177 N   0  0  0  0  0  0  0  0  0  0  0  0
    8.8734  -15.5738   23.0556 C   0  0  1  0  0  0  0  0  0  0  0  0
    7.3980  -15.5499   23.3904 C   0  0  0  0  0  0  0  0  0  0  0  0
    7.0708  -14.4807   24.3688 C   0  0  0  0  0  0  0  0  0  0  0  0
    6.4552  -14.7665   25.5785 C   0  0  0  0  0  0  0  0  0  0  0  0
    6.1508  -13.7723   26.4908 C   0  0  0  0  0  0  0  0  0  0  0  0
    6.4487  -12.4468   26.2339 C   0  0  0  0  0  0  0  0  0  0  0  0
    7.0601  -12.1553   25.0341 C   0  0  0  0  0  0  0  0  0  0  0  0
    7.3604  -13.1568   24.1281 C   0  0  0  0  0  0  0  0  0  0  0  0
    9.7577  -15.8254   24.1883 C   0  0  0  0  0  0  0  0  0  0  0  0
   10.7748  -15.0808   24.3519 O   0  0  0  0  0  0  0  0  0  0  0  0
   11.9020  -12.8482   27.6008 C   0  0  0  0  0  0  0  0  0  0  0  0
   11.1124  -13.8573   28.8856 S   0  0  0  0  0  0  0  0  0  0  0  0
   11.2046  -15.5952   28.2931 C   0  0  0  0  0  0  0  0  0  0  0  0
   10.4166  -15.6571   27.0294 C   0  0  0  0  0  0  0  0  0  0  0  0
   10.4528  -16.9995   26.3271 C   0  0  2  0  0  0  0  0  0  0  0  0
    9.5958  -16.8376   25.1498 N   0  0  0  0  0  0  0  0  0  0  0  0
   10.0543  -18.1295   27.1530 C   0  0  0  0  0  0  0  0  0  0  0  0
    8.9339  -18.6922   27.0285 O   0  0  0  0  0  0  0  0  0  0  0  0
   10.8906  -18.6496   28.1243 O   0  0  0  0  0  0  0  0  0  0  0  0
  1  2  1  0
  2  3  2  0
  4  5  1  0
  4  2  1  0
  5  6  1  6
  7  5  1  0
  7  8  2  0
  9  7  1  0
 10  9  1  0
 10 11  1  1
 11 12  1  0
 12 17  2  0
 13 12  1  0
 13 14  2  0
 14 15  1  0
 15 16  2  0
 17 16  1  0
 18 10  1  0
 19 18  2  0
 21 20  1  0
 22 21  1  0
 24 23  1  1
 23 22  1  0
 24 25  1  0
 25 18  1  0
 26 24  1  0
 27 26  2  0
 28 26  1  0
M  END
$$$$
