NFM.pdb
     RDKit          3D

 28 28  0  0  1  0  0  0  0  0999 V2000
    9.4218  -19.7761   18.2344 N   0  0  0  0  0  0  0  0  0  0  0  0
   10.1816  -20.0223   19.4034 C   0  0  0  0  0  0  0  0  0  0  0  0
   10.5468  -21.2009   19.6306 O   0  0  0  0  0  0  0  0  0  0  0  0
   10.4979  -18.8738   20.2849 C   0  0  0  0  0  0  0  0  0  0  0  0
    9.7832  -17.6143   19.8390 C   0  0  2  0  0  0  0  0  0  0  0  0
   10.3478  -17.0728   18.6243 N   0  0  0  0  0  0  0  0  0  0  0  0
    9.8124  -16.5911   20.9261 C   0  0  0  0  0  0  0  0  0  0  0  0
   10.8595  -15.9215   21.1749 O   0  0  0  0  0  0  0  0  0  0  0  0
    8.6829  -16.3207   21.7258 N   0  0  0  0  0  0  0  0  0  0  0  0
    8.6554  -15.3482   22.7989 C   0  0  1  0  0  0  0  0  0  0  0  0
    7.2677  -14.7580   22.9242 C   0  0  0  0  0  0  0  0  0  0  0  0
    7.1500  -13.8697   24.1093 C   0  0  0  0  0  0  0  0  0  0  0  0
    6.4684  -14.2670   25.2501 C   0  0  0  0  0  0  0  0  0  0  0  0
    6.3588  -13.4414   26.3546 C   0  0  0  0  0  0  0  0  0  0  0  0
    6.9264  -12.1808   26.3675 C   0  0  0  0  0  0  0  0  0  0  0  0
    7.6051  -11.7793   25.2377 C   0  0  0  0  0  0  0  0  0  0  0  0
    7.7091  -12.6122   24.1380 C   0  0  0  0  0  0  0  0  0  0  0  0
    9.1788  -15.9544   24.0182 C   0  0  0  0  0  0  0  0  0  0  0  0
    8.4374  -16.7492   24.6773 O   0  0  0  0  0  0  0  0  0  0  0  0
   10.7463  -13.9465   30.7546 C   0  0  0  0  0  0  0  0  0  0  0  0
   10.1664  -13.7050   29.0523 S   0  0  0  0  0  0  0  0  0  0  0  0
   10.1842  -15.3686   28.2700 C   0  0  0  0  0  0  0  0  0  0  0  0
   10.0183  -15.1523   26.8045 C   0  0  0  0  0  0  0  0  0  0  0  0
   10.8398  -16.0797   25.9318 C   0  0  2  0  0  0  0  0  0  0  0  0
   10.4601  -15.7456   24.5567 N   0  0  0  0  0  0  0  0  0  0  0  0
   10.6754  -17.4957   26.2249 C   0  0  0  0  0  0  0  0  0  0  0  0
   10.8426  -18.3877   25.3510 O   0  0  0  0  0  0  0  0  0  0  0  0
   10.3256  -17.9400   27.4873 O   0  0  0  0  0  0  0  0  0  0  0  0
  1  2  1  0
  2  3  2  0
  4  5  1  0
  4  2  1  0
  5  6  1  6
  7  5  1  0
  7  8  2  0
  9  7  1  0
 10  9  1  0
 10 11  1  1
 11 12  1  0
 12 17  2  0
 13 12  1  0
 13 14  2  0
 14 15  1  0
 15 16  2  0
 17 16  1  0
 18 10  1  0
 19 18  2  0
 21 20  1  0
 22 21  1  0
 24 23  1  1
 23 22  1  0
 24 25  1  0
 25 18  1  0
 26 24  1  0
 27 26  2  0
 28 26  1  0
M  END
$$$$
