NFM.pdb
     RDKit          3D

 28 28  0  0  1  0  0  0  0  0999 V2000
   12.1719  -18.7271   17.7564 N   0  0  0  0  0  0  0  0  0  0  0  0
   11.0172  -18.5369   18.5533 C   0  0  0  0  0  0  0  0  0  0  0  0
    9.9993  -19.2203   18.2870 O   0  0  0  0  0  0  0  0  0  0  0  0
   11.0828  -17.5435   19.6511 C   0  0  0  0  0  0  0  0  0  0  0  0
    9.7339  -16.9017   19.9046 C   0  0  2  0  0  0  0  0  0  0  0  0
    9.3428  -16.0208   18.8282 N   0  0  0  0  0  0  0  0  0  0  0  0
    9.7492  -16.1617   21.2014 C   0  0  0  0  0  0  0  0  0  0  0  0
   10.7380  -15.4453   21.5414 O   0  0  0  0  0  0  0  0  0  0  0  0
    8.6703  -16.2231   22.1074 N   0  0  0  0  0  0  0  0  0  0  0  0
    8.5993  -15.4741   23.3452 C   0  0  1  0  0  0  0  0  0  0  0  0
    7.1530  -15.2367   23.7216 C   0  0  0  0  0  0  0  0  0  0  0  0
    7.0143  -14.1471   24.7221 C   0  0  0  0  0  0  0  0  0  0  0  0
    8.1003  -13.3789   25.1149 C   0  0  0  0  0  0  0  0  0  0  0  0
    7.9724  -12.3635   26.0456 C   0  0  0  0  0  0  0  0  0  0  0  0
    6.7519  -12.0709   26.6253 C   0  0  0  0  0  0  0  0  0  0  0  0
    5.6685  -12.8300   26.2401 C   0  0  0  0  0  0  0  0  0  0  0  0
    5.8066  -13.8435   25.3085 C   0  0  0  0  0  0  0  0  0  0  0  0
    9.3989  -16.1436   24.3653 C   0  0  0  0  0  0  0  0  0  0  0  0
    9.6965  -17.3692   24.2074 O   0  0  0  0  0  0  0  0  0  0  0  0
   10.9230  -13.1358   29.6494 C   0  0  0  0  0  0  0  0  0  0  0  0
   10.8900  -14.7913   30.3915 S   0  0  0  0  0  0  0  0  0  0  0  0
   11.2160  -15.9690   29.0180 C   0  0  0  0  0  0  0  0  0  0  0  0
   10.5811  -15.3898   27.8001 C   0  0  0  0  0  0  0  0  0  0  0  0
   10.6415  -16.2773   26.5732 C   0  0  2  0  0  0  0  0  0  0  0  0
    9.8921  -15.5545   25.5422 N   0  0  0  0  0  0  0  0  0  0  0  0
   10.1445  -17.6300   26.7754 C   0  0  0  0  0  0  0  0  0  0  0  0
   10.8968  -18.5781   27.1258 O   0  0  0  0  0  0  0  0  0  0  0  0
    8.8108  -17.9484   26.5933 O   0  0  0  0  0  0  0  0  0  0  0  0
  1  2  1  0
  2  3  2  0
  4  5  1  0
  4  2  1  0
  5  6  1  6
  7  5  1  0
  7  8  2  0
  9  7  1  0
 10  9  1  0
 10 11  1  1
 11 12  1  0
 12 17  2  0
 13 12  1  0
 13 14  2  0
 14 15  1  0
 15 16  2  0
 17 16  1  0
 18 10  1  0
 19 18  2  0
 21 20  1  0
 22 21  1  0
 24 23  1  1
 23 22  1  0
 24 25  1  0
 25 18  1  0
 26 24  1  0
 27 26  2  0
 28 26  1  0
M  END
$$$$
