NFM.pdb
     RDKit          3D

 28 28  0  0  1  0  0  0  0  0999 V2000
   10.8077  -19.1758   18.1979 N   0  0  0  0  0  0  0  0  0  0  0  0
   11.2921  -17.8544   18.0434 C   0  0  0  0  0  0  0  0  0  0  0  0
   12.0117  -17.6043   17.0465 O   0  0  0  0  0  0  0  0  0  0  0  0
   10.9192  -16.8503   19.0674 C   0  0  0  0  0  0  0  0  0  0  0  0
   10.2143  -17.4902   20.2462 C   0  0  2  0  0  0  0  0  0  0  0  0
    8.9114  -18.0003   19.8858 N   0  0  0  0  0  0  0  0  0  0  0  0
   10.0969  -16.5142   21.3701 C   0  0  0  0  0  0  0  0  0  0  0  0
   11.1017  -15.8649   21.7887 O   0  0  0  0  0  0  0  0  0  0  0  0
    8.8690  -16.2681   22.0184 N   0  0  0  0  0  0  0  0  0  0  0  0
    8.7038  -15.3682   23.1413 C   0  0  1  0  0  0  0  0  0  0  0  0
    7.3906  -14.6265   23.0186 C   0  0  0  0  0  0  0  0  0  0  0  0
    7.1576  -13.7210   24.1733 C   0  0  0  0  0  0  0  0  0  0  0  0
    6.4579  -14.1398   25.2953 C   0  0  0  0  0  0  0  0  0  0  0  0
    6.2409  -13.2982   26.3714 C   0  0  0  0  0  0  0  0  0  0  0  0
    6.7144  -11.9993   26.3735 C   0  0  0  0  0  0  0  0  0  0  0  0
    7.4104  -11.5761   25.2622 C   0  0  0  0  0  0  0  0  0  0  0  0
    7.6221  -12.4254   24.1908 C   0  0  0  0  0  0  0  0  0  0  0  0
    8.8793  -16.1074   24.3868 C   0  0  0  0  0  0  0  0  0  0  0  0
    7.9364  -16.1087   25.2393 O   0  0  0  0  0  0  0  0  0  0  0  0
   10.0996  -13.0281   28.9177 C   0  0  0  0  0  0  0  0  0  0  0  0
   10.2217  -14.7920   29.3252 S   0  0  0  0  0  0  0  0  0  0  0  0
   11.2824  -15.5406   28.0236 C   0  0  0  0  0  0  0  0  0  0  0  0
   10.3733  -15.9474   26.9146 C   0  0  0  0  0  0  0  0  0  0  0  0
   11.0779  -16.3391   25.6313 C   0  0  2  0  0  0  0  0  0  0  0  0
   10.0189  -16.8436   24.7533 N   0  0  0  0  0  0  0  0  0  0  0  0
   12.1622  -17.2949   25.7995 C   0  0  0  0  0  0  0  0  0  0  0  0
   12.1168  -18.4566   25.3140 O   0  0  0  0  0  0  0  0  0  0  0  0
   13.3083  -16.9759   26.5053 O   0  0  0  0  0  0  0  0  0  0  0  0
  1  2  1  0
  2  3  2  0
  4  5  1  0
  4  2  1  0
  5  6  1  6
  7  5  1  0
  7  8  2  0
  9  7  1  0
 10  9  1  0
 10 11  1  1
 11 12  1  0
 12 17  2  0
 13 12  1  0
 13 14  2  0
 14 15  1  0
 15 16  2  0
 17 16  1  0
 18 10  1  0
 19 18  2  0
 21 20  1  0
 22 21  1  0
 24 23  1  1
 23 22  1  0
 24 25  1  0
 25 18  1  0
 26 24  1  0
 27 26  2  0
 28 26  1  0
M  END
$$$$
