NFM.pdb
     RDKit          3D

 28 28  0  0  1  0  0  0  0  0999 V2000
   10.4228  -17.1224   16.1754 N   0  0  0  0  0  0  0  0  0  0  0  0
   11.2123  -17.4128   17.3142 C   0  0  0  0  0  0  0  0  0  0  0  0
   12.0127  -18.3765   17.2452 O   0  0  0  0  0  0  0  0  0  0  0  0
   11.0443  -16.5612   18.5154 C   0  0  0  0  0  0  0  0  0  0  0  0
   10.6679  -17.3811   19.7328 C   0  0  2  0  0  0  0  0  0  0  0  0
    9.5117  -18.2125   19.4890 N   0  0  0  0  0  0  0  0  0  0  0  0
   10.4265  -16.4867   20.9038 C   0  0  0  0  0  0  0  0  0  0  0  0
   11.3018  -15.6564   21.2923 O   0  0  0  0  0  0  0  0  0  0  0  0
    9.2193  -16.5214   21.6318 N   0  0  0  0  0  0  0  0  0  0  0  0
    8.9370  -15.6926   22.7858 C   0  0  1  0  0  0  0  0  0  0  0  0
    7.4770  -15.2949   22.7899 C   0  0  0  0  0  0  0  0  0  0  0  0
    7.1235  -14.5031   23.9963 C   0  0  0  0  0  0  0  0  0  0  0  0
    7.4962  -13.1735   24.1275 C   0  0  0  0  0  0  0  0  0  0  0  0
    7.1671  -12.4347   25.2497 C   0  0  0  0  0  0  0  0  0  0  0  0
    6.4498  -12.9931   26.2915 C   0  0  0  0  0  0  0  0  0  0  0  0
    6.0762  -14.3135   26.1683 C   0  0  0  0  0  0  0  0  0  0  0  0
    6.4104  -15.0441   25.0419 C   0  0  0  0  0  0  0  0  0  0  0  0
    9.3939  -16.3698   23.9944 C   0  0  0  0  0  0  0  0  0  0  0  0
    9.2885  -17.6344   24.0681 O   0  0  0  0  0  0  0  0  0  0  0  0
   10.8192  -13.0292   28.9714 C   0  0  0  0  0  0  0  0  0  0  0  0
   11.8135  -14.4171   29.5856 S   0  0  0  0  0  0  0  0  0  0  0  0
   11.2801  -15.8886   28.6213 C   0  0  0  0  0  0  0  0  0  0  0  0
   10.8142  -15.3851   27.2980 C   0  0  0  0  0  0  0  0  0  0  0  0
   10.4124  -16.4672   26.3159 C   0  0  2  0  0  0  0  0  0  0  0  0
    9.9586  -15.7494   25.1220 N   0  0  0  0  0  0  0  0  0  0  0  0
    9.4149  -17.4019   26.8147 C   0  0  0  0  0  0  0  0  0  0  0  0
    9.7287  -18.4887   27.3696 O   0  0  0  0  0  0  0  0  0  0  0  0
    8.0601  -17.1445   26.7062 O   0  0  0  0  0  0  0  0  0  0  0  0
  1  2  1  0
  2  3  2  0
  4  5  1  0
  4  2  1  0
  5  6  1  6
  7  5  1  0
  7  8  2  0
  9  7  1  0
 10  9  1  0
 10 11  1  1
 11 12  1  0
 12 17  2  0
 13 12  1  0
 13 14  2  0
 14 15  1  0
 15 16  2  0
 17 16  1  0
 18 10  1  0
 19 18  2  0
 21 20  1  0
 22 21  1  0
 24 23  1  1
 23 22  1  0
 24 25  1  0
 25 18  1  0
 26 24  1  0
 27 26  2  0
 28 26  1  0
M  END
$$$$
