TKE.pdb
     RDKit          3D

 26 25  0  0  1  0  0  0  0  0999 V2000
   26.8789  -10.6054  -14.9290 C   0  0  0  0  0  0  0  0  0  0  0  0
   26.9276  -11.1939  -16.3239 C   0  0  1  0  0  0  0  0  0  0  0  0
   27.9403  -12.1911  -16.2458 O   0  0  0  0  0  0  0  0  0  0  0  0
   25.6298  -11.9301  -16.6796 C   0  0  2  0  0  0  0  0  0  0  0  0
   25.8571  -12.5050  -18.0219 N   0  0  0  0  0  0  0  0  0  0  0  0
   24.4774  -11.0226  -16.8403 C   0  0  0  0  0  0  0  0  0  0  0  0
   24.4289  -10.1925  -17.7926 O   0  0  0  0  0  0  0  0  0  0  0  0
   23.3301  -10.9838  -15.9746 N   0  0  0  0  0  0  0  0  0  0  0  0
   22.2808  -10.0222  -16.1379 C   0  0  1  0  0  0  0  0  0  0  0  0
   20.9541  -10.7083  -15.7533 C   0  0  0  0  0  0  0  0  0  0  0  0
   19.8101   -9.7529  -15.8977 C   0  0  0  0  0  0  0  0  0  0  0  0
   18.5452  -10.3921  -15.4407 C   0  0  0  0  0  0  0  0  0  0  0  0
   17.3315   -9.5194  -15.6536 C   0  0  0  0  0  0  0  0  0  0  0  0
   16.2136  -10.2211  -15.0366 N   0  0  0  0  0  0  0  0  0  0  0  0
   22.4495   -8.7631  -15.3700 C   0  0  0  0  0  0  0  0  0  0  0  0
   22.7356   -8.8302  -14.1430 O   0  0  0  0  0  0  0  0  0  0  0  0
   22.3105   -7.4745  -15.9222 N   0  0  0  0  0  0  0  0  0  0  0  0
   22.3762   -6.2089  -15.3289 C   0  0  1  0  0  0  0  0  0  0  0  0
   22.2530   -5.0240  -16.2136 C   0  0  0  0  0  0  0  0  0  0  0  0
   22.4855   -3.7288  -15.4833 C   0  0  0  0  0  0  0  0  0  0  0  0
   22.3734   -2.5635  -16.3853 C   0  0  0  0  0  0  0  0  0  0  0  0
   22.1294   -2.6699  -17.6094 O   0  0  0  0  0  0  0  0  0  0  0  0
   21.5970   -6.0231  -14.0801 C   0  0  0  0  0  0  0  0  0  0  0  0
   22.1776   -5.3693  -13.0107 O   0  0  0  0  0  0  0  0  0  0  0  0
   22.5436   -1.2925  -15.8664 O   0  0  0  0  0  0  0  0  0  0  0  0
   20.4423   -6.4369  -13.9693 O   0  0  0  0  0  0  0  0  0  0  0  0
  2  3  1  0
  2  1  1  1
  4  2  1  0
  4  5  1  6
  6  4  1  0
  7  6  2  0
  8  6  1  0
  9 10  1  1
  9  8  1  0
 11 10  1  0
 11 12  1  0
 13 14  1  0
 13 12  1  0
 15  9  1  0
 16 15  2  0
 17 15  1  0
 18 17  1  0
 19 20  1  0
 18 19  1  6
 20 21  1  0
 21 25  1  0
 21 22  2  0
 23 18  1  0
 23 24  1  0
 26 23  2  0
M  END
$$$$
