TKE.pdb
     RDKit          3D

 26 25  0  0  1  0  0  0  0  0999 V2000
   24.7442  -12.7604  -18.9169 C   0  0  0  0  0  0  0  0  0  0  0  0
   24.3224  -14.0941  -18.3357 C   0  0  1  0  0  0  0  0  0  0  0  0
   22.9273  -14.1672  -18.6088 O   0  0  0  0  0  0  0  0  0  0  0  0
   24.9654  -15.2712  -19.0799 C   0  0  2  0  0  0  0  0  0  0  0  0
   24.4575  -15.1873  -20.4652 N   0  0  0  0  0  0  0  0  0  0  0  0
   24.5118  -16.5846  -18.5832 C   0  0  0  0  0  0  0  0  0  0  0  0
   23.3749  -17.0420  -18.8936 O   0  0  0  0  0  0  0  0  0  0  0  0
   25.2775  -17.4548  -17.7323 N   0  0  0  0  0  0  0  0  0  0  0  0
   24.7629  -18.7029  -17.2531 C   0  0  1  0  0  0  0  0  0  0  0  0
   25.9434  -19.6913  -17.1625 C   0  0  0  0  0  0  0  0  0  0  0  0
   25.4727  -21.0243  -16.6688 C   0  0  0  0  0  0  0  0  0  0  0  0
   26.6202  -21.9672  -16.5604 C   0  0  0  0  0  0  0  0  0  0  0  0
   26.1977  -23.3748  -16.2140 C   0  0  0  0  0  0  0  0  0  0  0  0
   27.4236  -24.1579  -16.1313 N   0  0  0  0  0  0  0  0  0  0  0  0
   24.0473  -18.6369  -15.9542 C   0  0  0  0  0  0  0  0  0  0  0  0
   24.4128  -17.7846  -15.0987 O   0  0  0  0  0  0  0  0  0  0  0  0
   22.9696  -19.4726  -15.6009 N   0  0  0  0  0  0  0  0  0  0  0  0
   21.8155  -19.2163  -14.8521 C   0  0  1  0  0  0  0  0  0  0  0  0
   21.0798  -17.9572  -15.1260 C   0  0  0  0  0  0  0  0  0  0  0  0
   19.9790  -17.7013  -14.1322 C   0  0  0  0  0  0  0  0  0  0  0  0
   18.9340  -16.8163  -14.6879 C   0  0  0  0  0  0  0  0  0  0  0  0
   18.1819  -17.1575  -15.6299 O   0  0  0  0  0  0  0  0  0  0  0  0
   20.8776  -20.3519  -14.6737 C   0  0  0  0  0  0  0  0  0  0  0  0
   20.1849  -20.4777  -13.4854 O   0  0  0  0  0  0  0  0  0  0  0  0
   18.7691  -15.5515  -14.1524 O   0  0  0  0  0  0  0  0  0  0  0  0
   20.6984  -21.1893  -15.5589 O   0  0  0  0  0  0  0  0  0  0  0  0
  2  3  1  0
  2  1  1  6
  4  2  1  0
  4  5  1  6
  6  4  1  0
  7  6  2  0
  8  6  1  0
  9 10  1  1
  9  8  1  0
 11 10  1  0
 11 12  1  0
 13 14  1  0
 13 12  1  0
 15  9  1  0
 16 15  2  0
 17 15  1  0
 18 17  1  0
 19 20  1  0
 18 19  1  6
 20 21  1  0
 21 25  1  0
 21 22  2  0
 23 18  1  0
 23 24  1  0
 26 23  2  0
M  END
$$$$
