TKE.pdb
     RDKit          3D

 26 25  0  0  1  0  0  0  0  0999 V2000
   26.1511  -20.5728   -8.8023 C   0  0  0  0  0  0  0  0  0  0  0  0
   25.3870  -20.9318  -10.0600 C   0  0  1  0  0  0  0  0  0  0  0  0
   24.8719  -19.6876  -10.5212 O   0  0  0  0  0  0  0  0  0  0  0  0
   26.3164  -21.4458  -11.1667 C   0  0  2  0  0  0  0  0  0  0  0  0
   27.3425  -20.3964  -11.3396 N   0  0  0  0  0  0  0  0  0  0  0  0
   25.6486  -21.5500  -12.4784 C   0  0  0  0  0  0  0  0  0  0  0  0
   26.3174  -21.7006  -13.5405 O   0  0  0  0  0  0  0  0  0  0  0  0
   24.2269  -21.4986  -12.6874 N   0  0  0  0  0  0  0  0  0  0  0  0
   23.6153  -21.9518  -13.9010 C   0  0  1  0  0  0  0  0  0  0  0  0
   24.0700  -23.4063  -14.1386 C   0  0  0  0  0  0  0  0  0  0  0  0
   23.4357  -23.9565  -15.3785 C   0  0  0  0  0  0  0  0  0  0  0  0
   23.8653  -25.3659  -15.5941 C   0  0  0  0  0  0  0  0  0  0  0  0
   23.2597  -25.9858  -16.8307 C   0  0  0  0  0  0  0  0  0  0  0  0
   23.7751  -27.3470  -16.8965 N   0  0  0  0  0  0  0  0  0  0  0  0
   22.1338  -21.8645  -13.9355 C   0  0  0  0  0  0  0  0  0  0  0  0
   21.4576  -22.7053  -13.2816 O   0  0  0  0  0  0  0  0  0  0  0  0
   21.4149  -20.8927  -14.6589 N   0  0  0  0  0  0  0  0  0  0  0  0
   20.0384  -20.6787  -14.7923 C   0  0  1  0  0  0  0  0  0  0  0  0
   19.5414  -20.1703  -16.0946 C   0  0  0  0  0  0  0  0  0  0  0  0
   20.1716  -20.8701  -17.2686 C   0  0  0  0  0  0  0  0  0  0  0  0
   19.1603  -21.3048  -18.2547 C   0  0  0  0  0  0  0  0  0  0  0  0
   18.2747  -20.5416  -18.7047 O   0  0  0  0  0  0  0  0  0  0  0  0
   19.1498  -21.7422  -14.2627 C   0  0  0  0  0  0  0  0  0  0  0  0
   17.9770  -21.3890  -13.6243 O   0  0  0  0  0  0  0  0  0  0  0  0
   19.1821  -22.6113  -18.7090 O   0  0  0  0  0  0  0  0  0  0  0  0
   19.4293  -22.9363  -14.3767 O   0  0  0  0  0  0  0  0  0  0  0  0
  2  3  1  0
  2  1  1  1
  4  2  1  0
  4  5  1  6
  6  4  1  0
  7  6  2  0
  8  6  1  0
  9 10  1  1
  9  8  1  0
 11 10  1  0
 11 12  1  0
 13 14  1  0
 13 12  1  0
 15  9  1  0
 16 15  2  0
 17 15  1  0
 18 17  1  0
 19 20  1  0
 18 19  1  6
 20 21  1  0
 21 25  1  0
 21 22  2  0
 23 18  1  0
 23 24  1  0
 26 23  2  0
M  END
$$$$
