TKE.pdb
     RDKit          3D

 26 25  0  0  1  0  0  0  0  0999 V2000
   17.2604   -7.7277  -18.4715 C   0  0  0  0  0  0  0  0  0  0  0  0
   16.5110   -8.7540  -17.6471 C   0  0  1  0  0  0  0  0  0  0  0  0
   15.4273   -9.1470  -18.4822 O   0  0  0  0  0  0  0  0  0  0  0  0
   17.3472  -10.0178  -17.4095 C   0  0  2  0  0  0  0  0  0  0  0  0
   16.4948  -10.9075  -16.5935 N   0  0  0  0  0  0  0  0  0  0  0  0
   18.5450   -9.7699  -16.5841 C   0  0  0  0  0  0  0  0  0  0  0  0
   18.4419   -9.4300  -15.3709 O   0  0  0  0  0  0  0  0  0  0  0  0
   19.9025   -9.8855  -17.0436 N   0  0  0  0  0  0  0  0  0  0  0  0
   21.0204   -9.5181  -16.2266 C   0  0  1  0  0  0  0  0  0  0  0  0
   22.2609  -10.2535  -16.7737 C   0  0  0  0  0  0  0  0  0  0  0  0
   23.4739   -9.9032  -15.9686 C   0  0  0  0  0  0  0  0  0  0  0  0
   24.6670  -10.6204  -16.4974 C   0  0  0  0  0  0  0  0  0  0  0  0
   25.8799  -10.4854  -15.6082 C   0  0  0  0  0  0  0  0  0  0  0  0
   26.9664  -11.1692  -16.2971 N   0  0  0  0  0  0  0  0  0  0  0  0
   21.2865   -8.0606  -16.1342 C   0  0  0  0  0  0  0  0  0  0  0  0
   21.7384   -7.4574  -17.1459 O   0  0  0  0  0  0  0  0  0  0  0  0
   21.0669   -7.2877  -14.9770 N   0  0  0  0  0  0  0  0  0  0  0  0
   21.3304   -5.9398  -14.7089 C   0  0  1  0  0  0  0  0  0  0  0  0
   20.1780   -5.0062  -14.6646 C   0  0  0  0  0  0  0  0  0  0  0  0
   19.4050   -4.9780  -15.9555 C   0  0  0  0  0  0  0  0  0  0  0  0
   18.1642   -4.1845  -15.8339 C   0  0  0  0  0  0  0  0  0  0  0  0
   18.1615   -2.9580  -15.5790 O   0  0  0  0  0  0  0  0  0  0  0  0
   22.2846   -5.6591  -13.6080 C   0  0  0  0  0  0  0  0  0  0  0  0
   22.7886   -4.3818  -13.4580 O   0  0  0  0  0  0  0  0  0  0  0  0
   16.9442   -4.8132  -16.0071 O   0  0  0  0  0  0  0  0  0  0  0  0
   22.6416   -6.5363  -12.8207 O   0  0  0  0  0  0  0  0  0  0  0  0
  2  3  1  0
  2  1  1  6
  4  2  1  0
  4  5  1  1
  6  4  1  0
  7  6  2  0
  8  6  1  0
  9 10  1  6
  9  8  1  0
 11 10  1  0
 11 12  1  0
 13 14  1  0
 13 12  1  0
 15  9  1  0
 16 15  2  0
 17 15  1  0
 18 17  1  0
 19 20  1  0
 18 19  1  1
 20 21  1  0
 21 25  1  0
 21 22  2  0
 23 18  1  0
 23 24  1  0
 26 23  2  0
M  END
$$$$
