RDE.pdb
     RDKit          3D

 29 28  0  0  1  0  0  0  0  0999 V2000
    6.3923  -13.3440   16.9327 N   0  0  0  0  0  0  0  0  0  0  0  0
    7.4314  -13.2279   17.8973 C   0  0  0  0  0  0  0  0  0  0  0  0
    7.2302  -12.4605   18.9266 N   0  0  0  0  0  0  0  0  0  0  0  0
    8.6427  -13.9347   17.7229 N   0  0  0  0  0  0  0  0  0  0  0  0
    8.7969  -14.8712   16.6388 C   0  0  0  0  0  0  0  0  0  0  0  0
    8.4405  -16.2255   17.1652 C   0  0  0  0  0  0  0  0  0  0  0  0
    9.6344  -17.0082   17.6727 C   0  0  0  0  0  0  0  0  0  0  0  0
   10.0904  -16.3320   18.9504 C   0  0  2  0  0  0  0  0  0  0  0  0
    9.6928  -14.9387   18.8561 N   0  0  0  0  0  0  0  0  0  0  0  0
   11.5518  -16.4735   19.1719 C   0  0  0  0  0  0  0  0  0  0  0  0
   12.0413  -17.5726   19.5003 O   0  0  0  0  0  0  0  0  0  0  0  0
    7.9790  -12.3174   19.6173 N   0  0  0  0  0  0  0  0  0  0  0  0
   12.4021  -15.3728   19.0143 C   0  0  2  0  0  0  0  0  0  0  0  0
   13.8426  -15.3985   19.2351 C   0  0  0  0  0  0  0  0  0  0  0  0
   14.3787  -14.3155   18.3257 C   0  0  0  0  0  0  0  0  0  0  0  0
   15.8551  -14.3119   18.4640 O   0  0  0  0  0  0  0  0  0  0  0  0
   16.4687  -15.4277   18.5916 C   0  0  0  0  0  0  0  0  0  0  0  0
   14.1087  -15.1873   20.6598 O   0  0  0  0  0  0  0  0  0  0  0  0
   13.8915  -14.0546   21.1579 O   0  0  0  0  0  0  0  0  0  0  0  0
   16.6190  -13.1568   18.4662 N   0  0  0  0  0  0  0  0  0  0  0  0
   14.5948  -16.2282   21.4498 C   0  0  1  0  0  0  0  0  0  0  0  0
   14.8447  -16.0170   22.8883 C   0  0  0  0  0  0  0  0  0  0  0  0
   14.1130  -17.1249   23.5614 C   0  0  0  0  0  0  0  0  0  0  0  0
   14.2830  -17.1553   25.0369 C   0  0  0  0  0  0  0  0  0  0  0  0
   13.6538  -18.3320   25.6872 O   0  0  0  0  0  0  0  0  0  0  0  0
   12.4910  -18.6599   25.3028 C   0  0  0  0  0  0  0  0  0  0  0  0
   16.2498  -15.8215   23.1385 O   0  0  0  0  0  0  0  0  0  0  0  0
   16.7214  -15.3073   24.3595 O   0  0  0  0  0  0  0  0  0  0  0  0
   14.2345  -19.0900   26.6709 O   0  0  0  0  0  0  0  0  0  0  0  0
  2  3  2  0
  2  1  1  0
  4  2  1  0
  5  4  1  0
  6  5  1  0
  7  6  1  0
  8  7  1  0
  8  9  1  6
 10  8  1  0
 10 11  2  0
 12 10  1  0
 13 12  1  0
 13 14  1  6
 14 15  1  0
 15 16  2  0
 15 19  1  0
 17 13  1  0
 18 17  2  0
 20 17  1  0
 21 20  1  0
 21 22  1  1
 23 22  1  0
 24 23  1  0
 24 25  2  0
 26 21  1  0
 26 27  1  0
 28 24  1  0
 29 26  2  0
M  END
$$$$
