RDE.pdb
     RDKit          3D

 29 28  0  0  1  0  0  0  0  0999 V2000
    9.7249  -13.4228   18.2962 N   0  0  0  0  0  0  0  0  0  0  0  0
    8.6027  -13.1118   19.1133 C   0  0  0  0  0  0  0  0  0  0  0  0
    8.2145  -11.8732   19.1769 N   0  0  0  0  0  0  0  0  0  0  0  0
    7.9419  -14.1353   19.8295 N   0  0  0  0  0  0  0  0  0  0  0  0
    6.9031  -13.8164   20.7757 C   0  0  0  0  0  0  0  0  0  0  0  0
    7.4277  -14.1379   22.1394 C   0  0  0  0  0  0  0  0  0  0  0  0
    7.6198  -15.6219   22.3769 C   0  0  0  0  0  0  0  0  0  0  0  0
    9.1136  -15.8785   22.3599 C   0  0  2  0  0  0  0  0  0  0  0  0
    9.4446  -16.3590   21.0303 N   0  0  0  0  0  0  0  0  0  0  0  0
    9.5322  -16.8387   23.4122 C   0  0  0  0  0  0  0  0  0  0  0  0
    8.7041  -17.6134   23.9314 O   0  0  0  0  0  0  0  0  0  0  0  0
    7.3950  -11.6182   19.7439 N   0  0  0  0  0  0  0  0  0  0  0  0
   10.8652  -16.8882   23.8366 C   0  0  1  0  0  0  0  0  0  0  0  0
   11.4057  -17.8765   24.7616 C   0  0  0  0  0  0  0  0  0  0  0  0
   12.8957  -17.6178   24.7551 C   0  0  0  0  0  0  0  0  0  0  0  0
   13.5070  -18.5741   23.8008 O   0  0  0  0  0  0  0  0  0  0  0  0
   12.7695  -19.4724   23.2650 C   0  0  0  0  0  0  0  0  0  0  0  0
   10.7618  -17.7082   26.0662 O   0  0  0  0  0  0  0  0  0  0  0  0
   10.9532  -16.6442   26.7063 O   0  0  0  0  0  0  0  0  0  0  0  0
   14.8472  -18.5543   23.4529 N   0  0  0  0  0  0  0  0  0  0  0  0
    9.9490  -18.7135   26.5882 C   0  0  2  0  0  0  0  0  0  0  0  0
    9.5065  -18.6582   27.9945 C   0  0  0  0  0  0  0  0  0  0  0  0
    8.4404  -19.6925   28.0918 C   0  0  0  0  0  0  0  0  0  0  0  0
    7.4232  -19.6183   27.0117 C   0  0  0  0  0  0  0  0  0  0  0  0
    6.3370  -20.6214   27.1432 O   0  0  0  0  0  0  0  0  0  0  0  0
    5.4068  -20.5917   26.2822 C   0  0  0  0  0  0  0  0  0  0  0  0
   10.6368  -18.6987   28.8867 O   0  0  0  0  0  0  0  0  0  0  0  0
   10.5702  -18.1807   30.1923 O   0  0  0  0  0  0  0  0  0  0  0  0
    6.2639  -21.5763   28.1241 O   0  0  0  0  0  0  0  0  0  0  0  0
  2  3  2  0
  2  1  1  0
  4  2  1  0
  5  4  1  0
  6  5  1  0
  7  6  1  0
  8  7  1  0
  8  9  1  6
 10  8  1  0
 10 11  2  0
 12 10  1  0
 13 12  1  0
 13 14  1  6
 14 15  1  0
 15 16  2  0
 15 19  1  0
 17 13  1  0
 18 17  2  0
 20 17  1  0
 21 20  1  0
 21 22  1  6
 23 22  1  0
 24 23  1  0
 24 25  2  0
 26 21  1  0
 26 27  1  0
 28 24  1  0
 29 26  2  0
M  END
$$$$
