RDE.pdb
     RDKit          3D

 29 28  0  0  1  0  0  0  0  0999 V2000
    7.8303  -11.8708   20.0949 N   0  0  0  0  0  0  0  0  0  0  0  0
    8.1313  -12.8053   19.0654 C   0  0  0  0  0  0  0  0  0  0  0  0
    8.4799  -12.3446   17.9013 N   0  0  0  0  0  0  0  0  0  0  0  0
    8.0468  -14.1928   19.3205 N   0  0  0  0  0  0  0  0  0  0  0  0
    8.7411  -14.7772   20.4396 C   0  0  0  0  0  0  0  0  0  0  0  0
    7.7410  -14.9656   21.5361 C   0  0  0  0  0  0  0  0  0  0  0  0
    7.4747  -16.4202   21.8657 C   0  0  0  0  0  0  0  0  0  0  0  0
    8.8218  -17.1141   21.9048 C   0  0  2  0  0  0  0  0  0  0  0  0
    8.8616  -18.0233   20.7734 N   0  0  0  0  0  0  0  0  0  0  0  0
    9.0532  -17.8229   23.1889 C   0  0  0  0  0  0  0  0  0  0  0  0
    8.1051  -18.0605   23.9635 O   0  0  0  0  0  0  0  0  0  0  0  0
    8.6489  -12.9921   17.1201 N   0  0  0  0  0  0  0  0  0  0  0  0
   10.3417  -18.2358   23.5481 C   0  0  2  0  0  0  0  0  0  0  0  0
   10.6635  -19.0062   24.7428 C   0  0  0  0  0  0  0  0  0  0  0  0
   11.7175  -19.9876   24.2811 C   0  0  0  0  0  0  0  0  0  0  0  0
   12.1394  -20.7740   25.4652 O   0  0  0  0  0  0  0  0  0  0  0  0
   13.0491  -20.3015   26.2314 C   0  0  0  0  0  0  0  0  0  0  0  0
   11.1027  -18.0882   25.7961 O   0  0  0  0  0  0  0  0  0  0  0  0
   11.6169  -16.9893   25.4699 O   0  0  0  0  0  0  0  0  0  0  0  0
   11.6022  -22.0074   25.7937 N   0  0  0  0  0  0  0  0  0  0  0  0
   10.9515  -18.4295   27.1394 C   0  0  1  0  0  0  0  0  0  0  0  0
   10.9327  -17.3806   28.1766 C   0  0  0  0  0  0  0  0  0  0  0  0
    9.6094  -16.7183   28.0145 C   0  0  0  0  0  0  0  0  0  0  0  0
    9.6502  -15.4714   27.2079 C   0  0  0  0  0  0  0  0  0  0  0  0
   10.1348  -14.2876   27.9608 O   0  0  0  0  0  0  0  0  0  0  0  0
   10.5143  -14.4708   29.1566 C   0  0  0  0  0  0  0  0  0  0  0  0
   11.3192  -17.9205   29.4550 O   0  0  0  0  0  0  0  0  0  0  0  0
   11.6659  -17.0910   30.5364 O   0  0  0  0  0  0  0  0  0  0  0  0
   10.2029  -13.0127   27.4615 O   0  0  0  0  0  0  0  0  0  0  0  0
  2  3  2  0
  2  1  1  0
  4  2  1  0
  5  4  1  0
  6  5  1  0
  7  6  1  0
  8  7  1  0
  8  9  1  6
 10  8  1  0
 10 11  2  0
 12 10  1  0
 13 12  1  0
 13 14  1  6
 14 15  1  0
 15 16  2  0
 15 19  1  0
 17 13  1  0
 18 17  2  0
 20 17  1  0
 21 20  1  0
 21 22  1  1
 23 22  1  0
 24 23  1  0
 24 25  2  0
 26 21  1  0
 26 27  1  0
 28 24  1  0
 29 26  2  0
M  END
$$$$
