RDE.pdb
     RDKit          3D

 29 28  0  0  1  0  0  0  0  0999 V2000
    8.2567  -12.2041   16.8095 N   0  0  0  0  0  0  0  0  0  0  0  0
    7.9373  -12.9929   17.9494 C   0  0  0  0  0  0  0  0  0  0  0  0
    8.0589  -12.4509   19.1243 N   0  0  0  0  0  0  0  0  0  0  0  0
    7.5023  -14.3278   17.7884 N   0  0  0  0  0  0  0  0  0  0  0  0
    7.2502  -15.1615   18.9362 C   0  0  0  0  0  0  0  0  0  0  0  0
    8.5233  -15.2413   19.7179 C   0  0  0  0  0  0  0  0  0  0  0  0
    8.4044  -16.0698   20.9807 C   0  0  0  0  0  0  0  0  0  0  0  0
    9.7627  -16.0412   21.6530 C   0  0  2  0  0  0  0  0  0  0  0  0
   10.7084  -16.6263   20.7194 N   0  0  0  0  0  0  0  0  0  0  0  0
    9.7618  -16.7545   22.9552 C   0  0  0  0  0  0  0  0  0  0  0  0
    8.8447  -16.5704   23.7801 O   0  0  0  0  0  0  0  0  0  0  0  0
    7.8511  -12.9995   19.9692 N   0  0  0  0  0  0  0  0  0  0  0  0
   10.7925  -17.6461   23.2753 C   0  0  1  0  0  0  0  0  0  0  0  0
   10.9122  -18.3558   24.5428 C   0  0  0  0  0  0  0  0  0  0  0  0
   11.9537  -19.4198   24.2776 C   0  0  0  0  0  0  0  0  0  0  0  0
   11.3901  -20.3495   23.2693 O   0  0  0  0  0  0  0  0  0  0  0  0
   10.2002  -20.7922   23.4306 C   0  0  0  0  0  0  0  0  0  0  0  0
   11.2701  -17.3981   25.5915 O   0  0  0  0  0  0  0  0  0  0  0  0
   12.4565  -16.9914   25.6649 O   0  0  0  0  0  0  0  0  0  0  0  0
   12.0857  -20.7752   22.1500 N   0  0  0  0  0  0  0  0  0  0  0  0
   10.3080  -16.9453   26.4934 C   0  0  1  0  0  0  0  0  0  0  0  0
   10.6848  -16.0289   27.5863 C   0  0  0  0  0  0  0  0  0  0  0  0
    9.5914  -15.0194   27.6213 C   0  0  0  0  0  0  0  0  0  0  0  0
    9.4329  -14.2531   26.3585 C   0  0  0  0  0  0  0  0  0  0  0  0
    8.3618  -13.2269   26.4121 O   0  0  0  0  0  0  0  0  0  0  0  0
    7.2111  -13.6024   26.7896 C   0  0  0  0  0  0  0  0  0  0  0  0
   11.0261  -16.7666   28.7756 O   0  0  0  0  0  0  0  0  0  0  0  0
   10.6185  -18.0992   28.9645 O   0  0  0  0  0  0  0  0  0  0  0  0
    8.5226  -11.9055   26.0846 O   0  0  0  0  0  0  0  0  0  0  0  0
  2  3  2  0
  2  1  1  0
  4  2  1  0
  5  4  1  0
  6  5  1  0
  7  6  1  0
  8  7  1  0
  8  9  1  6
 10  8  1  0
 10 11  2  0
 12 10  1  0
 13 12  1  0
 13 14  1  1
 14 15  1  0
 15 16  2  0
 15 19  1  0
 17 13  1  0
 18 17  2  0
 20 17  1  0
 21 20  1  0
 21 22  1  6
 23 22  1  0
 24 23  1  0
 24 25  2  0
 26 21  1  0
 26 27  1  0
 28 24  1  0
 29 26  2  0
M  END
$$$$
