RDE.pdb
     RDKit          3D

 29 28  0  0  1  0  0  0  0  0999 V2000
   13.8695  -14.3793   18.6901 N   0  0  0  0  0  0  0  0  0  0  0  0
   13.4712  -15.3037   17.6848 C   0  0  0  0  0  0  0  0  0  0  0  0
   14.3885  -15.8003   16.9097 N   0  0  0  0  0  0  0  0  0  0  0  0
   12.1103  -15.6591   17.5478 N   0  0  0  0  0  0  0  0  0  0  0  0
   11.1755  -14.7583   16.9228 C   0  0  0  0  0  0  0  0  0  0  0  0
   10.4036  -14.0880   18.0151 C   0  0  0  0  0  0  0  0  0  0  0  0
    8.9550  -14.5261   18.0860 C   0  0  0  0  0  0  0  0  0  0  0  0
    8.3153  -13.7429   19.2152 C   0  0  2  0  0  0  0  0  0  0  0  0
    8.3899  -12.3393   18.8510 N   0  0  0  0  0  0  0  0  0  0  0  0
    8.9659  -14.0074   20.5234 C   0  0  0  0  0  0  0  0  0  0  0  0
    9.9316  -13.3161   20.9041 O   0  0  0  0  0  0  0  0  0  0  0  0
   14.1252  -16.4109   16.1248 N   0  0  0  0  0  0  0  0  0  0  0  0
    8.5029  -15.0383   21.3494 C   0  0  2  0  0  0  0  0  0  0  0  0
    9.0788  -15.3885   22.6418 C   0  0  0  0  0  0  0  0  0  0  0  0
    7.9543  -16.0853   23.3747 C   0  0  0  0  0  0  0  0  0  0  0  0
    7.3967  -15.1189   24.3515 O   0  0  0  0  0  0  0  0  0  0  0  0
    6.3294  -15.4261   24.9874 C   0  0  0  0  0  0  0  0  0  0  0  0
   10.2694  -16.2130   22.4235 O   0  0  0  0  0  0  0  0  0  0  0  0
   10.1600  -17.2773   21.7649 O   0  0  0  0  0  0  0  0  0  0  0  0
    7.9686  -13.8861   24.6175 N   0  0  0  0  0  0  0  0  0  0  0  0
   11.5044  -15.8215   22.9387 C   0  0  2  0  0  0  0  0  0  0  0  0
   12.7014  -16.6550   22.7178 C   0  0  0  0  0  0  0  0  0  0  0  0
   13.7959  -15.6780   22.4662 C   0  0  0  0  0  0  0  0  0  0  0  0
   15.1484  -16.2882   22.3931 C   0  0  0  0  0  0  0  0  0  0  0  0
   16.2302  -15.3124   22.1089 O   0  0  0  0  0  0  0  0  0  0  0  0
   16.8335  -14.8033   23.1011 C   0  0  0  0  0  0  0  0  0  0  0  0
   12.8367  -17.6397   23.7605 O   0  0  0  0  0  0  0  0  0  0  0  0
   12.2727  -17.4527   25.0351 O   0  0  0  0  0  0  0  0  0  0  0  0
   16.6258  -14.9206   20.8562 O   0  0  0  0  0  0  0  0  0  0  0  0
  2  3  2  0
  2  1  1  0
  4  2  1  0
  5  4  1  0
  6  5  1  0
  7  6  1  0
  8  7  1  0
  8  9  1  6
 10  8  1  0
 10 11  2  0
 12 10  1  0
 13 12  1  0
 13 14  1  6
 14 15  1  0
 15 16  2  0
 15 19  1  0
 17 13  1  0
 18 17  2  0
 20 17  1  0
 21 20  1  0
 21 22  1  6
 23 22  1  0
 24 23  1  0
 24 25  2  0
 26 21  1  0
 26 27  1  0
 28 24  1  0
 29 26  2  0
M  END
$$$$
