RDE.pdb
     RDKit          3D

 29 28  0  0  1  0  0  0  0  0999 V2000
   10.0624  -13.3426   18.8197 N   0  0  0  0  0  0  0  0  0  0  0  0
    8.8137  -12.6628   18.8702 C   0  0  0  0  0  0  0  0  0  0  0  0
    8.7909  -11.4566   19.3534 N   0  0  0  0  0  0  0  0  0  0  0  0
    7.6410  -13.2988   18.4039 N   0  0  0  0  0  0  0  0  0  0  0  0
    6.9922  -14.3138   19.1944 C   0  0  0  0  0  0  0  0  0  0  0  0
    7.9570  -14.7361   20.2570 C   0  0  0  0  0  0  0  0  0  0  0  0
    7.4024  -15.7945   21.1885 C   0  0  0  0  0  0  0  0  0  0  0  0
    7.9693  -17.1230   20.7289 C   0  0  2  0  0  0  0  0  0  0  0  0
    6.8604  -18.0587   20.6725 N   0  0  0  0  0  0  0  0  0  0  0  0
    9.0553  -17.6095   21.6170 C   0  0  0  0  0  0  0  0  0  0  0  0
    8.7885  -18.2166   22.6732 O   0  0  0  0  0  0  0  0  0  0  0  0
    7.9159  -10.9158   19.3487 N   0  0  0  0  0  0  0  0  0  0  0  0
   10.3966  -17.3934   21.2798 C   0  0  2  0  0  0  0  0  0  0  0  0
   11.5275  -17.6660   22.1580 C   0  0  0  0  0  0  0  0  0  0  0  0
   12.7353  -17.2378   21.3547 C   0  0  0  0  0  0  0  0  0  0  0  0
   13.9376  -17.5362   22.1697 O   0  0  0  0  0  0  0  0  0  0  0  0
   14.9625  -16.7770   22.0638 C   0  0  0  0  0  0  0  0  0  0  0  0
   11.3397  -16.9375   23.4146 O   0  0  0  0  0  0  0  0  0  0  0  0
   11.4811  -15.6892   23.4211 O   0  0  0  0  0  0  0  0  0  0  0  0
   14.0191  -18.6037   23.0479 N   0  0  0  0  0  0  0  0  0  0  0  0
   11.0084  -17.6199   24.5844 C   0  0  1  0  0  0  0  0  0  0  0  0
   10.6487  -16.8738   25.8052 C   0  0  0  0  0  0  0  0  0  0  0  0
    9.5055  -16.0135   25.3942 C   0  0  0  0  0  0  0  0  0  0  0  0
    8.9585  -15.1691   26.4872 C   0  0  0  0  0  0  0  0  0  0  0  0
    7.8821  -14.2461   26.0482 O   0  0  0  0  0  0  0  0  0  0  0  0
    6.9621  -14.7257   25.3195 C   0  0  0  0  0  0  0  0  0  0  0  0
   10.5148  -17.7666   26.9277 O   0  0  0  0  0  0  0  0  0  0  0  0
   10.6498  -17.3171   28.2533 O   0  0  0  0  0  0  0  0  0  0  0  0
    7.8077  -12.9158   26.3710 O   0  0  0  0  0  0  0  0  0  0  0  0
  2  3  2  0
  2  1  1  0
  4  2  1  0
  5  4  1  0
  6  5  1  0
  7  6  1  0
  8  7  1  0
  8  9  1  1
 10  8  1  0
 10 11  2  0
 12 10  1  0
 13 12  1  0
 13 14  1  6
 14 15  1  0
 15 16  2  0
 15 19  1  0
 17 13  1  0
 18 17  2  0
 20 17  1  0
 21 20  1  0
 21 22  1  1
 23 22  1  0
 24 23  1  0
 24 25  2  0
 26 21  1  0
 26 27  1  0
 28 24  1  0
 29 26  2  0
M  END
$$$$
