RDE.pdb
     RDKit          3D

 29 28  0  0  1  0  0  0  0  0999 V2000
    8.2003  -11.5470   19.4198 N   0  0  0  0  0  0  0  0  0  0  0  0
    8.0824  -12.8411   18.8408 C   0  0  0  0  0  0  0  0  0  0  0  0
    8.5004  -13.0081   17.6217 N   0  0  0  0  0  0  0  0  0  0  0  0
    7.5224  -13.9030   19.5864 N   0  0  0  0  0  0  0  0  0  0  0  0
    7.2212  -13.7388   20.9858 C   0  0  0  0  0  0  0  0  0  0  0  0
    6.6057  -15.0163   21.4626 C   0  0  0  0  0  0  0  0  0  0  0  0
    7.5515  -15.8730   22.2793 C   0  0  0  0  0  0  0  0  0  0  0  0
    8.5903  -16.4166   21.3186 C   0  0  2  0  0  0  0  0  0  0  0  0
    7.8952  -17.3019   20.4013 N   0  0  0  0  0  0  0  0  0  0  0  0
    9.6982  -17.1120   22.0213 C   0  0  0  0  0  0  0  0  0  0  0  0
    9.5634  -18.2887   22.4122 O   0  0  0  0  0  0  0  0  0  0  0  0
    8.4736  -13.9418   17.1908 N   0  0  0  0  0  0  0  0  0  0  0  0
   10.9121  -16.4551   22.2547 C   0  0  2  0  0  0  0  0  0  0  0  0
   12.0306  -17.0183   23.0005 C   0  0  0  0  0  0  0  0  0  0  0  0
   13.1354  -15.9977   22.8432 C   0  0  0  0  0  0  0  0  0  0  0  0
   13.6408  -16.1027   21.4532 O   0  0  0  0  0  0  0  0  0  0  0  0
   13.7611  -17.2614   20.9230 C   0  0  0  0  0  0  0  0  0  0  0  0
   11.6090  -17.2545   24.3830 O   0  0  0  0  0  0  0  0  0  0  0  0
   11.1450  -16.2961   25.0497 O   0  0  0  0  0  0  0  0  0  0  0  0
   13.9980  -15.0069   20.6856 N   0  0  0  0  0  0  0  0  0  0  0  0
   11.7207  -18.5237   24.9491 C   0  0  1  0  0  0  0  0  0  0  0  0
   11.3388  -18.7478   26.3563 C   0  0  0  0  0  0  0  0  0  0  0  0
   10.8665  -20.1589   26.3953 C   0  0  0  0  0  0  0  0  0  0  0  0
   10.5376  -20.6508   27.7579 C   0  0  0  0  0  0  0  0  0  0  0  0
   10.0245  -22.0434   27.7834 O   0  0  0  0  0  0  0  0  0  0  0  0
    9.0105  -22.3058   27.0690 C   0  0  0  0  0  0  0  0  0  0  0  0
   12.3853  -18.3108   27.2445 O   0  0  0  0  0  0  0  0  0  0  0  0
   12.1202  -17.9270   28.5712 O   0  0  0  0  0  0  0  0  0  0  0  0
   10.5638  -23.0660   28.5201 O   0  0  0  0  0  0  0  0  0  0  0  0
  2  3  2  0
  2  1  1  0
  4  2  1  0
  5  4  1  0
  6  5  1  0
  7  6  1  0
  8  7  1  0
  8  9  1  6
 10  8  1  0
 10 11  2  0
 12 10  1  0
 13 12  1  0
 13 14  1  6
 14 15  1  0
 15 16  2  0
 15 19  1  0
 17 13  1  0
 18 17  2  0
 20 17  1  0
 21 20  1  0
 21 22  1  1
 23 22  1  0
 24 23  1  0
 24 25  2  0
 26 21  1  0
 26 27  1  0
 28 24  1  0
 29 26  2  0
M  END
$$$$
