RDE.pdb
     RDKit          3D

 29 28  0  0  1  0  0  0  0  0999 V2000
    7.4738  -13.1021   16.7047 N   0  0  0  0  0  0  0  0  0  0  0  0
    8.4277  -14.1092   17.0206 C   0  0  0  0  0  0  0  0  0  0  0  0
    8.8015  -14.9184   16.0750 N   0  0  0  0  0  0  0  0  0  0  0  0
    8.9423  -14.2115   18.3328 N   0  0  0  0  0  0  0  0  0  0  0  0
    8.3929  -13.4160   19.4011 C   0  0  0  0  0  0  0  0  0  0  0  0
    7.1217  -14.0727   19.8381 C   0  0  0  0  0  0  0  0  0  0  0  0
    7.2974  -14.9948   21.0273 C   0  0  0  0  0  0  0  0  0  0  0  0
    8.7824  -15.0445   21.3273 C   0  0  2  0  0  0  0  0  0  0  0  0
    9.4272  -15.6412   20.1712 N   0  0  0  0  0  0  0  0  0  0  0  0
    9.0806  -15.7961   22.5727 C   0  0  0  0  0  0  0  0  0  0  0  0
    8.6290  -15.4125   23.6701 O   0  0  0  0  0  0  0  0  0  0  0  0
    9.5134  -15.6369   16.2627 N   0  0  0  0  0  0  0  0  0  0  0  0
    9.8741  -16.9486   22.5319 C   0  0  1  0  0  0  0  0  0  0  0  0
   10.2386  -17.7470   23.6956 C   0  0  0  0  0  0  0  0  0  0  0  0
   11.1271  -18.8360   23.1373 C   0  0  0  0  0  0  0  0  0  0  0  0
   11.1933  -18.6440   21.6685 O   0  0  0  0  0  0  0  0  0  0  0  0
   11.5262  -17.4976   21.2073 C   0  0  0  0  0  0  0  0  0  0  0  0
   10.8827  -16.8794   24.6842 O   0  0  0  0  0  0  0  0  0  0  0  0
   11.2523  -15.7302   24.3361 O   0  0  0  0  0  0  0  0  0  0  0  0
   10.9093  -19.6444   20.7541 N   0  0  0  0  0  0  0  0  0  0  0  0
   11.0816  -17.3229   25.9909 C   0  0  1  0  0  0  0  0  0  0  0  0
   11.0312  -16.3704   27.1163 C   0  0  0  0  0  0  0  0  0  0  0  0
    9.8821  -15.4786   26.8000 C   0  0  0  0  0  0  0  0  0  0  0  0
    9.6586  -14.4007   27.7976 C   0  0  0  0  0  0  0  0  0  0  0  0
    8.4624  -13.5670   27.5193 O   0  0  0  0  0  0  0  0  0  0  0  0
    7.7395  -13.8938   26.5304 C   0  0  0  0  0  0  0  0  0  0  0  0
   11.0805  -17.0668   28.3764 O   0  0  0  0  0  0  0  0  0  0  0  0
   11.7794  -16.5509   29.4823 O   0  0  0  0  0  0  0  0  0  0  0  0
    8.0809  -12.4717   28.2501 O   0  0  0  0  0  0  0  0  0  0  0  0
  2  3  2  0
  2  1  1  0
  4  2  1  0
  5  4  1  0
  6  5  1  0
  7  6  1  0
  8  7  1  0
  8  9  1  6
 10  8  1  0
 10 11  2  0
 12 10  1  0
 13 12  1  0
 13 14  1  6
 14 15  1  0
 15 16  2  0
 15 19  1  0
 17 13  1  0
 18 17  2  0
 20 17  1  0
 21 20  1  0
 21 22  1  6
 23 22  1  0
 24 23  1  0
 24 25  2  0
 26 21  1  0
 26 27  1  0
 28 24  1  0
 29 26  2  0
M  END
$$$$
