YHK.pdb
     RDKit          3D

 32 33  0  0  1  0  0  0  0  0999 V2000
   18.9912  -10.8836  -23.4136 O   0  0  0  0  0  0  0  0  0  0  0  0
   19.1538  -12.0456  -22.6622 C   0  0  0  0  0  0  0  0  0  0  0  0
   19.3864  -13.2365  -23.3301 C   0  0  0  0  0  0  0  0  0  0  0  0
   19.5426  -14.3665  -22.5566 C   0  0  0  0  0  0  0  0  0  0  0  0
   19.4745  -14.3345  -21.1908 C   0  0  0  0  0  0  0  0  0  0  0  0
   19.6371  -15.5243  -20.3340 C   0  0  0  0  0  0  0  0  0  0  0  0
   21.0027  -15.5319  -19.6350 C   0  0  2  0  0  0  0  0  0  0  0  0
   21.9849  -15.8279  -20.6606 N   0  0  0  0  0  0  0  0  0  0  0  0
   20.9677  -16.6710  -18.6840 C   0  0  0  0  0  0  0  0  0  0  0  0
   21.0628  -17.8728  -19.0830 O   0  0  0  0  0  0  0  0  0  0  0  0
   19.2397  -13.1217  -20.5546 C   0  0  0  0  0  0  0  0  0  0  0  0
   19.0777  -11.9655  -21.2977 C   0  0  0  0  0  0  0  0  0  0  0  0
   20.8268  -16.5054  -17.2726 N   0  0  0  0  0  0  0  0  0  0  0  0
   20.9629  -17.6143  -16.3497 C   0  0  1  0  0  0  0  0  0  0  0  0
   22.1214  -17.2944  -15.4006 C   0  0  0  0  0  0  0  0  0  0  0  0
   23.4186  -17.6540  -15.9913 C   0  0  0  0  0  0  0  0  0  0  0  0
   23.6918  -18.2096  -17.2016 C   0  0  0  0  0  0  0  0  0  0  0  0
   25.0280  -18.3687  -17.3317 N   0  0  0  0  0  0  0  0  0  0  0  0
   25.5538  -17.9057  -16.1934 C   0  0  0  0  0  0  0  0  0  0  0  0
   24.6049  -17.4645  -15.3583 N   0  0  0  0  0  0  0  0  0  0  0  0
   19.7458  -17.7737  -15.5077 C   0  0  0  0  0  0  0  0  0  0  0  0
   19.2729  -16.7412  -14.9690 O   0  0  0  0  0  0  0  0  0  0  0  0
   19.1053  -18.9993  -15.2851 N   0  0  0  0  0  0  0  0  0  0  0  0
   17.9346  -19.1193  -14.4526 C   0  0  1  0  0  0  0  0  0  0  0  0
   17.2979  -20.4645  -14.4988 C   0  0  0  0  0  0  0  0  0  0  0  0
   16.0555  -20.6619  -13.7235 C   0  0  0  0  0  0  0  0  0  0  0  0
   15.3896  -21.9807  -13.8788 C   0  0  0  0  0  0  0  0  0  0  0  0
   14.1600  -22.0470  -12.9936 C   0  0  0  0  0  0  0  0  0  0  0  0
   13.4119  -23.2514  -13.1519 N   0  0  0  0  0  0  0  0  0  0  0  0
   18.1252  -18.5863  -13.1017 C   0  0  0  0  0  0  0  0  0  0  0  0
   19.1735  -18.7600  -12.4329 O   0  0  0  0  0  0  0  0  0  0  0  0
   17.1131  -17.8506  -12.5103 O   0  0  0  0  0  0  0  0  0  0  0  0
  2  1  1  0
  3  2  2  0
  4  3  1  0
  5 11  1  0
  5  4  2  0
  6  5  1  0
  7  8  1  6
  7  6  1  0
  9 13  1  0
  9  7  1  0
 10  9  2  0
 11 12  2  0
 12  2  1  0
 14 13  1  0
 14 15  1  1
 15 16  1  0
 16 17  2  0
 17 18  1  0
 19 18  1  0
 20 16  1  0
 20 19  2  0
 21 14  1  0
 22 21  2  0
 23 21  1  0
 24 30  1  0
 24 23  1  0
 24 25  1  1
 26 25  1  0
 27 26  1  0
 27 28  1  0
 29 28  1  0
 30 32  1  0
 31 30  2  0
M  END
$$$$
