YHK.pdb
     RDKit          3D

 32 33  0  0  1  0  0  0  0  0999 V2000
   28.8687  -18.2794   -4.4779 O   0  0  0  0  0  0  0  0  0  0  0  0
   28.4403  -18.9318   -5.6319 C   0  0  0  0  0  0  0  0  0  0  0  0
   29.1987  -18.8025   -6.7837 C   0  0  0  0  0  0  0  0  0  0  0  0
   28.7463  -19.4608   -7.9069 C   0  0  0  0  0  0  0  0  0  0  0  0
   27.6033  -20.2123   -7.9051 C   0  0  0  0  0  0  0  0  0  0  0  0
   27.0918  -20.9290   -9.0887 C   0  0  0  0  0  0  0  0  0  0  0  0
   25.8325  -20.2577   -9.6520 C   0  0  2  0  0  0  0  0  0  0  0  0
   24.7315  -20.6812   -8.8078 N   0  0  0  0  0  0  0  0  0  0  0  0
   25.6308  -20.8382  -11.0031 C   0  0  0  0  0  0  0  0  0  0  0  0
   25.2975  -22.0533  -11.1613 O   0  0  0  0  0  0  0  0  0  0  0  0
   26.8676  -20.3196   -6.7313 C   0  0  0  0  0  0  0  0  0  0  0  0
   27.2902  -19.6729   -5.5831 C   0  0  0  0  0  0  0  0  0  0  0  0
   25.7932  -20.0877  -12.2072 N   0  0  0  0  0  0  0  0  0  0  0  0
   25.4673  -20.6380  -13.5075 C   0  0  1  0  0  0  0  0  0  0  0  0
   24.5878  -19.6204  -14.2397 C   0  0  0  0  0  0  0  0  0  0  0  0
   23.1634  -19.8194  -13.9353 C   0  0  0  0  0  0  0  0  0  0  0  0
   22.5690  -20.7750  -13.1727 C   0  0  0  0  0  0  0  0  0  0  0  0
   21.2316  -20.5775  -13.1667 N   0  0  0  0  0  0  0  0  0  0  0  0
   21.0279  -19.4990  -13.9295 C   0  0  0  0  0  0  0  0  0  0  0  0
   22.1791  -19.0143  -14.4115 N   0  0  0  0  0  0  0  0  0  0  0  0
   26.6875  -20.8313  -14.3379 C   0  0  0  0  0  0  0  0  0  0  0  0
   27.5112  -19.8833  -14.3891 O   0  0  0  0  0  0  0  0  0  0  0  0
   26.9649  -22.0002  -15.0579 N   0  0  0  0  0  0  0  0  0  0  0  0
   28.1190  -22.1256  -15.9126 C   0  0  1  0  0  0  0  0  0  0  0  0
   28.6966  -23.4976  -15.9473 C   0  0  0  0  0  0  0  0  0  0  0  0
   29.8910  -23.7174  -16.7891 C   0  0  0  0  0  0  0  0  0  0  0  0
   30.3947  -25.1132  -16.8590 C   0  0  0  0  0  0  0  0  0  0  0  0
   31.7183  -25.1493  -17.5984 C   0  0  0  0  0  0  0  0  0  0  0  0
   32.2745  -26.4590  -17.7012 N   0  0  0  0  0  0  0  0  0  0  0  0
   27.9354  -21.5130  -17.2303 C   0  0  0  0  0  0  0  0  0  0  0  0
   26.8470  -21.5348  -17.8559 O   0  0  0  0  0  0  0  0  0  0  0  0
   29.0006  -20.8716  -17.8380 O   0  0  0  0  0  0  0  0  0  0  0  0
  2  1  1  0
  3  2  2  0
  4  3  1  0
  5 11  1  0
  5  4  2  0
  6  5  1  0
  7  8  1  1
  7  6  1  0
  9 13  1  0
  9  7  1  0
 10  9  2  0
 11 12  2  0
 12  2  1  0
 14 13  1  0
 14 15  1  6
 15 16  1  0
 16 17  2  0
 17 18  1  0
 19 18  1  0
 20 16  1  0
 20 19  2  0
 21 14  1  0
 22 21  2  0
 23 21  1  0
 24 30  1  0
 24 23  1  0
 24 25  1  6
 26 25  1  0
 27 26  1  0
 27 28  1  0
 29 28  1  0
 30 32  1  0
 31 30  2  0
M  END
$$$$
