YHK.pdb
     RDKit          3D

 32 33  0  0  1  0  0  0  0  0999 V2000
   28.5773  -28.4133  -18.6793 O   0  0  0  0  0  0  0  0  0  0  0  0
   27.9999  -27.3464  -17.9941 C   0  0  0  0  0  0  0  0  0  0  0  0
   26.8835  -26.7365  -18.5419 C   0  0  0  0  0  0  0  0  0  0  0  0
   26.3377  -25.6845  -17.8383 C   0  0  0  0  0  0  0  0  0  0  0  0
   26.8595  -25.2476  -16.6518 C   0  0  0  0  0  0  0  0  0  0  0  0
   26.3002  -24.1257  -15.8741 C   0  0  0  0  0  0  0  0  0  0  0  0
   26.6181  -22.7745  -16.5275 C   0  0  2  0  0  0  0  0  0  0  0  0
   28.0105  -22.4955  -16.2320 N   0  0  0  0  0  0  0  0  0  0  0  0
   25.7837  -21.7724  -15.8185 C   0  0  0  0  0  0  0  0  0  0  0  0
   26.0404  -21.4179  -14.6265 O   0  0  0  0  0  0  0  0  0  0  0  0
   27.9803  -25.8834  -16.1321 C   0  0  0  0  0  0  0  0  0  0  0  0
   28.5564  -26.9435  -16.8100 C   0  0  0  0  0  0  0  0  0  0  0  0
   24.6484  -21.1415  -16.4123 N   0  0  0  0  0  0  0  0  0  0  0  0
   23.8113  -20.2139  -15.6782 C   0  0  1  0  0  0  0  0  0  0  0  0
   23.6085  -18.9732  -16.5527 C   0  0  0  0  0  0  0  0  0  0  0  0
   22.8097  -17.9503  -15.8622 C   0  0  0  0  0  0  0  0  0  0  0  0
   22.2417  -17.9867  -14.6277 C   0  0  0  0  0  0  0  0  0  0  0  0
   21.5951  -16.8222  -14.3961 N   0  0  0  0  0  0  0  0  0  0  0  0
   21.7787  -16.0883  -15.4980 C   0  0  0  0  0  0  0  0  0  0  0  0
   22.5113  -16.7430  -16.4074 N   0  0  0  0  0  0  0  0  0  0  0  0
   22.4616  -20.7862  -15.4203 C   0  0  0  0  0  0  0  0  0  0  0  0
   21.9166  -21.4310  -16.3514 O   0  0  0  0  0  0  0  0  0  0  0  0
   21.7729  -20.6468  -14.2088 N   0  0  0  0  0  0  0  0  0  0  0  0
   20.4601  -21.2038  -13.9977 C   0  0  1  0  0  0  0  0  0  0  0  0
   20.4166  -22.2646  -12.9537 C   0  0  0  0  0  0  0  0  0  0  0  0
   19.1560  -23.0194  -12.7955 C   0  0  0  0  0  0  0  0  0  0  0  0
   19.1881  -24.1535  -11.8366 C   0  0  0  0  0  0  0  0  0  0  0  0
   17.8836  -24.9240  -11.9025 C   0  0  0  0  0  0  0  0  0  0  0  0
   17.8132  -26.0003  -10.9688 N   0  0  0  0  0  0  0  0  0  0  0  0
   19.4115  -20.1888  -13.8729 C   0  0  0  0  0  0  0  0  0  0  0  0
   19.5959  -19.0683  -13.3372 O   0  0  0  0  0  0  0  0  0  0  0  0
   18.1445  -20.4541  -14.3625 O   0  0  0  0  0  0  0  0  0  0  0  0
  2  1  1  0
  3  2  2  0
  4  3  1  0
  5 11  1  0
  5  4  2  0
  6  5  1  0
  7  8  1  1
  7  6  1  0
  9 13  1  0
  9  7  1  0
 10  9  2  0
 11 12  2  0
 12  2  1  0
 14 13  1  0
 14 15  1  6
 15 16  1  0
 16 17  2  0
 17 18  1  0
 19 18  1  0
 20 16  1  0
 20 19  2  0
 21 14  1  0
 22 21  2  0
 23 21  1  0
 24 30  1  0
 24 23  1  0
 24 25  1  1
 26 25  1  0
 27 26  1  0
 27 28  1  0
 29 28  1  0
 30 32  1  0
 31 30  2  0
M  END
$$$$
