YHK.pdb
     RDKit          3D

 32 33  0  0  1  0  0  0  0  0999 V2000
   33.3364   -1.6965  -12.1064 O   0  0  0  0  0  0  0  0  0  0  0  0
   33.2050   -2.5279  -13.2167 C   0  0  0  0  0  0  0  0  0  0  0  0
   34.1781   -2.4736  -14.2010 C   0  0  0  0  0  0  0  0  0  0  0  0
   34.0173   -3.3091  -15.2852 C   0  0  0  0  0  0  0  0  0  0  0  0
   32.9528   -4.1601  -15.4029 C   0  0  0  0  0  0  0  0  0  0  0  0
   32.7510   -5.0665  -16.5491 C   0  0  0  0  0  0  0  0  0  0  0  0
   33.0261   -6.5266  -16.1670 C   0  0  2  0  0  0  0  0  0  0  0  0
   34.4678   -6.6620  -16.0823 N   0  0  0  0  0  0  0  0  0  0  0  0
   32.5499   -7.3441  -17.3107 C   0  0  0  0  0  0  0  0  0  0  0  0
   33.2583   -7.5064  -18.3520 O   0  0  0  0  0  0  0  0  0  0  0  0
   31.9958   -4.1876  -14.3959 C   0  0  0  0  0  0  0  0  0  0  0  0
   32.1231   -3.3633  -13.2916 C   0  0  0  0  0  0  0  0  0  0  0  0
   31.2809   -7.9991  -17.3271 N   0  0  0  0  0  0  0  0  0  0  0  0
   30.7974   -8.7122  -18.4923 C   0  0  1  0  0  0  0  0  0  0  0  0
   30.7978  -10.2071  -18.1601 C   0  0  0  0  0  0  0  0  0  0  0  0
   32.1587  -10.7631  -18.1733 C   0  0  0  0  0  0  0  0  0  0  0  0
   32.9855  -11.0465  -17.1321 C   0  0  0  0  0  0  0  0  0  0  0  0
   34.1492  -11.5459  -17.6054 N   0  0  0  0  0  0  0  0  0  0  0  0
   34.0153  -11.5601  -18.9352 C   0  0  0  0  0  0  0  0  0  0  0  0
   32.8194  -11.0917  -19.3131 N   0  0  0  0  0  0  0  0  0  0  0  0
   29.3920   -8.3410  -18.8128 C   0  0  0  0  0  0  0  0  0  0  0  0
   28.6021   -8.1716  -17.8499 O   0  0  0  0  0  0  0  0  0  0  0  0
   28.9068   -8.1721  -20.1157 N   0  0  0  0  0  0  0  0  0  0  0  0
   27.5365   -7.8180  -20.3901 C   0  0  1  0  0  0  0  0  0  0  0  0
   26.5652   -8.9132  -20.1174 C   0  0  0  0  0  0  0  0  0  0  0  0
   26.5541  -10.0657  -21.0422 C   0  0  0  0  0  0  0  0  0  0  0  0
   25.6291  -11.1749  -20.6947 C   0  0  0  0  0  0  0  0  0  0  0  0
   25.7159  -12.2684  -21.7419 C   0  0  0  0  0  0  0  0  0  0  0  0
   24.7955  -13.3363  -21.5239 N   0  0  0  0  0  0  0  0  0  0  0  0
   27.1513   -6.5167  -19.8394 C   0  0  0  0  0  0  0  0  0  0  0  0
   26.1013   -5.9117  -20.1680 O   0  0  0  0  0  0  0  0  0  0  0  0
   27.9694   -5.9017  -18.9077 O   0  0  0  0  0  0  0  0  0  0  0  0
  2  1  1  0
  3  2  2  0
  4  3  1  0
  5 11  1  0
  5  4  2  0
  6  5  1  0
  7  8  1  6
  7  6  1  0
  9 13  1  0
  9  7  1  0
 10  9  2  0
 11 12  2  0
 12  2  1  0
 14 13  1  0
 14 15  1  1
 15 16  1  0
 16 17  2  0
 17 18  1  0
 19 18  1  0
 20 16  1  0
 20 19  2  0
 21 14  1  0
 22 21  2  0
 23 21  1  0
 24 30  1  0
 24 23  1  0
 24 25  1  1
 26 25  1  0
 27 26  1  0
 27 28  1  0
 29 28  1  0
 30 32  1  0
 31 30  2  0
M  END
$$$$
