YHK.pdb
     RDKit          3D

 32 33  0  0  1  0  0  0  0  0999 V2000
   35.3045   -3.4049   -6.0537 O   0  0  0  0  0  0  0  0  0  0  0  0
   36.0087   -4.6069   -6.0767 C   0  0  0  0  0  0  0  0  0  0  0  0
   36.7180   -4.9784   -4.9464 C   0  0  0  0  0  0  0  0  0  0  0  0
   37.4030   -6.1729   -5.0032 C   0  0  0  0  0  0  0  0  0  0  0  0
   37.3956   -6.9696   -6.1150 C   0  0  0  0  0  0  0  0  0  0  0  0
   38.1174   -8.2527   -6.2087 C   0  0  0  0  0  0  0  0  0  0  0  0
   39.2684   -8.1782   -7.2203 C   0  0  2  0  0  0  0  0  0  0  0  0
   39.9307   -9.4682   -7.1811 N   0  0  0  0  0  0  0  0  0  0  0  0
   40.2089   -7.1579   -6.6934 C   0  0  0  0  0  0  0  0  0  0  0  0
   40.9538   -7.3947   -5.6926 O   0  0  0  0  0  0  0  0  0  0  0  0
   36.6730   -6.5651   -7.2307 C   0  0  0  0  0  0  0  0  0  0  0  0
   35.9724   -5.3717   -7.2115 C   0  0  0  0  0  0  0  0  0  0  0  0
   40.3455   -5.8549   -7.2617 N   0  0  0  0  0  0  0  0  0  0  0  0
   41.2831   -4.8813   -6.7393 C   0  0  1  0  0  0  0  0  0  0  0  0
   41.9613   -4.1982   -7.9303 C   0  0  0  0  0  0  0  0  0  0  0  0
   43.0590   -5.0149   -8.4681 C   0  0  0  0  0  0  0  0  0  0  0  0
   43.5484   -6.2031   -8.0246 C   0  0  0  0  0  0  0  0  0  0  0  0
   44.5653   -6.5967   -8.8238 N   0  0  0  0  0  0  0  0  0  0  0  0
   44.6825   -5.6383   -9.7481 C   0  0  0  0  0  0  0  0  0  0  0  0
   43.7838   -4.6638   -9.5614 N   0  0  0  0  0  0  0  0  0  0  0  0
   40.5871   -3.8150   -5.9684 C   0  0  0  0  0  0  0  0  0  0  0  0
   39.4129   -3.5240   -6.3097 O   0  0  0  0  0  0  0  0  0  0  0  0
   41.1635   -3.1253   -4.8943 N   0  0  0  0  0  0  0  0  0  0  0  0
   40.4664   -2.0843   -4.1811 C   0  0  1  0  0  0  0  0  0  0  0  0
   39.4285   -2.5896   -3.2406 C   0  0  0  0  0  0  0  0  0  0  0  0
   38.7064   -1.5963   -2.4186 C   0  0  0  0  0  0  0  0  0  0  0  0
   37.7700   -2.1433   -1.4034 C   0  0  0  0  0  0  0  0  0  0  0  0
   37.0675   -1.0089   -0.6827 C   0  0  0  0  0  0  0  0  0  0  0  0
   36.1104   -1.4535    0.2771 N   0  0  0  0  0  0  0  0  0  0  0  0
   41.3590   -1.0729   -3.6105 C   0  0  0  0  0  0  0  0  0  0  0  0
   42.5441   -1.3111   -3.2709 O   0  0  0  0  0  0  0  0  0  0  0  0
   40.8964    0.2183   -3.4261 O   0  0  0  0  0  0  0  0  0  0  0  0
  2  1  1  0
  3  2  2  0
  4  3  1  0
  5 11  1  0
  5  4  2  0
  6  5  1  0
  7  8  1  1
  7  6  1  0
  9 13  1  0
  9  7  1  0
 10  9  2  0
 11 12  2  0
 12  2  1  0
 14 13  1  0
 14 15  1  6
 15 16  1  0
 16 17  2  0
 17 18  1  0
 19 18  1  0
 20 16  1  0
 20 19  2  0
 21 14  1  0
 22 21  2  0
 23 21  1  0
 24 30  1  0
 24 23  1  0
 24 25  1  1
 26 25  1  0
 27 26  1  0
 27 28  1  0
 29 28  1  0
 30 32  1  0
 31 30  2  0
M  END
$$$$
