TMR.pdb
     RDKit          3D

 27 26  0  0  1  0  0  0  0  0999 V2000
    6.8218  -15.7540   20.0072 C   0  0  0  0  0  0  0  0  0  0  0  0
    7.7790  -14.7729   19.3736 C   0  0  1  0  0  0  0  0  0  0  0  0
    7.3546  -14.5258   18.0488 O   0  0  0  0  0  0  0  0  0  0  0  0
    7.6767  -13.4259   20.0857 C   0  0  2  0  0  0  0  0  0  0  0  0
    8.5210  -12.4567   19.3600 N   0  0  0  0  0  0  0  0  0  0  0  0
    8.2565  -13.5382   21.4236 C   0  0  0  0  0  0  0  0  0  0  0  0
    9.5119  -13.6730   21.5561 O   0  0  0  0  0  0  0  0  0  0  0  0
    5.3210  -11.3115   26.5124 C   0  0  0  0  0  0  0  0  0  0  0  0
    6.8126  -11.8786   27.3253 S   0  0  0  0  0  0  0  0  0  0  0  0
    7.7042  -13.1371   26.3419 C   0  0  0  0  0  0  0  0  0  0  0  0
    7.3488  -12.9135   24.9122 C   0  0  0  0  0  0  0  0  0  0  0  0
    8.1323  -13.7049   23.8973 C   0  0  2  0  0  0  0  0  0  0  0  0
    7.4858  -13.4996   22.5848 N   0  0  0  0  0  0  0  0  0  0  0  0
    8.1509  -15.1573   24.1272 C   0  0  0  0  0  0  0  0  0  0  0  0
    7.4377  -15.9562   23.4233 O   0  0  0  0  0  0  0  0  0  0  0  0
   10.6981  -20.6383   20.7636 N   0  0  0  0  0  0  0  0  0  0  0  0
   11.9227  -20.7706   21.4583 C   0  0  0  0  0  0  0  0  0  0  0  0
   12.4926  -21.9342   21.5370 N   0  0  0  0  0  0  0  0  0  0  0  0
   12.5769  -19.6778   22.0892 N   0  0  0  0  0  0  0  0  0  0  0  0
   11.9631  -18.3795   22.2488 C   0  0  0  0  0  0  0  0  0  0  0  0
   11.0640  -18.3459   23.4814 C   0  0  0  0  0  0  0  0  0  0  0  0
   10.4132  -17.0331   23.6701 C   0  0  0  0  0  0  0  0  0  0  0  0
    9.4720  -17.1010   24.8742 C   0  0  2  0  0  0  0  0  0  0  0  0
    8.9582  -15.7452   25.1284 N   0  0  0  0  0  0  0  0  0  0  0  0
   10.2568  -17.5188   26.0447 C   0  0  0  0  0  0  0  0  0  0  0  0
   10.3180  -18.6522   26.5514 O   0  0  0  0  0  0  0  0  0  0  0  0
   11.0457  -16.5510   26.6957 O   0  0  0  0  0  0  0  0  0  0  0  0
  2  1  1  1
  3  2  1  0
  4  2  1  0
  4  5  1  6
  6  4  1  0
  7  6  2  0
  9 10  1  0
  9  8  1  0
 12 11  1  1
 11 10  1  0
 12 13  1  0
 13  6  1  0
 14 15  2  0
 14 12  1  0
 16 17  1  0
 17 18  2  0
 19 20  1  0
 19 17  1  0
 21 20  1  0
 23 22  1  6
 22 21  1  0
 23 24  1  0
 24 14  1  0
 25 23  1  0
 26 25  2  0
 27 25  1  0
M  END
$$$$
