TMR.pdb
     RDKit          3D

 27 26  0  0  1  0  0  0  0  0999 V2000
    7.8026  -16.0532   19.5788 C   0  0  0  0  0  0  0  0  0  0  0  0
    8.5773  -14.8953   18.9961 C   0  0  1  0  0  0  0  0  0  0  0  0
    8.2575  -14.7883   17.6241 O   0  0  0  0  0  0  0  0  0  0  0  0
    8.0946  -13.5896   19.6237 C   0  0  2  0  0  0  0  0  0  0  0  0
    8.8189  -12.4752   18.9814 N   0  0  0  0  0  0  0  0  0  0  0  0
    8.4799  -13.5566   21.0341 C   0  0  0  0  0  0  0  0  0  0  0  0
    9.6944  -13.3646   21.3503 O   0  0  0  0  0  0  0  0  0  0  0  0
    5.8664  -10.6662   26.2801 C   0  0  0  0  0  0  0  0  0  0  0  0
    5.7815  -12.4229   26.6176 S   0  0  0  0  0  0  0  0  0  0  0  0
    7.1334  -13.3520   25.8083 C   0  0  0  0  0  0  0  0  0  0  0  0
    6.9475  -13.2099   24.3366 C   0  0  0  0  0  0  0  0  0  0  0  0
    8.0403  -13.7760   23.4674 C   0  0  2  0  0  0  0  0  0  0  0  0
    7.5624  -13.7246   22.0704 N   0  0  0  0  0  0  0  0  0  0  0  0
    8.3789  -15.1813   23.7378 C   0  0  0  0  0  0  0  0  0  0  0  0
    7.5514  -16.1289   23.4930 O   0  0  0  0  0  0  0  0  0  0  0  0
   13.7791  -15.6699   19.5330 N   0  0  0  0  0  0  0  0  0  0  0  0
   14.3271  -15.3230   20.7895 C   0  0  0  0  0  0  0  0  0  0  0  0
   15.1864  -14.3532   20.8684 N   0  0  0  0  0  0  0  0  0  0  0  0
   13.9833  -15.9920   21.9955 N   0  0  0  0  0  0  0  0  0  0  0  0
   12.8842  -16.9251   22.0915 C   0  0  0  0  0  0  0  0  0  0  0  0
   11.9735  -16.5805   23.2665 C   0  0  0  0  0  0  0  0  0  0  0  0
   10.8043  -17.4790   23.3574 C   0  0  0  0  0  0  0  0  0  0  0  0
    9.8777  -16.9957   24.4745 C   0  0  2  0  0  0  0  0  0  0  0  0
    9.6321  -15.5584   24.2735 N   0  0  0  0  0  0  0  0  0  0  0  0
   10.5792  -17.1645   25.7552 C   0  0  0  0  0  0  0  0  0  0  0  0
   10.9295  -16.2760   26.5508 O   0  0  0  0  0  0  0  0  0  0  0  0
   10.9101  -18.4706   26.1645 O   0  0  0  0  0  0  0  0  0  0  0  0
  2  1  1  1
  3  2  1  0
  4  2  1  0
  4  5  1  6
  6  4  1  0
  7  6  2  0
  9 10  1  0
  9  8  1  0
 12 11  1  1
 11 10  1  0
 12 13  1  0
 13  6  1  0
 14 15  2  0
 14 12  1  0
 16 17  1  0
 17 18  2  0
 19 20  1  0
 19 17  1  0
 21 20  1  0
 23 22  1  6
 22 21  1  0
 23 24  1  0
 24 14  1  0
 25 23  1  0
 26 25  2  0
 27 25  1  0
M  END
$$$$
