TMR.pdb
     RDKit          3D

 27 26  0  0  1  0  0  0  0  0999 V2000
    6.9804  -19.3848   22.9804 C   0  0  0  0  0  0  0  0  0  0  0  0
    6.1360  -18.7837   21.8821 C   0  0  1  0  0  0  0  0  0  0  0  0
    5.0849  -19.6796   21.5847 O   0  0  0  0  0  0  0  0  0  0  0  0
    5.4521  -17.5191   22.3970 C   0  0  2  0  0  0  0  0  0  0  0  0
    4.5969  -16.9870   21.3179 N   0  0  0  0  0  0  0  0  0  0  0  0
    6.4601  -16.4908   22.6521 C   0  0  0  0  0  0  0  0  0  0  0  0
    7.0309  -15.9132   21.6762 O   0  0  0  0  0  0  0  0  0  0  0  0
    8.2389  -11.7100   27.4057 C   0  0  0  0  0  0  0  0  0  0  0  0
    6.6599  -12.4580   27.0129 S   0  0  0  0  0  0  0  0  0  0  0  0
    6.6579  -13.2519   25.3650 C   0  0  0  0  0  0  0  0  0  0  0  0
    7.6272  -14.3824   25.4183 C   0  0  0  0  0  0  0  0  0  0  0  0
    7.8964  -15.0937   24.1176 C   0  0  2  0  0  0  0  0  0  0  0  0
    6.8309  -16.1014   23.9385 N   0  0  0  0  0  0  0  0  0  0  0  0
    9.1711  -15.8251   24.0659 C   0  0  0  0  0  0  0  0  0  0  0  0
    9.3054  -16.9767   24.6120 O   0  0  0  0  0  0  0  0  0  0  0  0
   14.9355  -16.6054   18.5895 N   0  0  0  0  0  0  0  0  0  0  0  0
   14.7848  -15.2477   18.9546 C   0  0  0  0  0  0  0  0  0  0  0  0
   14.8618  -14.3264   18.0433 N   0  0  0  0  0  0  0  0  0  0  0  0
   14.5501  -14.8270   20.2918 N   0  0  0  0  0  0  0  0  0  0  0  0
   14.7594  -15.6859   21.4348 C   0  0  0  0  0  0  0  0  0  0  0  0
   13.4802  -16.4335   21.8003 C   0  0  0  0  0  0  0  0  0  0  0  0
   12.3712  -15.5204   22.1449 C   0  0  0  0  0  0  0  0  0  0  0  0
   11.3881  -16.2410   23.0693 C   0  0  2  0  0  0  0  0  0  0  0  0
   10.3077  -15.3005   23.4080 N   0  0  0  0  0  0  0  0  0  0  0  0
   12.0972  -16.5878   24.3092 C   0  0  0  0  0  0  0  0  0  0  0  0
   12.1215  -15.9465   25.3737 O   0  0  0  0  0  0  0  0  0  0  0  0
   12.8473  -17.7793   24.3347 O   0  0  0  0  0  0  0  0  0  0  0  0
  2  1  1  1
  3  2  1  0
  4  2  1  0
  4  5  1  6
  6  4  1  0
  7  6  2  0
  9 10  1  0
  9  8  1  0
 12 11  1  1
 11 10  1  0
 12 13  1  0
 13  6  1  0
 14 15  2  0
 14 12  1  0
 16 17  1  0
 17 18  2  0
 19 20  1  0
 19 17  1  0
 21 20  1  0
 23 22  1  6
 22 21  1  0
 23 24  1  0
 24 14  1  0
 25 23  1  0
 26 25  2  0
 27 25  1  0
M  END
$$$$
