TMR.pdb
     RDKit          3D

 27 26  0  0  1  0  0  0  0  0999 V2000
    7.0879  -15.8372   19.8175 C   0  0  0  0  0  0  0  0  0  0  0  0
    7.8972  -14.6709   19.3024 C   0  0  1  0  0  0  0  0  0  0  0  0
    7.4559  -14.3622   17.9963 O   0  0  0  0  0  0  0  0  0  0  0  0
    7.5895  -13.4279   20.1344 C   0  0  2  0  0  0  0  0  0  0  0  0
    8.2436  -12.2710   19.4919 N   0  0  0  0  0  0  0  0  0  0  0  0
    8.2114  -13.5583   21.4515 C   0  0  0  0  0  0  0  0  0  0  0  0
    9.4697  -13.4357   21.5681 O   0  0  0  0  0  0  0  0  0  0  0  0
    5.8413  -11.0175   26.4904 C   0  0  0  0  0  0  0  0  0  0  0  0
    6.5342  -12.4142   27.3714 S   0  0  0  0  0  0  0  0  0  0  0  0
    7.7335  -13.3505   26.3562 C   0  0  0  0  0  0  0  0  0  0  0  0
    7.2952  -13.2353   24.9366 C   0  0  0  0  0  0  0  0  0  0  0  0
    8.1741  -13.9012   23.9098 C   0  0  2  0  0  0  0  0  0  0  0  0
    7.4779  -13.8113   22.6098 N   0  0  0  0  0  0  0  0  0  0  0  0
    8.4265  -15.3305   24.1465 C   0  0  0  0  0  0  0  0  0  0  0  0
    7.7912  -16.2386   23.5029 O   0  0  0  0  0  0  0  0  0  0  0  0
   15.0633  -19.6088   21.4011 N   0  0  0  0  0  0  0  0  0  0  0  0
   13.9317  -20.4120   21.6724 C   0  0  0  0  0  0  0  0  0  0  0  0
   13.8379  -21.5900   21.1352 N   0  0  0  0  0  0  0  0  0  0  0  0
   12.8685  -19.9919   22.5172 N   0  0  0  0  0  0  0  0  0  0  0  0
   12.8395  -18.6985   23.1607 C   0  0  0  0  0  0  0  0  0  0  0  0
   11.6303  -18.5721   24.0830 C   0  0  0  0  0  0  0  0  0  0  0  0
   11.0182  -17.2286   24.0310 C   0  0  0  0  0  0  0  0  0  0  0  0
    9.8291  -17.1743   24.9918 C   0  0  2  0  0  0  0  0  0  0  0  0
    9.3838  -15.7746   25.0878 N   0  0  0  0  0  0  0  0  0  0  0  0
   10.2951  -17.5974   26.3201 C   0  0  0  0  0  0  0  0  0  0  0  0
   10.4040  -16.9000   27.3433 O   0  0  0  0  0  0  0  0  0  0  0  0
   10.6708  -18.9432   26.4949 O   0  0  0  0  0  0  0  0  0  0  0  0
  2  1  1  1
  3  2  1  0
  4  2  1  0
  4  5  1  6
  6  4  1  0
  7  6  2  0
  9 10  1  0
  9  8  1  0
 12 11  1  1
 11 10  1  0
 12 13  1  0
 13  6  1  0
 14 15  2  0
 14 12  1  0
 16 17  1  0
 17 18  2  0
 19 20  1  0
 19 17  1  0
 21 20  1  0
 23 22  1  6
 22 21  1  0
 23 24  1  0
 24 14  1  0
 25 23  1  0
 26 25  2  0
 27 25  1  0
M  END
$$$$
