TMR.pdb
     RDKit          3D

 27 26  0  0  1  0  0  0  0  0999 V2000
    6.7638  -16.5859   20.0410 C   0  0  0  0  0  0  0  0  0  0  0  0
    7.6726  -15.6005   19.3458 C   0  0  1  0  0  0  0  0  0  0  0  0
    7.3294  -15.5648   17.9758 O   0  0  0  0  0  0  0  0  0  0  0  0
    7.3935  -14.1922   19.8663 C   0  0  2  0  0  0  0  0  0  0  0  0
    8.1433  -13.2354   19.0287 N   0  0  0  0  0  0  0  0  0  0  0  0
    7.9398  -14.0557   21.2159 C   0  0  0  0  0  0  0  0  0  0  0  0
    9.1965  -13.9836   21.3819 O   0  0  0  0  0  0  0  0  0  0  0  0
    6.1584  -11.5407   28.4707 C   0  0  0  0  0  0  0  0  0  0  0  0
    5.7532  -12.0335   26.7973 S   0  0  0  0  0  0  0  0  0  0  0  0
    7.1299  -12.9192   25.9812 C   0  0  0  0  0  0  0  0  0  0  0  0
    6.7487  -13.1077   24.5531 C   0  0  0  0  0  0  0  0  0  0  0  0
    7.7573  -13.8073   23.6791 C   0  0  2  0  0  0  0  0  0  0  0  0
    7.1346  -13.9952   22.3525 N   0  0  0  0  0  0  0  0  0  0  0  0
    8.1546  -15.1448   24.1434 C   0  0  0  0  0  0  0  0  0  0  0  0
    7.3702  -16.1524   24.0339 O   0  0  0  0  0  0  0  0  0  0  0  0
   14.9437  -18.0294   23.2265 N   0  0  0  0  0  0  0  0  0  0  0  0
   14.6436  -19.3238   23.7101 C   0  0  0  0  0  0  0  0  0  0  0  0
   15.6096  -20.1513   23.9693 N   0  0  0  0  0  0  0  0  0  0  0  0
   13.3153  -19.7789   23.9316 N   0  0  0  0  0  0  0  0  0  0  0  0
   12.1670  -19.2076   23.2662 C   0  0  0  0  0  0  0  0  0  0  0  0
   11.1651  -18.6573   24.2772 C   0  0  0  0  0  0  0  0  0  0  0  0
   10.8008  -17.2520   24.0039 C   0  0  0  0  0  0  0  0  0  0  0  0
    9.7672  -16.7859   25.0309 C   0  0  2  0  0  0  0  0  0  0  0  0
    9.4198  -15.3884   24.7262 N   0  0  0  0  0  0  0  0  0  0  0  0
   10.3950  -16.8213   26.3594 C   0  0  0  0  0  0  0  0  0  0  0  0
   10.6463  -17.8217   27.0531 O   0  0  0  0  0  0  0  0  0  0  0  0
   10.7714  -15.5993   26.9492 O   0  0  0  0  0  0  0  0  0  0  0  0
  2  1  1  1
  3  2  1  0
  4  2  1  0
  4  5  1  6
  6  4  1  0
  7  6  2  0
  9 10  1  0
  9  8  1  0
 12 11  1  1
 11 10  1  0
 12 13  1  0
 13  6  1  0
 14 15  2  0
 14 12  1  0
 16 17  1  0
 17 18  2  0
 19 20  1  0
 19 17  1  0
 21 20  1  0
 23 22  1  6
 22 21  1  0
 23 24  1  0
 24 14  1  0
 25 23  1  0
 26 25  2  0
 27 25  1  0
M  END
$$$$
