TMR.pdb
     RDKit          3D

 27 26  0  0  1  0  0  0  0  0999 V2000
    9.9485  -16.1169   20.2243 C   0  0  0  0  0  0  0  0  0  0  0  0
    8.6554  -15.3386   20.2756 C   0  0  1  0  0  0  0  0  0  0  0  0
    8.0425  -15.4049   19.0044 O   0  0  0  0  0  0  0  0  0  0  0  0
    7.6808  -16.0283   21.2276 C   0  0  2  0  0  0  0  0  0  0  0  0
    6.3474  -15.4240   21.0382 N   0  0  0  0  0  0  0  0  0  0  0  0
    8.0604  -15.7343   22.6090 C   0  0  0  0  0  0  0  0  0  0  0  0
    9.2400  -15.9867   23.0048 O   0  0  0  0  0  0  0  0  0  0  0  0
    6.9696  -11.2088   27.5331 C   0  0  0  0  0  0  0  0  0  0  0  0
    6.5705  -11.1283   25.7891 S   0  0  0  0  0  0  0  0  0  0  0  0
    7.3528  -12.4783   24.8344 C   0  0  0  0  0  0  0  0  0  0  0  0
    6.9325  -13.7633   25.4610 C   0  0  0  0  0  0  0  0  0  0  0  0
    7.5967  -15.0105   24.9378 C   0  0  2  0  0  0  0  0  0  0  0  0
    7.1763  -15.1758   23.5311 N   0  0  0  0  0  0  0  0  0  0  0  0
    7.2169  -16.2500   25.6320 C   0  0  0  0  0  0  0  0  0  0  0  0
    6.1511  -16.8912   25.3232 O   0  0  0  0  0  0  0  0  0  0  0  0
    6.4457  -22.4914   22.9034 N   0  0  0  0  0  0  0  0  0  0  0  0
    5.8778  -22.6944   24.1823 C   0  0  0  0  0  0  0  0  0  0  0  0
    4.6708  -23.1619   24.2810 N   0  0  0  0  0  0  0  0  0  0  0  0
    6.5690  -22.4077   25.3908 N   0  0  0  0  0  0  0  0  0  0  0  0
    7.6074  -21.4074   25.4846 C   0  0  0  0  0  0  0  0  0  0  0  0
    7.0203  -20.0002   25.4219 C   0  0  0  0  0  0  0  0  0  0  0  0
    8.0538  -18.9512   25.5400 C   0  0  0  0  0  0  0  0  0  0  0  0
    7.9149  -18.2510   26.8930 C   0  0  2  0  0  0  0  0  0  0  0  0
    8.0084  -16.7995   26.6670 N   0  0  0  0  0  0  0  0  0  0  0  0
    9.0490  -18.6560   27.7357 C   0  0  0  0  0  0  0  0  0  0  0  0
    9.0215  -19.3720   28.7515 O   0  0  0  0  0  0  0  0  0  0  0  0
   10.3342  -18.2010   27.3837 O   0  0  0  0  0  0  0  0  0  0  0  0
  2  1  1  6
  3  2  1  0
  4  2  1  0
  4  5  1  6
  6  4  1  0
  7  6  2  0
  9 10  1  0
  9  8  1  0
 12 11  1  1
 11 10  1  0
 12 13  1  0
 13  6  1  0
 14 15  2  0
 14 12  1  0
 16 17  1  0
 17 18  2  0
 19 20  1  0
 19 17  1  0
 21 20  1  0
 23 22  1  6
 22 21  1  0
 23 24  1  0
 24 14  1  0
 25 23  1  0
 26 25  2  0
 27 25  1  0
M  END
$$$$
