TMR.pdb
     RDKit          3D

 27 26  0  0  1  0  0  0  0  0999 V2000
    7.2828  -16.0539   19.6581 C   0  0  0  0  0  0  0  0  0  0  0  0
    8.0269  -14.9357   18.9679 C   0  0  1  0  0  0  0  0  0  0  0  0
    7.5383  -14.8214   17.6473 O   0  0  0  0  0  0  0  0  0  0  0  0
    7.6880  -13.6060   19.6379 C   0  0  2  0  0  0  0  0  0  0  0  0
    8.3646  -12.5284   18.8895 N   0  0  0  0  0  0  0  0  0  0  0  0
    8.2612  -13.5794   20.9830 C   0  0  0  0  0  0  0  0  0  0  0  0
    9.4785  -13.2560   21.1421 O   0  0  0  0  0  0  0  0  0  0  0  0
    6.1966  -10.8644   26.6197 C   0  0  0  0  0  0  0  0  0  0  0  0
    6.2322  -12.6410   26.8426 S   0  0  0  0  0  0  0  0  0  0  0  0
    7.5656  -13.4359   25.8751 C   0  0  0  0  0  0  0  0  0  0  0  0
    7.1902  -13.3311   24.4368 C   0  0  0  0  0  0  0  0  0  0  0  0
    8.1820  -13.8826   23.4456 C   0  0  2  0  0  0  0  0  0  0  0  0
    7.5229  -13.8933   22.1233 N   0  0  0  0  0  0  0  0  0  0  0  0
    8.6116  -15.2648   23.7055 C   0  0  0  0  0  0  0  0  0  0  0  0
    7.7672  -16.2261   23.7796 O   0  0  0  0  0  0  0  0  0  0  0  0
   15.5434  -14.3877   21.6494 N   0  0  0  0  0  0  0  0  0  0  0  0
   14.6713  -14.7191   20.5869 C   0  0  0  0  0  0  0  0  0  0  0  0
   14.8375  -14.1654   19.4246 N   0  0  0  0  0  0  0  0  0  0  0  0
   13.5997  -15.6428   20.7241 N   0  0  0  0  0  0  0  0  0  0  0  0
   13.4087  -16.4562   21.9030 C   0  0  0  0  0  0  0  0  0  0  0  0
   11.9552  -16.4172   22.3663 C   0  0  0  0  0  0  0  0  0  0  0  0
   11.7181  -17.2628   23.5542 C   0  0  0  0  0  0  0  0  0  0  0  0
   10.2975  -17.0271   24.0705 C   0  0  2  0  0  0  0  0  0  0  0  0
    9.9733  -15.6040   23.8798 N   0  0  0  0  0  0  0  0  0  0  0  0
   10.2828  -17.3095   25.5129 C   0  0  0  0  0  0  0  0  0  0  0  0
   10.1754  -16.4935   26.4445 O   0  0  0  0  0  0  0  0  0  0  0  0
   10.4009  -18.6496   25.9289 O   0  0  0  0  0  0  0  0  0  0  0  0
  2  1  1  1
  3  2  1  0
  4  2  1  0
  4  5  1  6
  6  4  1  0
  7  6  2  0
  9 10  1  0
  9  8  1  0
 12 11  1  1
 11 10  1  0
 12 13  1  0
 13  6  1  0
 14 15  2  0
 14 12  1  0
 16 17  1  0
 17 18  2  0
 19 20  1  0
 19 17  1  0
 21 20  1  0
 23 22  1  1
 22 21  1  0
 23 24  1  0
 24 14  1  0
 25 23  1  0
 26 25  2  0
 27 25  1  0
M  END
$$$$
