TMR.pdb
     RDKit          3D

 27 26  0  0  1  0  0  0  0  0999 V2000
    8.1991  -12.3112   19.4117 C   0  0  0  0  0  0  0  0  0  0  0  0
    7.4157  -13.6015   19.4516 C   0  0  1  0  0  0  0  0  0  0  0  0
    7.0689  -13.9556   18.1286 O   0  0  0  0  0  0  0  0  0  0  0  0
    8.3160  -14.7313   19.9465 C   0  0  2  0  0  0  0  0  0  0  0  0
    7.5570  -15.9946   19.8625 N   0  0  0  0  0  0  0  0  0  0  0  0
    8.6079  -14.5339   21.3659 C   0  0  0  0  0  0  0  0  0  0  0  0
    9.7592  -14.1344   21.7219 O   0  0  0  0  0  0  0  0  0  0  0  0
    5.1731  -11.4749   26.3858 C   0  0  0  0  0  0  0  0  0  0  0  0
    6.8259  -12.1634   26.4224 S   0  0  0  0  0  0  0  0  0  0  0  0
    6.8516  -13.9334   25.9619 C   0  0  0  0  0  0  0  0  0  0  0  0
    6.7912  -14.0036   24.4746 C   0  0  0  0  0  0  0  0  0  0  0  0
    8.0265  -14.5143   23.7791 C   0  0  2  0  0  0  0  0  0  0  0  0
    7.6660  -14.7627   22.3681 N   0  0  0  0  0  0  0  0  0  0  0  0
    8.5495  -15.7850   24.3030 C   0  0  0  0  0  0  0  0  0  0  0  0
    7.9187  -16.8882   24.1372 O   0  0  0  0  0  0  0  0  0  0  0  0
   15.9516  -19.7549   22.4084 N   0  0  0  0  0  0  0  0  0  0  0  0
   15.1752  -20.5765   23.2579 C   0  0  0  0  0  0  0  0  0  0  0  0
   15.4443  -21.8434   23.3456 N   0  0  0  0  0  0  0  0  0  0  0  0
   14.0934  -20.0822   24.0361 N   0  0  0  0  0  0  0  0  0  0  0  0
   13.5840  -18.7360   23.9093 C   0  0  0  0  0  0  0  0  0  0  0  0
   12.3891  -18.5128   24.8319 C   0  0  0  0  0  0  0  0  0  0  0  0
   11.7802  -17.1785   24.6547 C   0  0  0  0  0  0  0  0  0  0  0  0
   10.3578  -17.1902   25.2176 C   0  0  2  0  0  0  0  0  0  0  0  0
    9.7734  -15.8557   25.0079 N   0  0  0  0  0  0  0  0  0  0  0  0
   10.4413  -17.4298   26.6654 C   0  0  0  0  0  0  0  0  0  0  0  0
   10.1633  -16.6380   27.5825 O   0  0  0  0  0  0  0  0  0  0  0  0
   10.8826  -18.6925   27.1057 O   0  0  0  0  0  0  0  0  0  0  0  0
  2  1  1  6
  3  2  1  0
  4  2  1  0
  4  5  1  1
  6  4  1  0
  7  6  2  0
  9 10  1  0
  9  8  1  0
 12 11  1  1
 11 10  1  0
 12 13  1  0
 13  6  1  0
 14 15  2  0
 14 12  1  0
 16 17  1  0
 17 18  2  0
 19 20  1  0
 19 17  1  0
 21 20  1  0
 23 22  1  1
 22 21  1  0
 23 24  1  0
 24 14  1  0
 25 23  1  0
 26 25  2  0
 27 25  1  0
M  END
$$$$
