TMR.pdb
     RDKit          3D

 27 26  0  0  1  0  0  0  0  0999 V2000
    7.5941  -16.5110   20.3174 C   0  0  0  0  0  0  0  0  0  0  0  0
    8.3492  -15.4157   19.6028 C   0  0  1  0  0  0  0  0  0  0  0  0
    7.9762  -15.4306   18.2403 O   0  0  0  0  0  0  0  0  0  0  0  0
    7.8959  -14.0554   20.1282 C   0  0  2  0  0  0  0  0  0  0  0  0
    8.5689  -13.0084   19.3345 N   0  0  0  0  0  0  0  0  0  0  0  0
    8.3690  -13.8823   21.5011 C   0  0  0  0  0  0  0  0  0  0  0  0
    9.5830  -13.5783   21.7148 O   0  0  0  0  0  0  0  0  0  0  0  0
    5.4060  -10.8504   25.9501 C   0  0  0  0  0  0  0  0  0  0  0  0
    6.0153  -12.1383   27.0351 S   0  0  0  0  0  0  0  0  0  0  0  0
    7.3639  -13.1098   26.2713 C   0  0  0  0  0  0  0  0  0  0  0  0
    7.0950  -13.1629   24.8066 C   0  0  0  0  0  0  0  0  0  0  0  0
    8.1022  -13.9074   23.9690 C   0  0  2  0  0  0  0  0  0  0  0  0
    7.5370  -14.0331   22.6098 N   0  0  0  0  0  0  0  0  0  0  0  0
    8.3938  -15.2750   24.4244 C   0  0  0  0  0  0  0  0  0  0  0  0
    7.4883  -16.1817   24.4447 O   0  0  0  0  0  0  0  0  0  0  0  0
   11.7764  -18.2303   19.6640 N   0  0  0  0  0  0  0  0  0  0  0  0
   12.8428  -18.6649   20.4845 C   0  0  0  0  0  0  0  0  0  0  0  0
   13.7432  -19.4627   19.9966 N   0  0  0  0  0  0  0  0  0  0  0  0
   12.9859  -18.2695   21.8423 N   0  0  0  0  0  0  0  0  0  0  0  0
   12.0839  -18.6998   22.8859 C   0  0  0  0  0  0  0  0  0  0  0  0
   11.2932  -17.5215   23.4472 C   0  0  0  0  0  0  0  0  0  0  0  0
   11.2166  -17.5442   24.9224 C   0  0  0  0  0  0  0  0  0  0  0  0
    9.8464  -17.0301   25.3681 C   0  0  2  0  0  0  0  0  0  0  0  0
    9.6845  -15.6600   24.8552 N   0  0  0  0  0  0  0  0  0  0  0  0
    9.8358  -16.9722   26.8368 C   0  0  0  0  0  0  0  0  0  0  0  0
    9.9227  -15.9625   27.5566 O   0  0  0  0  0  0  0  0  0  0  0  0
    9.7133  -18.1810   27.5486 O   0  0  0  0  0  0  0  0  0  0  0  0
  2  1  1  1
  3  2  1  0
  4  2  1  0
  4  5  1  6
  6  4  1  0
  7  6  2  0
  9 10  1  0
  9  8  1  0
 12 11  1  1
 11 10  1  0
 12 13  1  0
 13  6  1  0
 14 15  2  0
 14 12  1  0
 16 17  1  0
 17 18  2  0
 19 20  1  0
 19 17  1  0
 21 20  1  0
 23 22  1  1
 22 21  1  0
 23 24  1  0
 24 14  1  0
 25 23  1  0
 26 25  2  0
 27 25  1  0
M  END
$$$$
