TMR.pdb
     RDKit          3D

 27 26  0  0  1  0  0  0  0  0999 V2000
    6.7744  -14.9972   18.2665 C   0  0  0  0  0  0  0  0  0  0  0  0
    7.4850  -14.9793   19.5988 C   0  0  1  0  0  0  0  0  0  0  0  0
    8.8633  -15.1929   19.3737 O   0  0  0  0  0  0  0  0  0  0  0  0
    7.3899  -13.5833   20.2105 C   0  0  2  0  0  0  0  0  0  0  0  0
    8.1909  -12.6620   19.3806 N   0  0  0  0  0  0  0  0  0  0  0  0
    8.0225  -13.5861   21.5290 C   0  0  0  0  0  0  0  0  0  0  0  0
    9.2486  -13.2759   21.6394 O   0  0  0  0  0  0  0  0  0  0  0  0
    7.2844  -11.0892   27.6846 C   0  0  0  0  0  0  0  0  0  0  0  0
    5.9768  -11.5793   26.5634 S   0  0  0  0  0  0  0  0  0  0  0  0
    6.6175  -12.0787   24.9246 C   0  0  0  0  0  0  0  0  0  0  0  0
    7.1014  -13.4826   25.0487 C   0  0  0  0  0  0  0  0  0  0  0  0
    8.0553  -13.9572   23.9833 C   0  0  2  0  0  0  0  0  0  0  0  0
    7.3328  -13.9147   22.6953 N   0  0  0  0  0  0  0  0  0  0  0  0
    8.5268  -15.3404   24.1482 C   0  0  0  0  0  0  0  0  0  0  0  0
    7.7613  -16.3414   23.9153 O   0  0  0  0  0  0  0  0  0  0  0  0
   14.6324  -19.8990   20.5029 N   0  0  0  0  0  0  0  0  0  0  0  0
   14.4814  -20.5515   21.7483 C   0  0  0  0  0  0  0  0  0  0  0  0
   15.1342  -21.6493   21.9802 N   0  0  0  0  0  0  0  0  0  0  0  0
   13.6360  -20.0627   22.7810 N   0  0  0  0  0  0  0  0  0  0  0  0
   12.7790  -18.9110   22.6168 C   0  0  0  0  0  0  0  0  0  0  0  0
   12.0781  -18.5581   23.9256 C   0  0  0  0  0  0  0  0  0  0  0  0
   11.6591  -17.1424   23.9780 C   0  0  0  0  0  0  0  0  0  0  0  0
   10.2524  -17.0504   24.5719 C   0  0  2  0  0  0  0  0  0  0  0  0
    9.8457  -15.6358   24.5641 N   0  0  0  0  0  0  0  0  0  0  0  0
   10.3163  -17.4995   25.9701 C   0  0  0  0  0  0  0  0  0  0  0  0
   10.2935  -16.7958   26.9945 O   0  0  0  0  0  0  0  0  0  0  0  0
   10.4145  -18.8818   26.2201 O   0  0  0  0  0  0  0  0  0  0  0  0
  2  1  1  6
  3  2  1  0
  4  2  1  0
  4  5  1  6
  6  4  1  0
  7  6  2  0
  9 10  1  0
  9  8  1  0
 12 11  1  1
 11 10  1  0
 12 13  1  0
 13  6  1  0
 14 15  2  0
 14 12  1  0
 16 17  1  0
 17 18  2  0
 19 20  1  0
 19 17  1  0
 21 20  1  0
 23 22  1  1
 22 21  1  0
 23 24  1  0
 24 14  1  0
 25 23  1  0
 26 25  2  0
 27 25  1  0
M  END
$$$$
