TMR.pdb
     RDKit          3D

 27 26  0  0  1  0  0  0  0  0999 V2000
    4.2227  -21.0735   23.7896 C   0  0  0  0  0  0  0  0  0  0  0  0
    4.7469  -19.7017   23.4378 C   0  0  1  0  0  0  0  0  0  0  0  0
    4.0206  -18.7419   24.1776 O   0  0  0  0  0  0  0  0  0  0  0  0
    6.1911  -19.5680   23.9158 C   0  0  2  0  0  0  0  0  0  0  0  0
    6.2004  -19.6781   25.3878 N   0  0  0  0  0  0  0  0  0  0  0  0
    6.6811  -18.2240   23.6123 C   0  0  0  0  0  0  0  0  0  0  0  0
    6.9372  -17.9039   22.4107 O   0  0  0  0  0  0  0  0  0  0  0  0
    6.9065  -12.0212   26.3228 C   0  0  0  0  0  0  0  0  0  0  0  0
    6.9406  -13.4312   27.4263 S   0  0  0  0  0  0  0  0  0  0  0  0
    7.4403  -14.9697   26.5725 C   0  0  0  0  0  0  0  0  0  0  0  0
    6.8441  -14.9308   25.2074 C   0  0  0  0  0  0  0  0  0  0  0  0
    7.3894  -15.9215   24.2117 C   0  0  2  0  0  0  0  0  0  0  0  0
    6.8815  -17.2550   24.5945 N   0  0  0  0  0  0  0  0  0  0  0  0
    8.8559  -16.0284   24.1865 C   0  0  0  0  0  0  0  0  0  0  0  0
    9.4757  -16.9064   24.8847 O   0  0  0  0  0  0  0  0  0  0  0  0
    8.4654  -12.0184   19.0171 N   0  0  0  0  0  0  0  0  0  0  0  0
    8.6997  -13.1962   18.2706 C   0  0  0  0  0  0  0  0  0  0  0  0
    7.8241  -13.5849   17.3946 N   0  0  0  0  0  0  0  0  0  0  0  0
    9.8642  -13.9954   18.4305 N   0  0  0  0  0  0  0  0  0  0  0  0
   10.7726  -13.8477   19.5444 C   0  0  0  0  0  0  0  0  0  0  0  0
   10.5832  -14.9718   20.5590 C   0  0  0  0  0  0  0  0  0  0  0  0
   11.4185  -14.7916   21.7641 C   0  0  0  0  0  0  0  0  0  0  0  0
   10.9196  -15.7210   22.8720 C   0  0  2  0  0  0  0  0  0  0  0  0
    9.6538  -15.1758   23.3889 N   0  0  0  0  0  0  0  0  0  0  0  0
   11.9046  -15.7016   23.9628 C   0  0  0  0  0  0  0  0  0  0  0  0
   13.0915  -16.0683   23.9195 O   0  0  0  0  0  0  0  0  0  0  0  0
   11.4945  -15.2171   25.2198 O   0  0  0  0  0  0  0  0  0  0  0  0
  2  1  1  1
  3  2  1  0
  4  2  1  0
  4  5  1  1
  6  4  1  0
  7  6  2  0
  9 10  1  0
  9  8  1  0
 12 11  1  1
 11 10  1  0
 12 13  1  0
 13  6  1  0
 14 15  2  0
 14 12  1  0
 16 17  1  0
 17 18  2  0
 19 20  1  0
 19 17  1  0
 21 20  1  0
 23 22  1  6
 22 21  1  0
 23 24  1  0
 24 14  1  0
 25 23  1  0
 26 25  2  0
 27 25  1  0
M  END
$$$$
