QGN.pdb
     RDKit          3D

 22 21  0  0  1  0  0  0  0  0999 V2000
   16.0301  -16.3741  -18.4599 N   0  0  0  0  0  0  0  0  0  0  0  0
   15.8823  -15.4409  -17.3725 C   0  0  0  0  0  0  0  0  0  0  0  0
   14.7220  -15.0235  -17.1287 O   0  0  0  0  0  0  0  0  0  0  0  0
   17.0626  -15.0027  -16.5845 C   0  0  0  0  0  0  0  0  0  0  0  0
   17.4776  -13.6527  -17.0873 C   0  0  0  0  0  0  0  0  0  0  0  0
   18.7297  -13.1406  -16.4003 C   0  0  2  0  0  0  0  0  0  0  0  0
   18.5226  -13.0993  -14.9744 N   0  0  0  0  0  0  0  0  0  0  0  0
   18.9876  -11.7887  -16.9416 C   0  0  0  0  0  0  0  0  0  0  0  0
   19.4678  -11.6843  -18.0900 O   0  0  0  0  0  0  0  0  0  0  0  0
   18.7006  -10.6327  -16.1844 N   0  0  0  0  0  0  0  0  0  0  0  0
   18.7738   -9.2893  -16.7020 C   0  0  0  0  0  0  0  0  0  0  0  0
   19.5029   -8.3854  -15.7526 C   0  0  0  0  0  0  0  0  0  0  0  0
   19.4929   -8.5744  -14.5121 O   0  0  0  0  0  0  0  0  0  0  0  0
   23.2777   -3.4696  -15.8338 N   0  0  0  0  0  0  0  0  0  0  0  0
   22.5478   -4.5446  -15.2618 C   0  0  0  0  0  0  0  0  0  0  0  0
   22.5816   -4.6244  -14.0032 O   0  0  0  0  0  0  0  0  0  0  0  0
   21.8038   -5.4976  -16.1018 C   0  0  0  0  0  0  0  0  0  0  0  0
   20.9060   -6.3775  -15.2810 C   0  0  2  0  0  0  0  0  0  0  0  0
   20.2386   -7.2699  -16.2373 N   0  0  0  0  0  0  0  0  0  0  0  0
   19.9149   -5.6247  -14.4952 C   0  0  0  0  0  0  0  0  0  0  0  0
   18.8945   -5.1054  -15.0356 O   0  0  0  0  0  0  0  0  0  0  0  0
   20.0560   -5.4530  -13.1307 O   0  0  0  0  0  0  0  0  0  0  0  0
  1  2  1  0
  2  4  1  0
  2  3  2  0
  4  5  1  0
  5  6  1  0
  6  8  1  0
  6  7  1  1
  8  9  2  0
 10  8  1  0
 10 11  1  0
 11 12  1  0
 12 19  1  0
 12 13  2  0
 15 14  1  0
 15 17  1  0
 16 15  2  0
 18 17  1  6
 18 20  1  0
 19 18  1  0
 20 22  1  0
 21 20  2  0
M  END
$$$$
