QGN.pdb
     RDKit          3D

 22 21  0  0  1  0  0  0  0  0999 V2000
   18.8372  -16.1976  -14.4400 N   0  0  0  0  0  0  0  0  0  0  0  0
   17.9713  -16.4689  -15.5588 C   0  0  0  0  0  0  0  0  0  0  0  0
   17.0732  -17.3326  -15.3925 O   0  0  0  0  0  0  0  0  0  0  0  0
   18.1477  -15.7485  -16.8456 C   0  0  0  0  0  0  0  0  0  0  0  0
   19.2934  -14.7946  -16.6869 C   0  0  0  0  0  0  0  0  0  0  0  0
   18.8597  -13.4635  -16.1023 C   0  0  2  0  0  0  0  0  0  0  0  0
   17.7175  -12.9617  -16.8244 N   0  0  0  0  0  0  0  0  0  0  0  0
   20.0148  -12.5485  -16.2282 C   0  0  0  0  0  0  0  0  0  0  0  0
   21.1191  -12.9108  -15.7705 O   0  0  0  0  0  0  0  0  0  0  0  0
   19.8832  -11.2890  -16.8513 N   0  0  0  0  0  0  0  0  0  0  0  0
   20.9301  -10.2992  -16.9013 C   0  0  0  0  0  0  0  0  0  0  0  0
   20.5660   -9.0889  -16.0935 C   0  0  0  0  0  0  0  0  0  0  0  0
   19.3822   -8.8441  -15.7565 O   0  0  0  0  0  0  0  0  0  0  0  0
   20.8831   -4.5007  -13.6852 N   0  0  0  0  0  0  0  0  0  0  0  0
   22.1604   -5.1200  -13.6629 C   0  0  0  0  0  0  0  0  0  0  0  0
   23.0403   -4.5413  -12.9685 O   0  0  0  0  0  0  0  0  0  0  0  0
   22.4229   -6.3607  -14.4108 C   0  0  0  0  0  0  0  0  0  0  0  0
   21.1668   -6.9238  -15.0101 C   0  0  2  0  0  0  0  0  0  0  0  0
   21.5666   -8.1684  -15.6789 N   0  0  0  0  0  0  0  0  0  0  0  0
   20.5165   -6.0089  -15.9623 C   0  0  0  0  0  0  0  0  0  0  0  0
   19.6050   -5.2092  -15.5982 O   0  0  0  0  0  0  0  0  0  0  0  0
   20.8747   -5.9834  -17.2973 O   0  0  0  0  0  0  0  0  0  0  0  0
  1  2  1  0
  2  4  1  0
  2  3  2  0
  4  5  1  0
  5  6  1  0
  6  8  1  0
  6  7  1  6
  8  9  2  0
 10  8  1  0
 10 11  1  0
 11 12  1  0
 12 19  1  0
 12 13  2  0
 15 14  1  0
 15 17  1  0
 16 15  2  0
 18 17  1  6
 18 20  1  0
 19 18  1  0
 20 22  1  0
 21 20  2  0
M  END
$$$$
