QGN.pdb
     RDKit          3D

 22 21  0  0  1  0  0  0  0  0999 V2000
   29.0717  -21.7306  -17.0070 N   0  0  0  0  0  0  0  0  0  0  0  0
   28.2409  -20.5871  -16.7294 C   0  0  0  0  0  0  0  0  0  0  0  0
   28.8152  -19.4744  -16.6188 O   0  0  0  0  0  0  0  0  0  0  0  0
   26.7704  -20.7364  -16.5836 C   0  0  0  0  0  0  0  0  0  0  0  0
   26.3949  -20.2818  -15.2052 C   0  0  0  0  0  0  0  0  0  0  0  0
   26.8425  -21.2580  -14.1335 C   0  0  2  0  0  0  0  0  0  0  0  0
   26.3161  -22.5697  -14.4168 N   0  0  0  0  0  0  0  0  0  0  0  0
   26.3259  -20.7421  -12.8474 C   0  0  0  0  0  0  0  0  0  0  0  0
   26.5954  -19.5667  -12.5213 O   0  0  0  0  0  0  0  0  0  0  0  0
   25.5428  -21.5526  -11.9978 N   0  0  0  0  0  0  0  0  0  0  0  0
   24.9367  -21.0909  -10.7741 C   0  0  0  0  0  0  0  0  0  0  0  0
   23.4993  -20.7211  -10.9911 C   0  0  0  0  0  0  0  0  0  0  0  0
   22.7490  -20.3793  -10.0449 O   0  0  0  0  0  0  0  0  0  0  0  0
   19.1477  -19.1590  -13.2941 N   0  0  0  0  0  0  0  0  0  0  0  0
   20.2740  -18.9412  -14.1305 C   0  0  0  0  0  0  0  0  0  0  0  0
   20.0582  -18.2799  -15.1828 O   0  0  0  0  0  0  0  0  0  0  0  0
   21.6040  -19.4630  -13.7749 C   0  0  0  0  0  0  0  0  0  0  0  0
   21.5675  -20.2516  -12.4979 C   0  0  2  0  0  0  0  0  0  0  0  0
   22.9349  -20.7470  -12.2954 N   0  0  0  0  0  0  0  0  0  0  0  0
   20.6105  -21.3694  -12.5324 C   0  0  0  0  0  0  0  0  0  0  0  0
   19.4086  -21.2264  -12.1608 O   0  0  0  0  0  0  0  0  0  0  0  0
   20.9838  -22.6252  -12.9735 O   0  0  0  0  0  0  0  0  0  0  0  0
  1  2  1  0
  2  4  1  0
  2  3  2  0
  4  5  1  0
  5  6  1  0
  6  8  1  0
  6  7  1  6
  8  9  2  0
 10  8  1  0
 10 11  1  0
 11 12  1  0
 12 19  1  0
 12 13  2  0
 15 14  1  0
 15 17  1  0
 16 15  2  0
 18 17  1  6
 18 20  1  0
 19 18  1  0
 20 22  1  0
 21 20  2  0
M  END
$$$$
