QGN.pdb
     RDKit          3D

 22 21  0  0  1  0  0  0  0  0999 V2000
   24.0926  -19.9937   -9.9190 N   0  0  0  0  0  0  0  0  0  0  0  0
   25.1157  -20.7662   -9.2618 C   0  0  0  0  0  0  0  0  0  0  0  0
   24.7825  -21.3953   -8.2258 O   0  0  0  0  0  0  0  0  0  0  0  0
   26.4992  -20.8052   -9.8006 C   0  0  0  0  0  0  0  0  0  0  0  0
   26.5784  -19.8332  -10.9393 C   0  0  0  0  0  0  0  0  0  0  0  0
   26.1673  -20.4566  -12.2601 C   0  0  2  0  0  0  0  0  0  0  0  0
   27.0266  -21.5740  -12.5613 N   0  0  0  0  0  0  0  0  0  0  0  0
   26.2898  -19.3976  -13.2851 C   0  0  0  0  0  0  0  0  0  0  0  0
   25.4928  -18.4364  -13.2521 O   0  0  0  0  0  0  0  0  0  0  0  0
   27.2837  -19.4617  -14.2852 N   0  0  0  0  0  0  0  0  0  0  0  0
   27.4664  -18.4621  -15.3077 C   0  0  0  0  0  0  0  0  0  0  0  0
   26.3569  -18.5138  -16.3157 C   0  0  0  0  0  0  0  0  0  0  0  0
   26.4836  -19.1029  -17.4165 O   0  0  0  0  0  0  0  0  0  0  0  0
   20.5850  -18.9626  -16.9835 N   0  0  0  0  0  0  0  0  0  0  0  0
   21.5473  -17.9209  -17.0504 C   0  0  0  0  0  0  0  0  0  0  0  0
   21.3071  -17.0027  -17.8815 O   0  0  0  0  0  0  0  0  0  0  0  0
   22.7453  -17.9290  -16.1947 C   0  0  0  0  0  0  0  0  0  0  0  0
   24.0042  -18.0511  -17.0037 C   0  0  2  0  0  0  0  0  0  0  0  0
   25.1089  -17.8873  -16.0502 N   0  0  0  0  0  0  0  0  0  0  0  0
   24.0994  -17.0558  -18.0840 C   0  0  0  0  0  0  0  0  0  0  0  0
   24.4787  -15.8685  -17.8616 O   0  0  0  0  0  0  0  0  0  0  0  0
   23.7789  -17.3760  -19.3901 O   0  0  0  0  0  0  0  0  0  0  0  0
  1  2  1  0
  2  4  1  0
  2  3  2  0
  4  5  1  0
  5  6  1  0
  6  8  1  0
  6  7  1  6
  8  9  2  0
 10  8  1  0
 10 11  1  0
 11 12  1  0
 12 19  1  0
 12 13  2  0
 15 14  1  0
 15 17  1  0
 16 15  2  0
 18 17  1  1
 18 20  1  0
 19 18  1  0
 20 22  1  0
 21 20  2  0
M  END
$$$$
