QGN.pdb
     RDKit          3D

 22 21  0  0  1  0  0  0  0  0999 V2000
   18.5086  -11.8460  -22.7854 N   0  0  0  0  0  0  0  0  0  0  0  0
   17.8891  -12.6629  -21.7735 C   0  0  0  0  0  0  0  0  0  0  0  0
   16.7639  -13.1542  -22.0427 O   0  0  0  0  0  0  0  0  0  0  0  0
   18.5668  -12.9028  -20.4738 C   0  0  0  0  0  0  0  0  0  0  0  0
   19.8308  -12.0968  -20.4569 C   0  0  0  0  0  0  0  0  0  0  0  0
   20.5963  -12.2506  -19.1560 C   0  0  2  0  0  0  0  0  0  0  0  0
   19.6809  -12.5466  -18.0826 N   0  0  0  0  0  0  0  0  0  0  0  0
   21.2967  -10.9693  -18.9220 C   0  0  0  0  0  0  0  0  0  0  0  0
   22.2813  -10.6852  -19.6363 O   0  0  0  0  0  0  0  0  0  0  0  0
   20.8696  -10.0777  -17.9147 N   0  0  0  0  0  0  0  0  0  0  0  0
   21.5302   -8.8350  -17.6028 C   0  0  0  0  0  0  0  0  0  0  0  0
   20.7592   -8.0577  -16.5775 C   0  0  0  0  0  0  0  0  0  0  0  0
   19.8624   -8.5861  -15.8764 O   0  0  0  0  0  0  0  0  0  0  0  0
   22.1528   -6.5235  -13.4808 N   0  0  0  0  0  0  0  0  0  0  0  0
   22.0635   -5.1798  -13.9304 C   0  0  0  0  0  0  0  0  0  0  0  0
   22.8704   -4.3677  -13.4006 O   0  0  0  0  0  0  0  0  0  0  0  0
   21.0830   -4.7780  -14.9525 C   0  0  0  0  0  0  0  0  0  0  0  0
   20.2264   -5.9329  -15.3841 C   0  0  2  0  0  0  0  0  0  0  0  0
   21.0254   -6.6776  -16.3657 N   0  0  0  0  0  0  0  0  0  0  0  0
   18.9417   -5.5166  -15.9696 C   0  0  0  0  0  0  0  0  0  0  0  0
   18.8313   -5.2395  -17.2001 O   0  0  0  0  0  0  0  0  0  0  0  0
   17.7985   -5.4110  -15.1994 O   0  0  0  0  0  0  0  0  0  0  0  0
  1  2  1  0
  2  4  1  0
  2  3  2  0
  4  5  1  0
  5  6  1  0
  6  8  1  0
  6  7  1  1
  8  9  2  0
 10  8  1  0
 10 11  1  0
 11 12  1  0
 12 19  1  0
 12 13  2  0
 15 14  1  0
 15 17  1  0
 16 15  2  0
 18 17  1  6
 18 20  1  0
 19 18  1  0
 20 22  1  0
 21 20  2  0
M  END
$$$$
