QGN.pdb
     RDKit          3D

 22 21  0  0  1  0  0  0  0  0999 V2000
   17.8819  -13.7619  -15.1808 N   0  0  0  0  0  0  0  0  0  0  0  0
   18.2887  -13.8817  -16.5575 C   0  0  0  0  0  0  0  0  0  0  0  0
   17.6800  -14.7246  -17.2640 O   0  0  0  0  0  0  0  0  0  0  0  0
   19.3828  -13.0366  -17.1005 C   0  0  0  0  0  0  0  0  0  0  0  0
   19.8588  -12.1355  -16.0009 C   0  0  0  0  0  0  0  0  0  0  0  0
   19.2019  -10.7687  -16.0495 C   0  0  2  0  0  0  0  0  0  0  0  0
   19.6882  -10.0332  -17.1899 N   0  0  0  0  0  0  0  0  0  0  0  0
   19.5509  -10.0853  -14.7853 C   0  0  0  0  0  0  0  0  0  0  0  0
   19.2387  -10.6281  -13.7044 O   0  0  0  0  0  0  0  0  0  0  0  0
   20.2233   -8.8444  -14.7883 N   0  0  0  0  0  0  0  0  0  0  0  0
   20.6753   -8.1677  -13.5984 C   0  0  0  0  0  0  0  0  0  0  0  0
   21.4409   -6.9249  -13.9436 C   0  0  0  0  0  0  0  0  0  0  0  0
   21.9103   -6.1650  -13.0620 O   0  0  0  0  0  0  0  0  0  0  0  0
   24.0275   -3.3071  -16.5863 N   0  0  0  0  0  0  0  0  0  0  0  0
   23.7785   -4.4116  -17.4428 C   0  0  0  0  0  0  0  0  0  0  0  0
   24.3372   -4.3684  -18.5729 O   0  0  0  0  0  0  0  0  0  0  0  0
   22.9182   -5.5292  -17.0205 C   0  0  0  0  0  0  0  0  0  0  0  0
   22.4390   -5.3577  -15.6080 C   0  0  2  0  0  0  0  0  0  0  0  0
   21.6614   -6.5648  -15.3009 N   0  0  0  0  0  0  0  0  0  0  0  0
   21.6200   -4.1499  -15.4149 C   0  0  0  0  0  0  0  0  0  0  0  0
   22.1366   -2.9944  -15.3889 O   0  0  0  0  0  0  0  0  0  0  0  0
   20.2490   -4.2262  -15.2542 O   0  0  0  0  0  0  0  0  0  0  0  0
  1  2  1  0
  2  4  1  0
  2  3  2  0
  4  5  1  0
  5  6  1  0
  6  8  1  0
  6  7  1  6
  8  9  2  0
 10  8  1  0
 10 11  1  0
 11 12  1  0
 12 19  1  0
 12 13  2  0
 15 14  1  0
 15 17  1  0
 16 15  2  0
 18 17  1  6
 18 20  1  0
 19 18  1  0
 20 22  1  0
 21 20  2  0
M  END
$$$$
