QGN.pdb
     RDKit          3D

 22 21  0  0  1  0  0  0  0  0999 V2000
   22.3508  -21.5614  -16.8253 N   0  0  0  0  0  0  0  0  0  0  0  0
   23.1581  -20.3686  -16.7973 C   0  0  0  0  0  0  0  0  0  0  0  0
   24.1552  -20.3331  -17.5619 O   0  0  0  0  0  0  0  0  0  0  0  0
   22.8109  -19.2398  -15.8967 C   0  0  0  0  0  0  0  0  0  0  0  0
   21.5536  -19.6029  -15.1654 C   0  0  0  0  0  0  0  0  0  0  0  0
   21.8190  -20.0111  -13.7284 C   0  0  2  0  0  0  0  0  0  0  0  0
   22.5633  -21.2451  -13.7005 N   0  0  0  0  0  0  0  0  0  0  0  0
   20.4984  -20.1696  -13.0818 C   0  0  0  0  0  0  0  0  0  0  0  0
   19.6127  -19.3191  -13.3111 O   0  0  0  0  0  0  0  0  0  0  0  0
   20.2332  -21.2564  -12.2212 N   0  0  0  0  0  0  0  0  0  0  0  0
   18.9191  -21.6056  -11.7424 C   0  0  0  0  0  0  0  0  0  0  0  0
   18.9757  -22.8003  -10.8372 C   0  0  0  0  0  0  0  0  0  0  0  0
   19.6962  -23.7957  -11.0917 O   0  0  0  0  0  0  0  0  0  0  0  0
   19.2128  -25.2341   -6.5204 N   0  0  0  0  0  0  0  0  0  0  0  0
   18.0957  -24.3686   -6.3839 C   0  0  0  0  0  0  0  0  0  0  0  0
   17.6560  -24.2187   -5.2111 O   0  0  0  0  0  0  0  0  0  0  0  0
   17.5007  -23.6964   -7.5509 C   0  0  0  0  0  0  0  0  0  0  0  0
   18.2130  -24.0576   -8.8222 C   0  0  2  0  0  0  0  0  0  0  0  0
   18.2026  -22.8415   -9.6450 N   0  0  0  0  0  0  0  0  0  0  0  0
   17.5845  -25.1769   -9.5426 C   0  0  0  0  0  0  0  0  0  0  0  0
   16.6161  -24.9948  -10.3375 O   0  0  0  0  0  0  0  0  0  0  0  0
   18.0263  -26.4769   -9.3819 O   0  0  0  0  0  0  0  0  0  0  0  0
  1  2  1  0
  2  4  1  0
  2  3  2  0
  4  5  1  0
  5  6  1  0
  6  8  1  0
  6  7  1  6
  8  9  2  0
 10  8  1  0
 10 11  1  0
 11 12  1  0
 12 19  1  0
 12 13  2  0
 15 14  1  0
 15 17  1  0
 16 15  2  0
 18 17  1  1
 18 20  1  0
 19 18  1  0
 20 22  1  0
 21 20  2  0
M  END
$$$$
