QGN.pdb
     RDKit          3D

 22 21  0  0  1  0  0  0  0  0999 V2000
   11.0646  -10.1742  -11.2653 N   0  0  0  0  0  0  0  0  0  0  0  0
   11.7001  -11.3044  -10.6377 C   0  0  0  0  0  0  0  0  0  0  0  0
   10.9654  -12.2760  -10.3272 O   0  0  0  0  0  0  0  0  0  0  0  0
   13.1623  -11.3031  -10.3770 C   0  0  0  0  0  0  0  0  0  0  0  0
   13.7268  -10.0252  -10.9212 C   0  0  0  0  0  0  0  0  0  0  0  0
   15.2285   -9.9289  -10.7279 C   0  0  2  0  0  0  0  0  0  0  0  0
   15.5390   -9.8983   -9.3206 N   0  0  0  0  0  0  0  0  0  0  0  0
   15.6633   -8.6841  -11.3975 C   0  0  0  0  0  0  0  0  0  0  0  0
   14.9908   -7.6453  -11.2270 O   0  0  0  0  0  0  0  0  0  0  0  0
   16.8137   -8.6588  -12.2148 N   0  0  0  0  0  0  0  0  0  0  0  0
   17.3205   -7.4734  -12.8598 C   0  0  0  0  0  0  0  0  0  0  0  0
   18.5603   -7.7771  -13.6475 C   0  0  0  0  0  0  0  0  0  0  0  0
   19.0994   -8.9102  -13.6310 O   0  0  0  0  0  0  0  0  0  0  0  0
   21.3725   -6.1309  -18.6505 N   0  0  0  0  0  0  0  0  0  0  0  0
   21.5387   -6.2356  -17.2444 C   0  0  0  0  0  0  0  0  0  0  0  0
   22.7022   -6.5184  -16.8475 O   0  0  0  0  0  0  0  0  0  0  0  0
   20.4107   -6.0238  -16.3223 C   0  0  0  0  0  0  0  0  0  0  0  0
   20.2952   -7.1374  -15.3219 C   0  0  2  0  0  0  0  0  0  0  0  0
   19.1716   -6.7747  -14.4489 N   0  0  0  0  0  0  0  0  0  0  0  0
   21.5212   -7.3391  -14.5328 C   0  0  0  0  0  0  0  0  0  0  0  0
   22.2720   -8.3418  -14.7168 O   0  0  0  0  0  0  0  0  0  0  0  0
   21.9062   -6.4400  -13.5558 O   0  0  0  0  0  0  0  0  0  0  0  0
  1  2  1  0
  2  4  1  0
  2  3  2  0
  4  5  1  0
  5  6  1  0
  6  8  1  0
  6  7  1  1
  8  9  2  0
 10  8  1  0
 10 11  1  0
 11 12  1  0
 12 19  1  0
 12 13  2  0
 15 14  1  0
 15 17  1  0
 16 15  2  0
 18 17  1  6
 18 20  1  0
 19 18  1  0
 20 22  1  0
 21 20  2  0
M  END
$$$$
