QGN.pdb
     RDKit          3D

 22 21  0  0  1  0  0  0  0  0999 V2000
   15.5728  -14.6397  -16.3599 N   0  0  0  0  0  0  0  0  0  0  0  0
   16.0752  -14.3838  -15.0343 C   0  0  0  0  0  0  0  0  0  0  0  0
   15.6372  -15.1086  -14.1053 O   0  0  0  0  0  0  0  0  0  0  0  0
   17.0680  -13.3053  -14.7954 C   0  0  0  0  0  0  0  0  0  0  0  0
   17.2659  -12.5666  -16.0850 C   0  0  0  0  0  0  0  0  0  0  0  0
   18.5264  -12.9989  -16.8103 C   0  0  2  0  0  0  0  0  0  0  0  0
   19.3357  -13.8146  -15.9398 N   0  0  0  0  0  0  0  0  0  0  0  0
   19.2387  -11.7619  -17.1970 C   0  0  0  0  0  0  0  0  0  0  0  0
   18.7224  -11.0167  -18.0564 O   0  0  0  0  0  0  0  0  0  0  0  0
   20.4773  -11.4202  -16.6129 N   0  0  0  0  0  0  0  0  0  0  0  0
   21.2042  -10.2113  -16.9099 C   0  0  0  0  0  0  0  0  0  0  0  0
   20.9483   -9.1600  -15.8711 C   0  0  0  0  0  0  0  0  0  0  0  0
   20.1493   -9.3427  -14.9208 O   0  0  0  0  0  0  0  0  0  0  0  0
   21.2727   -4.8468  -13.0370 N   0  0  0  0  0  0  0  0  0  0  0  0
   22.3730   -4.8837  -13.9334 C   0  0  0  0  0  0  0  0  0  0  0  0
   23.2397   -3.9803  -13.7782 O   0  0  0  0  0  0  0  0  0  0  0  0
   22.4786   -5.9201  -14.9738 C   0  0  0  0  0  0  0  0  0  0  0  0
   21.3370   -6.8928  -14.9060 C   0  0  2  0  0  0  0  0  0  0  0  0
   21.6137   -7.9054  -15.9327 N   0  0  0  0  0  0  0  0  0  0  0  0
   20.0251   -6.2660  -15.1358 C   0  0  0  0  0  0  0  0  0  0  0  0
   19.5642   -6.0990  -16.3031 O   0  0  0  0  0  0  0  0  0  0  0  0
   19.2387   -5.8328  -14.0846 O   0  0  0  0  0  0  0  0  0  0  0  0
  1  2  1  0
  2  4  1  0
  2  3  2  0
  4  5  1  0
  5  6  1  0
  6  8  1  0
  6  7  1  1
  8  9  2  0
 10  8  1  0
 10 11  1  0
 11 12  1  0
 12 19  1  0
 12 13  2  0
 15 14  1  0
 15 17  1  0
 16 15  2  0
 18 17  1  6
 18 20  1  0
 19 18  1  0
 20 22  1  0
 21 20  2  0
M  END
$$$$
