QGN.pdb
     RDKit          3D

 22 21  0  0  1  0  0  0  0  0999 V2000
   18.7594  -17.0878  -19.4505 N   0  0  0  0  0  0  0  0  0  0  0  0
   19.1953  -16.0976  -18.4993 C   0  0  0  0  0  0  0  0  0  0  0  0
   19.3431  -16.4723  -17.3086 O   0  0  0  0  0  0  0  0  0  0  0  0
   19.4539  -14.6989  -18.9266 C   0  0  0  0  0  0  0  0  0  0  0  0
   19.5863  -13.8568  -17.6933 C   0  0  0  0  0  0  0  0  0  0  0  0
   18.4048  -12.9246  -17.5011 C   0  0  2  0  0  0  0  0  0  0  0  0
   18.4037  -11.9181  -18.5330 N   0  0  0  0  0  0  0  0  0  0  0  0
   18.5582  -12.3159  -16.1621 C   0  0  0  0  0  0  0  0  0  0  0  0
   18.5147  -13.0576  -15.1579 O   0  0  0  0  0  0  0  0  0  0  0  0
   18.7506  -10.9260  -16.0101 N   0  0  0  0  0  0  0  0  0  0  0  0
   18.8207  -10.2547  -14.7364 C   0  0  0  0  0  0  0  0  0  0  0  0
   19.1603   -8.8040  -14.9101 C   0  0  0  0  0  0  0  0  0  0  0  0
   18.3353   -7.9766  -15.3679 O   0  0  0  0  0  0  0  0  0  0  0  0
   23.7215   -4.9280  -14.6350 N   0  0  0  0  0  0  0  0  0  0  0  0
   22.4510   -5.2379  -14.0825 C   0  0  0  0  0  0  0  0  0  0  0  0
   21.7511   -4.2511  -13.7248 O   0  0  0  0  0  0  0  0  0  0  0  0
   21.9957   -6.6310  -13.9434 C   0  0  0  0  0  0  0  0  0  0  0  0
   20.7535   -6.8916  -14.7453 C   0  0  2  0  0  0  0  0  0  0  0  0
   20.4472   -8.3151  -14.5558 N   0  0  0  0  0  0  0  0  0  0  0  0
   20.9092   -6.5803  -16.1755 C   0  0  0  0  0  0  0  0  0  0  0  0
   20.5646   -5.4594  -16.6526 O   0  0  0  0  0  0  0  0  0  0  0  0
   21.4402   -7.5004  -17.0602 O   0  0  0  0  0  0  0  0  0  0  0  0
  1  2  1  0
  2  4  1  0
  2  3  2  0
  4  5  1  0
  5  6  1  0
  6  8  1  0
  6  7  1  6
  8  9  2  0
 10  8  1  0
 10 11  1  0
 11 12  1  0
 12 19  1  0
 12 13  2  0
 15 14  1  0
 15 17  1  0
 16 15  2  0
 18 17  1  1
 18 20  1  0
 19 18  1  0
 20 22  1  0
 21 20  2  0
M  END
$$$$
