KSG.pdb
     RDKit          3D

 20 19  0  0  1  0  0  0  0  0999 V2000
   26.3343  -18.9257  -19.9788 N   0  0  0  0  0  0  0  0  0  0  0  0
   26.4673  -18.3829  -18.6524 C   0  0  1  0  0  0  0  0  0  0  0  0
   25.6769  -17.0960  -18.5836 C   0  0  0  0  0  0  0  0  0  0  0  0
   26.2686  -16.1285  -19.5630 C   0  0  0  0  0  0  0  0  0  0  0  0
   25.6102  -14.7894  -19.5654 C   0  0  0  0  0  0  0  0  0  0  0  0
   26.3429  -13.8341  -20.4867 C   0  0  0  0  0  0  0  0  0  0  0  0
   25.7501  -12.5147  -20.4696 N   0  0  0  0  0  0  0  0  0  0  0  0
   25.9932  -19.3800  -17.6689 C   0  0  0  0  0  0  0  0  0  0  0  0
   25.0097  -20.1487  -17.8997 O   0  0  0  0  0  0  0  0  0  0  0  0
   26.7658  -21.6875  -13.4914 O   0  0  0  0  0  0  0  0  0  0  0  0
   27.2348  -20.7321  -14.3769 C   0  0  0  0  0  0  0  0  0  0  0  0
   26.1269  -20.4120  -15.3624 C   0  0  2  0  0  0  0  0  0  0  0  0
   26.6339  -19.5149  -16.4080 N   0  0  0  0  0  0  0  0  0  0  0  0
   24.9637  -19.8031  -14.6789 C   0  0  0  0  0  0  0  0  0  0  0  0
   25.0362  -18.5835  -14.3681 O   0  0  0  0  0  0  0  0  0  0  0  0
   23.7648  -20.4720  -14.3402 N   0  0  0  0  0  0  0  0  0  0  0  0
   22.6440  -19.7656  -13.7074 C   0  0  0  0  0  0  0  0  0  0  0  0
   21.5485  -20.7338  -13.4390 C   0  0  0  0  0  0  0  0  0  0  0  0
   20.3762  -20.3849  -12.8133 O   0  0  0  0  0  0  0  0  0  0  0  0
   21.6728  -21.9390  -13.7907 O   0  0  0  0  0  0  0  0  0  0  0  0
  2  1  1  6
  3  2  1  0
  4  3  1  0
  5  4  1  0
  6  5  1  0
  7  6  1  0
  8 13  1  0
  8  2  1  0
  9  8  2  0
 10 11  1  0
 12 11  1  1
 12 13  1  0
 14 12  1  0
 14 15  2  0
 16 14  1  0
 17 16  1  0
 18 17  1  0
 19 18  1  0
 20 18  2  0
M  END
$$$$
