KSG.pdb
     RDKit          3D

 20 19  0  0  1  0  0  0  0  0999 V2000
   20.4606  -13.0466  -17.1401 N   0  0  0  0  0  0  0  0  0  0  0  0
   19.7156  -11.8207  -17.0216 C   0  0  1  0  0  0  0  0  0  0  0  0
   18.8564  -11.9043  -15.7806 C   0  0  0  0  0  0  0  0  0  0  0  0
   17.7233  -12.8454  -16.0563 C   0  0  0  0  0  0  0  0  0  0  0  0
   16.6855  -12.8752  -14.9845 C   0  0  0  0  0  0  0  0  0  0  0  0
   15.5227  -13.7597  -15.3895 C   0  0  0  0  0  0  0  0  0  0  0  0
   14.5364  -13.8613  -14.3362 N   0  0  0  0  0  0  0  0  0  0  0  0
   20.6575  -10.6822  -16.9702 C   0  0  0  0  0  0  0  0  0  0  0  0
   21.8897  -10.8302  -16.7031 O   0  0  0  0  0  0  0  0  0  0  0  0
   20.5149   -7.7455  -19.4998 O   0  0  0  0  0  0  0  0  0  0  0  0
   20.5951   -7.1722  -18.2421 C   0  0  0  0  0  0  0  0  0  0  0  0
   21.1268   -8.2146  -17.2768 C   0  0  2  0  0  0  0  0  0  0  0  0
   20.2079   -9.3583  -17.2228 N   0  0  0  0  0  0  0  0  0  0  0  0
   21.3191   -7.6423  -15.9255 C   0  0  0  0  0  0  0  0  0  0  0  0
   20.3199   -7.5972  -15.1580 O   0  0  0  0  0  0  0  0  0  0  0  0
   22.5353   -7.1369  -15.4107 N   0  0  0  0  0  0  0  0  0  0  0  0
   22.6734   -6.7596  -13.9986 C   0  0  0  0  0  0  0  0  0  0  0  0
   22.1663   -5.3745  -13.8138 C   0  0  0  0  0  0  0  0  0  0  0  0
   22.1933   -4.7213  -12.6054 O   0  0  0  0  0  0  0  0  0  0  0  0
   21.6829   -4.7446  -14.7942 O   0  0  0  0  0  0  0  0  0  0  0  0
  2  1  1  1
  3  2  1  0
  4  3  1  0
  5  4  1  0
  6  5  1  0
  7  6  1  0
  8 13  1  0
  8  2  1  0
  9  8  2  0
 10 11  1  0
 12 11  1  6
 12 13  1  0
 14 12  1  0
 14 15  2  0
 16 14  1  0
 17 16  1  0
 18 17  1  0
 19 18  1  0
 20 18  2  0
M  END
$$$$
