KSG.pdb
     RDKit          3D

 20 19  0  0  1  0  0  0  0  0999 V2000
   20.5077  -12.1965  -15.5511 N   0  0  0  0  0  0  0  0  0  0  0  0
   19.8643  -11.1178  -16.2540 C   0  0  1  0  0  0  0  0  0  0  0  0
   18.4316  -11.5155  -16.5271 C   0  0  0  0  0  0  0  0  0  0  0  0
   18.4393  -12.6842  -17.4650 C   0  0  0  0  0  0  0  0  0  0  0  0
   18.0468  -13.9753  -16.8279 C   0  0  0  0  0  0  0  0  0  0  0  0
   18.0026  -15.0883  -17.8564 C   0  0  0  0  0  0  0  0  0  0  0  0
   17.5854  -16.3425  -17.2688 N   0  0  0  0  0  0  0  0  0  0  0  0
   19.9542   -9.8857  -15.4415 C   0  0  0  0  0  0  0  0  0  0  0  0
   19.6126   -9.8504  -14.2194 O   0  0  0  0  0  0  0  0  0  0  0  0
   22.3590   -6.2557  -14.0861 O   0  0  0  0  0  0  0  0  0  0  0  0
   22.1508   -7.4155  -14.8130 C   0  0  0  0  0  0  0  0  0  0  0  0
   20.6865   -7.4752  -15.2049 C   0  0  2  0  0  0  0  0  0  0  0  0
   20.4350   -8.6761  -16.0109 N   0  0  0  0  0  0  0  0  0  0  0  0
   20.2827   -6.2605  -15.9479 C   0  0  0  0  0  0  0  0  0  0  0  0
   20.4112   -6.2681  -17.2020 O   0  0  0  0  0  0  0  0  0  0  0  0
   19.7588   -5.0796  -15.3729 N   0  0  0  0  0  0  0  0  0  0  0  0
   19.3661   -3.9318  -16.2001 C   0  0  0  0  0  0  0  0  0  0  0  0
   18.9140   -2.8267  -15.3147 C   0  0  0  0  0  0  0  0  0  0  0  0
   18.5959   -1.5743  -15.7817 O   0  0  0  0  0  0  0  0  0  0  0  0
   18.8079   -3.0182  -14.0722 O   0  0  0  0  0  0  0  0  0  0  0  0
  2  1  1  1
  3  2  1  0
  4  3  1  0
  5  4  1  0
  6  5  1  0
  7  6  1  0
  8 13  1  0
  8  2  1  0
  9  8  2  0
 10 11  1  0
 12 11  1  6
 12 13  1  0
 14 12  1  0
 14 15  2  0
 16 14  1  0
 17 16  1  0
 18 17  1  0
 19 18  1  0
 20 18  2  0
M  END
$$$$
