KSG.pdb
     RDKit          3D

 20 19  0  0  1  0  0  0  0  0999 V2000
   17.1643  -12.8422  -16.8318 N   0  0  0  0  0  0  0  0  0  0  0  0
   18.4784  -12.5638  -16.3147 C   0  0  1  0  0  0  0  0  0  0  0  0
   19.4235  -13.6311  -16.8176 C   0  0  0  0  0  0  0  0  0  0  0  0
   18.9887  -14.9484  -16.2508 C   0  0  0  0  0  0  0  0  0  0  0  0
   19.8653  -16.0930  -16.6356 C   0  0  0  0  0  0  0  0  0  0  0  0
   19.3516  -17.3866  -16.0346 C   0  0  0  0  0  0  0  0  0  0  0  0
   20.1670  -18.5168  -16.4223 N   0  0  0  0  0  0  0  0  0  0  0  0
   18.8918  -11.2095  -16.7405 C   0  0  0  0  0  0  0  0  0  0  0  0
   18.6548  -10.7602  -17.9039 O   0  0  0  0  0  0  0  0  0  0  0  0
   19.0469   -6.8718  -16.7865 O   0  0  0  0  0  0  0  0  0  0  0  0
   18.6871   -8.1891  -16.5581 C   0  0  0  0  0  0  0  0  0  0  0  0
   19.9384   -8.9694  -16.2024 C   0  0  2  0  0  0  0  0  0  0  0  0
   19.5814  -10.3479  -15.8456 N   0  0  0  0  0  0  0  0  0  0  0  0
   20.6737   -8.3225  -15.0926 C   0  0  0  0  0  0  0  0  0  0  0  0
   20.1889   -8.4155  -13.9326 O   0  0  0  0  0  0  0  0  0  0  0  0
   21.8846   -7.6028  -15.2162 N   0  0  0  0  0  0  0  0  0  0  0  0
   22.5456   -7.0063  -14.0488 C   0  0  0  0  0  0  0  0  0  0  0  0
   21.9965   -5.6435  -13.8230 C   0  0  0  0  0  0  0  0  0  0  0  0
   22.3914   -4.8393  -12.7813 O   0  0  0  0  0  0  0  0  0  0  0  0
   21.1260   -5.1771  -14.6080 O   0  0  0  0  0  0  0  0  0  0  0  0
  2  1  1  6
  3  2  1  0
  4  3  1  0
  5  4  1  0
  6  5  1  0
  7  6  1  0
  8 13  1  0
  8  2  1  0
  9  8  2  0
 10 11  1  0
 12 11  1  1
 12 13  1  0
 14 12  1  0
 14 15  2  0
 16 14  1  0
 17 16  1  0
 18 17  1  0
 19 18  1  0
 20 18  2  0
M  END
$$$$
