KSG.pdb
     RDKit          3D

 20 19  0  0  1  0  0  0  0  0999 V2000
   25.4743  -20.8230   -9.5810 N   0  0  0  0  0  0  0  0  0  0  0  0
   24.8423  -20.8808  -10.8729 C   0  0  1  0  0  0  0  0  0  0  0  0
   23.6021  -20.0170  -10.8348 C   0  0  0  0  0  0  0  0  0  0  0  0
   22.4798  -20.8315  -10.2670 C   0  0  0  0  0  0  0  0  0  0  0  0
   21.3903  -21.1261  -11.2431 C   0  0  0  0  0  0  0  0  0  0  0  0
   20.2373  -21.8356  -10.5608 C   0  0  0  0  0  0  0  0  0  0  0  0
   19.1038  -21.9876  -11.4466 N   0  0  0  0  0  0  0  0  0  0  0  0
   25.8016  -20.4312  -11.9043 C   0  0  0  0  0  0  0  0  0  0  0  0
   26.3303  -19.2773  -11.8846 O   0  0  0  0  0  0  0  0  0  0  0  0
   28.9193  -21.7482  -13.6060 O   0  0  0  0  0  0  0  0  0  0  0  0
   27.9435  -21.7606  -14.5881 C   0  0  0  0  0  0  0  0  0  0  0  0
   26.8453  -20.7969  -14.1802 C   0  0  2  0  0  0  0  0  0  0  0  0
   26.1719  -21.2911  -12.9729 N   0  0  0  0  0  0  0  0  0  0  0  0
   25.8681  -20.6064  -15.2754 C   0  0  0  0  0  0  0  0  0  0  0  0
   24.9178  -21.4300  -15.3658 O   0  0  0  0  0  0  0  0  0  0  0  0
   25.9029  -19.5725  -16.2395 N   0  0  0  0  0  0  0  0  0  0  0  0
   25.7772  -19.8565  -17.6744 C   0  0  0  0  0  0  0  0  0  0  0  0
   25.9585  -18.5937  -18.4374 C   0  0  0  0  0  0  0  0  0  0  0  0
   26.2130  -17.3847  -17.8364 O   0  0  0  0  0  0  0  0  0  0  0  0
   25.8804  -18.6017  -19.6966 O   0  0  0  0  0  0  0  0  0  0  0  0
  2  1  1  1
  3  2  1  0
  4  3  1  0
  5  4  1  0
  6  5  1  0
  7  6  1  0
  8 13  1  0
  8  2  1  0
  9  8  2  0
 10 11  1  0
 12 11  1  6
 12 13  1  0
 14 12  1  0
 14 15  2  0
 16 14  1  0
 17 16  1  0
 18 17  1  0
 19 18  1  0
 20 18  2  0
M  END
$$$$
