KSG.pdb
     RDKit          3D

 20 19  0  0  1  0  0  0  0  0999 V2000
   18.6710  -13.4419  -17.9914 N   0  0  0  0  0  0  0  0  0  0  0  0
   19.2390  -12.9058  -16.7823 C   0  0  1  0  0  0  0  0  0  0  0  0
   20.5799  -13.5653  -16.5535 C   0  0  0  0  0  0  0  0  0  0  0  0
   20.3650  -15.0451  -16.4557 C   0  0  0  0  0  0  0  0  0  0  0  0
   21.6226  -15.8305  -16.2875 C   0  0  0  0  0  0  0  0  0  0  0  0
   21.3133  -17.3028  -16.1000 C   0  0  0  0  0  0  0  0  0  0  0  0
   22.5143  -18.0764  -15.8725 N   0  0  0  0  0  0  0  0  0  0  0  0
   19.3558  -11.4374  -16.9093 C   0  0  0  0  0  0  0  0  0  0  0  0
   19.5986  -10.8676  -18.0174 O   0  0  0  0  0  0  0  0  0  0  0  0
   17.4003   -9.0195  -14.4242 O   0  0  0  0  0  0  0  0  0  0  0  0
   17.8743   -8.5485  -15.6368 C   0  0  0  0  0  0  0  0  0  0  0  0
   19.2548   -9.1335  -15.8678 C   0  0  2  0  0  0  0  0  0  0  0  0
   19.1975  -10.5974  -15.7744 N   0  0  0  0  0  0  0  0  0  0  0  0
   20.2333   -8.5920  -14.8982 C   0  0  0  0  0  0  0  0  0  0  0  0
   20.5644   -9.3231  -13.9260 O   0  0  0  0  0  0  0  0  0  0  0  0
   20.8382   -7.3155  -14.9646 N   0  0  0  0  0  0  0  0  0  0  0  0
   21.7429   -6.8391  -13.9109 C   0  0  0  0  0  0  0  0  0  0  0  0
   22.1937   -5.4622  -14.2434 C   0  0  0  0  0  0  0  0  0  0  0  0
   22.8918   -4.6693  -13.3649 O   0  0  0  0  0  0  0  0  0  0  0  0
   21.9379   -4.9722  -15.3774 O   0  0  0  0  0  0  0  0  0  0  0  0
  2  1  1  6
  3  2  1  0
  4  3  1  0
  5  4  1  0
  6  5  1  0
  7  6  1  0
  8 13  1  0
  8  2  1  0
  9  8  2  0
 10 11  1  0
 12 11  1  1
 12 13  1  0
 14 12  1  0
 14 15  2  0
 16 14  1  0
 17 16  1  0
 18 17  1  0
 19 18  1  0
 20 18  2  0
M  END
$$$$
