KSG.pdb
     RDKit          3D

 20 19  0  0  1  0  0  0  0  0999 V2000
   20.7768  -12.8009  -18.0154 N   0  0  0  0  0  0  0  0  0  0  0  0
   19.7495  -11.9582  -17.4622 C   0  0  1  0  0  0  0  0  0  0  0  0
   19.2358  -12.6035  -16.1953 C   0  0  0  0  0  0  0  0  0  0  0  0
   18.6752  -13.9480  -16.5470 C   0  0  0  0  0  0  0  0  0  0  0  0
   18.1318  -14.7024  -15.3799 C   0  0  0  0  0  0  0  0  0  0  0  0
   17.5002  -16.0047  -15.8311 C   0  0  0  0  0  0  0  0  0  0  0  0
   17.1352  -16.8392  -14.7073 N   0  0  0  0  0  0  0  0  0  0  0  0
   20.3066  -10.6113  -17.2139 C   0  0  0  0  0  0  0  0  0  0  0  0
   21.5540  -10.3996  -17.1108 O   0  0  0  0  0  0  0  0  0  0  0  0
   17.7840   -7.2797  -16.6929 O   0  0  0  0  0  0  0  0  0  0  0  0
   18.9105   -7.1384  -17.4853 C   0  0  0  0  0  0  0  0  0  0  0  0
   19.9633   -8.1139  -16.9943 C   0  0  2  0  0  0  0  0  0  0  0  0
   19.4492   -9.4864  -17.0795 N   0  0  0  0  0  0  0  0  0  0  0  0
   20.3750   -7.8018  -15.6073 C   0  0  0  0  0  0  0  0  0  0  0  0
   19.9275   -8.5323  -14.6823 O   0  0  0  0  0  0  0  0  0  0  0  0
   21.2351   -6.7479  -15.2210 N   0  0  0  0  0  0  0  0  0  0  0  0
   21.6124   -6.5403  -13.8174 C   0  0  0  0  0  0  0  0  0  0  0  0
   22.4235   -5.2991  -13.7107 C   0  0  0  0  0  0  0  0  0  0  0  0
   22.8014   -4.7516  -12.5086 O   0  0  0  0  0  0  0  0  0  0  0  0
   22.7968   -4.6988  -14.7556 O   0  0  0  0  0  0  0  0  0  0  0  0
  2  1  1  1
  3  2  1  0
  4  3  1  0
  5  4  1  0
  6  5  1  0
  7  6  1  0
  8 13  1  0
  8  2  1  0
  9  8  2  0
 10 11  1  0
 12 11  1  1
 12 13  1  0
 14 12  1  0
 14 15  2  0
 16 14  1  0
 17 16  1  0
 18 17  1  0
 19 18  1  0
 20 18  2  0
M  END
$$$$
