KSG.pdb
     RDKit          3D

 20 19  0  0  1  0  0  0  0  0999 V2000
   11.5639  -17.5395    0.4893 N   0  0  0  0  0  0  0  0  0  0  0  0
   11.9912  -18.0662    1.7588 C   0  0  1  0  0  0  0  0  0  0  0  0
   10.8942  -18.9557    2.2983 C   0  0  0  0  0  0  0  0  0  0  0  0
    9.6264  -18.1585    2.3508 C   0  0  0  0  0  0  0  0  0  0  0  0
    8.4433  -18.9322    2.8286 C   0  0  0  0  0  0  0  0  0  0  0  0
    7.1865  -18.0873    2.7566 C   0  0  0  0  0  0  0  0  0  0  0  0
    6.0249  -18.8171    3.2159 N   0  0  0  0  0  0  0  0  0  0  0  0
   13.2628  -18.7987    1.5785 C   0  0  0  0  0  0  0  0  0  0  0  0
   13.6412  -19.2367    0.4487 O   0  0  0  0  0  0  0  0  0  0  0  0
   15.9649  -18.0145    4.1430 O   0  0  0  0  0  0  0  0  0  0  0  0
   16.5094  -18.7079    3.0755 C   0  0  0  0  0  0  0  0  0  0  0  0
   15.4505  -19.6455    2.5270 C   0  0  2  0  0  0  0  0  0  0  0  0
   14.1214  -19.0423    2.6840 N   0  0  0  0  0  0  0  0  0  0  0  0
   15.5029  -20.9625    3.2004 C   0  0  0  0  0  0  0  0  0  0  0  0
   14.6226  -21.2157    4.0667 O   0  0  0  0  0  0  0  0  0  0  0  0
   16.4603  -21.9743    2.9571 N   0  0  0  0  0  0  0  0  0  0  0  0
   16.4558  -23.2331    3.7127 C   0  0  0  0  0  0  0  0  0  0  0  0
   15.8078  -24.2900    2.8925 C   0  0  0  0  0  0  0  0  0  0  0  0
   15.7189  -25.6011    3.2936 O   0  0  0  0  0  0  0  0  0  0  0  0
   15.3074  -23.9993    1.7715 O   0  0  0  0  0  0  0  0  0  0  0  0
  2  1  1  6
  3  2  1  0
  4  3  1  0
  5  4  1  0
  6  5  1  0
  7  6  1  0
  8 13  1  0
  8  2  1  0
  9  8  2  0
 10 11  1  0
 12 11  1  1
 12 13  1  0
 14 12  1  0
 14 15  2  0
 16 14  1  0
 17 16  1  0
 18 17  1  0
 19 18  1  0
 20 18  2  0
M  END
$$$$
