LSH.pdb
     RDKit          3D

 25 25  0  0  1  0  0  0  0  0999 V2000
    9.4331  -13.0057   18.8532 C   0  0  0  0  0  0  0  0  0  0  0  0
    7.9982  -13.2866   19.2871 C   0  0  2  0  0  0  0  0  0  0  0  0
    7.5067  -12.0026   19.9528 C   0  0  0  0  0  0  0  0  0  0  0  0
    8.0157  -14.3533   20.3326 C   0  0  0  0  0  0  0  0  0  0  0  0
    8.4187  -15.7008   19.8098 C   0  0  2  0  0  0  0  0  0  0  0  0
    7.3428  -16.4181   19.1810 N   0  0  0  0  0  0  0  0  0  0  0  0
    8.8675  -16.5075   21.0051 C   0  0  0  0  0  0  0  0  0  0  0  0
    8.0759  -16.7000   21.9593 O   0  0  0  0  0  0  0  0  0  0  0  0
   13.0261  -17.8526   21.5065 O   0  0  0  0  0  0  0  0  0  0  0  0
   11.9007  -18.5815   21.8675 C   0  0  0  0  0  0  0  0  0  0  0  0
   10.7325  -17.7127   22.2169 C   0  0  2  0  0  0  0  0  0  0  0  0
   10.1709  -17.0515   21.0664 N   0  0  0  0  0  0  0  0  0  0  0  0
   10.9572  -16.8345   23.3804 C   0  0  0  0  0  0  0  0  0  0  0  0
   11.0499  -15.6033   23.2294 O   0  0  0  0  0  0  0  0  0  0  0  0
   11.0641  -17.4152   24.6629 N   0  0  0  0  0  0  0  0  0  0  0  0
   11.0522  -16.6436   25.8702 C   0  0  1  0  0  0  0  0  0  0  0  0
    9.7713  -15.8495   26.0389 C   0  0  0  0  0  0  0  0  0  0  0  0
    9.7548  -15.0682   27.2918 C   0  0  0  0  0  0  0  0  0  0  0  0
   10.7655  -15.0212   28.2335 C   0  0  0  0  0  0  0  0  0  0  0  0
   10.4129  -14.2179   29.2343 N   0  0  0  0  0  0  0  0  0  0  0  0
    9.1843  -13.7525   28.9369 C   0  0  0  0  0  0  0  0  0  0  0  0
    8.7817  -14.2645   27.7618 N   0  0  0  0  0  0  0  0  0  0  0  0
   11.2246  -17.5070   27.0558 C   0  0  0  0  0  0  0  0  0  0  0  0
   11.3256  -17.0599   28.2254 O   0  0  0  0  0  0  0  0  0  0  0  0
   11.2792  -18.8830   26.8833 O   0  0  0  0  0  0  0  0  0  0  0  0
  2  1  1  1
  2  3  1  0
  4  2  1  0
  4  5  1  0
  5  7  1  0
  5  6  1  1
  7  8  2  0
  9 10  1  0
 11 10  1  6
 12 11  1  0
 12  7  1  0
 13 11  1  0
 14 13  2  0
 15 13  1  0
 16 17  1  1
 16 15  1  0
 18 17  1  0
 19 18  2  0
 20 19  1  0
 21 20  1  0
 21 22  2  0
 22 18  1  0
 23 25  1  0
 23 16  1  0
 24 23  2  0
M  END
$$$$
