LSH.pdb
     RDKit          3D

 25 25  0  0  1  0  0  0  0  0999 V2000
    8.1094  -13.6584   17.7022 C   0  0  0  0  0  0  0  0  0  0  0  0
    7.2727  -13.5253   18.9704 C   0  0  2  0  0  0  0  0  0  0  0  0
    7.2587  -12.0347   19.3042 C   0  0  0  0  0  0  0  0  0  0  0  0
    7.9794  -14.2259   20.0844 C   0  0  0  0  0  0  0  0  0  0  0  0
    8.0286  -15.7167   19.9215 C   0  0  2  0  0  0  0  0  0  0  0  0
    6.7310  -16.3358   19.9045 N   0  0  0  0  0  0  0  0  0  0  0  0
    8.7749  -16.2542   21.1195 C   0  0  0  0  0  0  0  0  0  0  0  0
    8.1680  -16.4307   22.2034 O   0  0  0  0  0  0  0  0  0  0  0  0
   10.2502  -19.4227   21.7236 O   0  0  0  0  0  0  0  0  0  0  0  0
   10.3044  -18.3924   22.6529 C   0  0  0  0  0  0  0  0  0  0  0  0
   10.9274  -17.1464   22.1041 C   0  0  2  0  0  0  0  0  0  0  0  0
   10.1521  -16.5630   21.0389 N   0  0  0  0  0  0  0  0  0  0  0  0
   12.3698  -17.2651   21.8194 C   0  0  0  0  0  0  0  0  0  0  0  0
   12.7630  -17.8881   20.8171 O   0  0  0  0  0  0  0  0  0  0  0  0
   13.2914  -16.6605   22.7018 N   0  0  0  0  0  0  0  0  0  0  0  0
   14.7076  -16.6859   22.4855 C   0  0  1  0  0  0  0  0  0  0  0  0
   15.2632  -15.3235   22.1184 C   0  0  0  0  0  0  0  0  0  0  0  0
   14.9258  -14.9325   20.7351 C   0  0  0  0  0  0  0  0  0  0  0  0
   14.1881  -15.6801   19.8364 C   0  0  0  0  0  0  0  0  0  0  0  0
   14.0791  -15.0223   18.6845 N   0  0  0  0  0  0  0  0  0  0  0  0
   14.7421  -13.8606   18.8429 C   0  0  0  0  0  0  0  0  0  0  0  0
   15.2565  -13.8017   20.0828 N   0  0  0  0  0  0  0  0  0  0  0  0
   15.4206  -17.1724   23.6837 C   0  0  0  0  0  0  0  0  0  0  0  0
   14.8447  -17.4397   24.7677 O   0  0  0  0  0  0  0  0  0  0  0  0
   16.7961  -17.3474   23.6229 O   0  0  0  0  0  0  0  0  0  0  0  0
  2  1  1  6
  2  3  1  0
  4  2  1  0
  4  5  1  0
  5  7  1  0
  5  6  1  1
  7  8  2  0
  9 10  1  0
 11 10  1  6
 12 11  1  0
 12  7  1  0
 13 11  1  0
 14 13  2  0
 15 13  1  0
 16 17  1  1
 16 15  1  0
 18 17  1  0
 19 18  2  0
 20 19  1  0
 21 20  1  0
 21 22  2  0
 22 18  1  0
 23 25  1  0
 23 16  1  0
 24 23  2  0
M  END
$$$$
