LSH.pdb
     RDKit          3D

 25 25  0  0  1  0  0  0  0  0999 V2000
    7.8538  -11.6874   19.8716 C   0  0  0  0  0  0  0  0  0  0  0  0
    8.1405  -13.1431   19.5184 C   0  0  2  0  0  0  0  0  0  0  0  0
    7.8174  -13.2812   18.0318 C   0  0  0  0  0  0  0  0  0  0  0  0
    7.1838  -14.0132   20.2660 C   0  0  0  0  0  0  0  0  0  0  0  0
    7.4055  -15.4804   20.0432 C   0  0  2  0  0  0  0  0  0  0  0  0
    6.4836  -16.0650   19.1073 N   0  0  0  0  0  0  0  0  0  0  0  0
    7.1895  -16.1539   21.3776 C   0  0  0  0  0  0  0  0  0  0  0  0
    6.0622  -16.1021   21.9260 O   0  0  0  0  0  0  0  0  0  0  0  0
    6.8283  -19.2949   22.1445 O   0  0  0  0  0  0  0  0  0  0  0  0
    6.9011  -18.4710   23.2598 C   0  0  0  0  0  0  0  0  0  0  0  0
    8.1080  -17.5849   23.2504 C   0  0  2  0  0  0  0  0  0  0  0  0
    8.2415  -16.8448   22.0214 N   0  0  0  0  0  0  0  0  0  0  0  0
    9.3462  -18.2428   23.7082 C   0  0  0  0  0  0  0  0  0  0  0  0
   10.0431  -18.8946   22.9101 O   0  0  0  0  0  0  0  0  0  0  0  0
    9.7238  -18.1190   25.0630 N   0  0  0  0  0  0  0  0  0  0  0  0
   11.0632  -17.8176   25.4733 C   0  0  1  0  0  0  0  0  0  0  0  0
   11.5197  -16.4494   25.0050 C   0  0  0  0  0  0  0  0  0  0  0  0
   12.0797  -16.4804   23.6390 C   0  0  0  0  0  0  0  0  0  0  0  0
   12.3185  -17.6134   22.8842 C   0  0  0  0  0  0  0  0  0  0  0  0
   12.8263  -17.2701   21.7029 N   0  0  0  0  0  0  0  0  0  0  0  0
   12.9128  -15.9259   21.6996 C   0  0  0  0  0  0  0  0  0  0  0  0
   12.4620  -15.4433   22.8696 N   0  0  0  0  0  0  0  0  0  0  0  0
   11.1956  -17.8750   26.9430 C   0  0  0  0  0  0  0  0  0  0  0  0
   10.2138  -17.9752   27.7203 O   0  0  0  0  0  0  0  0  0  0  0  0
   12.4624  -17.8163   27.5067 O   0  0  0  0  0  0  0  0  0  0  0  0
  2  1  1  1
  2  3  1  0
  4  2  1  0
  4  5  1  0
  5  7  1  0
  5  6  1  6
  7  8  2  0
  9 10  1  0
 11 10  1  6
 12 11  1  0
 12  7  1  0
 13 11  1  0
 14 13  2  0
 15 13  1  0
 16 17  1  1
 16 15  1  0
 18 17  1  0
 19 18  2  0
 20 19  1  0
 21 20  1  0
 21 22  2  0
 22 18  1  0
 23 25  1  0
 23 16  1  0
 24 23  2  0
M  END
$$$$
