LSH.pdb
     RDKit          3D

 25 25  0  0  1  0  0  0  0  0999 V2000
    9.2628  -13.0846   18.6701 C   0  0  0  0  0  0  0  0  0  0  0  0
    7.8301  -13.2128   19.1770 C   0  0  2  0  0  0  0  0  0  0  0  0
    7.4283  -11.8152   19.6446 C   0  0  0  0  0  0  0  0  0  0  0  0
    7.8259  -14.1034   20.3762 C   0  0  0  0  0  0  0  0  0  0  0  0
    8.2883  -15.5015   20.0882 C   0  0  2  0  0  0  0  0  0  0  0  0
    7.3037  -16.3052   19.4159 N   0  0  0  0  0  0  0  0  0  0  0  0
    8.5664  -16.1450   21.4260 C   0  0  0  0  0  0  0  0  0  0  0  0
    7.6332  -16.2935   22.2514 O   0  0  0  0  0  0  0  0  0  0  0  0
   12.6311  -16.9247   22.9263 O   0  0  0  0  0  0  0  0  0  0  0  0
   11.5745  -17.8226   22.9996 C   0  0  0  0  0  0  0  0  0  0  0  0
   10.2388  -17.1470   23.0377 C   0  0  2  0  0  0  0  0  0  0  0  0
    9.8667  -16.5844   21.7645 N   0  0  0  0  0  0  0  0  0  0  0  0
   10.0502  -16.2420   24.1871 C   0  0  0  0  0  0  0  0  0  0  0  0
    9.8644  -15.0257   24.0049 O   0  0  0  0  0  0  0  0  0  0  0  0
   10.0842  -16.7803   25.4920 N   0  0  0  0  0  0  0  0  0  0  0  0
    9.4008  -16.1805   26.5994 C   0  0  1  0  0  0  0  0  0  0  0  0
    7.9287  -15.9504   26.3174 C   0  0  0  0  0  0  0  0  0  0  0  0
    7.5626  -14.5208   26.3696 C   0  0  0  0  0  0  0  0  0  0  0  0
    8.3931  -13.4827   26.7480 C   0  0  0  0  0  0  0  0  0  0  0  0
    7.7340  -12.3287   26.6772 N   0  0  0  0  0  0  0  0  0  0  0  0
    6.4890  -12.6241   26.2563 C   0  0  0  0  0  0  0  0  0  0  0  0
    6.3805  -13.9501   26.0687 N   0  0  0  0  0  0  0  0  0  0  0  0
    9.5181  -17.0144   27.8124 C   0  0  0  0  0  0  0  0  0  0  0  0
    9.1636  -16.6257   28.9532 O   0  0  0  0  0  0  0  0  0  0  0  0
   10.0445  -18.2937   27.7007 O   0  0  0  0  0  0  0  0  0  0  0  0
  2  1  1  1
  2  3  1  0
  4  2  1  0
  4  5  1  0
  5  7  1  0
  5  6  1  1
  7  8  2  0
  9 10  1  0
 11 10  1  6
 12 11  1  0
 12  7  1  0
 13 11  1  0
 14 13  2  0
 15 13  1  0
 16 17  1  6
 16 15  1  0
 18 17  1  0
 19 18  2  0
 20 19  1  0
 21 20  1  0
 21 22  2  0
 22 18  1  0
 23 25  1  0
 23 16  1  0
 24 23  2  0
M  END
$$$$
