LSH.pdb
     RDKit          3D

 25 25  0  0  1  0  0  0  0  0999 V2000
   12.5620  -20.5668   15.2603 C   0  0  0  0  0  0  0  0  0  0  0  0
   11.8927  -19.2171   15.0231 C   0  0  2  0  0  0  0  0  0  0  0  0
   12.7561  -18.5020   13.9855 C   0  0  0  0  0  0  0  0  0  0  0  0
   11.9611  -18.4218   16.2857 C   0  0  0  0  0  0  0  0  0  0  0  0
   10.9813  -17.2864   16.3346 C   0  0  2  0  0  0  0  0  0  0  0  0
   11.2788  -16.2305   15.4051 N   0  0  0  0  0  0  0  0  0  0  0  0
   11.0667  -16.7064   17.7265 C   0  0  0  0  0  0  0  0  0  0  0  0
   11.9819  -15.8956   18.0081 O   0  0  0  0  0  0  0  0  0  0  0  0
    7.7959  -17.0681   20.4853 O   0  0  0  0  0  0  0  0  0  0  0  0
    8.7359  -16.0467   20.4539 C   0  0  0  0  0  0  0  0  0  0  0  0
   10.0987  -16.5226   20.0563 C   0  0  2  0  0  0  0  0  0  0  0  0
   10.1282  -17.0640   18.7214 N   0  0  0  0  0  0  0  0  0  0  0  0
   10.7694  -17.3562   21.0716 C   0  0  0  0  0  0  0  0  0  0  0  0
   10.8306  -18.5905   20.9301 O   0  0  0  0  0  0  0  0  0  0  0  0
   11.3381  -16.7294   22.2018 N   0  0  0  0  0  0  0  0  0  0  0  0
   11.9709  -17.4589   23.2603 C   0  0  1  0  0  0  0  0  0  0  0  0
   13.1385  -16.7053   23.8674 C   0  0  0  0  0  0  0  0  0  0  0  0
   14.2922  -16.6215   22.9496 C   0  0  0  0  0  0  0  0  0  0  0  0
   14.3999  -17.2450   21.7207 C   0  0  0  0  0  0  0  0  0  0  0  0
   15.5734  -16.9503   21.1664 N   0  0  0  0  0  0  0  0  0  0  0  0
   16.2145  -16.1433   22.0336 C   0  0  0  0  0  0  0  0  0  0  0  0
   15.4428  -15.9413   23.1147 N   0  0  0  0  0  0  0  0  0  0  0  0
   11.0108  -17.7759   24.3366 C   0  0  0  0  0  0  0  0  0  0  0  0
    9.8429  -17.3149   24.3765 O   0  0  0  0  0  0  0  0  0  0  0  0
   11.4057  -18.6243   25.3615 O   0  0  0  0  0  0  0  0  0  0  0  0
  2  1  1  1
  2  3  1  0
  4  2  1  0
  4  5  1  0
  5  7  1  0
  5  6  1  6
  7  8  2  0
  9 10  1  0
 11 10  1  1
 12 11  1  0
 12  7  1  0
 13 11  1  0
 14 13  2  0
 15 13  1  0
 16 17  1  1
 16 15  1  0
 18 17  1  0
 19 18  2  0
 20 19  1  0
 21 20  1  0
 21 22  2  0
 22 18  1  0
 23 25  1  0
 23 16  1  0
 24 23  2  0
M  END
$$$$
