LSH.pdb
     RDKit          3D

 25 25  0  0  1  0  0  0  0  0999 V2000
    8.3334  -14.3381   18.5963 C   0  0  0  0  0  0  0  0  0  0  0  0
    7.5036  -13.5393   19.5961 C   0  0  2  0  0  0  0  0  0  0  0  0
    7.5848  -12.0852   19.1352 C   0  0  0  0  0  0  0  0  0  0  0  0
    8.1608  -13.6208   20.9350 C   0  0  0  0  0  0  0  0  0  0  0  0
    8.1160  -14.9914   21.5441 C   0  0  2  0  0  0  0  0  0  0  0  0
    6.8614  -15.2985   22.1759 N   0  0  0  0  0  0  0  0  0  0  0  0
    9.1838  -15.0210   22.6118 C   0  0  0  0  0  0  0  0  0  0  0  0
    8.9386  -14.5549   23.7506 O   0  0  0  0  0  0  0  0  0  0  0  0
   10.7288  -17.7105   24.4048 O   0  0  0  0  0  0  0  0  0  0  0  0
   11.0417  -16.3693   24.5823 C   0  0  0  0  0  0  0  0  0  0  0  0
   11.5115  -15.7102   23.3227 C   0  0  2  0  0  0  0  0  0  0  0  0
   10.4604  -15.5676   22.3475 N   0  0  0  0  0  0  0  0  0  0  0  0
   12.7743  -16.2543   22.7888 C   0  0  0  0  0  0  0  0  0  0  0  0
   12.7672  -17.2732   22.0752 O   0  0  0  0  0  0  0  0  0  0  0  0
   13.9855  -15.5996   23.1014 N   0  0  0  0  0  0  0  0  0  0  0  0
   15.2572  -16.0382   22.6080 C   0  0  1  0  0  0  0  0  0  0  0  0
   15.9811  -14.9580   21.8279 C   0  0  0  0  0  0  0  0  0  0  0  0
   15.3555  -14.6964   20.5162 C   0  0  0  0  0  0  0  0  0  0  0  0
   14.5443  -15.5682   19.8144 C   0  0  0  0  0  0  0  0  0  0  0  0
   14.1577  -15.0048   18.6724 N   0  0  0  0  0  0  0  0  0  0  0  0
   14.7168  -13.7798   18.6414 C   0  0  0  0  0  0  0  0  0  0  0  0
   15.4429  -13.5885   19.7555 N   0  0  0  0  0  0  0  0  0  0  0  0
   16.1324  -16.4816   23.7117 C   0  0  0  0  0  0  0  0  0  0  0  0
   15.7893  -16.4483   24.9197 O   0  0  0  0  0  0  0  0  0  0  0  0
   17.4001  -16.9614   23.4133 O   0  0  0  0  0  0  0  0  0  0  0  0
  2  1  1  6
  2  3  1  0
  4  2  1  0
  4  5  1  0
  5  7  1  0
  5  6  1  1
  7  8  2  0
  9 10  1  0
 11 10  1  1
 12 11  1  0
 12  7  1  0
 13 11  1  0
 14 13  2  0
 15 13  1  0
 16 17  1  1
 16 15  1  0
 18 17  1  0
 19 18  2  0
 20 19  1  0
 21 20  1  0
 21 22  2  0
 22 18  1  0
 23 25  1  0
 23 16  1  0
 24 23  2  0
M  END
$$$$
