LSH.pdb
     RDKit          3D

 25 25  0  0  1  0  0  0  0  0999 V2000
    6.4231  -15.1133   17.2680 C   0  0  0  0  0  0  0  0  0  0  0  0
    7.9365  -15.1097   17.0792 C   0  0  2  0  0  0  0  0  0  0  0  0
    8.2814  -16.4646   16.4637 C   0  0  0  0  0  0  0  0  0  0  0  0
    8.5852  -15.0517   18.4235 C   0  0  0  0  0  0  0  0  0  0  0  0
    8.2065  -13.8388   19.2216 C   0  0  2  0  0  0  0  0  0  0  0  0
    8.6921  -12.6072   18.6604 N   0  0  0  0  0  0  0  0  0  0  0  0
    8.8447  -14.0037   20.5805 C   0  0  0  0  0  0  0  0  0  0  0  0
   10.0853  -13.8652   20.7067 O   0  0  0  0  0  0  0  0  0  0  0  0
    6.5248  -15.6008   23.8219 O   0  0  0  0  0  0  0  0  0  0  0  0
    7.5516  -14.7011   24.0758 C   0  0  0  0  0  0  0  0  0  0  0  0
    8.5950  -14.6914   23.0020 C   0  0  2  0  0  0  0  0  0  0  0  0
    8.0634  -14.3130   21.7173 N   0  0  0  0  0  0  0  0  0  0  0  0
    9.4546  -15.8898   22.9816 C   0  0  0  0  0  0  0  0  0  0  0  0
    9.4778  -16.6292   21.9816 O   0  0  0  0  0  0  0  0  0  0  0  0
   10.2472  -16.1802   24.1134 N   0  0  0  0  0  0  0  0  0  0  0  0
   11.1050  -17.3254   24.1899 C   0  0  1  0  0  0  0  0  0  0  0  0
   12.3222  -17.1997   23.2942 C   0  0  0  0  0  0  0  0  0  0  0  0
   13.1823  -18.3990   23.3426 C   0  0  0  0  0  0  0  0  0  0  0  0
   12.7476  -19.7074   23.4410 C   0  0  0  0  0  0  0  0  0  0  0  0
   13.7933  -20.5304   23.4591 N   0  0  0  0  0  0  0  0  0  0  0  0
   14.8917  -19.7555   23.3728 C   0  0  0  0  0  0  0  0  0  0  0  0
   14.5269  -18.4643   23.3020 N   0  0  0  0  0  0  0  0  0  0  0  0
   11.5665  -17.5535   25.5739 C   0  0  0  0  0  0  0  0  0  0  0  0
   11.2755  -16.7945   26.5317 O   0  0  0  0  0  0  0  0  0  0  0  0
   12.3624  -18.6580   25.8439 O   0  0  0  0  0  0  0  0  0  0  0  0
  2  1  1  1
  2  3  1  0
  4  2  1  0
  4  5  1  0
  5  7  1  0
  5  6  1  6
  7  8  2  0
  9 10  1  0
 11 10  1  1
 12 11  1  0
 12  7  1  0
 13 11  1  0
 14 13  2  0
 15 13  1  0
 16 17  1  6
 16 15  1  0
 18 17  1  0
 19 18  2  0
 20 19  1  0
 21 20  1  0
 21 22  2  0
 22 18  1  0
 23 25  1  0
 23 16  1  0
 24 23  2  0
M  END
$$$$
