LSH.pdb
     RDKit          3D

 25 25  0  0  1  0  0  0  0  0999 V2000
    7.9582  -13.9234   18.3859 C   0  0  0  0  0  0  0  0  0  0  0  0
    7.4314  -13.2072   19.6251 C   0  0  2  0  0  0  0  0  0  0  0  0
    7.7944  -11.7351   19.4398 C   0  0  0  0  0  0  0  0  0  0  0  0
    8.1795  -13.7049   20.8184 C   0  0  0  0  0  0  0  0  0  0  0  0
    7.8373  -15.1160   21.1967 C   0  0  2  0  0  0  0  0  0  0  0  0
    6.4866  -15.2741   21.6637 N   0  0  0  0  0  0  0  0  0  0  0  0
    8.7595  -15.4907   22.3326 C   0  0  0  0  0  0  0  0  0  0  0  0
    8.3777  -15.3440   23.5188 O   0  0  0  0  0  0  0  0  0  0  0  0
   10.1790  -18.6493   23.3574 O   0  0  0  0  0  0  0  0  0  0  0  0
   10.4443  -17.4529   24.0104 C   0  0  0  0  0  0  0  0  0  0  0  0
   10.9925  -16.4009   23.0969 C   0  0  2  0  0  0  0  0  0  0  0  0
   10.0513  -16.0062   22.0798 N   0  0  0  0  0  0  0  0  0  0  0  0
   12.3528  -16.6795   22.5994 C   0  0  0  0  0  0  0  0  0  0  0  0
   12.5408  -16.9413   21.3979 O   0  0  0  0  0  0  0  0  0  0  0  0
   13.4325  -16.6431   23.5084 N   0  0  0  0  0  0  0  0  0  0  0  0
   14.7855  -16.4061   23.1008 C   0  0  1  0  0  0  0  0  0  0  0  0
   14.9769  -15.0284   22.4966 C   0  0  0  0  0  0  0  0  0  0  0  0
   14.6720  -15.0004   21.0521 C   0  0  0  0  0  0  0  0  0  0  0  0
   14.2623  -16.0762   20.2871 C   0  0  0  0  0  0  0  0  0  0  0  0
   14.0786  -15.6900   19.0268 N   0  0  0  0  0  0  0  0  0  0  0  0
   14.3684  -14.3753   18.9833 C   0  0  0  0  0  0  0  0  0  0  0  0
   14.7281  -13.9533   20.2071 N   0  0  0  0  0  0  0  0  0  0  0  0
   15.7171  -16.5497   24.2376 C   0  0  0  0  0  0  0  0  0  0  0  0
   15.3375  -16.7287   25.4217 O   0  0  0  0  0  0  0  0  0  0  0  0
   17.0829  -16.4855   24.0000 O   0  0  0  0  0  0  0  0  0  0  0  0
  2  1  1  6
  2  3  1  0
  4  2  1  0
  4  5  1  0
  5  7  1  0
  5  6  1  1
  7  8  2  0
  9 10  1  0
 11 10  1  6
 12 11  1  0
 12  7  1  0
 13 11  1  0
 14 13  2  0
 15 13  1  0
 16 17  1  1
 16 15  1  0
 18 17  1  0
 19 18  2  0
 20 19  1  0
 21 20  1  0
 21 22  2  0
 22 18  1  0
 23 25  1  0
 23 16  1  0
 24 23  2  0
M  END
$$$$
