LSH.pdb
     RDKit          3D

 25 25  0  0  1  0  0  0  0  0999 V2000
    8.0913  -13.5355   18.3324 C   0  0  0  0  0  0  0  0  0  0  0  0
    7.3819  -13.3642   19.6716 C   0  0  2  0  0  0  0  0  0  0  0  0
    7.5372  -11.8894   20.0382 C   0  0  0  0  0  0  0  0  0  0  0  0
    8.1116  -14.1602   20.7037 C   0  0  0  0  0  0  0  0  0  0  0  0
    7.9053  -15.6410   20.5772 C   0  0  2  0  0  0  0  0  0  0  0  0
    6.5443  -16.0518   20.7928 N   0  0  0  0  0  0  0  0  0  0  0  0
    8.7514  -16.2846   21.6500 C   0  0  0  0  0  0  0  0  0  0  0  0
    8.2173  -16.6647   22.7199 O   0  0  0  0  0  0  0  0  0  0  0  0
   10.3731  -19.3651   21.6054 O   0  0  0  0  0  0  0  0  0  0  0  0
   10.4856  -18.5394   22.7161 C   0  0  0  0  0  0  0  0  0  0  0  0
   11.0042  -17.1763   22.3772 C   0  0  2  0  0  0  0  0  0  0  0  0
   10.1414  -16.4664   21.4673 N   0  0  0  0  0  0  0  0  0  0  0  0
   12.4344  -17.1443   22.0178 C   0  0  0  0  0  0  0  0  0  0  0  0
   12.8293  -17.6755   20.9646 O   0  0  0  0  0  0  0  0  0  0  0  0
   13.3423  -16.5021   22.8877 N   0  0  0  0  0  0  0  0  0  0  0  0
   14.7552  -16.4692   22.6520 C   0  0  1  0  0  0  0  0  0  0  0  0
   15.2108  -15.1598   22.0375 C   0  0  0  0  0  0  0  0  0  0  0  0
   14.8099  -15.0331   20.6220 C   0  0  0  0  0  0  0  0  0  0  0  0
   13.5725  -14.6243   20.1614 C   0  0  0  0  0  0  0  0  0  0  0  0
   13.5627  -14.6271   18.8306 N   0  0  0  0  0  0  0  0  0  0  0  0
   14.7855  -15.0349   18.4397 C   0  0  0  0  0  0  0  0  0  0  0  0
   15.5441  -15.2819   19.5208 N   0  0  0  0  0  0  0  0  0  0  0  0
   15.5090  -16.6836   23.9036 C   0  0  0  0  0  0  0  0  0  0  0  0
   14.9588  -16.8289   25.0235 O   0  0  0  0  0  0  0  0  0  0  0  0
   16.8952  -16.7290   23.8543 O   0  0  0  0  0  0  0  0  0  0  0  0
  2  1  1  6
  2  3  1  0
  4  2  1  0
  4  5  1  0
  5  7  1  0
  5  6  1  1
  7  8  2  0
  9 10  1  0
 11 10  1  6
 12 11  1  0
 12  7  1  0
 13 11  1  0
 14 13  2  0
 15 13  1  0
 16 17  1  1
 16 15  1  0
 18 17  1  0
 19 18  2  0
 20 19  1  0
 21 20  1  0
 21 22  2  0
 22 18  1  0
 23 25  1  0
 23 16  1  0
 24 23  2  0
M  END
$$$$
