LSH.pdb
     RDKit          3D

 25 25  0  0  1  0  0  0  0  0999 V2000
    9.2202  -12.8164   18.7701 C   0  0  0  0  0  0  0  0  0  0  0  0
    7.9602  -13.2702   19.4998 C   0  0  2  0  0  0  0  0  0  0  0  0
    7.4405  -12.0374   20.2371 C   0  0  0  0  0  0  0  0  0  0  0  0
    8.3436  -14.2793   20.5322 C   0  0  0  0  0  0  0  0  0  0  0  0
    8.8919  -15.5512   19.9549 C   0  0  2  0  0  0  0  0  0  0  0  0
    7.9306  -16.2942   19.1859 N   0  0  0  0  0  0  0  0  0  0  0  0
    9.3021  -16.4116   21.1264 C   0  0  0  0  0  0  0  0  0  0  0  0
    8.4351  -17.0729   21.7471 O   0  0  0  0  0  0  0  0  0  0  0  0
   12.9720  -18.5668   23.4761 O   0  0  0  0  0  0  0  0  0  0  0  0
   12.5631  -17.6634   22.5041 C   0  0  0  0  0  0  0  0  0  0  0  0
   11.1316  -17.2523   22.6578 C   0  0  2  0  0  0  0  0  0  0  0  0
   10.6531  -16.4841   21.5366 N   0  0  0  0  0  0  0  0  0  0  0  0
   10.8036  -16.6813   23.9776 C   0  0  0  0  0  0  0  0  0  0  0  0
   11.0214  -15.4795   24.2137 O   0  0  0  0  0  0  0  0  0  0  0  0
   10.2402  -17.5207   24.9633 N   0  0  0  0  0  0  0  0  0  0  0  0
    9.8416  -17.0456   26.2549 C   0  0  1  0  0  0  0  0  0  0  0  0
    8.3346  -17.0071   26.4196 C   0  0  0  0  0  0  0  0  0  0  0  0
    7.7400  -15.7725   25.8695 C   0  0  0  0  0  0  0  0  0  0  0  0
    8.4353  -14.7019   25.3394 C   0  0  0  0  0  0  0  0  0  0  0  0
    7.5814  -13.7631   24.9386 N   0  0  0  0  0  0  0  0  0  0  0  0
    6.3466  -14.2279   25.2095 C   0  0  0  0  0  0  0  0  0  0  0  0
    6.4375  -15.4441   25.7732 N   0  0  0  0  0  0  0  0  0  0  0  0
   10.4062  -17.8868   27.3293 C   0  0  0  0  0  0  0  0  0  0  0  0
    9.9235  -17.9416   28.4878 O   0  0  0  0  0  0  0  0  0  0  0  0
   11.5263  -18.6605   27.0591 O   0  0  0  0  0  0  0  0  0  0  0  0
  2  1  1  1
  2  3  1  0
  4  2  1  0
  4  5  1  0
  5  7  1  0
  5  6  1  1
  7  8  2  0
  9 10  1  0
 11 10  1  6
 12 11  1  0
 12  7  1  0
 13 11  1  0
 14 13  2  0
 15 13  1  0
 16 17  1  6
 16 15  1  0
 18 17  1  0
 19 18  2  0
 20 19  1  0
 21 20  1  0
 21 22  2  0
 22 18  1  0
 23 25  1  0
 23 16  1  0
 24 23  2  0
M  END
$$$$
