WQY.pdb
     RDKit          3D

 36 38  0  0  1  0  0  0  0  0999 V2000
   26.3350  -20.7985  -20.9733 N   0  0  0  0  0  0  0  0  0  0  0  0
   25.3348  -20.2999  -20.0437 C   0  0  1  0  0  0  0  0  0  0  0  0
   24.3148  -19.5352  -20.8401 C   0  0  0  0  0  0  0  0  0  0  0  0
   24.8360  -18.2837  -21.4015 C   0  0  0  0  0  0  0  0  0  0  0  0
   25.6130  -18.1676  -22.5311 C   0  0  0  0  0  0  0  0  0  0  0  0
   25.8937  -16.8589  -22.7289 N   0  0  0  0  0  0  0  0  0  0  0  0
   25.3213  -16.1020  -21.7570 C   0  0  0  0  0  0  0  0  0  0  0  0
   25.3112  -14.7481  -21.5184 C   0  0  0  0  0  0  0  0  0  0  0  0
   24.6236  -14.2777  -20.4246 C   0  0  0  0  0  0  0  0  0  0  0  0
   23.9627  -15.1820  -19.5973 C   0  0  0  0  0  0  0  0  0  0  0  0
   23.9756  -16.5393  -19.8407 C   0  0  0  0  0  0  0  0  0  0  0  0
   24.6622  -17.0049  -20.9320 C   0  0  0  0  0  0  0  0  0  0  0  0
   24.7689  -21.3539  -19.2031 C   0  0  0  0  0  0  0  0  0  0  0  0
   24.4157  -22.4429  -19.7150 O   0  0  0  0  0  0  0  0  0  0  0  0
   26.3699  -25.5731  -16.6898 N   0  0  0  0  0  0  0  0  0  0  0  0
   27.0264  -24.3117  -16.7092 C   0  0  0  0  0  0  0  0  0  0  0  0
   28.2847  -24.3285  -16.5798 O   0  0  0  0  0  0  0  0  0  0  0  0
   26.2540  -23.0481  -16.8748 C   0  0  0  0  0  0  0  0  0  0  0  0
   24.7922  -23.4152  -16.9092 C   0  0  0  0  0  0  0  0  0  0  0  0
   23.9014  -22.1978  -16.9961 C   0  0  2  0  0  0  0  0  0  0  0  0
   24.5882  -21.2168  -17.7986 N   0  0  0  0  0  0  0  0  0  0  0  0
   23.6392  -21.7264  -15.6101 C   0  0  0  0  0  0  0  0  0  0  0  0
   24.4157  -21.0115  -14.9459 O   0  0  0  0  0  0  0  0  0  0  0  0
   17.9204  -18.6051   -9.8846 O   0  0  0  0  0  0  0  0  0  0  0  0
   18.8931  -19.0149  -10.7892 C   0  0  0  0  0  0  0  0  0  0  0  0
   20.2170  -19.1580  -10.4007 C   0  0  0  0  0  0  0  0  0  0  0  0
   21.1820  -19.5623  -11.2910 C   0  0  0  0  0  0  0  0  0  0  0  0
   20.8784  -19.8458  -12.6170 C   0  0  0  0  0  0  0  0  0  0  0  0
   21.9214  -20.2658  -13.5563 C   0  0  0  0  0  0  0  0  0  0  0  0
   22.0883  -21.7701  -13.6347 C   0  0  2  0  0  0  0  0  0  0  0  0
   22.4161  -22.1242  -15.0114 N   0  0  0  0  0  0  0  0  0  0  0  0
   20.8434  -22.4588  -13.2581 C   0  0  0  0  0  0  0  0  0  0  0  0
   19.9622  -22.9510  -14.2013 O   0  0  0  0  0  0  0  0  0  0  0  0
   19.5574  -19.6989  -12.9877 C   0  0  0  0  0  0  0  0  0  0  0  0
   18.5892  -19.2954  -12.1034 C   0  0  0  0  0  0  0  0  0  0  0  0
   20.5552  -22.6124  -12.0514 O   0  0  0  0  0  0  0  0  0  0  0  0
  2  3  1  0
  2  1  1  6
  4 12  1  0
  4  3  1  0
  5  4  2  0
  6  5  1  0
  6  7  1  0
  7  8  1  0
  7 12  2  0
  8  9  2  0
  9 10  1  0
 11 10  2  0
 12 11  1  0
 13  2  1  0
 14 13  2  0
 16 18  1  0
 16 15  1  0
 17 16  2  0
 20 19  1  1
 19 18  1  0
 20 21  1  0
 21 13  1  0
 22 20  1  0
 22 31  1  0
 23 22  2  0
 25 24  1  0
 25 26  2  0
 27 26  1  0
 28 27  2  0
 29 28  1  0
 30 31  1  0
 30 29  1  6
 32 30  1  0
 32 33  1  0
 34 35  2  0
 34 28  1  0
 35 25  1  0
 36 32  2  0
M  END
$$$$
