WQY.pdb
     RDKit          3D

 36 38  0  0  1  0  0  0  0  0999 V2000
   28.9663  -17.5697  -19.5918 N   0  0  0  0  0  0  0  0  0  0  0  0
   28.1562  -17.6056  -18.3854 C   0  0  1  0  0  0  0  0  0  0  0  0
   27.4713  -16.2737  -18.2575 C   0  0  0  0  0  0  0  0  0  0  0  0
   28.4060  -15.1524  -18.1082 C   0  0  0  0  0  0  0  0  0  0  0  0
   29.5475  -14.9489  -18.8489 C   0  0  0  0  0  0  0  0  0  0  0  0
   30.1427  -13.8120  -18.4203 N   0  0  0  0  0  0  0  0  0  0  0  0
   29.4236  -13.2548  -17.4117 C   0  0  0  0  0  0  0  0  0  0  0  0
   29.6049  -12.1192  -16.6581 C   0  0  0  0  0  0  0  0  0  0  0  0
   28.6779  -11.8180  -15.6884 C   0  0  0  0  0  0  0  0  0  0  0  0
   27.5906  -12.6674  -15.5008 C   0  0  0  0  0  0  0  0  0  0  0  0
   27.4128  -13.8053  -16.2592 C   0  0  0  0  0  0  0  0  0  0  0  0
   28.3390  -14.1027  -17.2251 C   0  0  0  0  0  0  0  0  0  0  0  0
   27.2477  -18.7506  -18.3484 C   0  0  0  0  0  0  0  0  0  0  0  0
   27.1476  -19.5047  -19.3455 O   0  0  0  0  0  0  0  0  0  0  0  0
   27.6776  -23.6960  -17.6479 N   0  0  0  0  0  0  0  0  0  0  0  0
   28.0171  -22.8760  -16.5367 C   0  0  0  0  0  0  0  0  0  0  0  0
   28.9147  -23.3180  -15.7627 O   0  0  0  0  0  0  0  0  0  0  0  0
   27.3391  -21.5678  -16.3140 C   0  0  0  0  0  0  0  0  0  0  0  0
   26.2535  -21.4408  -17.3525 C   0  0  0  0  0  0  0  0  0  0  0  0
   25.4851  -20.1468  -17.2173 C   0  0  2  0  0  0  0  0  0  0  0  0
   26.4458  -19.0722  -17.2181 N   0  0  0  0  0  0  0  0  0  0  0  0
   24.6983  -20.2148  -15.9570 C   0  0  0  0  0  0  0  0  0  0  0  0
   25.1889  -20.1643  -14.8117 O   0  0  0  0  0  0  0  0  0  0  0  0
   17.6765  -19.3846  -10.7234 O   0  0  0  0  0  0  0  0  0  0  0  0
   18.6757  -19.3191  -11.6876 C   0  0  0  0  0  0  0  0  0  0  0  0
   18.4039  -19.5939  -13.0198 C   0  0  0  0  0  0  0  0  0  0  0  0
   19.3880  -19.5309  -13.9764 C   0  0  0  0  0  0  0  0  0  0  0  0
   20.6964  -19.1903  -13.6555 C   0  0  0  0  0  0  0  0  0  0  0  0
   21.7364  -19.1379  -14.6862 C   0  0  0  0  0  0  0  0  0  0  0  0
   22.4305  -20.4669  -14.9069 C   0  0  2  0  0  0  0  0  0  0  0  0
   23.2909  -20.3463  -16.0787 N   0  0  0  0  0  0  0  0  0  0  0  0
   21.4518  -21.5381  -15.1532 C   0  0  0  0  0  0  0  0  0  0  0  0
   20.9709  -22.3413  -14.1373 O   0  0  0  0  0  0  0  0  0  0  0  0
   20.9505  -18.9197  -12.3265 C   0  0  0  0  0  0  0  0  0  0  0  0
   19.9722  -18.9809  -11.3667 C   0  0  0  0  0  0  0  0  0  0  0  0
   21.0306  -21.7449  -16.3119 O   0  0  0  0  0  0  0  0  0  0  0  0
  2  3  1  0
  2  1  1  6
  4 12  1  0
  4  3  1  0
  5  4  2  0
  6  5  1  0
  6  7  1  0
  7  8  1  0
  7 12  2  0
  8  9  2  0
  9 10  1  0
 11 10  2  0
 12 11  1  0
 13  2  1  0
 14 13  2  0
 16 18  1  0
 16 15  1  0
 17 16  2  0
 20 19  1  1
 19 18  1  0
 20 21  1  0
 21 13  1  0
 22 20  1  0
 22 31  1  0
 23 22  2  0
 25 24  1  0
 25 26  2  0
 27 26  1  0
 28 27  2  0
 29 28  1  0
 30 31  1  0
 30 29  1  6
 32 30  1  0
 32 33  1  0
 34 35  2  0
 34 28  1  0
 35 25  1  0
 36 32  2  0
M  END
$$$$
