WQY.pdb
     RDKit          3D

 36 38  0  0  1  0  0  0  0  0999 V2000
   27.5431  -22.2536  -13.4561 N   0  0  0  0  0  0  0  0  0  0  0  0
   26.3688  -21.7310  -12.7770 C   0  0  1  0  0  0  0  0  0  0  0  0
   26.7443  -20.4069  -12.1729 C   0  0  0  0  0  0  0  0  0  0  0  0
   27.7912  -20.5116  -11.1500 C   0  0  0  0  0  0  0  0  0  0  0  0
   29.1478  -20.4911  -11.3783 C   0  0  0  0  0  0  0  0  0  0  0  0
   29.7868  -20.6106  -10.1917 N   0  0  0  0  0  0  0  0  0  0  0  0
   28.8865  -20.7101   -9.1796 C   0  0  0  0  0  0  0  0  0  0  0  0
   29.0290  -20.8456   -7.8188 C   0  0  0  0  0  0  0  0  0  0  0  0
   27.8965  -20.9206   -7.0428 C   0  0  0  0  0  0  0  0  0  0  0  0
   26.6477  -20.8575   -7.6555 C   0  0  0  0  0  0  0  0  0  0  0  0
   26.5097  -20.7215   -9.0208 C   0  0  0  0  0  0  0  0  0  0  0  0
   27.6409  -20.6470   -9.7916 C   0  0  0  0  0  0  0  0  0  0  0  0
   25.1911  -21.6807  -13.6420 C   0  0  0  0  0  0  0  0  0  0  0  0
   25.2718  -21.1652  -14.7825 O   0  0  0  0  0  0  0  0  0  0  0  0
   21.8136  -26.2251  -14.8928 N   0  0  0  0  0  0  0  0  0  0  0  0
   20.8225  -25.4513  -14.2284 C   0  0  0  0  0  0  0  0  0  0  0  0
   19.7344  -26.0381  -13.9603 O   0  0  0  0  0  0  0  0  0  0  0  0
   21.0729  -24.0253  -13.8752 C   0  0  0  0  0  0  0  0  0  0  0  0
   22.4381  -23.6637  -14.4030 C   0  0  0  0  0  0  0  0  0  0  0  0
   22.7834  -22.2157  -14.1438 C   0  0  2  0  0  0  0  0  0  0  0  0
   23.9211  -22.1950  -13.2590 N   0  0  0  0  0  0  0  0  0  0  0  0
   21.5845  -21.5608  -13.5557 C   0  0  0  0  0  0  0  0  0  0  0  0
   21.4594  -21.2622  -12.3514 O   0  0  0  0  0  0  0  0  0  0  0  0
   19.8028  -13.6338  -16.1205 O   0  0  0  0  0  0  0  0  0  0  0  0
   20.1315  -14.9665  -15.9007 C   0  0  0  0  0  0  0  0  0  0  0  0
   20.8346  -15.3530  -14.7691 C   0  0  0  0  0  0  0  0  0  0  0  0
   21.1621  -16.6687  -14.5476 C   0  0  0  0  0  0  0  0  0  0  0  0
   20.8058  -17.6699  -15.4429 C   0  0  0  0  0  0  0  0  0  0  0  0
   21.1720  -19.0670  -15.1968 C   0  0  0  0  0  0  0  0  0  0  0  0
   20.0386  -19.8922  -14.6212 C   0  0  2  0  0  0  0  0  0  0  0  0
   20.5141  -21.2590  -14.4364 N   0  0  0  0  0  0  0  0  0  0  0  0
   18.8869  -19.9172  -15.5372 C   0  0  0  0  0  0  0  0  0  0  0  0
   18.9190  -20.5980  -16.7388 O   0  0  0  0  0  0  0  0  0  0  0  0
   20.1067  -17.2693  -16.5632 C   0  0  0  0  0  0  0  0  0  0  0  0
   19.7768  -15.9571  -16.7901 C   0  0  0  0  0  0  0  0  0  0  0  0
   17.8372  -19.3082  -15.2373 O   0  0  0  0  0  0  0  0  0  0  0  0
  2  3  1  0
  2  1  1  6
  4 12  1  0
  4  3  1  0
  5  4  2  0
  6  5  1  0
  6  7  1  0
  7  8  1  0
  7 12  2  0
  8  9  2  0
  9 10  1  0
 11 10  2  0
 12 11  1  0
 13  2  1  0
 14 13  2  0
 16 18  1  0
 16 15  1  0
 17 16  2  0
 20 19  1  1
 19 18  1  0
 20 21  1  0
 21 13  1  0
 22 20  1  0
 22 31  1  0
 23 22  2  0
 25 24  1  0
 25 26  2  0
 27 26  1  0
 28 27  2  0
 29 28  1  0
 30 31  1  0
 30 29  1  6
 32 30  1  0
 32 33  1  0
 34 35  2  0
 34 28  1  0
 35 25  1  0
 36 32  2  0
M  END
$$$$
