WQY.pdb
     RDKit          3D

 36 38  0  0  1  0  0  0  0  0999 V2000
   28.0158  -19.4961  -11.3840 N   0  0  0  0  0  0  0  0  0  0  0  0
   27.2425  -20.7183  -11.5308 C   0  0  1  0  0  0  0  0  0  0  0  0
   26.7544  -21.1143  -10.1654 C   0  0  0  0  0  0  0  0  0  0  0  0
   27.8014  -21.0669   -9.1384 C   0  0  0  0  0  0  0  0  0  0  0  0
   27.7053  -20.4434   -7.9157 C   0  0  0  0  0  0  0  0  0  0  0  0
   28.8696  -20.6186   -7.2494 N   0  0  0  0  0  0  0  0  0  0  0  0
   29.7380  -21.3443   -8.0006 C   0  0  0  0  0  0  0  0  0  0  0  0
   31.0220  -21.7810   -7.7751 C   0  0  0  0  0  0  0  0  0  0  0  0
   31.6493  -22.5141   -8.7546 C   0  0  0  0  0  0  0  0  0  0  0  0
   30.9687  -22.7898   -9.9376 C   0  0  0  0  0  0  0  0  0  0  0  0
   29.6807  -22.3497  -10.1593 C   0  0  0  0  0  0  0  0  0  0  0  0
   29.0582  -21.6190   -9.1807 C   0  0  0  0  0  0  0  0  0  0  0  0
   26.1843  -20.6008  -12.5328 C   0  0  0  0  0  0  0  0  0  0  0  0
   25.4728  -19.5689  -12.5761 O   0  0  0  0  0  0  0  0  0  0  0  0
   26.5179  -24.7937  -15.9070 N   0  0  0  0  0  0  0  0  0  0  0  0
   27.1702  -23.6073  -16.3420 C   0  0  0  0  0  0  0  0  0  0  0  0
   28.3305  -23.7466  -16.8263 O   0  0  0  0  0  0  0  0  0  0  0  0
   26.5041  -22.2794  -16.2249 C   0  0  0  0  0  0  0  0  0  0  0  0
   25.1643  -22.5039  -15.5710 C   0  0  0  0  0  0  0  0  0  0  0  0
   24.8777  -21.4823  -14.4952 C   0  0  2  0  0  0  0  0  0  0  0  0
   25.9025  -21.6147  -13.4902 N   0  0  0  0  0  0  0  0  0  0  0  0
   23.5139  -21.7503  -13.9656 C   0  0  0  0  0  0  0  0  0  0  0  0
   23.1569  -22.8218  -13.4371 O   0  0  0  0  0  0  0  0  0  0  0  0
   15.3185  -19.5594  -11.3429 O   0  0  0  0  0  0  0  0  0  0  0  0
   16.6615  -19.5762  -11.7012 C   0  0  0  0  0  0  0  0  0  0  0  0
   17.1020  -18.9473  -12.8566 C   0  0  0  0  0  0  0  0  0  0  0  0
   18.4281  -18.9614  -13.2152 C   0  0  0  0  0  0  0  0  0  0  0  0
   19.3864  -19.6036  -12.4406 C   0  0  0  0  0  0  0  0  0  0  0  0
   20.7952  -19.6182  -12.8428 C   0  0  0  0  0  0  0  0  0  0  0  0
   21.1900  -20.8693  -13.6015 C   0  0  2  0  0  0  0  0  0  0  0  0
   22.5602  -20.7057  -14.0748 N   0  0  0  0  0  0  0  0  0  0  0  0
   20.3145  -21.0779  -14.7659 C   0  0  0  0  0  0  0  0  0  0  0  0
   19.1899  -21.8779  -14.7050 O   0  0  0  0  0  0  0  0  0  0  0  0
   18.9325  -20.2241  -11.2947 C   0  0  0  0  0  0  0  0  0  0  0  0
   17.6097  -20.2136  -10.9312 C   0  0  0  0  0  0  0  0  0  0  0  0
   20.5801  -20.5235  -15.8543 O   0  0  0  0  0  0  0  0  0  0  0  0
  2  3  1  0
  2  1  1  1
  4 12  1  0
  4  3  1  0
  5  4  2  0
  6  5  1  0
  6  7  1  0
  7  8  1  0
  7 12  2  0
  8  9  2  0
  9 10  1  0
 11 10  2  0
 12 11  1  0
 13  2  1  0
 14 13  2  0
 16 18  1  0
 16 15  1  0
 17 16  2  0
 20 19  1  6
 19 18  1  0
 20 21  1  0
 21 13  1  0
 22 20  1  0
 22 31  1  0
 23 22  2  0
 25 24  1  0
 25 26  2  0
 27 26  1  0
 28 27  2  0
 29 28  1  0
 30 31  1  0
 30 29  1  6
 32 30  1  0
 32 33  1  0
 34 35  2  0
 34 28  1  0
 35 25  1  0
 36 32  2  0
M  END
$$$$
