WQY.pdb
     RDKit          3D

 36 38  0  0  1  0  0  0  0  0999 V2000
   24.7737  -21.2660  -17.8025 N   0  0  0  0  0  0  0  0  0  0  0  0
   23.7518  -22.1862  -18.2736 C   0  0  1  0  0  0  0  0  0  0  0  0
   23.8790  -22.2807  -19.7684 C   0  0  0  0  0  0  0  0  0  0  0  0
   23.6081  -21.0126  -20.4552 C   0  0  0  0  0  0  0  0  0  0  0  0
   24.5113  -19.9943  -20.6561 C   0  0  0  0  0  0  0  0  0  0  0  0
   23.8925  -18.9946  -21.3255 N   0  0  0  0  0  0  0  0  0  0  0  0
   22.5986  -19.3243  -21.5743 C   0  0  0  0  0  0  0  0  0  0  0  0
   21.5762  -18.6611  -22.2109 C   0  0  0  0  0  0  0  0  0  0  0  0
   20.3500  -19.2759  -22.3036 C   0  0  0  0  0  0  0  0  0  0  0  0
   20.1825  -20.5439  -21.7531 C   0  0  0  0  0  0  0  0  0  0  0  0
   21.2109  -21.2054  -21.1156 C   0  0  0  0  0  0  0  0  0  0  0  0
   22.4322  -20.5895  -21.0249 C   0  0  0  0  0  0  0  0  0  0  0  0
   23.7934  -23.4767  -17.5877 C   0  0  0  0  0  0  0  0  0  0  0  0
   24.8922  -23.9571  -17.2205 O   0  0  0  0  0  0  0  0  0  0  0  0
   20.2560  -26.5375  -12.8276 N   0  0  0  0  0  0  0  0  0  0  0  0
   20.7740  -25.3347  -13.3820 C   0  0  0  0  0  0  0  0  0  0  0  0
   20.1505  -24.2702  -13.1023 O   0  0  0  0  0  0  0  0  0  0  0  0
   21.9890  -25.3495  -14.2447 C   0  0  0  0  0  0  0  0  0  0  0  0
   21.5312  -25.5754  -15.6633 C   0  0  0  0  0  0  0  0  0  0  0  0
   22.6780  -25.5272  -16.6460 C   0  0  2  0  0  0  0  0  0  0  0  0
   22.6304  -24.2448  -17.3025 N   0  0  0  0  0  0  0  0  0  0  0  0
   22.5151  -26.6642  -17.5909 C   0  0  0  0  0  0  0  0  0  0  0  0
   21.8885  -26.6067  -18.6675 O   0  0  0  0  0  0  0  0  0  0  0  0
   27.6196  -31.6048  -14.3201 O   0  0  0  0  0  0  0  0  0  0  0  0
   26.8741  -31.0510  -15.3544 C   0  0  0  0  0  0  0  0  0  0  0  0
   26.9995  -29.7106  -15.6891 C   0  0  0  0  0  0  0  0  0  0  0  0
   26.2648  -29.1585  -16.7102 C   0  0  0  0  0  0  0  0  0  0  0  0
   25.3651  -29.9137  -17.4526 C   0  0  0  0  0  0  0  0  0  0  0  0
   24.5814  -29.3070  -18.5316 C   0  0  0  0  0  0  0  0  0  0  0  0
   23.1415  -29.0324  -18.1466 C   0  0  2  0  0  0  0  0  0  0  0  0
   23.1199  -27.8963  -17.2317 N   0  0  0  0  0  0  0  0  0  0  0  0
   22.5476  -30.1936  -17.4649 C   0  0  0  0  0  0  0  0  0  0  0  0
   22.3154  -30.2061  -16.1032 O   0  0  0  0  0  0  0  0  0  0  0  0
   25.2519  -31.2450  -17.1076 C   0  0  0  0  0  0  0  0  0  0  0  0
   25.9828  -31.8021  -16.0890 C   0  0  0  0  0  0  0  0  0  0  0  0
   22.2375  -31.2116  -18.1209 O   0  0  0  0  0  0  0  0  0  0  0  0
  2  3  1  0
  2  1  1  1
  4 12  1  0
  4  3  1  0
  5  4  2  0
  6  5  1  0
  6  7  1  0
  7  8  1  0
  7 12  2  0
  8  9  2  0
  9 10  1  0
 11 10  2  0
 12 11  1  0
 13  2  1  0
 14 13  2  0
 16 18  1  0
 16 15  1  0
 17 16  2  0
 20 19  1  1
 19 18  1  0
 20 21  1  0
 21 13  1  0
 22 20  1  0
 22 31  1  0
 23 22  2  0
 25 24  1  0
 25 26  2  0
 27 26  1  0
 28 27  2  0
 29 28  1  0
 30 31  1  0
 30 29  1  1
 32 30  1  0
 32 33  1  0
 34 35  2  0
 34 28  1  0
 35 25  1  0
 36 32  2  0
M  END
$$$$
