WQY.pdb
     RDKit          3D

 36 38  0  0  1  0  0  0  0  0999 V2000
   27.5839  -22.2089  -13.8537 N   0  0  0  0  0  0  0  0  0  0  0  0
   26.3244  -21.7191  -13.3181 C   0  0  1  0  0  0  0  0  0  0  0  0
   26.6008  -20.4122  -12.6289 C   0  0  0  0  0  0  0  0  0  0  0  0
   27.5488  -20.5324  -11.5154 C   0  0  0  0  0  0  0  0  0  0  0  0
   28.9145  -20.6561  -11.6276 C   0  0  0  0  0  0  0  0  0  0  0  0
   29.4436  -20.7402  -10.3852 N   0  0  0  0  0  0  0  0  0  0  0  0
   28.4614  -20.6752   -9.4493 C   0  0  0  0  0  0  0  0  0  0  0  0
   28.4827  -20.7152   -8.0752 C   0  0  0  0  0  0  0  0  0  0  0  0
   27.2912  -20.6231   -7.3955 C   0  0  0  0  0  0  0  0  0  0  0  0
   26.1066  -20.4929   -8.1158 C   0  0  0  0  0  0  0  0  0  0  0  0
   26.0900  -20.4532   -9.4941 C   0  0  0  0  0  0  0  0  0  0  0  0
   27.2799  -20.5454  -10.1686 C   0  0  0  0  0  0  0  0  0  0  0  0
   25.2691  -21.6507  -14.3279 C   0  0  0  0  0  0  0  0  0  0  0  0
   25.4827  -21.0733  -15.4205 O   0  0  0  0  0  0  0  0  0  0  0  0
   26.0007  -23.8289  -16.9021 N   0  0  0  0  0  0  0  0  0  0  0  0
   25.2966  -24.7349  -16.0620 C   0  0  0  0  0  0  0  0  0  0  0  0
   25.9546  -25.7194  -15.6172 O   0  0  0  0  0  0  0  0  0  0  0  0
   23.8590  -24.5175  -15.7350 C   0  0  0  0  0  0  0  0  0  0  0  0
   23.4761  -23.1605  -16.2687 C   0  0  0  0  0  0  0  0  0  0  0  0
   22.9753  -22.2410  -15.1793 C   0  0  2  0  0  0  0  0  0  0  0  0
   23.9763  -22.2148  -14.1425 N   0  0  0  0  0  0  0  0  0  0  0  0
   21.6682  -22.7685  -14.7045 C   0  0  0  0  0  0  0  0  0  0  0  0
   21.5340  -23.7351  -13.9282 O   0  0  0  0  0  0  0  0  0  0  0  0
   21.9122  -19.9765   -9.2795 O   0  0  0  0  0  0  0  0  0  0  0  0
   21.1396  -20.2487  -10.4026 C   0  0  0  0  0  0  0  0  0  0  0  0
   20.1380  -21.2078  -10.3670 C   0  0  0  0  0  0  0  0  0  0  0  0
   19.3719  -21.4806  -11.4743 C   0  0  0  0  0  0  0  0  0  0  0  0
   19.5637  -20.8115  -12.6769 C   0  0  0  0  0  0  0  0  0  0  0  0
   18.7449  -21.1220  -13.8515 C   0  0  0  0  0  0  0  0  0  0  0  0
   19.1907  -22.3738  -14.5802 C   0  0  2  0  0  0  0  0  0  0  0  0
   20.4983  -22.1179  -15.1743 N   0  0  0  0  0  0  0  0  0  0  0  0
   18.2480  -22.7215  -15.6557 C   0  0  0  0  0  0  0  0  0  0  0  0
   16.9373  -23.0737  -15.3978 O   0  0  0  0  0  0  0  0  0  0  0  0
   20.5635  -19.8606  -12.6960 C   0  0  0  0  0  0  0  0  0  0  0  0
   21.3318  -19.5836  -11.5937 C   0  0  0  0  0  0  0  0  0  0  0  0
   18.6261  -22.7051  -16.8471 O   0  0  0  0  0  0  0  0  0  0  0  0
  2  3  1  0
  2  1  1  6
  4 12  1  0
  4  3  1  0
  5  4  2  0
  6  5  1  0
  6  7  1  0
  7  8  1  0
  7 12  2  0
  8  9  2  0
  9 10  1  0
 11 10  2  0
 12 11  1  0
 13  2  1  0
 14 13  2  0
 16 18  1  0
 16 15  1  0
 17 16  2  0
 20 19  1  6
 19 18  1  0
 20 21  1  0
 21 13  1  0
 22 20  1  0
 22 31  1  0
 23 22  2  0
 25 24  1  0
 25 26  2  0
 27 26  1  0
 28 27  2  0
 29 28  1  0
 30 31  1  0
 30 29  1  6
 32 30  1  0
 32 33  1  0
 34 35  2  0
 34 28  1  0
 35 25  1  0
 36 32  2  0
M  END
$$$$
