WQY.pdb
     RDKit          3D

 36 38  0  0  1  0  0  0  0  0999 V2000
   27.1959  -21.1225  -16.2284 N   0  0  0  0  0  0  0  0  0  0  0  0
   26.5987  -20.2323  -15.2465 C   0  0  1  0  0  0  0  0  0  0  0  0
   25.9207  -19.1189  -15.9949 C   0  0  0  0  0  0  0  0  0  0  0  0
   26.8259  -18.3816  -16.8837 C   0  0  0  0  0  0  0  0  0  0  0  0
   26.5210  -17.9188  -18.1430 C   0  0  0  0  0  0  0  0  0  0  0  0
   27.6080  -17.2896  -18.6463 N   0  0  0  0  0  0  0  0  0  0  0  0
   28.6287  -17.3233  -17.7509 C   0  0  0  0  0  0  0  0  0  0  0  0
   29.9132  -16.8343  -17.7868 C   0  0  0  0  0  0  0  0  0  0  0  0
   30.7242  -17.0342  -16.6947 C   0  0  0  0  0  0  0  0  0  0  0  0
   30.2225  -17.7217  -15.5927 C   0  0  0  0  0  0  0  0  0  0  0  0
   28.9334  -18.2104  -15.5612 C   0  0  0  0  0  0  0  0  0  0  0  0
   28.1274  -18.0094  -16.6517 C   0  0  0  0  0  0  0  0  0  0  0  0
   25.7300  -20.9334  -14.3023 C   0  0  0  0  0  0  0  0  0  0  0  0
   25.2288  -22.0401  -14.6135 O   0  0  0  0  0  0  0  0  0  0  0  0
   25.2870  -20.2237   -8.1689 N   0  0  0  0  0  0  0  0  0  0  0  0
   26.3730  -20.6142   -8.9999 C   0  0  0  0  0  0  0  0  0  0  0  0
   27.5083  -20.6883   -8.4469 O   0  0  0  0  0  0  0  0  0  0  0  0
   26.1631  -20.9161  -10.4440 C   0  0  0  0  0  0  0  0  0  0  0  0
   24.7094  -20.6598  -10.7509 C   0  0  0  0  0  0  0  0  0  0  0  0
   24.3661  -20.9791  -12.1874 C   0  0  2  0  0  0  0  0  0  0  0  0
   25.4078  -20.4229  -13.0141 N   0  0  0  0  0  0  0  0  0  0  0  0
   23.0288  -20.3954  -12.4757 C   0  0  0  0  0  0  0  0  0  0  0  0
   22.8240  -19.1979  -12.7568 O   0  0  0  0  0  0  0  0  0  0  0  0
   15.1017  -18.9636  -15.5203 O   0  0  0  0  0  0  0  0  0  0  0  0
   16.3827  -19.3876  -15.1865 C   0  0  0  0  0  0  0  0  0  0  0  0
   16.7251  -20.7313  -15.2268 C   0  0  0  0  0  0  0  0  0  0  0  0
   17.9897  -21.1553  -14.8976 C   0  0  0  0  0  0  0  0  0  0  0  0
   18.9809  -20.2619  -14.5103 C   0  0  0  0  0  0  0  0  0  0  0  0
   20.3217  -20.7318  -14.1522 C   0  0  0  0  0  0  0  0  0  0  0  0
   20.5557  -20.7959  -12.6562 C   0  0  2  0  0  0  0  0  0  0  0  0
   21.9149  -21.2725  -12.4244 N   0  0  0  0  0  0  0  0  0  0  0  0
   19.6165  -21.7304  -12.0154 C   0  0  0  0  0  0  0  0  0  0  0  0
   18.4180  -21.3098  -11.4722 O   0  0  0  0  0  0  0  0  0  0  0  0
   18.6248  -18.9292  -14.4754 C   0  0  0  0  0  0  0  0  0  0  0  0
   17.3637  -18.4995  -14.8029 C   0  0  0  0  0  0  0  0  0  0  0  0
   19.8940  -22.9475  -11.9491 O   0  0  0  0  0  0  0  0  0  0  0  0
  2  3  1  0
  2  1  1  6
  4 12  1  0
  4  3  1  0
  5  4  2  0
  6  5  1  0
  6  7  1  0
  7  8  1  0
  7 12  2  0
  8  9  2  0
  9 10  1  0
 11 10  2  0
 12 11  1  0
 13  2  1  0
 14 13  2  0
 16 18  1  0
 16 15  1  0
 17 16  2  0
 20 19  1  1
 19 18  1  0
 20 21  1  0
 21 13  1  0
 22 20  1  0
 22 31  1  0
 23 22  2  0
 25 24  1  0
 25 26  2  0
 27 26  1  0
 28 27  2  0
 29 28  1  0
 30 31  1  0
 30 29  1  6
 32 30  1  0
 32 33  1  0
 34 35  2  0
 34 28  1  0
 35 25  1  0
 36 32  2  0
M  END
$$$$
