WQY.pdb
     RDKit          3D

 36 38  0  0  1  0  0  0  0  0999 V2000
   27.9116  -21.5412  -11.9045 N   0  0  0  0  0  0  0  0  0  0  0  0
   26.6398  -21.2088  -11.2838 C   0  0  1  0  0  0  0  0  0  0  0  0
   26.8645  -20.0163  -10.3968 C   0  0  0  0  0  0  0  0  0  0  0  0
   27.9565  -20.2058   -9.4351 C   0  0  0  0  0  0  0  0  0  0  0  0
   29.2319  -20.6264   -9.7343 C   0  0  0  0  0  0  0  0  0  0  0  0
   29.9491  -20.6779   -8.5883 N   0  0  0  0  0  0  0  0  0  0  0  0
   29.1803  -20.3014   -7.5338 C   0  0  0  0  0  0  0  0  0  0  0  0
   29.4392  -20.1882   -6.1883 C   0  0  0  0  0  0  0  0  0  0  0  0
   28.4274  -19.7704   -5.3563 C   0  0  0  0  0  0  0  0  0  0  0  0
   27.1793  -19.4766   -5.8992 C   0  0  0  0  0  0  0  0  0  0  0  0
   26.9242  -19.5915   -7.2495 C   0  0  0  0  0  0  0  0  0  0  0  0
   27.9352  -20.0084   -8.0761 C   0  0  0  0  0  0  0  0  0  0  0  0
   25.5637  -21.0345  -12.2581 C   0  0  0  0  0  0  0  0  0  0  0  0
   25.6419  -20.1312  -13.1246 O   0  0  0  0  0  0  0  0  0  0  0  0
   24.9745  -22.7596  -15.6463 N   0  0  0  0  0  0  0  0  0  0  0  0
   25.0682  -23.8002  -14.6815 C   0  0  0  0  0  0  0  0  0  0  0  0
   26.0680  -24.5694  -14.7766 O   0  0  0  0  0  0  0  0  0  0  0  0
   24.0323  -23.9587  -13.6221 C   0  0  0  0  0  0  0  0  0  0  0  0
   22.9736  -22.9137  -13.8676 C   0  0  0  0  0  0  0  0  0  0  0  0
   23.2915  -21.6081  -13.1766 C   0  0  2  0  0  0  0  0  0  0  0  0
   24.3981  -21.8498  -12.2851 N   0  0  0  0  0  0  0  0  0  0  0  0
   22.0651  -21.1605  -12.4641 C   0  0  0  0  0  0  0  0  0  0  0  0
   22.0238  -20.8341  -11.2612 O   0  0  0  0  0  0  0  0  0  0  0  0
   17.5955  -14.0150  -13.8166 O   0  0  0  0  0  0  0  0  0  0  0  0
   18.3715  -15.1673  -13.7677 C   0  0  0  0  0  0  0  0  0  0  0  0
   18.5252  -15.9747  -14.8852 C   0  0  0  0  0  0  0  0  0  0  0  0
   19.2908  -17.1147  -14.8417 C   0  0  0  0  0  0  0  0  0  0  0  0
   19.9442  -17.5108  -13.6812 C   0  0  0  0  0  0  0  0  0  0  0  0
   20.7484  -18.7350  -13.6488 C   0  0  0  0  0  0  0  0  0  0  0  0
   19.9794  -19.9457  -13.1590 C   0  0  2  0  0  0  0  0  0  0  0  0
   20.8634  -21.1047  -13.2160 N   0  0  0  0  0  0  0  0  0  0  0  0
   18.8091  -20.2073  -14.0123 C   0  0  0  0  0  0  0  0  0  0  0  0
   17.5283  -19.8601  -13.6285 O   0  0  0  0  0  0  0  0  0  0  0  0
   19.7816  -16.6971  -12.5786 C   0  0  0  0  0  0  0  0  0  0  0  0
   19.0185  -15.5576  -12.6156 C   0  0  0  0  0  0  0  0  0  0  0  0
   18.9574  -20.7617  -15.1228 O   0  0  0  0  0  0  0  0  0  0  0  0
  2  3  1  0
  2  1  1  6
  4 12  1  0
  4  3  1  0
  5  4  2  0
  6  5  1  0
  6  7  1  0
  7  8  1  0
  7 12  2  0
  8  9  2  0
  9 10  1  0
 11 10  2  0
 12 11  1  0
 13  2  1  0
 14 13  2  0
 16 18  1  0
 16 15  1  0
 17 16  2  0
 20 19  1  1
 19 18  1  0
 20 21  1  0
 21 13  1  0
 22 20  1  0
 22 31  1  0
 23 22  2  0
 25 24  1  0
 25 26  2  0
 27 26  1  0
 28 27  2  0
 29 28  1  0
 30 31  1  0
 30 29  1  6
 32 30  1  0
 32 33  1  0
 34 35  2  0
 34 28  1  0
 35 25  1  0
 36 32  2  0
M  END
$$$$
