WRT.pdb
     RDKit          3D

 33 34  0  0  1  0  0  0  0  0999 V2000
   27.8682  -20.5437   -9.6400 N   0  0  0  0  0  0  0  0  0  0  0  0
   26.6068  -21.1310   -9.5606 C   0  0  1  0  0  0  0  0  0  0  0  0
   25.8934  -20.7043   -8.3037 C   0  0  0  0  0  0  0  0  0  0  0  0
   26.8576  -19.8788   -7.5042 C   0  0  0  0  0  0  0  0  0  0  0  0
   27.3943  -18.6551   -7.8005 C   0  0  0  0  0  0  0  0  0  0  0  0
   28.2076  -18.3185   -6.7831 N   0  0  0  0  0  0  0  0  0  0  0  0
   28.2214  -19.2637   -5.8472 C   0  0  0  0  0  0  0  0  0  0  0  0
   28.8809  -19.4001   -4.6268 C   0  0  0  0  0  0  0  0  0  0  0  0
   28.6739  -20.5308   -3.8768 C   0  0  0  0  0  0  0  0  0  0  0  0
   27.8200  -21.5235   -4.3277 C   0  0  0  0  0  0  0  0  0  0  0  0
   27.1673  -21.3908   -5.5330 C   0  0  0  0  0  0  0  0  0  0  0  0
   27.3750  -20.2560   -6.2859 C   0  0  0  0  0  0  0  0  0  0  0  0
   25.6981  -20.8689  -10.6943 C   0  0  0  0  0  0  0  0  0  0  0  0
   25.7169  -19.7381  -11.2316 O   0  0  0  0  0  0  0  0  0  0  0  0
   26.4915  -25.4830  -15.9365 N   0  0  0  0  0  0  0  0  0  0  0  0
   25.9601  -24.2782  -16.5179 C   0  0  0  0  0  0  0  0  0  0  0  0
   25.1121  -24.4135  -17.4608 N   0  0  0  0  0  0  0  0  0  0  0  0
   26.3553  -23.0012  -16.0763 N   0  0  0  0  0  0  0  0  0  0  0  0
   25.6988  -22.3375  -14.9984 C   0  0  0  0  0  0  0  0  0  0  0  0
   25.4486  -23.1477  -13.7730 C   0  0  0  0  0  0  0  0  0  0  0  0
   24.0906  -22.9797  -13.1593 C   0  0  0  0  0  0  0  0  0  0  0  0
   23.9995  -21.6715  -12.3682 C   0  0  2  0  0  0  0  0  0  0  0  0
   24.8127  -21.8350  -11.1967 N   0  0  0  0  0  0  0  0  0  0  0  0
   22.6319  -21.2458  -12.0913 C   0  0  0  0  0  0  0  0  0  0  0  0
   21.9465  -21.8254  -11.1887 O   0  0  0  0  0  0  0  0  0  0  0  0
   24.8142  -23.5866  -18.0101 C   0  0  0  0  0  0  0  0  0  0  0  0
   21.2514  -17.3396  -12.3852 C   0  0  2  0  0  0  0  0  0  0  0  0
   20.4546  -18.3956  -13.0889 O   0  0  0  0  0  0  0  0  0  0  0  0
   20.7507  -18.4432  -14.4363 C   0  0  2  0  0  0  0  0  0  0  0  0
   20.6200  -19.7759  -12.5036 N   0  0  0  0  0  0  0  0  0  0  0  0
   21.9819  -20.1884  -12.7829 C   0  0  0  0  0  0  0  0  0  0  0  0
   19.6353  -20.7370  -13.0651 O   0  0  0  0  0  0  0  0  0  0  0  0
   18.3354  -20.8534  -12.6338 O   0  0  0  0  0  0  0  0  0  0  0  0
  2  1  1  6
  3  2  1  0
  4  5  2  0
  4  3  1  0
  6  5  1  0
  7 12  2  0
  7  6  1  0
  8  7  1  0
  9 10  1  0
  9  8  2  0
 10 11  2  0
 11 12  1  0
 12  4  1  0
 13  2  1  0
 14 13  2  0
 16 18  1  0
 16 15  1  0
 17 16  2  0
 19 20  1  0
 19 18  1  0
 20 21  1  0
 22 21  1  1
 22 24  1  0
 22 23  1  0
 23 13  1  0
 24 25  2  0
 27 26  1  6
 27 29  1  0
 27 28  1  0
 29 31  1  0
 30 24  1  0
 29 30  1  1
 31 32  1  0
 33 31  2  0
M  END
$$$$
