WRT.pdb
     RDKit          3D

 33 34  0  0  1  0  0  0  0  0999 V2000
   28.4843  -23.2474  -13.4815 N   0  0  0  0  0  0  0  0  0  0  0  0
   27.9706  -22.2452  -12.6604 C   0  0  1  0  0  0  0  0  0  0  0  0
   28.7830  -20.9819  -12.7819 C   0  0  0  0  0  0  0  0  0  0  0  0
   30.1437  -21.2731  -12.2216 C   0  0  0  0  0  0  0  0  0  0  0  0
   31.3284  -21.4454  -12.8849 C   0  0  0  0  0  0  0  0  0  0  0  0
   32.2734  -21.6883  -11.9588 N   0  0  0  0  0  0  0  0  0  0  0  0
   31.7565  -21.6812  -10.7330 C   0  0  0  0  0  0  0  0  0  0  0  0
   32.2934  -21.8734   -9.4611 C   0  0  0  0  0  0  0  0  0  0  0  0
   31.4671  -21.7994   -8.3676 C   0  0  0  0  0  0  0  0  0  0  0  0
   30.1168  -21.5367   -8.5269 C   0  0  0  0  0  0  0  0  0  0  0  0
   29.5842  -21.3464   -9.7825 C   0  0  0  0  0  0  0  0  0  0  0  0
   30.4135  -21.4208  -10.8801 C   0  0  0  0  0  0  0  0  0  0  0  0
   26.5571  -21.8843  -12.8864 C   0  0  0  0  0  0  0  0  0  0  0  0
   26.0666  -22.0569  -14.0254 O   0  0  0  0  0  0  0  0  0  0  0  0
   20.1311  -18.4407  -10.8577 N   0  0  0  0  0  0  0  0  0  0  0  0
   19.5111  -19.4235  -10.0083 C   0  0  0  0  0  0  0  0  0  0  0  0
   18.2364  -19.4424   -9.9767 N   0  0  0  0  0  0  0  0  0  0  0  0
   20.2687  -20.3261   -9.2380 N   0  0  0  0  0  0  0  0  0  0  0  0
   21.6935  -20.3523   -9.2885 C   0  0  0  0  0  0  0  0  0  0  0  0
   22.3053  -20.7140  -10.5983 C   0  0  0  0  0  0  0  0  0  0  0  0
   23.8041  -20.7652  -10.6137 C   0  0  0  0  0  0  0  0  0  0  0  0
   24.3315  -21.1012  -12.0117 C   0  0  2  0  0  0  0  0  0  0  0  0
   25.7379  -21.3553  -11.8771 N   0  0  0  0  0  0  0  0  0  0  0  0
   23.9990  -20.1021  -13.0213 C   0  0  0  0  0  0  0  0  0  0  0  0
   24.3997  -18.9004  -12.8957 O   0  0  0  0  0  0  0  0  0  0  0  0
   17.7448  -20.1234   -9.3693 C   0  0  0  0  0  0  0  0  0  0  0  0
   24.9193  -19.7987  -16.5700 C   0  0  2  0  0  0  0  0  0  0  0  0
   23.4238  -19.8410  -16.4865 O   0  0  0  0  0  0  0  0  0  0  0  0
   22.9348  -21.1040  -16.7537 C   0  0  2  0  0  0  0  0  0  0  0  0
   22.8734  -19.3745  -15.1619 N   0  0  0  0  0  0  0  0  0  0  0  0
   23.2295  -20.3828  -14.1824 C   0  0  0  0  0  0  0  0  0  0  0  0
   21.4031  -19.1651  -15.2161 O   0  0  0  0  0  0  0  0  0  0  0  0
   20.4873  -19.9278  -14.5312 O   0  0  0  0  0  0  0  0  0  0  0  0
  2  1  1  6
  3  2  1  0
  4  5  2  0
  4  3  1  0
  6  5  1  0
  7 12  2  0
  7  6  1  0
  8  7  1  0
  9 10  1  0
  9  8  2  0
 10 11  2  0
 11 12  1  0
 12  4  1  0
 13  2  1  0
 14 13  2  0
 16 18  1  0
 16 15  1  0
 17 16  2  0
 19 20  1  0
 19 18  1  0
 20 21  1  0
 22 21  1  1
 22 24  1  0
 22 23  1  0
 23 13  1  0
 24 25  2  0
 27 26  1  6
 27 29  1  0
 27 28  1  0
 29 31  1  0
 30 24  1  0
 29 30  1  6
 31 32  1  0
 33 31  2  0
M  END
$$$$
