WRT.pdb
     RDKit          3D

 33 34  0  0  1  0  0  0  0  0999 V2000
   27.2086  -21.2382  -15.0144 N   0  0  0  0  0  0  0  0  0  0  0  0
   26.1824  -21.2049  -14.0720 C   0  0  1  0  0  0  0  0  0  0  0  0
   26.2592  -19.9523  -13.2378 C   0  0  0  0  0  0  0  0  0  0  0  0
   27.3957  -20.1289  -12.2747 C   0  0  0  0  0  0  0  0  0  0  0  0
   28.7317  -19.9046  -12.4700 C   0  0  0  0  0  0  0  0  0  0  0  0
   29.3599  -20.2063  -11.3194 N   0  0  0  0  0  0  0  0  0  0  0  0
   28.4958  -20.6135  -10.3936 C   0  0  0  0  0  0  0  0  0  0  0  0
   28.6286  -21.0313   -9.0704 C   0  0  0  0  0  0  0  0  0  0  0  0
   27.5075  -21.3964   -8.3680 C   0  0  0  0  0  0  0  0  0  0  0  0
   26.2598  -21.3499   -8.9671 C   0  0  0  0  0  0  0  0  0  0  0  0
   26.1261  -20.9374  -10.2742 C   0  0  0  0  0  0  0  0  0  0  0  0
   27.2514  -20.5709  -10.9794 C   0  0  0  0  0  0  0  0  0  0  0  0
   24.8093  -21.2955  -14.6066 C   0  0  0  0  0  0  0  0  0  0  0  0
   24.4161  -20.4170  -15.4075 O   0  0  0  0  0  0  0  0  0  0  0  0
   25.0179  -25.8791  -17.8167 N   0  0  0  0  0  0  0  0  0  0  0  0
   25.4187  -26.7399  -16.7349 C   0  0  0  0  0  0  0  0  0  0  0  0
   26.5602  -27.3004  -16.8311 N   0  0  0  0  0  0  0  0  0  0  0  0
   24.5930  -26.9643  -15.6169 N   0  0  0  0  0  0  0  0  0  0  0  0
   23.4053  -26.2084  -15.3905 C   0  0  0  0  0  0  0  0  0  0  0  0
   23.5783  -24.7406  -15.1996 C   0  0  0  0  0  0  0  0  0  0  0  0
   22.3256  -23.9848  -14.8698 C   0  0  0  0  0  0  0  0  0  0  0  0
   22.5959  -22.4802  -14.7773 C   0  0  2  0  0  0  0  0  0  0  0  0
   23.9242  -22.3264  -14.2551 N   0  0  0  0  0  0  0  0  0  0  0  0
   21.5752  -21.7437  -14.0400 C   0  0  0  0  0  0  0  0  0  0  0  0
   21.5135  -21.8225  -12.7709 O   0  0  0  0  0  0  0  0  0  0  0  0
   26.9015  -27.9118  -16.0669 C   0  0  0  0  0  0  0  0  0  0  0  0
   18.6207  -19.3999  -16.1036 C   0  0  2  0  0  0  0  0  0  0  0  0
   19.2027  -18.9975  -14.7827 O   0  0  0  0  0  0  0  0  0  0  0  0
   18.3382  -18.1908  -14.0704 C   0  0  1  0  0  0  0  0  0  0  0  0
   19.6099  -20.1624  -13.9153 N   0  0  0  0  0  0  0  0  0  0  0  0
   20.6051  -20.9102  -14.6591 C   0  0  0  0  0  0  0  0  0  0  0  0
   18.4482  -21.0155  -13.5529 O   0  0  0  0  0  0  0  0  0  0  0  0
   18.2848  -22.3163  -13.9663 O   0  0  0  0  0  0  0  0  0  0  0  0
  2  1  1  6
  3  2  1  0
  4  5  2  0
  4  3  1  0
  6  5  1  0
  7 12  2  0
  7  6  1  0
  8  7  1  0
  9 10  1  0
  9  8  2  0
 10 11  2  0
 11 12  1  0
 12  4  1  0
 13  2  1  0
 14 13  2  0
 16 18  1  0
 16 15  1  0
 17 16  2  0
 19 20  1  0
 19 18  1  0
 20 21  1  0
 22 21  1  1
 22 24  1  0
 22 23  1  0
 23 13  1  0
 24 25  2  0
 27 26  1  6
 27 29  1  0
 27 28  1  0
 29 31  1  0
 30 24  1  0
 29 30  1  6
 31 32  1  0
 33 31  2  0
M  END
$$$$
