WRT.pdb
     RDKit          3D

 33 34  0  0  1  0  0  0  0  0999 V2000
   25.6264  -17.3208  -19.7708 N   0  0  0  0  0  0  0  0  0  0  0  0
   25.6003  -16.9157  -18.4375 C   0  0  1  0  0  0  0  0  0  0  0  0
   24.6991  -15.7216  -18.2562 C   0  0  0  0  0  0  0  0  0  0  0  0
   25.5662  -14.4986  -18.3087 C   0  0  0  0  0  0  0  0  0  0  0  0
   25.7032  -13.5837  -19.3174 C   0  0  0  0  0  0  0  0  0  0  0  0
   26.5960  -12.6655  -18.9056 N   0  0  0  0  0  0  0  0  0  0  0  0
   27.0405  -12.9434  -17.6830 C   0  0  0  0  0  0  0  0  0  0  0  0
   27.9493  -12.3252  -16.8258 C   0  0  0  0  0  0  0  0  0  0  0  0
   28.1938  -12.8817  -15.5952 C   0  0  0  0  0  0  0  0  0  0  0  0
   27.5449  -14.0431  -15.2106 C   0  0  0  0  0  0  0  0  0  0  0  0
   26.6466  -14.6555  -16.0558 C   0  0  0  0  0  0  0  0  0  0  0  0
   26.4012  -14.0971  -17.2910 C   0  0  0  0  0  0  0  0  0  0  0  0
   25.1806  -17.9378  -17.4585 C   0  0  0  0  0  0  0  0  0  0  0  0
   24.3166  -18.7779  -17.7984 O   0  0  0  0  0  0  0  0  0  0  0  0
   26.7395  -21.1841   -9.8539 N   0  0  0  0  0  0  0  0  0  0  0  0
   25.3471  -21.1419  -10.2162 C   0  0  0  0  0  0  0  0  0  0  0  0
   24.5151  -20.8566   -9.2926 N   0  0  0  0  0  0  0  0  0  0  0  0
   24.9107  -21.4070  -11.5282 N   0  0  0  0  0  0  0  0  0  0  0  0
   25.5632  -20.8523  -12.6683 C   0  0  0  0  0  0  0  0  0  0  0  0
   25.6715  -19.3667  -12.7145 C   0  0  0  0  0  0  0  0  0  0  0  0
   26.2495  -18.8049  -13.9792 C   0  0  0  0  0  0  0  0  0  0  0  0
   25.2485  -18.9000  -15.1344 C   0  0  2  0  0  0  0  0  0  0  0  0
   25.7099  -18.0086  -16.1606 N   0  0  0  0  0  0  0  0  0  0  0  0
   23.8635  -18.6816  -14.7318 C   0  0  0  0  0  0  0  0  0  0  0  0
   23.5400  -17.6416  -14.0728 O   0  0  0  0  0  0  0  0  0  0  0  0
   23.4986  -20.8564   -9.4950 C   0  0  0  0  0  0  0  0  0  0  0  0
   20.6114  -18.6901  -16.8952 C   0  0  2  0  0  0  0  0  0  0  0  0
   20.5577  -19.7018  -15.7912 O   0  0  0  0  0  0  0  0  0  0  0  0
   20.8825  -20.9652  -16.2425 C   0  0  2  0  0  0  0  0  0  0  0  0
   21.4350  -19.3643  -14.6115 N   0  0  0  0  0  0  0  0  0  0  0  0
   22.8054  -19.5805  -15.0337 C   0  0  0  0  0  0  0  0  0  0  0  0
   21.0983  -20.1843  -13.4187 O   0  0  0  0  0  0  0  0  0  0  0  0
   19.9431  -20.0468  -12.6864 O   0  0  0  0  0  0  0  0  0  0  0  0
  2  1  1  6
  3  2  1  0
  4  5  2  0
  4  3  1  0
  6  5  1  0
  7 12  2  0
  7  6  1  0
  8  7  1  0
  9 10  1  0
  9  8  2  0
 10 11  2  0
 11 12  1  0
 12  4  1  0
 13  2  1  0
 14 13  2  0
 16 18  1  0
 16 15  1  0
 17 16  2  0
 19 20  1  0
 19 18  1  0
 20 21  1  0
 22 21  1  1
 22 24  1  0
 22 23  1  0
 23 13  1  0
 24 25  2  0
 27 26  1  6
 27 29  1  0
 27 28  1  0
 29 31  1  0
 30 24  1  0
 29 30  1  1
 31 32  1  0
 33 31  2  0
M  END
$$$$
