WRT.pdb
     RDKit          3D

 33 34  0  0  1  0  0  0  0  0999 V2000
   27.4497  -21.9908  -13.7302 N   0  0  0  0  0  0  0  0  0  0  0  0
   26.4338  -21.3593  -13.0150 C   0  0  1  0  0  0  0  0  0  0  0  0
   26.8461  -19.9673  -12.6111 C   0  0  0  0  0  0  0  0  0  0  0  0
   27.7770  -20.1012  -11.4424 C   0  0  0  0  0  0  0  0  0  0  0  0
   29.1433  -20.1807  -11.4354 C   0  0  0  0  0  0  0  0  0  0  0  0
   29.5305  -20.2938  -10.1521 N   0  0  0  0  0  0  0  0  0  0  0  0
   28.4824  -20.2912   -9.3329 C   0  0  0  0  0  0  0  0  0  0  0  0
   28.3423  -20.3810   -7.9490 C   0  0  0  0  0  0  0  0  0  0  0  0
   27.0850  -20.3475   -7.3998 C   0  0  0  0  0  0  0  0  0  0  0  0
   25.9695  -20.2258   -8.2115 C   0  0  0  0  0  0  0  0  0  0  0  0
   26.1054  -20.1368   -9.5790 C   0  0  0  0  0  0  0  0  0  0  0  0
   27.3675  -20.1705  -10.1302 C   0  0  0  0  0  0  0  0  0  0  0  0
   25.1302  -21.2522  -13.6997 C   0  0  0  0  0  0  0  0  0  0  0  0
   25.0833  -20.6979  -14.8214 O   0  0  0  0  0  0  0  0  0  0  0  0
   22.5975  -27.4661  -16.2488 N   0  0  0  0  0  0  0  0  0  0  0  0
   21.7782  -27.3925  -15.0677 C   0  0  0  0  0  0  0  0  0  0  0  0
   21.0255  -28.3917  -14.8199 N   0  0  0  0  0  0  0  0  0  0  0  0
   21.7952  -26.2697  -14.2185 N   0  0  0  0  0  0  0  0  0  0  0  0
   22.3042  -25.0076  -14.6442 C   0  0  0  0  0  0  0  0  0  0  0  0
   21.4351  -23.8228  -14.3960 C   0  0  0  0  0  0  0  0  0  0  0  0
   21.8734  -22.9300  -13.2734 C   0  0  0  0  0  0  0  0  0  0  0  0
   22.6611  -21.7266  -13.7996 C   0  0  2  0  0  0  0  0  0  0  0  0
   23.9390  -21.7465  -13.1460 N   0  0  0  0  0  0  0  0  0  0  0  0
   21.9484  -20.4594  -13.6794 C   0  0  0  0  0  0  0  0  0  0  0  0
   21.9711  -19.8080  -12.5860 O   0  0  0  0  0  0  0  0  0  0  0  0
   20.3948  -28.3720  -13.9977 C   0  0  0  0  0  0  0  0  0  0  0  0
   22.2991  -17.1509  -15.4856 C   0  0  2  0  0  0  0  0  0  0  0  0
   20.9316  -17.7227  -15.7053 O   0  0  0  0  0  0  0  0  0  0  0  0
   20.8508  -18.4023  -16.9040 C   0  0  2  0  0  0  0  0  0  0  0  0
   20.4653  -18.6322  -14.5959 N   0  0  0  0  0  0  0  0  0  0  0  0
   21.2005  -19.8742  -14.7364 C   0  0  0  0  0  0  0  0  0  0  0  0
   18.9978  -18.8607  -14.6473 O   0  0  0  0  0  0  0  0  0  0  0  0
   18.0548  -17.8944  -14.3892 O   0  0  0  0  0  0  0  0  0  0  0  0
  2  1  1  6
  3  2  1  0
  4  5  2  0
  4  3  1  0
  6  5  1  0
  7 12  2  0
  7  6  1  0
  8  7  1  0
  9 10  1  0
  9  8  2  0
 10 11  2  0
 11 12  1  0
 12  4  1  0
 13  2  1  0
 14 13  2  0
 16 18  1  0
 16 15  1  0
 17 16  2  0
 19 20  1  0
 19 18  1  0
 20 21  1  0
 22 21  1  1
 22 24  1  0
 22 23  1  0
 23 13  1  0
 24 25  2  0
 27 26  1  6
 27 29  1  0
 27 28  1  0
 29 31  1  0
 30 24  1  0
 29 30  1  1
 31 32  1  0
 33 31  2  0
M  END
$$$$
