TAF.pdb
     RDKit          3D

 24 24  0  0  1  0  0  0  0  0999 V2000
   22.3391  -16.9001  -15.3856 C   0  0  0  0  0  0  0  0  0  0  0  0
   22.7502  -17.5783  -14.0905 C   0  0  1  0  0  0  0  0  0  0  0  0
   21.9975  -17.0834  -13.0763 O   0  0  0  0  0  0  0  0  0  0  0  0
   22.6945  -19.0509  -14.3400 C   0  0  2  0  0  0  0  0  0  0  0  0
   21.3586  -19.4726  -14.7034 N   0  0  0  0  0  0  0  0  0  0  0  0
   23.2998  -19.8896  -13.2794 C   0  0  0  0  0  0  0  0  0  0  0  0
   22.5473  -20.1963  -12.3190 O   0  0  0  0  0  0  0  0  0  0  0  0
   25.9450  -22.3432  -12.7116 C   0  0  0  0  0  0  0  0  0  0  0  0
   25.1698  -21.1497  -12.2369 C   0  0  2  0  0  0  0  0  0  0  0  0
   24.6282  -20.3437  -13.2896 N   0  0  0  0  0  0  0  0  0  0  0  0
   25.8340  -20.3741  -11.1798 C   0  0  0  0  0  0  0  0  0  0  0  0
   26.3712  -19.2813  -11.4936 O   0  0  0  0  0  0  0  0  0  0  0  0
   25.8720  -20.8366   -9.8557 N   0  0  0  0  0  0  0  0  0  0  0  0
   26.7992  -20.3599   -8.8542 C   0  0  1  0  0  0  0  0  0  0  0  0
   26.1932  -19.8154   -7.6221 C   0  0  0  0  0  0  0  0  0  0  0  0
   27.1307  -19.4768   -6.5357 C   0  0  0  0  0  0  0  0  0  0  0  0
   27.6875  -18.2155   -6.4492 C   0  0  0  0  0  0  0  0  0  0  0  0
   28.5480  -17.8358   -5.4376 C   0  0  0  0  0  0  0  0  0  0  0  0
   28.8682  -18.7465   -4.4694 C   0  0  0  0  0  0  0  0  0  0  0  0
   28.3324  -20.0083   -4.5216 C   0  0  0  0  0  0  0  0  0  0  0  0
   27.4623  -20.3807   -5.5515 C   0  0  0  0  0  0  0  0  0  0  0  0
   27.7629  -21.4879   -8.5143 C   0  0  0  0  0  0  0  0  0  0  0  0
   27.3401  -22.6173   -8.2085 O   0  0  0  0  0  0  0  0  0  0  0  0
   29.1007  -21.2251   -8.5501 O   0  0  0  0  0  0  0  0  0  0  0  0
  2  1  1  6
  2  3  1  0
  4  6  1  0
  4  2  1  0
  4  5  1  1
  6 10  1  0
  7  6  2  0
  9  8  1  6
  9 11  1  0
 10  9  1  0
 11 12  2  0
 11 13  1  0
 13 14  1  0
 14 15  1  1
 14 22  1  0
 16 15  1  0
 16 21  2  0
 17 16  1  0
 18 17  2  0
 18 19  1  0
 19 20  2  0
 20 21  1  0
 22 24  1  0
 23 22  2  0
M  END
$$$$
