TAF.pdb
     RDKit          3D

 24 24  0  0  1  0  0  0  0  0999 V2000
   16.9524  -11.7807  -14.7153 C   0  0  0  0  0  0  0  0  0  0  0  0
   16.4738  -12.3160  -16.0534 C   0  0  1  0  0  0  0  0  0  0  0  0
   15.5597  -13.2942  -15.8345 O   0  0  0  0  0  0  0  0  0  0  0  0
   16.0437  -11.1338  -16.8604 C   0  0  2  0  0  0  0  0  0  0  0  0
   15.3519  -11.5423  -18.0643 N   0  0  0  0  0  0  0  0  0  0  0  0
   17.1019  -10.1279  -17.1115 C   0  0  0  0  0  0  0  0  0  0  0  0
   18.1113  -10.5323  -17.7441 O   0  0  0  0  0  0  0  0  0  0  0  0
   17.7955   -6.4465  -16.6392 C   0  0  0  0  0  0  0  0  0  0  0  0
   18.1478   -7.8929  -16.8243 C   0  0  2  0  0  0  0  0  0  0  0  0
   17.0391   -8.7897  -16.6916 N   0  0  0  0  0  0  0  0  0  0  0  0
   19.3485   -8.3247  -16.0950 C   0  0  0  0  0  0  0  0  0  0  0  0
   19.2157   -8.7010  -14.9025 O   0  0  0  0  0  0  0  0  0  0  0  0
   20.6109   -8.3177  -16.7073 N   0  0  0  0  0  0  0  0  0  0  0  0
   21.8276   -8.7652  -16.0674 C   0  0  1  0  0  0  0  0  0  0  0  0
   22.8664   -9.3080  -16.9662 C   0  0  0  0  0  0  0  0  0  0  0  0
   24.1337   -9.7034  -16.3250 C   0  0  0  0  0  0  0  0  0  0  0  0
   24.2215  -10.8708  -15.5916 C   0  0  0  0  0  0  0  0  0  0  0  0
   25.3894  -11.3034  -14.9943 C   0  0  0  0  0  0  0  0  0  0  0  0
   26.5191  -10.5458  -15.1323 C   0  0  0  0  0  0  0  0  0  0  0  0
   26.4703   -9.3812  -15.8556 C   0  0  0  0  0  0  0  0  0  0  0  0
   25.2812   -8.9536  -16.4554 C   0  0  0  0  0  0  0  0  0  0  0  0
   22.3902   -7.6150  -15.2445 C   0  0  0  0  0  0  0  0  0  0  0  0
   22.5454   -6.4876  -15.7472 O   0  0  0  0  0  0  0  0  0  0  0  0
   22.7229   -7.8556  -13.9440 O   0  0  0  0  0  0  0  0  0  0  0  0
  2  1  1  1
  2  3  1  0
  4  6  1  0
  4  2  1  0
  4  5  1  6
  6 10  1  0
  7  6  2  0
  9  8  1  1
  9 11  1  0
 10  9  1  0
 11 12  2  0
 11 13  1  0
 13 14  1  0
 14 15  1  6
 14 22  1  0
 16 15  1  0
 16 21  2  0
 17 16  1  0
 18 17  2  0
 18 19  1  0
 19 20  2  0
 20 21  1  0
 22 24  1  0
 23 22  2  0
M  END
$$$$
