TAF.pdb
     RDKit          3D

 24 24  0  0  1  0  0  0  0  0999 V2000
   29.7732  -24.8183  -19.5518 C   0  0  0  0  0  0  0  0  0  0  0  0
   28.7155  -24.1285  -18.7082 C   0  0  1  0  0  0  0  0  0  0  0  0
   27.6048  -24.9065  -18.6724 O   0  0  0  0  0  0  0  0  0  0  0  0
   29.3621  -23.7835  -17.4057 C   0  0  2  0  0  0  0  0  0  0  0  0
   29.8732  -24.9644  -16.7431 N   0  0  0  0  0  0  0  0  0  0  0  0
   28.5530  -22.9212  -16.5132 C   0  0  0  0  0  0  0  0  0  0  0  0
   28.0154  -23.4924  -15.5296 O   0  0  0  0  0  0  0  0  0  0  0  0
   27.6538  -19.2725  -16.0642 C   0  0  0  0  0  0  0  0  0  0  0  0
   27.5830  -20.7478  -15.8013 C   0  0  2  0  0  0  0  0  0  0  0  0
   28.3599  -21.5437  -16.7035 N   0  0  0  0  0  0  0  0  0  0  0  0
   26.2240  -21.2616  -15.5792 C   0  0  0  0  0  0  0  0  0  0  0  0
   25.6438  -21.8383  -16.5342 O   0  0  0  0  0  0  0  0  0  0  0  0
   25.5863  -21.1137  -14.3382 N   0  0  0  0  0  0  0  0  0  0  0  0
   24.2783  -21.6454  -14.0275 C   0  0  1  0  0  0  0  0  0  0  0  0
   24.1684  -22.3819  -12.7519 C   0  0  0  0  0  0  0  0  0  0  0  0
   24.5550  -21.6368  -11.5399 C   0  0  0  0  0  0  0  0  0  0  0  0
   25.8605  -21.6487  -11.0884 C   0  0  0  0  0  0  0  0  0  0  0  0
   26.2833  -20.9465   -9.9767 C   0  0  0  0  0  0  0  0  0  0  0  0
   25.3716  -20.1989   -9.2843 C   0  0  0  0  0  0  0  0  0  0  0  0
   24.0664  -20.1614   -9.7047 C   0  0  0  0  0  0  0  0  0  0  0  0
   23.6505  -20.8774  -10.8321 C   0  0  0  0  0  0  0  0  0  0  0  0
   23.2727  -20.5034  -14.0659 C   0  0  0  0  0  0  0  0  0  0  0  0
   23.6500  -19.3194  -14.0061 O   0  0  0  0  0  0  0  0  0  0  0  0
   21.9484  -20.8142  -14.1632 O   0  0  0  0  0  0  0  0  0  0  0  0
  2  1  1  6
  2  3  1  0
  4  6  1  0
  4  2  1  0
  4  5  1  1
  6 10  1  0
  7  6  2  0
  9  8  1  6
  9 11  1  0
 10  9  1  0
 11 12  2  0
 11 13  1  0
 13 14  1  0
 14 15  1  1
 14 22  1  0
 16 15  1  0
 16 21  2  0
 17 16  1  0
 18 17  2  0
 18 19  1  0
 19 20  2  0
 20 21  1  0
 22 24  1  0
 23 22  2  0
M  END
$$$$
