TAF.pdb
     RDKit          3D

 24 24  0  0  1  0  0  0  0  0999 V2000
   19.2220  -10.8505  -14.1484 C   0  0  0  0  0  0  0  0  0  0  0  0
   19.6938  -11.5393  -15.4170 C   0  0  1  0  0  0  0  0  0  0  0  0
   19.5477  -12.8799  -15.2702 O   0  0  0  0  0  0  0  0  0  0  0  0
   18.9774  -10.8846  -16.5536 C   0  0  2  0  0  0  0  0  0  0  0  0
   19.2347  -11.5697  -17.8022 N   0  0  0  0  0  0  0  0  0  0  0  0
   19.1602   -9.4174  -16.6478 C   0  0  0  0  0  0  0  0  0  0  0  0
   20.2475   -9.0257  -17.1448 O   0  0  0  0  0  0  0  0  0  0  0  0
   17.2723   -6.2392  -16.6648 C   0  0  0  0  0  0  0  0  0  0  0  0
   18.4635   -7.0625  -16.2726 C   0  0  2  0  0  0  0  0  0  0  0  0
   18.2135   -8.4718  -16.2228 N   0  0  0  0  0  0  0  0  0  0  0  0
   19.1999   -6.5509  -15.1082 C   0  0  0  0  0  0  0  0  0  0  0  0
   18.8504   -6.9426  -13.9655 O   0  0  0  0  0  0  0  0  0  0  0  0
   20.2634   -5.6486  -15.2616 N   0  0  0  0  0  0  0  0  0  0  0  0
   21.1180   -5.2078  -14.1821 C   0  0  1  0  0  0  0  0  0  0  0  0
   22.4983   -5.7333  -14.1972 C   0  0  0  0  0  0  0  0  0  0  0  0
   22.6320   -7.1951  -14.3343 C   0  0  0  0  0  0  0  0  0  0  0  0
   22.3507   -8.0340  -13.2734 C   0  0  0  0  0  0  0  0  0  0  0  0
   22.4312   -9.4104  -13.3548 C   0  0  0  0  0  0  0  0  0  0  0  0
   22.8055   -9.9789  -14.5406 C   0  0  0  0  0  0  0  0  0  0  0  0
   23.0905   -9.1772  -15.6167 C   0  0  0  0  0  0  0  0  0  0  0  0
   23.0054   -7.7843  -15.5214 C   0  0  0  0  0  0  0  0  0  0  0  0
   21.1329   -3.6858  -14.1704 C   0  0  0  0  0  0  0  0  0  0  0  0
   20.5826   -3.0358  -15.0773 O   0  0  0  0  0  0  0  0  0  0  0  0
   21.7692   -3.0556  -13.1418 O   0  0  0  0  0  0  0  0  0  0  0  0
  2  1  1  1
  2  3  1  0
  4  6  1  0
  4  2  1  0
  4  5  1  6
  6 10  1  0
  7  6  2  0
  9  8  1  1
  9 11  1  0
 10  9  1  0
 11 12  2  0
 11 13  1  0
 13 14  1  0
 14 15  1  6
 14 22  1  0
 16 15  1  0
 16 21  2  0
 17 16  1  0
 18 17  2  0
 18 19  1  0
 19 20  2  0
 20 21  1  0
 22 24  1  0
 23 22  2  0
M  END
$$$$
