TAF.pdb
     RDKit          3D

 24 24  0  0  1  0  0  0  0  0999 V2000
   22.4904  -23.0911  -15.6117 C   0  0  0  0  0  0  0  0  0  0  0  0
   23.2671  -22.5767  -14.4124 C   0  0  1  0  0  0  0  0  0  0  0  0
   22.8316  -23.2169  -13.2985 O   0  0  0  0  0  0  0  0  0  0  0  0
   24.7168  -22.6938  -14.7567 C   0  0  2  0  0  0  0  0  0  0  0  0
   25.0663  -24.0541  -15.1058 N   0  0  0  0  0  0  0  0  0  0  0  0
   25.6454  -22.0897  -13.7730 C   0  0  0  0  0  0  0  0  0  0  0  0
   26.2562  -22.8935  -13.0222 O   0  0  0  0  0  0  0  0  0  0  0  0
   26.8629  -18.6816  -12.6566 C   0  0  0  0  0  0  0  0  0  0  0  0
   26.6354  -20.1613  -12.5596 C   0  0  2  0  0  0  0  0  0  0  0  0
   25.8703  -20.7105  -13.6385 N   0  0  0  0  0  0  0  0  0  0  0  0
   26.2050  -20.6249  -11.2330 C   0  0  0  0  0  0  0  0  0  0  0  0
   24.9962  -20.9334  -11.0752 O   0  0  0  0  0  0  0  0  0  0  0  0
   27.1134  -20.7207  -10.1680 N   0  0  0  0  0  0  0  0  0  0  0  0
   26.7750  -21.2161   -8.8526 C   0  0  1  0  0  0  0  0  0  0  0  0
   27.9103  -21.4252   -7.9311 C   0  0  0  0  0  0  0  0  0  0  0  0
   27.9953  -20.4967   -6.7891 C   0  0  0  0  0  0  0  0  0  0  0  0
   27.8791  -20.9578   -5.4921 C   0  0  0  0  0  0  0  0  0  0  0  0
   27.9795  -20.1375   -4.3853 C   0  0  0  0  0  0  0  0  0  0  0  0
   28.2066  -18.8025   -4.5739 C   0  0  0  0  0  0  0  0  0  0  0  0
   28.3297  -18.3090   -5.8479 C   0  0  0  0  0  0  0  0  0  0  0  0
   28.2257  -19.1501   -6.9607 C   0  0  0  0  0  0  0  0  0  0  0  0
   25.7566  -20.2720   -8.2296 C   0  0  0  0  0  0  0  0  0  0  0  0
   25.6981  -19.0786   -8.5762 O   0  0  0  0  0  0  0  0  0  0  0  0
   24.9143  -20.7692   -7.2792 O   0  0  0  0  0  0  0  0  0  0  0  0
  2  1  1  6
  2  3  1  0
  4  6  1  0
  4  2  1  0
  4  5  1  1
  6 10  1  0
  7  6  2  0
  9  8  1  1
  9 11  1  0
 10  9  1  0
 11 12  2  0
 11 13  1  0
 13 14  1  0
 14 15  1  1
 14 22  1  0
 16 15  1  0
 16 21  2  0
 17 16  1  0
 18 17  2  0
 18 19  1  0
 19 20  2  0
 20 21  1  0
 22 24  1  0
 23 22  2  0
M  END
$$$$
