TAF.pdb
     RDKit          3D

 24 24  0  0  1  0  0  0  0  0999 V2000
   28.1551  -20.5785  -16.4728 C   0  0  0  0  0  0  0  0  0  0  0  0
   27.6947  -20.7243  -15.0330 C   0  0  1  0  0  0  0  0  0  0  0  0
   28.7212  -21.2078  -14.2895 O   0  0  0  0  0  0  0  0  0  0  0  0
   27.1095  -19.4083  -14.6335 C   0  0  2  0  0  0  0  0  0  0  0  0
   28.0188  -18.3195  -14.9203 N   0  0  0  0  0  0  0  0  0  0  0  0
   26.5591  -19.3585  -13.2590 C   0  0  0  0  0  0  0  0  0  0  0  0
   27.2969  -18.8333  -12.3858 O   0  0  0  0  0  0  0  0  0  0  0  0
   23.3681  -20.0892  -11.3796 C   0  0  0  0  0  0  0  0  0  0  0  0
   24.8422  -19.8574  -11.5341 C   0  0  2  0  0  0  0  0  0  0  0  0
   25.2976  -19.8534  -12.8920 N   0  0  0  0  0  0  0  0  0  0  0  0
   25.6818  -20.6571  -10.6309 C   0  0  0  0  0  0  0  0  0  0  0  0
   26.2190  -21.6988  -11.0864 O   0  0  0  0  0  0  0  0  0  0  0  0
   25.8803  -20.2741   -9.2958 N   0  0  0  0  0  0  0  0  0  0  0  0
   26.5196  -21.1028   -8.2986 C   0  0  1  0  0  0  0  0  0  0  0  0
   27.9276  -20.7754   -7.9950 C   0  0  0  0  0  0  0  0  0  0  0  0
   28.1656  -20.0542   -6.7313 C   0  0  0  0  0  0  0  0  0  0  0  0
   28.7559  -20.6882   -5.6552 C   0  0  0  0  0  0  0  0  0  0  0  0
   29.0280  -20.0535   -4.4590 C   0  0  0  0  0  0  0  0  0  0  0  0
   28.7018  -18.7325   -4.3256 C   0  0  0  0  0  0  0  0  0  0  0  0
   28.1162  -18.0695   -5.3741 C   0  0  0  0  0  0  0  0  0  0  0  0
   27.8454  -18.7236   -6.5805 C   0  0  0  0  0  0  0  0  0  0  0  0
   25.6822  -21.0602   -7.0282 C   0  0  0  0  0  0  0  0  0  0  0  0
   25.9020  -21.8507   -6.0930 O   0  0  0  0  0  0  0  0  0  0  0  0
   24.6831  -20.1357   -6.9460 O   0  0  0  0  0  0  0  0  0  0  0  0
  2  1  1  6
  2  3  1  0
  4  6  1  0
  4  2  1  0
  4  5  1  1
  6 10  1  0
  7  6  2  0
  9  8  1  6
  9 11  1  0
 10  9  1  0
 11 12  2  0
 11 13  1  0
 13 14  1  0
 14 15  1  1
 14 22  1  0
 16 15  1  0
 16 21  2  0
 17 16  1  0
 18 17  2  0
 18 19  1  0
 19 20  2  0
 20 21  1  0
 22 24  1  0
 23 22  2  0
M  END
$$$$
