TAF.pdb
     RDKit          3D

 24 24  0  0  1  0  0  0  0  0999 V2000
   17.6516  -12.5043  -16.7823 C   0  0  0  0  0  0  0  0  0  0  0  0
   18.1828  -11.1166  -16.4688 C   0  0  1  0  0  0  0  0  0  0  0  0
   18.4982  -11.0535  -15.1509 O   0  0  0  0  0  0  0  0  0  0  0  0
   19.2707  -10.8397  -17.4555 C   0  0  2  0  0  0  0  0  0  0  0  0
   20.2880  -11.8685  -17.4193 N   0  0  0  0  0  0  0  0  0  0  0  0
   19.8292   -9.4685  -17.4044 C   0  0  0  0  0  0  0  0  0  0  0  0
   20.9712   -9.3548  -16.8890 O   0  0  0  0  0  0  0  0  0  0  0  0
   19.1391   -6.0337  -18.7852 C   0  0  0  0  0  0  0  0  0  0  0  0
   19.7706   -7.0260  -17.8539 C   0  0  2  0  0  0  0  0  0  0  0  0
   19.1699   -8.3257  -17.8843 N   0  0  0  0  0  0  0  0  0  0  0  0
   20.0125   -6.5176  -16.4963 C   0  0  0  0  0  0  0  0  0  0  0  0
   19.1980   -6.8312  -15.5910 O   0  0  0  0  0  0  0  0  0  0  0  0
   21.1192   -5.7031  -16.2131 N   0  0  0  0  0  0  0  0  0  0  0  0
   21.3892   -5.1193  -14.9184 C   0  0  1  0  0  0  0  0  0  0  0  0
   22.7136   -5.4216  -14.3386 C   0  0  0  0  0  0  0  0  0  0  0  0
   23.0971   -6.8449  -14.3102 C   0  0  0  0  0  0  0  0  0  0  0  0
   23.9337   -7.3716  -15.2751 C   0  0  0  0  0  0  0  0  0  0  0  0
   24.3477   -8.6894  -15.2805 C   0  0  0  0  0  0  0  0  0  0  0  0
   23.9141   -9.5196  -14.2845 C   0  0  0  0  0  0  0  0  0  0  0  0
   23.0839   -9.0309  -13.3078 C   0  0  0  0  0  0  0  0  0  0  0  0
   22.6715   -7.6943  -13.3137 C   0  0  0  0  0  0  0  0  0  0  0  0
   21.1878   -3.6138  -15.0175 C   0  0  0  0  0  0  0  0  0  0  0  0
   21.0141   -3.0650  -16.1204 O   0  0  0  0  0  0  0  0  0  0  0  0
   21.2074   -2.8840  -13.8655 O   0  0  0  0  0  0  0  0  0  0  0  0
  2  1  1  6
  2  3  1  0
  4  6  1  0
  4  2  1  0
  4  5  1  1
  6 10  1  0
  7  6  2  0
  9  8  1  1
  9 11  1  0
 10  9  1  0
 11 12  2  0
 11 13  1  0
 13 14  1  0
 14 15  1  6
 14 22  1  0
 16 15  1  0
 16 21  2  0
 17 16  1  0
 18 17  2  0
 18 19  1  0
 19 20  2  0
 20 21  1  0
 22 24  1  0
 23 22  2  0
M  END
$$$$
