GKV.pdb
     RDKit          3D

 21 20  0  0  1  0  0  0  0  0999 V2000
    8.0141  -16.5609   19.1577 N   0  0  0  0  0  0  0  0  0  0  0  0
    8.8204  -16.8435   20.3023 C   0  0  0  0  0  0  0  0  0  0  0  0
    8.1340  -16.4589   21.5604 C   0  0  0  0  0  0  0  0  0  0  0  0
    7.3196  -15.4990   21.5400 O   0  0  0  0  0  0  0  0  0  0  0  0
    8.3270  -17.0968   22.7988 N   0  0  0  0  0  0  0  0  0  0  0  0
    7.5846  -16.7485   23.9607 C   0  0  1  0  0  0  0  0  0  0  0  0
    7.3184  -17.9021   24.8948 C   0  0  0  0  0  0  0  0  0  0  0  0
    6.7697  -19.1091   24.1934 C   0  0  0  0  0  0  0  0  0  0  0  0
    6.5761  -20.2808   25.1297 C   0  0  0  0  0  0  0  0  0  0  0  0
    6.1415  -21.5065   24.3571 C   0  0  0  0  0  0  0  0  0  0  0  0
    5.9580  -22.6461   25.2535 N   0  0  0  0  0  0  0  0  0  0  0  0
    8.1569  -15.5770   24.6887 C   0  0  0  0  0  0  0  0  0  0  0  0
    9.4097  -15.4983   24.7370 O   0  0  0  0  0  0  0  0  0  0  0  0
    5.8119  -12.6548   27.0100 C   0  0  0  0  0  0  0  0  0  0  0  0
    6.9740  -12.2951   26.1432 C   0  0  2  0  0  0  0  0  0  0  0  0
    6.5626  -11.7864   24.7806 C   0  0  0  0  0  0  0  0  0  0  0  0
    7.9661  -13.4230   25.9871 C   0  0  2  0  0  0  0  0  0  0  0  0
    7.4064  -14.5688   25.3156 N   0  0  0  0  0  0  0  0  0  0  0  0
    8.4332  -13.8271   27.3405 C   0  0  0  0  0  0  0  0  0  0  0  0
    9.0329  -13.0101   28.0891 O   0  0  0  0  0  0  0  0  0  0  0  0
    8.2384  -15.1069   27.8482 O   0  0  0  0  0  0  0  0  0  0  0  0
  2  1  1  0
  3  2  1  0
  4  3  2  0
  5  3  1  0
  6  5  1  0
  6 12  1  0
  6  7  1  1
  8  7  1  0
  9  8  1  0
  9 10  1  0
 10 11  1  0
 12 13  2  0
 15 14  1  6
 16 15  1  0
 17 15  1  0
 18 12  1  0
 17 18  1  1
 19 21  1  0
 19 17  1  0
 20 19  2  0
M  END
$$$$
