GKV.pdb
     RDKit          3D

 21 20  0  0  1  0  0  0  0  0999 V2000
    7.2094  -17.7037   19.4029 N   0  0  0  0  0  0  0  0  0  0  0  0
    8.1885  -17.1962   20.3106 C   0  0  0  0  0  0  0  0  0  0  0  0
    7.5848  -16.8360   21.6173 C   0  0  0  0  0  0  0  0  0  0  0  0
    6.7973  -15.8552   21.6739 O   0  0  0  0  0  0  0  0  0  0  0  0
    7.8293  -17.5194   22.8219 N   0  0  0  0  0  0  0  0  0  0  0  0
    7.2199  -17.1430   24.0504 C   0  0  1  0  0  0  0  0  0  0  0  0
    7.0674  -18.2722   25.0381 C   0  0  0  0  0  0  0  0  0  0  0  0
    6.1578  -19.3598   24.5485 C   0  0  0  0  0  0  0  0  0  0  0  0
    6.6628  -20.7388   24.9095 C   0  0  0  0  0  0  0  0  0  0  0  0
    5.7968  -21.8013   24.2698 C   0  0  0  0  0  0  0  0  0  0  0  0
    6.2822  -23.1379   24.6071 N   0  0  0  0  0  0  0  0  0  0  0  0
    7.8629  -15.9506   24.6788 C   0  0  0  0  0  0  0  0  0  0  0  0
    9.1146  -15.8777   24.6030 O   0  0  0  0  0  0  0  0  0  0  0  0
    5.9206  -12.2862   25.1562 C   0  0  0  0  0  0  0  0  0  0  0  0
    6.8090  -12.6808   26.2903 C   0  0  2  0  0  0  0  0  0  0  0  0
    7.5331  -11.5088   26.9121 C   0  0  0  0  0  0  0  0  0  0  0  0
    7.8042  -13.7532   25.9156 C   0  0  2  0  0  0  0  0  0  0  0  0
    7.1791  -14.9173   25.3401 N   0  0  0  0  0  0  0  0  0  0  0  0
    8.5483  -14.1510   27.1409 C   0  0  0  0  0  0  0  0  0  0  0  0
    9.3188  -13.3409   27.7220 O   0  0  0  0  0  0  0  0  0  0  0  0
    8.4383  -15.4170   27.7053 O   0  0  0  0  0  0  0  0  0  0  0  0
  2  1  1  0
  3  2  1  0
  4  3  2  0
  5  3  1  0
  6  5  1  0
  6 12  1  0
  6  7  1  1
  8  7  1  0
  9  8  1  0
  9 10  1  0
 10 11  1  0
 12 13  2  0
 15 14  1  6
 16 15  1  0
 17 15  1  0
 18 12  1  0
 17 18  1  1
 19 21  1  0
 19 17  1  0
 20 19  2  0
M  END
$$$$
