GKV.pdb
     RDKit          3D

 21 20  0  0  1  0  0  0  0  0999 V2000
    1.7700  -26.4472   28.8141 N   0  0  0  0  0  0  0  0  0  0  0  0
    0.7519  -27.4488   28.7906 C   0  0  0  0  0  0  0  0  0  0  0  0
   -0.5365  -26.9041   28.2953 C   0  0  0  0  0  0  0  0  0  0  0  0
   -0.5232  -26.0844   27.3398 O   0  0  0  0  0  0  0  0  0  0  0  0
   -1.7967  -27.2397   28.8215 N   0  0  0  0  0  0  0  0  0  0  0  0
   -3.0096  -26.7293   28.2824 C   0  0  1  0  0  0  0  0  0  0  0  0
   -4.1826  -27.6702   28.3958 C   0  0  0  0  0  0  0  0  0  0  0  0
   -4.0085  -28.9231   27.5895 C   0  0  0  0  0  0  0  0  0  0  0  0
   -5.1908  -29.8575   27.7152 C   0  0  0  0  0  0  0  0  0  0  0  0
   -4.9268  -31.1449   26.9662 C   0  0  0  0  0  0  0  0  0  0  0  0
   -6.1134  -31.9982   26.9679 N   0  0  0  0  0  0  0  0  0  0  0  0
   -3.3489  -25.3688   28.7962 C   0  0  0  0  0  0  0  0  0  0  0  0
   -3.2673  -25.1968   30.0379 O   0  0  0  0  0  0  0  0  0  0  0  0
   -3.7730  -20.4943   28.0703 C   0  0  0  0  0  0  0  0  0  0  0  0
   -3.5472  -21.8740   27.5445 C   0  0  2  0  0  0  0  0  0  0  0  0
   -4.1669  -22.0994   26.1845 C   0  0  0  0  0  0  0  0  0  0  0  0
   -4.0059  -22.9519   28.4977 C   0  0  2  0  0  0  0  0  0  0  0  0
   -3.7476  -24.2806   28.0027 N   0  0  0  0  0  0  0  0  0  0  0  0
   -5.4672  -22.7877   28.7231 C   0  0  0  0  0  0  0  0  0  0  0  0
   -5.9164  -21.8002   29.3639 O   0  0  0  0  0  0  0  0  0  0  0  0
   -6.4047  -23.6981   28.2480 O   0  0  0  0  0  0  0  0  0  0  0  0
  2  1  1  0
  3  2  1  0
  4  3  2  0
  5  3  1  0
  6  5  1  0
  6 12  1  0
  6  7  1  1
  8  7  1  0
  9  8  1  0
  9 10  1  0
 10 11  1  0
 12 13  2  0
 15 14  1  1
 16 15  1  0
 17 15  1  0
 18 12  1  0
 17 18  1  6
 19 21  1  0
 19 17  1  0
 20 19  2  0
M  END
$$$$
