GKV.pdb
     RDKit          3D

 21 20  0  0  1  0  0  0  0  0999 V2000
    9.6876  -15.4550   13.5240 N   0  0  0  0  0  0  0  0  0  0  0  0
   10.0875  -16.4085   14.5094 C   0  0  0  0  0  0  0  0  0  0  0  0
    9.2274  -16.3375   15.7164 C   0  0  0  0  0  0  0  0  0  0  0  0
    8.4269  -15.3733   15.8371 O   0  0  0  0  0  0  0  0  0  0  0  0
    9.2376  -17.2834   16.7571 N   0  0  0  0  0  0  0  0  0  0  0  0
    8.4147  -17.1585   17.9103 C   0  0  1  0  0  0  0  0  0  0  0  0
    7.9520  -18.4730   18.4866 C   0  0  0  0  0  0  0  0  0  0  0  0
    7.3055  -19.3641   17.4678 C   0  0  0  0  0  0  0  0  0  0  0  0
    7.7437  -20.8052   17.6025 C   0  0  0  0  0  0  0  0  0  0  0  0
    7.0852  -21.6576   16.5405 C   0  0  0  0  0  0  0  0  0  0  0  0
    7.5865  -23.0295   16.5925 N   0  0  0  0  0  0  0  0  0  0  0  0
    9.0125  -16.2816   18.9608 C   0  0  0  0  0  0  0  0  0  0  0  0
   10.2505  -16.3856   19.1468 O   0  0  0  0  0  0  0  0  0  0  0  0
    6.7463  -13.6479   21.7117 C   0  0  0  0  0  0  0  0  0  0  0  0
    8.0271  -13.2846   21.0343 C   0  0  2  0  0  0  0  0  0  0  0  0
    7.8234  -12.4662   19.7800 C   0  0  0  0  0  0  0  0  0  0  0  0
    8.8925  -14.4830   20.7251 C   0  0  2  0  0  0  0  0  0  0  0  0
    8.3009  -15.3602   19.7465 N   0  0  0  0  0  0  0  0  0  0  0  0
    9.1175  -15.2371   21.9876 C   0  0  0  0  0  0  0  0  0  0  0  0
    8.5556  -16.3470   22.1876 O   0  0  0  0  0  0  0  0  0  0  0  0
    9.9461  -14.7689   23.0014 O   0  0  0  0  0  0  0  0  0  0  0  0
  2  1  1  0
  3  2  1  0
  4  3  2  0
  5  3  1  0
  6  5  1  0
  6 12  1  0
  6  7  1  1
  8  7  1  0
  9  8  1  0
  9 10  1  0
 10 11  1  0
 12 13  2  0
 15 14  1  6
 16 15  1  0
 17 15  1  0
 18 12  1  0
 17 18  1  6
 19 21  1  0
 19 17  1  0
 20 19  2  0
M  END
$$$$
