GKV.pdb
     RDKit          3D

 21 20  0  0  1  0  0  0  0  0999 V2000
    7.6150  -12.4892   18.5646 N   0  0  0  0  0  0  0  0  0  0  0  0
    8.6129  -13.2028   19.2961 C   0  0  0  0  0  0  0  0  0  0  0  0
    8.0558  -13.8036   20.5333 C   0  0  0  0  0  0  0  0  0  0  0  0
    7.1404  -13.1943   21.1465 O   0  0  0  0  0  0  0  0  0  0  0  0
    8.4800  -15.0257   21.0848 N   0  0  0  0  0  0  0  0  0  0  0  0
    7.8857  -15.5848   22.2496 C   0  0  1  0  0  0  0  0  0  0  0  0
    8.0445  -17.0796   22.3697 C   0  0  0  0  0  0  0  0  0  0  0  0
    7.8265  -17.7980   21.0711 C   0  0  0  0  0  0  0  0  0  0  0  0
    8.0112  -19.2932   21.2021 C   0  0  0  0  0  0  0  0  0  0  0  0
    7.8478  -19.9642   19.8564 C   0  0  0  0  0  0  0  0  0  0  0  0
    8.1982  -21.3808   19.9376 N   0  0  0  0  0  0  0  0  0  0  0  0
    8.2972  -14.8890   23.5052 C   0  0  0  0  0  0  0  0  0  0  0  0
    9.5063  -14.5620   23.6001 O   0  0  0  0  0  0  0  0  0  0  0  0
    6.2167  -11.9981   25.3466 C   0  0  0  0  0  0  0  0  0  0  0  0
    6.7278  -13.0053   26.3242 C   0  0  2  0  0  0  0  0  0  0  0  0
    7.1715  -12.3905   27.6318 C   0  0  0  0  0  0  0  0  0  0  0  0
    7.8365  -13.8635   25.7631 C   0  0  2  0  0  0  0  0  0  0  0  0
    7.4420  -14.5773   24.5748 N   0  0  0  0  0  0  0  0  0  0  0  0
    8.2483  -14.8395   26.8077 C   0  0  0  0  0  0  0  0  0  0  0  0
    7.9402  -16.0576   26.7130 O   0  0  0  0  0  0  0  0  0  0  0  0
    8.9837  -14.4703   27.9286 O   0  0  0  0  0  0  0  0  0  0  0  0
  2  1  1  0
  3  2  1  0
  4  3  2  0
  5  3  1  0
  6  5  1  0
  6 12  1  0
  6  7  1  1
  8  7  1  0
  9  8  1  0
  9 10  1  0
 10 11  1  0
 12 13  2  0
 15 14  1  6
 16 15  1  0
 17 15  1  0
 18 12  1  0
 17 18  1  6
 19 21  1  0
 19 17  1  0
 20 19  2  0
M  END
$$$$
