NLY.pdb
     RDKit          3D

 29 29  0  0  1  0  0  0  0  0999 V2000
    9.1008  -17.6887   19.1829 N   0  0  0  0  0  0  0  0  0  0  0  0
    8.7015  -18.4001   20.3796 C   0  0  0  0  0  0  0  0  0  0  0  0
    8.6280  -19.6345   20.3230 O   0  0  0  0  0  0  0  0  0  0  0  0
    8.4119  -17.5916   21.5803 C   0  0  0  0  0  0  0  0  0  0  0  0
    8.5619  -16.1070   21.3421 C   0  0  2  0  0  0  0  0  0  0  0  0
    9.7847  -15.9930   20.5138 N   0  0  0  0  0  0  0  0  0  0  0  0
    8.8713  -15.3924   22.6336 C   0  0  0  0  0  0  0  0  0  0  0  0
   10.0210  -15.5178   23.1866 O   0  0  0  0  0  0  0  0  0  0  0  0
    5.7070  -12.0396   26.9123 C   0  0  0  0  0  0  0  0  0  0  0  0
    6.9403  -12.7228   26.4251 C   0  0  2  0  0  0  0  0  0  0  0  0
    8.1178  -11.8368   26.7386 C   0  0  0  0  0  0  0  0  0  0  0  0
    6.9214  -13.2643   25.0604 C   0  0  0  0  0  0  0  0  0  0  0  0
    7.9938  -14.1663   24.6022 C   0  0  2  0  0  0  0  0  0  0  0  0
    7.8861  -14.5808   23.2343 N   0  0  0  0  0  0  0  0  0  0  0  0
    8.3023  -15.3097   25.5139 C   0  0  0  0  0  0  0  0  0  0  0  0
    7.6126  -16.3637   25.5127 O   0  0  0  0  0  0  0  0  0  0  0  0
   11.5161  -22.3438   29.1353 O   0  0  0  0  0  0  0  0  0  0  0  0
   11.2403  -21.1792   28.4410 C   0  0  0  0  0  0  0  0  0  0  0  0
   12.2040  -20.3664   27.8894 C   0  0  0  0  0  0  0  0  0  0  0  0
   11.8454  -19.2217   27.2118 C   0  0  0  0  0  0  0  0  0  0  0  0
   10.5079  -18.8376   27.0549 C   0  0  0  0  0  0  0  0  0  0  0  0
   10.1321  -17.6029   26.3389 C   0  0  0  0  0  0  0  0  0  0  0  0
    9.7194  -16.4671   27.2156 C   0  0  2  0  0  0  0  0  0  0  0  0
    9.3879  -15.2753   26.4311 N   0  0  0  0  0  0  0  0  0  0  0  0
   10.8299  -16.0980   28.1160 C   0  0  0  0  0  0  0  0  0  0  0  0
   11.8911  -15.2721   27.6998 O   0  0  0  0  0  0  0  0  0  0  0  0
    9.5825  -19.6827   27.6244 C   0  0  0  0  0  0  0  0  0  0  0  0
    9.9092  -20.8317   28.3062 C   0  0  0  0  0  0  0  0  0  0  0  0
   10.9244  -16.4843   29.3185 O   0  0  0  0  0  0  0  0  0  0  0  0
  1  2  1  0
  2  3  2  0
  4  5  1  0
  4  2  1  0
  5  6  1  6
  7  5  1  0
  7  8  2  0
 10  9  1  6
 11 10  1  0
 12 10  1  0
 13 12  1  1
 13 14  1  0
 14  7  1  0
 15 24  1  0
 15 13  1  0
 16 15  2  0
 18 17  1  0
 18 28  2  0
 19 18  1  0
 20 19  2  0
 20 21  1  0
 21 27  2  0
 22 21  1  0
 23 22  1  6
 23 24  1  0
 23 25  1  0
 25 26  1  0
 27 28  1  0
 29 25  2  0
M  END
$$$$
