NLY.pdb
     RDKit          3D

 29 29  0  0  1  0  0  0  0  0999 V2000
    8.3759  -18.6904   18.7755 N   0  0  0  0  0  0  0  0  0  0  0  0
    7.9464  -17.3763   18.3435 C   0  0  0  0  0  0  0  0  0  0  0  0
    7.6748  -17.2197   17.1460 O   0  0  0  0  0  0  0  0  0  0  0  0
    7.8660  -16.3207   19.3723 C   0  0  0  0  0  0  0  0  0  0  0  0
    8.4176  -16.7570   20.7097 C   0  0  2  0  0  0  0  0  0  0  0  0
    7.3235  -17.5534   21.3123 N   0  0  0  0  0  0  0  0  0  0  0  0
    8.6088  -15.5675   21.6168 C   0  0  0  0  0  0  0  0  0  0  0  0
    9.5345  -14.7125   21.3813 O   0  0  0  0  0  0  0  0  0  0  0  0
    5.7780  -12.9523   26.5788 C   0  0  0  0  0  0  0  0  0  0  0  0
    6.8902  -13.0291   25.5879 C   0  0  2  0  0  0  0  0  0  0  0  0
    7.1470  -11.6388   25.0676 C   0  0  0  0  0  0  0  0  0  0  0  0
    6.8072  -14.0692   24.5547 C   0  0  0  0  0  0  0  0  0  0  0  0
    7.9462  -14.3140   23.6512 C   0  0  2  0  0  0  0  0  0  0  0  0
    7.7609  -15.3976   22.7314 N   0  0  0  0  0  0  0  0  0  0  0  0
    9.2876  -14.3575   24.3088 C   0  0  0  0  0  0  0  0  0  0  0  0
    9.8572  -13.3133   24.7232 O   0  0  0  0  0  0  0  0  0  0  0  0
   12.1391  -16.7300   31.9830 O   0  0  0  0  0  0  0  0  0  0  0  0
   11.5420  -16.5601   30.7464 C   0  0  0  0  0  0  0  0  0  0  0  0
   11.0538  -17.5934   29.9799 C   0  0  0  0  0  0  0  0  0  0  0  0
   10.4722  -17.3392   28.7572 C   0  0  0  0  0  0  0  0  0  0  0  0
   10.3522  -16.0413   28.2453 C   0  0  0  0  0  0  0  0  0  0  0  0
    9.7395  -15.7780   26.9286 C   0  0  0  0  0  0  0  0  0  0  0  0
   10.6848  -15.8221   25.7738 C   0  0  2  0  0  0  0  0  0  0  0  0
    9.9957  -15.5744   24.5052 N   0  0  0  0  0  0  0  0  0  0  0  0
   11.2998  -17.1611   25.6787 C   0  0  0  0  0  0  0  0  0  0  0  0
   10.9967  -18.0538   24.6334 O   0  0  0  0  0  0  0  0  0  0  0  0
   10.8555  -15.0432   29.0487 C   0  0  0  0  0  0  0  0  0  0  0  0
   11.4411  -15.2653   30.2732 C   0  0  0  0  0  0  0  0  0  0  0  0
   12.1375  -17.6161   26.5125 O   0  0  0  0  0  0  0  0  0  0  0  0
  1  2  1  0
  2  3  2  0
  4  5  1  0
  4  2  1  0
  5  6  1  1
  7  5  1  0
  7  8  2  0
 10  9  1  6
 11 10  1  0
 12 10  1  0
 13 12  1  1
 13 14  1  0
 14  7  1  0
 15 24  1  0
 15 13  1  0
 16 15  2  0
 18 17  1  0
 18 28  2  0
 19 18  1  0
 20 19  2  0
 20 21  1  0
 21 27  2  0
 22 21  1  0
 23 22  1  1
 23 24  1  0
 23 25  1  0
 25 26  1  0
 27 28  1  0
 29 25  2  0
M  END
$$$$
