NLY.pdb
     RDKit          3D

 29 29  0  0  1  0  0  0  0  0999 V2000
    9.4500  -17.9477   19.1224 N   0  0  0  0  0  0  0  0  0  0  0  0
   10.4321  -16.9031   19.3281 C   0  0  0  0  0  0  0  0  0  0  0  0
   11.2047  -16.6424   18.3968 O   0  0  0  0  0  0  0  0  0  0  0  0
   10.4339  -16.2277   20.6407 C   0  0  0  0  0  0  0  0  0  0  0  0
    9.2686  -16.6315   21.5137 C   0  0  2  0  0  0  0  0  0  0  0  0
    8.0804  -16.1109   20.7984 N   0  0  0  0  0  0  0  0  0  0  0  0
    9.3126  -15.8952   22.8291 C   0  0  0  0  0  0  0  0  0  0  0  0
   10.3069  -16.0440   23.6244 O   0  0  0  0  0  0  0  0  0  0  0  0
    5.7417  -11.8870   26.0468 C   0  0  0  0  0  0  0  0  0  0  0  0
    6.9996  -12.6750   25.8991 C   0  0  2  0  0  0  0  0  0  0  0  0
    8.1343  -11.8466   26.4431 C   0  0  0  0  0  0  0  0  0  0  0  0
    7.2601  -13.2982   24.5954 C   0  0  0  0  0  0  0  0  0  0  0  0
    8.1638  -14.4585   24.4919 C   0  0  2  0  0  0  0  0  0  0  0  0
    8.2502  -15.0374   23.1834 N   0  0  0  0  0  0  0  0  0  0  0  0
    7.9999  -15.4950   25.5560 C   0  0  0  0  0  0  0  0  0  0  0  0
    6.8795  -16.0096   25.8136 O   0  0  0  0  0  0  0  0  0  0  0  0
    8.5087  -23.1371   29.4973 O   0  0  0  0  0  0  0  0  0  0  0  0
    8.4582  -21.9667   28.7610 C   0  0  0  0  0  0  0  0  0  0  0  0
    7.2898  -21.3394   28.3936 C   0  0  0  0  0  0  0  0  0  0  0  0
    7.3258  -20.1746   27.6590 C   0  0  0  0  0  0  0  0  0  0  0  0
    8.5307  -19.5841   27.2583 C   0  0  0  0  0  0  0  0  0  0  0  0
    8.5611  -18.3430   26.4601 C   0  0  0  0  0  0  0  0  0  0  0  0
    8.9213  -17.1116   27.2237 C   0  0  2  0  0  0  0  0  0  0  0  0
    9.0941  -15.9596   26.3356 N   0  0  0  0  0  0  0  0  0  0  0  0
   10.2042  -17.3133   27.9263 C   0  0  0  0  0  0  0  0  0  0  0  0
   10.2680  -17.6276   29.2970 O   0  0  0  0  0  0  0  0  0  0  0  0
    9.6706  -20.2493   27.6497 C   0  0  0  0  0  0  0  0  0  0  0  0
    9.6669  -21.4128   28.3831 C   0  0  0  0  0  0  0  0  0  0  0  0
   11.3381  -17.2229   27.3694 O   0  0  0  0  0  0  0  0  0  0  0  0
  1  2  1  0
  2  3  2  0
  4  5  1  0
  4  2  1  0
  5  6  1  6
  7  5  1  0
  7  8  2  0
 10  9  1  6
 11 10  1  0
 12 10  1  0
 13 12  1  6
 13 14  1  0
 14  7  1  0
 15 24  1  0
 15 13  1  0
 16 15  2  0
 18 17  1  0
 18 28  2  0
 19 18  1  0
 20 19  2  0
 20 21  1  0
 21 27  2  0
 22 21  1  0
 23 22  1  6
 23 24  1  0
 23 25  1  0
 25 26  1  0
 27 28  1  0
 29 25  2  0
M  END
$$$$
