NLY.pdb
     RDKit          3D

 29 29  0  0  1  0  0  0  0  0999 V2000
   10.1760  -19.8160   16.3483 N   0  0  0  0  0  0  0  0  0  0  0  0
   10.9647  -19.3100   17.4528 C   0  0  0  0  0  0  0  0  0  0  0  0
   12.0011  -19.9175   17.7513 O   0  0  0  0  0  0  0  0  0  0  0  0
   10.4670  -18.1018   18.1396 C   0  0  0  0  0  0  0  0  0  0  0  0
   10.6684  -18.1488   19.6364 C   0  0  2  0  0  0  0  0  0  0  0  0
    9.4977  -18.9054   20.1376 N   0  0  0  0  0  0  0  0  0  0  0  0
   10.5508  -16.7674   20.2299 C   0  0  0  0  0  0  0  0  0  0  0  0
   11.5503  -15.9650   20.2122 O   0  0  0  0  0  0  0  0  0  0  0  0
    8.0813  -13.1637   19.0294 C   0  0  0  0  0  0  0  0  0  0  0  0
    7.2935  -14.1373   19.8397 C   0  0  2  0  0  0  0  0  0  0  0  0
    5.8490  -13.7110   19.8043 C   0  0  0  0  0  0  0  0  0  0  0  0
    7.8037  -14.4789   21.1735 C   0  0  0  0  0  0  0  0  0  0  0  0
    9.1596  -15.0358   21.3321 C   0  0  2  0  0  0  0  0  0  0  0  0
    9.3303  -16.3588   20.8075 N   0  0  0  0  0  0  0  0  0  0  0  0
    9.7571  -14.8891   22.6941 C   0  0  0  0  0  0  0  0  0  0  0  0
    9.7303  -13.7939   23.3157 O   0  0  0  0  0  0  0  0  0  0  0  0
   10.7029  -15.1104   31.1767 O   0  0  0  0  0  0  0  0  0  0  0  0
   10.4225  -15.3060   29.8360 C   0  0  0  0  0  0  0  0  0  0  0  0
   10.2975  -16.5445   29.2494 C   0  0  0  0  0  0  0  0  0  0  0  0
   10.0163  -16.6534   27.9051 C   0  0  0  0  0  0  0  0  0  0  0  0
    9.8474  -15.5299   27.0865 C   0  0  0  0  0  0  0  0  0  0  0  0
    9.5593  -15.6546   25.6443 C   0  0  0  0  0  0  0  0  0  0  0  0
   10.7594  -15.8405   24.7759 C   0  0  2  0  0  0  0  0  0  0  0  0
   10.3870  -15.9724   23.3654 N   0  0  0  0  0  0  0  0  0  0  0  0
   11.4669  -17.0797   25.1550 C   0  0  0  0  0  0  0  0  0  0  0  0
   12.5845  -17.0742   26.0108 O   0  0  0  0  0  0  0  0  0  0  0  0
    9.9825  -14.3151   27.7196 C   0  0  0  0  0  0  0  0  0  0  0  0
   10.2624  -14.1741   29.0588 C   0  0  0  0  0  0  0  0  0  0  0  0
   11.1379  -18.2343   24.7517 O   0  0  0  0  0  0  0  0  0  0  0  0
  1  2  1  0
  2  3  2  0
  4  5  1  0
  4  2  1  0
  5  6  1  1
  7  5  1  0
  7  8  2  0
 10  9  1  1
 11 10  1  0
 12 10  1  0
 13 12  1  1
 13 14  1  0
 14  7  1  0
 15 24  1  0
 15 13  1  0
 16 15  2  0
 18 17  1  0
 18 28  2  0
 19 18  1  0
 20 19  2  0
 20 21  1  0
 21 27  2  0
 22 21  1  0
 23 22  1  1
 23 24  1  0
 23 25  1  0
 25 26  1  0
 27 28  1  0
 29 25  2  0
M  END
$$$$
