NLY.pdb
     RDKit          3D

 29 29  0  0  1  0  0  0  0  0999 V2000
    7.2476  -20.9716   20.6093 N   0  0  0  0  0  0  0  0  0  0  0  0
    8.6738  -21.1564   20.7812 C   0  0  0  0  0  0  0  0  0  0  0  0
    9.1196  -22.3099   20.7269 O   0  0  0  0  0  0  0  0  0  0  0  0
    9.4884  -19.9465   21.0091 C   0  0  0  0  0  0  0  0  0  0  0  0
    9.1883  -18.8393   20.0255 C   0  0  2  0  0  0  0  0  0  0  0  0
   10.0916  -19.1121   18.8836 N   0  0  0  0  0  0  0  0  0  0  0  0
    9.6194  -17.5057   20.5821 C   0  0  0  0  0  0  0  0  0  0  0  0
   10.8574  -17.1728   20.5869 O   0  0  0  0  0  0  0  0  0  0  0  0
    8.6723  -13.2817   19.1928 C   0  0  0  0  0  0  0  0  0  0  0  0
    7.6137  -13.8678   20.0650 C   0  0  2  0  0  0  0  0  0  0  0  0
    6.4061  -12.9694   19.9990 C   0  0  0  0  0  0  0  0  0  0  0  0
    8.0027  -14.2805   21.4194 C   0  0  0  0  0  0  0  0  0  0  0  0
    9.0157  -15.3337   21.6149 C   0  0  2  0  0  0  0  0  0  0  0  0
    8.6507  -16.6207   21.1002 N   0  0  0  0  0  0  0  0  0  0  0  0
    9.5918  -15.4209   22.9912 C   0  0  0  0  0  0  0  0  0  0  0  0
   10.4451  -14.5928   23.4067 O   0  0  0  0  0  0  0  0  0  0  0  0
    6.0189  -11.1916   26.2071 O   0  0  0  0  0  0  0  0  0  0  0  0
    6.6980  -12.3967   26.2423 C   0  0  0  0  0  0  0  0  0  0  0  0
    8.0249  -12.5216   26.5847 C   0  0  0  0  0  0  0  0  0  0  0  0
    8.6279  -13.7603   26.5954 C   0  0  0  0  0  0  0  0  0  0  0  0
    7.9322  -14.9298   26.2645 C   0  0  0  0  0  0  0  0  0  0  0  0
    8.5884  -16.2518   26.2656 C   0  0  0  0  0  0  0  0  0  0  0  0
    9.7057  -16.4013   25.2867 C   0  0  2  0  0  0  0  0  0  0  0  0
    9.2114  -16.4383   23.9083 N   0  0  0  0  0  0  0  0  0  0  0  0
   10.4169  -17.6729   25.5262 C   0  0  0  0  0  0  0  0  0  0  0  0
   11.0744  -17.9482   26.7400 O   0  0  0  0  0  0  0  0  0  0  0  0
    6.6090  -14.7522   25.9292 C   0  0  0  0  0  0  0  0  0  0  0  0
    5.9793  -13.5296   25.9095 C   0  0  0  0  0  0  0  0  0  0  0  0
   10.4971  -18.6098   24.6777 O   0  0  0  0  0  0  0  0  0  0  0  0
  1  2  1  0
  2  3  2  0
  4  5  1  0
  4  2  1  0
  5  6  1  6
  7  5  1  0
  7  8  2  0
 10  9  1  1
 11 10  1  0
 12 10  1  0
 13 12  1  1
 13 14  1  0
 14  7  1  0
 15 24  1  0
 15 13  1  0
 16 15  2  0
 18 17  1  0
 18 28  2  0
 19 18  1  0
 20 19  2  0
 20 21  1  0
 21 27  2  0
 22 21  1  0
 23 22  1  1
 23 24  1  0
 23 25  1  0
 25 26  1  0
 27 28  1  0
 29 25  2  0
M  END
$$$$
