NLY.pdb
     RDKit          3D

 29 29  0  0  1  0  0  0  0  0999 V2000
    7.5389  -17.8737   17.7426 N   0  0  0  0  0  0  0  0  0  0  0  0
    8.0499  -18.5835   18.8972 C   0  0  0  0  0  0  0  0  0  0  0  0
    8.0175  -19.8207   18.8782 O   0  0  0  0  0  0  0  0  0  0  0  0
    8.5724  -17.7699   20.0126 C   0  0  0  0  0  0  0  0  0  0  0  0
    8.3027  -16.2928   19.8424 C   0  0  2  0  0  0  0  0  0  0  0  0
    9.2082  -15.8816   18.7446 N   0  0  0  0  0  0  0  0  0  0  0  0
    8.7578  -15.5280   21.0598 C   0  0  0  0  0  0  0  0  0  0  0  0
   10.0050  -15.3131   21.2638 O   0  0  0  0  0  0  0  0  0  0  0  0
    6.2480  -13.0876   26.2496 C   0  0  0  0  0  0  0  0  0  0  0  0
    7.3355  -13.1114   25.2290 C   0  0  2  0  0  0  0  0  0  0  0  0
    7.8431  -11.7034   25.0568 C   0  0  0  0  0  0  0  0  0  0  0  0
    7.0738  -13.8307   23.9759 C   0  0  0  0  0  0  0  0  0  0  0  0
    8.1929  -14.3282   23.1551 C   0  0  2  0  0  0  0  0  0  0  0  0
    7.8013  -15.0470   21.9784 N   0  0  0  0  0  0  0  0  0  0  0  0
    9.2772  -15.0291   23.9077 C   0  0  0  0  0  0  0  0  0  0  0  0
   10.4804  -14.6642   23.8312 O   0  0  0  0  0  0  0  0  0  0  0  0
   11.6798  -16.2209   32.1412 O   0  0  0  0  0  0  0  0  0  0  0  0
   11.2161  -16.0370   30.8506 C   0  0  0  0  0  0  0  0  0  0  0  0
   11.4181  -16.9332   29.8260 C   0  0  0  0  0  0  0  0  0  0  0  0
   10.9224  -16.6749   28.5669 C   0  0  0  0  0  0  0  0  0  0  0  0
   10.2027  -15.5097   28.2746 C   0  0  0  0  0  0  0  0  0  0  0  0
    9.6859  -15.2338   26.9199 C   0  0  0  0  0  0  0  0  0  0  0  0
    9.8295  -16.3594   25.9496 C   0  0  2  0  0  0  0  0  0  0  0  0
    9.0155  -16.1432   24.7512 N   0  0  0  0  0  0  0  0  0  0  0  0
    9.3656  -17.6177   26.5673 C   0  0  0  0  0  0  0  0  0  0  0  0
    8.0091  -17.9936   26.5772 O   0  0  0  0  0  0  0  0  0  0  0  0
   10.0279  -14.6455   29.3318 C   0  0  0  0  0  0  0  0  0  0  0  0
   10.5101  -14.8754   30.5992 C   0  0  0  0  0  0  0  0  0  0  0  0
   10.1316  -18.4534   27.1320 O   0  0  0  0  0  0  0  0  0  0  0  0
  1  2  1  0
  2  3  2  0
  4  5  1  0
  4  2  1  0
  5  6  1  6
  7  5  1  0
  7  8  2  0
 10  9  1  1
 11 10  1  0
 12 10  1  0
 13 12  1  1
 13 14  1  0
 14  7  1  0
 15 24  1  0
 15 13  1  0
 16 15  2  0
 18 17  1  0
 18 28  2  0
 19 18  1  0
 20 19  2  0
 20 21  1  0
 21 27  2  0
 22 21  1  0
 23 22  1  1
 23 24  1  0
 23 25  1  0
 25 26  1  0
 27 28  1  0
 29 25  2  0
M  END
$$$$
