NLY.pdb
     RDKit          3D

 29 29  0  0  1  0  0  0  0  0999 V2000
    7.8235  -19.0171   19.2983 N   0  0  0  0  0  0  0  0  0  0  0  0
    8.6106  -19.2461   20.4924 C   0  0  0  0  0  0  0  0  0  0  0  0
    9.0067  -20.3978   20.7136 O   0  0  0  0  0  0  0  0  0  0  0  0
    8.8801  -18.0802   21.3567 C   0  0  0  0  0  0  0  0  0  0  0  0
    8.1409  -16.8373   20.9184 C   0  0  2  0  0  0  0  0  0  0  0  0
    8.7463  -16.4962   19.6102 N   0  0  0  0  0  0  0  0  0  0  0  0
    8.4596  -15.6816   21.8334 C   0  0  0  0  0  0  0  0  0  0  0  0
    9.5552  -15.0296   21.6996 O   0  0  0  0  0  0  0  0  0  0  0  0
    5.8150  -12.7399   26.7226 C   0  0  0  0  0  0  0  0  0  0  0  0
    6.9371  -12.9450   25.7614 C   0  0  2  0  0  0  0  0  0  0  0  0
    7.4263  -11.5899   25.3210 C   0  0  0  0  0  0  0  0  0  0  0  0
    6.7306  -13.9100   24.6741 C   0  0  0  0  0  0  0  0  0  0  0  0
    7.8509  -14.2928   23.7954 C   0  0  2  0  0  0  0  0  0  0  0  0
    7.5431  -15.3183   22.8424 N   0  0  0  0  0  0  0  0  0  0  0  0
    9.1522  -14.5402   24.4874 C   0  0  0  0  0  0  0  0  0  0  0  0
    9.9108  -13.5952   24.8310 O   0  0  0  0  0  0  0  0  0  0  0  0
   12.1698  -16.7223   32.1838 O   0  0  0  0  0  0  0  0  0  0  0  0
   11.5161  -16.5517   30.9762 C   0  0  0  0  0  0  0  0  0  0  0  0
   10.9540  -17.5796   30.2543 C   0  0  0  0  0  0  0  0  0  0  0  0
   10.3194  -17.3250   29.0583 C   0  0  0  0  0  0  0  0  0  0  0  0
   10.2178  -16.0322   28.5298 C   0  0  0  0  0  0  0  0  0  0  0  0
    9.5477  -15.7690   27.2414 C   0  0  0  0  0  0  0  0  0  0  0  0
   10.3615  -16.0888   26.0312 C   0  0  2  0  0  0  0  0  0  0  0  0
    9.6077  -15.8506   24.7981 N   0  0  0  0  0  0  0  0  0  0  0  0
   10.7366  -17.5168   26.0407 C   0  0  0  0  0  0  0  0  0  0  0  0
   12.0571  -17.9446   26.2745 O   0  0  0  0  0  0  0  0  0  0  0  0
   10.7957  -15.0395   29.2884 C   0  0  0  0  0  0  0  0  0  0  0  0
   11.4355  -15.2620   30.4854 C   0  0  0  0  0  0  0  0  0  0  0  0
    9.9199  -18.4645   25.8431 O   0  0  0  0  0  0  0  0  0  0  0  0
  1  2  1  0
  2  3  2  0
  4  5  1  0
  4  2  1  0
  5  6  1  6
  7  5  1  0
  7  8  2  0
 10  9  1  6
 11 10  1  0
 12 10  1  0
 13 12  1  1
 13 14  1  0
 14  7  1  0
 15 24  1  0
 15 13  1  0
 16 15  2  0
 18 17  1  0
 18 28  2  0
 19 18  1  0
 20 19  2  0
 20 21  1  0
 21 27  2  0
 22 21  1  0
 23 22  1  1
 23 24  1  0
 23 25  1  0
 25 26  1  0
 27 28  1  0
 29 25  2  0
M  END
$$$$
