NLY.pdb
     RDKit          3D

 29 29  0  0  1  0  0  0  0  0999 V2000
    9.9238  -20.4652   18.5390 N   0  0  0  0  0  0  0  0  0  0  0  0
   10.2132  -19.3331   17.6831 C   0  0  0  0  0  0  0  0  0  0  0  0
   10.4708  -19.5569   16.4932 O   0  0  0  0  0  0  0  0  0  0  0  0
   10.1777  -17.9932   18.3015 C   0  0  0  0  0  0  0  0  0  0  0  0
   10.0731  -18.0413   19.8082 C   0  0  2  0  0  0  0  0  0  0  0  0
    8.6947  -18.5207   20.0622 N   0  0  0  0  0  0  0  0  0  0  0  0
   10.1387  -16.6507   20.3880 C   0  0  0  0  0  0  0  0  0  0  0  0
   11.2699  -16.0784   20.5781 O   0  0  0  0  0  0  0  0  0  0  0  0
    8.4742  -12.9685   18.6796 C   0  0  0  0  0  0  0  0  0  0  0  0
    7.4507  -13.5974   19.5639 C   0  0  2  0  0  0  0  0  0  0  0  0
    6.1460  -12.8742   19.3533 C   0  0  0  0  0  0  0  0  0  0  0  0
    7.8133  -13.8198   20.9693 C   0  0  0  0  0  0  0  0  0  0  0  0
    8.9647  -14.6731   21.3152 C   0  0  2  0  0  0  0  0  0  0  0  0
    8.9446  -15.9779   20.7221 N   0  0  0  0  0  0  0  0  0  0  0  0
    9.3132  -14.7207   22.7677 C   0  0  0  0  0  0  0  0  0  0  0  0
    8.6845  -14.0430   23.6232 O   0  0  0  0  0  0  0  0  0  0  0  0
   11.0307  -15.7835   31.1079 O   0  0  0  0  0  0  0  0  0  0  0  0
   10.6942  -15.6948   29.7687 C   0  0  0  0  0  0  0  0  0  0  0  0
   10.4272  -14.5111   29.1198 C   0  0  0  0  0  0  0  0  0  0  0  0
   10.0991  -14.5089   27.7818 C   0  0  0  0  0  0  0  0  0  0  0  0
   10.0230  -15.6891   27.0319 C   0  0  0  0  0  0  0  0  0  0  0  0
    9.6580  -15.6799   25.6019 C   0  0  0  0  0  0  0  0  0  0  0  0
   10.7878  -15.4057   24.6651 C   0  0  2  0  0  0  0  0  0  0  0  0
   10.3694  -15.5309   23.2670 N   0  0  0  0  0  0  0  0  0  0  0  0
   11.8704  -16.3859   24.8829 C   0  0  0  0  0  0  0  0  0  0  0  0
   12.9576  -16.1259   25.7384 O   0  0  0  0  0  0  0  0  0  0  0  0
   10.2981  -16.8457   27.7259 C   0  0  0  0  0  0  0  0  0  0  0  0
   10.6286  -16.8801   29.0606 C   0  0  0  0  0  0  0  0  0  0  0  0
   11.9160  -17.5245   24.3301 O   0  0  0  0  0  0  0  0  0  0  0  0
  1  2  1  0
  2  3  2  0
  4  5  1  0
  4  2  1  0
  5  6  1  6
  7  5  1  0
  7  8  2  0
 10  9  1  1
 11 10  1  0
 12 10  1  0
 13 12  1  1
 13 14  1  0
 14  7  1  0
 15 24  1  0
 15 13  1  0
 16 15  2  0
 18 17  1  0
 18 28  2  0
 19 18  1  0
 20 19  2  0
 20 21  1  0
 21 27  2  0
 22 21  1  0
 23 22  1  1
 23 24  1  0
 23 25  1  0
 25 26  1  0
 27 28  1  0
 29 25  2  0
M  END
$$$$
