NLY.pdb
     RDKit          3D

 29 29  0  0  1  0  0  0  0  0999 V2000
    9.1207  -19.7716   19.9007 N   0  0  0  0  0  0  0  0  0  0  0  0
    8.1527  -18.7450   20.2279 C   0  0  0  0  0  0  0  0  0  0  0  0
    7.1742  -18.6119   19.4817 O   0  0  0  0  0  0  0  0  0  0  0  0
    8.4114  -17.9334   21.4335 C   0  0  0  0  0  0  0  0  0  0  0  0
    8.2796  -16.4488   21.1847 C   0  0  2  0  0  0  0  0  0  0  0  0
    9.3570  -16.1452   20.2145 N   0  0  0  0  0  0  0  0  0  0  0  0
    8.6174  -15.6711   22.4319 C   0  0  0  0  0  0  0  0  0  0  0  0
    9.8051  -15.6989   22.9136 O   0  0  0  0  0  0  0  0  0  0  0  0
    5.7349  -11.8489   26.4986 C   0  0  0  0  0  0  0  0  0  0  0  0
    6.9472  -12.5569   25.9945 C   0  0  2  0  0  0  0  0  0  0  0  0
    8.1103  -11.6027   26.0742 C   0  0  0  0  0  0  0  0  0  0  0  0
    6.8294  -13.2816   24.7229 C   0  0  0  0  0  0  0  0  0  0  0  0
    7.8625  -14.2538   24.3213 C   0  0  2  0  0  0  0  0  0  0  0  0
    7.6168  -14.9085   23.0701 N   0  0  0  0  0  0  0  0  0  0  0  0
    8.2865  -15.2141   25.3851 C   0  0  0  0  0  0  0  0  0  0  0  0
    7.5599  -16.1827   25.7321 O   0  0  0  0  0  0  0  0  0  0  0  0
   12.3124  -20.7805   30.7254 O   0  0  0  0  0  0  0  0  0  0  0  0
   11.9960  -19.8475   29.7539 C   0  0  0  0  0  0  0  0  0  0  0  0
   12.7546  -18.7317   29.4835 C   0  0  0  0  0  0  0  0  0  0  0  0
   12.3696  -17.8498   28.4975 C   0  0  0  0  0  0  0  0  0  0  0  0
   11.2094  -18.0431   27.7375 C   0  0  0  0  0  0  0  0  0  0  0  0
   10.7964  -17.0870   26.6917 C   0  0  0  0  0  0  0  0  0  0  0  0
    9.8626  -16.0162   27.1503 C   0  0  2  0  0  0  0  0  0  0  0  0
    9.5295  -15.0918   26.0640 N   0  0  0  0  0  0  0  0  0  0  0  0
   10.4980  -15.2188   28.2183 C   0  0  0  0  0  0  0  0  0  0  0  0
   11.4431  -14.2127   27.9426 O   0  0  0  0  0  0  0  0  0  0  0  0
   10.4853  -19.1725   28.0461 C   0  0  0  0  0  0  0  0  0  0  0  0
   10.8438  -20.0710   29.0238 C   0  0  0  0  0  0  0  0  0  0  0  0
   10.2543  -15.3666   29.4523 O   0  0  0  0  0  0  0  0  0  0  0  0
  1  2  1  0
  2  3  2  0
  4  5  1  0
  4  2  1  0
  5  6  1  6
  7  5  1  0
  7  8  2  0
 10  9  1  6
 11 10  1  0
 12 10  1  0
 13 12  1  1
 13 14  1  0
 14  7  1  0
 15 24  1  0
 15 13  1  0
 16 15  2  0
 18 17  1  0
 18 28  2  0
 19 18  1  0
 20 19  2  0
 20 21  1  0
 21 27  2  0
 22 21  1  0
 23 22  1  6
 23 24  1  0
 23 25  1  0
 25 26  1  0
 27 28  1  0
 29 25  2  0
M  END
$$$$
