PIV.pdb
     RDKit          3D

 23 23  0  0  1  0  0  0  0  0999 V2000
    7.8391  -16.9612   20.9298 N   0  0  0  0  0  0  0  0  0  0  0  0
    7.0415  -16.5165   19.8308 C   0  0  0  0  0  0  0  0  0  0  0  0
    8.0181  -15.9873   18.8128 C   0  0  0  0  0  0  0  0  0  0  0  0
    9.0759  -15.3572   19.7296 C   0  0  0  0  0  0  0  0  0  0  0  0
    9.0522  -16.1686   20.9567 C   0  0  1  0  0  0  0  0  0  0  0  0
    9.2221  -15.4388   22.2226 C   0  0  0  0  0  0  0  0  0  0  0  0
   10.3033  -14.7910   22.3576 O   0  0  0  0  0  0  0  0  0  0  0  0
    5.7637  -12.2969   26.2045 C   0  0  0  0  0  0  0  0  0  0  0  0
    7.0350  -12.9097   25.8242 C   0  0  0  0  0  0  0  0  0  0  0  0
    7.1681  -14.0187   24.8978 C   0  0  2  0  0  0  0  0  0  0  0  0
    6.1753  -15.1605   25.1497 C   0  0  0  0  0  0  0  0  0  0  0  0
    8.4994  -14.5671   24.5038 C   0  0  2  0  0  0  0  0  0  0  0  0
    8.3193  -15.3918   23.2748 N   0  0  0  0  0  0  0  0  0  0  0  0
    9.1415  -15.3623   25.5364 C   0  0  0  0  0  0  0  0  0  0  0  0
    9.0739  -16.6060   25.5297 O   0  0  0  0  0  0  0  0  0  0  0  0
   12.2044  -13.8120   28.2041 C   0  0  0  0  0  0  0  0  0  0  0  0
   11.3091  -14.9291   28.6196 C   0  0  1  0  0  0  0  0  0  0  0  0
   10.2189  -14.3712   29.5088 C   0  0  0  0  0  0  0  0  0  0  0  0
   10.6327  -15.6428   27.4807 C   0  0  2  0  0  0  0  0  0  0  0  0
    9.8895  -14.7750   26.6229 N   0  0  0  0  0  0  0  0  0  0  0  0
    9.6952  -16.6880   28.0328 C   0  0  0  0  0  0  0  0  0  0  0  0
   10.1068  -17.8286   28.3540 O   0  0  0  0  0  0  0  0  0  0  0  0
    8.3440  -16.4135   28.2010 O   0  0  0  0  0  0  0  0  0  0  0  0
  1  5  1  0
  2  3  1  0
  2  1  1  0
  3  4  1  0
  4  5  1  0
  5  6  1  1
  6  7  2  0
  8  9  1  0
  9 10  1  0
 10 12  1  0
 10 11  1  1
 12 14  1  0
 12 13  1  6
 13  6  1  0
 14 15  2  0
 14 20  1  0
 17 19  1  0
 17 16  1  6
 18 17  1  0
 19 21  1  0
 19 20  1  1
 21 22  2  0
 21 23  1  0
M  END
$$$$
