PIV.pdb
     RDKit          3D

 23 23  0  0  1  0  0  0  0  0999 V2000
    6.6615  -14.7092   20.6788 N   0  0  0  0  0  0  0  0  0  0  0  0
    5.9902  -13.6110   20.0581 C   0  0  0  0  0  0  0  0  0  0  0  0
    7.0133  -12.9721   19.1552 C   0  0  0  0  0  0  0  0  0  0  0  0
    8.2874  -13.1506   19.9928 C   0  0  0  0  0  0  0  0  0  0  0  0
    8.0727  -14.3886   20.7584 C   0  0  1  0  0  0  0  0  0  0  0  0
    8.5762  -14.3943   22.1406 C   0  0  0  0  0  0  0  0  0  0  0  0
    9.8199  -14.1979   22.2870 O   0  0  0  0  0  0  0  0  0  0  0  0
    5.6712  -11.9599   25.9784 C   0  0  0  0  0  0  0  0  0  0  0  0
    6.7647  -12.5808   25.2333 C   0  0  0  0  0  0  0  0  0  0  0  0
    7.3430  -13.8740   25.5478 C   0  0  2  0  0  0  0  0  0  0  0  0
    7.7170  -14.0439   27.0257 C   0  0  0  0  0  0  0  0  0  0  0  0
    8.3710  -14.5157   24.6762 C   0  0  2  0  0  0  0  0  0  0  0  0
    7.8260  -14.5925   23.2905 N   0  0  0  0  0  0  0  0  0  0  0  0
    8.7773  -15.8396   25.1157 C   0  0  0  0  0  0  0  0  0  0  0  0
    7.9435  -16.7504   25.2789 O   0  0  0  0  0  0  0  0  0  0  0  0
   12.1612  -19.3922   25.5681 C   0  0  0  0  0  0  0  0  0  0  0  0
   11.7791  -18.0091   25.1645 C   0  0  1  0  0  0  0  0  0  0  0  0
   11.6795  -17.9548   23.6553 C   0  0  0  0  0  0  0  0  0  0  0  0
   10.4592  -17.5411   25.7147 C   0  0  2  0  0  0  0  0  0  0  0  0
   10.1526  -16.1843   25.3888 N   0  0  0  0  0  0  0  0  0  0  0  0
   10.4658  -17.6827   27.2168 C   0  0  0  0  0  0  0  0  0  0  0  0
   10.7443  -16.7127   27.9618 O   0  0  0  0  0  0  0  0  0  0  0  0
   10.1622  -18.8976   27.8179 O   0  0  0  0  0  0  0  0  0  0  0  0
  1  5  1  0
  2  3  1  0
  2  1  1  0
  3  4  1  0
  4  5  1  0
  5  6  1  1
  6  7  2  0
  8  9  1  0
  9 10  1  0
 10 12  1  0
 10 11  1  1
 12 14  1  0
 12 13  1  6
 13  6  1  0
 14 15  2  0
 14 20  1  0
 17 19  1  0
 17 16  1  6
 18 17  1  0
 19 21  1  0
 19 20  1  1
 21 22  2  0
 21 23  1  0
M  END
$$$$
