PIV.pdb
     RDKit          3D

 23 23  0  0  1  0  0  0  0  0999 V2000
    7.8862  -14.6943   20.0138 N   0  0  0  0  0  0  0  0  0  0  0  0
    7.9610  -15.8445   19.1693 C   0  0  0  0  0  0  0  0  0  0  0  0
    6.7026  -16.6269   19.4424 C   0  0  0  0  0  0  0  0  0  0  0  0
    6.5295  -16.3770   20.9471 C   0  0  0  0  0  0  0  0  0  0  0  0
    7.1036  -15.0430   21.1829 C   0  0  1  0  0  0  0  0  0  0  0  0
    7.8533  -14.8696   22.4367 C   0  0  0  0  0  0  0  0  0  0  0  0
    9.1111  -15.0099   22.3639 O   0  0  0  0  0  0  0  0  0  0  0  0
    5.7721  -11.4674   26.1805 C   0  0  0  0  0  0  0  0  0  0  0  0
    6.7565  -12.2271   25.4124 C   0  0  0  0  0  0  0  0  0  0  0  0
    7.3414  -13.4839   25.8415 C   0  0  2  0  0  0  0  0  0  0  0  0
    8.0238  -13.4146   27.2136 C   0  0  0  0  0  0  0  0  0  0  0  0
    8.1287  -14.3493   24.9144 C   0  0  2  0  0  0  0  0  0  0  0  0
    7.3198  -14.5697   23.6816 N   0  0  0  0  0  0  0  0  0  0  0  0
    8.5129  -15.6302   25.4825 C   0  0  0  0  0  0  0  0  0  0  0  0
    7.6568  -16.4494   25.8667 O   0  0  0  0  0  0  0  0  0  0  0  0
   11.1313  -18.0449   23.7912 C   0  0  0  0  0  0  0  0  0  0  0  0
   11.3099  -18.0030   25.2705 C   0  0  1  0  0  0  0  0  0  0  0  0
   12.5433  -17.1849   25.5868 C   0  0  0  0  0  0  0  0  0  0  0  0
   10.1612  -17.3842   26.0201 C   0  0  2  0  0  0  0  0  0  0  0  0
    9.8903  -16.0344   25.6381 N   0  0  0  0  0  0  0  0  0  0  0  0
   10.4569  -17.4129   27.4992 C   0  0  0  0  0  0  0  0  0  0  0  0
   10.6870  -16.3586   28.1387 O   0  0  0  0  0  0  0  0  0  0  0  0
   10.4823  -18.6142   28.1961 O   0  0  0  0  0  0  0  0  0  0  0  0
  1  5  1  0
  2  3  1  0
  2  1  1  0
  3  4  1  0
  4  5  1  0
  5  6  1  1
  6  7  2  0
  8  9  1  0
  9 10  1  0
 10 12  1  0
 10 11  1  1
 12 14  1  0
 12 13  1  6
 13  6  1  0
 14 15  2  0
 14 20  1  0
 17 19  1  0
 17 16  1  6
 18 17  1  0
 19 21  1  0
 19 20  1  6
 21 22  2  0
 21 23  1  0
M  END
$$$$
