PIV.pdb
     RDKit          3D

 23 23  0  0  1  0  0  0  0  0999 V2000
    6.8895  -15.6042   21.2947 N   0  0  0  0  0  0  0  0  0  0  0  0
    6.1431  -14.6805   20.5001 C   0  0  0  0  0  0  0  0  0  0  0  0
    7.1201  -14.1376   19.4897 C   0  0  0  0  0  0  0  0  0  0  0  0
    8.4019  -14.0779   20.3323 C   0  0  0  0  0  0  0  0  0  0  0  0
    8.2742  -15.1762   21.3030 C   0  0  1  0  0  0  0  0  0  0  0  0
    8.7739  -14.9064   22.6601 C   0  0  0  0  0  0  0  0  0  0  0  0
    9.9942  -14.5764   22.7547 O   0  0  0  0  0  0  0  0  0  0  0  0
    5.8216  -11.9703   25.8809 C   0  0  0  0  0  0  0  0  0  0  0  0
    6.9316  -12.7128   25.2868 C   0  0  0  0  0  0  0  0  0  0  0  0
    7.6038  -13.8322   25.9200 C   0  0  2  0  0  0  0  0  0  0  0  0
    8.1026  -13.5342   27.3397 C   0  0  0  0  0  0  0  0  0  0  0  0
    8.5934  -14.6785   25.1901 C   0  0  2  0  0  0  0  0  0  0  0  0
    8.0433  -14.9781   23.8371 N   0  0  0  0  0  0  0  0  0  0  0  0
    8.9258  -15.9196   25.8684 C   0  0  0  0  0  0  0  0  0  0  0  0
    8.0369  -16.6871   26.2835 O   0  0  0  0  0  0  0  0  0  0  0  0
   11.6445  -18.5683   24.6594 C   0  0  0  0  0  0  0  0  0  0  0  0
   11.6950  -18.3515   26.1333 C   0  0  1  0  0  0  0  0  0  0  0  0
   12.9218  -17.5276   26.4601 C   0  0  0  0  0  0  0  0  0  0  0  0
   10.5059  -17.6221   26.6974 C   0  0  2  0  0  0  0  0  0  0  0  0
   10.2865  -16.3412   26.1038 N   0  0  0  0  0  0  0  0  0  0  0  0
   10.6932  -17.4356   28.1828 C   0  0  0  0  0  0  0  0  0  0  0  0
   10.8951  -16.3005   28.6769 O   0  0  0  0  0  0  0  0  0  0  0  0
   10.6467  -18.5218   29.0473 O   0  0  0  0  0  0  0  0  0  0  0  0
  1  5  1  0
  2  3  1  0
  2  1  1  0
  3  4  1  0
  4  5  1  0
  5  6  1  1
  6  7  2  0
  8  9  1  0
  9 10  1  0
 10 12  1  0
 10 11  1  1
 12 14  1  0
 12 13  1  6
 13  6  1  0
 14 15  2  0
 14 20  1  0
 17 19  1  0
 17 16  1  6
 18 17  1  0
 19 21  1  0
 19 20  1  6
 21 22  2  0
 21 23  1  0
M  END
$$$$
