PIV.pdb
     RDKit          3D

 23 23  0  0  1  0  0  0  0  0999 V2000
    7.7261  -14.5832   19.9460 N   0  0  0  0  0  0  0  0  0  0  0  0
    7.7996  -15.7473   19.1206 C   0  0  0  0  0  0  0  0  0  0  0  0
    6.5673  -16.5505   19.4467 C   0  0  0  0  0  0  0  0  0  0  0  0
    6.4349  -16.2761   20.9512 C   0  0  0  0  0  0  0  0  0  0  0  0
    6.9873  -14.9262   21.1449 C   0  0  1  0  0  0  0  0  0  0  0  0
    7.7711  -14.7137   22.3715 C   0  0  0  0  0  0  0  0  0  0  0  0
    9.0309  -14.7908   22.2543 O   0  0  0  0  0  0  0  0  0  0  0  0
    5.8637  -11.3757   26.2941 C   0  0  0  0  0  0  0  0  0  0  0  0
    6.7778  -12.1501   25.4567 C   0  0  0  0  0  0  0  0  0  0  0  0
    7.3491  -13.4306   25.8302 C   0  0  2  0  0  0  0  0  0  0  0  0
    8.0589  -13.4207   27.1901 C   0  0  0  0  0  0  0  0  0  0  0  0
    8.1034  -14.2759   24.8582 C   0  0  2  0  0  0  0  0  0  0  0  0
    7.2674  -14.4393   23.6346 N   0  0  0  0  0  0  0  0  0  0  0  0
    8.4761  -15.5822   25.3737 C   0  0  0  0  0  0  0  0  0  0  0  0
    7.6134  -16.4004   25.7449 O   0  0  0  0  0  0  0  0  0  0  0  0
   10.8957  -18.0561   23.5526 C   0  0  0  0  0  0  0  0  0  0  0  0
   11.1796  -18.0218   25.0154 C   0  0  1  0  0  0  0  0  0  0  0  0
   12.4536  -17.2372   25.2435 C   0  0  0  0  0  0  0  0  0  0  0  0
   10.1038  -17.3742   25.8445 C   0  0  2  0  0  0  0  0  0  0  0  0
    9.8490  -16.0140   25.4891 N   0  0  0  0  0  0  0  0  0  0  0  0
   10.4978  -17.4228   27.3000 C   0  0  0  0  0  0  0  0  0  0  0  0
   10.5750  -18.5114   27.9185 O   0  0  0  0  0  0  0  0  0  0  0  0
   10.7871  -16.2570   27.9977 O   0  0  0  0  0  0  0  0  0  0  0  0
  1  5  1  0
  2  3  1  0
  2  1  1  0
  3  4  1  0
  4  5  1  0
  5  6  1  1
  6  7  2  0
  8  9  1  0
  9 10  1  0
 10 12  1  0
 10 11  1  1
 12 14  1  0
 12 13  1  6
 13  6  1  0
 14 15  2  0
 14 20  1  0
 17 19  1  0
 17 16  1  6
 18 17  1  0
 19 21  1  0
 19 20  1  6
 21 22  2  0
 21 23  1  0
M  END
$$$$
