PIV.pdb
     RDKit          3D

 23 23  0  0  1  0  0  0  0  0999 V2000
    7.8292  -14.9306   20.0949 N   0  0  0  0  0  0  0  0  0  0  0  0
    8.0119  -16.0975   19.2907 C   0  0  0  0  0  0  0  0  0  0  0  0
    6.8660  -17.0111   19.6408 C   0  0  0  0  0  0  0  0  0  0  0  0
    6.7158  -16.7220   21.1410 C   0  0  0  0  0  0  0  0  0  0  0  0
    7.1343  -15.3210   21.3054 C   0  0  1  0  0  0  0  0  0  0  0  0
    7.9003  -15.0094   22.5220 C   0  0  0  0  0  0  0  0  0  0  0  0
    9.1622  -14.9913   22.4029 O   0  0  0  0  0  0  0  0  0  0  0  0
    5.9076  -11.5163   26.2193 C   0  0  0  0  0  0  0  0  0  0  0  0
    6.8318  -12.3356   25.4377 C   0  0  0  0  0  0  0  0  0  0  0  0
    7.4204  -13.5788   25.9001 C   0  0  2  0  0  0  0  0  0  0  0  0
    8.1144  -13.4676   27.2636 C   0  0  0  0  0  0  0  0  0  0  0  0
    8.1999  -14.4723   24.9934 C   0  0  2  0  0  0  0  0  0  0  0  0
    7.3780  -14.7355   23.7776 N   0  0  0  0  0  0  0  0  0  0  0  0
    8.5941  -15.7327   25.5991 C   0  0  0  0  0  0  0  0  0  0  0  0
    7.7453  -16.5350   26.0318 O   0  0  0  0  0  0  0  0  0  0  0  0
   11.2782  -18.1546   23.9612 C   0  0  0  0  0  0  0  0  0  0  0  0
   11.4189  -18.0972   25.4440 C   0  0  1  0  0  0  0  0  0  0  0  0
   12.6428  -17.2741   25.7831 C   0  0  0  0  0  0  0  0  0  0  0  0
   10.2507  -17.4724   26.1576 C   0  0  2  0  0  0  0  0  0  0  0  0
    9.9739  -16.1348   25.7387 N   0  0  0  0  0  0  0  0  0  0  0  0
   10.5194  -17.4631   27.6421 C   0  0  0  0  0  0  0  0  0  0  0  0
   10.7096  -16.3902   28.2635 O   0  0  0  0  0  0  0  0  0  0  0  0
   10.5634  -18.6489   28.3642 O   0  0  0  0  0  0  0  0  0  0  0  0
  1  5  1  0
  2  3  1  0
  2  1  1  0
  3  4  1  0
  4  5  1  0
  5  6  1  1
  6  7  2  0
  8  9  1  0
  9 10  1  0
 10 12  1  0
 10 11  1  1
 12 14  1  0
 12 13  1  6
 13  6  1  0
 14 15  2  0
 14 20  1  0
 17 19  1  0
 17 16  1  6
 18 17  1  0
 19 21  1  0
 19 20  1  6
 21 22  2  0
 21 23  1  0
M  END
$$$$
