PIV.pdb
     RDKit          3D

 23 23  0  0  1  0  0  0  0  0999 V2000
    6.7688  -14.8816   20.4735 N   0  0  0  0  0  0  0  0  0  0  0  0
    6.0615  -13.8207   19.8284 C   0  0  0  0  0  0  0  0  0  0  0  0
    7.0629  -13.1693   18.9102 C   0  0  0  0  0  0  0  0  0  0  0  0
    8.3423  -13.2864   19.7504 C   0  0  0  0  0  0  0  0  0  0  0  0
    8.1687  -14.5129   20.5444 C   0  0  1  0  0  0  0  0  0  0  0  0
    8.6723  -14.4703   21.9260 C   0  0  0  0  0  0  0  0  0  0  0  0
    9.9317  -14.4314   22.0645 O   0  0  0  0  0  0  0  0  0  0  0  0
    6.8956  -12.0289   27.3041 C   0  0  0  0  0  0  0  0  0  0  0  0
    7.7198  -12.9958   26.5814 C   0  0  0  0  0  0  0  0  0  0  0  0
    7.4554  -13.4533   25.2299 C   0  0  2  0  0  0  0  0  0  0  0  0
    6.0459  -14.0258   25.0330 C   0  0  0  0  0  0  0  0  0  0  0  0
    8.4511  -14.2494   24.4534 C   0  0  2  0  0  0  0  0  0  0  0  0
    7.9068  -14.4687   23.0828 N   0  0  0  0  0  0  0  0  0  0  0  0
    8.7871  -15.5279   25.0563 C   0  0  0  0  0  0  0  0  0  0  0  0
    7.9509  -16.4482   25.1276 O   0  0  0  0  0  0  0  0  0  0  0  0
   12.1440  -18.9784   25.9775 C   0  0  0  0  0  0  0  0  0  0  0  0
   11.7876  -17.5886   25.5735 C   0  0  1  0  0  0  0  0  0  0  0  0
   11.8873  -17.4813   24.0671 C   0  0  0  0  0  0  0  0  0  0  0  0
   10.3963  -17.1645   25.9588 C   0  0  2  0  0  0  0  0  0  0  0  0
   10.0916  -15.8142   25.6050 N   0  0  0  0  0  0  0  0  0  0  0  0
   10.2218  -17.3198   27.4493 C   0  0  0  0  0  0  0  0  0  0  0  0
   10.3697  -16.3474   28.2278 O   0  0  0  0  0  0  0  0  0  0  0  0
    9.8908  -18.5504   28.0021 O   0  0  0  0  0  0  0  0  0  0  0  0
  1  5  1  0
  2  3  1  0
  2  1  1  0
  3  4  1  0
  4  5  1  0
  5  6  1  1
  6  7  2  0
  8  9  1  0
  9 10  1  0
 10 12  1  0
 10 11  1  1
 12 14  1  0
 12 13  1  6
 13  6  1  0
 14 15  2  0
 14 20  1  0
 17 19  1  0
 17 16  1  6
 18 17  1  0
 19 21  1  0
 19 20  1  1
 21 22  2  0
 21 23  1  0
M  END
$$$$
