PIV.pdb
     RDKit          3D

 23 23  0  0  1  0  0  0  0  0999 V2000
    7.8890  -14.6996   19.9680 N   0  0  0  0  0  0  0  0  0  0  0  0
    8.0507  -15.8529   19.1400 C   0  0  0  0  0  0  0  0  0  0  0  0
    6.8644  -16.7324   19.4386 C   0  0  0  0  0  0  0  0  0  0  0  0
    6.6858  -16.4739   20.9412 C   0  0  0  0  0  0  0  0  0  0  0  0
    7.1495  -15.0934   21.1507 C   0  0  1  0  0  0  0  0  0  0  0  0
    7.8944  -14.8387   22.3934 C   0  0  0  0  0  0  0  0  0  0  0  0
    9.1585  -14.8279   22.2992 O   0  0  0  0  0  0  0  0  0  0  0  0
    5.8364  -11.5059   26.2225 C   0  0  0  0  0  0  0  0  0  0  0  0
    6.7481  -12.3014   25.4026 C   0  0  0  0  0  0  0  0  0  0  0  0
    7.3514  -13.5526   25.8225 C   0  0  2  0  0  0  0  0  0  0  0  0
    8.0336  -13.4830   27.1946 C   0  0  0  0  0  0  0  0  0  0  0  0
    8.1506  -14.4000   24.8889 C   0  0  2  0  0  0  0  0  0  0  0  0
    7.3501  -14.6111   23.6489 N   0  0  0  0  0  0  0  0  0  0  0  0
    8.5417  -15.6849   25.4429 C   0  0  0  0  0  0  0  0  0  0  0  0
    7.6901  -16.5151   25.8130 O   0  0  0  0  0  0  0  0  0  0  0  0
   11.1384  -18.1240   23.7669 C   0  0  0  0  0  0  0  0  0  0  0  0
   11.3400  -18.0519   25.2421 C   0  0  1  0  0  0  0  0  0  0  0  0
   12.5735  -17.2211   25.5226 C   0  0  0  0  0  0  0  0  0  0  0  0
   10.1997  -17.4245   25.9973 C   0  0  2  0  0  0  0  0  0  0  0  0
    9.9214  -16.0807   25.5999 N   0  0  0  0  0  0  0  0  0  0  0  0
   10.5141  -17.4319   27.4729 C   0  0  0  0  0  0  0  0  0  0  0  0
   10.7076  -16.3649   28.1035 O   0  0  0  0  0  0  0  0  0  0  0  0
   10.5981  -18.6268   28.1761 O   0  0  0  0  0  0  0  0  0  0  0  0
  1  5  1  0
  2  3  1  0
  2  1  1  0
  3  4  1  0
  4  5  1  0
  5  6  1  1
  6  7  2  0
  8  9  1  0
  9 10  1  0
 10 12  1  0
 10 11  1  1
 12 14  1  0
 12 13  1  6
 13  6  1  0
 14 15  2  0
 14 20  1  0
 17 19  1  0
 17 16  1  6
 18 17  1  0
 19 21  1  0
 19 20  1  6
 21 22  2  0
 21 23  1  0
M  END
$$$$
