PIV.pdb
     RDKit          3D

 23 23  0  0  1  0  0  0  0  0999 V2000
    7.6696  -14.7461   19.8908 N   0  0  0  0  0  0  0  0  0  0  0  0
    7.7664  -15.9206   19.0827 C   0  0  0  0  0  0  0  0  0  0  0  0
    6.5575  -16.7497   19.4312 C   0  0  0  0  0  0  0  0  0  0  0  0
    6.4300  -16.4554   20.9324 C   0  0  0  0  0  0  0  0  0  0  0  0
    6.9492  -15.0891   21.1008 C   0  0  1  0  0  0  0  0  0  0  0  0
    7.7369  -14.8378   22.3176 C   0  0  0  0  0  0  0  0  0  0  0  0
    8.9975  -14.8644   22.1869 O   0  0  0  0  0  0  0  0  0  0  0  0
    5.7527  -11.4904   26.2812 C   0  0  0  0  0  0  0  0  0  0  0  0
    6.6640  -12.2367   25.4157 C   0  0  0  0  0  0  0  0  0  0  0  0
    7.2586  -13.5157   25.7569 C   0  0  2  0  0  0  0  0  0  0  0  0
    7.9107  -13.5465   27.1450 C   0  0  0  0  0  0  0  0  0  0  0  0
    8.0783  -14.2941   24.7820 C   0  0  2  0  0  0  0  0  0  0  0  0
    7.2362  -14.5764   23.5845 N   0  0  0  0  0  0  0  0  0  0  0  0
    8.6061  -15.5392   25.3130 C   0  0  0  0  0  0  0  0  0  0  0  0
    7.8488  -16.4554   25.6851 O   0  0  0  0  0  0  0  0  0  0  0  0
   12.2762  -18.8397   25.3590 C   0  0  0  0  0  0  0  0  0  0  0  0
   11.7760  -17.4681   25.0583 C   0  0  1  0  0  0  0  0  0  0  0  0
   11.6137  -17.3291   23.5600 C   0  0  0  0  0  0  0  0  0  0  0  0
   10.4472  -17.1381   25.6824 C   0  0  2  0  0  0  0  0  0  0  0  0
   10.0211  -15.7955   25.4436 N   0  0  0  0  0  0  0  0  0  0  0  0
   10.5276  -17.3568   27.1730 C   0  0  0  0  0  0  0  0  0  0  0  0
   10.7880  -16.4130   27.9572 O   0  0  0  0  0  0  0  0  0  0  0  0
   10.3141  -18.6158   27.7196 O   0  0  0  0  0  0  0  0  0  0  0  0
  1  5  1  0
  2  3  1  0
  2  1  1  0
  3  4  1  0
  4  5  1  0
  5  6  1  1
  6  7  2  0
  8  9  1  0
  9 10  1  0
 10 12  1  0
 10 11  1  1
 12 14  1  0
 12 13  1  6
 13  6  1  0
 14 15  2  0
 14 20  1  0
 17 19  1  0
 17 16  1  6
 18 17  1  0
 19 21  1  0
 19 20  1  1
 21 22  2  0
 21 23  1  0
M  END
$$$$
