RIQ.pdb
     RDKit          3D

 29 28  0  0  1  0  0  0  0  0999 V2000
    7.8208  -13.0959   18.2668 N   0  0  0  0  0  0  0  0  0  0  0  0
    8.5310  -13.9425   17.3904 C   0  0  0  0  0  0  0  0  0  0  0  0
    9.3714  -13.4465   16.5648 N   0  0  0  0  0  0  0  0  0  0  0  0
    8.3306  -15.3634   17.4033 N   0  0  0  0  0  0  0  0  0  0  0  0
    7.4540  -16.0099   18.3673 C   0  0  0  0  0  0  0  0  0  0  0  0
    8.1017  -15.8886   19.7144 C   0  0  0  0  0  0  0  0  0  0  0  0
    7.4412  -16.7270   20.7741 C   0  0  0  0  0  0  0  0  0  0  0  0
    6.7183  -15.7472   21.7083 C   0  0  2  0  0  0  0  0  0  0  0  0
    6.3158  -14.6321   20.8860 N   0  0  0  0  0  0  0  0  0  0  0  0
    7.5827  -15.3441   22.8336 C   0  0  0  0  0  0  0  0  0  0  0  0
    8.8267  -15.4213   22.6651 O   0  0  0  0  0  0  0  0  0  0  0  0
    9.9362  -13.9991   15.8930 C   0  0  0  0  0  0  0  0  0  0  0  0
    5.6785  -11.6936   26.4784 C   0  0  0  0  0  0  0  0  0  0  0  0
    6.6870  -12.2901   25.5073 C   0  0  2  0  0  0  0  0  0  0  0  0
    7.2112  -13.5540   26.1429 C   0  0  0  0  0  0  0  0  0  0  0  0
    8.1190  -13.1556   27.2872 C   0  0  2  0  0  0  0  0  0  0  0  0
    7.9447  -14.4303   25.1566 N   0  0  0  0  0  0  0  0  0  0  0  0
    7.1153  -14.8793   24.0823 C   0  0  0  0  0  0  0  0  0  0  0  0
    8.3876  -15.6455   25.9239 O   0  0  0  0  0  0  0  0  0  0  0  0
    7.5534  -16.4497   26.4319 N   0  0  0  0  0  0  0  0  0  0  0  0
   13.5060  -20.8505   25.6911 C   0  0  0  0  0  0  0  0  0  0  0  0
   12.9459  -19.5912   25.4140 O   0  0  0  0  0  0  0  0  0  0  0  0
   13.4254  -18.8759   24.4857 C   0  0  0  0  0  0  0  0  0  0  0  0
   11.7923  -19.1130   26.2178 C   0  0  0  0  0  0  0  0  0  0  0  0
   11.3840  -17.7284   25.7314 C   0  0  2  0  0  0  0  0  0  0  0  0
   10.1895  -17.2243   26.5486 N   0  0  0  0  0  0  0  0  0  0  0  0
    9.7562  -15.9364   26.1073 C   0  0  0  0  0  0  0  0  0  0  0  0
   10.5513  -17.2186   27.9865 O   0  0  0  0  0  0  0  0  0  0  0  0
   10.6593  -18.3118   28.5933 O   0  0  0  0  0  0  0  0  0  0  0  0
  2  3  2  0
  2  1  1  0
  4  2  1  0
  5  4  1  0
  5  6  1  0
  7  6  1  0
  8  7  1  0
  8  9  1  6
 10 11  2  0
 10  8  1  0
 12 13  1  0
 13 14  1  0
 14 16  1  0
 14 15  1  6
 16 18  1  0
 16 17  1  6
 17 10  1  0
 18 26  1  0
 19 18  2  0
 20 21  1  0
 21 22  2  0
 21 23  1  0
 23 24  1  0
 25 24  1  6
 25 27  1  0
 26 25  1  0
 27 28  2  0
 27 29  1  0
M  END
$$$$
