RIQ.pdb
     RDKit          3D

 29 28  0  0  1  0  0  0  0  0999 V2000
    7.2599  -12.9957   17.6464 N   0  0  0  0  0  0  0  0  0  0  0  0
    8.1986  -13.8700   17.0601 C   0  0  0  0  0  0  0  0  0  0  0  0
    9.2840  -13.4058   16.5698 N   0  0  0  0  0  0  0  0  0  0  0  0
    7.9618  -15.2840   16.9999 N   0  0  0  0  0  0  0  0  0  0  0  0
    8.3063  -16.1712   18.0999 C   0  0  0  0  0  0  0  0  0  0  0  0
    7.5710  -15.6871   19.3139 C   0  0  0  0  0  0  0  0  0  0  0  0
    8.4657  -15.4419   20.4977 C   0  0  0  0  0  0  0  0  0  0  0  0
    7.6701  -15.8790   21.7351 C   0  0  2  0  0  0  0  0  0  0  0  0
    6.3436  -15.3357   21.5714 N   0  0  0  0  0  0  0  0  0  0  0  0
    8.3228  -15.4268   22.9783 C   0  0  0  0  0  0  0  0  0  0  0  0
    9.5774  -15.4979   23.0328 O   0  0  0  0  0  0  0  0  0  0  0  0
    9.9777  -13.9634   16.0373 C   0  0  0  0  0  0  0  0  0  0  0  0
    5.8639  -11.6401   25.9378 C   0  0  0  0  0  0  0  0  0  0  0  0
    7.0656  -12.2876   25.2649 C   0  0  2  0  0  0  0  0  0  0  0  0
    7.4310  -13.4959   26.0913 C   0  0  0  0  0  0  0  0  0  0  0  0
    8.1711  -13.0110   27.3199 C   0  0  2  0  0  0  0  0  0  0  0  0
    8.2665  -14.4877   25.3186 N   0  0  0  0  0  0  0  0  0  0  0  0
    7.6427  -14.9215   24.1077 C   0  0  0  0  0  0  0  0  0  0  0  0
    8.4158  -15.6921   26.2068 O   0  0  0  0  0  0  0  0  0  0  0  0
    7.5375  -16.6021   26.2436 N   0  0  0  0  0  0  0  0  0  0  0  0
   11.9703  -20.6820   24.6490 C   0  0  0  0  0  0  0  0  0  0  0  0
   12.3344  -19.4818   25.2841 O   0  0  0  0  0  0  0  0  0  0  0  0
   13.3297  -18.8208   24.8648 C   0  0  0  0  0  0  0  0  0  0  0  0
   11.5428  -19.0015   26.4453 C   0  0  0  0  0  0  0  0  0  0  0  0
   10.9200  -17.6543   26.1024 C   0  0  1  0  0  0  0  0  0  0  0  0
   10.1002  -17.1452   27.2932 N   0  0  0  0  0  0  0  0  0  0  0  0
    9.5458  -15.8539   27.0364 C   0  0  0  0  0  0  0  0  0  0  0  0
   10.9528  -17.1451   28.5063 O   0  0  0  0  0  0  0  0  0  0  0  0
   11.4211  -16.0581   28.9234 O   0  0  0  0  0  0  0  0  0  0  0  0
  2  3  2  0
  2  1  1  0
  4  2  1  0
  5  4  1  0
  5  6  1  0
  7  6  1  0
  8  7  1  0
  8  9  1  6
 10 11  2  0
 10  8  1  0
 12 13  1  0
 13 14  1  0
 14 16  1  0
 14 15  1  6
 16 18  1  0
 16 17  1  6
 17 10  1  0
 18 26  1  0
 19 18  2  0
 20 21  1  0
 21 22  2  0
 21 23  1  0
 23 24  1  0
 25 24  1  6
 25 27  1  0
 26 25  1  0
 27 28  2  0
 27 29  1  0
M  END
$$$$
