RIQ.pdb
     RDKit          3D

 29 28  0  0  1  0  0  0  0  0999 V2000
    6.5277  -16.0666   15.8376 N   0  0  0  0  0  0  0  0  0  0  0  0
    7.1817  -14.8169   15.8377 C   0  0  0  0  0  0  0  0  0  0  0  0
    7.1233  -14.0657   14.8053 N   0  0  0  0  0  0  0  0  0  0  0  0
    7.9194  -14.3635   16.9820 N   0  0  0  0  0  0  0  0  0  0  0  0
    8.5214  -15.2899   17.9282 C   0  0  0  0  0  0  0  0  0  0  0  0
    7.6017  -15.3859   19.1088 C   0  0  0  0  0  0  0  0  0  0  0  0
    8.3077  -15.2529   20.4301 C   0  0  0  0  0  0  0  0  0  0  0  0
    7.9262  -13.8735   20.9840 C   0  0  2  0  0  0  0  0  0  0  0  0
    8.4108  -12.9089   20.0268 N   0  0  0  0  0  0  0  0  0  0  0  0
    8.4822  -13.6665   22.3346 C   0  0  0  0  0  0  0  0  0  0  0  0
    9.5772  -13.0540   22.4226 O   0  0  0  0  0  0  0  0  0  0  0  0
    7.6408  -13.1738   14.6935 C   0  0  0  0  0  0  0  0  0  0  0  0
    6.5328  -11.9389   27.6908 C   0  0  0  0  0  0  0  0  0  0  0  0
    7.6495  -12.7607   27.0635 C   0  0  2  0  0  0  0  0  0  0  0  0
    7.1872  -13.1414   25.6786 C   0  0  0  0  0  0  0  0  0  0  0  0
    6.0369  -14.1150   25.8250 C   0  0  2  0  0  0  0  0  0  0  0  0
    8.2959  -13.7422   24.8489 N   0  0  0  0  0  0  0  0  0  0  0  0
    7.8755  -14.1051   23.5317 C   0  0  0  0  0  0  0  0  0  0  0  0
    8.7112  -15.0038   25.5545 O   0  0  0  0  0  0  0  0  0  0  0  0
    9.1301  -14.9889   26.7482 N   0  0  0  0  0  0  0  0  0  0  0  0
   11.8816  -17.7680   21.3216 C   0  0  0  0  0  0  0  0  0  0  0  0
   11.6984  -18.3564   22.5852 O   0  0  0  0  0  0  0  0  0  0  0  0
   12.6302  -19.0359   23.1078 C   0  0  0  0  0  0  0  0  0  0  0  0
   10.4070  -18.1724   23.2953 C   0  0  0  0  0  0  0  0  0  0  0  0
   10.6770  -17.6142   24.6866 C   0  0  2  0  0  0  0  0  0  0  0  0
    9.3504  -17.3918   25.4214 N   0  0  0  0  0  0  0  0  0  0  0  0
    8.6493  -16.2573   24.9094 C   0  0  0  0  0  0  0  0  0  0  0  0
    9.6147  -17.2637   26.8747 O   0  0  0  0  0  0  0  0  0  0  0  0
    9.8520  -16.1286   27.3545 O   0  0  0  0  0  0  0  0  0  0  0  0
  2  3  2  0
  2  1  1  0
  4  2  1  0
  5  4  1  0
  5  6  1  0
  7  6  1  0
  8  7  1  0
  8  9  1  6
 10 11  2  0
 10  8  1  0
 12 13  1  0
 13 14  1  0
 14 16  1  0
 14 15  1  6
 16 18  1  0
 16 17  1  1
 17 10  1  0
 18 26  1  0
 19 18  2  0
 20 21  1  0
 21 22  2  0
 21 23  1  0
 23 24  1  0
 25 24  1  6
 25 27  1  0
 26 25  1  0
 27 28  2  0
 27 29  1  0
M  END
$$$$
