RIQ.pdb
     RDKit          3D

 29 28  0  0  1  0  0  0  0  0999 V2000
   10.3070  -14.1259   18.7186 N   0  0  0  0  0  0  0  0  0  0  0  0
    9.3229  -14.3489   17.7331 C   0  0  0  0  0  0  0  0  0  0  0  0
    9.1794  -13.5160   16.7742 N   0  0  0  0  0  0  0  0  0  0  0  0
    8.4693  -15.5013   17.7816 N   0  0  0  0  0  0  0  0  0  0  0  0
    8.5009  -16.4383   18.8937 C   0  0  0  0  0  0  0  0  0  0  0  0
    7.7010  -15.8364   20.0102 C   0  0  0  0  0  0  0  0  0  0  0  0
    7.5527  -16.7462   21.1986 C   0  0  0  0  0  0  0  0  0  0  0  0
    6.7063  -15.9794   22.2236 C   0  0  2  0  0  0  0  0  0  0  0  0
    5.8872  -15.0660   21.4642 N   0  0  0  0  0  0  0  0  0  0  0  0
    7.5569  -15.2942   23.2150 C   0  0  0  0  0  0  0  0  0  0  0  0
    8.6401  -14.8019   22.8072 O   0  0  0  0  0  0  0  0  0  0  0  0
    8.4660  -13.5941   16.0255 C   0  0  0  0  0  0  0  0  0  0  0  0
    5.6037  -11.7549   26.4831 C   0  0  0  0  0  0  0  0  0  0  0  0
    6.6515  -12.4108   25.5954 C   0  0  2  0  0  0  0  0  0  0  0  0
    7.2848  -13.5132   26.4078 C   0  0  0  0  0  0  0  0  0  0  0  0
    8.1866  -12.8693   27.4397 C   0  0  2  0  0  0  0  0  0  0  0  0
    8.0591  -14.4849   25.5506 N   0  0  0  0  0  0  0  0  0  0  0  0
    7.2436  -15.1518   24.5843 C   0  0  0  0  0  0  0  0  0  0  0  0
    8.5988  -15.5315   26.4861 O   0  0  0  0  0  0  0  0  0  0  0  0
    7.8316  -16.2590   27.1811 N   0  0  0  0  0  0  0  0  0  0  0  0
   14.0213  -17.2761   25.3138 C   0  0  0  0  0  0  0  0  0  0  0  0
   12.8622  -17.6249   24.5986 O   0  0  0  0  0  0  0  0  0  0  0  0
   12.9350  -17.8776   23.3601 C   0  0  0  0  0  0  0  0  0  0  0  0
   11.5597  -17.6931   25.3088 C   0  0  0  0  0  0  0  0  0  0  0  0
   11.7813  -17.4033   26.7878 C   0  0  2  0  0  0  0  0  0  0  0  0
   10.4994  -16.8283   27.4001 N   0  0  0  0  0  0  0  0  0  0  0  0
    9.9870  -15.7431   26.6250 C   0  0  0  0  0  0  0  0  0  0  0  0
   10.7684  -16.4232   28.8009 O   0  0  0  0  0  0  0  0  0  0  0  0
   11.1815  -17.2829   29.6165 O   0  0  0  0  0  0  0  0  0  0  0  0
  2  3  2  0
  2  1  1  0
  4  2  1  0
  5  4  1  0
  5  6  1  0
  7  6  1  0
  8  7  1  0
  8  9  1  6
 10 11  2  0
 10  8  1  0
 12 13  1  0
 13 14  1  0
 14 16  1  0
 14 15  1  1
 16 18  1  0
 16 17  1  6
 17 10  1  0
 18 26  1  0
 19 18  2  0
 20 21  1  0
 21 22  2  0
 21 23  1  0
 23 24  1  0
 25 24  1  6
 25 27  1  0
 26 25  1  0
 27 28  2  0
 27 29  1  0
M  END
$$$$
