RIQ.pdb
     RDKit          3D

 29 28  0  0  1  0  0  0  0  0999 V2000
    8.5903  -15.3929   15.8592 N   0  0  0  0  0  0  0  0  0  0  0  0
    8.3052  -14.2468   16.6303 C   0  0  0  0  0  0  0  0  0  0  0  0
    9.0775  -13.2299   16.5722 N   0  0  0  0  0  0  0  0  0  0  0  0
    7.1562  -14.1943   17.4882 N   0  0  0  0  0  0  0  0  0  0  0  0
    7.1094  -14.9006   18.7590 C   0  0  0  0  0  0  0  0  0  0  0  0
    8.3803  -15.6870   18.8821 C   0  0  0  0  0  0  0  0  0  0  0  0
    9.1340  -15.4117   20.1541 C   0  0  0  0  0  0  0  0  0  0  0  0
    8.1359  -15.6267   21.2998 C   0  0  2  0  0  0  0  0  0  0  0  0
    6.8535  -15.1923   20.8013 N   0  0  0  0  0  0  0  0  0  0  0  0
    8.5515  -14.9013   22.5151 C   0  0  0  0  0  0  0  0  0  0  0  0
    9.7079  -14.4067   22.5274 O   0  0  0  0  0  0  0  0  0  0  0  0
    8.9134  -12.3343   17.0689 C   0  0  0  0  0  0  0  0  0  0  0  0
    6.4657  -11.5322   27.1273 C   0  0  0  0  0  0  0  0  0  0  0  0
    7.5708  -12.4948   26.7171 C   0  0  2  0  0  0  0  0  0  0  0  0
    7.0995  -13.1942   25.4661 C   0  0  0  0  0  0  0  0  0  0  0  0
    5.8669  -13.9987   25.8209 C   0  0  2  0  0  0  0  0  0  0  0  0
    8.1651  -14.0811   24.8688 N   0  0  0  0  0  0  0  0  0  0  0  0
    7.7472  -14.7227   23.6617 C   0  0  0  0  0  0  0  0  0  0  0  0
    8.4319  -15.1579   25.8842 O   0  0  0  0  0  0  0  0  0  0  0  0
    7.5505  -16.0115   26.1930 N   0  0  0  0  0  0  0  0  0  0  0  0
   13.3809  -18.3877   26.1064 C   0  0  0  0  0  0  0  0  0  0  0  0
   13.3985  -16.9899   25.9571 O   0  0  0  0  0  0  0  0  0  0  0  0
   14.3872  -16.4252   25.4032 C   0  0  0  0  0  0  0  0  0  0  0  0
   12.2509  -16.1887   26.4538 C   0  0  0  0  0  0  0  0  0  0  0  0
   11.1893  -17.1284   27.0107 C   0  0  1  0  0  0  0  0  0  0  0  0
    9.9607  -16.3217   27.4454 N   0  0  0  0  0  0  0  0  0  0  0  0
    9.6806  -15.2580   26.5339 C   0  0  0  0  0  0  0  0  0  0  0  0
   10.1707  -15.8210   28.8252 O   0  0  0  0  0  0  0  0  0  0  0  0
   10.1167  -14.5860   29.0415 O   0  0  0  0  0  0  0  0  0  0  0  0
  2  3  2  0
  2  1  1  0
  4  2  1  0
  5  4  1  0
  5  6  1  0
  7  6  1  0
  8  7  1  0
  8  9  1  6
 10 11  2  0
 10  8  1  0
 12 13  1  0
 13 14  1  0
 14 16  1  0
 14 15  1  6
 16 18  1  0
 16 17  1  1
 17 10  1  0
 18 26  1  0
 19 18  2  0
 20 21  1  0
 21 22  2  0
 21 23  1  0
 23 24  1  0
 25 24  1  6
 25 27  1  0
 26 25  1  0
 27 28  2  0
 27 29  1  0
M  END
$$$$
