RIQ.pdb
     RDKit          3D

 29 28  0  0  1  0  0  0  0  0999 V2000
    9.2507  -14.7906   15.3301 N   0  0  0  0  0  0  0  0  0  0  0  0
    8.4864  -13.9169   16.1314 C   0  0  0  0  0  0  0  0  0  0  0  0
    8.1994  -12.7466   15.7052 N   0  0  0  0  0  0  0  0  0  0  0  0
    8.0181  -14.3149   17.4280 N   0  0  0  0  0  0  0  0  0  0  0  0
    8.3318  -15.6170   17.9953 C   0  0  0  0  0  0  0  0  0  0  0  0
    7.6661  -15.6940   19.3368 C   0  0  0  0  0  0  0  0  0  0  0  0
    8.5837  -16.1568   20.4350 C   0  0  0  0  0  0  0  0  0  0  0  0
    7.7145  -16.2918   21.6925 C   0  0  2  0  0  0  0  0  0  0  0  0
    6.4242  -15.7453   21.3488 N   0  0  0  0  0  0  0  0  0  0  0  0
    8.3333  -15.6124   22.8464 C   0  0  0  0  0  0  0  0  0  0  0  0
    9.5342  -15.2558   22.7330 O   0  0  0  0  0  0  0  0  0  0  0  0
    7.6430  -12.0464   16.2307 C   0  0  0  0  0  0  0  0  0  0  0  0
    5.6963  -12.0888   26.0590 C   0  0  0  0  0  0  0  0  0  0  0  0
    6.7559  -12.7584   25.1960 C   0  0  2  0  0  0  0  0  0  0  0  0
    7.3375  -13.8852   26.0135 C   0  0  0  0  0  0  0  0  0  0  0  0
    8.0388  -13.2766   27.2095 C   0  0  2  0  0  0  0  0  0  0  0  0
    8.2882  -14.7426   25.2136 N   0  0  0  0  0  0  0  0  0  0  0  0
    7.6766  -15.3344   24.0650 C   0  0  0  0  0  0  0  0  0  0  0  0
    8.7134  -15.8603   26.1256 O   0  0  0  0  0  0  0  0  0  0  0  0
    7.8676  -16.5757   26.7369 N   0  0  0  0  0  0  0  0  0  0  0  0
   12.2729  -18.2899   22.9658 C   0  0  0  0  0  0  0  0  0  0  0  0
   12.5535  -18.2097   24.3411 O   0  0  0  0  0  0  0  0  0  0  0  0
   13.6880  -17.8066   24.7329 C   0  0  0  0  0  0  0  0  0  0  0  0
   11.5098  -18.6010   25.3225 C   0  0  0  0  0  0  0  0  0  0  0  0
   11.7765  -17.8927   26.6445 C   0  0  2  0  0  0  0  0  0  0  0  0
   10.4830  -17.2505   27.1576 N   0  0  0  0  0  0  0  0  0  0  0  0
   10.0774  -16.1550   26.3353 C   0  0  0  0  0  0  0  0  0  0  0  0
   10.6717  -16.8368   28.5690 O   0  0  0  0  0  0  0  0  0  0  0  0
   11.0002  -17.6992   29.4194 O   0  0  0  0  0  0  0  0  0  0  0  0
  2  3  2  0
  2  1  1  0
  4  2  1  0
  5  4  1  0
  5  6  1  0
  7  6  1  0
  8  7  1  0
  8  9  1  6
 10 11  2  0
 10  8  1  0
 12 13  1  0
 13 14  1  0
 14 16  1  0
 14 15  1  1
 16 18  1  0
 16 17  1  6
 17 10  1  0
 18 26  1  0
 19 18  2  0
 20 21  1  0
 21 22  2  0
 21 23  1  0
 23 24  1  0
 25 24  1  6
 25 27  1  0
 26 25  1  0
 27 28  2  0
 27 29  1  0
M  END
$$$$
