RIQ.pdb
     RDKit          3D

 29 28  0  0  1  0  0  0  0  0999 V2000
    8.0029  -13.0075   15.7891 N   0  0  0  0  0  0  0  0  0  0  0  0
    8.4947  -14.3115   15.5719 C   0  0  0  0  0  0  0  0  0  0  0  0
    9.3368  -14.5284   14.6352 N   0  0  0  0  0  0  0  0  0  0  0  0
    8.0676  -15.4129   16.3865 N   0  0  0  0  0  0  0  0  0  0  0  0
    8.5895  -15.6289   17.7270 C   0  0  0  0  0  0  0  0  0  0  0  0
    7.9749  -14.5926   18.6199 C   0  0  0  0  0  0  0  0  0  0  0  0
    8.7241  -14.3921   19.9085 C   0  0  0  0  0  0  0  0  0  0  0  0
    7.7173  -14.6561   21.0362 C   0  0  2  0  0  0  0  0  0  0  0  0
    6.6291  -13.7322   20.8265 N   0  0  0  0  0  0  0  0  0  0  0  0
    8.3467  -14.5054   22.3618 C   0  0  0  0  0  0  0  0  0  0  0  0
    9.5798  -14.2593   22.3930 O   0  0  0  0  0  0  0  0  0  0  0  0
    9.6883  -15.4652   14.3618 C   0  0  0  0  0  0  0  0  0  0  0  0
    5.8145  -11.8685   26.3357 C   0  0  0  0  0  0  0  0  0  0  0  0
    6.8655  -12.3682   25.3550 C   0  0  2  0  0  0  0  0  0  0  0  0
    7.3166  -13.7205   25.8491 C   0  0  0  0  0  0  0  0  0  0  0  0
    7.9844  -13.5239   27.1937 C   0  0  2  0  0  0  0  0  0  0  0  0
    8.2523  -14.4021   24.8802 N   0  0  0  0  0  0  0  0  0  0  0  0
    7.6667  -14.6173   23.5941 C   0  0  0  0  0  0  0  0  0  0  0  0
    8.5563  -15.7518   25.4700 O   0  0  0  0  0  0  0  0  0  0  0  0
    7.6391  -16.5088   25.9018 N   0  0  0  0  0  0  0  0  0  0  0  0
   13.7412  -19.0545   24.2064 C   0  0  0  0  0  0  0  0  0  0  0  0
   13.0331  -19.9419   25.0357 O   0  0  0  0  0  0  0  0  0  0  0  0
   13.4927  -21.0999   25.2616 C   0  0  0  0  0  0  0  0  0  0  0  0
   11.7479  -19.5074   25.6399 C   0  0  0  0  0  0  0  0  0  0  0  0
   11.4746  -18.0613   25.2469 C   0  0  1  0  0  0  0  0  0  0  0  0
   10.1602  -17.5924   25.8806 N   0  0  0  0  0  0  0  0  0  0  0  0
    9.8815  -16.2274   25.5646 C   0  0  0  0  0  0  0  0  0  0  0  0
   10.2194  -17.8156   27.3453 O   0  0  0  0  0  0  0  0  0  0  0  0
   10.1746  -18.9897   27.7863 O   0  0  0  0  0  0  0  0  0  0  0  0
  2  3  2  0
  2  1  1  0
  4  2  1  0
  5  4  1  0
  5  6  1  0
  7  6  1  0
  8  7  1  0
  8  9  1  1
 10 11  2  0
 10  8  1  0
 12 13  1  0
 13 14  1  0
 14 16  1  0
 14 15  1  6
 16 18  1  0
 16 17  1  6
 17 10  1  0
 18 26  1  0
 19 18  2  0
 20 21  1  0
 21 22  2  0
 21 23  1  0
 23 24  1  0
 25 24  1  6
 25 27  1  0
 26 25  1  0
 27 28  2  0
 27 29  1  0
M  END
$$$$
