RIQ.pdb
     RDKit          3D

 29 28  0  0  1  0  0  0  0  0999 V2000
    8.3463  -12.7251   17.5352 N   0  0  0  0  0  0  0  0  0  0  0  0
    9.4017  -13.3370   18.2431 C   0  0  0  0  0  0  0  0  0  0  0  0
   10.3964  -12.6374   18.6367 N   0  0  0  0  0  0  0  0  0  0  0  0
    9.3855  -14.7418   18.5352 N   0  0  0  0  0  0  0  0  0  0  0  0
    8.1764  -15.5411   18.4127 C   0  0  0  0  0  0  0  0  0  0  0  0
    7.4188  -15.4086   19.7001 C   0  0  0  0  0  0  0  0  0  0  0  0
    7.7986  -16.4394   20.7273 C   0  0  0  0  0  0  0  0  0  0  0  0
    6.9514  -16.1389   21.9710 C   0  0  2  0  0  0  0  0  0  0  0  0
    5.7988  -15.4075   21.5039 N   0  0  0  0  0  0  0  0  0  0  0  0
    7.7282  -15.3958   22.9811 C   0  0  0  0  0  0  0  0  0  0  0  0
    8.6401  -14.6353   22.5663 O   0  0  0  0  0  0  0  0  0  0  0  0
   11.2364  -13.0190   19.1107 C   0  0  0  0  0  0  0  0  0  0  0  0
    5.6184  -12.4162   26.6751 C   0  0  0  0  0  0  0  0  0  0  0  0
    6.5746  -12.9737   25.6306 C   0  0  2  0  0  0  0  0  0  0  0  0
    7.4364  -13.9967   26.3287 C   0  0  0  0  0  0  0  0  0  0  0  0
    8.2989  -13.2666   27.3364 C   0  0  2  0  0  0  0  0  0  0  0  0
    8.2892  -14.7830   25.3627 N   0  0  0  0  0  0  0  0  0  0  0  0
    7.5224  -15.4766   24.3757 C   0  0  0  0  0  0  0  0  0  0  0  0
    9.0090  -15.8168   26.1844 O   0  0  0  0  0  0  0  0  0  0  0  0
    8.3805  -16.6646   26.8824 N   0  0  0  0  0  0  0  0  0  0  0  0
   14.3596  -16.2124   24.6583 C   0  0  0  0  0  0  0  0  0  0  0  0
   13.3733  -16.9532   23.9838 O   0  0  0  0  0  0  0  0  0  0  0  0
   13.4528  -17.1190   22.7310 C   0  0  0  0  0  0  0  0  0  0  0  0
   12.2444  -17.5352   24.7534 C   0  0  0  0  0  0  0  0  0  0  0  0
   12.4502  -17.2497   26.2354 C   0  0  2  0  0  0  0  0  0  0  0  0
   11.1028  -16.9315   26.8931 N   0  0  0  0  0  0  0  0  0  0  0  0
   10.4185  -15.8809   26.2085 C   0  0  0  0  0  0  0  0  0  0  0  0
   11.3244  -16.6026   28.3218 O   0  0  0  0  0  0  0  0  0  0  0  0
   11.0307  -15.4553   28.7369 O   0  0  0  0  0  0  0  0  0  0  0  0
  2  3  2  0
  2  1  1  0
  4  2  1  0
  5  4  1  0
  5  6  1  0
  7  6  1  0
  8  7  1  0
  8  9  1  6
 10 11  2  0
 10  8  1  0
 12 13  1  0
 13 14  1  0
 14 16  1  0
 14 15  1  1
 16 18  1  0
 16 17  1  6
 17 10  1  0
 18 26  1  0
 19 18  2  0
 20 21  1  0
 21 22  2  0
 21 23  1  0
 23 24  1  0
 25 24  1  6
 25 27  1  0
 26 25  1  0
 27 28  2  0
 27 29  1  0
M  END
$$$$
