ELS.pdb
     RDKit          3D

 24 23  0  0  1  0  0  0  0  0999 V2000
    8.1674  -15.7810   20.3783 N   0  0  0  0  0  0  0  0  0  0  0  0
    7.9187  -16.1705   21.7208 C   0  0  1  0  0  0  0  0  0  0  0  0
    8.0525  -17.6030   22.0596 C   0  0  0  0  0  0  0  0  0  0  0  0
    7.6172  -18.5069   20.9785 C   0  0  0  0  0  0  0  0  0  0  0  0
    7.6339  -19.9440   21.2297 C   0  0  0  0  0  0  0  0  0  0  0  0
    7.2454  -20.7594   20.3660 O   0  0  0  0  0  0  0  0  0  0  0  0
    8.7601  -15.2945   22.6120 C   0  0  0  0  0  0  0  0  0  0  0  0
    9.9255  -14.9429   22.2709 O   0  0  0  0  0  0  0  0  0  0  0  0
    8.0869  -20.4750   22.4540 O   0  0  0  0  0  0  0  0  0  0  0  0
    5.6690  -13.4837   25.4925 C   0  0  0  0  0  0  0  0  0  0  0  0
    7.0285  -13.3700   26.1977 C   0  0  2  0  0  0  0  0  0  0  0  0
    6.8318  -12.4449   27.3593 C   0  0  0  0  0  0  0  0  0  0  0  0
    7.9937  -12.8850   25.1817 C   0  0  0  0  0  0  0  0  0  0  0  0
    9.0002  -13.8691   24.6971 C   0  0  2  0  0  0  0  0  0  0  0  0
    8.2944  -14.8253   23.8645 N   0  0  0  0  0  0  0  0  0  0  0  0
    9.6557  -14.6223   25.8008 C   0  0  0  0  0  0  0  0  0  0  0  0
    9.4823  -14.2299   26.9797 O   0  0  0  0  0  0  0  0  0  0  0  0
    8.9741  -18.6579   27.3220 O   0  0  0  0  0  0  0  0  0  0  0  0
    9.0225  -17.5331   26.5068 C   0  0  0  0  0  0  0  0  0  0  0  0
   10.4146  -16.9493   26.4236 C   0  0  2  0  0  0  0  0  0  0  0  0
   10.4722  -15.7660   25.6082 N   0  0  0  0  0  0  0  0  0  0  0  0
   11.3907  -17.9770   26.0089 C   0  0  0  0  0  0  0  0  0  0  0  0
   12.1799  -18.7167   26.8779 O   0  0  0  0  0  0  0  0  0  0  0  0
   11.5294  -18.2113   24.7822 O   0  0  0  0  0  0  0  0  0  0  0  0
  2  1  1  6
  2  3  1  0
  3  4  1  0
  4  5  1  0
  5  6  2  0
  5  9  1  0
  7  2  1  0
  7  8  2  0
 11 10  1  6
 11 13  1  0
 11 12  1  0
 14 13  1  1
 14 15  1  0
 14 16  1  0
 15  7  1  0
 16 21  1  0
 17 16  2  0
 19 18  1  0
 20 19  1  6
 20 22  1  0
 21 20  1  0
 22 24  2  0
 22 23  1  0
M  END
$$$$
