ELS.pdb
     RDKit          3D

 24 23  0  0  1  0  0  0  0  0999 V2000
    9.8295  -15.3446   20.0977 N   0  0  0  0  0  0  0  0  0  0  0  0
    8.6170  -15.5143   20.8168 C   0  0  1  0  0  0  0  0  0  0  0  0
    7.8715  -16.7759   20.6242 C   0  0  0  0  0  0  0  0  0  0  0  0
    8.6403  -17.9774   20.9991 C   0  0  0  0  0  0  0  0  0  0  0  0
    8.0118  -19.2826   20.8265 C   0  0  0  0  0  0  0  0  0  0  0  0
    8.5924  -20.3343   21.1708 O   0  0  0  0  0  0  0  0  0  0  0  0
    8.9078  -15.2419   22.2697 C   0  0  0  0  0  0  0  0  0  0  0  0
   10.0317  -15.5234   22.7753 O   0  0  0  0  0  0  0  0  0  0  0  0
    6.7260  -19.4152   20.2651 O   0  0  0  0  0  0  0  0  0  0  0  0
    5.6268  -12.5627   26.7195 C   0  0  0  0  0  0  0  0  0  0  0  0
    6.9815  -13.2363   26.4549 C   0  0  2  0  0  0  0  0  0  0  0  0
    8.0344  -12.2701   26.9038 C   0  0  0  0  0  0  0  0  0  0  0  0
    7.0191  -13.5587   25.0080 C   0  0  0  0  0  0  0  0  0  0  0  0
    8.1794  -14.3628   24.5355 C   0  0  2  0  0  0  0  0  0  0  0  0
    7.9474  -14.6632   23.1349 N   0  0  0  0  0  0  0  0  0  0  0  0
    8.3259  -15.6544   25.2604 C   0  0  0  0  0  0  0  0  0  0  0  0
    7.3756  -16.4727   25.2250 O   0  0  0  0  0  0  0  0  0  0  0  0
   11.7334  -17.7562   25.3714 O   0  0  0  0  0  0  0  0  0  0  0  0
   10.4665  -18.2505   25.6587 C   0  0  0  0  0  0  0  0  0  0  0  0
    9.6888  -17.3290   26.5708 C   0  0  2  0  0  0  0  0  0  0  0  0
    9.4796  -16.0271   25.9966 N   0  0  0  0  0  0  0  0  0  0  0  0
   10.3090  -17.2700   27.9097 C   0  0  0  0  0  0  0  0  0  0  0  0
   10.6768  -16.1017   28.5617 O   0  0  0  0  0  0  0  0  0  0  0  0
   10.5267  -18.3480   28.5174 O   0  0  0  0  0  0  0  0  0  0  0  0
  2  1  1  6
  2  3  1  0
  3  4  1  0
  4  5  1  0
  5  6  2  0
  5  9  1  0
  7  2  1  0
  7  8  2  0
 11 10  1  6
 11 13  1  0
 11 12  1  0
 14 13  1  1
 14 15  1  0
 14 16  1  0
 15  7  1  0
 16 21  1  0
 17 16  2  0
 19 18  1  0
 20 19  1  6
 20 22  1  0
 21 20  1  0
 22 24  2  0
 22 23  1  0
M  END
$$$$
