ELS.pdb
     RDKit          3D

 24 23  0  0  1  0  0  0  0  0999 V2000
   10.1237  -15.9630   20.4547 N   0  0  0  0  0  0  0  0  0  0  0  0
    9.2036  -16.4068   21.4408 C   0  0  1  0  0  0  0  0  0  0  0  0
    9.1233  -17.8586   21.7059 C   0  0  0  0  0  0  0  0  0  0  0  0
    8.8016  -18.6588   20.5095 C   0  0  0  0  0  0  0  0  0  0  0  0
    8.5983  -20.0944   20.6715 C   0  0  0  0  0  0  0  0  0  0  0  0
    8.7403  -20.6499   21.7819 O   0  0  0  0  0  0  0  0  0  0  0  0
    9.4629  -15.6133   22.6949 C   0  0  0  0  0  0  0  0  0  0  0  0
   10.6407  -15.3382   23.0624 O   0  0  0  0  0  0  0  0  0  0  0  0
    8.2342  -20.9163   19.5861 O   0  0  0  0  0  0  0  0  0  0  0  0
    5.9360  -12.4464   26.5726 C   0  0  0  0  0  0  0  0  0  0  0  0
    7.3261  -13.0886   26.4539 C   0  0  2  0  0  0  0  0  0  0  0  0
    8.3231  -11.9809   26.6037 C   0  0  0  0  0  0  0  0  0  0  0  0
    7.3641  -13.7771   25.1411 C   0  0  0  0  0  0  0  0  0  0  0  0
    8.5997  -14.5465   24.8289 C   0  0  2  0  0  0  0  0  0  0  0  0
    8.4121  -15.1403   23.5182 N   0  0  0  0  0  0  0  0  0  0  0  0
    8.8589  -15.6481   25.7955 C   0  0  0  0  0  0  0  0  0  0  0  0
    7.9405  -16.4707   26.0270 O   0  0  0  0  0  0  0  0  0  0  0  0
   11.5925  -17.8156   25.5623 O   0  0  0  0  0  0  0  0  0  0  0  0
   11.4498  -17.8229   26.9450 C   0  0  0  0  0  0  0  0  0  0  0  0
   10.3446  -16.9012   27.4084 C   0  0  2  0  0  0  0  0  0  0  0  0
   10.0873  -15.8331   26.4803 N   0  0  0  0  0  0  0  0  0  0  0  0
   10.6055  -16.4167   28.7788 C   0  0  0  0  0  0  0  0  0  0  0  0
   10.6231  -15.0819   29.1574 O   0  0  0  0  0  0  0  0  0  0  0  0
   10.8301  -17.2623   29.6808 O   0  0  0  0  0  0  0  0  0  0  0  0
  2  1  1  6
  2  3  1  0
  3  4  1  0
  4  5  1  0
  5  6  2  0
  5  9  1  0
  7  2  1  0
  7  8  2  0
 11 10  1  6
 11 13  1  0
 11 12  1  0
 14 13  1  1
 14 15  1  0
 14 16  1  0
 15  7  1  0
 16 21  1  0
 17 16  2  0
 19 18  1  0
 20 19  1  6
 20 22  1  0
 21 20  1  0
 22 24  2  0
 22 23  1  0
M  END
$$$$
