ELS.pdb
     RDKit          3D

 24 23  0  0  1  0  0  0  0  0999 V2000
    9.7182  -15.9862   20.4904 N   0  0  0  0  0  0  0  0  0  0  0  0
    8.6513  -16.2529   21.3884 C   0  0  1  0  0  0  0  0  0  0  0  0
    8.2097  -17.6555   21.5378 C   0  0  0  0  0  0  0  0  0  0  0  0
    9.3242  -18.6162   21.6392 C   0  0  0  0  0  0  0  0  0  0  0  0
    9.0106  -20.0410   21.6498 C   0  0  0  0  0  0  0  0  0  0  0  0
    9.9008  -20.9013   21.8205 O   0  0  0  0  0  0  0  0  0  0  0  0
    9.0019  -15.6233   22.7114 C   0  0  0  0  0  0  0  0  0  0  0  0
   10.1818  -15.6660   23.1632 O   0  0  0  0  0  0  0  0  0  0  0  0
    7.6938  -20.5092   21.4682 O   0  0  0  0  0  0  0  0  0  0  0  0
    5.8091  -12.1504   26.6476 C   0  0  0  0  0  0  0  0  0  0  0  0
    7.1918  -12.7843   26.4349 C   0  0  2  0  0  0  0  0  0  0  0  0
    8.1847  -11.6632   26.4591 C   0  0  0  0  0  0  0  0  0  0  0  0
    7.1269  -13.5210   25.1495 C   0  0  0  0  0  0  0  0  0  0  0  0
    8.3211  -14.3324   24.7868 C   0  0  2  0  0  0  0  0  0  0  0  0
    8.0384  -14.9588   23.5087 N   0  0  0  0  0  0  0  0  0  0  0  0
    8.6111  -15.4122   25.7692 C   0  0  0  0  0  0  0  0  0  0  0  0
    7.7695  -16.3308   25.9160 O   0  0  0  0  0  0  0  0  0  0  0  0
   12.2545  -16.8784   26.4406 O   0  0  0  0  0  0  0  0  0  0  0  0
   11.1063  -17.5187   26.8920 C   0  0  0  0  0  0  0  0  0  0  0  0
   10.0999  -16.5467   27.4649 C   0  0  2  0  0  0  0  0  0  0  0  0
    9.7873  -15.4738   26.5595 N   0  0  0  0  0  0  0  0  0  0  0  0
   10.5317  -16.0661   28.7929 C   0  0  0  0  0  0  0  0  0  0  0  0
   10.6125  -14.7317   29.1648 O   0  0  0  0  0  0  0  0  0  0  0  0
   10.8533  -16.9148   29.6619 O   0  0  0  0  0  0  0  0  0  0  0  0
  2  1  1  6
  2  3  1  0
  3  4  1  0
  4  5  1  0
  5  6  2  0
  5  9  1  0
  7  2  1  0
  7  8  2  0
 11 10  1  6
 11 13  1  0
 11 12  1  0
 14 13  1  1
 14 15  1  0
 14 16  1  0
 15  7  1  0
 16 21  1  0
 17 16  2  0
 19 18  1  0
 20 19  1  6
 20 22  1  0
 21 20  1  0
 22 24  2  0
 22 23  1  0
M  END
$$$$
