ELS.pdb
     RDKit          3D

 24 23  0  0  1  0  0  0  0  0999 V2000
    6.6345  -16.1848   21.5988 N   0  0  0  0  0  0  0  0  0  0  0  0
    8.0403  -16.3629   21.5100 C   0  0  1  0  0  0  0  0  0  0  0  0
    8.7357  -15.7895   20.3386 C   0  0  0  0  0  0  0  0  0  0  0  0
    8.3137  -16.3815   19.0553 C   0  0  0  0  0  0  0  0  0  0  0  0
    9.0049  -15.9639   17.8403 C   0  0  0  0  0  0  0  0  0  0  0  0
    8.6413  -16.3665   16.7145 O   0  0  0  0  0  0  0  0  0  0  0  0
    8.6408  -15.8982   22.8112 C   0  0  0  0  0  0  0  0  0  0  0  0
    9.8820  -15.6838   22.9186 O   0  0  0  0  0  0  0  0  0  0  0  0
   10.1105  -15.0909   17.8820 O   0  0  0  0  0  0  0  0  0  0  0  0
    8.2124  -12.2967   25.5673 C   0  0  0  0  0  0  0  0  0  0  0  0
    6.9916  -13.2063   25.3647 C   0  0  2  0  0  0  0  0  0  0  0  0
    5.8311  -12.5151   26.0120 C   0  0  0  0  0  0  0  0  0  0  0  0
    7.3372  -14.5187   25.9622 C   0  0  0  0  0  0  0  0  0  0  0  0
    8.3886  -15.3103   25.2664 C   0  0  2  0  0  0  0  0  0  0  0  0
    7.8545  -15.6803   23.9688 N   0  0  0  0  0  0  0  0  0  0  0  0
    8.7456  -16.5631   25.9864 C   0  0  0  0  0  0  0  0  0  0  0  0
    7.8479  -17.4166   26.1853 O   0  0  0  0  0  0  0  0  0  0  0  0
   11.9045  -19.9948   26.9874 O   0  0  0  0  0  0  0  0  0  0  0  0
   11.5596  -18.7929   26.3803 C   0  0  0  0  0  0  0  0  0  0  0  0
   10.4151  -18.1046   27.0888 C   0  0  2  0  0  0  0  0  0  0  0  0
   10.0460  -16.8608   26.4681 N   0  0  0  0  0  0  0  0  0  0  0  0
   10.7008  -17.9610   28.5305 C   0  0  0  0  0  0  0  0  0  0  0  0
   10.7083  -19.0049   29.4446 O   0  0  0  0  0  0  0  0  0  0  0  0
   10.9579  -16.8158   28.9793 O   0  0  0  0  0  0  0  0  0  0  0  0
  2  1  1  1
  2  3  1  0
  3  4  1  0
  4  5  1  0
  5  6  2  0
  5  9  1  0
  7  2  1  0
  7  8  2  0
 11 10  1  1
 11 13  1  0
 11 12  1  0
 14 13  1  1
 14 15  1  0
 14 16  1  0
 15  7  1  0
 16 21  1  0
 17 16  2  0
 19 18  1  0
 20 19  1  6
 20 22  1  0
 21 20  1  0
 22 24  2  0
 22 23  1  0
M  END
$$$$
