HNS.pdb
     RDKit          3D

 25 25  0  0  1  0  0  0  0  0999 V2000
    9.4801  -16.5821   19.3128 N   0  0  0  0  0  0  0  0  0  0  0  0
    9.8152  -16.1924   20.6474 C   0  0  1  0  0  0  0  0  0  0  0  0
    8.7488  -15.3108   21.2916 C   0  0  0  0  0  0  0  0  0  0  0  0
    8.4620  -14.1527   20.3876 C   0  0  0  0  0  0  0  0  0  0  0  0
    8.8774  -12.8494   20.5715 C   0  0  0  0  0  0  0  0  0  0  0  0
    8.4185  -12.1272   19.5518 N   0  0  0  0  0  0  0  0  0  0  0  0
    7.7346  -12.9535   18.7504 C   0  0  0  0  0  0  0  0  0  0  0  0
    7.7603  -14.1859   19.2577 N   0  0  0  0  0  0  0  0  0  0  0  0
   10.0657  -17.3776   21.5304 C   0  0  0  0  0  0  0  0  0  0  0  0
    9.5967  -18.5048   21.2553 O   0  0  0  0  0  0  0  0  0  0  0  0
   14.6695  -20.1800   22.0806 N   0  0  0  0  0  0  0  0  0  0  0  0
   13.3715  -20.0347   22.6561 C   0  0  0  0  0  0  0  0  0  0  0  0
   13.0334  -20.9019   23.4937 O   0  0  0  0  0  0  0  0  0  0  0  0
   12.5650  -18.8973   22.2181 C   0  0  0  0  0  0  0  0  0  0  0  0
   11.6080  -18.3851   23.2670 C   0  0  2  0  0  0  0  0  0  0  0  0
   10.8448  -17.2745   22.7162 N   0  0  0  0  0  0  0  0  0  0  0  0
   12.3321  -17.9830   24.5055 C   0  0  0  0  0  0  0  0  0  0  0  0
   12.9964  -16.9165   24.4662 O   0  0  0  0  0  0  0  0  0  0  0  0
    9.4586  -17.8062   27.8272 O   0  0  0  0  0  0  0  0  0  0  0  0
   10.1417  -18.1049   26.6637 C   0  0  0  0  0  0  0  0  0  0  0  0
   11.6048  -18.3786   26.8939 C   0  0  2  0  0  0  0  0  0  0  0  0
   12.3251  -18.7077   25.7082 N   0  0  0  0  0  0  0  0  0  0  0  0
   11.7365  -19.4579   27.8929 C   0  0  0  0  0  0  0  0  0  0  0  0
   11.5937  -20.6665   27.5709 O   0  0  0  0  0  0  0  0  0  0  0  0
   12.0223  -19.1863   29.2250 O   0  0  0  0  0  0  0  0  0  0  0  0
  2  1  1  6
  3  2  1  0
  4  3  1  0
  5  4  2  0
  6  5  1  0
  7  6  1  0
  7  8  2  0
  8  4  1  0
  9  2  1  0
  9 10  2  0
 11 12  1  0
 12 14  1  0
 12 13  2  0
 15 14  1  6
 15 16  1  0
 16  9  1  0
 17 15  1  0
 18 17  2  0
 19 20  1  0
 21 20  1  6
 21 22  1  0
 21 23  1  0
 22 17  1  0
 23 24  2  0
 23 25  1  0
M  END
$$$$
