HNS.pdb
     RDKit          3D

 25 25  0  0  1  0  0  0  0  0999 V2000
    8.5814  -16.2923   20.9893 N   0  0  0  0  0  0  0  0  0  0  0  0
    8.0826  -15.3532   21.9457 C   0  0  1  0  0  0  0  0  0  0  0  0
    6.9787  -14.4635   21.3808 C   0  0  0  0  0  0  0  0  0  0  0  0
    7.4574  -13.8423   20.1059 C   0  0  0  0  0  0  0  0  0  0  0  0
    8.0339  -12.5956   19.9698 C   0  0  0  0  0  0  0  0  0  0  0  0
    8.3182  -12.4161   18.6818 N   0  0  0  0  0  0  0  0  0  0  0  0
    7.9312  -13.5185   18.0278 C   0  0  0  0  0  0  0  0  0  0  0  0
    7.4074  -14.3868   18.8930 N   0  0  0  0  0  0  0  0  0  0  0  0
    7.5766  -16.0304   23.1837 C   0  0  0  0  0  0  0  0  0  0  0  0
    7.0229  -15.3823   24.0999 O   0  0  0  0  0  0  0  0  0  0  0  0
    5.0726  -18.2476   23.1298 N   0  0  0  0  0  0  0  0  0  0  0  0
    5.6217  -19.5075   23.5152 C   0  0  0  0  0  0  0  0  0  0  0  0
    4.9993  -20.5256   23.1361 O   0  0  0  0  0  0  0  0  0  0  0  0
    6.8484  -19.4918   24.3095 C   0  0  0  0  0  0  0  0  0  0  0  0
    7.3607  -18.1057   24.6176 C   0  0  2  0  0  0  0  0  0  0  0  0
    7.7030  -17.4348   23.3718 N   0  0  0  0  0  0  0  0  0  0  0  0
    8.5270  -18.1567   25.5433 C   0  0  0  0  0  0  0  0  0  0  0  0
    9.6697  -18.0030   25.0424 O   0  0  0  0  0  0  0  0  0  0  0  0
   10.7646  -17.1839   29.5228 O   0  0  0  0  0  0  0  0  0  0  0  0
    9.6766  -17.1465   28.6715 C   0  0  0  0  0  0  0  0  0  0  0  0
    9.5273  -18.4012   27.8519 C   0  0  2  0  0  0  0  0  0  0  0  0
    8.4407  -18.3634   26.9294 N   0  0  0  0  0  0  0  0  0  0  0  0
    9.3882  -19.5533   28.7648 C   0  0  0  0  0  0  0  0  0  0  0  0
    8.3196  -20.2165   28.8210 O   0  0  0  0  0  0  0  0  0  0  0  0
   10.4265  -19.9525   29.5969 O   0  0  0  0  0  0  0  0  0  0  0  0
  2  1  1  6
  3  2  1  0
  4  3  1  0
  5  4  2  0
  6  5  1  0
  7  6  1  0
  7  8  2  0
  8  4  1  0
  9  2  1  0
  9 10  2  0
 11 12  1  0
 12 14  1  0
 12 13  2  0
 15 14  1  6
 15 16  1  0
 16  9  1  0
 17 15  1  0
 18 17  2  0
 19 20  1  0
 21 20  1  1
 21 22  1  0
 21 23  1  0
 22 17  1  0
 23 24  2  0
 23 25  1  0
M  END
$$$$
