HNS.pdb
     RDKit          3D

 25 25  0  0  1  0  0  0  0  0999 V2000
    8.7388  -17.4593   19.2271 N   0  0  0  0  0  0  0  0  0  0  0  0
    9.5057  -16.6756   20.1453 C   0  0  1  0  0  0  0  0  0  0  0  0
    8.6543  -15.6788   20.9269 C   0  0  0  0  0  0  0  0  0  0  0  0
    8.3459  -14.5067   20.0484 C   0  0  0  0  0  0  0  0  0  0  0  0
    8.7037  -14.3613   18.7234 C   0  0  0  0  0  0  0  0  0  0  0  0
    8.2437  -13.1849   18.3033 N   0  0  0  0  0  0  0  0  0  0  0  0
    7.6150  -12.6081   19.3351 C   0  0  0  0  0  0  0  0  0  0  0  0
    7.6764  -13.4111   20.3973 N   0  0  0  0  0  0  0  0  0  0  0  0
   10.2651  -17.5318   21.1135 C   0  0  0  0  0  0  0  0  0  0  0  0
    9.7692  -18.5806   21.5826 O   0  0  0  0  0  0  0  0  0  0  0  0
   16.0014  -18.2431   23.1999 N   0  0  0  0  0  0  0  0  0  0  0  0
   14.6861  -18.7345   22.9437 C   0  0  0  0  0  0  0  0  0  0  0  0
   14.3904  -19.8333   23.4661 O   0  0  0  0  0  0  0  0  0  0  0  0
   13.8146  -17.9165   22.1026 C   0  0  0  0  0  0  0  0  0  0  0  0
   12.3521  -18.0079   22.4652 C   0  0  2  0  0  0  0  0  0  0  0  0
   11.5787  -17.1915   21.5408 N   0  0  0  0  0  0  0  0  0  0  0  0
   12.1211  -17.5931   23.8775 C   0  0  0  0  0  0  0  0  0  0  0  0
   12.3140  -16.3843   24.1639 O   0  0  0  0  0  0  0  0  0  0  0  0
    9.1753  -18.6245   26.2392 O   0  0  0  0  0  0  0  0  0  0  0  0
   10.1235  -17.6988   26.6311 C   0  0  0  0  0  0  0  0  0  0  0  0
   11.5289  -18.1111   26.2798 C   0  0  2  0  0  0  0  0  0  0  0  0
   11.7051  -18.4528   24.9067 N   0  0  0  0  0  0  0  0  0  0  0  0
   11.9257  -19.2388   27.1463 C   0  0  0  0  0  0  0  0  0  0  0  0
   12.3316  -20.3259   26.6582 O   0  0  0  0  0  0  0  0  0  0  0  0
   11.8679  -19.1483   28.5314 O   0  0  0  0  0  0  0  0  0  0  0  0
  2  1  1  1
  3  2  1  0
  4  3  1  0
  5  4  2  0
  6  5  1  0
  7  6  1  0
  7  8  2  0
  8  4  1  0
  9  2  1  0
  9 10  2  0
 11 12  1  0
 12 14  1  0
 12 13  2  0
 15 14  1  6
 15 16  1  0
 16  9  1  0
 17 15  1  0
 18 17  2  0
 19 20  1  0
 21 20  1  6
 21 22  1  0
 21 23  1  0
 22 17  1  0
 23 24  2  0
 23 25  1  0
M  END
$$$$
