HNS.pdb
     RDKit          3D

 25 25  0  0  1  0  0  0  0  0999 V2000
    8.2594  -16.2636   20.2795 N   0  0  0  0  0  0  0  0  0  0  0  0
    8.0301  -15.0671   21.0286 C   0  0  1  0  0  0  0  0  0  0  0  0
    7.0312  -14.1300   20.3552 C   0  0  0  0  0  0  0  0  0  0  0  0
    7.5261  -13.7941   18.9830 C   0  0  0  0  0  0  0  0  0  0  0  0
    8.6851  -14.2590   18.3953 C   0  0  0  0  0  0  0  0  0  0  0  0
    8.7651  -13.7297   17.1765 N   0  0  0  0  0  0  0  0  0  0  0  0
    7.6871  -12.9545   17.0040 C   0  0  0  0  0  0  0  0  0  0  0  0
    6.9326  -12.9929   18.1022 N   0  0  0  0  0  0  0  0  0  0  0  0
    7.5601  -15.3603   22.4215 C   0  0  0  0  0  0  0  0  0  0  0  0
    6.6267  -14.7106   22.9438 O   0  0  0  0  0  0  0  0  0  0  0  0
    6.2546  -19.3613   22.8275 N   0  0  0  0  0  0  0  0  0  0  0  0
    6.1089  -18.3928   23.8658 C   0  0  0  0  0  0  0  0  0  0  0  0
    4.9754  -17.8757   23.9900 O   0  0  0  0  0  0  0  0  0  0  0  0
    7.2861  -18.0975   24.6800 C   0  0  0  0  0  0  0  0  0  0  0  0
    7.7553  -16.6661   24.5817 C   0  0  2  0  0  0  0  0  0  0  0  0
    8.1520  -16.3865   23.2092 N   0  0  0  0  0  0  0  0  0  0  0  0
    8.8706  -16.3990   25.5329 C   0  0  0  0  0  0  0  0  0  0  0  0
   10.0339  -16.6906   25.1561 O   0  0  0  0  0  0  0  0  0  0  0  0
   10.4576  -13.7820   29.3082 O   0  0  0  0  0  0  0  0  0  0  0  0
    9.4354  -14.1734   28.4646 C   0  0  0  0  0  0  0  0  0  0  0  0
    9.7583  -15.4237   27.6894 C   0  0  2  0  0  0  0  0  0  0  0  0
    8.7150  -15.8472   26.8146 N   0  0  0  0  0  0  0  0  0  0  0  0
   10.1013  -16.4994   28.6409 C   0  0  0  0  0  0  0  0  0  0  0  0
    9.3936  -17.5361   28.7370 O   0  0  0  0  0  0  0  0  0  0  0  0
   11.2149  -16.4132   29.4668 O   0  0  0  0  0  0  0  0  0  0  0  0
  2  1  1  6
  3  2  1  0
  4  3  1  0
  5  4  2  0
  6  5  1  0
  7  6  1  0
  7  8  2  0
  8  4  1  0
  9  2  1  0
  9 10  2  0
 11 12  1  0
 12 14  1  0
 12 13  2  0
 15 14  1  6
 15 16  1  0
 16  9  1  0
 17 15  1  0
 18 17  2  0
 19 20  1  0
 21 20  1  1
 21 22  1  0
 21 23  1  0
 22 17  1  0
 23 24  2  0
 23 25  1  0
M  END
$$$$
