HNS.pdb
     RDKit          3D

 25 25  0  0  1  0  0  0  0  0999 V2000
    8.2779  -17.9686   14.3400 N   0  0  0  0  0  0  0  0  0  0  0  0
    9.3561  -17.4477   15.1221 C   0  0  1  0  0  0  0  0  0  0  0  0
    8.8775  -16.6489   16.3313 C   0  0  0  0  0  0  0  0  0  0  0  0
    8.3805  -15.3148   15.8689 C   0  0  0  0  0  0  0  0  0  0  0  0
    8.2744  -14.8906   14.5598 C   0  0  0  0  0  0  0  0  0  0  0  0
    7.7924  -13.6499   14.5708 N   0  0  0  0  0  0  0  0  0  0  0  0
    7.6013  -13.3048   15.8504 C   0  0  0  0  0  0  0  0  0  0  0  0
    7.9587  -14.3168   16.6410 N   0  0  0  0  0  0  0  0  0  0  0  0
   10.2826  -18.5297   15.5888 C   0  0  0  0  0  0  0  0  0  0  0  0
    9.8578  -19.5222   16.2217 O   0  0  0  0  0  0  0  0  0  0  0  0
   14.3279  -19.6136   12.4837 N   0  0  0  0  0  0  0  0  0  0  0  0
   13.5747  -20.1107   13.5895 C   0  0  0  0  0  0  0  0  0  0  0  0
   12.7595  -21.0280   13.3407 O   0  0  0  0  0  0  0  0  0  0  0  0
   13.8229  -19.5081   14.8976 C   0  0  0  0  0  0  0  0  0  0  0  0
   12.6151  -19.4906   15.8029 C   0  0  2  0  0  0  0  0  0  0  0  0
   11.6813  -18.4769   15.3342 N   0  0  0  0  0  0  0  0  0  0  0  0
   13.0083  -19.2509   17.2199 C   0  0  0  0  0  0  0  0  0  0  0  0
   13.7703  -18.2784   17.4517 O   0  0  0  0  0  0  0  0  0  0  0  0
   11.5523  -21.6785   20.3922 O   0  0  0  0  0  0  0  0  0  0  0  0
   11.7990  -20.3375   20.6172 C   0  0  0  0  0  0  0  0  0  0  0  0
   12.8384  -19.7664   19.6888 C   0  0  2  0  0  0  0  0  0  0  0  0
   12.5899  -20.0309   18.3099 N   0  0  0  0  0  0  0  0  0  0  0  0
   14.1644  -20.2835   20.0817 C   0  0  0  0  0  0  0  0  0  0  0  0
   14.6421  -20.0547   21.2237 O   0  0  0  0  0  0  0  0  0  0  0  0
   14.9376  -21.0414   19.2113 O   0  0  0  0  0  0  0  0  0  0  0  0
  2  1  1  1
  3  2  1  0
  4  3  1  0
  5  4  2  0
  6  5  1  0
  7  6  1  0
  7  8  2  0
  8  4  1  0
  9  2  1  0
  9 10  2  0
 11 12  1  0
 12 14  1  0
 12 13  2  0
 15 14  1  6
 15 16  1  0
 16  9  1  0
 17 15  1  0
 18 17  2  0
 19 20  1  0
 21 20  1  1
 21 22  1  0
 21 23  1  0
 22 17  1  0
 23 24  2  0
 23 25  1  0
M  END
$$$$
