HNS.pdb
     RDKit          3D

 25 25  0  0  1  0  0  0  0  0999 V2000
    8.6642  -15.8193   21.7811 N   0  0  0  0  0  0  0  0  0  0  0  0
    7.6841  -14.9378   22.3359 C   0  0  1  0  0  0  0  0  0  0  0  0
    6.7013  -14.4141   21.2923 C   0  0  0  0  0  0  0  0  0  0  0  0
    7.4697  -13.8629   20.1319 C   0  0  0  0  0  0  0  0  0  0  0  0
    8.0542  -12.6148   20.0570 C   0  0  0  0  0  0  0  0  0  0  0  0
    8.6398  -12.5094   18.8662 N   0  0  0  0  0  0  0  0  0  0  0  0
    8.4290  -13.6585   18.2121 C   0  0  0  0  0  0  0  0  0  0  0  0
    7.7173  -14.4827   18.9810 N   0  0  0  0  0  0  0  0  0  0  0  0
    6.9148  -15.5849   23.4479 C   0  0  0  0  0  0  0  0  0  0  0  0
    5.6641  -15.6269   23.4355 O   0  0  0  0  0  0  0  0  0  0  0  0
    6.0271  -20.5797   23.5869 N   0  0  0  0  0  0  0  0  0  0  0  0
    6.8843  -19.8552   24.4687 C   0  0  0  0  0  0  0  0  0  0  0  0
    7.1948  -20.4273   25.5383 O   0  0  0  0  0  0  0  0  0  0  0  0
    7.3159  -18.5248   24.0448 C   0  0  0  0  0  0  0  0  0  0  0  0
    7.1882  -17.4693   25.1163 C   0  0  2  0  0  0  0  0  0  0  0  0
    7.5695  -16.1780   24.5629 N   0  0  0  0  0  0  0  0  0  0  0  0
    8.0122  -17.8117   26.3095 C   0  0  0  0  0  0  0  0  0  0  0  0
    7.7422  -18.8823   26.9105 O   0  0  0  0  0  0  0  0  0  0  0  0
   10.8660  -15.4087   28.3393 O   0  0  0  0  0  0  0  0  0  0  0  0
   11.3384  -16.3983   27.4983 C   0  0  0  0  0  0  0  0  0  0  0  0
   10.3341  -17.4945   27.2571 C   0  0  2  0  0  0  0  0  0  0  0  0
    9.0642  -17.0267   26.8081 N   0  0  0  0  0  0  0  0  0  0  0  0
   10.1838  -18.2843   28.4955 C   0  0  0  0  0  0  0  0  0  0  0  0
    9.0477  -18.5336   28.9770 O   0  0  0  0  0  0  0  0  0  0  0  0
   11.2853  -18.7838   29.1789 O   0  0  0  0  0  0  0  0  0  0  0  0
  2  1  1  6
  3  2  1  0
  4  3  1  0
  5  4  2  0
  6  5  1  0
  7  6  1  0
  7  8  2  0
  8  4  1  0
  9  2  1  0
  9 10  2  0
 11 12  1  0
 12 14  1  0
 12 13  2  0
 15 14  1  6
 15 16  1  0
 16  9  1  0
 17 15  1  0
 18 17  2  0
 19 20  1  0
 21 20  1  1
 21 22  1  0
 21 23  1  0
 22 17  1  0
 23 24  2  0
 23 25  1  0
M  END
$$$$
