HNS.pdb
     RDKit          3D

 25 25  0  0  1  0  0  0  0  0999 V2000
    7.4959  -16.7894   20.6419 N   0  0  0  0  0  0  0  0  0  0  0  0
    8.3857  -15.9401   21.3715 C   0  0  1  0  0  0  0  0  0  0  0  0
    7.9723  -14.4717   21.3258 C   0  0  0  0  0  0  0  0  0  0  0  0
    8.0540  -13.9857   19.9124 C   0  0  0  0  0  0  0  0  0  0  0  0
    6.9967  -13.5723   19.1274 C   0  0  0  0  0  0  0  0  0  0  0  0
    7.4840  -13.2185   17.9402 N   0  0  0  0  0  0  0  0  0  0  0  0
    8.8094  -13.4043   17.9787 C   0  0  0  0  0  0  0  0  0  0  0  0
    9.1574  -13.8710   19.1779 N   0  0  0  0  0  0  0  0  0  0  0  0
    8.5169  -16.3648   22.8031 C   0  0  0  0  0  0  0  0  0  0  0  0
    7.5095  -16.6050   23.5056 O   0  0  0  0  0  0  0  0  0  0  0  0
    9.4686  -19.2761   23.5389 N   0  0  0  0  0  0  0  0  0  0  0  0
   10.7323  -19.1921   24.1971 C   0  0  0  0  0  0  0  0  0  0  0  0
   11.4753  -20.1959   24.1066 O   0  0  0  0  0  0  0  0  0  0  0  0
   11.0386  -17.9530   24.9091 C   0  0  0  0  0  0  0  0  0  0  0  0
    9.9525  -16.9089   24.8161 C   0  0  2  0  0  0  0  0  0  0  0  0
    9.7878  -16.5132   23.4249 N   0  0  0  0  0  0  0  0  0  0  0  0
   10.2599  -15.7346   25.6802 C   0  0  0  0  0  0  0  0  0  0  0  0
   11.1968  -14.9792   25.3171 O   0  0  0  0  0  0  0  0  0  0  0  0
    8.1583  -12.9817   26.7005 O   0  0  0  0  0  0  0  0  0  0  0  0
    8.7253  -13.3554   27.9040 C   0  0  0  0  0  0  0  0  0  0  0  0
    9.8667  -14.3246   27.7411 C   0  0  2  0  0  0  0  0  0  0  0  0
    9.5802  -15.4134   26.8661 N   0  0  0  0  0  0  0  0  0  0  0  0
   10.2617  -14.8243   29.0731 C   0  0  0  0  0  0  0  0  0  0  0  0
   10.2880  -16.0571   29.3265 O   0  0  0  0  0  0  0  0  0  0  0  0
   10.6194  -13.9586   30.0990 O   0  0  0  0  0  0  0  0  0  0  0  0
  2  1  1  1
  3  2  1  0
  4  3  1  0
  5  4  2  0
  6  5  1  0
  7  6  1  0
  7  8  2  0
  8  4  1  0
  9  2  1  0
  9 10  2  0
 11 12  1  0
 12 14  1  0
 12 13  2  0
 15 14  1  6
 15 16  1  0
 16  9  1  0
 17 15  1  0
 18 17  2  0
 19 20  1  0
 21 20  1  1
 21 22  1  0
 21 23  1  0
 22 17  1  0
 23 24  2  0
 23 25  1  0
M  END
$$$$
