HNS.pdb
     RDKit          3D

 25 25  0  0  1  0  0  0  0  0999 V2000
   10.4464  -16.2549   15.5926 N   0  0  0  0  0  0  0  0  0  0  0  0
   10.5492  -15.2400   16.5950 C   0  0  1  0  0  0  0  0  0  0  0  0
    9.1950  -14.8438   17.1767 C   0  0  0  0  0  0  0  0  0  0  0  0
    8.3274  -14.3160   16.0770 C   0  0  0  0  0  0  0  0  0  0  0  0
    8.0443  -12.9891   15.8241 C   0  0  0  0  0  0  0  0  0  0  0  0
    7.2401  -12.9382   14.7645 N   0  0  0  0  0  0  0  0  0  0  0  0
    7.0245  -14.1974   14.3635 C   0  0  0  0  0  0  0  0  0  0  0  0
    7.6853  -15.0365   15.1611 N   0  0  0  0  0  0  0  0  0  0  0  0
   11.4591  -15.6488   17.7140 C   0  0  0  0  0  0  0  0  0  0  0  0
   11.4779  -16.8249   18.1410 O   0  0  0  0  0  0  0  0  0  0  0  0
   16.9165  -13.9264   19.8421 N   0  0  0  0  0  0  0  0  0  0  0  0
   15.6825  -14.6224   20.0157 C   0  0  0  0  0  0  0  0  0  0  0  0
   15.6482  -15.4752   20.9318 O   0  0  0  0  0  0  0  0  0  0  0  0
   14.5836  -14.2777   19.1159 C   0  0  0  0  0  0  0  0  0  0  0  0
   13.3414  -15.1108   19.3194 C   0  0  2  0  0  0  0  0  0  0  0  0
   12.3388  -14.7213   18.3384 N   0  0  0  0  0  0  0  0  0  0  0  0
   12.8220  -14.9716   20.7090 C   0  0  0  0  0  0  0  0  0  0  0  0
   12.4327  -13.8318   21.0691 O   0  0  0  0  0  0  0  0  0  0  0  0
   10.0721  -17.0531   22.2526 O   0  0  0  0  0  0  0  0  0  0  0  0
   10.6102  -15.9406   22.8712 C   0  0  0  0  0  0  0  0  0  0  0  0
   12.1153  -15.9663   22.9228 C   0  0  2  0  0  0  0  0  0  0  0  0
   12.7369  -16.0186   21.6406 N   0  0  0  0  0  0  0  0  0  0  0  0
   12.5445  -17.1111   23.7505 C   0  0  0  0  0  0  0  0  0  0  0  0
   12.1773  -17.2239   24.9494 O   0  0  0  0  0  0  0  0  0  0  0  0
   13.3684  -18.1080   23.2435 O   0  0  0  0  0  0  0  0  0  0  0  0
  2  1  1  6
  3  2  1  0
  4  3  1  0
  5  4  2  0
  6  5  1  0
  7  6  1  0
  7  8  2  0
  8  4  1  0
  9  2  1  0
  9 10  2  0
 11 12  1  0
 12 14  1  0
 12 13  2  0
 15 14  1  1
 15 16  1  0
 16  9  1  0
 17 15  1  0
 18 17  2  0
 19 20  1  0
 21 20  1  6
 21 22  1  0
 21 23  1  0
 22 17  1  0
 23 24  2  0
 23 25  1  0
M  END
$$$$
