MKR.pdb
     RDKit          3D

 29 28  0  0  1  0  0  0  0  0999 V2000
    5.9882  -10.1790   19.0791 C   0  0  0  0  0  0  0  0  0  0  0  0
    6.3399  -11.8081   19.7890 S   0  0  0  0  0  0  0  0  0  0  0  0
    7.1461  -12.8435   18.5083 C   0  0  0  0  0  0  0  0  0  0  0  0
    7.5736  -14.1356   19.1207 C   0  0  0  0  0  0  0  0  0  0  0  0
    9.0093  -14.4813   18.8471 C   0  0  2  0  0  0  0  0  0  0  0  0
    9.3382  -14.6723   17.4712 N   0  0  0  0  0  0  0  0  0  0  0  0
    9.4742  -15.6487   19.6285 C   0  0  0  0  0  0  0  0  0  0  0  0
    9.1162  -15.8373   20.8232 O   0  0  0  0  0  0  0  0  0  0  0  0
   10.3472  -16.5774   19.0118 N   0  0  0  0  0  0  0  0  0  0  0  0
   10.7952  -17.7914   19.6549 C   0  0  1  0  0  0  0  0  0  0  0  0
   11.6572  -18.5543   18.6733 C   0  0  0  0  0  0  0  0  0  0  0  0
   10.8892  -19.0633   17.5005 C   0  0  0  0  0  0  0  0  0  0  0  0
   11.8065  -19.7979   16.5610 C   0  0  0  0  0  0  0  0  0  0  0  0
   11.1469  -20.3033   15.3193 C   0  0  0  0  0  0  0  0  0  0  0  0
   12.1765  -20.7871   14.3867 N   0  0  0  0  0  0  0  0  0  0  0  0
   11.5446  -17.4946   20.9095 C   0  0  0  0  0  0  0  0  0  0  0  0
   12.5360  -16.7303   20.8565 O   0  0  0  0  0  0  0  0  0  0  0  0
    6.5347  -18.9972   25.7372 N   0  0  0  0  0  0  0  0  0  0  0  0
    6.9802  -17.7544   25.2241 C   0  0  0  0  0  0  0  0  0  0  0  0
    6.1863  -17.1055   24.4280 N   0  0  0  0  0  0  0  0  0  0  0  0
    8.2570  -17.2404   25.5765 N   0  0  0  0  0  0  0  0  0  0  0  0
    8.7815  -16.0531   24.9634 C   0  0  0  0  0  0  0  0  0  0  0  0
    9.8125  -16.3276   23.8862 C   0  0  0  0  0  0  0  0  0  0  0  0
   10.8601  -17.2435   24.4132 C   0  0  0  0  0  0  0  0  0  0  0  0
   11.8901  -17.6877   23.4137 C   0  0  2  0  0  0  0  0  0  0  0  0
   11.1892  -18.0368   22.1670 N   0  0  0  0  0  0  0  0  0  0  0  0
   12.7141  -18.8050   23.8848 C   0  0  0  0  0  0  0  0  0  0  0  0
   12.6186  -19.9942   23.4213 O   0  0  0  0  0  0  0  0  0  0  0  0
   13.6691  -18.6575   24.8797 O   0  0  0  0  0  0  0  0  0  0  0  0
  2  3  1  0
  2  1  1  0
  4  5  1  0
  4  3  1  0
  5  6  1  6
  7  5  1  0
  7  8  2  0
  9  7  1  0
 10  9  1  0
 10 11  1  6
 12 13  1  0
 12 11  1  0
 13 14  1  0
 14 15  1  0
 16 17  2  0
 16 10  1  0
 19 18  1  0
 20 19  2  0
 21 19  1  0
 22 21  1  0
 22 23  1  0
 23 24  1  0
 25 24  1  1
 25 26  1  0
 25 27  1  0
 26 16  1  0
 27 29  1  0
 28 27  2  0
M  END
$$$$
