MKR.pdb
     RDKit          3D

 29 28  0  0  1  0  0  0  0  0999 V2000
    7.6670  -12.1034   27.8330 C   0  0  0  0  0  0  0  0  0  0  0  0
    6.1134  -11.8628   26.9331 S   0  0  0  0  0  0  0  0  0  0  0  0
    6.1039  -12.9726   25.4736 C   0  0  0  0  0  0  0  0  0  0  0  0
    5.6929  -14.3419   25.9020 C   0  0  0  0  0  0  0  0  0  0  0  0
    6.7249  -15.3941   25.6132 C   0  0  2  0  0  0  0  0  0  0  0  0
    8.0150  -15.1521   26.1744 N   0  0  0  0  0  0  0  0  0  0  0  0
    6.8647  -15.6748   24.1671 C   0  0  0  0  0  0  0  0  0  0  0  0
    6.5236  -16.7810   23.6661 O   0  0  0  0  0  0  0  0  0  0  0  0
    7.3985  -14.6684   23.3262 N   0  0  0  0  0  0  0  0  0  0  0  0
    8.1260  -14.9548   22.1110 C   0  0  1  0  0  0  0  0  0  0  0  0
    7.8337  -13.8535   21.1160 C   0  0  0  0  0  0  0  0  0  0  0  0
    8.5349  -14.0469   19.8139 C   0  0  0  0  0  0  0  0  0  0  0  0
    8.2887  -12.8668   18.9137 C   0  0  0  0  0  0  0  0  0  0  0  0
    8.8580  -13.0060   17.5394 C   0  0  0  0  0  0  0  0  0  0  0  0
    8.4657  -14.3100   16.9826 N   0  0  0  0  0  0  0  0  0  0  0  0
    9.5900  -15.0689   22.3707 C   0  0  0  0  0  0  0  0  0  0  0  0
   10.0817  -14.4559   23.3465 O   0  0  0  0  0  0  0  0  0  0  0  0
   12.0443  -21.3704   27.4655 N   0  0  0  0  0  0  0  0  0  0  0  0
   11.8689  -19.9845   27.2308 C   0  0  0  0  0  0  0  0  0  0  0  0
   11.4139  -19.2559   28.2040 N   0  0  0  0  0  0  0  0  0  0  0  0
   12.1852  -19.4176   25.9671 N   0  0  0  0  0  0  0  0  0  0  0  0
   11.1664  -19.1401   24.9946 C   0  0  0  0  0  0  0  0  0  0  0  0
   11.7115  -18.7367   23.6385 C   0  0  0  0  0  0  0  0  0  0  0  0
   10.8158  -17.7245   23.0163 C   0  0  0  0  0  0  0  0  0  0  0  0
   11.4950  -16.7238   22.1250 C   0  0  2  0  0  0  0  0  0  0  0  0
   10.4587  -15.8412   21.5641 N   0  0  0  0  0  0  0  0  0  0  0  0
   12.2937  -17.3399   21.0612 C   0  0  0  0  0  0  0  0  0  0  0  0
   11.8561  -17.5312   19.8737 O   0  0  0  0  0  0  0  0  0  0  0  0
   13.5976  -17.7677   21.2626 O   0  0  0  0  0  0  0  0  0  0  0  0
  2  3  1  0
  2  1  1  0
  4  5  1  0
  4  3  1  0
  5  6  1  6
  7  5  1  0
  7  8  2  0
  9  7  1  0
 10  9  1  0
 10 11  1  6
 12 13  1  0
 12 11  1  0
 13 14  1  0
 14 15  1  0
 16 17  2  0
 16 10  1  0
 19 18  1  0
 20 19  2  0
 21 19  1  0
 22 21  1  0
 22 23  1  0
 23 24  1  0
 25 24  1  6
 25 26  1  0
 25 27  1  0
 26 16  1  0
 27 29  1  0
 28 27  2  0
M  END
$$$$
