MKR.pdb
     RDKit          3D

 29 28  0  0  1  0  0  0  0  0999 V2000
    7.9092  -10.9288   23.8387 C   0  0  0  0  0  0  0  0  0  0  0  0
    7.1529  -12.5515   24.1147 S   0  0  0  0  0  0  0  0  0  0  0  0
    6.2851  -13.0616   22.5820 C   0  0  0  0  0  0  0  0  0  0  0  0
    7.2816  -13.2095   21.4810 C   0  0  0  0  0  0  0  0  0  0  0  0
    7.1660  -14.5109   20.7402 C   0  0  2  0  0  0  0  0  0  0  0  0
    5.8323  -14.9677   20.5162 N   0  0  0  0  0  0  0  0  0  0  0  0
    7.9568  -15.5949   21.3639 C   0  0  0  0  0  0  0  0  0  0  0  0
    7.5116  -16.2757   22.3280 O   0  0  0  0  0  0  0  0  0  0  0  0
    9.2509  -15.8709   20.8599 N   0  0  0  0  0  0  0  0  0  0  0  0
   10.0759  -16.9536   21.3450 C   0  0  1  0  0  0  0  0  0  0  0  0
   11.1018  -17.2773   20.2815 C   0  0  0  0  0  0  0  0  0  0  0  0
   11.9915  -18.4128   20.6603 C   0  0  0  0  0  0  0  0  0  0  0  0
   12.9537  -18.7110   19.5426 C   0  0  0  0  0  0  0  0  0  0  0  0
   13.8827  -19.8498   19.8117 C   0  0  0  0  0  0  0  0  0  0  0  0
   13.0967  -21.0461   20.1510 N   0  0  0  0  0  0  0  0  0  0  0  0
   10.7340  -16.5967   22.6347 C   0  0  0  0  0  0  0  0  0  0  0  0
   11.1616  -15.4298   22.7940 O   0  0  0  0  0  0  0  0  0  0  0  0
   10.0546  -14.7696   29.7082 N   0  0  0  0  0  0  0  0  0  0  0  0
   10.6138  -15.9622   30.2292 C   0  0  0  0  0  0  0  0  0  0  0  0
   11.5617  -15.8552   31.1095 N   0  0  0  0  0  0  0  0  0  0  0  0
   10.1446  -17.2318   29.7974 N   0  0  0  0  0  0  0  0  0  0  0  0
    9.8028  -17.4767   28.4248 C   0  0  0  0  0  0  0  0  0  0  0  0
   10.8814  -17.0598   27.4442 C   0  0  0  0  0  0  0  0  0  0  0  0
   10.4716  -17.4222   26.0604 C   0  0  0  0  0  0  0  0  0  0  0  0
   11.4903  -17.1425   24.9923 C   0  0  2  0  0  0  0  0  0  0  0  0
   10.9010  -17.5170   23.6961 N   0  0  0  0  0  0  0  0  0  0  0  0
   12.7656  -17.8321   25.2095 C   0  0  0  0  0  0  0  0  0  0  0  0
   13.0436  -18.9737   24.7020 O   0  0  0  0  0  0  0  0  0  0  0  0
   13.7783  -17.2951   25.9904 O   0  0  0  0  0  0  0  0  0  0  0  0
  2  3  1  0
  2  1  1  0
  4  5  1  0
  4  3  1  0
  5  6  1  1
  7  5  1  0
  7  8  2  0
  9  7  1  0
 10  9  1  0
 10 11  1  6
 12 13  1  0
 12 11  1  0
 13 14  1  0
 14 15  1  0
 16 17  2  0
 16 10  1  0
 19 18  1  0
 20 19  2  0
 21 19  1  0
 22 21  1  0
 22 23  1  0
 23 24  1  0
 25 24  1  1
 25 26  1  0
 25 27  1  0
 26 16  1  0
 27 29  1  0
 28 27  2  0
M  END
$$$$
