MKR.pdb
     RDKit          3D

 29 28  0  0  1  0  0  0  0  0999 V2000
    7.1188  -11.0287   25.4850 C   0  0  0  0  0  0  0  0  0  0  0  0
    6.0763  -11.6882   26.8116 S   0  0  0  0  0  0  0  0  0  0  0  0
    5.6354  -13.4206   26.4037 C   0  0  0  0  0  0  0  0  0  0  0  0
    6.7681  -14.0538   25.6666 C   0  0  0  0  0  0  0  0  0  0  0  0
    6.4514  -15.4275   25.1485 C   0  0  2  0  0  0  0  0  0  0  0  0
    5.9985  -16.3592   26.1307 N   0  0  0  0  0  0  0  0  0  0  0  0
    7.5723  -16.0233   24.3883 C   0  0  0  0  0  0  0  0  0  0  0  0
    8.3823  -16.8322   24.9180 O   0  0  0  0  0  0  0  0  0  0  0  0
    7.7357  -15.6706   23.0268 N   0  0  0  0  0  0  0  0  0  0  0  0
    8.7475  -16.2510   22.1738 C   0  0  1  0  0  0  0  0  0  0  0  0
    8.5722  -15.6845   20.7821 C   0  0  0  0  0  0  0  0  0  0  0  0
    9.5990  -16.1802   19.8205 C   0  0  0  0  0  0  0  0  0  0  0  0
    9.2794  -17.5902   19.4041 C   0  0  0  0  0  0  0  0  0  0  0  0
   10.1699  -18.1382   18.3368 C   0  0  0  0  0  0  0  0  0  0  0  0
    9.7825  -19.5280   18.0494 N   0  0  0  0  0  0  0  0  0  0  0  0
   10.1174  -15.9781   22.6959 C   0  0  0  0  0  0  0  0  0  0  0  0
   10.5559  -14.8049   22.6620 O   0  0  0  0  0  0  0  0  0  0  0  0
   12.8182  -15.7544   28.6461 N   0  0  0  0  0  0  0  0  0  0  0  0
   11.6223  -16.4300   28.9923 C   0  0  0  0  0  0  0  0  0  0  0  0
   10.7829  -15.8192   29.7718 N   0  0  0  0  0  0  0  0  0  0  0  0
   11.3569  -17.7344   28.4960 N   0  0  0  0  0  0  0  0  0  0  0  0
   11.8828  -18.1775   27.2359 C   0  0  0  0  0  0  0  0  0  0  0  0
   12.1503  -17.0511   26.2569 C   0  0  0  0  0  0  0  0  0  0  0  0
   12.5325  -17.6140   24.9335 C   0  0  0  0  0  0  0  0  0  0  0  0
   12.3009  -16.7090   23.7569 C   0  0  2  0  0  0  0  0  0  0  0  0
   10.9534  -16.9855   23.2321 N   0  0  0  0  0  0  0  0  0  0  0  0
   13.3138  -16.8495   22.7065 C   0  0  0  0  0  0  0  0  0  0  0  0
   13.1939  -17.6512   21.7160 O   0  0  0  0  0  0  0  0  0  0  0  0
   14.4921  -16.1177   22.7063 O   0  0  0  0  0  0  0  0  0  0  0  0
  2  3  1  0
  2  1  1  0
  4  5  1  0
  4  3  1  0
  5  6  1  1
  7  5  1  0
  7  8  2  0
  9  7  1  0
 10  9  1  0
 10 11  1  6
 12 13  1  0
 12 11  1  0
 13 14  1  0
 14 15  1  0
 16 17  2  0
 16 10  1  0
 19 18  1  0
 20 19  2  0
 21 19  1  0
 22 21  1  0
 22 23  1  0
 23 24  1  0
 25 24  1  1
 25 26  1  0
 25 27  1  0
 26 16  1  0
 27 29  1  0
 28 27  2  0
M  END
$$$$
