MKR.pdb
     RDKit          3D

 29 28  0  0  1  0  0  0  0  0999 V2000
    9.1423  -11.7484   19.4206 C   0  0  0  0  0  0  0  0  0  0  0  0
    7.3641  -11.8021   19.7617 S   0  0  0  0  0  0  0  0  0  0  0  0
    6.7720  -13.5199   19.5149 C   0  0  0  0  0  0  0  0  0  0  0  0
    7.6849  -14.4600   20.2291 C   0  0  0  0  0  0  0  0  0  0  0  0
    7.2836  -15.9011   20.0954 C   0  0  2  0  0  0  0  0  0  0  0  0
    5.9793  -16.2176   20.5816 N   0  0  0  0  0  0  0  0  0  0  0  0
    8.2687  -16.8264   20.6978 C   0  0  0  0  0  0  0  0  0  0  0  0
    8.1151  -17.3033   21.8554 O   0  0  0  0  0  0  0  0  0  0  0  0
    9.4160  -17.1824   19.9482 N   0  0  0  0  0  0  0  0  0  0  0  0
   10.5076  -17.9583   20.4909 C   0  0  1  0  0  0  0  0  0  0  0  0
   11.5058  -18.2073   19.3818 C   0  0  0  0  0  0  0  0  0  0  0  0
   11.2574  -19.4851   18.6538 C   0  0  0  0  0  0  0  0  0  0  0  0
   12.2100  -19.6145   17.4964 C   0  0  0  0  0  0  0  0  0  0  0  0
   12.0206  -20.8464   16.6724 C   0  0  0  0  0  0  0  0  0  0  0  0
   13.0591  -20.8971   15.6317 N   0  0  0  0  0  0  0  0  0  0  0  0
   11.1479  -17.2600   21.6425 C   0  0  0  0  0  0  0  0  0  0  0  0
   11.4072  -16.0384   21.5421 O   0  0  0  0  0  0  0  0  0  0  0  0
   10.9377  -15.9687   29.5317 N   0  0  0  0  0  0  0  0  0  0  0  0
   10.2505  -14.8509   28.9980 C   0  0  0  0  0  0  0  0  0  0  0  0
    9.4417  -14.2042   29.7807 N   0  0  0  0  0  0  0  0  0  0  0  0
   10.4476  -14.4558   27.6477 N   0  0  0  0  0  0  0  0  0  0  0  0
    9.9706  -15.2566   26.5559 C   0  0  0  0  0  0  0  0  0  0  0  0
   10.8332  -16.4695   26.2670 C   0  0  0  0  0  0  0  0  0  0  0  0
   10.6163  -16.9196   24.8654 C   0  0  0  0  0  0  0  0  0  0  0  0
   11.8649  -17.1852   24.0732 C   0  0  2  0  0  0  0  0  0  0  0  0
   11.4798  -17.9132   22.8528 N   0  0  0  0  0  0  0  0  0  0  0  0
   12.8855  -17.9215   24.8252 C   0  0  0  0  0  0  0  0  0  0  0  0
   13.5334  -17.4201   25.8086 O   0  0  0  0  0  0  0  0  0  0  0  0
   13.2312  -19.2307   24.5247 O   0  0  0  0  0  0  0  0  0  0  0  0
  2  3  1  0
  2  1  1  0
  4  5  1  0
  4  3  1  0
  5  6  1  1
  7  5  1  0
  7  8  2  0
  9  7  1  0
 10  9  1  0
 10 11  1  6
 12 13  1  0
 12 11  1  0
 13 14  1  0
 14 15  1  0
 16 17  2  0
 16 10  1  0
 19 18  1  0
 20 19  2  0
 21 19  1  0
 22 21  1  0
 22 23  1  0
 23 24  1  0
 25 24  1  1
 25 26  1  0
 25 27  1  0
 26 16  1  0
 27 29  1  0
 28 27  2  0
M  END
$$$$
