MKR.pdb
     RDKit          3D

 29 28  0  0  1  0  0  0  0  0999 V2000
    7.8886  -11.3609   19.1725 C   0  0  0  0  0  0  0  0  0  0  0  0
    7.5113  -12.5673   17.8749 S   0  0  0  0  0  0  0  0  0  0  0  0
    7.6987  -14.2535   18.5703 C   0  0  0  0  0  0  0  0  0  0  0  0
    8.8685  -14.2741   19.4967 C   0  0  0  0  0  0  0  0  0  0  0  0
    9.0282  -15.5750   20.2301 C   0  0  2  0  0  0  0  0  0  0  0  0
    7.8846  -16.4292   20.2107 N   0  0  0  0  0  0  0  0  0  0  0  0
    9.4786  -15.3911   21.6275 C   0  0  0  0  0  0  0  0  0  0  0  0
   10.6997  -15.2909   21.9272 O   0  0  0  0  0  0  0  0  0  0  0  0
    8.5055  -15.3273   22.6541 N   0  0  0  0  0  0  0  0  0  0  0  0
    8.8158  -14.9669   24.0186 C   0  0  1  0  0  0  0  0  0  0  0  0
    7.6417  -14.1965   24.5812 C   0  0  0  0  0  0  0  0  0  0  0  0
    7.8844  -13.6988   25.9661 C   0  0  0  0  0  0  0  0  0  0  0  0
    6.7228  -12.8601   26.4251 C   0  0  0  0  0  0  0  0  0  0  0  0
    6.8759  -12.2864   27.7962 C   0  0  0  0  0  0  0  0  0  0  0  0
    5.6591  -11.5374   28.1463 N   0  0  0  0  0  0  0  0  0  0  0  0
    9.1108  -16.1737   24.8435 C   0  0  0  0  0  0  0  0  0  0  0  0
    8.2348  -17.0629   24.9509 O   0  0  0  0  0  0  0  0  0  0  0  0
   15.4824  -21.4884   23.8605 N   0  0  0  0  0  0  0  0  0  0  0  0
   14.9751  -21.9647   25.0943 C   0  0  0  0  0  0  0  0  0  0  0  0
   15.3518  -23.1413   25.4928 N   0  0  0  0  0  0  0  0  0  0  0  0
   14.0838  -21.1720   25.8660 N   0  0  0  0  0  0  0  0  0  0  0  0
   13.4869  -19.9808   25.3316 C   0  0  0  0  0  0  0  0  0  0  0  0
   12.7238  -19.1676   26.3589 C   0  0  0  0  0  0  0  0  0  0  0  0
   12.1185  -17.9742   25.7080 C   0  0  0  0  0  0  0  0  0  0  0  0
   10.7174  -17.6460   26.1393 C   0  0  2  0  0  0  0  0  0  0  0  0
   10.3404  -16.3665   25.5161 N   0  0  0  0  0  0  0  0  0  0  0  0
   10.5546  -17.5904   27.5952 C   0  0  0  0  0  0  0  0  0  0  0  0
   10.4236  -16.4969   28.2473 O   0  0  0  0  0  0  0  0  0  0  0  0
   10.5308  -18.7300   28.3854 O   0  0  0  0  0  0  0  0  0  0  0  0
  2  3  1  0
  2  1  1  0
  4  5  1  0
  4  3  1  0
  5  6  1  1
  7  5  1  0
  7  8  2  0
  9  7  1  0
 10  9  1  0
 10 11  1  1
 12 13  1  0
 12 11  1  0
 13 14  1  0
 14 15  1  0
 16 17  2  0
 16 10  1  0
 19 18  1  0
 20 19  2  0
 21 19  1  0
 22 21  1  0
 22 23  1  0
 23 24  1  0
 25 24  1  1
 25 26  1  0
 25 27  1  0
 26 16  1  0
 27 29  1  0
 28 27  2  0
M  END
$$$$
