MKR.pdb
     RDKit          3D

 29 28  0  0  1  0  0  0  0  0999 V2000
    8.3159  -11.7229   19.9359 C   0  0  0  0  0  0  0  0  0  0  0  0
    7.2161  -13.1498   19.7467 S   0  0  0  0  0  0  0  0  0  0  0  0
    7.7260  -14.0890   18.2567 C   0  0  0  0  0  0  0  0  0  0  0  0
    8.1652  -15.4555   18.6654 C   0  0  0  0  0  0  0  0  0  0  0  0
    9.6299  -15.5423   18.9861 C   0  0  2  0  0  0  0  0  0  0  0  0
   10.5031  -15.5136   17.8571 N   0  0  0  0  0  0  0  0  0  0  0  0
    9.9609  -16.7104   19.8318 C   0  0  0  0  0  0  0  0  0  0  0  0
    9.3675  -16.9343   20.9221 O   0  0  0  0  0  0  0  0  0  0  0  0
   10.9751  -17.5990   19.3995 N   0  0  0  0  0  0  0  0  0  0  0  0
   11.4001  -18.7488   20.1647 C   0  0  1  0  0  0  0  0  0  0  0  0
   12.3864  -19.5333   19.3279 C   0  0  0  0  0  0  0  0  0  0  0  0
   12.7959  -20.8177   19.9660 C   0  0  0  0  0  0  0  0  0  0  0  0
   13.8081  -21.5232   19.1050 C   0  0  0  0  0  0  0  0  0  0  0  0
   14.2929  -22.8240   19.6576 C   0  0  0  0  0  0  0  0  0  0  0  0
   15.3240  -23.3751   18.7648 N   0  0  0  0  0  0  0  0  0  0  0  0
   12.0051  -18.3401   21.4650 C   0  0  0  0  0  0  0  0  0  0  0  0
   13.0241  -17.6112   21.4565 O   0  0  0  0  0  0  0  0  0  0  0  0
    6.3858  -16.5766   23.8353 N   0  0  0  0  0  0  0  0  0  0  0  0
    7.1377  -15.3769   23.7951 C   0  0  0  0  0  0  0  0  0  0  0  0
    6.8450  -14.5064   22.8777 N   0  0  0  0  0  0  0  0  0  0  0  0
    8.1770  -15.1410   24.7345 N   0  0  0  0  0  0  0  0  0  0  0  0
    8.9993  -16.2102   25.2258 C   0  0  0  0  0  0  0  0  0  0  0  0
   10.1419  -16.5761   24.2987 C   0  0  0  0  0  0  0  0  0  0  0  0
   10.8588  -17.7675   24.8286 C   0  0  0  0  0  0  0  0  0  0  0  0
   12.0162  -18.2452   23.9985 C   0  0  2  0  0  0  0  0  0  0  0  0
   11.4817  -18.7372   22.7179 N   0  0  0  0  0  0  0  0  0  0  0  0
   12.8228  -19.2740   24.6621 C   0  0  0  0  0  0  0  0  0  0  0  0
   13.7633  -19.0067   25.4880 O   0  0  0  0  0  0  0  0  0  0  0  0
   12.6270  -20.6294   24.4426 O   0  0  0  0  0  0  0  0  0  0  0  0
  2  3  1  0
  2  1  1  0
  4  5  1  0
  4  3  1  0
  5  6  1  6
  7  5  1  0
  7  8  2  0
  9  7  1  0
 10  9  1  0
 10 11  1  6
 12 13  1  0
 12 11  1  0
 13 14  1  0
 14 15  1  0
 16 17  2  0
 16 10  1  0
 19 18  1  0
 20 19  2  0
 21 19  1  0
 22 21  1  0
 22 23  1  0
 23 24  1  0
 25 24  1  1
 25 26  1  0
 25 27  1  0
 26 16  1  0
 27 29  1  0
 28 27  2  0
M  END
$$$$
