MKR.pdb
     RDKit          3D

 29 28  0  0  1  0  0  0  0  0999 V2000
    8.8400  -11.6107   21.2814 C   0  0  0  0  0  0  0  0  0  0  0  0
    7.2688  -11.8002   20.3999 S   0  0  0  0  0  0  0  0  0  0  0  0
    7.0440  -13.5703   19.9776 C   0  0  0  0  0  0  0  0  0  0  0  0
    7.5622  -14.4106   21.0968 C   0  0  0  0  0  0  0  0  0  0  0  0
    7.4991  -15.8849   20.8169 C   0  0  2  0  0  0  0  0  0  0  0  0
    6.3277  -16.3247   20.1298 N   0  0  0  0  0  0  0  0  0  0  0  0
    7.6908  -16.7055   22.0331 C   0  0  0  0  0  0  0  0  0  0  0  0
    6.7843  -16.8343   22.9008 O   0  0  0  0  0  0  0  0  0  0  0  0
    8.9305  -17.3624   22.2234 N   0  0  0  0  0  0  0  0  0  0  0  0
    9.2349  -18.1579   23.3908 C   0  0  1  0  0  0  0  0  0  0  0  0
   10.1501  -19.2855   22.9672 C   0  0  0  0  0  0  0  0  0  0  0  0
    9.4682  -20.2931   22.1046 C   0  0  0  0  0  0  0  0  0  0  0  0
   10.4691  -21.2864   21.5796 C   0  0  0  0  0  0  0  0  0  0  0  0
    9.8838  -22.3644   20.7267 C   0  0  0  0  0  0  0  0  0  0  0  0
   10.9647  -23.2313   20.2325 N   0  0  0  0  0  0  0  0  0  0  0  0
    9.8623  -17.3305   24.4610 C   0  0  0  0  0  0  0  0  0  0  0  0
   10.6435  -16.4073   24.1334 O   0  0  0  0  0  0  0  0  0  0  0  0
    5.9715  -12.7447   25.9343 N   0  0  0  0  0  0  0  0  0  0  0  0
    7.2036  -12.0601   25.7940 C   0  0  0  0  0  0  0  0  0  0  0  0
    7.3264  -11.2257   24.8071 N   0  0  0  0  0  0  0  0  0  0  0  0
    8.2659  -12.2844   26.7102 N   0  0  0  0  0  0  0  0  0  0  0  0
    8.4141  -13.5386   27.3926 C   0  0  0  0  0  0  0  0  0  0  0  0
    9.3289  -14.5158   26.6804 C   0  0  0  0  0  0  0  0  0  0  0  0
    9.4291  -15.7758   27.4655 C   0  0  0  0  0  0  0  0  0  0  0  0
   10.3484  -16.8187   26.8961 C   0  0  2  0  0  0  0  0  0  0  0  0
    9.6176  -17.5372   25.8391 N   0  0  0  0  0  0  0  0  0  0  0  0
   10.8671  -17.7495   27.9030 C   0  0  0  0  0  0  0  0  0  0  0  0
   10.4077  -18.9323   28.0709 O   0  0  0  0  0  0  0  0  0  0  0  0
   11.9053  -17.4157   28.7601 O   0  0  0  0  0  0  0  0  0  0  0  0
  2  3  1  0
  2  1  1  0
  4  5  1  0
  4  3  1  0
  5  6  1  1
  7  5  1  0
  7  8  2  0
  9  7  1  0
 10  9  1  0
 10 11  1  6
 12 13  1  0
 12 11  1  0
 13 14  1  0
 14 15  1  0
 16 17  2  0
 16 10  1  0
 19 18  1  0
 20 19  2  0
 21 19  1  0
 22 21  1  0
 22 23  1  0
 23 24  1  0
 25 24  1  1
 25 26  1  0
 25 27  1  0
 26 16  1  0
 27 29  1  0
 28 27  2  0
M  END
$$$$
