IRS.pdb
     RDKit          3D

 26 25  0  0  1  0  0  0  0  0999 V2000
   14.9183  -27.5151   -3.2753 C   0  0  0  0  0  0  0  0  0  0  0  0
   15.6866  -26.2904   -2.7800 C   0  0  0  0  0  0  0  0  0  0  0  0
   16.3577  -25.5872   -3.9635 C   0  0  2  0  0  0  0  0  0  0  0  0
   15.3312  -25.4639   -5.0540 C   0  0  0  0  0  0  0  0  0  0  0  0
   17.5147  -26.4705   -4.3621 C   0  0  2  0  0  0  0  0  0  0  0  0
   18.4567  -26.5006   -3.2671 N   0  0  0  0  0  0  0  0  0  0  0  0
   18.1826  -26.0707   -5.5991 C   0  0  0  0  0  0  0  0  0  0  0  0
   19.0865  -25.1966   -5.6672 O   0  0  0  0  0  0  0  0  0  0  0  0
   19.5402  -29.6340  -13.1068 N   0  0  0  0  0  0  0  0  0  0  0  0
   20.7618  -28.9276  -12.9889 C   0  0  0  0  0  0  0  0  0  0  0  0
   21.4882  -28.7169  -14.0344 N   0  0  0  0  0  0  0  0  0  0  0  0
   21.2455  -28.4155  -11.7522 N   0  0  0  0  0  0  0  0  0  0  0  0
   20.5539  -28.6072  -10.4833 C   0  0  0  0  0  0  0  0  0  0  0  0
   19.9075  -27.3636   -9.9989 C   0  0  0  0  0  0  0  0  0  0  0  0
   19.2528  -27.5416   -8.6706 C   0  0  0  0  0  0  0  0  0  0  0  0
   18.5208  -26.4110   -8.0770 C   0  0  2  0  0  0  0  0  0  0  0  0
   17.8196  -26.6817   -6.8302 N   0  0  0  0  0  0  0  0  0  0  0  0
   17.4872  -25.9164   -9.0803 C   0  0  0  0  0  0  0  0  0  0  0  0
   16.4644  -26.5552   -9.3604 O   0  0  0  0  0  0  0  0  0  0  0  0
   22.3725  -28.1778  -14.0201 O   0  0  0  0  0  0  0  0  0  0  0  0
   17.8514  -22.0643  -10.4119 C   0  0  0  0  0  0  0  0  0  0  0  0
   16.5844  -22.6327  -10.4308 C   0  0  1  0  0  0  0  0  0  0  0  0
   16.6864  -24.1214  -10.5947 N   0  0  0  0  0  0  0  0  0  0  0  0
   17.7189  -24.6749   -9.7083 C   0  0  0  0  0  0  0  0  0  0  0  0
   16.9676  -24.4945  -12.0055 O   0  0  0  0  0  0  0  0  0  0  0  0
   16.0841  -24.1725  -13.0230 O   0  0  0  0  0  0  0  0  0  0  0  0
  2  1  1  0
  2  3  1  0
  3  4  1  6
  5  3  1  0
  5  6  1  1
  7  5  1  0
  7  8  2  0
  9 10  1  0
 10 11  2  0
 12 10  1  0
 12 13  1  0
 14 15  1  0
 14 13  1  0
 16 15  1  6
 16 18  1  0
 16 17  1  0
 17  7  1  0
 18 19  2  0
 21 20  1  0
 22 21  1  1
 23 22  1  0
 23 18  1  0
 24 22  1  0
 25 24  1  0
 26 24  2  0
M  END
$$$$
