IRS.pdb
     RDKit          3D

 26 25  0  0  1  0  0  0  0  0999 V2000
   18.5209  -11.0759  -15.5759 C   0  0  0  0  0  0  0  0  0  0  0  0
   18.8442  -10.4798  -14.2064 C   0  0  0  0  0  0  0  0  0  0  0  0
   17.6498   -9.6646  -13.7020 C   0  0  2  0  0  0  0  0  0  0  0  0
   17.3314   -8.6373  -14.7515 C   0  0  0  0  0  0  0  0  0  0  0  0
   18.0999   -9.0386  -12.4046 C   0  0  2  0  0  0  0  0  0  0  0  0
   18.4394  -10.1007  -11.4859 N   0  0  0  0  0  0  0  0  0  0  0  0
   17.1251   -8.1329  -11.8000 C   0  0  0  0  0  0  0  0  0  0  0  0
   16.6952   -7.0841  -12.3486 O   0  0  0  0  0  0  0  0  0  0  0  0
   10.3900  -10.3010   -6.4088 N   0  0  0  0  0  0  0  0  0  0  0  0
   10.0890   -9.8292   -7.7096 C   0  0  0  0  0  0  0  0  0  0  0  0
    8.9148  -10.0212   -8.2094 N   0  0  0  0  0  0  0  0  0  0  0  0
   11.0286   -9.1295   -8.5178 N   0  0  0  0  0  0  0  0  0  0  0  0
   12.4491   -9.0466   -8.2007 C   0  0  0  0  0  0  0  0  0  0  0  0
   13.2213   -8.3373   -9.2493 C   0  0  0  0  0  0  0  0  0  0  0  0
   14.6788   -8.2736   -8.9390 C   0  0  0  0  0  0  0  0  0  0  0  0
   15.5808   -7.5890   -9.8792 C   0  0  2  0  0  0  0  0  0  0  0  0
   16.6015   -8.4144  -10.5087 N   0  0  0  0  0  0  0  0  0  0  0  0
   16.2977   -6.4666   -9.1403 C   0  0  0  0  0  0  0  0  0  0  0  0
   17.4849   -6.5400   -8.7972 O   0  0  0  0  0  0  0  0  0  0  0  0
    8.6241   -9.6760   -9.1416 O   0  0  0  0  0  0  0  0  0  0  0  0
   17.8791   -2.5000   -9.3111 C   0  0  0  0  0  0  0  0  0  0  0  0
   17.2774   -3.7211   -9.5859 C   0  0  1  0  0  0  0  0  0  0  0  0
   16.2911   -4.0671   -8.5084 N   0  0  0  0  0  0  0  0  0  0  0  0
   15.5641   -5.2993   -8.8420 C   0  0  0  0  0  0  0  0  0  0  0  0
   15.3342   -2.9552   -8.2705 O   0  0  0  0  0  0  0  0  0  0  0  0
   15.6241   -1.9374   -7.3764 O   0  0  0  0  0  0  0  0  0  0  0  0
  2  1  1  0
  2  3  1  0
  3  4  1  6
  5  3  1  0
  5  6  1  1
  7  5  1  0
  7  8  2  0
  9 10  1  0
 10 11  2  0
 12 10  1  0
 12 13  1  0
 14 15  1  0
 14 13  1  0
 16 15  1  1
 16 18  1  0
 16 17  1  0
 17  7  1  0
 18 19  2  0
 21 20  1  0
 22 21  1  1
 23 22  1  0
 23 18  1  0
 24 22  1  0
 25 24  1  0
 26 24  2  0
M  END
$$$$
