IRS.pdb
     RDKit          3D

 26 25  0  0  1  0  0  0  0  0999 V2000
   26.0194  -22.8204  -15.8544 C   0  0  0  0  0  0  0  0  0  0  0  0
   25.3926  -23.9712  -15.0680 C   0  0  0  0  0  0  0  0  0  0  0  0
   23.8665  -23.8995  -15.1742 C   0  0  2  0  0  0  0  0  0  0  0  0
   23.4354  -22.5890  -14.5784 C   0  0  0  0  0  0  0  0  0  0  0  0
   23.3457  -25.0826  -14.3954 C   0  0  2  0  0  0  0  0  0  0  0  0
   23.8813  -26.2850  -14.9909 N   0  0  0  0  0  0  0  0  0  0  0  0
   21.8885  -25.1589  -14.3136 C   0  0  0  0  0  0  0  0  0  0  0  0
   21.1234  -25.2115  -15.3124 O   0  0  0  0  0  0  0  0  0  0  0  0
   19.0858  -26.4914   -7.5735 N   0  0  0  0  0  0  0  0  0  0  0  0
   18.2642  -25.3614   -7.8046 C   0  0  0  0  0  0  0  0  0  0  0  0
   18.1828  -24.4306   -6.9145 N   0  0  0  0  0  0  0  0  0  0  0  0
   17.5080  -25.1829   -8.9970 N   0  0  0  0  0  0  0  0  0  0  0  0
   17.4336  -26.1852  -10.0529 C   0  0  0  0  0  0  0  0  0  0  0  0
   17.8020  -25.6358  -11.3801 C   0  0  0  0  0  0  0  0  0  0  0  0
   19.2673  -25.7195  -11.6450 C   0  0  0  0  0  0  0  0  0  0  0  0
   19.8018  -25.1528  -12.8939 C   0  0  2  0  0  0  0  0  0  0  0  0
   21.2496  -25.1768  -13.0439 N   0  0  0  0  0  0  0  0  0  0  0  0
   19.3589  -23.6996  -13.0008 C   0  0  0  0  0  0  0  0  0  0  0  0
   19.9652  -22.7709  -12.4507 O   0  0  0  0  0  0  0  0  0  0  0  0
   17.5879  -23.5889   -7.0166 O   0  0  0  0  0  0  0  0  0  0  0  0
   17.4989  -22.3601  -16.2941 C   0  0  0  0  0  0  0  0  0  0  0  0
   18.1544  -21.5658  -15.3625 C   0  0  1  0  0  0  0  0  0  0  0  0
   17.8172  -22.0141  -13.9701 N   0  0  0  0  0  0  0  0  0  0  0  0
   18.2071  -23.4154  -13.7638 C   0  0  0  0  0  0  0  0  0  0  0  0
   16.3713  -21.8352  -13.6771 O   0  0  0  0  0  0  0  0  0  0  0  0
   15.5719  -22.9103  -13.3242 O   0  0  0  0  0  0  0  0  0  0  0  0
  2  1  1  0
  2  3  1  0
  3  4  1  1
  5  3  1  0
  5  6  1  6
  7  5  1  0
  7  8  2  0
  9 10  1  0
 10 11  2  0
 12 10  1  0
 12 13  1  0
 14 15  1  0
 14 13  1  0
 16 15  1  1
 16 18  1  0
 16 17  1  0
 17  7  1  0
 18 19  2  0
 21 20  1  0
 22 21  1  1
 23 22  1  0
 23 18  1  0
 24 22  1  0
 25 24  1  0
 26 24  2  0
M  END
$$$$
