IRS.pdb
     RDKit          3D

 26 25  0  0  1  0  0  0  0  0999 V2000
   26.4697  -19.8757   -6.4387 C   0  0  0  0  0  0  0  0  0  0  0  0
   25.3922  -19.8039   -7.5201 C   0  0  0  0  0  0  0  0  0  0  0  0
   25.8889  -20.4972   -8.7921 C   0  0  2  0  0  0  0  0  0  0  0  0
   27.2132  -19.8840   -9.1506 C   0  0  0  0  0  0  0  0  0  0  0  0
   24.8338  -20.2365   -9.8393 C   0  0  2  0  0  0  0  0  0  0  0  0
   23.6410  -20.9620   -9.4674 N   0  0  0  0  0  0  0  0  0  0  0  0
   25.2361  -20.5798  -11.2017 C   0  0  0  0  0  0  0  0  0  0  0  0
   26.1357  -19.9812  -11.8483 O   0  0  0  0  0  0  0  0  0  0  0  0
   25.7483  -26.5613  -16.8129 N   0  0  0  0  0  0  0  0  0  0  0  0
   26.0384  -25.3540  -17.4938 C   0  0  0  0  0  0  0  0  0  0  0  0
   25.9009  -25.2874  -18.7752 N   0  0  0  0  0  0  0  0  0  0  0  0
   26.4775  -24.1747  -16.8290 N   0  0  0  0  0  0  0  0  0  0  0  0
   26.2220  -23.9112  -15.4182 C   0  0  0  0  0  0  0  0  0  0  0  0
   24.7797  -23.7200  -15.1315 C   0  0  0  0  0  0  0  0  0  0  0  0
   24.5271  -23.3301  -13.7143 C   0  0  0  0  0  0  0  0  0  0  0  0
   24.8597  -21.9641  -13.2783 C   0  0  2  0  0  0  0  0  0  0  0  0
   24.5965  -21.6524  -11.8808 N   0  0  0  0  0  0  0  0  0  0  0  0
   24.0656  -20.9745  -14.1208 C   0  0  0  0  0  0  0  0  0  0  0  0
   22.8878  -20.6801  -13.8782 O   0  0  0  0  0  0  0  0  0  0  0  0
   26.1517  -24.4543  -19.3371 O   0  0  0  0  0  0  0  0  0  0  0  0
   24.0988  -17.2664  -17.0584 C   0  0  0  0  0  0  0  0  0  0  0  0
   24.7717  -18.1432  -16.2176 C   0  0  1  0  0  0  0  0  0  0  0  0
   23.9766  -19.4041  -16.0398 N   0  0  0  0  0  0  0  0  0  0  0  0
   24.7140  -20.3754  -15.2208 C   0  0  0  0  0  0  0  0  0  0  0  0
   23.6142  -20.0068  -17.3489 O   0  0  0  0  0  0  0  0  0  0  0  0
   22.6049  -19.4701  -18.1317 O   0  0  0  0  0  0  0  0  0  0  0  0
  2  1  1  0
  2  3  1  0
  3  4  1  6
  5  3  1  0
  5  6  1  1
  7  5  1  0
  7  8  2  0
  9 10  1  0
 10 11  2  0
 12 10  1  0
 12 13  1  0
 14 15  1  0
 14 13  1  0
 16 15  1  6
 16 18  1  0
 16 17  1  0
 17  7  1  0
 18 19  2  0
 21 20  1  0
 22 21  1  1
 23 22  1  0
 23 18  1  0
 24 22  1  0
 25 24  1  0
 26 24  2  0
M  END
$$$$
