IRS.pdb
     RDKit          3D

 26 25  0  0  1  0  0  0  0  0999 V2000
   24.6603  -13.8376  -19.1406 C   0  0  0  0  0  0  0  0  0  0  0  0
   24.8487  -12.8638  -17.9780 C   0  0  0  0  0  0  0  0  0  0  0  0
   23.6475  -11.9172  -17.8964 C   0  0  2  0  0  0  0  0  0  0  0  0
   23.5685  -11.1774  -19.2020 C   0  0  0  0  0  0  0  0  0  0  0  0
   23.9286  -10.9983  -16.7325 C   0  0  2  0  0  0  0  0  0  0  0  0
   24.0951  -11.8091  -15.5484 N   0  0  0  0  0  0  0  0  0  0  0  0
   22.9098   -9.9742  -16.5107 C   0  0  0  0  0  0  0  0  0  0  0  0
   22.6362   -9.0564  -17.3284 O   0  0  0  0  0  0  0  0  0  0  0  0
   15.6385   -9.7067  -11.0282 N   0  0  0  0  0  0  0  0  0  0  0  0
   15.4928   -8.7968  -12.1034 C   0  0  0  0  0  0  0  0  0  0  0  0
   14.3616   -8.2078  -12.3008 N   0  0  0  0  0  0  0  0  0  0  0  0
   16.5517   -8.4788  -12.9995 N   0  0  0  0  0  0  0  0  0  0  0  0
   17.7413   -9.3069  -13.1559 C   0  0  0  0  0  0  0  0  0  0  0  0
   18.7771   -8.6551  -13.9933 C   0  0  0  0  0  0  0  0  0  0  0  0
   19.9575   -9.5359  -14.2282 C   0  0  0  0  0  0  0  0  0  0  0  0
   21.0632   -9.0418  -15.0648 C   0  0  2  0  0  0  0  0  0  0  0  0
   22.1540   -9.9750  -15.3068 N   0  0  0  0  0  0  0  0  0  0  0  0
   21.6615   -7.8063  -14.4051 C   0  0  0  0  0  0  0  0  0  0  0  0
   22.7352   -7.8277  -13.7891 O   0  0  0  0  0  0  0  0  0  0  0  0
   14.1951   -7.5243  -13.0609 O   0  0  0  0  0  0  0  0  0  0  0  0
   23.5209   -4.0416  -15.0668 C   0  0  0  0  0  0  0  0  0  0  0  0
   22.8805   -5.2653  -15.2120 C   0  0  1  0  0  0  0  0  0  0  0  0
   21.6715   -5.3263  -14.3242 N   0  0  0  0  0  0  0  0  0  0  0  0
   20.9504   -6.5927  -14.5102 C   0  0  0  0  0  0  0  0  0  0  0  0
   20.7610   -4.1770  -14.5666 O   0  0  0  0  0  0  0  0  0  0  0  0
   20.8855   -2.9987  -13.8487 O   0  0  0  0  0  0  0  0  0  0  0  0
  2  1  1  0
  2  3  1  0
  3  4  1  6
  5  3  1  0
  5  6  1  1
  7  5  1  0
  7  8  2  0
  9 10  1  0
 10 11  2  0
 12 10  1  0
 12 13  1  0
 14 15  1  0
 14 13  1  0
 16 15  1  1
 16 18  1  0
 16 17  1  0
 17  7  1  0
 18 19  2  0
 21 20  1  0
 22 21  1  1
 23 22  1  0
 23 18  1  0
 24 22  1  0
 25 24  1  0
 26 24  2  0
M  END
$$$$
