IRS.pdb
     RDKit          3D

 26 25  0  0  1  0  0  0  0  0999 V2000
   23.4715   -9.1483  -14.8812 C   0  0  0  0  0  0  0  0  0  0  0  0
   22.0557   -9.5908  -15.2486 C   0  0  0  0  0  0  0  0  0  0  0  0
   21.6916  -10.8585  -14.4702 C   0  0  2  0  0  0  0  0  0  0  0  0
   22.5771  -11.9640  -14.9720 C   0  0  0  0  0  0  0  0  0  0  0  0
   20.2332  -11.1141  -14.7629 C   0  0  2  0  0  0  0  0  0  0  0  0
   20.0920  -11.3432  -16.1824 N   0  0  0  0  0  0  0  0  0  0  0  0
   19.3329  -10.0491  -14.3257 C   0  0  0  0  0  0  0  0  0  0  0  0
   18.8273   -9.1877  -15.0926 O   0  0  0  0  0  0  0  0  0  0  0  0
   16.0546   -6.3632   -7.9564 N   0  0  0  0  0  0  0  0  0  0  0  0
   14.7909   -6.5822   -8.5568 C   0  0  0  0  0  0  0  0  0  0  0  0
   13.8854   -5.6641   -8.5065 N   0  0  0  0  0  0  0  0  0  0  0  0
   14.4536   -7.7855   -9.2378 N   0  0  0  0  0  0  0  0  0  0  0  0
   15.4468   -8.7504   -9.6936 C   0  0  0  0  0  0  0  0  0  0  0  0
   16.2829   -8.2213  -10.7982 C   0  0  0  0  0  0  0  0  0  0  0  0
   17.2733   -9.2208  -11.2926 C   0  0  0  0  0  0  0  0  0  0  0  0
   18.1186   -8.8787  -12.4480 C   0  0  2  0  0  0  0  0  0  0  0  0
   18.9777   -9.9397  -12.9536 N   0  0  0  0  0  0  0  0  0  0  0  0
   19.0179   -7.7100  -12.0674 C   0  0  0  0  0  0  0  0  0  0  0  0
   19.9379   -7.8109  -11.2452 O   0  0  0  0  0  0  0  0  0  0  0  0
   12.9791   -5.7235   -9.0042 O   0  0  0  0  0  0  0  0  0  0  0  0
   22.1114   -5.0631  -13.2890 C   0  0  0  0  0  0  0  0  0  0  0  0
   21.1265   -6.0403  -13.2305 C   0  0  1  0  0  0  0  0  0  0  0  0
   19.8498   -5.4585  -12.6965 N   0  0  0  0  0  0  0  0  0  0  0  0
   18.7804   -6.4657  -12.6878 C   0  0  0  0  0  0  0  0  0  0  0  0
   19.4269   -4.2676  -13.4783 O   0  0  0  0  0  0  0  0  0  0  0  0
   19.9483   -3.0119  -13.2124 O   0  0  0  0  0  0  0  0  0  0  0  0
  2  1  1  0
  2  3  1  0
  3  4  1  6
  5  3  1  0
  5  6  1  6
  7  5  1  0
  7  8  2  0
  9 10  1  0
 10 11  2  0
 12 10  1  0
 12 13  1  0
 14 15  1  0
 14 13  1  0
 16 15  1  1
 16 18  1  0
 16 17  1  0
 17  7  1  0
 18 19  2  0
 21 20  1  0
 22 21  1  1
 23 22  1  0
 23 18  1  0
 24 22  1  0
 25 24  1  0
 26 24  2  0
M  END
$$$$
