IRS.pdb
     RDKit          3D

 26 25  0  0  1  0  0  0  0  0999 V2000
   18.1966  -10.7520  -14.8272 C   0  0  0  0  0  0  0  0  0  0  0  0
   18.5778  -10.2068  -13.4514 C   0  0  0  0  0  0  0  0  0  0  0  0
   17.4702   -9.2833  -12.9359 C   0  0  2  0  0  0  0  0  0  0  0  0
   17.2624   -8.2109  -13.9678 C   0  0  0  0  0  0  0  0  0  0  0  0
   17.9756   -8.7290  -11.6263 C   0  0  2  0  0  0  0  0  0  0  0  0
   18.0639   -9.8175  -10.6804 N   0  0  0  0  0  0  0  0  0  0  0  0
   17.1684   -7.6408  -11.0783 C   0  0  0  0  0  0  0  0  0  0  0  0
   16.9261   -6.5629  -11.6827 O   0  0  0  0  0  0  0  0  0  0  0  0
    9.9989   -9.1509   -6.3659 N   0  0  0  0  0  0  0  0  0  0  0  0
   10.3504   -9.7970   -7.5760 C   0  0  0  0  0  0  0  0  0  0  0  0
    9.5769  -10.7036   -8.0710 N   0  0  0  0  0  0  0  0  0  0  0  0
   11.5353   -9.4917   -8.3027 N   0  0  0  0  0  0  0  0  0  0  0  0
   12.5863   -8.6224   -7.7877 C   0  0  0  0  0  0  0  0  0  0  0  0
   13.6032   -8.2953   -8.8162 C   0  0  0  0  0  0  0  0  0  0  0  0
   14.6374   -7.3455   -8.3134 C   0  0  0  0  0  0  0  0  0  0  0  0
   15.6342   -6.8098   -9.2546 C   0  0  2  0  0  0  0  0  0  0  0  0
   16.6000   -7.7634   -9.7812 N   0  0  0  0  0  0  0  0  0  0  0  0
   16.4200   -5.7058   -8.5593 C   0  0  0  0  0  0  0  0  0  0  0  0
   17.4611   -5.9205   -7.9249 O   0  0  0  0  0  0  0  0  0  0  0  0
    9.7930  -11.2342   -8.9338 O   0  0  0  0  0  0  0  0  0  0  0  0
   17.8985   -2.6539  -10.1335 C   0  0  0  0  0  0  0  0  0  0  0  0
   18.0684   -3.2264   -8.8797 C   0  0  1  0  0  0  0  0  0  0  0  0
   16.7561   -3.2813   -8.1527 N   0  0  0  0  0  0  0  0  0  0  0  0
   15.9281   -4.3871   -8.6523 C   0  0  0  0  0  0  0  0  0  0  0  0
   16.0184   -1.9961   -8.2657 O   0  0  0  0  0  0  0  0  0  0  0  0
   16.4893   -0.8424   -7.6604 O   0  0  0  0  0  0  0  0  0  0  0  0
  2  1  1  0
  2  3  1  0
  3  4  1  6
  5  3  1  0
  5  6  1  1
  7  5  1  0
  7  8  2  0
  9 10  1  0
 10 11  2  0
 12 10  1  0
 12 13  1  0
 14 15  1  0
 14 13  1  0
 16 15  1  1
 16 18  1  0
 16 17  1  0
 17  7  1  0
 18 19  2  0
 21 20  1  0
 22 21  1  1
 23 22  1  0
 23 18  1  0
 24 22  1  0
 25 24  1  0
 26 24  2  0
M  END
$$$$
