IRS.pdb
     RDKit          3D

 26 25  0  0  1  0  0  0  0  0999 V2000
   27.8485  -21.0938  -11.2877 C   0  0  0  0  0  0  0  0  0  0  0  0
   26.6066  -20.2049  -11.3438 C   0  0  0  0  0  0  0  0  0  0  0  0
   25.3649  -21.0659  -11.5931 C   0  0  2  0  0  0  0  0  0  0  0  0
   25.6062  -21.8487  -12.8530 C   0  0  0  0  0  0  0  0  0  0  0  0
   24.2158  -20.0973  -11.7308 C   0  0  2  0  0  0  0  0  0  0  0  0
   24.0751  -19.3847  -10.4819 N   0  0  0  0  0  0  0  0  0  0  0  0
   22.9470  -20.7144  -12.1121 C   0  0  0  0  0  0  0  0  0  0  0  0
   22.7857  -21.4325  -13.1339 O   0  0  0  0  0  0  0  0  0  0  0  0
   18.6357  -24.7710   -8.9287 N   0  0  0  0  0  0  0  0  0  0  0  0
   18.5902  -24.2041   -7.6318 C   0  0  0  0  0  0  0  0  0  0  0  0
   18.6746  -24.9643   -6.5925 N   0  0  0  0  0  0  0  0  0  0  0  0
   18.4609  -22.8057   -7.4006 N   0  0  0  0  0  0  0  0  0  0  0  0
   18.4324  -21.8183   -8.4727 C   0  0  0  0  0  0  0  0  0  0  0  0
   19.5590  -21.9835   -9.4227 C   0  0  0  0  0  0  0  0  0  0  0  0
   19.4746  -21.0417  -10.5762 C   0  0  0  0  0  0  0  0  0  0  0  0
   20.5010  -21.1069  -11.6291 C   0  0  2  0  0  0  0  0  0  0  0  0
   21.7925  -20.5176  -11.3064 N   0  0  0  0  0  0  0  0  0  0  0  0
   19.9756  -20.3962  -12.8694 C   0  0  0  0  0  0  0  0  0  0  0  0
   19.9918  -19.1647  -12.9947 O   0  0  0  0  0  0  0  0  0  0  0  0
   18.6035  -24.6167   -5.6195 O   0  0  0  0  0  0  0  0  0  0  0  0
   18.6695  -22.6831  -16.0873 C   0  0  0  0  0  0  0  0  0  0  0  0
   19.1919  -21.4200  -16.3325 C   0  0  1  0  0  0  0  0  0  0  0  0
   18.9838  -20.5323  -15.1398 N   0  0  0  0  0  0  0  0  0  0  0  0
   19.4521  -21.1890  -13.9120 C   0  0  0  0  0  0  0  0  0  0  0  0
   17.5580  -20.1375  -14.9988 O   0  0  0  0  0  0  0  0  0  0  0  0
   16.9200  -19.3903  -15.9755 O   0  0  0  0  0  0  0  0  0  0  0  0
  2  1  1  0
  2  3  1  0
  3  4  1  6
  5  3  1  0
  5  6  1  1
  7  5  1  0
  7  8  2  0
  9 10  1  0
 10 11  2  0
 12 10  1  0
 12 13  1  0
 14 15  1  0
 14 13  1  0
 16 15  1  1
 16 18  1  0
 16 17  1  0
 17  7  1  0
 18 19  2  0
 21 20  1  0
 22 21  1  6
 23 22  1  0
 23 18  1  0
 24 22  1  0
 25 24  1  0
 26 24  2  0
M  END
$$$$
