IRS.pdb
     RDKit          3D

 26 25  0  0  1  0  0  0  0  0999 V2000
   28.7356  -19.3812  -15.4611 C   0  0  0  0  0  0  0  0  0  0  0  0
   27.9476  -20.2124  -14.4493 C   0  0  0  0  0  0  0  0  0  0  0  0
   26.4614  -20.2044  -14.8190 C   0  0  2  0  0  0  0  0  0  0  0  0
   25.9919  -18.7780  -14.7634 C   0  0  0  0  0  0  0  0  0  0  0  0
   25.7790  -21.0734  -13.7910 C   0  0  2  0  0  0  0  0  0  0  0  0
   26.3880  -22.3829  -13.8322 N   0  0  0  0  0  0  0  0  0  0  0  0
   24.3304  -21.1788  -13.9537 C   0  0  0  0  0  0  0  0  0  0  0  0
   23.7627  -21.6253  -14.9853 O   0  0  0  0  0  0  0  0  0  0  0  0
   18.1285  -23.9113  -11.7436 N   0  0  0  0  0  0  0  0  0  0  0  0
   17.3045  -22.9567  -11.0993 C   0  0  0  0  0  0  0  0  0  0  0  0
   16.0281  -23.1387  -11.0450 N   0  0  0  0  0  0  0  0  0  0  0  0
   17.8159  -21.7795  -10.4843 N   0  0  0  0  0  0  0  0  0  0  0  0
   19.2364  -21.4549  -10.4391 C   0  0  0  0  0  0  0  0  0  0  0  0
   19.8251  -21.3056  -11.7919 C   0  0  0  0  0  0  0  0  0  0  0  0
   21.2754  -20.9608  -11.7476 C   0  0  0  0  0  0  0  0  0  0  0  0
   22.0163  -20.8214  -13.0119 C   0  0  2  0  0  0  0  0  0  0  0  0
   23.4668  -20.7611  -12.9047 N   0  0  0  0  0  0  0  0  0  0  0  0
   21.5597  -19.5463  -13.7085 C   0  0  0  0  0  0  0  0  0  0  0  0
   21.8418  -18.4155  -13.2909 O   0  0  0  0  0  0  0  0  0  0  0  0
   15.3733  -22.4805  -10.5858 O   0  0  0  0  0  0  0  0  0  0  0  0
   20.6009  -19.5007  -17.6851 C   0  0  0  0  0  0  0  0  0  0  0  0
   20.9310  -18.3738  -16.9439 C   0  0  1  0  0  0  0  0  0  0  0  0
   20.3301  -18.4618  -15.5710 N   0  0  0  0  0  0  0  0  0  0  0  0
   20.7838  -19.6758  -14.8792 C   0  0  0  0  0  0  0  0  0  0  0  0
   18.8454  -18.4261  -15.6246 O   0  0  0  0  0  0  0  0  0  0  0  0
   18.1730  -17.3562  -16.1926 O   0  0  0  0  0  0  0  0  0  0  0  0
  2  1  1  0
  2  3  1  0
  3  4  1  1
  5  3  1  0
  5  6  1  6
  7  5  1  0
  7  8  2  0
  9 10  1  0
 10 11  2  0
 12 10  1  0
 12 13  1  0
 14 15  1  0
 14 13  1  0
 16 15  1  1
 16 18  1  0
 16 17  1  0
 17  7  1  0
 18 19  2  0
 21 20  1  0
 22 21  1  1
 23 22  1  0
 23 18  1  0
 24 22  1  0
 25 24  1  0
 26 24  2  0
M  END
$$$$
