IRS.pdb
     RDKit          3D

 26 25  0  0  1  0  0  0  0  0999 V2000
   31.4117  -21.5341  -10.2291 C   0  0  0  0  0  0  0  0  0  0  0  0
   30.5920  -20.9155  -11.3609 C   0  0  0  0  0  0  0  0  0  0  0  0
   29.1601  -21.4571  -11.3184 C   0  0  2  0  0  0  0  0  0  0  0  0
   29.2399  -22.9506  -11.4647 C   0  0  0  0  0  0  0  0  0  0  0  0
   28.4411  -20.8052  -12.4741 C   0  0  2  0  0  0  0  0  0  0  0  0
   28.6370  -19.3769  -12.3786 N   0  0  0  0  0  0  0  0  0  0  0  0
   27.0164  -21.1207  -12.5557 C   0  0  0  0  0  0  0  0  0  0  0  0
   26.5498  -22.1650  -13.0824 O   0  0  0  0  0  0  0  0  0  0  0  0
   20.4136  -22.0836   -8.8783 N   0  0  0  0  0  0  0  0  0  0  0  0
   21.2344  -21.9190   -7.7362 C   0  0  0  0  0  0  0  0  0  0  0  0
   21.0229  -22.6327   -6.6820 N   0  0  0  0  0  0  0  0  0  0  0  0
   22.3136  -20.9927   -7.6834 N   0  0  0  0  0  0  0  0  0  0  0  0
   22.6693  -20.1170   -8.7933 C   0  0  0  0  0  0  0  0  0  0  0  0
   23.4796  -20.8113   -9.8231 C   0  0  0  0  0  0  0  0  0  0  0  0
   23.8228  -19.9242  -10.9719 C   0  0  0  0  0  0  0  0  0  0  0  0
   24.6255  -20.4672  -12.0798 C   0  0  2  0  0  0  0  0  0  0  0  0
   26.0585  -20.2179  -12.0188 N   0  0  0  0  0  0  0  0  0  0  0  0
   24.1176  -19.8754  -13.3880 C   0  0  0  0  0  0  0  0  0  0  0  0
   24.2802  -18.6872  -13.6950 O   0  0  0  0  0  0  0  0  0  0  0  0
   21.5842  -22.5564   -5.8149 O   0  0  0  0  0  0  0  0  0  0  0  0
   22.4778  -22.3798  -16.3070 C   0  0  0  0  0  0  0  0  0  0  0  0
   23.0637  -21.1697  -16.6549 C   0  0  1  0  0  0  0  0  0  0  0  0
   22.9134  -20.1802  -15.5360 N   0  0  0  0  0  0  0  0  0  0  0  0
   23.4355  -20.7310  -14.2781 C   0  0  0  0  0  0  0  0  0  0  0  0
   21.4969  -19.7643  -15.3653 O   0  0  0  0  0  0  0  0  0  0  0  0
   20.7976  -19.1579  -16.3961 O   0  0  0  0  0  0  0  0  0  0  0  0
  2  1  1  0
  2  3  1  0
  3  4  1  6
  5  3  1  0
  5  6  1  1
  7  5  1  0
  7  8  2  0
  9 10  1  0
 10 11  2  0
 12 10  1  0
 12 13  1  0
 14 15  1  0
 14 13  1  0
 16 15  1  1
 16 18  1  0
 16 17  1  0
 17  7  1  0
 18 19  2  0
 21 20  1  0
 22 21  1  6
 23 22  1  0
 23 18  1  0
 24 22  1  0
 25 24  1  0
 26 24  2  0
M  END
$$$$
