IRS.pdb
     RDKit          3D

 26 25  0  0  1  0  0  0  0  0999 V2000
   18.5627  -17.4496  -17.5498 C   0  0  0  0  0  0  0  0  0  0  0  0
   19.1226  -16.0393  -17.3678 C   0  0  0  0  0  0  0  0  0  0  0  0
   17.9898  -15.0147  -17.4792 C   0  0  2  0  0  0  0  0  0  0  0  0
   17.3707  -15.1750  -18.8390 C   0  0  0  0  0  0  0  0  0  0  0  0
   18.6399  -13.6644  -17.3005 C   0  0  2  0  0  0  0  0  0  0  0  0
   19.5045  -13.7300  -16.1449 N   0  0  0  0  0  0  0  0  0  0  0  0
   17.6998  -12.5528  -17.1722 C   0  0  0  0  0  0  0  0  0  0  0  0
   16.9389  -12.1567  -18.0940 O   0  0  0  0  0  0  0  0  0  0  0  0
   11.7635  -10.2489  -11.3395 N   0  0  0  0  0  0  0  0  0  0  0  0
   11.9571  -10.9871  -12.5324 C   0  0  0  0  0  0  0  0  0  0  0  0
   11.1395  -11.9359  -12.8433 N   0  0  0  0  0  0  0  0  0  0  0  0
   13.0254  -10.7324  -13.4375 N   0  0  0  0  0  0  0  0  0  0  0  0
   14.0643   -9.7406  -13.1878 C   0  0  0  0  0  0  0  0  0  0  0  0
   14.9470   -9.5393  -14.3623 C   0  0  0  0  0  0  0  0  0  0  0  0
   15.8238  -10.7169  -14.6248 C   0  0  0  0  0  0  0  0  0  0  0  0
   16.7428  -10.6821  -15.7741 C   0  0  2  0  0  0  0  0  0  0  0  0
   17.6049  -11.8427  -15.9443 N   0  0  0  0  0  0  0  0  0  0  0  0
   17.6454   -9.4624  -15.6421 C   0  0  0  0  0  0  0  0  0  0  0  0
   18.5162   -9.3633  -14.7678 O   0  0  0  0  0  0  0  0  0  0  0  0
   11.1549  -12.4323  -13.7522 O   0  0  0  0  0  0  0  0  0  0  0  0
   19.5757   -5.6323  -17.6965 C   0  0  0  0  0  0  0  0  0  0  0  0
   18.7584   -6.7489  -17.8140 C   0  0  2  0  0  0  0  0  0  0  0  0
   18.3241   -7.2188  -16.4560 N   0  0  0  0  0  0  0  0  0  0  0  0
   17.4700   -8.4092  -16.5638 C   0  0  0  0  0  0  0  0  0  0  0  0
   17.6168   -6.1454  -15.7103 O   0  0  0  0  0  0  0  0  0  0  0  0
   18.2869   -5.3388  -14.8049 O   0  0  0  0  0  0  0  0  0  0  0  0
  2  1  1  0
  2  3  1  0
  3  4  1  6
  5  3  1  0
  5  6  1  1
  7  5  1  0
  7  8  2  0
  9 10  1  0
 10 11  2  0
 12 10  1  0
 12 13  1  0
 14 15  1  0
 14 13  1  0
 16 15  1  1
 16 18  1  0
 16 17  1  0
 17  7  1  0
 18 19  2  0
 21 20  1  0
 22 21  1  1
 23 22  1  0
 23 18  1  0
 24 22  1  0
 25 24  1  0
 26 24  2  0
M  END
$$$$
