IRS.pdb
     RDKit          3D

 26 25  0  0  1  0  0  0  0  0999 V2000
   29.1925  -19.8240  -13.5614 C   0  0  0  0  0  0  0  0  0  0  0  0
   27.9299  -20.3202  -12.8578 C   0  0  0  0  0  0  0  0  0  0  0  0
   26.7623  -20.3473  -13.8485 C   0  0  2  0  0  0  0  0  0  0  0  0
   26.5320  -18.9361  -14.3106 C   0  0  0  0  0  0  0  0  0  0  0  0
   25.5860  -20.8985  -13.0803 C   0  0  2  0  0  0  0  0  0  0  0  0
   25.9391  -22.2139  -12.5982 N   0  0  0  0  0  0  0  0  0  0  0  0
   24.3385  -20.9512  -13.8399 C   0  0  0  0  0  0  0  0  0  0  0  0
   24.0322  -21.8756  -14.6383 O   0  0  0  0  0  0  0  0  0  0  0  0
   20.6023  -21.7189  -10.9563 N   0  0  0  0  0  0  0  0  0  0  0  0
   20.1479  -20.8040   -9.9756 C   0  0  0  0  0  0  0  0  0  0  0  0
   20.1393  -21.1446   -8.7309 N   0  0  0  0  0  0  0  0  0  0  0  0
   19.6947  -19.4919  -10.2895 N   0  0  0  0  0  0  0  0  0  0  0  0
   19.7092  -18.9440  -11.6404 C   0  0  0  0  0  0  0  0  0  0  0  0
   21.0288  -19.0992  -12.2988 C   0  0  0  0  0  0  0  0  0  0  0  0
   20.9121  -19.6029  -13.6978 C   0  0  0  0  0  0  0  0  0  0  0  0
   22.1388  -19.8815  -14.4621 C   0  0  2  0  0  0  0  0  0  0  0  0
   23.3790  -19.9117  -13.7003 N   0  0  0  0  0  0  0  0  0  0  0  0
   22.2952  -18.8181  -15.5411 C   0  0  0  0  0  0  0  0  0  0  0  0
   21.7844  -17.6937  -15.4543 O   0  0  0  0  0  0  0  0  0  0  0  0
   19.7670  -20.5438   -7.9738 O   0  0  0  0  0  0  0  0  0  0  0  0
   22.2053  -19.5685  -20.2198 C   0  0  0  0  0  0  0  0  0  0  0  0
   22.6624  -19.9356  -18.9608 C   0  0  2  0  0  0  0  0  0  0  0  0
   22.5452  -18.7802  -18.0095 N   0  0  0  0  0  0  0  0  0  0  0  0
   23.0587  -19.1429  -16.6817 C   0  0  0  0  0  0  0  0  0  0  0  0
   21.1416  -18.3034  -17.9042 O   0  0  0  0  0  0  0  0  0  0  0  0
   20.1448  -19.1144  -17.3863 O   0  0  0  0  0  0  0  0  0  0  0  0
  2  1  1  0
  2  3  1  0
  3  4  1  1
  5  3  1  0
  5  6  1  6
  7  5  1  0
  7  8  2  0
  9 10  1  0
 10 11  2  0
 12 10  1  0
 12 13  1  0
 14 15  1  0
 14 13  1  0
 16 15  1  1
 16 18  1  0
 16 17  1  0
 17  7  1  0
 18 19  2  0
 21 20  1  0
 22 21  1  6
 23 22  1  0
 23 18  1  0
 24 22  1  0
 25 24  1  0
 26 24  2  0
M  END
$$$$
