FTQ.pdb
     RDKit          3D

 28 28  0  0  1  0  0  0  0  0999 V2000
   24.3588  -19.6856  -16.0979 N   0  0  0  0  0  0  0  0  0  0  0  0
   22.9407  -19.3894  -15.9564 C   0  0  1  0  0  0  0  0  0  0  0  0
   22.2952  -19.6243  -17.3186 C   0  0  0  0  0  0  0  0  0  0  0  0
   22.8685  -18.8031  -18.3864 C   0  0  0  0  0  0  0  0  0  0  0  0
   22.5231  -17.4754  -18.4851 C   0  0  0  0  0  0  0  0  0  0  0  0
   23.0206  -16.6475  -19.4579 C   0  0  0  0  0  0  0  0  0  0  0  0
   23.9081  -17.1512  -20.3873 C   0  0  0  0  0  0  0  0  0  0  0  0
   24.2466  -18.4807  -20.2791 C   0  0  0  0  0  0  0  0  0  0  0  0
   23.7509  -19.3211  -19.3040 C   0  0  0  0  0  0  0  0  0  0  0  0
   22.2909  -20.2495  -14.9592 C   0  0  0  0  0  0  0  0  0  0  0  0
   22.7837  -21.3455  -14.5572 O   0  0  0  0  0  0  0  0  0  0  0  0
   21.3599  -19.1872  -11.5513 C   0  0  0  0  0  0  0  0  0  0  0  0
   20.1071  -19.7613  -12.1595 C   0  0  1  0  0  0  0  0  0  0  0  0
   19.3495  -18.6413  -12.5554 O   0  0  0  0  0  0  0  0  0  0  0  0
   20.3765  -20.6557  -13.3524 C   0  0  2  0  0  0  0  0  0  0  0  0
   21.0540  -19.8654  -14.4010 N   0  0  0  0  0  0  0  0  0  0  0  0
   19.2056  -21.3341  -13.9037 C   0  0  0  0  0  0  0  0  0  0  0  0
   19.0745  -21.3598  -15.1852 O   0  0  0  0  0  0  0  0  0  0  0  0
   15.4112  -24.4673  -16.3520 N   0  0  0  0  0  0  0  0  0  0  0  0
   16.0458  -25.4360  -15.5621 C   0  0  0  0  0  0  0  0  0  0  0  0
   15.6640  -26.6250  -15.6017 O   0  0  0  0  0  0  0  0  0  0  0  0
   17.1850  -25.0603  -14.6643 C   0  0  0  0  0  0  0  0  0  0  0  0
   17.5758  -23.6253  -14.9211 C   0  0  0  0  0  0  0  0  0  0  0  0
   17.0633  -22.6656  -13.8898 C   0  0  2  0  0  0  0  0  0  0  0  0
   18.1698  -21.9861  -13.2005 N   0  0  0  0  0  0  0  0  0  0  0  0
   16.1238  -23.2522  -12.9145 C   0  0  0  0  0  0  0  0  0  0  0  0
   14.7734  -23.4574  -13.1313 O   0  0  0  0  0  0  0  0  0  0  0  0
   16.5705  -23.5972  -11.7919 O   0  0  0  0  0  0  0  0  0  0  0  0
  2  1  1  6
  2 10  1  0
  3  2  1  0
  4  3  1  0
  4  9  2  0
  5  4  1  0
  6  5  2  0
  6  7  1  0
  7  8  2  0
  8  9  1  0
 10 11  2  0
 13 12  1  6
 13 15  1  0
 14 13  1  0
 15 16  1  6
 16 10  1  0
 17 18  2  0
 17 15  1  0
 19 20  1  0
 20 22  1  0
 20 21  2  0
 22 23  1  0
 24 23  1  6
 24 25  1  0
 24 26  1  0
 25 17  1  0
 26 27  1  0
 28 26  2  0
M  END
$$$$
