FTQ.pdb
     RDKit          3D

 28 28  0  0  1  0  0  0  0  0999 V2000
   33.5489   27.9293   -8.7627 N   0  0  0  0  0  0  0  0  0  0  0  0
   33.1787   26.6417   -9.3317 C   0  0  1  0  0  0  0  0  0  0  0  0
   33.4532   26.7179  -10.8305 C   0  0  0  0  0  0  0  0  0  0  0  0
   33.9384   28.0273  -11.2700 C   0  0  0  0  0  0  0  0  0  0  0  0
   33.6085   28.4912  -12.5221 C   0  0  0  0  0  0  0  0  0  0  0  0
   34.0264   29.7064  -12.9994 C   0  0  0  0  0  0  0  0  0  0  0  0
   34.8134   30.5130  -12.2023 C   0  0  0  0  0  0  0  0  0  0  0  0
   35.1373   30.0389  -10.9515 C   0  0  0  0  0  0  0  0  0  0  0  0
   34.7215   28.8176  -10.4632 C   0  0  0  0  0  0  0  0  0  0  0  0
   33.9539   25.5363   -8.7542 C   0  0  0  0  0  0  0  0  0  0  0  0
   35.0582   25.1366   -9.2297 O   0  0  0  0  0  0  0  0  0  0  0  0
   33.6885   26.1572   -5.3630 C   0  0  0  0  0  0  0  0  0  0  0  0
   34.5981   24.9601   -5.4545 C   0  0  1  0  0  0  0  0  0  0  0  0
   34.3210   24.2042   -4.2982 O   0  0  0  0  0  0  0  0  0  0  0  0
   34.3608   24.1216   -6.6939 C   0  0  2  0  0  0  0  0  0  0  0  0
   33.4722   24.8635   -7.6120 N   0  0  0  0  0  0  0  0  0  0  0  0
   33.8353   22.7798   -6.4513 C   0  0  0  0  0  0  0  0  0  0  0  0
   32.6315   22.5278   -6.8354 O   0  0  0  0  0  0  0  0  0  0  0  0
   36.5285   19.8602   -8.8862 N   0  0  0  0  0  0  0  0  0  0  0  0
   36.6341   18.6110   -8.2589 C   0  0  0  0  0  0  0  0  0  0  0  0
   37.2990   17.6969   -8.7914 O   0  0  0  0  0  0  0  0  0  0  0  0
   35.9546   18.3567   -6.9481 C   0  0  0  0  0  0  0  0  0  0  0  0
   35.8076   19.6575   -6.1969 C   0  0  0  0  0  0  0  0  0  0  0  0
   34.4966   20.3457   -6.4312 C   0  0  2  0  0  0  0  0  0  0  0  0
   34.4891   21.6902   -5.8367 N   0  0  0  0  0  0  0  0  0  0  0  0
   33.3118   19.5788   -5.9997 C   0  0  0  0  0  0  0  0  0  0  0  0
   32.2411   19.2426   -6.8080 O   0  0  0  0  0  0  0  0  0  0  0  0
   33.2553   19.1938   -4.8050 O   0  0  0  0  0  0  0  0  0  0  0  0
  2  1  1  1
  2 10  1  0
  3  2  1  0
  4  3  1  0
  4  9  2  0
  5  4  1  0
  6  5  2  0
  6  7  1  0
  7  8  2  0
  8  9  1  0
 10 11  2  0
 13 12  1  6
 13 15  1  0
 14 13  1  0
 15 16  1  6
 16 10  1  0
 17 18  2  0
 17 15  1  0
 19 20  1  0
 20 22  1  0
 20 21  2  0
 22 23  1  0
 24 23  1  1
 24 25  1  0
 24 26  1  0
 25 17  1  0
 26 27  1  0
 28 26  2  0
M  END
$$$$
