FTQ.pdb
     RDKit          3D

 28 28  0  0  1  0  0  0  0  0999 V2000
   28.3940  -21.2740   -9.1427 N   0  0  0  0  0  0  0  0  0  0  0  0
   27.0605  -20.7055   -9.0117 C   0  0  1  0  0  0  0  0  0  0  0  0
   27.1965  -19.4270   -8.1905 C   0  0  0  0  0  0  0  0  0  0  0  0
   27.7882  -19.6416   -6.8687 C   0  0  0  0  0  0  0  0  0  0  0  0
   27.0655  -20.2923   -5.8961 C   0  0  0  0  0  0  0  0  0  0  0  0
   27.5555  -20.5283   -4.6376 C   0  0  0  0  0  0  0  0  0  0  0  0
   28.8278  -20.1013   -4.3150 C   0  0  0  0  0  0  0  0  0  0  0  0
   29.5418  -19.4513   -5.2958 C   0  0  0  0  0  0  0  0  0  0  0  0
   29.0568  -19.2094   -6.5643 C   0  0  0  0  0  0  0  0  0  0  0  0
   26.4649  -20.3818  -10.3144 C   0  0  0  0  0  0  0  0  0  0  0  0
   27.0256  -19.6350  -11.1707 O   0  0  0  0  0  0  0  0  0  0  0  0
   26.5182  -21.8112  -13.1101 C   0  0  0  0  0  0  0  0  0  0  0  0
   25.0227  -21.7467  -12.9417 C   0  0  1  0  0  0  0  0  0  0  0  0
   24.6570  -23.0170  -12.4541 O   0  0  0  0  0  0  0  0  0  0  0  0
   24.5752  -20.6693  -11.9751 C   0  0  2  0  0  0  0  0  0  0  0  0
   25.2050  -20.9126  -10.6609 N   0  0  0  0  0  0  0  0  0  0  0  0
   23.1289  -20.5225  -11.8265 C   0  0  0  0  0  0  0  0  0  0  0  0
   22.6026  -20.8675  -10.7022 O   0  0  0  0  0  0  0  0  0  0  0  0
   19.8641  -17.0395  -15.3403 N   0  0  0  0  0  0  0  0  0  0  0  0
   19.8479  -16.5839  -14.0147 C   0  0  0  0  0  0  0  0  0  0  0  0
   19.6886  -15.3686  -13.7719 O   0  0  0  0  0  0  0  0  0  0  0  0
   20.0205  -17.5434  -12.8770 C   0  0  0  0  0  0  0  0  0  0  0  0
   20.1033  -18.9513  -13.4144 C   0  0  0  0  0  0  0  0  0  0  0  0
   20.7693  -19.9164  -12.4804 C   0  0  2  0  0  0  0  0  0  0  0  0
   22.2042  -20.0372  -12.7763 N   0  0  0  0  0  0  0  0  0  0  0  0
   20.1367  -21.2483  -12.4157 C   0  0  0  0  0  0  0  0  0  0  0  0
   19.1121  -21.6042  -11.5578 O   0  0  0  0  0  0  0  0  0  0  0  0
   20.5516  -22.1421  -13.1953 O   0  0  0  0  0  0  0  0  0  0  0  0
  2  1  1  6
  2 10  1  0
  3  2  1  0
  4  3  1  0
  4  9  2  0
  5  4  1  0
  6  5  2  0
  6  7  1  0
  7  8  2  0
  8  9  1  0
 10 11  2  0
 13 12  1  1
 13 15  1  0
 14 13  1  0
 15 16  1  1
 16 10  1  0
 17 18  2  0
 17 15  1  0
 19 20  1  0
 20 22  1  0
 20 21  2  0
 22 23  1  0
 24 23  1  6
 24 25  1  0
 24 26  1  0
 25 17  1  0
 26 27  1  0
 28 26  2  0
M  END
$$$$
