FTQ.pdb
     RDKit          3D

 28 28  0  0  1  0  0  0  0  0999 V2000
   20.8594  -10.3874  -15.1301 N   0  0  0  0  0  0  0  0  0  0  0  0
   19.7777   -9.4137  -15.1566 C   0  0  1  0  0  0  0  0  0  0  0  0
   18.6176  -10.0102  -14.3655 C   0  0  0  0  0  0  0  0  0  0  0  0
   17.9344  -11.1012  -15.0629 C   0  0  0  0  0  0  0  0  0  0  0  0
   18.2121  -12.4053  -14.7254 C   0  0  0  0  0  0  0  0  0  0  0  0
   17.6108  -13.4759  -15.3351 C   0  0  0  0  0  0  0  0  0  0  0  0
   16.6837  -13.2541  -16.3333 C   0  0  0  0  0  0  0  0  0  0  0  0
   16.4137  -11.9454  -16.6629 C   0  0  0  0  0  0  0  0  0  0  0  0
   17.0139  -10.8623  -16.0551 C   0  0  0  0  0  0  0  0  0  0  0  0
   20.1680   -8.1341  -14.5510 C   0  0  0  0  0  0  0  0  0  0  0  0
   20.8663   -8.0461  -13.4974 O   0  0  0  0  0  0  0  0  0  0  0  0
   22.2407   -5.7074  -16.0722 C   0  0  0  0  0  0  0  0  0  0  0  0
   21.0281   -4.9097  -15.6695 C   0  0  1  0  0  0  0  0  0  0  0  0
   20.2944   -4.7382  -16.8601 O   0  0  0  0  0  0  0  0  0  0  0  0
   20.1746   -5.6032  -14.6273 C   0  0  2  0  0  0  0  0  0  0  0  0
   19.7605   -6.9226  -15.1473 N   0  0  0  0  0  0  0  0  0  0  0  0
   19.0100   -4.8490  -14.1686 C   0  0  0  0  0  0  0  0  0  0  0  0
   17.8914   -5.4792  -14.0595 O   0  0  0  0  0  0  0  0  0  0  0  0
   17.0138   -4.6290   -9.4171 N   0  0  0  0  0  0  0  0  0  0  0  0
   16.1280   -3.6170   -9.8125 C   0  0  0  0  0  0  0  0  0  0  0  0
   15.2045   -3.2598   -9.0505 O   0  0  0  0  0  0  0  0  0  0  0  0
   16.2763   -2.9535  -11.1477 C   0  0  0  0  0  0  0  0  0  0  0  0
   17.4272   -3.5806  -11.8961 C   0  0  0  0  0  0  0  0  0  0  0  0
   17.7534   -2.8940  -13.1882 C   0  0  2  0  0  0  0  0  0  0  0  0
   18.9444   -3.4836  -13.8167 N   0  0  0  0  0  0  0  0  0  0  0  0
   17.8879   -1.4275  -13.0905 C   0  0  0  0  0  0  0  0  0  0  0  0
   16.8600   -0.5497  -12.7981 O   0  0  0  0  0  0  0  0  0  0  0  0
   19.0204   -0.9199  -13.2870 O   0  0  0  0  0  0  0  0  0  0  0  0
  2  1  1  1
  2 10  1  0
  3  2  1  0
  4  3  1  0
  4  9  2  0
  5  4  1  0
  6  5  2  0
  6  7  1  0
  7  8  2  0
  8  9  1  0
 10 11  2  0
 13 12  1  6
 13 15  1  0
 14 13  1  0
 15 16  1  6
 16 10  1  0
 17 18  2  0
 17 15  1  0
 19 20  1  0
 20 22  1  0
 20 21  2  0
 22 23  1  0
 24 23  1  1
 24 25  1  0
 24 26  1  0
 25 17  1  0
 26 27  1  0
 28 26  2  0
M  END
$$$$
