FTQ.pdb
     RDKit          3D

 28 28  0  0  1  0  0  0  0  0999 V2000
   26.4515  -21.7397   -8.1516 N   0  0  0  0  0  0  0  0  0  0  0  0
   26.5575  -20.4757   -8.8657 C   0  0  1  0  0  0  0  0  0  0  0  0
   27.9564  -19.9272   -8.6016 C   0  0  0  0  0  0  0  0  0  0  0  0
   28.2065  -19.6176   -7.1928 C   0  0  0  0  0  0  0  0  0  0  0  0
   27.8614  -18.3828   -6.6948 C   0  0  0  0  0  0  0  0  0  0  0  0
   28.0655  -18.0242   -5.3875 C   0  0  0  0  0  0  0  0  0  0  0  0
   28.6414  -18.9292   -4.5188 C   0  0  0  0  0  0  0  0  0  0  0  0
   28.9827  -20.1614   -5.0278 C   0  0  0  0  0  0  0  0  0  0  0  0
   28.7812  -20.5307   -6.3416 C   0  0  0  0  0  0  0  0  0  0  0  0
   26.3675  -20.6382  -10.3127 C   0  0  0  0  0  0  0  0  0  0  0  0
   27.2193  -21.1923  -11.0695 O   0  0  0  0  0  0  0  0  0  0  0  0
   26.3200  -22.4756  -12.2716 C   0  0  0  0  0  0  0  0  0  0  0  0
   24.9766  -21.8927  -12.6249 C   0  0  1  0  0  0  0  0  0  0  0  0
   24.0538  -22.5976  -11.8270 O   0  0  0  0  0  0  0  0  0  0  0  0
   24.8772  -20.4068  -12.3467 C   0  0  2  0  0  0  0  0  0  0  0  0
   25.1877  -20.1636  -10.9228 N   0  0  0  0  0  0  0  0  0  0  0  0
   23.6025  -19.7869  -12.7021 C   0  0  0  0  0  0  0  0  0  0  0  0
   22.7041  -19.6919  -11.7834 O   0  0  0  0  0  0  0  0  0  0  0  0
   19.8789  -16.7720  -18.0892 N   0  0  0  0  0  0  0  0  0  0  0  0
   20.6963  -16.3823  -17.0192 C   0  0  0  0  0  0  0  0  0  0  0  0
   21.5032  -15.4385  -17.1586 O   0  0  0  0  0  0  0  0  0  0  0  0
   20.6136  -17.0888  -15.7005 C   0  0  0  0  0  0  0  0  0  0  0  0
   21.8773  -17.8826  -15.4750 C   0  0  0  0  0  0  0  0  0  0  0  0
   21.9264  -18.5759  -14.1467 C   0  0  2  0  0  0  0  0  0  0  0  0
   23.2125  -19.2610  -13.9526 N   0  0  0  0  0  0  0  0  0  0  0  0
   20.8018  -19.4964  -13.8896 C   0  0  0  0  0  0  0  0  0  0  0  0
   20.7690  -20.8337  -14.2407 O   0  0  0  0  0  0  0  0  0  0  0  0
   19.7845  -19.0442  -13.3070 O   0  0  0  0  0  0  0  0  0  0  0  0
  2  1  1  1
  2 10  1  0
  3  2  1  0
  4  3  1  0
  4  9  2  0
  5  4  1  0
  6  5  2  0
  6  7  1  0
  7  8  2  0
  8  9  1  0
 10 11  2  0
 13 12  1  1
 13 15  1  0
 14 13  1  0
 15 16  1  1
 16 10  1  0
 17 18  2  0
 17 15  1  0
 19 20  1  0
 20 22  1  0
 20 21  2  0
 22 23  1  0
 24 23  1  6
 24 25  1  0
 24 26  1  0
 25 17  1  0
 26 27  1  0
 28 26  2  0
M  END
$$$$
