FTQ.pdb
     RDKit          3D

 28 28  0  0  1  0  0  0  0  0999 V2000
   26.4776  -21.7758  -11.8659 N   0  0  0  0  0  0  0  0  0  0  0  0
   25.3786  -20.8245  -11.7875 C   0  0  1  0  0  0  0  0  0  0  0  0
   25.8618  -19.6494  -10.9431 C   0  0  0  0  0  0  0  0  0  0  0  0
   25.9090  -19.9404   -9.5091 C   0  0  0  0  0  0  0  0  0  0  0  0
   26.9540  -19.4654   -8.7515 C   0  0  0  0  0  0  0  0  0  0  0  0
   27.0629  -19.6984   -7.4049 C   0  0  0  0  0  0  0  0  0  0  0  0
   26.0904  -20.4400   -6.7650 C   0  0  0  0  0  0  0  0  0  0  0  0
   25.0495  -20.9102   -7.5328 C   0  0  0  0  0  0  0  0  0  0  0  0
   24.9320  -20.6810   -8.8880 C   0  0  0  0  0  0  0  0  0  0  0  0
   24.9738  -20.3341  -13.1112 C   0  0  0  0  0  0  0  0  0  0  0  0
   25.7975  -20.0507  -14.0313 O   0  0  0  0  0  0  0  0  0  0  0  0
   24.4740  -21.6613  -15.7176 C   0  0  0  0  0  0  0  0  0  0  0  0
   23.1333  -20.9778  -15.6497 C   0  0  1  0  0  0  0  0  0  0  0  0
   22.2515  -21.9569  -15.1506 O   0  0  0  0  0  0  0  0  0  0  0  0
   23.1267  -19.7618  -14.7459 C   0  0  2  0  0  0  0  0  0  0  0  0
   23.6057  -20.1579  -13.4056 N   0  0  0  0  0  0  0  0  0  0  0  0
   21.8464  -19.0649  -14.6430 C   0  0  0  0  0  0  0  0  0  0  0  0
   21.5749  -18.4684  -13.5337 O   0  0  0  0  0  0  0  0  0  0  0  0
   22.3578  -14.2598  -16.3001 N   0  0  0  0  0  0  0  0  0  0  0  0
   21.0077  -14.0649  -15.9774 C   0  0  0  0  0  0  0  0  0  0  0  0
   20.5764  -12.9132  -15.7563 O   0  0  0  0  0  0  0  0  0  0  0  0
   20.0684  -15.2292  -15.8938 C   0  0  0  0  0  0  0  0  0  0  0  0
   20.8613  -16.5122  -15.8374 C   0  0  0  0  0  0  0  0  0  0  0  0
   20.0115  -17.7449  -15.7624 C   0  0  2  0  0  0  0  0  0  0  0  0
   20.8387  -18.9523  -15.6250 N   0  0  0  0  0  0  0  0  0  0  0  0
   19.0470  -17.8972  -16.8690 C   0  0  0  0  0  0  0  0  0  0  0  0
   17.6706  -17.8683  -16.7375 O   0  0  0  0  0  0  0  0  0  0  0  0
   19.4962  -18.0687  -18.0299 O   0  0  0  0  0  0  0  0  0  0  0  0
  2  1  1  6
  2 10  1  0
  3  2  1  0
  4  3  1  0
  4  9  2  0
  5  4  1  0
  6  5  2  0
  6  7  1  0
  7  8  2  0
  8  9  1  0
 10 11  2  0
 13 12  1  1
 13 15  1  0
 14 13  1  0
 15 16  1  1
 16 10  1  0
 17 18  2  0
 17 15  1  0
 19 20  1  0
 20 22  1  0
 20 21  2  0
 22 23  1  0
 24 23  1  6
 24 25  1  0
 24 26  1  0
 25 17  1  0
 26 27  1  0
 28 26  2  0
M  END
$$$$
