FTQ.pdb
     RDKit          3D

 28 28  0  0  1  0  0  0  0  0999 V2000
   19.2503  -12.1917  -15.8028 N   0  0  0  0  0  0  0  0  0  0  0  0
   18.3556  -11.0488  -15.6935 C   0  0  1  0  0  0  0  0  0  0  0  0
   16.9537  -11.5982  -15.4481 C   0  0  0  0  0  0  0  0  0  0  0  0
   16.4134  -12.3491  -16.5828 C   0  0  0  0  0  0  0  0  0  0  0  0
   16.3743  -13.7231  -16.5341 C   0  0  0  0  0  0  0  0  0  0  0  0
   15.8823  -14.4903  -17.5581 C   0  0  0  0  0  0  0  0  0  0  0  0
   15.4007  -13.8738  -18.6954 C   0  0  0  0  0  0  0  0  0  0  0  0
   15.4447  -12.4988  -18.7333 C   0  0  0  0  0  0  0  0  0  0  0  0
   15.9382  -11.7190  -17.7079 C   0  0  0  0  0  0  0  0  0  0  0  0
   18.7260  -10.1581  -14.5863 C   0  0  0  0  0  0  0  0  0  0  0  0
   19.2034  -10.5727  -13.4882 O   0  0  0  0  0  0  0  0  0  0  0  0
   21.3388   -7.9224  -14.6423 C   0  0  0  0  0  0  0  0  0  0  0  0
   20.1956   -7.0359  -14.2222 C   0  0  1  0  0  0  0  0  0  0  0  0
   19.8341   -6.3325  -15.3883 O   0  0  0  0  0  0  0  0  0  0  0  0
   19.0053   -7.8068  -13.6890 C   0  0  2  0  0  0  0  0  0  0  0  0
   18.5536   -8.7646  -14.7193 N   0  0  0  0  0  0  0  0  0  0  0  0
   17.8849   -6.9894  -13.2286 C   0  0  0  0  0  0  0  0  0  0  0  0
   16.8746   -6.8565  -14.0170 O   0  0  0  0  0  0  0  0  0  0  0  0
   15.7701   -5.3114   -7.5762 N   0  0  0  0  0  0  0  0  0  0  0  0
   14.8913   -4.6009   -8.4056 C   0  0  0  0  0  0  0  0  0  0  0  0
   13.9279   -3.9783   -7.9102 O   0  0  0  0  0  0  0  0  0  0  0  0
   15.0946   -4.5787   -9.8899 C   0  0  0  0  0  0  0  0  0  0  0  0
   16.3220   -5.3836  -10.2416 C   0  0  0  0  0  0  0  0  0  0  0  0
   16.6181   -5.4229  -11.7107 C   0  0  2  0  0  0  0  0  0  0  0  0
   17.7561   -6.3076  -11.9993 N   0  0  0  0  0  0  0  0  0  0  0  0
   16.8146   -4.1006  -12.3358 C   0  0  0  0  0  0  0  0  0  0  0  0
   15.8076   -3.3017  -12.8463 O   0  0  0  0  0  0  0  0  0  0  0  0
   17.9847   -3.6505  -12.4198 O   0  0  0  0  0  0  0  0  0  0  0  0
  2  1  1  1
  2 10  1  0
  3  2  1  0
  4  3  1  0
  4  9  2  0
  5  4  1  0
  6  5  2  0
  6  7  1  0
  7  8  2  0
  8  9  1  0
 10 11  2  0
 13 12  1  6
 13 15  1  0
 14 13  1  0
 15 16  1  6
 16 10  1  0
 17 18  2  0
 17 15  1  0
 19 20  1  0
 20 22  1  0
 20 21  2  0
 22 23  1  0
 24 23  1  1
 24 25  1  0
 24 26  1  0
 25 17  1  0
 26 27  1  0
 28 26  2  0
M  END
$$$$
