FTQ.pdb
     RDKit          3D

 28 28  0  0  1  0  0  0  0  0999 V2000
   28.6061  -21.1322   -8.9254 N   0  0  0  0  0  0  0  0  0  0  0  0
   27.2217  -20.6890   -9.0033 C   0  0  1  0  0  0  0  0  0  0  0  0
   27.1119  -19.4129   -8.1745 C   0  0  0  0  0  0  0  0  0  0  0  0
   27.5756  -19.5703   -6.7948 C   0  0  0  0  0  0  0  0  0  0  0  0
   26.7839  -20.2250   -5.8803 C   0  0  0  0  0  0  0  0  0  0  0  0
   27.1536  -20.4094   -4.5732 C   0  0  0  0  0  0  0  0  0  0  0  0
   28.3703  -19.9236   -4.1384 C   0  0  0  0  0  0  0  0  0  0  0  0
   29.1541  -19.2702   -5.0618 C   0  0  0  0  0  0  0  0  0  0  0  0
   28.7901  -19.0799   -6.3786 C   0  0  0  0  0  0  0  0  0  0  0  0
   26.8065  -20.4062  -10.3831 C   0  0  0  0  0  0  0  0  0  0  0  0
   27.5802  -19.9116  -11.2562 O   0  0  0  0  0  0  0  0  0  0  0  0
   27.3625  -21.0515  -12.8798 C   0  0  0  0  0  0  0  0  0  0  0  0
   25.8891  -21.2459  -13.1255 C   0  0  1  0  0  0  0  0  0  0  0  0
   25.6715  -22.6274  -12.9541 O   0  0  0  0  0  0  0  0  0  0  0  0
   25.0143  -20.4587  -12.1712 C   0  0  2  0  0  0  0  0  0  0  0  0
   25.4854  -20.6871  -10.7896 N   0  0  0  0  0  0  0  0  0  0  0  0
   23.5811  -20.7256  -12.2703 C   0  0  0  0  0  0  0  0  0  0  0  0
   22.9615  -21.0846  -11.1992 O   0  0  0  0  0  0  0  0  0  0  0  0
   19.6169  -21.6897  -10.4894 N   0  0  0  0  0  0  0  0  0  0  0  0
   18.7183  -20.8995  -11.2196 C   0  0  0  0  0  0  0  0  0  0  0  0
   17.4878  -21.0223  -11.0409 O   0  0  0  0  0  0  0  0  0  0  0  0
   19.2190  -19.9019  -12.2190 C   0  0  0  0  0  0  0  0  0  0  0  0
   20.7279  -19.9295  -12.2448 C   0  0  0  0  0  0  0  0  0  0  0  0
   21.2980  -20.7776  -13.3416 C   0  0  2  0  0  0  0  0  0  0  0  0
   22.7597  -20.6384  -13.4150 N   0  0  0  0  0  0  0  0  0  0  0  0
   20.6870  -20.5632  -14.6678 C   0  0  0  0  0  0  0  0  0  0  0  0
   21.3248  -20.0013  -15.7587 O   0  0  0  0  0  0  0  0  0  0  0  0
   19.4919  -20.9129  -14.8354 O   0  0  0  0  0  0  0  0  0  0  0  0
  2  1  1  6
  2 10  1  0
  3  2  1  0
  4  3  1  0
  4  9  2  0
  5  4  1  0
  6  5  2  0
  6  7  1  0
  7  8  2  0
  8  9  1  0
 10 11  2  0
 13 12  1  1
 13 15  1  0
 14 13  1  0
 15 16  1  1
 16 10  1  0
 17 18  2  0
 17 15  1  0
 19 20  1  0
 20 22  1  0
 20 21  2  0
 22 23  1  0
 24 23  1  1
 24 25  1  0
 24 26  1  0
 25 17  1  0
 26 27  1  0
 28 26  2  0
M  END
$$$$
