INK.pdb
     RDKit          3D

 26 25  0  0  1  0  0  0  0  0999 V2000
   24.2369  -20.4315  -16.6907 C   0  0  0  0  0  0  0  0  0  0  0  0
   23.6745  -20.4236  -15.3117 C   0  0  0  0  0  0  0  0  0  0  0  0
   22.1918  -20.1328  -15.2514 C   0  0  2  0  0  0  0  0  0  0  0  0
   21.8334  -18.7585  -15.7208 C   0  0  0  0  0  0  0  0  0  0  0  0
   21.7180  -20.3732  -13.8011 C   0  0  2  0  0  0  0  0  0  0  0  0
   22.2701  -21.5981  -13.2969 N   0  0  0  0  0  0  0  0  0  0  0  0
   20.2290  -20.4477  -13.8509 C   0  0  0  0  0  0  0  0  0  0  0  0
   19.4953  -19.4487  -13.9046 O   0  0  0  0  0  0  0  0  0  0  0  0
   15.3468  -21.2455  -15.8092 N   0  0  0  0  0  0  0  0  0  0  0  0
   16.2254  -22.2670  -15.3673 C   0  0  0  0  0  0  0  0  0  0  0  0
   15.7014  -23.3591  -15.0052 O   0  0  0  0  0  0  0  0  0  0  0  0
   17.6943  -22.0569  -15.3333 C   0  0  0  0  0  0  0  0  0  0  0  0
   18.2095  -21.9195  -13.9232 C   0  0  2  0  0  0  0  0  0  0  0  0
   19.6126  -21.7209  -13.8372 N   0  0  0  0  0  0  0  0  0  0  0  0
   17.7403  -23.1188  -13.1728 C   0  0  0  0  0  0  0  0  0  0  0  0
   16.5017  -23.3589  -13.1293 O   0  0  0  0  0  0  0  0  0  0  0  0
   18.7450  -23.8979  -12.5647 N   0  0  0  0  0  0  0  0  0  0  0  0
   18.3422  -25.1161  -11.7850 C   0  0  1  0  0  0  0  0  0  0  0  0
   19.3752  -26.1060  -12.1049 C   0  0  0  0  0  0  0  0  0  0  0  0
   19.8575  -26.4122  -13.4458 C   0  0  0  0  0  0  0  0  0  0  0  0
   20.9784  -27.3684  -13.6042 C   0  0  0  0  0  0  0  0  0  0  0  0
   20.4413  -28.8146  -13.3941 C   0  0  0  0  0  0  0  0  0  0  0  0
   21.5341  -29.7275  -13.5716 N   0  0  0  0  0  0  0  0  0  0  0  0
   18.0891  -24.6258  -10.4479 C   0  0  0  0  0  0  0  0  0  0  0  0
   17.4804  -25.2304   -9.5183 O   0  0  0  0  0  0  0  0  0  0  0  0
   18.5258  -23.3376  -10.0312 O   0  0  0  0  0  0  0  0  0  0  0  0
  2  1  1  0
  3  2  1  0
  3  4  1  1
  5  3  1  0
  5  6  1  6
  7  5  1  0
  7  8  2  0
  9 10  1  0
 10 11  2  0
 12 10  1  0
 13 12  1  6
 13 14  1  0
 14  7  1  0
 15 13  1  0
 16 15  2  0
 17 15  1  0
 18 17  1  0
 18 24  1  0
 18 19  1  1
 20 19  1  0
 21 20  1  0
 22 21  1  0
 23 22  1  0
 24 26  1  0
 25 24  2  0
M  END
$$$$
