INK.pdb
     RDKit          3D

 26 25  0  0  1  0  0  0  0  0999 V2000
   29.4192  -29.5395  -18.7988 C   0  0  0  0  0  0  0  0  0  0  0  0
   29.0724  -28.0988  -18.6499 C   0  0  0  0  0  0  0  0  0  0  0  0
   28.1203  -27.8075  -17.5119 C   0  0  2  0  0  0  0  0  0  0  0  0
   26.8273  -28.5533  -17.6095 C   0  0  0  0  0  0  0  0  0  0  0  0
   27.8871  -26.2814  -17.4647 C   0  0  2  0  0  0  0  0  0  0  0  0
   29.1153  -25.6024  -17.1648 N   0  0  0  0  0  0  0  0  0  0  0  0
   26.8776  -26.0419  -16.3930 C   0  0  0  0  0  0  0  0  0  0  0  0
   27.1740  -25.8594  -15.2022 O   0  0  0  0  0  0  0  0  0  0  0  0
   22.8905  -22.9048  -14.1268 N   0  0  0  0  0  0  0  0  0  0  0  0
   23.5866  -24.1402  -14.1196 C   0  0  0  0  0  0  0  0  0  0  0  0
   23.2304  -24.9957  -13.2595 O   0  0  0  0  0  0  0  0  0  0  0  0
   24.6840  -24.4107  -15.0815 C   0  0  0  0  0  0  0  0  0  0  0  0
   24.4649  -25.6973  -15.8362 C   0  0  2  0  0  0  0  0  0  0  0  0
   25.5074  -26.0194  -16.7444 N   0  0  0  0  0  0  0  0  0  0  0  0
   23.1295  -25.5928  -16.4900 C   0  0  0  0  0  0  0  0  0  0  0  0
   23.0051  -24.8383  -17.4944 O   0  0  0  0  0  0  0  0  0  0  0  0
   22.0997  -26.3651  -15.9162 N   0  0  0  0  0  0  0  0  0  0  0  0
   20.7607  -26.4023  -16.5942 C   0  0  1  0  0  0  0  0  0  0  0  0
   20.0639  -27.5219  -15.9537 C   0  0  0  0  0  0  0  0  0  0  0  0
   19.8589  -28.8353  -16.5517 C   0  0  0  0  0  0  0  0  0  0  0  0
   20.7415  -29.9541  -16.1457 C   0  0  0  0  0  0  0  0  0  0  0  0
   22.0286  -29.9247  -17.0214 C   0  0  0  0  0  0  0  0  0  0  0  0
   22.7397  -31.1535  -16.8123 N   0  0  0  0  0  0  0  0  0  0  0  0
   20.2911  -25.0350  -16.5489 C   0  0  0  0  0  0  0  0  0  0  0  0
   20.4811  -24.1955  -15.6219 O   0  0  0  0  0  0  0  0  0  0  0  0
   19.5222  -24.4754  -17.6071 O   0  0  0  0  0  0  0  0  0  0  0  0
  2  1  1  0
  3  2  1  0
  3  4  1  6
  5  3  1  0
  5  6  1  1
  7  5  1  0
  7  8  2  0
  9 10  1  0
 10 11  2  0
 12 10  1  0
 13 12  1  6
 13 14  1  0
 14  7  1  0
 15 13  1  0
 16 15  2  0
 17 15  1  0
 18 17  1  0
 18 24  1  0
 18 19  1  1
 20 19  1  0
 21 20  1  0
 22 21  1  0
 23 22  1  0
 24 26  1  0
 25 24  2  0
M  END
$$$$
