INK.pdb
     RDKit          3D

 26 25  0  0  1  0  0  0  0  0999 V2000
   11.4892  -19.2639   -7.4187 C   0  0  0  0  0  0  0  0  0  0  0  0
   12.6549  -20.1429   -7.1245 C   0  0  0  0  0  0  0  0  0  0  0  0
   12.5522  -20.8854   -5.8112 C   0  0  2  0  0  0  0  0  0  0  0  0
   12.4474  -19.9837   -4.6223 C   0  0  0  0  0  0  0  0  0  0  0  0
   13.7728  -21.8250   -5.6986 C   0  0  2  0  0  0  0  0  0  0  0  0
   13.8799  -22.6400   -6.8750 N   0  0  0  0  0  0  0  0  0  0  0  0
   13.5442  -22.6705   -4.4912 C   0  0  0  0  0  0  0  0  0  0  0  0
   13.1077  -23.8308   -4.5410 O   0  0  0  0  0  0  0  0  0  0  0  0
   14.3999  -25.9418   -0.9562 N   0  0  0  0  0  0  0  0  0  0  0  0
   15.3375  -24.9031   -1.1867 C   0  0  0  0  0  0  0  0  0  0  0  0
   16.2962  -24.8022   -0.3687 O   0  0  0  0  0  0  0  0  0  0  0  0
   15.1938  -23.9786   -2.3388 C   0  0  0  0  0  0  0  0  0  0  0  0
   14.1565  -22.9156   -2.0799 C   0  0  2  0  0  0  0  0  0  0  0  0
   13.8386  -22.1288   -3.2179 N   0  0  0  0  0  0  0  0  0  0  0  0
   14.6446  -22.1074   -0.9264 C   0  0  0  0  0  0  0  0  0  0  0  0
   15.7026  -21.4329   -1.0650 O   0  0  0  0  0  0  0  0  0  0  0  0
   13.8623  -22.1682    0.2443 N   0  0  0  0  0  0  0  0  0  0  0  0
   14.1579  -21.2101    1.3616 C   0  0  1  0  0  0  0  0  0  0  0  0
   12.8906  -20.5046    1.5756 C   0  0  0  0  0  0  0  0  0  0  0  0
   12.6048  -19.1426    1.1424 C   0  0  0  0  0  0  0  0  0  0  0  0
   11.2274  -18.6167    1.2904 C   0  0  0  0  0  0  0  0  0  0  0  0
   11.1691  -17.1798    0.6937 C   0  0  0  0  0  0  0  0  0  0  0  0
    9.8231  -16.6982    0.8187 N   0  0  0  0  0  0  0  0  0  0  0  0
   14.8061  -22.0170    2.3719 C   0  0  0  0  0  0  0  0  0  0  0  0
   14.6794  -23.2635    2.5469 O   0  0  0  0  0  0  0  0  0  0  0  0
   15.6985  -21.4470    3.3219 O   0  0  0  0  0  0  0  0  0  0  0  0
  2  1  1  0
  3  2  1  0
  3  4  1  1
  5  3  1  0
  5  6  1  6
  7  5  1  0
  7  8  2  0
  9 10  1  0
 10 11  2  0
 12 10  1  0
 13 12  1  6
 13 14  1  0
 14  7  1  0
 15 13  1  0
 16 15  2  0
 17 15  1  0
 18 17  1  0
 18 24  1  0
 18 19  1  1
 20 19  1  0
 21 20  1  0
 22 21  1  0
 23 22  1  0
 24 26  1  0
 25 24  2  0
M  END
$$$$
