INK.pdb
     RDKit          3D

 26 25  0  0  1  0  0  0  0  0999 V2000
   28.9333  -21.7201  -19.2821 C   0  0  0  0  0  0  0  0  0  0  0  0
   28.9938  -22.6032  -18.0844 C   0  0  0  0  0  0  0  0  0  0  0  0
   27.7293  -22.6062  -17.2552 C   0  0  2  0  0  0  0  0  0  0  0  0
   26.4836  -22.7712  -18.0667 C   0  0  0  0  0  0  0  0  0  0  0  0
   27.6959  -21.2991  -16.4330 C   0  0  2  0  0  0  0  0  0  0  0  0
   28.9343  -21.1257  -15.7290 N   0  0  0  0  0  0  0  0  0  0  0  0
   26.5598  -21.4322  -15.4755 C   0  0  0  0  0  0  0  0  0  0  0  0
   25.4388  -21.8544  -15.7983 O   0  0  0  0  0  0  0  0  0  0  0  0
   23.9286  -21.5306  -11.0744 N   0  0  0  0  0  0  0  0  0  0  0  0
   25.1749  -20.9470  -10.7322 C   0  0  0  0  0  0  0  0  0  0  0  0
   25.3611  -20.6618   -9.5147 O   0  0  0  0  0  0  0  0  0  0  0  0
   26.2105  -20.6850  -11.7626 C   0  0  0  0  0  0  0  0  0  0  0  0
   25.7390  -21.0669  -13.1426 C   0  0  2  0  0  0  0  0  0  0  0  0
   26.7630  -21.0601  -14.1258 N   0  0  0  0  0  0  0  0  0  0  0  0
   24.6007  -20.1640  -13.4757 C   0  0  0  0  0  0  0  0  0  0  0  0
   24.8286  -18.9307  -13.6185 O   0  0  0  0  0  0  0  0  0  0  0  0
   23.3409  -20.7822  -13.6061 N   0  0  0  0  0  0  0  0  0  0  0  0
   22.1730  -19.9544  -14.0587 C   0  0  1  0  0  0  0  0  0  0  0  0
   22.4246  -19.7264  -15.4849 C   0  0  0  0  0  0  0  0  0  0  0  0
   21.8815  -18.6228  -16.2670 C   0  0  0  0  0  0  0  0  0  0  0  0
   22.2507  -18.5072  -17.6973 C   0  0  0  0  0  0  0  0  0  0  0  0
   21.6411  -17.1946  -18.2714 C   0  0  0  0  0  0  0  0  0  0  0  0
   22.1191  -17.0296  -19.6143 N   0  0  0  0  0  0  0  0  0  0  0  0
   21.0126  -20.6531  -13.5515 C   0  0  0  0  0  0  0  0  0  0  0  0
   20.9567  -21.8576  -13.1690 O   0  0  0  0  0  0  0  0  0  0  0  0
   19.7489  -20.0107  -13.4319 O   0  0  0  0  0  0  0  0  0  0  0  0
  2  1  1  0
  3  2  1  0
  3  4  1  6
  5  3  1  0
  5  6  1  1
  7  5  1  0
  7  8  2  0
  9 10  1  0
 10 11  2  0
 12 10  1  0
 13 12  1  1
 13 14  1  0
 14  7  1  0
 15 13  1  0
 16 15  2  0
 17 15  1  0
 18 17  1  0
 18 24  1  0
 18 19  1  6
 20 19  1  0
 21 20  1  0
 22 21  1  0
 23 22  1  0
 24 26  1  0
 25 24  2  0
M  END
$$$$
