INK.pdb
     RDKit          3D

 26 25  0  0  1  0  0  0  0  0999 V2000
   27.9411  -22.9040  -18.1342 C   0  0  0  0  0  0  0  0  0  0  0  0
   28.6969  -24.1069  -17.6870 C   0  0  0  0  0  0  0  0  0  0  0  0
   27.9000  -25.3909  -17.7384 C   0  0  2  0  0  0  0  0  0  0  0  0
   26.7201  -25.3985  -16.8191 C   0  0  0  0  0  0  0  0  0  0  0  0
   28.8608  -26.5603  -17.4300 C   0  0  2  0  0  0  0  0  0  0  0  0
   29.9585  -26.5556  -18.3543 N   0  0  0  0  0  0  0  0  0  0  0  0
   28.0605  -27.8115  -17.5691 C   0  0  0  0  0  0  0  0  0  0  0  0
   27.7029  -28.2770  -18.6620 O   0  0  0  0  0  0  0  0  0  0  0  0
   26.7234  -33.0306  -14.6335 N   0  0  0  0  0  0  0  0  0  0  0  0
   26.8864  -32.1051  -15.6954 C   0  0  0  0  0  0  0  0  0  0  0  0
   26.4762  -32.4618  -16.8368 O   0  0  0  0  0  0  0  0  0  0  0  0
   27.5121  -30.7782  -15.4703 C   0  0  0  0  0  0  0  0  0  0  0  0
   26.9613  -29.7317  -16.4054 C   0  0  2  0  0  0  0  0  0  0  0  0
   27.6858  -28.5109  -16.3979 N   0  0  0  0  0  0  0  0  0  0  0  0
   25.5209  -29.5606  -16.0623 C   0  0  0  0  0  0  0  0  0  0  0  0
   25.2172  -28.8512  -15.0633 O   0  0  0  0  0  0  0  0  0  0  0  0
   24.6036  -30.2205  -16.9045 N   0  0  0  0  0  0  0  0  0  0  0  0
   23.1358  -30.0909  -16.6167 C   0  0  1  0  0  0  0  0  0  0  0  0
   22.8822  -28.6484  -16.6823 C   0  0  0  0  0  0  0  0  0  0  0  0
   22.0474  -27.8999  -15.7510 C   0  0  0  0  0  0  0  0  0  0  0  0
   20.5905  -27.8108  -16.0057 C   0  0  0  0  0  0  0  0  0  0  0  0
   19.9423  -26.9061  -14.9168 C   0  0  0  0  0  0  0  0  0  0  0  0
   18.5206  -26.9207  -15.1117 N   0  0  0  0  0  0  0  0  0  0  0  0
   22.5063  -31.0556  -17.4914 C   0  0  0  0  0  0  0  0  0  0  0  0
   23.0373  -31.6547  -18.4709 O   0  0  0  0  0  0  0  0  0  0  0  0
   21.1474  -31.4407  -17.3215 O   0  0  0  0  0  0  0  0  0  0  0  0
  2  1  1  0
  3  2  1  0
  3  4  1  1
  5  3  1  0
  5  6  1  6
  7  5  1  0
  7  8  2  0
  9 10  1  0
 10 11  2  0
 12 10  1  0
 13 12  1  1
 13 14  1  0
 14  7  1  0
 15 13  1  0
 16 15  2  0
 17 15  1  0
 18 17  1  0
 18 24  1  0
 18 19  1  6
 20 19  1  0
 21 20  1  0
 22 21  1  0
 23 22  1  0
 24 26  1  0
 25 24  2  0
M  END
$$$$
