INK.pdb
     RDKit          3D

 26 25  0  0  1  0  0  0  0  0999 V2000
   27.1266  -18.7313  -14.4951 C   0  0  0  0  0  0  0  0  0  0  0  0
   26.2627  -19.8705  -14.0780 C   0  0  0  0  0  0  0  0  0  0  0  0
   26.4872  -20.3262  -12.6537 C   0  0  2  0  0  0  0  0  0  0  0  0
   27.8833  -20.7937  -12.3895 C   0  0  0  0  0  0  0  0  0  0  0  0
   25.4550  -21.4312  -12.3389 C   0  0  2  0  0  0  0  0  0  0  0  0
   25.5610  -22.4945  -13.2969 N   0  0  0  0  0  0  0  0  0  0  0  0
   24.1117  -20.7871  -12.4135 C   0  0  0  0  0  0  0  0  0  0  0  0
   23.7869  -19.8013  -11.7338 O   0  0  0  0  0  0  0  0  0  0  0  0
   19.6964  -18.5439  -13.6802 N   0  0  0  0  0  0  0  0  0  0  0  0
   20.2330  -19.3965  -14.6783 C   0  0  0  0  0  0  0  0  0  0  0  0
   19.4697  -19.7128  -15.6352 O   0  0  0  0  0  0  0  0  0  0  0  0
   21.6296  -19.8922  -14.5971 C   0  0  0  0  0  0  0  0  0  0  0  0
   21.8276  -20.8243  -13.4289 C   0  0  2  0  0  0  0  0  0  0  0  0
   23.1514  -21.3217  -13.3041 N   0  0  0  0  0  0  0  0  0  0  0  0
   20.8063  -21.9024  -13.5581 C   0  0  0  0  0  0  0  0  0  0  0  0
   20.8357  -22.6443  -14.5790 O   0  0  0  0  0  0  0  0  0  0  0  0
   19.8767  -22.0010  -12.5034 N   0  0  0  0  0  0  0  0  0  0  0  0
   18.9919  -23.2117  -12.4308 C   0  0  1  0  0  0  0  0  0  0  0  0
   19.2709  -23.7826  -11.1096 C   0  0  0  0  0  0  0  0  0  0  0  0
   18.3572  -23.7569   -9.9743 C   0  0  0  0  0  0  0  0  0  0  0  0
   18.7249  -24.4906   -8.7406 C   0  0  0  0  0  0  0  0  0  0  0  0
   17.6942  -24.1497   -7.6245 C   0  0  0  0  0  0  0  0  0  0  0  0
   18.0843  -24.8414   -6.4293 N   0  0  0  0  0  0  0  0  0  0  0  0
   17.6885  -22.7356  -12.8389 C   0  0  0  0  0  0  0  0  0  0  0  0
   16.8367  -23.3559  -13.5387 O   0  0  0  0  0  0  0  0  0  0  0  0
   17.2173  -21.4448  -12.4703 O   0  0  0  0  0  0  0  0  0  0  0  0
  2  1  1  0
  3  2  1  0
  3  4  1  6
  5  3  1  0
  5  6  1  6
  7  5  1  0
  7  8  2  0
  9 10  1  0
 10 11  2  0
 12 10  1  0
 13 12  1  6
 13 14  1  0
 14  7  1  0
 15 13  1  0
 16 15  2  0
 17 15  1  0
 18 17  1  0
 18 24  1  0
 18 19  1  1
 20 19  1  0
 21 20  1  0
 22 21  1  0
 23 22  1  0
 24 26  1  0
 25 24  2  0
M  END
$$$$
