INK.pdb
     RDKit          3D

 26 25  0  0  1  0  0  0  0  0999 V2000
   29.0160  -12.4950  -18.4435 C   0  0  0  0  0  0  0  0  0  0  0  0
   28.9025  -11.4266  -19.4748 C   0  0  0  0  0  0  0  0  0  0  0  0
   29.9129  -10.3119  -19.3225 C   0  0  2  0  0  0  0  0  0  0  0  0
   31.3237  -10.7961  -19.2098 C   0  0  0  0  0  0  0  0  0  0  0  0
   29.5085   -9.4671  -18.0943 C   0  0  2  0  0  0  0  0  0  0  0  0
   28.1481   -9.0282  -18.2221 N   0  0  0  0  0  0  0  0  0  0  0  0
   30.4373   -8.3004  -18.0606 C   0  0  0  0  0  0  0  0  0  0  0  0
   30.3312   -7.3193  -18.8125 O   0  0  0  0  0  0  0  0  0  0  0  0
   34.1880   -5.1070  -16.6576 N   0  0  0  0  0  0  0  0  0  0  0  0
   33.8744   -5.8839  -15.5135 C   0  0  0  0  0  0  0  0  0  0  0  0
   34.4029   -5.5350  -14.4192 O   0  0  0  0  0  0  0  0  0  0  0  0
   32.9656   -7.0538  -15.6034 C   0  0  0  0  0  0  0  0  0  0  0  0
   32.4492   -7.2574  -17.0051 C   0  0  2  0  0  0  0  0  0  0  0  0
   31.4978   -8.3043  -17.1242 N   0  0  0  0  0  0  0  0  0  0  0  0
   33.6403   -7.4455  -17.8814 C   0  0  0  0  0  0  0  0  0  0  0  0
   34.3107   -8.5093  -17.7708 O   0  0  0  0  0  0  0  0  0  0  0  0
   33.9184   -6.3944  -18.7780 N   0  0  0  0  0  0  0  0  0  0  0  0
   34.9553   -6.6078  -19.8426 C   0  0  1  0  0  0  0  0  0  0  0  0
   34.2802   -6.2213  -21.0852 C   0  0  0  0  0  0  0  0  0  0  0  0
   33.3590   -7.0642  -21.8372 C   0  0  0  0  0  0  0  0  0  0  0  0
   32.7628   -6.5379  -23.0874 C   0  0  0  0  0  0  0  0  0  0  0  0
   31.7608   -7.5886  -23.6498 C   0  0  0  0  0  0  0  0  0  0  0  0
   30.5788   -7.5592  -22.8366 N   0  0  0  0  0  0  0  0  0  0  0  0
   36.1391   -5.9494  -19.3356 C   0  0  0  0  0  0  0  0  0  0  0  0
   36.1854   -5.0264  -18.4718 O   0  0  0  0  0  0  0  0  0  0  0  0
   37.4401   -6.2992  -19.7926 O   0  0  0  0  0  0  0  0  0  0  0  0
  2  1  1  0
  3  2  1  0
  3  4  1  1
  5  3  1  0
  5  6  1  6
  7  5  1  0
  7  8  2  0
  9 10  1  0
 10 11  2  0
 12 10  1  0
 13 12  1  1
 13 14  1  0
 14  7  1  0
 15 13  1  0
 16 15  2  0
 17 15  1  0
 18 17  1  0
 18 24  1  0
 18 19  1  6
 20 19  1  0
 21 20  1  0
 22 21  1  0
 23 22  1  0
 24 26  1  0
 25 24  2  0
M  END
$$$$
