INK.pdb
     RDKit          3D

 26 25  0  0  1  0  0  0  0  0999 V2000
   29.6472  -17.3871  -17.0659 C   0  0  0  0  0  0  0  0  0  0  0  0
   28.4827  -18.2918  -17.2745 C   0  0  0  0  0  0  0  0  0  0  0  0
   28.0181  -18.9989  -16.0213 C   0  0  2  0  0  0  0  0  0  0  0  0
   29.1059  -19.7506  -15.3218 C   0  0  0  0  0  0  0  0  0  0  0  0
   26.8482  -19.9309  -16.4062 C   0  0  2  0  0  0  0  0  0  0  0  0
   25.7878  -19.1721  -17.0056 N   0  0  0  0  0  0  0  0  0  0  0  0
   26.3866  -20.5728  -15.1413 C   0  0  0  0  0  0  0  0  0  0  0  0
   27.0933  -21.3340  -14.4628 O   0  0  0  0  0  0  0  0  0  0  0  0
   25.1156  -20.6006   -9.7485 N   0  0  0  0  0  0  0  0  0  0  0  0
   24.8325  -21.1392  -11.0294 C   0  0  0  0  0  0  0  0  0  0  0  0
   24.0771  -22.1520  -11.0730 O   0  0  0  0  0  0  0  0  0  0  0  0
   25.4013  -20.5361  -12.2605 C   0  0  0  0  0  0  0  0  0  0  0  0
   24.5438  -20.8126  -13.4692 C   0  0  2  0  0  0  0  0  0  0  0  0
   25.0753  -20.3044  -14.6835 N   0  0  0  0  0  0  0  0  0  0  0  0
   23.1819  -20.2904  -13.1616 C   0  0  0  0  0  0  0  0  0  0  0  0
   23.0730  -19.3165  -12.3659 O   0  0  0  0  0  0  0  0  0  0  0  0
   22.1111  -20.9450  -13.8026 N   0  0  0  0  0  0  0  0  0  0  0  0
   20.7689  -20.2731  -13.8355 C   0  0  1  0  0  0  0  0  0  0  0  0
   20.5510  -19.9738  -15.2541 C   0  0  0  0  0  0  0  0  0  0  0  0
   19.9250  -18.7627  -15.7698 C   0  0  0  0  0  0  0  0  0  0  0  0
   20.7228  -17.5159  -15.8381 C   0  0  0  0  0  0  0  0  0  0  0  0
   19.8294  -16.3760  -16.4096 C   0  0  0  0  0  0  0  0  0  0  0  0
   20.5865  -15.1573  -16.3801 N   0  0  0  0  0  0  0  0  0  0  0  0
   19.9091  -21.1379  -13.0578 C   0  0  0  0  0  0  0  0  0  0  0  0
   20.0248  -22.3883  -12.9053 O   0  0  0  0  0  0  0  0  0  0  0  0
   18.7831  -20.6303  -12.3519 O   0  0  0  0  0  0  0  0  0  0  0  0
  2  1  1  0
  3  2  1  0
  3  4  1  6
  5  3  1  0
  5  6  1  1
  7  5  1  0
  7  8  2  0
  9 10  1  0
 10 11  2  0
 12 10  1  0
 13 12  1  1
 13 14  1  0
 14  7  1  0
 15 13  1  0
 16 15  2  0
 17 15  1  0
 18 17  1  0
 18 24  1  0
 18 19  1  6
 20 19  1  0
 21 20  1  0
 22 21  1  0
 23 22  1  0
 24 26  1  0
 25 24  2  0
M  END
$$$$
