INK.pdb
     RDKit          3D

 26 25  0  0  1  0  0  0  0  0999 V2000
   26.5659  -20.0296   -9.1274 C   0  0  0  0  0  0  0  0  0  0  0  0
   25.9215  -21.2983   -9.5672 C   0  0  0  0  0  0  0  0  0  0  0  0
   25.4769  -21.2959  -11.0125 C   0  0  2  0  0  0  0  0  0  0  0  0
   26.6002  -21.1088  -11.9824 C   0  0  0  0  0  0  0  0  0  0  0  0
   24.4021  -20.1992  -11.1784 C   0  0  2  0  0  0  0  0  0  0  0  0
   23.3235  -20.4204  -10.2579 N   0  0  0  0  0  0  0  0  0  0  0  0
   23.9196  -20.2912  -12.5869 C   0  0  0  0  0  0  0  0  0  0  0  0
   24.6594  -20.1572  -13.5737 O   0  0  0  0  0  0  0  0  0  0  0  0
   21.0006  -21.2614  -16.6615 N   0  0  0  0  0  0  0  0  0  0  0  0
   20.4752  -22.0137  -15.5804 C   0  0  0  0  0  0  0  0  0  0  0  0
   19.6335  -22.9141  -15.8620 O   0  0  0  0  0  0  0  0  0  0  0  0
   20.8986  -21.7507  -14.1824 C   0  0  0  0  0  0  0  0  0  0  0  0
   21.9816  -20.7044  -14.1111 C   0  0  2  0  0  0  0  0  0  0  0  0
   22.5474  -20.5452  -12.8188 N   0  0  0  0  0  0  0  0  0  0  0  0
   21.4016  -19.4441  -14.6561 C   0  0  0  0  0  0  0  0  0  0  0  0
   20.7242  -18.7075  -13.8866 O   0  0  0  0  0  0  0  0  0  0  0  0
   21.6681  -19.1794  -16.0145 N   0  0  0  0  0  0  0  0  0  0  0  0
   21.3709  -17.8110  -16.5560 C   0  0  1  0  0  0  0  0  0  0  0  0
   22.4874  -17.5333  -17.4647 C   0  0  0  0  0  0  0  0  0  0  0  0
   23.1535  -16.2446  -17.6064 C   0  0  0  0  0  0  0  0  0  0  0  0
   24.3537  -16.1484  -18.4701 C   0  0  0  0  0  0  0  0  0  0  0  0
   24.9726  -14.7279  -18.3175 C   0  0  0  0  0  0  0  0  0  0  0  0
   26.2267  -14.7094  -19.0146 N   0  0  0  0  0  0  0  0  0  0  0  0
   19.9900  -17.8792  -16.9808 C   0  0  0  0  0  0  0  0  0  0  0  0
   19.3677  -18.9040  -17.3842 O   0  0  0  0  0  0  0  0  0  0  0  0
   19.1544  -16.7279  -16.9873 O   0  0  0  0  0  0  0  0  0  0  0  0
  2  1  1  0
  3  2  1  0
  3  4  1  6
  5  3  1  0
  5  6  1  1
  7  5  1  0
  7  8  2  0
  9 10  1  0
 10 11  2  0
 12 10  1  0
 13 12  1  1
 13 14  1  0
 14  7  1  0
 15 13  1  0
 16 15  2  0
 17 15  1  0
 18 17  1  0
 18 24  1  0
 18 19  1  6
 20 19  1  0
 21 20  1  0
 22 21  1  0
 23 22  1  0
 24 26  1  0
 25 24  2  0
M  END
$$$$
