MQG.pdb
     RDKit          3D

 22 21  0  0  1  0  0  0  0  0999 V2000
   27.3080  -16.2371  -15.2904 C   0  0  0  0  0  0  0  0  0  0  0  0
   26.7022  -14.6388  -15.8579 S   0  0  0  0  0  0  0  0  0  0  0  0
   25.2590  -14.1012  -14.8740 C   0  0  0  0  0  0  0  0  0  0  0  0
   24.8983  -12.7076  -15.3377 C   0  0  0  0  0  0  0  0  0  0  0  0
   23.5205  -12.7843  -15.9595 C   0  0  2  0  0  0  0  0  0  0  0  0
   23.5746  -13.5203  -17.2055 N   0  0  0  0  0  0  0  0  0  0  0  0
   22.9094  -11.4682  -16.1694 C   0  0  0  0  0  0  0  0  0  0  0  0
   23.1747  -10.8288  -17.2146 O   0  0  0  0  0  0  0  0  0  0  0  0
   19.1725  -12.3194  -15.4828 N   0  0  0  0  0  0  0  0  0  0  0  0
   18.9654  -11.6431  -16.7053 C   0  0  0  0  0  0  0  0  0  0  0  0
   18.4191  -12.2227  -17.6621 O   0  0  0  0  0  0  0  0  0  0  0  0
   19.4016  -10.2433  -16.8406 C   0  0  0  0  0  0  0  0  0  0  0  0
   19.8908   -9.7438  -15.5198 C   0  0  0  0  0  0  0  0  0  0  0  0
   21.3961   -9.5631  -15.4872 C   0  0  2  0  0  0  0  0  0  0  0  0
   22.0171  -10.8509  -15.2516 N   0  0  0  0  0  0  0  0  0  0  0  0
   21.7761   -8.5678  -14.4564 C   0  0  0  0  0  0  0  0  0  0  0  0
   22.0214   -8.9471  -13.2852 O   0  0  0  0  0  0  0  0  0  0  0  0
   21.8571   -7.2063  -14.8053 N   0  0  0  0  0  0  0  0  0  0  0  0
   22.3063   -6.1750  -13.8783 C   0  0  0  0  0  0  0  0  0  0  0  0
   22.2856   -4.8490  -14.5186 C   0  0  0  0  0  0  0  0  0  0  0  0
   21.9132   -4.7694  -15.7177 O   0  0  0  0  0  0  0  0  0  0  0  0
   22.6472   -3.6854  -13.8929 O   0  0  0  0  0  0  0  0  0  0  0  0
  1  2  1  0
  3  4  1  0
  3  2  1  0
  5  7  1  0
  5  6  1  6
  5  4  1  0
  7  8  2  0
  9 10  1  0
 10 12  1  0
 11 10  2  0
 12 13  1  0
 14 13  1  1
 14 16  1  0
 15 14  1  0
 15  7  1  0
 16 17  2  0
 16 18  1  0
 18 19  1  0
 19 20  1  0
 20 21  2  0
 20 22  1  0
M  END
$$$$
