MQG.pdb
     RDKit          3D

 22 21  0  0  1  0  0  0  0  0999 V2000
   27.2573  -18.9126   -6.8088 C   0  0  0  0  0  0  0  0  0  0  0  0
   27.7898  -20.5157   -7.4336 S   0  0  0  0  0  0  0  0  0  0  0  0
   28.2794  -20.4013   -9.1907 C   0  0  0  0  0  0  0  0  0  0  0  0
   27.3600  -21.3153   -9.9693 C   0  0  0  0  0  0  0  0  0  0  0  0
   26.0782  -20.5517  -10.2233 C   0  0  2  0  0  0  0  0  0  0  0  0
   25.0582  -20.9588   -9.2792 N   0  0  0  0  0  0  0  0  0  0  0  0
   25.5873  -20.6915  -11.5978 C   0  0  0  0  0  0  0  0  0  0  0  0
   26.3329  -20.3647  -12.5512 O   0  0  0  0  0  0  0  0  0  0  0  0
   24.1028  -23.5358  -16.0323 N   0  0  0  0  0  0  0  0  0  0  0  0
   24.9655  -23.9459  -14.9919 C   0  0  0  0  0  0  0  0  0  0  0  0
   26.0192  -24.5565  -15.2501 O   0  0  0  0  0  0  0  0  0  0  0  0
   24.6087  -23.6452  -13.5954 C   0  0  0  0  0  0  0  0  0  0  0  0
   23.4280  -22.7294  -13.5687 C   0  0  0  0  0  0  0  0  0  0  0  0
   23.8151  -21.2886  -13.2971 C   0  0  2  0  0  0  0  0  0  0  0  0
   24.2969  -21.1823  -11.9347 N   0  0  0  0  0  0  0  0  0  0  0  0
   22.6659  -20.3870  -13.5504 C   0  0  0  0  0  0  0  0  0  0  0  0
   21.8515  -20.1419  -12.6271 O   0  0  0  0  0  0  0  0  0  0  0  0
   22.5024  -19.8157  -14.8267 N   0  0  0  0  0  0  0  0  0  0  0  0
   21.4392  -18.8700  -15.1424 C   0  0  0  0  0  0  0  0  0  0  0  0
   21.5246  -18.4342  -16.5465 C   0  0  0  0  0  0  0  0  0  0  0  0
   22.4777  -18.8605  -17.2483 O   0  0  0  0  0  0  0  0  0  0  0  0
   20.6295  -17.5887  -17.1467 O   0  0  0  0  0  0  0  0  0  0  0  0
  1  2  1  0
  3  4  1  0
  3  2  1  0
  5  7  1  0
  5  6  1  1
  5  4  1  0
  7  8  2  0
  9 10  1  0
 10 12  1  0
 11 10  2  0
 12 13  1  0
 14 13  1  1
 14 16  1  0
 15 14  1  0
 15  7  1  0
 16 17  2  0
 16 18  1  0
 18 19  1  0
 19 20  1  0
 20 21  2  0
 20 22  1  0
M  END
$$$$
