MQG.pdb
     RDKit          3D

 22 21  0  0  1  0  0  0  0  0999 V2000
   28.9446  -11.1988  -16.9818 C   0  0  0  0  0  0  0  0  0  0  0  0
   28.1127  -12.1666  -15.7109 S   0  0  0  0  0  0  0  0  0  0  0  0
   26.3717  -12.4836  -16.1673 C   0  0  0  0  0  0  0  0  0  0  0  0
   25.7027  -11.1375  -16.3327 C   0  0  0  0  0  0  0  0  0  0  0  0
   24.2545  -11.3970  -16.6880 C   0  0  2  0  0  0  0  0  0  0  0  0
   24.1634  -12.0190  -17.9926 N   0  0  0  0  0  0  0  0  0  0  0  0
   23.4241  -10.1896  -16.6384 C   0  0  0  0  0  0  0  0  0  0  0  0
   23.4628   -9.3793  -17.5942 O   0  0  0  0  0  0  0  0  0  0  0  0
   17.7055   -9.9710  -15.2250 N   0  0  0  0  0  0  0  0  0  0  0  0
   18.4083  -10.4408  -16.3565 C   0  0  0  0  0  0  0  0  0  0  0  0
   17.8527  -11.1964  -17.1751 O   0  0  0  0  0  0  0  0  0  0  0  0
   19.8071  -10.0294  -16.5616 C   0  0  0  0  0  0  0  0  0  0  0  0
   20.2499   -9.1796  -15.4148 C   0  0  0  0  0  0  0  0  0  0  0  0
   21.6842   -8.7087  -15.5591 C   0  0  2  0  0  0  0  0  0  0  0  0
   22.5583   -9.8643  -15.5593 N   0  0  0  0  0  0  0  0  0  0  0  0
   22.0274   -7.7546  -14.4777 C   0  0  0  0  0  0  0  0  0  0  0  0
   22.4113   -8.1876  -13.3638 O   0  0  0  0  0  0  0  0  0  0  0  0
   21.9180   -6.3711  -14.7148 N   0  0  0  0  0  0  0  0  0  0  0  0
   22.2697   -5.3654  -13.7201 C   0  0  0  0  0  0  0  0  0  0  0  0
   22.0425   -4.0078  -14.2436 C   0  0  0  0  0  0  0  0  0  0  0  0
   21.6290   -3.8838  -15.4253 O   0  0  0  0  0  0  0  0  0  0  0  0
   22.2522   -2.8601  -13.5261 O   0  0  0  0  0  0  0  0  0  0  0  0
  1  2  1  0
  3  4  1  0
  3  2  1  0
  5  7  1  0
  5  6  1  6
  5  4  1  0
  7  8  2  0
  9 10  1  0
 10 12  1  0
 11 10  2  0
 12 13  1  0
 14 13  1  1
 14 16  1  0
 15 14  1  0
 15  7  1  0
 16 17  2  0
 16 18  1  0
 18 19  1  0
 19 20  1  0
 20 21  2  0
 20 22  1  0
M  END
$$$$
