MQG.pdb
     RDKit          3D

 22 21  0  0  1  0  0  0  0  0999 V2000
   28.6556  -13.3434  -15.4851 C   0  0  0  0  0  0  0  0  0  0  0  0
   27.7016  -11.8219  -15.6221 S   0  0  0  0  0  0  0  0  0  0  0  0
   25.9686  -12.1774  -16.0806 C   0  0  0  0  0  0  0  0  0  0  0  0
   25.2353  -10.8551  -16.1084 C   0  0  0  0  0  0  0  0  0  0  0  0
   23.7994  -11.1464  -16.4883 C   0  0  2  0  0  0  0  0  0  0  0  0
   23.7381  -11.6972  -17.8262 N   0  0  0  0  0  0  0  0  0  0  0  0
   22.9254   -9.9744  -16.3775 C   0  0  0  0  0  0  0  0  0  0  0  0
   22.8774   -9.1538  -17.3241 O   0  0  0  0  0  0  0  0  0  0  0  0
   17.4225   -9.7641  -13.9605 N   0  0  0  0  0  0  0  0  0  0  0  0
   17.8815  -10.2887  -15.1888 C   0  0  0  0  0  0  0  0  0  0  0  0
   17.1647  -11.0609  -15.8520 O   0  0  0  0  0  0  0  0  0  0  0  0
   19.2179   -9.9148  -15.6810 C   0  0  0  0  0  0  0  0  0  0  0  0
   19.8680   -8.9896  -14.7040 C   0  0  0  0  0  0  0  0  0  0  0  0
   21.2430   -8.5378  -15.1566 C   0  0  2  0  0  0  0  0  0  0  0  0
   22.1096   -9.6954  -15.2477 N   0  0  0  0  0  0  0  0  0  0  0  0
   21.7824   -7.5134  -14.2307 C   0  0  0  0  0  0  0  0  0  0  0  0
   22.3786   -7.8709  -13.1855 O   0  0  0  0  0  0  0  0  0  0  0  0
   21.6184   -6.1489  -14.5365 N   0  0  0  0  0  0  0  0  0  0  0  0
   22.1374   -5.0790  -13.6936 C   0  0  0  0  0  0  0  0  0  0  0  0
   21.6951   -3.7629  -14.1847 C   0  0  0  0  0  0  0  0  0  0  0  0
   21.0573   -3.7121  -15.2680 O   0  0  0  0  0  0  0  0  0  0  0  0
   21.9324   -2.5793  -13.5375 O   0  0  0  0  0  0  0  0  0  0  0  0
  1  2  1  0
  3  4  1  0
  3  2  1  0
  5  7  1  0
  5  6  1  6
  5  4  1  0
  7  8  2  0
  9 10  1  0
 10 12  1  0
 11 10  2  0
 12 13  1  0
 14 13  1  1
 14 16  1  0
 15 14  1  0
 15  7  1  0
 16 17  2  0
 16 18  1  0
 18 19  1  0
 19 20  1  0
 20 21  2  0
 20 22  1  0
M  END
$$$$
