MQG.pdb
     RDKit          3D

 22 21  0  0  1  0  0  0  0  0999 V2000
   23.7144  -21.5035  -20.2850 C   0  0  0  0  0  0  0  0  0  0  0  0
   24.6988  -20.0009  -20.1550 S   0  0  0  0  0  0  0  0  0  0  0  0
   26.2178  -20.2980  -19.1832 C   0  0  0  0  0  0  0  0  0  0  0  0
   25.8067  -21.0372  -17.9296 C   0  0  0  0  0  0  0  0  0  0  0  0
   25.2155  -20.0168  -16.9808 C   0  0  2  0  0  0  0  0  0  0  0  0
   26.1471  -18.9275  -16.7743 N   0  0  0  0  0  0  0  0  0  0  0  0
   24.8099  -20.5931  -15.6951 C   0  0  0  0  0  0  0  0  0  0  0  0
   24.4555  -21.7947  -15.6464 O   0  0  0  0  0  0  0  0  0  0  0  0
   26.5624  -21.7221  -10.9989 N   0  0  0  0  0  0  0  0  0  0  0  0
   25.4013  -21.3876  -10.2675 C   0  0  0  0  0  0  0  0  0  0  0  0
   25.1136  -22.0036   -9.2247 O   0  0  0  0  0  0  0  0  0  0  0  0
   24.5310  -20.3018  -10.7487 C   0  0  0  0  0  0  0  0  0  0  0  0
   25.0267  -19.8148  -12.0717 C   0  0  0  0  0  0  0  0  0  0  0  0
   24.2586  -20.4101  -13.2359 C   0  0  2  0  0  0  0  0  0  0  0  0
   24.7892  -19.8705  -14.4715 N   0  0  0  0  0  0  0  0  0  0  0  0
   22.8081  -20.1405  -13.0914 C   0  0  0  0  0  0  0  0  0  0  0  0
   22.3858  -18.9596  -13.1454 O   0  0  0  0  0  0  0  0  0  0  0  0
   21.9204  -21.2155  -12.8948 N   0  0  0  0  0  0  0  0  0  0  0  0
   20.5093  -21.0317  -12.5793 C   0  0  0  0  0  0  0  0  0  0  0  0
   19.6871  -21.0896  -13.7997 C   0  0  0  0  0  0  0  0  0  0  0  0
   20.1744  -21.6336  -14.8241 O   0  0  0  0  0  0  0  0  0  0  0  0
   18.4165  -20.5874  -13.8974 O   0  0  0  0  0  0  0  0  0  0  0  0
  1  2  1  0
  3  4  1  0
  3  2  1  0
  5  7  1  0
  5  6  1  1
  5  4  1  0
  7  8  2  0
  9 10  1  0
 10 12  1  0
 11 10  2  0
 12 13  1  0
 14 13  1  1
 14 16  1  0
 15 14  1  0
 15  7  1  0
 16 17  2  0
 16 18  1  0
 18 19  1  0
 19 20  1  0
 20 21  2  0
 20 22  1  0
M  END
$$$$
