MQG.pdb
     RDKit          3D

 22 21  0  0  1  0  0  0  0  0999 V2000
   27.4288  -20.2360   -3.5620 C   0  0  0  0  0  0  0  0  0  0  0  0
   28.8222  -19.7117   -4.5755 S   0  0  0  0  0  0  0  0  0  0  0  0
   28.2467  -18.9922   -6.1539 C   0  0  0  0  0  0  0  0  0  0  0  0
   27.6468  -20.1194   -6.9643 C   0  0  0  0  0  0  0  0  0  0  0  0
   27.1315  -19.5191   -8.2546 C   0  0  2  0  0  0  0  0  0  0  0  0
   26.1449  -18.4974   -7.9718 N   0  0  0  0  0  0  0  0  0  0  0  0
   26.5822  -20.5188   -9.1758 C   0  0  0  0  0  0  0  0  0  0  0  0
   27.1876  -21.6053   -9.3335 O   0  0  0  0  0  0  0  0  0  0  0  0
   21.2813  -19.9106  -12.4126 N   0  0  0  0  0  0  0  0  0  0  0  0
   21.3930  -20.7832  -11.3076 C   0  0  0  0  0  0  0  0  0  0  0  0
   20.3735  -21.1958  -10.7244 O   0  0  0  0  0  0  0  0  0  0  0  0
   22.7277  -21.2026  -10.8489 C   0  0  0  0  0  0  0  0  0  0  0  0
   23.7728  -20.5587  -11.7013 C   0  0  0  0  0  0  0  0  0  0  0  0
   25.1807  -20.8896  -11.2455 C   0  0  2  0  0  0  0  0  0  0  0  0
   25.3848  -20.3405   -9.9202 N   0  0  0  0  0  0  0  0  0  0  0  0
   26.1744  -20.3747  -12.2176 C   0  0  0  0  0  0  0  0  0  0  0  0
   26.8837  -19.3836  -11.9172 O   0  0  0  0  0  0  0  0  0  0  0  0
   26.3099  -21.0057  -13.4689 N   0  0  0  0  0  0  0  0  0  0  0  0
   27.5125  -20.8982  -14.2855 C   0  0  0  0  0  0  0  0  0  0  0  0
   27.3572  -21.6402  -15.5481 C   0  0  0  0  0  0  0  0  0  0  0  0
   28.3200  -21.6513  -16.3578 O   0  0  0  0  0  0  0  0  0  0  0  0
   26.2262  -22.3255  -15.9051 O   0  0  0  0  0  0  0  0  0  0  0  0
  1  2  1  0
  3  4  1  0
  3  2  1  0
  5  7  1  0
  5  6  1  1
  5  4  1  0
  7  8  2  0
  9 10  1  0
 10 12  1  0
 11 10  2  0
 12 13  1  0
 14 13  1  6
 14 16  1  0
 15 14  1  0
 15  7  1  0
 16 17  2  0
 16 18  1  0
 18 19  1  0
 19 20  1  0
 20 21  2  0
 20 22  1  0
M  END
$$$$
