FTT.pdb
     RDKit          3D

 26 26  0  0  1  0  0  0  0  0999 V2000
   20.5532  -11.4197  -17.5775 N   0  0  0  0  0  0  0  0  0  0  0  0
   19.5842  -10.4305  -17.1453 C   0  0  1  0  0  0  0  0  0  0  0  0
   19.0336  -10.7964  -15.7769 C   0  0  0  0  0  0  0  0  0  0  0  0
   18.2205  -12.0358  -15.8066 C   0  0  0  0  0  0  0  0  0  0  0  0
   17.0062  -12.0726  -16.4541 C   0  0  0  0  0  0  0  0  0  0  0  0
   16.2860  -13.2495  -16.4531 C   0  0  0  0  0  0  0  0  0  0  0  0
   16.7264  -14.3989  -15.8306 C   0  0  0  0  0  0  0  0  0  0  0  0
   17.9496  -14.3052  -15.1972 C   0  0  0  0  0  0  0  0  0  0  0  0
   18.7069  -13.1535  -15.1697 C   0  0  0  0  0  0  0  0  0  0  0  0
   20.2068   -9.1112  -17.2046 C   0  0  0  0  0  0  0  0  0  0  0  0
   21.4563   -9.0122  -17.0654 O   0  0  0  0  0  0  0  0  0  0  0  0
   19.7195   -6.5429  -19.9076 C   0  0  0  0  0  0  0  0  0  0  0  0
   19.4531   -5.8542  -18.6010 C   0  0  1  0  0  0  0  0  0  0  0  0
   18.1093   -5.6784  -18.3420 O   0  0  0  0  0  0  0  0  0  0  0  0
   20.1667   -6.5815  -17.4463 C   0  0  2  0  0  0  0  0  0  0  0  0
   19.5281   -7.8841  -17.4111 N   0  0  0  0  0  0  0  0  0  0  0  0
   19.9695   -5.8036  -16.2257 C   0  0  0  0  0  0  0  0  0  0  0  0
   18.9387   -5.8493  -15.4892 O   0  0  0  0  0  0  0  0  0  0  0  0
   21.8402   -5.9303  -13.0429 C   0  0  0  0  0  0  0  0  0  0  0  0
   21.9827   -4.5304  -13.5850 C   0  0  1  0  0  0  0  0  0  0  0  0
   23.2000   -4.4804  -14.2806 O   0  0  0  0  0  0  0  0  0  0  0  0
   20.9017   -4.1766  -14.5650 C   0  0  2  0  0  0  0  0  0  0  0  0
   20.9895   -4.9172  -15.7982 N   0  0  0  0  0  0  0  0  0  0  0  0
   20.9427   -2.7341  -14.8168 C   0  0  0  0  0  0  0  0  0  0  0  0
   20.6654   -1.7619  -13.8860 O   0  0  0  0  0  0  0  0  0  0  0  0
   21.2576   -2.3184  -15.9833 O   0  0  0  0  0  0  0  0  0  0  0  0
  2  1  1  1
  3  2  1  0
  4  3  1  0
  5  4  2  0
  6  5  1  0
  7  6  2  0
  7  8  1  0
  8  9  2  0
  9  4  1  0
 10  2  1  0
 10 11  2  0
 13 12  1  6
 13 15  1  0
 13 14  1  0
 15 16  1  1
 16 10  1  0
 17 15  1  0
 18 17  2  0
 20 21  1  0
 20 19  1  6
 22 20  1  0
 22 23  1  6
 23 17  1  0
 24 25  1  0
 24 22  1  0
 26 24  2  0
M  END
$$$$
