FTT.pdb
     RDKit          3D

 26 26  0  0  1  0  0  0  0  0999 V2000
   23.3834  -13.3535  -17.1584 N   0  0  0  0  0  0  0  0  0  0  0  0
   23.1079  -12.5251  -15.9998 C   0  0  1  0  0  0  0  0  0  0  0  0
   24.2970  -12.5321  -15.0535 C   0  0  0  0  0  0  0  0  0  0  0  0
   25.5396  -12.0486  -15.7018 C   0  0  0  0  0  0  0  0  0  0  0  0
   26.0745  -12.7037  -16.7881 C   0  0  0  0  0  0  0  0  0  0  0  0
   27.2332  -12.2155  -17.3563 C   0  0  0  0  0  0  0  0  0  0  0  0
   27.8862  -11.0953  -16.8858 C   0  0  0  0  0  0  0  0  0  0  0  0
   27.3061  -10.4784  -15.7954 C   0  0  0  0  0  0  0  0  0  0  0  0
   26.1503  -10.9266  -15.1922 C   0  0  0  0  0  0  0  0  0  0  0  0
   22.7192  -11.1950  -16.4598 C   0  0  0  0  0  0  0  0  0  0  0  0
   23.0837  -10.8070  -17.6030 O   0  0  0  0  0  0  0  0  0  0  0  0
   19.6707  -10.0781  -17.4421 C   0  0  0  0  0  0  0  0  0  0  0  0
   20.0158   -9.0774  -16.3782 C   0  0  1  0  0  0  0  0  0  0  0  0
   19.3952   -9.3289  -15.1718 O   0  0  0  0  0  0  0  0  0  0  0  0
   21.5428   -8.9550  -16.2201 C   0  0  2  0  0  0  0  0  0  0  0  0
   21.9451  -10.2597  -15.7285 N   0  0  0  0  0  0  0  0  0  0  0  0
   21.8191   -7.8694  -15.2826 C   0  0  0  0  0  0  0  0  0  0  0  0
   22.1366   -8.0195  -14.0645 O   0  0  0  0  0  0  0  0  0  0  0  0
   24.4357   -5.1836  -15.5635 C   0  0  0  0  0  0  0  0  0  0  0  0
   23.0956   -4.5030  -15.4416 C   0  0  1  0  0  0  0  0  0  0  0  0
   22.6918   -4.1542  -16.7391 O   0  0  0  0  0  0  0  0  0  0  0  0
   22.0366   -5.4067  -14.8798 C   0  0  2  0  0  0  0  0  0  0  0  0
   21.7366   -6.5283  -15.7337 N   0  0  0  0  0  0  0  0  0  0  0  0
   20.8325   -4.6171  -14.6106 C   0  0  0  0  0  0  0  0  0  0  0  0
   20.7284   -3.6377  -13.6524 O   0  0  0  0  0  0  0  0  0  0  0  0
   19.7822   -4.8341  -15.3053 O   0  0  0  0  0  0  0  0  0  0  0  0
  2  1  1  6
  3  2  1  0
  4  3  1  0
  5  4  2  0
  6  5  1  0
  7  6  2  0
  7  8  1  0
  8  9  2  0
  9  4  1  0
 10  2  1  0
 10 11  2  0
 13 12  1  6
 13 15  1  0
 13 14  1  0
 15 16  1  1
 16 10  1  0
 17 15  1  0
 18 17  2  0
 20 21  1  0
 20 19  1  6
 22 20  1  0
 22 23  1  6
 23 17  1  0
 24 25  1  0
 24 22  1  0
 26 24  2  0
M  END
$$$$
