FTT.pdb
     RDKit          3D

 26 26  0  0  1  0  0  0  0  0999 V2000
   20.9123  -21.8709  -15.2967 N   0  0  0  0  0  0  0  0  0  0  0  0
   20.1111  -23.0786  -15.2351 C   0  0  1  0  0  0  0  0  0  0  0  0
   20.5426  -24.0519  -16.3196 C   0  0  0  0  0  0  0  0  0  0  0  0
   19.7005  -23.9541  -17.5359 C   0  0  0  0  0  0  0  0  0  0  0  0
   18.5919  -24.7542  -17.6978 C   0  0  0  0  0  0  0  0  0  0  0  0
   17.8403  -24.6265  -18.8478 C   0  0  0  0  0  0  0  0  0  0  0  0
   18.1477  -23.7301  -19.8501 C   0  0  0  0  0  0  0  0  0  0  0  0
   19.2689  -22.9537  -19.6354 C   0  0  0  0  0  0  0  0  0  0  0  0
   20.0523  -23.0432  -18.5045 C   0  0  0  0  0  0  0  0  0  0  0  0
   20.1886  -23.6208  -13.8816 C   0  0  0  0  0  0  0  0  0  0  0  0
   21.2122  -23.3892  -13.1823 O   0  0  0  0  0  0  0  0  0  0  0  0
   19.0285  -23.9956   -9.5798 C   0  0  0  0  0  0  0  0  0  0  0  0
   19.2621  -23.6475  -11.0209 C   0  0  1  0  0  0  0  0  0  0  0  0
   20.3857  -22.8715  -11.2186 O   0  0  0  0  0  0  0  0  0  0  0  0
   19.2851  -24.9177  -11.8914 C   0  0  2  0  0  0  0  0  0  0  0  0
   19.1958  -24.4089  -13.2475 N   0  0  0  0  0  0  0  0  0  0  0  0
   18.1508  -25.7544  -11.5080 C   0  0  0  0  0  0  0  0  0  0  0  0
   16.9500  -25.5669  -11.8689 O   0  0  0  0  0  0  0  0  0  0  0  0
   18.7985  -29.8457  -10.6639 C   0  0  0  0  0  0  0  0  0  0  0  0
   17.8598  -29.0961   -9.7526 C   0  0  1  0  0  0  0  0  0  0  0  0
   18.5978  -28.7211   -8.6200 O   0  0  0  0  0  0  0  0  0  0  0  0
   17.3358  -27.8336  -10.3734 C   0  0  2  0  0  0  0  0  0  0  0  0
   18.3704  -26.8743  -10.6675 N   0  0  0  0  0  0  0  0  0  0  0  0
   16.3216  -27.2549   -9.4889 C   0  0  0  0  0  0  0  0  0  0  0  0
   16.4639  -26.0837   -8.7842 O   0  0  0  0  0  0  0  0  0  0  0  0
   15.2083  -27.8646   -9.3418 O   0  0  0  0  0  0  0  0  0  0  0  0
  2  1  1  1
  3  2  1  0
  4  3  1  0
  5  4  2  0
  6  5  1  0
  7  6  2  0
  7  8  1  0
  8  9  2  0
  9  4  1  0
 10  2  1  0
 10 11  2  0
 13 12  1  1
 13 15  1  0
 13 14  1  0
 15 16  1  6
 16 10  1  0
 17 15  1  0
 18 17  2  0
 20 21  1  0
 20 19  1  6
 22 20  1  0
 22 23  1  1
 23 17  1  0
 24 25  1  0
 24 22  1  0
 26 24  2  0
M  END
$$$$
