FTT.pdb
     RDKit          3D

 26 26  0  0  1  0  0  0  0  0999 V2000
   24.6303  -14.3469  -16.8351 N   0  0  0  0  0  0  0  0  0  0  0  0
   23.6090  -13.3415  -17.0598 C   0  0  1  0  0  0  0  0  0  0  0  0
   22.2267  -13.9668  -16.9707 C   0  0  0  0  0  0  0  0  0  0  0  0
   22.0045  -15.0001  -18.0104 C   0  0  0  0  0  0  0  0  0  0  0  0
   21.9652  -16.3372  -17.6852 C   0  0  0  0  0  0  0  0  0  0  0  0
   21.7564  -17.2611  -18.6886 C   0  0  0  0  0  0  0  0  0  0  0  0
   21.5839  -16.9077  -20.0107 C   0  0  0  0  0  0  0  0  0  0  0  0
   21.6325  -15.5544  -20.2796 C   0  0  0  0  0  0  0  0  0  0  0  0
   21.8383  -14.5927  -19.3135 C   0  0  0  0  0  0  0  0  0  0  0  0
   23.8266  -12.2395  -16.1270 C   0  0  0  0  0  0  0  0  0  0  0  0
   23.9276  -12.4858  -14.8944 O   0  0  0  0  0  0  0  0  0  0  0  0
   26.4779  -10.3805  -15.2801 C   0  0  0  0  0  0  0  0  0  0  0  0
   25.5155   -9.3050  -15.6921 C   0  0  1  0  0  0  0  0  0  0  0  0
   25.7511   -8.8206  -16.9623 O   0  0  0  0  0  0  0  0  0  0  0  0
   24.0609   -9.7819  -15.5235 C   0  0  2  0  0  0  0  0  0  0  0  0
   23.9415  -10.8705  -16.4756 N   0  0  0  0  0  0  0  0  0  0  0  0
   23.1753   -8.6566  -15.8122 C   0  0  0  0  0  0  0  0  0  0  0  0
   22.4003   -8.5751  -16.8121 O   0  0  0  0  0  0  0  0  0  0  0  0
   20.5238   -7.5755  -13.5260 C   0  0  0  0  0  0  0  0  0  0  0  0
   20.7709   -6.9493  -14.8753 C   0  0  1  0  0  0  0  0  0  0  0  0
   19.9537   -5.8119  -14.9569 O   0  0  0  0  0  0  0  0  0  0  0  0
   22.1883   -6.4853  -15.0471 C   0  0  2  0  0  0  0  0  0  0  0  0
   23.1522   -7.5500  -14.9270 N   0  0  0  0  0  0  0  0  0  0  0  0
   22.4604   -5.4212  -14.0777 C   0  0  0  0  0  0  0  0  0  0  0  0
   21.8693   -4.1806  -14.0803 O   0  0  0  0  0  0  0  0  0  0  0  0
   23.3087   -5.6349  -13.1463 O   0  0  0  0  0  0  0  0  0  0  0  0
  2  1  1  1
  3  2  1  0
  4  3  1  0
  5  4  2  0
  6  5  1  0
  7  6  2  0
  7  8  1  0
  8  9  2  0
  9  4  1  0
 10  2  1  0
 10 11  2  0
 13 12  1  6
 13 15  1  0
 13 14  1  0
 15 16  1  6
 16 10  1  0
 17 15  1  0
 18 17  2  0
 20 21  1  0
 20 19  1  1
 22 20  1  0
 22 23  1  1
 23 17  1  0
 24 25  1  0
 24 22  1  0
 26 24  2  0
M  END
$$$$
