FTT.pdb
     RDKit          3D

 26 26  0  0  1  0  0  0  0  0999 V2000
   28.3733  -21.1310   -9.1042 N   0  0  0  0  0  0  0  0  0  0  0  0
   27.0337  -20.6043   -8.9242 C   0  0  1  0  0  0  0  0  0  0  0  0
   27.0703  -19.3610   -8.0510 C   0  0  0  0  0  0  0  0  0  0  0  0
   27.6929  -19.6151   -6.7297 C   0  0  0  0  0  0  0  0  0  0  0  0
   27.0557  -20.3822   -5.7806 C   0  0  0  0  0  0  0  0  0  0  0  0
   27.6755  -20.5893   -4.5654 C   0  0  0  0  0  0  0  0  0  0  0  0
   28.9110  -20.0617   -4.2530 C   0  0  0  0  0  0  0  0  0  0  0  0
   29.5040  -19.3011   -5.2410 C   0  0  0  0  0  0  0  0  0  0  0  0
   28.9264  -19.0649   -6.4703 C   0  0  0  0  0  0  0  0  0  0  0  0
   26.4356  -20.3926  -10.2392 C   0  0  0  0  0  0  0  0  0  0  0  0
   27.1266  -19.8659  -11.1532 O   0  0  0  0  0  0  0  0  0  0  0  0
   26.8375  -20.9664  -12.7909 C   0  0  0  0  0  0  0  0  0  0  0  0
   25.3968  -21.3824  -12.8536 C   0  0  1  0  0  0  0  0  0  0  0  0
   25.2071  -22.7273  -12.6107 O   0  0  0  0  0  0  0  0  0  0  0  0
   24.5360  -20.5072  -11.9237 C   0  0  2  0  0  0  0  0  0  0  0  0
   25.1100  -20.7307  -10.6098 N   0  0  0  0  0  0  0  0  0  0  0  0
   23.1485  -20.9499  -12.0355 C   0  0  0  0  0  0  0  0  0  0  0  0
   22.6504  -21.9497  -11.4359 O   0  0  0  0  0  0  0  0  0  0  0  0
   20.1267  -19.0626  -11.0350 C   0  0  0  0  0  0  0  0  0  0  0  0
   19.9829  -19.3791  -12.5023 C   0  0  1  0  0  0  0  0  0  0  0  0
   20.4155  -18.2485  -13.2114 O   0  0  0  0  0  0  0  0  0  0  0  0
   20.8491  -20.5267  -12.9344 C   0  0  2  0  0  0  0  0  0  0  0  0
   22.2579  -20.2297  -12.8703 N   0  0  0  0  0  0  0  0  0  0  0  0
   20.4606  -20.9316  -14.2876 C   0  0  0  0  0  0  0  0  0  0  0  0
   19.2220  -21.4079  -14.6443 O   0  0  0  0  0  0  0  0  0  0  0  0
   21.3198  -20.8460  -15.2296 O   0  0  0  0  0  0  0  0  0  0  0  0
  2  1  1  6
  3  2  1  0
  4  3  1  0
  5  4  2  0
  6  5  1  0
  7  6  2  0
  7  8  1  0
  8  9  2  0
  9  4  1  0
 10  2  1  0
 10 11  2  0
 13 12  1  1
 13 15  1  0
 13 14  1  0
 15 16  1  1
 16 10  1  0
 17 15  1  0
 18 17  2  0
 20 21  1  0
 20 19  1  1
 22 20  1  0
 22 23  1  6
 23 17  1  0
 24 25  1  0
 24 22  1  0
 26 24  2  0
M  END
$$$$
