FTT.pdb
     RDKit          3D

 26 26  0  0  1  0  0  0  0  0999 V2000
   26.4930  -18.9083  -19.7171 N   0  0  0  0  0  0  0  0  0  0  0  0
   26.0832  -18.9519  -18.3262 C   0  0  1  0  0  0  0  0  0  0  0  0
   26.4683  -17.6604  -17.6238 C   0  0  0  0  0  0  0  0  0  0  0  0
   27.9345  -17.4414  -17.6051 C   0  0  0  0  0  0  0  0  0  0  0  0
   28.5099  -16.4262  -18.3356 C   0  0  0  0  0  0  0  0  0  0  0  0
   29.8791  -16.2632  -18.2863 C   0  0  0  0  0  0  0  0  0  0  0  0
   30.7052  -17.0733  -17.5354 C   0  0  0  0  0  0  0  0  0  0  0  0
   30.0753  -18.0743  -16.8232 C   0  0  0  0  0  0  0  0  0  0  0  0
   28.7119  -18.2784  -16.8392 C   0  0  0  0  0  0  0  0  0  0  0  0
   24.6570  -19.2594  -18.2700 C   0  0  0  0  0  0  0  0  0  0  0  0
   23.8875  -18.7783  -19.1456 O   0  0  0  0  0  0  0  0  0  0  0  0
   21.1937  -22.4474  -17.2589 C   0  0  0  0  0  0  0  0  0  0  0  0
   22.5544  -21.8935  -17.5655 C   0  0  1  0  0  0  0  0  0  0  0  0
   22.9851  -22.1831  -18.8439 O   0  0  0  0  0  0  0  0  0  0  0  0
   22.6058  -20.3821  -17.2744 C   0  0  2  0  0  0  0  0  0  0  0  0
   24.0235  -20.0736  -17.2980 N   0  0  0  0  0  0  0  0  0  0  0  0
   21.9804  -20.1458  -15.9757 C   0  0  0  0  0  0  0  0  0  0  0  0
   22.5048  -20.4139  -14.8530 O   0  0  0  0  0  0  0  0  0  0  0  0
   20.5400  -16.7945  -14.7562 C   0  0  0  0  0  0  0  0  0  0  0  0
   19.4714  -17.8538  -14.6578 C   0  0  1  0  0  0  0  0  0  0  0  0
   18.6540  -17.7200  -15.7901 O   0  0  0  0  0  0  0  0  0  0  0  0
   20.0326  -19.2460  -14.6830 C   0  0  2  0  0  0  0  0  0  0  0  0
   20.6853  -19.5720  -15.9259 N   0  0  0  0  0  0  0  0  0  0  0  0
   18.9571  -20.1969  -14.3915 C   0  0  0  0  0  0  0  0  0  0  0  0
   18.3501  -20.3518  -13.1684 O   0  0  0  0  0  0  0  0  0  0  0  0
   18.5300  -20.9540  -15.3280 O   0  0  0  0  0  0  0  0  0  0  0  0
  2  1  1  6
  3  2  1  0
  4  3  1  0
  5  4  2  0
  6  5  1  0
  7  6  2  0
  7  8  1  0
  8  9  2  0
  9  4  1  0
 10  2  1  0
 10 11  2  0
 13 12  1  6
 13 15  1  0
 13 14  1  0
 15 16  1  1
 16 10  1  0
 17 15  1  0
 18 17  2  0
 20 21  1  0
 20 19  1  6
 22 20  1  0
 22 23  1  6
 23 17  1  0
 24 25  1  0
 24 22  1  0
 26 24  2  0
M  END
$$$$
