FTT.pdb
     RDKit          3D

 26 26  0  0  1  0  0  0  0  0999 V2000
   19.3466  -12.7587  -17.9403 N   0  0  0  0  0  0  0  0  0  0  0  0
   19.8187  -12.1306  -16.7209 C   0  0  1  0  0  0  0  0  0  0  0  0
   21.1657  -12.7081  -16.3191 C   0  0  0  0  0  0  0  0  0  0  0  0
   21.0884  -14.1526  -15.9944 C   0  0  0  0  0  0  0  0  0  0  0  0
   21.5231  -15.1053  -16.8882 C   0  0  0  0  0  0  0  0  0  0  0  0
   21.4296  -16.4372  -16.5403 C   0  0  0  0  0  0  0  0  0  0  0  0
   20.9184  -16.8637  -15.3322 C   0  0  0  0  0  0  0  0  0  0  0  0
   20.4979  -15.8665  -14.4750 C   0  0  0  0  0  0  0  0  0  0  0  0
   20.5700  -14.5230  -14.7755 C   0  0  0  0  0  0  0  0  0  0  0  0
   19.8236  -10.6833  -16.9140 C   0  0  0  0  0  0  0  0  0  0  0  0
   20.2681  -10.2068  -17.9936 O   0  0  0  0  0  0  0  0  0  0  0  0
   17.1185   -8.3607  -17.1880 C   0  0  0  0  0  0  0  0  0  0  0  0
   17.9375   -7.8493  -16.0391 C   0  0  1  0  0  0  0  0  0  0  0  0
   17.4194   -8.1902  -14.8065 O   0  0  0  0  0  0  0  0  0  0  0  0
   19.4076   -8.2856  -16.1810 C   0  0  2  0  0  0  0  0  0  0  0  0
   19.3627   -9.7221  -15.9798 N   0  0  0  0  0  0  0  0  0  0  0  0
   20.1925   -7.5808  -15.1706 C   0  0  0  0  0  0  0  0  0  0  0  0
   20.2743   -7.9097  -13.9490 O   0  0  0  0  0  0  0  0  0  0  0  0
   23.9535   -6.7971  -15.3549 C   0  0  0  0  0  0  0  0  0  0  0  0
   23.1824   -5.5138  -15.1754 C   0  0  1  0  0  0  0  0  0  0  0  0
   23.0323   -4.9425  -16.4479 O   0  0  0  0  0  0  0  0  0  0  0  0
   21.8022   -5.7396  -14.6294 C   0  0  2  0  0  0  0  0  0  0  0  0
   20.9356   -6.4344  -15.5477 N   0  0  0  0  0  0  0  0  0  0  0  0
   21.2276   -4.4488  -14.2425 C   0  0  0  0  0  0  0  0  0  0  0  0
   21.6921   -3.6511  -13.2245 O   0  0  0  0  0  0  0  0  0  0  0  0
   20.2152   -4.0051  -14.8836 O   0  0  0  0  0  0  0  0  0  0  0  0
  2  1  1  6
  3  2  1  0
  4  3  1  0
  5  4  2  0
  6  5  1  0
  7  6  2  0
  7  8  1  0
  8  9  2  0
  9  4  1  0
 10  2  1  0
 10 11  2  0
 13 12  1  6
 13 15  1  0
 13 14  1  0
 15 16  1  1
 16 10  1  0
 17 15  1  0
 18 17  2  0
 20 21  1  0
 20 19  1  6
 22 20  1  0
 22 23  1  6
 23 17  1  0
 24 25  1  0
 24 22  1  0
 26 24  2  0
M  END
$$$$
