FTT.pdb
     RDKit          3D

 26 26  0  0  1  0  0  0  0  0999 V2000
   23.1147  -14.0233  -17.4775 N   0  0  0  0  0  0  0  0  0  0  0  0
   23.6039  -12.9931  -16.5810 C   0  0  1  0  0  0  0  0  0  0  0  0
   25.1210  -12.9239  -16.6372 C   0  0  0  0  0  0  0  0  0  0  0  0
   25.7604  -14.2116  -16.2755 C   0  0  0  0  0  0  0  0  0  0  0  0
   25.7579  -14.6649  -14.9756 C   0  0  0  0  0  0  0  0  0  0  0  0
   26.3670  -15.8693  -14.6888 C   0  0  0  0  0  0  0  0  0  0  0  0
   26.9824  -16.6467  -15.6476 C   0  0  0  0  0  0  0  0  0  0  0  0
   26.9550  -16.1443  -16.9333 C   0  0  0  0  0  0  0  0  0  0  0  0
   26.3600  -14.9474  -17.2709 C   0  0  0  0  0  0  0  0  0  0  0  0
   22.9367  -11.7361  -16.9074 C   0  0  0  0  0  0  0  0  0  0  0  0
   22.4325  -11.5851  -18.0534 O   0  0  0  0  0  0  0  0  0  0  0  0
   20.4444  -10.7851  -17.6584 C   0  0  0  0  0  0  0  0  0  0  0  0
   20.6159   -9.8500  -16.4971 C   0  0  1  0  0  0  0  0  0  0  0  0
   20.1318  -10.3608  -15.3103 O   0  0  0  0  0  0  0  0  0  0  0  0
   22.0841   -9.4030  -16.3696 C   0  0  2  0  0  0  0  0  0  0  0  0
   22.7902  -10.6265  -16.0376 N   0  0  0  0  0  0  0  0  0  0  0  0
   22.1622   -8.3845  -15.3255 C   0  0  0  0  0  0  0  0  0  0  0  0
   22.4037   -8.6103  -14.1016 O   0  0  0  0  0  0  0  0  0  0  0  0
   22.1668   -4.2163  -16.5408 C   0  0  0  0  0  0  0  0  0  0  0  0
   22.8885   -4.7751  -15.3405 C   0  0  1  0  0  0  0  0  0  0  0  0
   22.9137   -3.7640  -14.3682 O   0  0  0  0  0  0  0  0  0  0  0  0
   22.1785   -5.9505  -14.7339 C   0  0  2  0  0  0  0  0  0  0  0  0
   21.9583   -7.0247  -15.6692 N   0  0  0  0  0  0  0  0  0  0  0  0
   20.9131   -5.4936  -14.1543 C   0  0  0  0  0  0  0  0  0  0  0  0
   20.7952   -4.7310  -13.0173 O   0  0  0  0  0  0  0  0  0  0  0  0
   19.8179   -5.8139  -14.7293 O   0  0  0  0  0  0  0  0  0  0  0  0
  2  1  1  6
  3  2  1  0
  4  3  1  0
  5  4  2  0
  6  5  1  0
  7  6  2  0
  7  8  1  0
  8  9  2  0
  9  4  1  0
 10  2  1  0
 10 11  2  0
 13 12  1  6
 13 15  1  0
 13 14  1  0
 15 16  1  1
 16 10  1  0
 17 15  1  0
 18 17  2  0
 20 21  1  0
 20 19  1  6
 22 20  1  0
 22 23  1  6
 23 17  1  0
 24 25  1  0
 24 22  1  0
 26 24  2  0
M  END
$$$$
