FTT.pdb
     RDKit          3D

 26 26  0  0  1  0  0  0  0  0999 V2000
   29.1431  -20.9058  -12.0278 N   0  0  0  0  0  0  0  0  0  0  0  0
   27.9017  -21.2918  -11.3842 C   0  0  1  0  0  0  0  0  0  0  0  0
   27.9657  -20.9924   -9.8956 C   0  0  0  0  0  0  0  0  0  0  0  0
   29.2719  -21.3618   -9.2993 C   0  0  0  0  0  0  0  0  0  0  0  0
   29.6277  -20.9249   -8.0433 C   0  0  0  0  0  0  0  0  0  0  0  0
   30.8546  -21.2948   -7.5319 C   0  0  0  0  0  0  0  0  0  0  0  0
   31.7483  -22.0865   -8.2226 C   0  0  0  0  0  0  0  0  0  0  0  0
   31.3401  -22.4958   -9.4764 C   0  0  0  0  0  0  0  0  0  0  0  0
   30.1255  -22.1536  -10.0315 C   0  0  0  0  0  0  0  0  0  0  0  0
   26.7948  -20.6387  -12.0771 C   0  0  0  0  0  0  0  0  0  0  0  0
   26.9690  -19.4933  -12.5751 O   0  0  0  0  0  0  0  0  0  0  0  0
   26.3095  -19.6219  -14.4359 C   0  0  0  0  0  0  0  0  0  0  0  0
   25.0721  -20.4708  -14.4607 C   0  0  1  0  0  0  0  0  0  0  0  0
   25.2772  -21.7167  -15.0170 O   0  0  0  0  0  0  0  0  0  0  0  0
   24.4501  -20.5685  -13.0553 C   0  0  2  0  0  0  0  0  0  0  0  0
   25.4964  -21.1785  -12.2559 N   0  0  0  0  0  0  0  0  0  0  0  0
   23.2397  -21.3810  -13.1472 C   0  0  0  0  0  0  0  0  0  0  0  0
   23.2004  -22.6452  -13.0605 O   0  0  0  0  0  0  0  0  0  0  0  0
   19.9009  -20.3981  -11.1390 C   0  0  0  0  0  0  0  0  0  0  0  0
   19.6515  -20.6378  -12.6067 C   0  0  1  0  0  0  0  0  0  0  0  0
   19.6457  -19.3827  -13.2334 O   0  0  0  0  0  0  0  0  0  0  0  0
   20.7380  -21.4470  -13.2537 C   0  0  2  0  0  0  0  0  0  0  0  0
   21.9910  -20.7413  -13.3483 N   0  0  0  0  0  0  0  0  0  0  0  0
   20.2819  -21.8833  -14.5756 C   0  0  0  0  0  0  0  0  0  0  0  0
   20.8477  -21.5070  -15.7700 O   0  0  0  0  0  0  0  0  0  0  0  0
   19.2824  -22.6756  -14.6549 O   0  0  0  0  0  0  0  0  0  0  0  0
  2  1  1  6
  3  2  1  0
  4  3  1  0
  5  4  2  0
  6  5  1  0
  7  6  2  0
  7  8  1  0
  8  9  2  0
  9  4  1  0
 10  2  1  0
 10 11  2  0
 13 12  1  1
 13 15  1  0
 13 14  1  0
 15 16  1  1
 16 10  1  0
 17 15  1  0
 18 17  2  0
 20 21  1  0
 20 19  1  1
 22 20  1  0
 22 23  1  6
 23 17  1  0
 24 25  1  0
 24 22  1  0
 26 24  2  0
M  END
$$$$
