ACI.pdb
     RDKit          3D

 20 19  0  0  1  0  0  0  0  0999 V2000
    7.5421  -17.2464   18.4166 C   0  0  0  0  0  0  0  0  0  0  0  0
    8.4117  -17.1477   19.6359 C   0  0  2  0  0  0  0  0  0  0  0  0
    9.0101  -18.4337   19.9273 N   0  0  0  0  0  0  0  0  0  0  0  0
    7.6047  -16.6643   20.8121 C   0  0  0  0  0  0  0  0  0  0  0  0
    7.0390  -15.5605   20.7876 O   0  0  0  0  0  0  0  0  0  0  0  0
    7.4802  -17.4628   21.9622 N   0  0  0  0  0  0  0  0  0  0  0  0
    6.7113  -17.0201   23.1304 C   0  0  1  0  0  0  0  0  0  0  0  0
    6.2522  -18.2779   23.8395 C   0  0  0  0  0  0  0  0  0  0  0  0
    7.5292  -18.9357   24.9119 S   0  0  0  0  0  0  0  0  0  0  0  0
    7.5797  -16.2042   24.0264 C   0  0  0  0  0  0  0  0  0  0  0  0
    8.8357  -16.2625   23.8249 O   0  0  0  0  0  0  0  0  0  0  0  0
    5.5652  -11.6060   26.0546 C   0  0  0  0  0  0  0  0  0  0  0  0
    6.6203  -12.4795   25.5050 C   0  0  0  0  0  0  0  0  0  0  0  0
    7.3651  -13.3944   26.3757 C   0  0  2  0  0  0  0  0  0  0  0  0
    8.3527  -12.5731   27.2585 C   0  0  0  0  0  0  0  0  0  0  0  0
    8.0850  -14.5634   25.8225 C   0  0  2  0  0  0  0  0  0  0  0  0
    7.1043  -15.3904   25.0572 N   0  0  0  0  0  0  0  0  0  0  0  0
    8.7775  -15.4495   26.7466 C   0  0  0  0  0  0  0  0  0  0  0  0
    8.2601  -16.3928   27.3802 O   0  0  0  0  0  0  0  0  0  0  0  0
   10.1501  -15.2612   26.9739 O   0  0  0  0  0  0  0  0  0  0  0  0
  2  1  1  6
  2  3  1  0
  4  2  1  0
  5  4  2  0
  6  4  1  0
  7  6  1  0
  7  8  1  1
  9  8  1  0
 10  7  1  0
 10 11  2  0
 12 13  1  0
 14 13  1  0
 14 16  1  0
 14 15  1  6
 16 17  1  1
 17 10  1  0
 18 16  1  0
 19 18  2  0
 20 18  1  0
M  END
$$$$
