ACI.pdb
     RDKit          3D

 20 19  0  0  1  0  0  0  0  0999 V2000
    7.1316  -16.4775   18.6693 C   0  0  0  0  0  0  0  0  0  0  0  0
    8.2101  -16.5742   19.7086 C   0  0  2  0  0  0  0  0  0  0  0  0
    8.8611  -17.8655   19.6334 N   0  0  0  0  0  0  0  0  0  0  0  0
    7.6300  -16.3568   21.0814 C   0  0  0  0  0  0  0  0  0  0  0  0
    7.0301  -15.3078   21.3620 O   0  0  0  0  0  0  0  0  0  0  0  0
    7.7612  -17.3464   22.0710 N   0  0  0  0  0  0  0  0  0  0  0  0
    7.1312  -17.2094   23.3887 C   0  0  1  0  0  0  0  0  0  0  0  0
    7.1300  -18.5932   24.0060 C   0  0  0  0  0  0  0  0  0  0  0  0
    6.6384  -18.5480   25.7292 S   0  0  0  0  0  0  0  0  0  0  0  0
    7.9203  -16.2644   24.2296 C   0  0  0  0  0  0  0  0  0  0  0  0
    9.1661  -16.1724   23.9828 O   0  0  0  0  0  0  0  0  0  0  0  0
    5.5052  -11.8273   26.4639 C   0  0  0  0  0  0  0  0  0  0  0  0
    6.5444  -12.6495   25.8141 C   0  0  0  0  0  0  0  0  0  0  0  0
    7.4367  -13.4971   26.6111 C   0  0  2  0  0  0  0  0  0  0  0  0
    8.3426  -12.5941   27.5019 C   0  0  0  0  0  0  0  0  0  0  0  0
    8.2810  -14.5330   25.9746 C   0  0  2  0  0  0  0  0  0  0  0  0
    7.3817  -15.4844   25.2553 N   0  0  0  0  0  0  0  0  0  0  0  0
    9.1643  -15.3212   26.8214 C   0  0  0  0  0  0  0  0  0  0  0  0
   10.3672  -15.0766   27.0498 O   0  0  0  0  0  0  0  0  0  0  0  0
    8.6582  -16.4662   27.4570 O   0  0  0  0  0  0  0  0  0  0  0  0
  2  1  1  6
  2  3  1  0
  4  2  1  0
  5  4  2  0
  6  4  1  0
  7  6  1  0
  7  8  1  1
  9  8  1  0
 10  7  1  0
 10 11  2  0
 12 13  1  0
 14 13  1  0
 14 16  1  0
 14 15  1  6
 16 17  1  1
 17 10  1  0
 18 16  1  0
 19 18  2  0
 20 18  1  0
M  END
$$$$
