ACI.pdb
     RDKit          3D

 20 19  0  0  1  0  0  0  0  0999 V2000
    8.2455  -12.2480   19.2159 C   0  0  0  0  0  0  0  0  0  0  0  0
    8.4165  -13.6952   18.8569 C   0  0  2  0  0  0  0  0  0  0  0  0
    7.7610  -13.9775   17.5969 N   0  0  0  0  0  0  0  0  0  0  0  0
    7.8584  -14.5708   19.9478 C   0  0  0  0  0  0  0  0  0  0  0  0
    6.6836  -14.9675   19.9096 O   0  0  0  0  0  0  0  0  0  0  0  0
    8.6665  -14.9535   21.0324 N   0  0  0  0  0  0  0  0  0  0  0  0
    8.1564  -15.8035   22.1138 C   0  0  1  0  0  0  0  0  0  0  0  0
    8.7416  -17.1820   21.8837 C   0  0  0  0  0  0  0  0  0  0  0  0
    8.4290  -18.2729   23.2713 S   0  0  0  0  0  0  0  0  0  0  0  0
    8.5979  -15.2632   23.4313 C   0  0  0  0  0  0  0  0  0  0  0  0
    9.8260  -14.9463   23.5445 O   0  0  0  0  0  0  0  0  0  0  0  0
    5.6946  -11.6528   26.0478 C   0  0  0  0  0  0  0  0  0  0  0  0
    6.7949  -12.4917   25.5343 C   0  0  0  0  0  0  0  0  0  0  0  0
    7.3657  -13.5643   26.3551 C   0  0  2  0  0  0  0  0  0  0  0  0
    7.9707  -12.9504   27.6538 C   0  0  0  0  0  0  0  0  0  0  0  0
    8.3370  -14.5277   25.7901 C   0  0  2  0  0  0  0  0  0  0  0  0
    7.7565  -15.0851   24.5317 N   0  0  0  0  0  0  0  0  0  0  0  0
    8.7548  -15.6521   26.6148 C   0  0  0  0  0  0  0  0  0  0  0  0
    8.1137  -16.7096   26.7870 O   0  0  0  0  0  0  0  0  0  0  0  0
    9.9815  -15.5819   27.2939 O   0  0  0  0  0  0  0  0  0  0  0  0
  2  1  1  1
  2  3  1  0
  4  2  1  0
  5  4  2  0
  6  4  1  0
  7  6  1  0
  7  8  1  6
  9  8  1  0
 10  7  1  0
 10 11  2  0
 12 13  1  0
 14 13  1  0
 14 16  1  0
 14 15  1  1
 16 17  1  6
 17 10  1  0
 18 16  1  0
 19 18  2  0
 20 18  1  0
M  END
$$$$
