ACI.pdb
     RDKit          3D

 20 19  0  0  1  0  0  0  0  0999 V2000
    7.6319  -13.1478   18.6791 C   0  0  0  0  0  0  0  0  0  0  0  0
    8.5124  -14.0194   19.5264 C   0  0  2  0  0  0  0  0  0  0  0  0
    8.8357  -15.2403   18.8181 N   0  0  0  0  0  0  0  0  0  0  0  0
    7.8307  -14.3336   20.8322 C   0  0  0  0  0  0  0  0  0  0  0  0
    7.4869  -13.4277   21.6068 O   0  0  0  0  0  0  0  0  0  0  0  0
    7.5727  -15.6671   21.1940 N   0  0  0  0  0  0  0  0  0  0  0  0
    6.9100  -16.0105   22.4569 C   0  0  1  0  0  0  0  0  0  0  0  0
    6.6964  -17.5103   22.4315 C   0  0  0  0  0  0  0  0  0  0  0  0
    6.1017  -18.1202   24.0088 S   0  0  0  0  0  0  0  0  0  0  0  0
    7.7813  -15.6275   23.6044 C   0  0  0  0  0  0  0  0  0  0  0  0
    9.0397  -15.7097   23.4280 O   0  0  0  0  0  0  0  0  0  0  0  0
    5.7251  -11.7053   26.5812 C   0  0  0  0  0  0  0  0  0  0  0  0
    6.7773  -12.4577   25.8707 C   0  0  0  0  0  0  0  0  0  0  0  0
    7.5356  -13.5114   26.5524 C   0  0  2  0  0  0  0  0  0  0  0  0
    8.5161  -12.8596   27.5737 C   0  0  0  0  0  0  0  0  0  0  0  0
    8.2676  -14.5461   25.7878 C   0  0  2  0  0  0  0  0  0  0  0  0
    7.3062  -15.1888   24.8423 N   0  0  0  0  0  0  0  0  0  0  0  0
    8.9328  -15.6098   26.5258 C   0  0  0  0  0  0  0  0  0  0  0  0
   10.1308  -15.6162   26.8773 O   0  0  0  0  0  0  0  0  0  0  0  0
    8.1977  -16.7475   26.8950 O   0  0  0  0  0  0  0  0  0  0  0  0
  2  1  1  6
  2  3  1  0
  4  2  1  0
  5  4  2  0
  6  4  1  0
  7  6  1  0
  7  8  1  6
  9  8  1  0
 10  7  1  0
 10 11  2  0
 12 13  1  0
 14 13  1  0
 14 16  1  0
 14 15  1  6
 16 17  1  6
 17 10  1  0
 18 16  1  0
 19 18  2  0
 20 18  1  0
M  END
$$$$
