ACI.pdb
     RDKit          3D

 20 19  0  0  1  0  0  0  0  0999 V2000
    8.3342  -12.3062   19.1957 C   0  0  0  0  0  0  0  0  0  0  0  0
    8.4450  -13.7721   18.8932 C   0  0  2  0  0  0  0  0  0  0  0  0
    7.8393  -14.0640   17.6106 N   0  0  0  0  0  0  0  0  0  0  0  0
    7.7866  -14.5787   19.9815 C   0  0  0  0  0  0  0  0  0  0  0  0
    6.5728  -14.8320   19.9428 O   0  0  0  0  0  0  0  0  0  0  0  0
    8.5436  -15.0591   21.0641 N   0  0  0  0  0  0  0  0  0  0  0  0
    7.9244  -15.7867   22.1772 C   0  0  1  0  0  0  0  0  0  0  0  0
    8.3331  -17.2369   22.0177 C   0  0  0  0  0  0  0  0  0  0  0  0
    7.9182  -18.2042   23.4687 S   0  0  0  0  0  0  0  0  0  0  0  0
    8.4223  -15.2445   23.4737 C   0  0  0  0  0  0  0  0  0  0  0  0
    9.6730  -15.0237   23.5662 O   0  0  0  0  0  0  0  0  0  0  0  0
    5.4454  -11.6417   26.1983 C   0  0  0  0  0  0  0  0  0  0  0  0
    6.5833  -12.3937   25.6346 C   0  0  0  0  0  0  0  0  0  0  0  0
    7.2392  -13.4525   26.4083 C   0  0  2  0  0  0  0  0  0  0  0  0
    7.8623  -12.8357   27.6970 C   0  0  0  0  0  0  0  0  0  0  0  0
    8.2354  -14.3525   25.7850 C   0  0  2  0  0  0  0  0  0  0  0  0
    7.6102  -14.9670   24.5755 N   0  0  0  0  0  0  0  0  0  0  0  0
    8.7889  -15.4329   26.5882 C   0  0  0  0  0  0  0  0  0  0  0  0
    9.8975  -15.4221   27.1624 O   0  0  0  0  0  0  0  0  0  0  0  0
    8.0417  -16.6094   26.7578 O   0  0  0  0  0  0  0  0  0  0  0  0
  2  1  1  1
  2  3  1  0
  4  2  1  0
  5  4  2  0
  6  4  1  0
  7  6  1  0
  7  8  1  6
  9  8  1  0
 10  7  1  0
 10 11  2  0
 12 13  1  0
 14 13  1  0
 14 16  1  0
 14 15  1  1
 16 17  1  6
 17 10  1  0
 18 16  1  0
 19 18  2  0
 20 18  1  0
M  END
$$$$
