ACI.pdb
     RDKit          3D

 20 19  0  0  1  0  0  0  0  0999 V2000
    8.2021  -12.4556   19.0856 C   0  0  0  0  0  0  0  0  0  0  0  0
    8.3901  -13.9212   18.8218 C   0  0  2  0  0  0  0  0  0  0  0  0
    7.7267  -14.2954   17.5902 N   0  0  0  0  0  0  0  0  0  0  0  0
    7.8547  -14.7295   19.9743 C   0  0  0  0  0  0  0  0  0  0  0  0
    6.6493  -15.0133   20.0494 O   0  0  0  0  0  0  0  0  0  0  0  0
    8.7193  -15.1770   20.9882 N   0  0  0  0  0  0  0  0  0  0  0  0
    8.2233  -15.9067   22.1601 C   0  0  1  0  0  0  0  0  0  0  0  0
    8.8926  -17.2657   22.1301 C   0  0  0  0  0  0  0  0  0  0  0  0
    8.6280  -18.1667   23.6570 S   0  0  0  0  0  0  0  0  0  0  0  0
    8.5906  -15.1722   23.4045 C   0  0  0  0  0  0  0  0  0  0  0  0
    9.7630  -14.6785   23.4602 O   0  0  0  0  0  0  0  0  0  0  0  0
    6.3661  -10.9895   27.0629 C   0  0  0  0  0  0  0  0  0  0  0  0
    7.3711  -12.0538   26.8745 C   0  0  0  0  0  0  0  0  0  0  0  0
    7.1651  -13.1118   25.8806 C   0  0  2  0  0  0  0  0  0  0  0  0
    5.8094  -13.8266   26.1648 C   0  0  0  0  0  0  0  0  0  0  0  0
    8.1993  -14.1410   25.6308 C   0  0  2  0  0  0  0  0  0  0  0  0
    7.7370  -14.9948   24.4956 N   0  0  0  0  0  0  0  0  0  0  0  0
    8.5693  -15.0286   26.7235 C   0  0  0  0  0  0  0  0  0  0  0  0
    9.2869  -14.7258   27.6994 O   0  0  0  0  0  0  0  0  0  0  0  0
    8.0982  -16.3511   26.7181 O   0  0  0  0  0  0  0  0  0  0  0  0
  2  1  1  1
  2  3  1  0
  4  2  1  0
  5  4  2  0
  6  4  1  0
  7  6  1  0
  7  8  1  1
  9  8  1  0
 10  7  1  0
 10 11  2  0
 12 13  1  0
 14 13  1  0
 14 16  1  0
 14 15  1  1
 16 17  1  6
 17 10  1  0
 18 16  1  0
 19 18  2  0
 20 18  1  0
M  END
$$$$
