ACI.pdb
     RDKit          3D

 20 19  0  0  1  0  0  0  0  0999 V2000
    8.1877  -13.0193   19.0670 C   0  0  0  0  0  0  0  0  0  0  0  0
    8.1027  -14.5171   19.0219 C   0  0  2  0  0  0  0  0  0  0  0  0
    7.4163  -14.9419   17.8197 N   0  0  0  0  0  0  0  0  0  0  0  0
    7.3912  -15.0343   20.2445 C   0  0  0  0  0  0  0  0  0  0  0  0
    6.1521  -15.0604   20.2986 O   0  0  0  0  0  0  0  0  0  0  0  0
    8.1264  -15.4979   21.3492 N   0  0  0  0  0  0  0  0  0  0  0  0
    7.4677  -15.9825   22.5671 C   0  0  1  0  0  0  0  0  0  0  0  0
    7.5822  -17.4931   22.5407 C   0  0  0  0  0  0  0  0  0  0  0  0
    7.0224  -18.2254   24.0782 S   0  0  0  0  0  0  0  0  0  0  0  0
    8.1564  -15.4286   23.7678 C   0  0  0  0  0  0  0  0  0  0  0  0
    9.4288  -15.3886   23.7379 O   0  0  0  0  0  0  0  0  0  0  0  0
    5.8596  -11.3935   26.4971 C   0  0  0  0  0  0  0  0  0  0  0  0
    6.9108  -12.2436   25.9052 C   0  0  0  0  0  0  0  0  0  0  0  0
    7.5205  -13.3297   26.6788 C   0  0  2  0  0  0  0  0  0  0  0  0
    8.3646  -12.7220   27.8397 C   0  0  0  0  0  0  0  0  0  0  0  0
    8.3172  -14.3880   26.0182 C   0  0  2  0  0  0  0  0  0  0  0  0
    7.4984  -14.9563   24.9056 N   0  0  0  0  0  0  0  0  0  0  0  0
    8.7912  -15.5023   26.8260 C   0  0  0  0  0  0  0  0  0  0  0  0
    8.1320  -16.5194   27.1258 O   0  0  0  0  0  0  0  0  0  0  0  0
   10.1002  -15.4701   27.3324 O   0  0  0  0  0  0  0  0  0  0  0  0
  2  1  1  1
  2  3  1  0
  4  2  1  0
  5  4  2  0
  6  4  1  0
  7  6  1  0
  7  8  1  1
  9  8  1  0
 10  7  1  0
 10 11  2  0
 12 13  1  0
 14 13  1  0
 14 16  1  0
 14 15  1  1
 16 17  1  6
 17 10  1  0
 18 16  1  0
 19 18  2  0
 20 18  1  0
M  END
$$$$
