ACI.pdb
     RDKit          3D

 20 19  0  0  1  0  0  0  0  0999 V2000
    8.4526  -12.4691   19.0548 C   0  0  0  0  0  0  0  0  0  0  0  0
    8.3832  -13.9567   18.8678 C   0  0  2  0  0  0  0  0  0  0  0  0
    7.7416  -14.2718   17.6084 N   0  0  0  0  0  0  0  0  0  0  0  0
    7.6359  -14.5901   20.0118 C   0  0  0  0  0  0  0  0  0  0  0  0
    6.4002  -14.6963   19.9860 O   0  0  0  0  0  0  0  0  0  0  0  0
    8.3331  -15.0732   21.1327 N   0  0  0  0  0  0  0  0  0  0  0  0
    7.6439  -15.7410   22.2422 C   0  0  1  0  0  0  0  0  0  0  0  0
    7.9210  -17.2224   22.0855 C   0  0  0  0  0  0  0  0  0  0  0  0
    7.3197  -18.1597   23.4902 S   0  0  0  0  0  0  0  0  0  0  0  0
    8.1810  -15.2450   23.5416 C   0  0  0  0  0  0  0  0  0  0  0  0
    9.4447  -15.1205   23.6355 O   0  0  0  0  0  0  0  0  0  0  0  0
    5.5233  -11.4436   26.2770 C   0  0  0  0  0  0  0  0  0  0  0  0
    6.6011  -12.2837   25.7197 C   0  0  0  0  0  0  0  0  0  0  0  0
    7.1653  -13.3920   26.4963 C   0  0  2  0  0  0  0  0  0  0  0  0
    7.8601  -12.8244   27.7709 C   0  0  0  0  0  0  0  0  0  0  0  0
    8.0649  -14.3870   25.8704 C   0  0  2  0  0  0  0  0  0  0  0  0
    7.3917  -14.9122   24.6447 N   0  0  0  0  0  0  0  0  0  0  0  0
    8.4866  -15.5328   26.6629 C   0  0  0  0  0  0  0  0  0  0  0  0
    7.8524  -16.5995   26.7996 O   0  0  0  0  0  0  0  0  0  0  0  0
    9.7092  -15.4744   27.3506 O   0  0  0  0  0  0  0  0  0  0  0  0
  2  1  1  1
  2  3  1  0
  4  2  1  0
  5  4  2  0
  6  4  1  0
  7  6  1  0
  7  8  1  6
  9  8  1  0
 10  7  1  0
 10 11  2  0
 12 13  1  0
 14 13  1  0
 14 16  1  0
 14 15  1  1
 16 17  1  6
 17 10  1  0
 18 16  1  0
 19 18  2  0
 20 18  1  0
M  END
$$$$
