ACI.pdb
     RDKit          3D

 20 19  0  0  1  0  0  0  0  0999 V2000
    8.7943  -17.4752   15.2051 C   0  0  0  0  0  0  0  0  0  0  0  0
    8.6504  -15.9910   15.0340 C   0  0  2  0  0  0  0  0  0  0  0  0
    9.3589  -15.5545   13.8489 N   0  0  0  0  0  0  0  0  0  0  0  0
    9.1713  -15.2745   16.2520 C   0  0  0  0  0  0  0  0  0  0  0  0
   10.3681  -14.9616   16.3454 O   0  0  0  0  0  0  0  0  0  0  0  0
    8.3024  -14.9479   17.3077 N   0  0  0  0  0  0  0  0  0  0  0  0
    8.7869  -14.3152   18.5393 C   0  0  1  0  0  0  0  0  0  0  0  0
    7.5554  -13.8789   19.3067 C   0  0  0  0  0  0  0  0  0  0  0  0
    6.8315  -12.3958   18.6070 S   0  0  0  0  0  0  0  0  0  0  0  0
    9.5758  -15.2985   19.3352 C   0  0  0  0  0  0  0  0  0  0  0  0
    9.4822  -16.5230   18.9987 O   0  0  0  0  0  0  0  0  0  0  0  0
   14.9914  -16.7871   20.0460 C   0  0  0  0  0  0  0  0  0  0  0  0
   13.7109  -16.7876   20.7797 C   0  0  0  0  0  0  0  0  0  0  0  0
   12.5876  -15.9606   20.3277 C   0  0  2  0  0  0  0  0  0  0  0  0
   13.0425  -14.4715   20.2560 C   0  0  0  0  0  0  0  0  0  0  0  0
   11.2710  -16.0212   21.0016 C   0  0  2  0  0  0  0  0  0  0  0  0
   10.4003  -14.9610   20.4108 N   0  0  0  0  0  0  0  0  0  0  0  0
   11.2273  -15.8675   22.4484 C   0  0  0  0  0  0  0  0  0  0  0  0
   11.7119  -16.6606   23.2821 O   0  0  0  0  0  0  0  0  0  0  0  0
   10.5934  -14.7410   22.9963 O   0  0  0  0  0  0  0  0  0  0  0  0
  2  1  1  1
  2  3  1  0
  4  2  1  0
  5  4  2  0
  6  4  1  0
  7  6  1  0
  7  8  1  1
  9  8  1  0
 10  7  1  0
 10 11  2  0
 12 13  1  0
 14 13  1  0
 14 16  1  0
 14 15  1  1
 16 17  1  6
 17 10  1  0
 18 16  1  0
 19 18  2  0
 20 18  1  0
M  END
$$$$
