VLS.pdb
     RDKit          3D

 22 21  0  0  1  0  0  0  0  0999 V2000
   18.7555  -12.4930  -16.5293 C   0  0  0  0  0  0  0  0  0  0  0  0
   17.8886  -11.5569  -17.2845 C   0  0  2  0  0  0  0  0  0  0  0  0
   17.3517  -12.2364  -18.5382 C   0  0  0  0  0  0  0  0  0  0  0  0
   18.5352  -10.2659  -17.7170 C   0  0  2  0  0  0  0  0  0  0  0  0
   19.3381  -10.5029  -18.9309 N   0  0  0  0  0  0  0  0  0  0  0  0
   19.4154   -9.6531  -16.7078 C   0  0  0  0  0  0  0  0  0  0  0  0
   18.9046   -9.3356  -15.5966 O   0  0  0  0  0  0  0  0  0  0  0  0
   22.8902  -10.9958  -14.2137 C   0  0  0  0  0  0  0  0  0  0  0  0
   23.2279  -10.8038  -15.7066 C   0  0  2  0  0  0  0  0  0  0  0  0
   24.6236  -11.3261  -15.8610 C   0  0  0  0  0  0  0  0  0  0  0  0
   23.0361   -9.3643  -16.0146 C   0  0  0  0  0  0  0  0  0  0  0  0
   21.6541   -8.8311  -15.9576 C   0  0  2  0  0  0  0  0  0  0  0  0
   20.7933   -9.4173  -16.9486 N   0  0  0  0  0  0  0  0  0  0  0  0
   21.7610   -7.3448  -16.1502 C   0  0  0  0  0  0  0  0  0  0  0  0
   22.1548   -6.8308  -17.2187 O   0  0  0  0  0  0  0  0  0  0  0  0
   19.3921   -4.9403  -16.4444 O   0  0  0  0  0  0  0  0  0  0  0  0
   20.0340   -4.4987  -15.3123 C   0  0  0  0  0  0  0  0  0  0  0  0
   21.4615   -5.0179  -15.2405 C   0  0  2  0  0  0  0  0  0  0  0  0
   21.4054   -6.4680  -15.0888 N   0  0  0  0  0  0  0  0  0  0  0  0
   22.1143   -4.3814  -14.0729 C   0  0  0  0  0  0  0  0  0  0  0  0
   22.3436   -5.0982  -13.0658 O   0  0  0  0  0  0  0  0  0  0  0  0
   22.4797   -3.0563  -14.0341 O   0  0  0  0  0  0  0  0  0  0  0  0
  2  4  1  0
  2  1  1  6
  2  3  1  0
  4  6  1  0
  4  5  1  6
  6 13  1  0
  6  7  2  0
  9  8  1  1
  9 10  1  0
 12 11  1  6
 11  9  1  0
 12 14  1  0
 13 12  1  0
 14 15  2  0
 16 17  1  0
 18 17  1  1
 18 20  1  0
 19 14  1  0
 19 18  1  0
 20 22  1  0
 21 20  2  0
M  END
$$$$
