VLS.pdb
     RDKit          3D

 22 21  0  0  1  0  0  0  0  0999 V2000
   19.1747  -20.0406  -11.0638 C   0  0  0  0  0  0  0  0  0  0  0  0
   20.5185  -19.8597  -11.6635 C   0  0  2  0  0  0  0  0  0  0  0  0
   20.3978  -19.6661  -13.1701 C   0  0  0  0  0  0  0  0  0  0  0  0
   21.4974  -20.9824  -11.4333 C   0  0  2  0  0  0  0  0  0  0  0  0
   21.3593  -21.4770  -10.0511 N   0  0  0  0  0  0  0  0  0  0  0  0
   22.9088  -20.6174  -11.6419 C   0  0  0  0  0  0  0  0  0  0  0  0
   23.1922  -19.9186  -12.6556 O   0  0  0  0  0  0  0  0  0  0  0  0
   25.7145  -18.8435   -8.6880 C   0  0  0  0  0  0  0  0  0  0  0  0
   25.7270  -20.3755   -8.5079 C   0  0  2  0  0  0  0  0  0  0  0  0
   26.6244  -20.6228   -7.3339 C   0  0  0  0  0  0  0  0  0  0  0  0
   26.1698  -20.9619   -9.7977 C   0  0  0  0  0  0  0  0  0  0  0  0
   25.3196  -20.7180  -10.9873 C   0  0  2  0  0  0  0  0  0  0  0  0
   23.9348  -21.0223  -10.7498 N   0  0  0  0  0  0  0  0  0  0  0  0
   25.8754  -21.5713  -12.0922 C   0  0  0  0  0  0  0  0  0  0  0  0
   26.2512  -22.7487  -11.9096 O   0  0  0  0  0  0  0  0  0  0  0  0
   25.8724  -19.9965  -15.9278 O   0  0  0  0  0  0  0  0  0  0  0  0
   25.7328  -21.3558  -15.7820 C   0  0  0  0  0  0  0  0  0  0  0  0
   26.4328  -21.8584  -14.5291 C   0  0  2  0  0  0  0  0  0  0  0  0
   25.9877  -21.0399  -13.4062 N   0  0  0  0  0  0  0  0  0  0  0  0
   27.8925  -21.7252  -14.7444 C   0  0  0  0  0  0  0  0  0  0  0  0
   28.5017  -20.8335  -14.1007 O   0  0  0  0  0  0  0  0  0  0  0  0
   28.6103  -22.5210  -15.6059 O   0  0  0  0  0  0  0  0  0  0  0  0
  2  4  1  0
  2  1  1  6
  2  3  1  0
  4  6  1  0
  4  5  1  1
  6 13  1  0
  6  7  2  0
  9  8  1  6
  9 10  1  0
 12 11  1  1
 11  9  1  0
 12 14  1  0
 13 12  1  0
 14 15  2  0
 16 17  1  0
 18 17  1  6
 18 20  1  0
 19 14  1  0
 19 18  1  0
 20 22  1  0
 21 20  2  0
M  END
$$$$
