VLS.pdb
     RDKit          3D

 22 21  0  0  1  0  0  0  0  0999 V2000
   18.8446  -13.4284  -16.7126 C   0  0  0  0  0  0  0  0  0  0  0  0
   20.2414  -12.9731  -16.9122 C   0  0  2  0  0  0  0  0  0  0  0  0
   21.0251  -13.1026  -15.6118 C   0  0  0  0  0  0  0  0  0  0  0  0
   20.4077  -11.5554  -17.3959 C   0  0  2  0  0  0  0  0  0  0  0  0
   21.1154  -11.5591  -18.6896 N   0  0  0  0  0  0  0  0  0  0  0  0
   21.1532  -10.6779  -16.4777 C   0  0  0  0  0  0  0  0  0  0  0  0
   20.6604  -10.4696  -15.3331 O   0  0  0  0  0  0  0  0  0  0  0  0
   25.1199  -10.8646  -14.4585 C   0  0  0  0  0  0  0  0  0  0  0  0
   25.2691  -10.5218  -15.9551 C   0  0  2  0  0  0  0  0  0  0  0  0
   26.7458  -10.5150  -16.2083 C   0  0  0  0  0  0  0  0  0  0  0  0
   24.5666   -9.2333  -16.1786 C   0  0  0  0  0  0  0  0  0  0  0  0
   23.1024   -9.2041  -15.9495 C   0  0  2  0  0  0  0  0  0  0  0  0
   22.3852  -10.0754  -16.8402 N   0  0  0  0  0  0  0  0  0  0  0  0
   22.6697   -7.7766  -16.1304 C   0  0  0  0  0  0  0  0  0  0  0  0
   22.7162   -7.1936  -17.2344 O   0  0  0  0  0  0  0  0  0  0  0  0
   19.6856   -4.4122  -14.7136 O   0  0  0  0  0  0  0  0  0  0  0  0
   20.2486   -5.6616  -14.6105 C   0  0  0  0  0  0  0  0  0  0  0  0
   21.6664   -5.6829  -15.1600 C   0  0  2  0  0  0  0  0  0  0  0  0
   22.1843   -7.0394  -15.0157 N   0  0  0  0  0  0  0  0  0  0  0  0
   22.4686   -4.7163  -14.3747 C   0  0  0  0  0  0  0  0  0  0  0  0
   23.0561   -5.1394  -13.3468 O   0  0  0  0  0  0  0  0  0  0  0  0
   22.6028   -3.3894  -14.7096 O   0  0  0  0  0  0  0  0  0  0  0  0
  2  4  1  0
  2  1  1  1
  2  3  1  0
  4  6  1  0
  4  5  1  6
  6 13  1  0
  6  7  2  0
  9  8  1  1
  9 10  1  0
 12 11  1  6
 11  9  1  0
 12 14  1  0
 13 12  1  0
 14 15  2  0
 16 17  1  0
 18 17  1  1
 18 20  1  0
 19 14  1  0
 19 18  1  0
 20 22  1  0
 21 20  2  0
M  END
$$$$
