VLS.pdb
     RDKit          3D

 22 21  0  0  1  0  0  0  0  0999 V2000
   16.9432  -13.6176  -19.3537 C   0  0  0  0  0  0  0  0  0  0  0  0
   17.6283  -12.8882  -18.2597 C   0  0  2  0  0  0  0  0  0  0  0  0
   18.0152  -11.4897  -18.7249 C   0  0  0  0  0  0  0  0  0  0  0  0
   18.8735  -13.5393  -17.7146 C   0  0  2  0  0  0  0  0  0  0  0  0
   18.5182  -14.8231  -17.0821 N   0  0  0  0  0  0  0  0  0  0  0  0
   19.6012  -12.7335  -16.7196 C   0  0  0  0  0  0  0  0  0  0  0  0
   19.0502  -12.5451  -15.5984 O   0  0  0  0  0  0  0  0  0  0  0  0
   25.2884  -10.9360  -15.3821 C   0  0  0  0  0  0  0  0  0  0  0  0
   23.8032  -10.5729  -15.1774 C   0  0  2  0  0  0  0  0  0  0  0  0
   23.5555  -10.7560  -13.7112 C   0  0  0  0  0  0  0  0  0  0  0  0
   23.0132  -11.4447  -16.0826 C   0  0  0  0  0  0  0  0  0  0  0  0
   21.5383  -11.2982  -16.0578 C   0  0  2  0  0  0  0  0  0  0  0  0
   20.8790  -12.1773  -16.9847 N   0  0  0  0  0  0  0  0  0  0  0  0
   21.2460   -9.8602  -16.3805 C   0  0  0  0  0  0  0  0  0  0  0  0
   21.5339   -9.3452  -17.4818 O   0  0  0  0  0  0  0  0  0  0  0  0
   18.2462   -7.9297  -14.5077 O   0  0  0  0  0  0  0  0  0  0  0  0
   18.8024   -7.4691  -15.6769 C   0  0  0  0  0  0  0  0  0  0  0  0
   20.3146   -7.6306  -15.6782 C   0  0  2  0  0  0  0  0  0  0  0  0
   20.6173   -9.0326  -15.4102 N   0  0  0  0  0  0  0  0  0  0  0  0
   20.8624   -6.7517  -14.6190 C   0  0  0  0  0  0  0  0  0  0  0  0
   21.4097   -7.2982  -13.6278 O   0  0  0  0  0  0  0  0  0  0  0  0
   20.8037   -5.3786  -14.6637 O   0  0  0  0  0  0  0  0  0  0  0  0
  2  4  1  0
  2  1  1  6
  2  3  1  0
  4  6  1  0
  4  5  1  1
  6 13  1  0
  6  7  2  0
  9  8  1  1
  9 10  1  0
 12 11  1  6
 11  9  1  0
 12 14  1  0
 13 12  1  0
 14 15  2  0
 16 17  1  0
 18 17  1  1
 18 20  1  0
 19 14  1  0
 19 18  1  0
 20 22  1  0
 21 20  2  0
M  END
$$$$
