VLS.pdb
     RDKit          3D

 22 21  0  0  1  0  0  0  0  0999 V2000
   20.1480  -14.0714  -17.7523 C   0  0  0  0  0  0  0  0  0  0  0  0
   19.4882  -13.0289  -16.9302 C   0  0  2  0  0  0  0  0  0  0  0  0
   17.9800  -13.2461  -16.9210 C   0  0  0  0  0  0  0  0  0  0  0  0
   19.7327  -11.6038  -17.3557 C   0  0  2  0  0  0  0  0  0  0  0  0
   20.4974  -11.5936  -18.6165 N   0  0  0  0  0  0  0  0  0  0  0  0
   20.4703  -10.7893  -16.3753 C   0  0  0  0  0  0  0  0  0  0  0  0
   19.9581  -10.6404  -15.2300 O   0  0  0  0  0  0  0  0  0  0  0  0
   24.3309  -10.9914  -14.1502 C   0  0  0  0  0  0  0  0  0  0  0  0
   24.5477  -10.6625  -15.6417 C   0  0  2  0  0  0  0  0  0  0  0  0
   26.0338  -10.6741  -15.8316 C   0  0  0  0  0  0  0  0  0  0  0  0
   23.8702   -9.3681  -15.9049 C   0  0  0  0  0  0  0  0  0  0  0  0
   22.3966   -9.3237  -15.7495 C   0  0  2  0  0  0  0  0  0  0  0  0
   21.7158  -10.1824  -16.6800 N   0  0  0  0  0  0  0  0  0  0  0  0
   21.9892   -7.8906  -15.9439 C   0  0  0  0  0  0  0  0  0  0  0  0
   22.0894   -7.3051  -17.0431 O   0  0  0  0  0  0  0  0  0  0  0  0
   19.6275   -6.0938  -13.1125 O   0  0  0  0  0  0  0  0  0  0  0  0
   19.6955   -5.5818  -14.3860 C   0  0  0  0  0  0  0  0  0  0  0  0
   21.0845   -5.7486  -14.9822 C   0  0  2  0  0  0  0  0  0  0  0  0
   21.4660   -7.1505  -14.8484 N   0  0  0  0  0  0  0  0  0  0  0  0
   22.0069   -4.8675  -14.2287 C   0  0  0  0  0  0  0  0  0  0  0  0
   22.8627   -5.4120  -13.4858 O   0  0  0  0  0  0  0  0  0  0  0  0
   21.9754   -3.4947  -14.2995 O   0  0  0  0  0  0  0  0  0  0  0  0
  2  4  1  0
  2  1  1  6
  2  3  1  0
  4  6  1  0
  4  5  1  6
  6 13  1  0
  6  7  2  0
  9  8  1  1
  9 10  1  0
 12 11  1  6
 11  9  1  0
 12 14  1  0
 13 12  1  0
 14 15  2  0
 16 17  1  0
 18 17  1  1
 18 20  1  0
 19 14  1  0
 19 18  1  0
 20 22  1  0
 21 20  2  0
M  END
$$$$
