VLS.pdb
     RDKit          3D

 22 21  0  0  1  0  0  0  0  0999 V2000
   28.4473  -17.5707  -14.9770 C   0  0  0  0  0  0  0  0  0  0  0  0
   27.6004  -18.7527  -15.2662 C   0  0  2  0  0  0  0  0  0  0  0  0
   27.7966  -19.1965  -16.7107 C   0  0  0  0  0  0  0  0  0  0  0  0
   26.1200  -18.5690  -15.0514 C   0  0  2  0  0  0  0  0  0  0  0  0
   25.8880  -17.3484  -14.2572 N   0  0  0  0  0  0  0  0  0  0  0  0
   25.4572  -19.6881  -14.3606 C   0  0  0  0  0  0  0  0  0  0  0  0
   25.3656  -20.7878  -14.9759 O   0  0  0  0  0  0  0  0  0  0  0  0
   26.7964  -21.6042  -11.0543 C   0  0  0  0  0  0  0  0  0  0  0  0
   25.9236  -20.4475  -10.5250 C   0  0  2  0  0  0  0  0  0  0  0  0
   26.1628  -20.4237   -9.0461 C   0  0  0  0  0  0  0  0  0  0  0  0
   24.5291  -20.7239  -10.9522 C   0  0  0  0  0  0  0  0  0  0  0  0
   24.2277  -20.6359  -12.4009 C   0  0  2  0  0  0  0  0  0  0  0  0
   24.9321  -19.5631  -13.0488 N   0  0  0  0  0  0  0  0  0  0  0  0
   22.7412  -20.4504  -12.5179 C   0  0  0  0  0  0  0  0  0  0  0  0
   22.1038  -19.6509  -11.7999 O   0  0  0  0  0  0  0  0  0  0  0  0
   18.9906  -20.3782  -15.3323 O   0  0  0  0  0  0  0  0  0  0  0  0
   20.3271  -20.5850  -15.0883 C   0  0  0  0  0  0  0  0  0  0  0  0
   20.5715  -21.0275  -13.6541 C   0  0  2  0  0  0  0  0  0  0  0  0
   22.0091  -21.2032  -13.4765 N   0  0  0  0  0  0  0  0  0  0  0  0
   19.8457  -22.3021  -13.4460 C   0  0  0  0  0  0  0  0  0  0  0  0
   20.4732  -23.3737  -13.6425 O   0  0  0  0  0  0  0  0  0  0  0  0
   18.5303  -22.3731  -13.0517 O   0  0  0  0  0  0  0  0  0  0  0  0
  2  4  1  0
  2  1  1  6
  2  3  1  0
  4  6  1  0
  4  5  1  1
  6 13  1  0
  6  7  2  0
  9  8  1  6
  9 10  1  0
 12 11  1  1
 11  9  1  0
 12 14  1  0
 13 12  1  0
 14 15  2  0
 16 17  1  0
 18 17  1  6
 18 20  1  0
 19 14  1  0
 19 18  1  0
 20 22  1  0
 21 20  2  0
M  END
$$$$
