VLS.pdb
     RDKit          3D

 22 21  0  0  1  0  0  0  0  0999 V2000
   18.8921  -12.3175  -18.1778 C   0  0  0  0  0  0  0  0  0  0  0  0
   20.2002  -12.6594  -18.7863 C   0  0  2  0  0  0  0  0  0  0  0  0
   20.0550  -13.8784  -19.6890 C   0  0  0  0  0  0  0  0  0  0  0  0
   21.3193  -12.9492  -17.8192 C   0  0  2  0  0  0  0  0  0  0  0  0
   21.0052  -14.1732  -17.0592 N   0  0  0  0  0  0  0  0  0  0  0  0
   21.5854  -11.8732  -16.8495 C   0  0  0  0  0  0  0  0  0  0  0  0
   20.8576  -11.8173  -15.8183 O   0  0  0  0  0  0  0  0  0  0  0  0
   25.1619  -10.5886  -14.3521 C   0  0  0  0  0  0  0  0  0  0  0  0
   25.2971  -10.2414  -15.8490 C   0  0  2  0  0  0  0  0  0  0  0  0
   26.6901   -9.7116  -16.0023 C   0  0  0  0  0  0  0  0  0  0  0  0
   24.2028   -9.2933  -16.1764 C   0  0  0  0  0  0  0  0  0  0  0  0
   22.8151   -9.8136  -16.1450 C   0  0  2  0  0  0  0  0  0  0  0  0
   22.6182  -10.9199  -17.0416 N   0  0  0  0  0  0  0  0  0  0  0  0
   21.9188   -8.6631  -16.5064 C   0  0  0  0  0  0  0  0  0  0  0  0
   21.8362   -8.2132  -17.6691 O   0  0  0  0  0  0  0  0  0  0  0  0
   19.0794   -7.4902  -13.8104 O   0  0  0  0  0  0  0  0  0  0  0  0
   18.9332   -7.1132  -15.1239 C   0  0  0  0  0  0  0  0  0  0  0  0
   20.2796   -6.8915  -15.7951 C   0  0  2  0  0  0  0  0  0  0  0  0
   21.1232   -8.0455  -15.5028 N   0  0  0  0  0  0  0  0  0  0  0  0
   20.8609   -5.6476  -15.2388 C   0  0  0  0  0  0  0  0  0  0  0  0
   21.9052   -5.7466  -14.5457 O   0  0  0  0  0  0  0  0  0  0  0  0
   20.3209   -4.3991  -15.4400 O   0  0  0  0  0  0  0  0  0  0  0  0
  2  4  1  0
  2  1  1  1
  2  3  1  0
  4  6  1  0
  4  5  1  1
  6 13  1  0
  6  7  2  0
  9  8  1  1
  9 10  1  0
 12 11  1  6
 11  9  1  0
 12 14  1  0
 13 12  1  0
 14 15  2  0
 16 17  1  0
 18 17  1  1
 18 20  1  0
 19 14  1  0
 19 18  1  0
 20 22  1  0
 21 20  2  0
M  END
$$$$
