KNT.pdb
     RDKit          3D

 25 24  0  0  1  0  0  0  0  0999 V2000
    8.2262  -15.8683   20.7836 N   0  0  0  0  0  0  0  0  0  0  0  0
    7.6330  -14.7292   21.4174 C   0  0  1  0  0  0  0  0  0  0  0  0
    6.6806  -14.0600   20.5094 C   0  0  0  0  0  0  0  0  0  0  0  0
    6.9930  -14.1044   19.0566 C   0  0  0  0  0  0  0  0  0  0  0  0
    8.1698  -13.2966   18.6328 C   0  0  0  0  0  0  0  0  0  0  0  0
    8.3064  -13.2806   17.1139 C   0  0  0  0  0  0  0  0  0  0  0  0
    9.5319  -12.6132   16.7366 N   0  0  0  0  0  0  0  0  0  0  0  0
    7.2704  -14.9120   22.8213 C   0  0  0  0  0  0  0  0  0  0  0  0
    6.5772  -14.0422   23.3969 O   0  0  0  0  0  0  0  0  0  0  0  0
    6.5166  -19.8546   24.0490 N   0  0  0  0  0  0  0  0  0  0  0  0
    6.2822  -18.6529   24.7724 C   0  0  0  0  0  0  0  0  0  0  0  0
    5.1087  -18.3278   24.9887 O   0  0  0  0  0  0  0  0  0  0  0  0
    7.4113  -17.8630   25.2251 C   0  0  0  0  0  0  0  0  0  0  0  0
    7.4630  -16.4293   24.8769 C   0  0  2  0  0  0  0  0  0  0  0  0
    7.6734  -16.0473   23.5362 N   0  0  0  0  0  0  0  0  0  0  0  0
    8.3577  -15.6489   25.8300 C   0  0  0  0  0  0  0  0  0  0  0  0
    8.1316  -14.4642   26.0894 O   0  0  0  0  0  0  0  0  0  0  0  0
    8.8984  -13.8466   27.9048 C   0  0  0  0  0  0  0  0  0  0  0  0
    9.7679  -14.9708   28.4344 C   0  0  1  0  0  0  0  0  0  0  0  0
    9.0232  -15.7843   29.2664 O   0  0  0  0  0  0  0  0  0  0  0  0
   10.4033  -15.7053   27.2808 C   0  0  2  0  0  0  0  0  0  0  0  0
    9.4422  -16.3324   26.4025 N   0  0  0  0  0  0  0  0  0  0  0  0
   11.5386  -16.5688   27.6803 C   0  0  0  0  0  0  0  0  0  0  0  0
   12.5248  -16.1338   28.3010 O   0  0  0  0  0  0  0  0  0  0  0  0
   11.5341  -17.9131   27.3673 O   0  0  0  0  0  0  0  0  0  0  0  0
  2  8  1  0
  2  1  1  6
  3  2  1  0
  4  3  1  0
  5  4  1  0
  5  6  1  0
  6  7  1  0
  8  9  2  0
 10 11  1  0
 11 12  2  0
 13 11  1  0
 14 13  1  6
 15 14  1  0
 15  8  1  0
 16 17  2  0
 16 14  1  0
 19 18  1  6
 19 21  1  0
 20 19  1  0
 21 22  1  1
 21 23  1  0
 22 16  1  0
 23 25  1  0
 24 23  2  0
M  END
$$$$
