KNT.pdb
     RDKit          3D

 25 24  0  0  1  0  0  0  0  0999 V2000
    7.2896  -16.5758   18.6955 N   0  0  0  0  0  0  0  0  0  0  0  0
    8.3058  -15.8557   19.4026 C   0  0  1  0  0  0  0  0  0  0  0  0
    8.0107  -14.4094   19.4169 C   0  0  0  0  0  0  0  0  0  0  0  0
    7.4518  -13.8252   18.1693 C   0  0  0  0  0  0  0  0  0  0  0  0
    8.2748  -14.0297   16.9454 C   0  0  0  0  0  0  0  0  0  0  0  0
    7.6342  -13.3591   15.7347 C   0  0  0  0  0  0  0  0  0  0  0  0
    8.4267  -13.6151   14.5532 N   0  0  0  0  0  0  0  0  0  0  0  0
    8.7926  -16.4957   20.6229 C   0  0  0  0  0  0  0  0  0  0  0  0
    7.9854  -17.0990   21.3663 O   0  0  0  0  0  0  0  0  0  0  0  0
   13.8086  -18.0497   20.2908 N   0  0  0  0  0  0  0  0  0  0  0  0
   12.6493  -18.2692   21.0846 C   0  0  0  0  0  0  0  0  0  0  0  0
   12.0238  -19.3226   20.9156 O   0  0  0  0  0  0  0  0  0  0  0  0
   12.2478  -17.2647   22.0510 C   0  0  0  0  0  0  0  0  0  0  0  0
   10.8231  -16.8870   22.1357 C   0  0  2  0  0  0  0  0  0  0  0  0
   10.1481  -16.4581   20.9747 N   0  0  0  0  0  0  0  0  0  0  0  0
   10.5535  -15.9633   23.3155 C   0  0  0  0  0  0  0  0  0  0  0  0
   11.0730  -14.8463   23.3813 O   0  0  0  0  0  0  0  0  0  0  0  0
    7.6007  -14.0268   26.3434 C   0  0  0  0  0  0  0  0  0  0  0  0
    7.8801  -15.0305   25.2412 C   0  0  1  0  0  0  0  0  0  0  0  0
    7.7030  -14.4315   24.0090 O   0  0  0  0  0  0  0  0  0  0  0  0
    9.2531  -15.6238   25.4335 C   0  0  2  0  0  0  0  0  0  0  0  0
    9.6889  -16.4318   24.3175 N   0  0  0  0  0  0  0  0  0  0  0  0
    9.4513  -16.2415   26.7651 C   0  0  0  0  0  0  0  0  0  0  0  0
    9.7983  -17.4274   26.9083 O   0  0  0  0  0  0  0  0  0  0  0  0
    9.2512  -15.5009   27.9125 O   0  0  0  0  0  0  0  0  0  0  0  0
  2  8  1  0
  2  1  1  1
  3  2  1  0
  4  3  1  0
  5  4  1  0
  5  6  1  0
  6  7  1  0
  8  9  2  0
 10 11  1  0
 11 12  2  0
 13 11  1  0
 14 13  1  6
 15 14  1  0
 15  8  1  0
 16 17  2  0
 16 14  1  0
 19 18  1  1
 19 21  1  0
 20 19  1  0
 21 22  1  6
 21 23  1  0
 22 16  1  0
 23 25  1  0
 24 23  2  0
M  END
$$$$
