KNT.pdb
     RDKit          3D

 25 24  0  0  1  0  0  0  0  0999 V2000
    6.8332  -16.3904   20.9469 N   0  0  0  0  0  0  0  0  0  0  0  0
    7.7583  -15.6056   21.7082 C   0  0  1  0  0  0  0  0  0  0  0  0
    7.3524  -14.1864   21.7259 C   0  0  0  0  0  0  0  0  0  0  0  0
    7.1806  -13.5201   20.4081 C   0  0  0  0  0  0  0  0  0  0  0  0
    8.3638  -13.5773   19.5059 C   0  0  0  0  0  0  0  0  0  0  0  0
    8.1096  -12.8022   18.2172 C   0  0  0  0  0  0  0  0  0  0  0  0
    9.2192  -12.9806   17.3081 N   0  0  0  0  0  0  0  0  0  0  0  0
    8.2377  -16.2249   22.9420 C   0  0  0  0  0  0  0  0  0  0  0  0
    7.4111  -16.6947   23.7571 O   0  0  0  0  0  0  0  0  0  0  0  0
   12.8208  -16.2699   22.7197 N   0  0  0  0  0  0  0  0  0  0  0  0
   12.2835  -17.5623   22.9710 C   0  0  0  0  0  0  0  0  0  0  0  0
   12.5743  -18.4722   22.1854 O   0  0  0  0  0  0  0  0  0  0  0  0
   11.4263  -17.7649   24.1235 C   0  0  0  0  0  0  0  0  0  0  0  0
   10.2941  -16.8427   24.3400 C   0  0  2  0  0  0  0  0  0  0  0  0
    9.6060  -16.3146   23.2286 N   0  0  0  0  0  0  0  0  0  0  0  0
   10.6339  -15.7608   25.3559 C   0  0  0  0  0  0  0  0  0  0  0  0
   11.7355  -15.2054   25.3502 O   0  0  0  0  0  0  0  0  0  0  0  0
    8.7924  -12.5587   26.5490 C   0  0  0  0  0  0  0  0  0  0  0  0
    8.8089  -13.5630   27.6854 C   0  0  1  0  0  0  0  0  0  0  0  0
    7.5518  -14.1156   27.8379 O   0  0  0  0  0  0  0  0  0  0  0  0
    9.8925  -14.5833   27.4430 C   0  0  2  0  0  0  0  0  0  0  0  0
    9.6439  -15.4198   26.2912 N   0  0  0  0  0  0  0  0  0  0  0  0
   10.3052  -15.3120   28.6649 C   0  0  0  0  0  0  0  0  0  0  0  0
   10.2498  -16.5512   28.7566 O   0  0  0  0  0  0  0  0  0  0  0  0
   10.7740  -14.6195   29.7631 O   0  0  0  0  0  0  0  0  0  0  0  0
  2  8  1  0
  2  1  1  1
  3  2  1  0
  4  3  1  0
  5  4  1  0
  5  6  1  0
  6  7  1  0
  8  9  2  0
 10 11  1  0
 11 12  2  0
 13 11  1  0
 14 13  1  6
 15 14  1  0
 15  8  1  0
 16 17  2  0
 16 14  1  0
 19 18  1  6
 19 21  1  0
 20 19  1  0
 21 22  1  6
 21 23  1  0
 22 16  1  0
 23 25  1  0
 24 23  2  0
M  END
$$$$
