KNT.pdb
     RDKit          3D

 25 24  0  0  1  0  0  0  0  0999 V2000
    8.3090  -18.1645   18.8792 N   0  0  0  0  0  0  0  0  0  0  0  0
    9.3487  -17.3955   18.2634 C   0  0  1  0  0  0  0  0  0  0  0  0
    9.0943  -17.2309   16.8187 C   0  0  0  0  0  0  0  0  0  0  0  0
    9.4903  -18.3580   15.9339 C   0  0  0  0  0  0  0  0  0  0  0  0
    9.0947  -18.2162   14.5055 C   0  0  0  0  0  0  0  0  0  0  0  0
    9.4668  -19.4610   13.7066 C   0  0  0  0  0  0  0  0  0  0  0  0
    8.9182  -19.3721   12.3722 N   0  0  0  0  0  0  0  0  0  0  0  0
    9.8236  -16.2510   19.0383 C   0  0  0  0  0  0  0  0  0  0  0  0
   10.9048  -15.7017   18.7261 O   0  0  0  0  0  0  0  0  0  0  0  0
    7.0750  -12.4370   19.1608 N   0  0  0  0  0  0  0  0  0  0  0  0
    7.2223  -13.5538   20.0288 C   0  0  0  0  0  0  0  0  0  0  0  0
    6.4210  -14.4883   19.9097 O   0  0  0  0  0  0  0  0  0  0  0  0
    8.2921  -13.5576   21.0083 C   0  0  0  0  0  0  0  0  0  0  0  0
    9.3031  -14.6321   20.9547 C   0  0  2  0  0  0  0  0  0  0  0  0
    9.0883  -15.7469   20.1189 N   0  0  0  0  0  0  0  0  0  0  0  0
    9.7538  -15.0527   22.3468 C   0  0  0  0  0  0  0  0  0  0  0  0
   10.0668  -14.2137   23.1954 O   0  0  0  0  0  0  0  0  0  0  0  0
    8.5655  -18.7427   23.8503 C   0  0  0  0  0  0  0  0  0  0  0  0
    9.2325  -17.6658   24.6844 C   0  0  1  0  0  0  0  0  0  0  0  0
    9.7096  -18.2142   25.8593 O   0  0  0  0  0  0  0  0  0  0  0  0
   10.2934  -16.9755   23.8647 C   0  0  2  0  0  0  0  0  0  0  0  0
    9.7927  -16.4284   22.6244 N   0  0  0  0  0  0  0  0  0  0  0  0
   11.5476  -17.7540   23.7411 C   0  0  0  0  0  0  0  0  0  0  0  0
   11.7006  -18.6465   22.8884 O   0  0  0  0  0  0  0  0  0  0  0  0
   12.6075  -17.5051   24.5895 O   0  0  0  0  0  0  0  0  0  0  0  0
  2  8  1  0
  2  1  1  1
  3  2  1  0
  4  3  1  0
  5  4  1  0
  5  6  1  0
  6  7  1  0
  8  9  2  0
 10 11  1  0
 11 12  2  0
 13 11  1  0
 14 13  1  1
 15 14  1  0
 15  8  1  0
 16 17  2  0
 16 14  1  0
 19 18  1  6
 19 21  1  0
 20 19  1  0
 21 22  1  6
 21 23  1  0
 22 16  1  0
 23 25  1  0
 24 23  2  0
M  END
$$$$
