KNT.pdb
     RDKit          3D

 25 24  0  0  1  0  0  0  0  0999 V2000
    7.3124  -16.9791   21.1607 N   0  0  0  0  0  0  0  0  0  0  0  0
    8.6046  -16.3817   21.3177 C   0  0  1  0  0  0  0  0  0  0  0  0
    9.0110  -15.6784   20.0851 C   0  0  0  0  0  0  0  0  0  0  0  0
    8.0717  -14.6556   19.5543 C   0  0  0  0  0  0  0  0  0  0  0  0
    8.5179  -13.9633   18.3139 C   0  0  0  0  0  0  0  0  0  0  0  0
    7.4244  -13.0486   17.7720 C   0  0  0  0  0  0  0  0  0  0  0  0
    7.8906  -12.3758   16.5805 N   0  0  0  0  0  0  0  0  0  0  0  0
    8.8490  -15.7494   22.6124 C   0  0  0  0  0  0  0  0  0  0  0  0
   10.0184  -15.4389   22.9355 O   0  0  0  0  0  0  0  0  0  0  0  0
    5.7528  -12.6489   27.0194 N   0  0  0  0  0  0  0  0  0  0  0  0
    6.9036  -13.2861   26.4788 C   0  0  0  0  0  0  0  0  0  0  0  0
    7.9315  -13.3032   27.1662 O   0  0  0  0  0  0  0  0  0  0  0  0
    6.8316  -13.8853   25.1598 C   0  0  0  0  0  0  0  0  0  0  0  0
    7.7960  -14.9453   24.8054 C   0  0  2  0  0  0  0  0  0  0  0  0
    7.7994  -15.4724   23.4979 N   0  0  0  0  0  0  0  0  0  0  0  0
    7.8342  -16.0474   25.8551 C   0  0  0  0  0  0  0  0  0  0  0  0
    6.8074  -16.4106   26.4346 O   0  0  0  0  0  0  0  0  0  0  0  0
    8.3748  -19.4452   25.6794 C   0  0  0  0  0  0  0  0  0  0  0  0
    9.5447  -19.0210   26.5464 C   0  0  1  0  0  0  0  0  0  0  0  0
   10.7151  -19.0866   25.8153 O   0  0  0  0  0  0  0  0  0  0  0  0
    9.2727  -17.6580   27.1314 C   0  0  2  0  0  0  0  0  0  0  0  0
    9.0797  -16.6337   26.1305 N   0  0  0  0  0  0  0  0  0  0  0  0
   10.1947  -17.2894   28.2306 C   0  0  0  0  0  0  0  0  0  0  0  0
   10.8705  -16.2453   28.2161 O   0  0  0  0  0  0  0  0  0  0  0  0
   10.3337  -18.1145   29.3283 O   0  0  0  0  0  0  0  0  0  0  0  0
  2  8  1  0
  2  1  1  6
  3  2  1  0
  4  3  1  0
  5  4  1  0
  5  6  1  0
  6  7  1  0
  8  9  2  0
 10 11  1  0
 11 12  2  0
 13 11  1  0
 14 13  1  1
 15 14  1  0
 15  8  1  0
 16 17  2  0
 16 14  1  0
 19 18  1  6
 19 21  1  0
 20 19  1  0
 21 22  1  6
 21 23  1  0
 22 16  1  0
 23 25  1  0
 24 23  2  0
M  END
$$$$
