KNT.pdb
     RDKit          3D

 25 24  0  0  1  0  0  0  0  0999 V2000
    4.2010  -19.7377   19.9332 N   0  0  0  0  0  0  0  0  0  0  0  0
    4.4420  -18.7516   20.9436 C   0  0  1  0  0  0  0  0  0  0  0  0
    4.1495  -19.2927   22.2855 C   0  0  0  0  0  0  0  0  0  0  0  0
    4.6329  -20.6683   22.5754 C   0  0  0  0  0  0  0  0  0  0  0  0
    3.6573  -21.5538   23.2690 C   0  0  0  0  0  0  0  0  0  0  0  0
    4.2193  -22.9610   23.4417 C   0  0  0  0  0  0  0  0  0  0  0  0
    3.2939  -23.7713   24.2010 N   0  0  0  0  0  0  0  0  0  0  0  0
    5.6390  -17.9360   20.7496 C   0  0  0  0  0  0  0  0  0  0  0  0
    6.4456  -18.2325   19.8387 O   0  0  0  0  0  0  0  0  0  0  0  0
    8.9619  -13.9134   20.9817 N   0  0  0  0  0  0  0  0  0  0  0  0
    7.6393  -13.4561   21.2347 C   0  0  0  0  0  0  0  0  0  0  0  0
    7.4443  -12.2350   21.2582 O   0  0  0  0  0  0  0  0  0  0  0  0
    6.5810  -14.4239   21.4523 C   0  0  0  0  0  0  0  0  0  0  0  0
    6.9282  -15.8575   21.5128 C   0  0  2  0  0  0  0  0  0  0  0  0
    5.8992  -16.8202   21.5557 N   0  0  0  0  0  0  0  0  0  0  0  0
    8.0003  -16.1348   22.5576 C   0  0  0  0  0  0  0  0  0  0  0  0
    7.7461  -16.0710   23.7632 O   0  0  0  0  0  0  0  0  0  0  0  0
   10.4772  -19.1453   22.0503 C   0  0  0  0  0  0  0  0  0  0  0  0
   11.2771  -17.8962   22.3667 C   0  0  1  0  0  0  0  0  0  0  0  0
   11.9412  -17.4679   21.2335 O   0  0  0  0  0  0  0  0  0  0  0  0
   10.3689  -16.8523   22.9663 C   0  0  2  0  0  0  0  0  0  0  0  0
    9.2824  -16.4697   22.0938 N   0  0  0  0  0  0  0  0  0  0  0  0
   11.0951  -15.7218   23.5899 C   0  0  0  0  0  0  0  0  0  0  0  0
   10.9179  -14.5400   23.2447 O   0  0  0  0  0  0  0  0  0  0  0  0
   12.0113  -15.9535   24.5959 O   0  0  0  0  0  0  0  0  0  0  0  0
  2  8  1  0
  2  1  1  6
  3  2  1  0
  4  3  1  0
  5  4  1  0
  5  6  1  0
  6  7  1  0
  8  9  2  0
 10 11  1  0
 11 12  2  0
 13 11  1  0
 14 13  1  1
 15 14  1  0
 15  8  1  0
 16 17  2  0
 16 14  1  0
 19 18  1  6
 19 21  1  0
 20 19  1  0
 21 22  1  6
 21 23  1  0
 22 16  1  0
 23 25  1  0
 24 23  2  0
M  END
$$$$
