KNT.pdb
     RDKit          3D

 25 24  0  0  1  0  0  0  0  0999 V2000
    8.6757  -16.9826   17.1177 N   0  0  0  0  0  0  0  0  0  0  0  0
    9.3483  -15.8258   17.6282 C   0  0  1  0  0  0  0  0  0  0  0  0
    8.7552  -14.5897   17.0811 C   0  0  0  0  0  0  0  0  0  0  0  0
    8.4448  -14.5795   15.6273 C   0  0  0  0  0  0  0  0  0  0  0  0
    7.7707  -13.3493   15.1281 C   0  0  0  0  0  0  0  0  0  0  0  0
    7.4774  -13.4515   13.6349 C   0  0  0  0  0  0  0  0  0  0  0  0
    6.7471  -12.2840   13.1954 N   0  0  0  0  0  0  0  0  0  0  0  0
    9.7000  -15.8806   19.0456 C   0  0  0  0  0  0  0  0  0  0  0  0
   10.3401  -14.9343   19.5586 O   0  0  0  0  0  0  0  0  0  0  0  0
    8.6077  -20.1808   21.3210 N   0  0  0  0  0  0  0  0  0  0  0  0
    7.7922  -19.0362   21.5385 C   0  0  0  0  0  0  0  0  0  0  0  0
    6.5799  -19.1395   21.3170 O   0  0  0  0  0  0  0  0  0  0  0  0
    8.4024  -17.8062   22.0063 C   0  0  0  0  0  0  0  0  0  0  0  0
    9.5062  -17.2160   21.2236 C   0  0  2  0  0  0  0  0  0  0  0  0
    9.3262  -16.9665   19.8478 N   0  0  0  0  0  0  0  0  0  0  0  0
   10.8301  -17.9157   21.4988 C   0  0  0  0  0  0  0  0  0  0  0  0
   11.1288  -18.2886   22.6362 O   0  0  0  0  0  0  0  0  0  0  0  0
   12.1027  -20.9741   19.7245 C   0  0  0  0  0  0  0  0  0  0  0  0
   13.1454  -19.8958   19.5001 C   0  0  1  0  0  0  0  0  0  0  0  0
   13.0874  -19.4559   18.1917 O   0  0  0  0  0  0  0  0  0  0  0  0
   12.9633  -18.7967   20.5163 C   0  0  2  0  0  0  0  0  0  0  0  0
   11.6897  -18.1225   20.4083 N   0  0  0  0  0  0  0  0  0  0  0  0
   14.1355  -17.8990   20.6357 C   0  0  0  0  0  0  0  0  0  0  0  0
   14.0547  -16.6676   20.4799 O   0  0  0  0  0  0  0  0  0  0  0  0
   15.3810  -18.4162   20.9299 O   0  0  0  0  0  0  0  0  0  0  0  0
  2  8  1  0
  2  1  1  1
  3  2  1  0
  4  3  1  0
  5  4  1  0
  5  6  1  0
  6  7  1  0
  8  9  2  0
 10 11  1  0
 11 12  2  0
 13 11  1  0
 14 13  1  6
 15 14  1  0
 15  8  1  0
 16 17  2  0
 16 14  1  0
 19 18  1  6
 19 21  1  0
 20 19  1  0
 21 22  1  6
 21 23  1  0
 22 16  1  0
 23 25  1  0
 24 23  2  0
M  END
$$$$
