KNT.pdb
     RDKit          3D

 25 24  0  0  1  0  0  0  0  0999 V2000
    6.8987  -20.7106   18.5158 N   0  0  0  0  0  0  0  0  0  0  0  0
    7.2455  -19.3298   18.6724 C   0  0  1  0  0  0  0  0  0  0  0  0
    6.9399  -18.5694   17.4446 C   0  0  0  0  0  0  0  0  0  0  0  0
    7.3918  -19.1610   16.1578 C   0  0  0  0  0  0  0  0  0  0  0  0
    6.4415  -20.1187   15.5279 C   0  0  0  0  0  0  0  0  0  0  0  0
    6.9488  -20.5798   14.1656 C   0  0  0  0  0  0  0  0  0  0  0  0
    6.0427  -21.5584   13.6080 N   0  0  0  0  0  0  0  0  0  0  0  0
    6.9196  -18.7458   19.9718 C   0  0  0  0  0  0  0  0  0  0  0  0
    7.2117  -17.5498   20.2005 O   0  0  0  0  0  0  0  0  0  0  0  0
    3.0284  -20.9107   21.2920 N   0  0  0  0  0  0  0  0  0  0  0  0
    3.4507  -19.5842   21.5828 C   0  0  0  0  0  0  0  0  0  0  0  0
    2.9610  -18.6629   20.9189 O   0  0  0  0  0  0  0  0  0  0  0  0
    4.4261  -19.3621   22.6332 C   0  0  0  0  0  0  0  0  0  0  0  0
    5.8378  -19.1447   22.2599 C   0  0  2  0  0  0  0  0  0  0  0  0
    6.2758  -19.4938   20.9661 N   0  0  0  0  0  0  0  0  0  0  0  0
    6.7901  -19.6561   23.3320 C   0  0  0  0  0  0  0  0  0  0  0  0
    6.5475  -19.4911   24.5304 O   0  0  0  0  0  0  0  0  0  0  0  0
    8.1492  -23.1281   23.8364 C   0  0  0  0  0  0  0  0  0  0  0  0
    9.3503  -22.2401   23.5732 C   0  0  1  0  0  0  0  0  0  0  0  0
    9.8458  -22.4886   22.3077 O   0  0  0  0  0  0  0  0  0  0  0  0
    8.9733  -20.7982   23.8026 C   0  0  2  0  0  0  0  0  0  0  0  0
    7.9474  -20.3245   22.9019 N   0  0  0  0  0  0  0  0  0  0  0  0
   10.1393  -19.8962   23.9487 C   0  0  0  0  0  0  0  0  0  0  0  0
   11.0001  -20.0523   24.8329 O   0  0  0  0  0  0  0  0  0  0  0  0
   10.3072  -18.8310   23.0871 O   0  0  0  0  0  0  0  0  0  0  0  0
  2  8  1  0
  2  1  1  6
  3  2  1  0
  4  3  1  0
  5  4  1  0
  5  6  1  0
  6  7  1  0
  8  9  2  0
 10 11  1  0
 11 12  2  0
 13 11  1  0
 14 13  1  1
 15 14  1  0
 15  8  1  0
 16 17  2  0
 16 14  1  0
 19 18  1  6
 19 21  1  0
 20 19  1  0
 21 22  1  6
 21 23  1  0
 22 16  1  0
 23 25  1  0
 24 23  2  0
M  END
$$$$
