INA.pdb
     RDKit          3D

 22 21  0  0  1  0  0  0  0  0999 V2000
   28.2391  -12.9472  -15.5364 C   0  0  0  0  0  0  0  0  0  0  0  0
   26.7745  -13.2811  -15.3589 C   0  0  0  0  0  0  0  0  0  0  0  0
   25.8775  -12.1465  -15.7067 C   0  0  2  0  0  0  0  0  0  0  0  0
   26.2354  -10.8628  -15.0049 C   0  0  0  0  0  0  0  0  0  0  0  0
   24.4024  -12.4266  -15.5231 C   0  0  2  0  0  0  0  0  0  0  0  0
   24.1262  -13.6343  -16.3323 N   0  0  0  0  0  0  0  0  0  0  0  0
   23.5196  -11.3711  -16.0571 C   0  0  0  0  0  0  0  0  0  0  0  0
   23.4665  -11.1356  -17.3015 O   0  0  0  0  0  0  0  0  0  0  0  0
   19.3400  -11.0970  -17.3212 N   0  0  0  0  0  0  0  0  0  0  0  0
   20.0177  -11.1791  -16.0595 C   0  0  0  0  0  0  0  0  0  0  0  0
   20.2751  -12.3306  -15.6229 O   0  0  0  0  0  0  0  0  0  0  0  0
   20.3899   -9.9334  -15.3132 C   0  0  0  0  0  0  0  0  0  0  0  0
   21.7809   -9.5382  -15.8119 C   0  0  2  0  0  0  0  0  0  0  0  0
   22.6714  -10.5470  -15.2717 N   0  0  0  0  0  0  0  0  0  0  0  0
   22.1410   -8.1786  -15.4351 C   0  0  0  0  0  0  0  0  0  0  0  0
   22.4913   -7.9258  -14.2640 O   0  0  0  0  0  0  0  0  0  0  0  0
   22.5272   -4.8395  -17.1828 C   0  0  0  0  0  0  0  0  0  0  0  0
   22.5786   -5.7885  -15.9875 C   0  0  2  0  0  0  0  0  0  0  0  0
   22.1079   -7.1107  -16.3646 N   0  0  0  0  0  0  0  0  0  0  0  0
   21.6787   -5.2381  -14.9569 C   0  0  0  0  0  0  0  0  0  0  0  0
   22.0742   -4.3325  -14.2006 O   0  0  0  0  0  0  0  0  0  0  0  0
   20.4017   -5.7298  -14.8358 O   0  0  0  0  0  0  0  0  0  0  0  0
  2  1  1  0
  2  3  1  0
  3  5  1  0
  3  4  1  1
  5  7  1  0
  5  6  1  6
  7 14  1  0
  7  8  2  0
  9 10  1  0
 10 12  1  0
 10 11  2  0
 13 12  1  1
 13 15  1  0
 14 13  1  0
 15 16  2  0
 18 17  1  6
 19 18  1  0
 19 15  1  0
 20 18  1  0
 20 22  1  0
 21 20  2  0
M  END
$$$$
