INA.pdb
     RDKit          3D

 22 21  0  0  1  0  0  0  0  0999 V2000
   28.1854  -18.9702   -6.4945 C   0  0  0  0  0  0  0  0  0  0  0  0
   27.9041  -20.2674   -7.2199 C   0  0  0  0  0  0  0  0  0  0  0  0
   27.1175  -20.0723   -8.4673 C   0  0  2  0  0  0  0  0  0  0  0  0
   25.7824  -19.4142   -8.2371 C   0  0  0  0  0  0  0  0  0  0  0  0
   26.9264  -21.3226   -9.2971 C   0  0  2  0  0  0  0  0  0  0  0  0
   28.2770  -21.6860   -9.7801 N   0  0  0  0  0  0  0  0  0  0  0  0
   26.1048  -21.1209  -10.5067 C   0  0  0  0  0  0  0  0  0  0  0  0
   26.6373  -21.0877  -11.6565 O   0  0  0  0  0  0  0  0  0  0  0  0
   21.1554  -22.2293  -12.8871 N   0  0  0  0  0  0  0  0  0  0  0  0
   21.5518  -20.9389  -12.4015 C   0  0  0  0  0  0  0  0  0  0  0  0
   21.1247  -19.9359  -13.0297 O   0  0  0  0  0  0  0  0  0  0  0  0
   22.4379  -20.8179  -11.1985 C   0  0  0  0  0  0  0  0  0  0  0  0
   23.8694  -21.0068  -11.7035 C   0  0  2  0  0  0  0  0  0  0  0  0
   24.6951  -20.9542  -10.5127 N   0  0  0  0  0  0  0  0  0  0  0  0
   24.2368  -20.0244  -12.7134 C   0  0  0  0  0  0  0  0  0  0  0  0
   24.7401  -18.9343  -12.3720 O   0  0  0  0  0  0  0  0  0  0  0  0
   26.0612  -19.6080  -15.3172 C   0  0  0  0  0  0  0  0  0  0  0  0
   24.5749  -19.3436  -15.0864 C   0  0  2  0  0  0  0  0  0  0  0  0
   24.0406  -20.2625  -14.0956 N   0  0  0  0  0  0  0  0  0  0  0  0
   23.8880  -19.5751  -16.3708 C   0  0  0  0  0  0  0  0  0  0  0  0
   23.0499  -20.4888  -16.4757 O   0  0  0  0  0  0  0  0  0  0  0  0
   24.1780  -18.7771  -17.4507 O   0  0  0  0  0  0  0  0  0  0  0  0
  2  1  1  0
  2  3  1  0
  3  5  1  0
  3  4  1  1
  5  7  1  0
  5  6  1  6
  7 14  1  0
  7  8  2  0
  9 10  1  0
 10 12  1  0
 10 11  2  0
 13 12  1  1
 13 15  1  0
 14 13  1  0
 15 16  2  0
 18 17  1  6
 19 18  1  0
 19 15  1  0
 20 18  1  0
 20 22  1  0
 21 20  2  0
M  END
$$$$
