INA.pdb
     RDKit          3D

 22 21  0  0  1  0  0  0  0  0999 V2000
   26.3032  -16.5318  -17.1818 C   0  0  0  0  0  0  0  0  0  0  0  0
   25.8108  -15.7816  -15.9640 C   0  0  0  0  0  0  0  0  0  0  0  0
   24.9463  -14.6217  -16.3112 C   0  0  2  0  0  0  0  0  0  0  0  0
   25.5675  -13.6923  -17.3204 C   0  0  0  0  0  0  0  0  0  0  0  0
   24.4545  -13.8217  -15.1253 C   0  0  2  0  0  0  0  0  0  0  0  0
   23.8583  -14.8117  -14.2011 N   0  0  0  0  0  0  0  0  0  0  0  0
   23.3744  -12.8694  -15.4497 C   0  0  0  0  0  0  0  0  0  0  0  0
   23.6050  -11.8382  -16.1498 O   0  0  0  0  0  0  0  0  0  0  0  0
   18.6825  -13.7202  -16.8718 N   0  0  0  0  0  0  0  0  0  0  0  0
   19.4641  -13.8491  -15.6757 C   0  0  0  0  0  0  0  0  0  0  0  0
   19.9311  -14.9887  -15.4183 O   0  0  0  0  0  0  0  0  0  0  0  0
   19.6975  -12.6641  -14.7879 C   0  0  0  0  0  0  0  0  0  0  0  0
   20.9912  -12.0125  -15.2792 C   0  0  2  0  0  0  0  0  0  0  0  0
   22.0231  -13.0015  -15.0351 N   0  0  0  0  0  0  0  0  0  0  0  0
   21.2467  -10.7307  -14.6374 C   0  0  0  0  0  0  0  0  0  0  0  0
   21.7566  -10.6917  -13.4988 O   0  0  0  0  0  0  0  0  0  0  0  0
   22.8437   -8.0396  -14.8103 C   0  0  0  0  0  0  0  0  0  0  0  0
   21.3365   -8.2407  -14.6703 C   0  0  2  0  0  0  0  0  0  0  0  0
   20.9320   -9.5022  -15.2677 N   0  0  0  0  0  0  0  0  0  0  0  0
   20.6816   -7.1372  -15.3972 C   0  0  0  0  0  0  0  0  0  0  0  0
   20.7721   -5.9701  -14.9753 O   0  0  0  0  0  0  0  0  0  0  0  0
   19.9713   -7.4041  -16.5423 O   0  0  0  0  0  0  0  0  0  0  0  0
  2  1  1  0
  2  3  1  0
  3  5  1  0
  3  4  1  6
  5  7  1  0
  5  6  1  1
  7 14  1  0
  7  8  2  0
  9 10  1  0
 10 12  1  0
 10 11  2  0
 13 12  1  1
 13 15  1  0
 14 13  1  0
 15 16  2  0
 18 17  1  6
 19 18  1  0
 19 15  1  0
 20 18  1  0
 20 22  1  0
 21 20  2  0
M  END
$$$$
