INA.pdb
     RDKit          3D

 22 21  0  0  1  0  0  0  0  0999 V2000
   26.9449  -19.5429   -7.7136 C   0  0  0  0  0  0  0  0  0  0  0  0
   27.1699  -20.5777   -8.7938 C   0  0  0  0  0  0  0  0  0  0  0  0
   26.1751  -20.4871   -9.8961 C   0  0  2  0  0  0  0  0  0  0  0  0
   24.7485  -20.5994   -9.4265 C   0  0  0  0  0  0  0  0  0  0  0  0
   26.4067  -21.4511  -11.0385 C   0  0  2  0  0  0  0  0  0  0  0  0
   27.7703  -21.1575  -11.5325 N   0  0  0  0  0  0  0  0  0  0  0  0
   25.5063  -21.2455  -12.1899 C   0  0  0  0  0  0  0  0  0  0  0  0
   25.6098  -20.2149  -12.9205 O   0  0  0  0  0  0  0  0  0  0  0  0
   25.4663  -24.8239  -14.8351 N   0  0  0  0  0  0  0  0  0  0  0  0
   24.7615  -23.5960  -15.0665 C   0  0  0  0  0  0  0  0  0  0  0  0
   25.2822  -22.7811  -15.8714 O   0  0  0  0  0  0  0  0  0  0  0  0
   23.4651  -23.3192  -14.3666 C   0  0  0  0  0  0  0  0  0  0  0  0
   23.6114  -21.9354  -13.7314 C   0  0  2  0  0  0  0  0  0  0  0  0
   24.4780  -22.1400  -12.5869 N   0  0  0  0  0  0  0  0  0  0  0  0
   22.3263  -21.3405  -13.3925 C   0  0  0  0  0  0  0  0  0  0  0  0
   21.6281  -21.8352  -12.4837 O   0  0  0  0  0  0  0  0  0  0  0  0
   20.2786  -18.3521  -14.5012 C   0  0  0  0  0  0  0  0  0  0  0  0
   20.5508  -19.6181  -13.6917 C   0  0  2  0  0  0  0  0  0  0  0  0
   21.8279  -20.2002  -14.0683 N   0  0  0  0  0  0  0  0  0  0  0  0
   19.4769  -20.5771  -14.0112 C   0  0  0  0  0  0  0  0  0  0  0  0
   19.6143  -21.3785  -14.9531 O   0  0  0  0  0  0  0  0  0  0  0  0
   18.3243  -20.5814  -13.2638 O   0  0  0  0  0  0  0  0  0  0  0  0
  2  1  1  0
  2  3  1  0
  3  5  1  0
  3  4  1  1
  5  7  1  0
  5  6  1  6
  7 14  1  0
  7  8  2  0
  9 10  1  0
 10 12  1  0
 10 11  2  0
 13 12  1  1
 13 15  1  0
 14 13  1  0
 15 16  2  0
 18 17  1  6
 19 18  1  0
 19 15  1  0
 20 18  1  0
 20 22  1  0
 21 20  2  0
M  END
$$$$
