INA.pdb
     RDKit          3D

 22 21  0  0  1  0  0  0  0  0999 V2000
   30.5349  -21.5018  -11.6402 C   0  0  0  0  0  0  0  0  0  0  0  0
   29.4060  -20.5605  -11.2830 C   0  0  0  0  0  0  0  0  0  0  0  0
   28.1573  -20.8430  -12.0406 C   0  0  2  0  0  0  0  0  0  0  0  0
   28.3660  -20.9272  -13.5298 C   0  0  0  0  0  0  0  0  0  0  0  0
   27.0109  -19.9015  -11.7449 C   0  0  2  0  0  0  0  0  0  0  0  0
   26.9425  -19.8138  -10.2694 N   0  0  0  0  0  0  0  0  0  0  0  0
   25.6935  -20.4034  -12.1819 C   0  0  0  0  0  0  0  0  0  0  0  0
   25.5684  -21.0392  -13.2713 O   0  0  0  0  0  0  0  0  0  0  0  0
   23.3774  -20.2472   -8.5438 N   0  0  0  0  0  0  0  0  0  0  0  0
   22.7330  -21.0002   -9.5810 C   0  0  0  0  0  0  0  0  0  0  0  0
   22.6333  -22.2424   -9.4077 O   0  0  0  0  0  0  0  0  0  0  0  0
   22.2120  -20.3142  -10.8078 C   0  0  0  0  0  0  0  0  0  0  0  0
   23.1809  -20.6681  -11.9372 C   0  0  2  0  0  0  0  0  0  0  0  0
   24.4816  -20.2394  -11.4609 N   0  0  0  0  0  0  0  0  0  0  0  0
   22.7969  -20.0688  -13.2074 C   0  0  0  0  0  0  0  0  0  0  0  0
   23.1078  -18.8867  -13.4608 O   0  0  0  0  0  0  0  0  0  0  0  0
   22.5441  -20.7827  -16.5893 C   0  0  0  0  0  0  0  0  0  0  0  0
   21.7253  -20.1708  -15.4547 C   0  0  2  0  0  0  0  0  0  0  0  0
   22.0694  -20.7894  -14.1855 N   0  0  0  0  0  0  0  0  0  0  0  0
   20.3057  -20.4423  -15.7481 C   0  0  0  0  0  0  0  0  0  0  0  0
   19.6666  -21.2506  -15.0505 O   0  0  0  0  0  0  0  0  0  0  0  0
   19.6924  -19.7986  -16.7953 O   0  0  0  0  0  0  0  0  0  0  0  0
  2  1  1  0
  2  3  1  0
  3  5  1  0
  3  4  1  6
  5  7  1  0
  5  6  1  1
  7 14  1  0
  7  8  2  0
  9 10  1  0
 10 12  1  0
 10 11  2  0
 13 12  1  1
 13 15  1  0
 14 13  1  0
 15 16  2  0
 18 17  1  6
 19 18  1  0
 19 15  1  0
 20 18  1  0
 20 22  1  0
 21 20  2  0
M  END
$$$$
