INA.pdb
     RDKit          3D

 22 21  0  0  1  0  0  0  0  0999 V2000
   24.7829  -14.4804  -14.8593 C   0  0  0  0  0  0  0  0  0  0  0  0
   23.7136  -13.9916  -15.8110 C   0  0  0  0  0  0  0  0  0  0  0  0
   23.7851  -12.5260  -16.0560 C   0  0  2  0  0  0  0  0  0  0  0  0
   23.7139  -11.7037  -14.7962 C   0  0  0  0  0  0  0  0  0  0  0  0
   22.7795  -12.0019  -17.0572 C   0  0  2  0  0  0  0  0  0  0  0  0
   23.0356  -12.7550  -18.3050 N   0  0  0  0  0  0  0  0  0  0  0  0
   22.9597  -10.5776  -17.4000 C   0  0  0  0  0  0  0  0  0  0  0  0
   23.9847  -10.1860  -18.0344 O   0  0  0  0  0  0  0  0  0  0  0  0
   23.8169   -7.2680  -19.9383 N   0  0  0  0  0  0  0  0  0  0  0  0
   22.7548   -8.2089  -19.7268 C   0  0  0  0  0  0  0  0  0  0  0  0
   22.7905   -9.2718  -20.3991 O   0  0  0  0  0  0  0  0  0  0  0  0
   21.6616   -7.9142  -18.7443 C   0  0  0  0  0  0  0  0  0  0  0  0
   22.2653   -8.1366  -17.3566 C   0  0  2  0  0  0  0  0  0  0  0  0
   22.0451   -9.5418  -17.0747 N   0  0  0  0  0  0  0  0  0  0  0  0
   21.7000   -7.2439  -16.3547 C   0  0  0  0  0  0  0  0  0  0  0  0
   20.5625   -7.4648  -15.8905 O   0  0  0  0  0  0  0  0  0  0  0  0
   22.8266   -4.1805  -14.4304 C   0  0  0  0  0  0  0  0  0  0  0  0
   21.8548   -5.2963  -14.8082 C   0  0  2  0  0  0  0  0  0  0  0  0
   22.4047   -6.1119  -15.8779 N   0  0  0  0  0  0  0  0  0  0  0  0
   20.6183   -4.6514  -15.2878 C   0  0  0  0  0  0  0  0  0  0  0  0
   19.7592   -4.2645  -14.4750 O   0  0  0  0  0  0  0  0  0  0  0  0
   20.4196   -4.4798  -16.6362 O   0  0  0  0  0  0  0  0  0  0  0  0
  2  1  1  0
  2  3  1  0
  3  5  1  0
  3  4  1  1
  5  7  1  0
  5  6  1  6
  7 14  1  0
  7  8  2  0
  9 10  1  0
 10 12  1  0
 10 11  2  0
 13 12  1  6
 13 15  1  0
 14 13  1  0
 15 16  2  0
 18 17  1  6
 19 18  1  0
 19 15  1  0
 20 18  1  0
 20 22  1  0
 21 20  2  0
M  END
$$$$
