INA.pdb
     RDKit          3D

 22 21  0  0  1  0  0  0  0  0999 V2000
   18.8187  -17.8632  -18.4297 C   0  0  0  0  0  0  0  0  0  0  0  0
   18.6894  -16.4031  -18.8033 C   0  0  0  0  0  0  0  0  0  0  0  0
   19.1548  -15.4884  -17.7264 C   0  0  2  0  0  0  0  0  0  0  0  0
   18.4911  -15.7400  -16.3981 C   0  0  0  0  0  0  0  0  0  0  0  0
   19.0651  -14.0165  -18.0637 C   0  0  2  0  0  0  0  0  0  0  0  0
   19.8294  -13.8520  -19.3200 N   0  0  0  0  0  0  0  0  0  0  0  0
   19.7154  -13.1333  -17.0759 C   0  0  0  0  0  0  0  0  0  0  0  0
   19.2776  -13.0513  -15.8892 O   0  0  0  0  0  0  0  0  0  0  0  0
   24.2741  -11.3988  -14.4939 N   0  0  0  0  0  0  0  0  0  0  0  0
   23.6792  -10.7398  -15.6207 C   0  0  0  0  0  0  0  0  0  0  0  0
   23.7732   -9.4858  -15.6645 O   0  0  0  0  0  0  0  0  0  0  0  0
   22.9806  -11.5323  -16.6841 C   0  0  0  0  0  0  0  0  0  0  0  0
   21.4889  -11.4679  -16.3521 C   0  0  2  0  0  0  0  0  0  0  0  0
   20.8506  -12.3214  -17.3353 N   0  0  0  0  0  0  0  0  0  0  0  0
   20.9796  -10.1039  -16.3435 C   0  0  0  0  0  0  0  0  0  0  0  0
   20.9103   -9.4552  -17.4078 O   0  0  0  0  0  0  0  0  0  0  0  0
   19.0799   -7.8774  -14.0131 C   0  0  0  0  0  0  0  0  0  0  0  0
   20.0395   -8.1124  -15.1776 C   0  0  2  0  0  0  0  0  0  0  0  0
   20.5519   -9.4720  -15.1505 N   0  0  0  0  0  0  0  0  0  0  0  0
   21.1655   -7.1751  -15.0085 C   0  0  0  0  0  0  0  0  0  0  0  0
   22.3184   -7.6084  -14.8310 O   0  0  0  0  0  0  0  0  0  0  0  0
   20.9353   -5.8213  -15.0480 O   0  0  0  0  0  0  0  0  0  0  0  0
  2  1  1  0
  2  3  1  0
  3  5  1  0
  3  4  1  1
  5  7  1  0
  5  6  1  6
  7 14  1  0
  7  8  2  0
  9 10  1  0
 10 12  1  0
 10 11  2  0
 13 12  1  6
 13 15  1  0
 14 13  1  0
 15 16  2  0
 18 17  1  1
 19 18  1  0
 19 15  1  0
 20 18  1  0
 20 22  1  0
 21 20  2  0
M  END
$$$$
