IVT.pdb
     RDKit          3D

 23 22  0  0  1  0  0  0  0  0999 V2000
   18.3425  -31.6994  -10.5592 C   0  0  0  0  0  0  0  0  0  0  0  0
   19.7193  -31.5249  -11.1225 C   0  0  0  0  0  0  0  0  0  0  0  0
   20.6783  -32.4107  -10.3627 C   0  0  2  0  0  0  0  0  0  0  0  0
   20.7440  -32.0869   -8.8976 C   0  0  0  0  0  0  0  0  0  0  0  0
   22.0603  -32.2215  -11.0010 C   0  0  2  0  0  0  0  0  0  0  0  0
   21.9957  -32.7192  -12.3593 N   0  0  0  0  0  0  0  0  0  0  0  0
   23.0033  -33.0582  -10.2383 C   0  0  0  0  0  0  0  0  0  0  0  0
   22.9585  -34.3103  -10.3510 O   0  0  0  0  0  0  0  0  0  0  0  0
   27.3193  -33.7112   -8.0467 C   0  0  0  0  0  0  0  0  0  0  0  0
   26.3096  -33.0490   -8.9268 C   0  0  1  0  0  0  0  0  0  0  0  0
   26.7239  -33.1603  -10.3632 C   0  0  0  0  0  0  0  0  0  0  0  0
   24.8801  -33.4606   -8.6416 C   0  0  2  0  0  0  0  0  0  0  0  0
   23.9829  -32.5377   -9.3639 N   0  0  0  0  0  0  0  0  0  0  0  0
   24.5356  -33.4698   -7.2026 C   0  0  0  0  0  0  0  0  0  0  0  0
   24.6350  -32.4172   -6.4939 O   0  0  0  0  0  0  0  0  0  0  0  0
   23.2815  -37.0901   -5.1443 C   0  0  0  0  0  0  0  0  0  0  0  0
   22.6756  -35.7375   -4.9784 C   0  0  1  0  0  0  0  0  0  0  0  0
   22.0312  -35.6779   -3.7293 O   0  0  0  0  0  0  0  0  0  0  0  0
   23.6492  -34.6130   -5.1494 C   0  0  2  0  0  0  0  0  0  0  0  0
   24.0843  -34.6148   -6.5413 N   0  0  0  0  0  0  0  0  0  0  0  0
   24.7933  -34.6646   -4.2243 C   0  0  0  0  0  0  0  0  0  0  0  0
   25.8951  -35.2411   -4.5177 O   0  0  0  0  0  0  0  0  0  0  0  0
   24.7414  -34.0838   -2.9660 O   0  0  0  0  0  0  0  0  0  0  0  0
  2  1  1  0
  2  3  1  0
  3  4  1  1
  3  5  1  0
  5  7  1  0
  5  6  1  6
  7  8  2  0
  7 13  1  0
 10  9  1  1
 10 11  1  0
 12 14  1  0
 12 10  1  0
 12 13  1  6
 14 20  1  0
 15 14  2  0
 17 16  1  1
 17 18  1  0
 19 17  1  0
 19 21  1  0
 19 20  1  6
 21 22  2  0
 21 23  1  0
M  END
$$$$
