IVT.pdb
     RDKit          3D

 23 22  0  0  1  0  0  0  0  0999 V2000
   27.4434  -19.5455   -6.3607 C   0  0  0  0  0  0  0  0  0  0  0  0
   26.0284  -19.7850   -6.7894 C   0  0  0  0  0  0  0  0  0  0  0  0
   26.0242  -20.2973   -8.2103 C   0  0  2  0  0  0  0  0  0  0  0  0
   26.7646  -19.4013   -9.1614 C   0  0  0  0  0  0  0  0  0  0  0  0
   24.5555  -20.4117   -8.6381 C   0  0  2  0  0  0  0  0  0  0  0  0
   23.9422  -21.4604   -7.8502 N   0  0  0  0  0  0  0  0  0  0  0  0
   24.5516  -20.8234  -10.0528 C   0  0  0  0  0  0  0  0  0  0  0  0
   24.8957  -21.9929  -10.3633 O   0  0  0  0  0  0  0  0  0  0  0  0
   22.5068  -20.5273  -14.4574 C   0  0  0  0  0  0  0  0  0  0  0  0
   22.6800  -20.2532  -12.9987 C   0  0  1  0  0  0  0  0  0  0  0  0
   21.5867  -20.9153  -12.2152 C   0  0  0  0  0  0  0  0  0  0  0  0
   24.0808  -20.5147  -12.4854 C   0  0  2  0  0  0  0  0  0  0  0  0
   24.1776  -19.9721  -11.1162 N   0  0  0  0  0  0  0  0  0  0  0  0
   25.1465  -19.9326  -13.3309 C   0  0  0  0  0  0  0  0  0  0  0  0
   25.3768  -18.6809  -13.3330 O   0  0  0  0  0  0  0  0  0  0  0  0
   28.7183  -20.9624  -13.2465 C   0  0  0  0  0  0  0  0  0  0  0  0
   28.2696  -20.9957  -14.6684 C   0  0  1  0  0  0  0  0  0  0  0  0
   28.0659  -22.3344  -15.0498 O   0  0  0  0  0  0  0  0  0  0  0  0
   27.0607  -20.1557  -14.9415 C   0  0  2  0  0  0  0  0  0  0  0  0
   25.9564  -20.7074  -14.1652 N   0  0  0  0  0  0  0  0  0  0  0  0
   26.7173  -20.0455  -16.3689 C   0  0  0  0  0  0  0  0  0  0  0  0
   25.6133  -20.4722  -16.8501 O   0  0  0  0  0  0  0  0  0  0  0  0
   27.5818  -19.4653  -17.2851 O   0  0  0  0  0  0  0  0  0  0  0  0
  2  1  1  0
  2  3  1  0
  3  4  1  6
  3  5  1  0
  5  7  1  0
  5  6  1  1
  7  8  2  0
  7 13  1  0
 10  9  1  6
 10 11  1  0
 12 14  1  0
 12 10  1  0
 12 13  1  1
 14 20  1  0
 15 14  2  0
 17 16  1  1
 17 18  1  0
 19 17  1  0
 19 21  1  0
 19 20  1  1
 21 22  2  0
 21 23  1  0
M  END
$$$$
