IVT.pdb
     RDKit          3D

 23 22  0  0  1  0  0  0  0  0999 V2000
   25.4261  -13.2517  -15.4745 C   0  0  0  0  0  0  0  0  0  0  0  0
   23.9285  -13.2783  -15.4861 C   0  0  0  0  0  0  0  0  0  0  0  0
   23.4139  -11.8978  -15.8191 C   0  0  2  0  0  0  0  0  0  0  0  0
   23.7765  -10.8693  -14.7863 C   0  0  0  0  0  0  0  0  0  0  0  0
   21.8880  -12.0067  -15.9331 C   0  0  2  0  0  0  0  0  0  0  0  0
   21.5863  -13.0319  -16.9102 N   0  0  0  0  0  0  0  0  0  0  0  0
   21.4026  -10.7130  -16.4443 C   0  0  0  0  0  0  0  0  0  0  0  0
   21.3176  -10.5244  -17.6852 O   0  0  0  0  0  0  0  0  0  0  0  0
   18.2244   -7.6776  -17.2005 C   0  0  0  0  0  0  0  0  0  0  0  0
   19.1375   -8.8244  -16.9111 C   0  0  1  0  0  0  0  0  0  0  0  0
   19.3160   -9.6655  -18.1392 C   0  0  0  0  0  0  0  0  0  0  0  0
   20.4241   -8.4270  -16.2177 C   0  0  2  0  0  0  0  0  0  0  0  0
   21.0144   -9.6378  -15.6144 N   0  0  0  0  0  0  0  0  0  0  0  0
   20.2485   -7.3859  -15.1810 C   0  0  0  0  0  0  0  0  0  0  0  0
   19.6613   -7.6427  -14.0813 O   0  0  0  0  0  0  0  0  0  0  0  0
   23.0580   -4.4796  -15.1694 C   0  0  0  0  0  0  0  0  0  0  0  0
   22.2883   -4.9244  -13.9719 C   0  0  1  0  0  0  0  0  0  0  0  0
   22.4999   -4.0053  -12.9281 O   0  0  0  0  0  0  0  0  0  0  0  0
   20.8291   -5.1335  -14.2336 C   0  0  2  0  0  0  0  0  0  0  0  0
   20.7106   -6.0769  -15.3393 N   0  0  0  0  0  0  0  0  0  0  0  0
   20.0836   -3.8920  -14.4987 C   0  0  0  0  0  0  0  0  0  0  0  0
   19.7649   -3.5142  -15.6769 O   0  0  0  0  0  0  0  0  0  0  0  0
   19.6791   -3.0503  -13.4733 O   0  0  0  0  0  0  0  0  0  0  0  0
  2  1  1  0
  2  3  1  0
  3  4  1  1
  3  5  1  0
  5  7  1  0
  5  6  1  6
  7  8  2  0
  7 13  1  0
 10  9  1  6
 10 11  1  0
 12 14  1  0
 12 10  1  0
 12 13  1  1
 14 20  1  0
 15 14  2  0
 17 16  1  6
 17 18  1  0
 19 17  1  0
 19 21  1  0
 19 20  1  6
 21 22  2  0
 21 23  1  0
M  END
$$$$
