IVT.pdb
     RDKit          3D

 23 22  0  0  1  0  0  0  0  0999 V2000
   20.6572  -17.0349  -18.4986 C   0  0  0  0  0  0  0  0  0  0  0  0
   22.1319  -16.7723  -18.5070 C   0  0  0  0  0  0  0  0  0  0  0  0
   22.8314  -17.8663  -17.7354 C   0  0  2  0  0  0  0  0  0  0  0  0
   22.3188  -18.0169  -16.3317 C   0  0  0  0  0  0  0  0  0  0  0  0
   24.3231  -17.5096  -17.7103 C   0  0  2  0  0  0  0  0  0  0  0  0
   24.8408  -17.6634  -19.0539 N   0  0  0  0  0  0  0  0  0  0  0  0
   24.9849  -18.4939  -16.8362 C   0  0  0  0  0  0  0  0  0  0  0  0
   24.9543  -19.7152  -17.1365 O   0  0  0  0  0  0  0  0  0  0  0  0
   28.4853  -19.6738  -13.6535 C   0  0  0  0  0  0  0  0  0  0  0  0
   27.7792  -18.8750  -14.7004 C   0  0  1  0  0  0  0  0  0  0  0  0
   28.5609  -18.8939  -15.9795 C   0  0  0  0  0  0  0  0  0  0  0  0
   26.3099  -19.2129  -14.8459 C   0  0  2  0  0  0  0  0  0  0  0  0
   25.6715  -18.1526  -15.6500 N   0  0  0  0  0  0  0  0  0  0  0  0
   25.5991  -19.3599  -13.5564 C   0  0  0  0  0  0  0  0  0  0  0  0
   25.3672  -18.3533  -12.8128 O   0  0  0  0  0  0  0  0  0  0  0  0
   22.2428  -20.5062  -12.8865 C   0  0  0  0  0  0  0  0  0  0  0  0
   23.1346  -21.3570  -12.0469 C   0  0  1  0  0  0  0  0  0  0  0  0
   23.2402  -22.6285  -12.6398 O   0  0  0  0  0  0  0  0  0  0  0  0
   24.4815  -20.7551  -11.7923 C   0  0  2  0  0  0  0  0  0  0  0  0
   25.1422  -20.5920  -13.0820 N   0  0  0  0  0  0  0  0  0  0  0  0
   25.3131  -21.5231  -10.8510 C   0  0  0  0  0  0  0  0  0  0  0  0
   26.3853  -22.1216  -11.2041 O   0  0  0  0  0  0  0  0  0  0  0  0
   24.9776  -21.6431   -9.5107 O   0  0  0  0  0  0  0  0  0  0  0  0
  2  1  1  0
  2  3  1  0
  3  4  1  1
  3  5  1  0
  5  7  1  0
  5  6  1  6
  7  8  2  0
  7 13  1  0
 10  9  1  1
 10 11  1  0
 12 14  1  0
 12 10  1  0
 12 13  1  6
 14 20  1  0
 15 14  2  0
 17 16  1  6
 17 18  1  0
 19 17  1  0
 19 21  1  0
 19 20  1  6
 21 22  2  0
 21 23  1  0
M  END
$$$$
