IVT.pdb
     RDKit          3D

 23 22  0  0  1  0  0  0  0  0999 V2000
   26.6529  -15.0394  -15.7201 C   0  0  0  0  0  0  0  0  0  0  0  0
   25.2040  -15.3464  -15.4965 C   0  0  0  0  0  0  0  0  0  0  0  0
   24.3789  -14.1456  -15.8950 C   0  0  2  0  0  0  0  0  0  0  0  0
   24.6658  -12.9307  -15.0599 C   0  0  0  0  0  0  0  0  0  0  0  0
   22.9061  -14.5469  -15.7429 C   0  0  2  0  0  0  0  0  0  0  0  0
   22.6858  -15.7408  -16.5321 N   0  0  0  0  0  0  0  0  0  0  0  0
   22.1020  -13.4518  -16.3129 C   0  0  0  0  0  0  0  0  0  0  0  0
   22.2257  -13.1544  -17.5290 O   0  0  0  0  0  0  0  0  0  0  0  0
   18.0017  -10.9573  -16.6029 C   0  0  0  0  0  0  0  0  0  0  0  0
   18.9666  -12.0688  -16.3454 C   0  0  1  0  0  0  0  0  0  0  0  0
   18.7288  -13.1930  -17.3083 C   0  0  0  0  0  0  0  0  0  0  0  0
   20.4086  -11.6187  -16.2342 C   0  0  2  0  0  0  0  0  0  0  0  0
   21.1747  -12.6900  -15.5680 N   0  0  0  0  0  0  0  0  0  0  0  0
   20.5835  -10.3467  -15.4987 C   0  0  0  0  0  0  0  0  0  0  0  0
   20.3917  -10.2796  -14.2423 O   0  0  0  0  0  0  0  0  0  0  0  0
   21.7380   -6.7478  -17.5517 C   0  0  0  0  0  0  0  0  0  0  0  0
   22.2343   -7.1397  -16.2010 C   0  0  1  0  0  0  0  0  0  0  0  0
   22.6534   -5.9838  -15.5175 O   0  0  0  0  0  0  0  0  0  0  0  0
   21.2455   -7.9260  -15.3975 C   0  0  2  0  0  0  0  0  0  0  0  0
   20.9665   -9.1583  -16.1257 N   0  0  0  0  0  0  0  0  0  0  0  0
   20.0093   -7.1913  -15.0826 C   0  0  0  0  0  0  0  0  0  0  0  0
   18.9350   -7.3209  -15.7620 O   0  0  0  0  0  0  0  0  0  0  0  0
   19.9376   -6.3053  -14.0181 O   0  0  0  0  0  0  0  0  0  0  0  0
  2  1  1  0
  2  3  1  0
  3  4  1  1
  3  5  1  0
  5  7  1  0
  5  6  1  6
  7  8  2  0
  7 13  1  0
 10  9  1  6
 10 11  1  0
 12 14  1  0
 12 10  1  0
 12 13  1  1
 14 20  1  0
 15 14  2  0
 17 16  1  6
 17 18  1  0
 19 17  1  0
 19 21  1  0
 19 20  1  6
 21 22  2  0
 21 23  1  0
M  END
$$$$
