IVT.pdb
     RDKit          3D

 23 22  0  0  1  0  0  0  0  0999 V2000
   27.4694  -19.0924   -6.0096 C   0  0  0  0  0  0  0  0  0  0  0  0
   26.0941  -19.5136   -6.4275 C   0  0  0  0  0  0  0  0  0  0  0  0
   26.1435  -20.0131   -7.8521 C   0  0  2  0  0  0  0  0  0  0  0  0
   26.7692  -19.0299   -8.7995 C   0  0  0  0  0  0  0  0  0  0  0  0
   24.6964  -20.2964   -8.2752 C   0  0  2  0  0  0  0  0  0  0  0  0
   24.2175  -21.4216   -7.4997 N   0  0  0  0  0  0  0  0  0  0  0  0
   24.7333  -20.6863   -9.6956 C   0  0  0  0  0  0  0  0  0  0  0  0
   25.1780  -21.8172  -10.0209 O   0  0  0  0  0  0  0  0  0  0  0  0
   22.5630  -20.6881  -14.0043 C   0  0  0  0  0  0  0  0  0  0  0  0
   22.7663  -20.3652  -12.5597 C   0  0  1  0  0  0  0  0  0  0  0  0
   21.8339  -21.1777  -11.7124 C   0  0  0  0  0  0  0  0  0  0  0  0
   24.2157  -20.3938  -12.1206 C   0  0  2  0  0  0  0  0  0  0  0  0
   24.2913  -19.8550  -10.7486 N   0  0  0  0  0  0  0  0  0  0  0  0
   25.1248  -19.6346  -13.0074 C   0  0  0  0  0  0  0  0  0  0  0  0
   25.1072  -18.3623  -13.0366 O   0  0  0  0  0  0  0  0  0  0  0  0
   28.8834  -20.0355  -13.0907 C   0  0  0  0  0  0  0  0  0  0  0  0
   28.3470  -20.1576  -14.4769 C   0  0  1  0  0  0  0  0  0  0  0  0
   28.3260  -21.5171  -14.8383 O   0  0  0  0  0  0  0  0  0  0  0  0
   27.0071  -19.5172  -14.6661 C   0  0  2  0  0  0  0  0  0  0  0  0
   26.0473  -20.2554  -13.8534 N   0  0  0  0  0  0  0  0  0  0  0  0
   26.5757  -19.4334  -16.0712 C   0  0  0  0  0  0  0  0  0  0  0  0
   25.5268  -20.0170  -16.5092 O   0  0  0  0  0  0  0  0  0  0  0  0
   27.2907  -18.7079  -17.0124 O   0  0  0  0  0  0  0  0  0  0  0  0
  2  1  1  0
  2  3  1  0
  3  4  1  6
  3  5  1  0
  5  7  1  0
  5  6  1  1
  7  8  2  0
  7 13  1  0
 10  9  1  6
 10 11  1  0
 12 14  1  0
 12 10  1  0
 12 13  1  1
 14 20  1  0
 15 14  2  0
 17 16  1  1
 17 18  1  0
 19 17  1  0
 19 21  1  0
 19 20  1  1
 21 22  2  0
 21 23  1  0
M  END
$$$$
