IVT.pdb
     RDKit          3D

 23 22  0  0  1  0  0  0  0  0999 V2000
   19.9791  -16.5683  -17.4784 C   0  0  0  0  0  0  0  0  0  0  0  0
   21.4221  -16.4502  -17.8622 C   0  0  0  0  0  0  0  0  0  0  0  0
   22.2078  -17.5351  -17.1642 C   0  0  2  0  0  0  0  0  0  0  0  0
   22.0632  -17.4981  -15.6698 C   0  0  0  0  0  0  0  0  0  0  0  0
   23.6792  -17.3382  -17.5507 C   0  0  2  0  0  0  0  0  0  0  0  0
   23.8220  -17.6807  -18.9504 N   0  0  0  0  0  0  0  0  0  0  0  0
   24.4646  -18.2940  -16.7505 C   0  0  0  0  0  0  0  0  0  0  0  0
   24.2666  -19.5293  -16.8828 O   0  0  0  0  0  0  0  0  0  0  0  0
   28.4950  -19.3505  -14.1241 C   0  0  0  0  0  0  0  0  0  0  0  0
   27.6653  -18.6047  -15.1181 C   0  0  1  0  0  0  0  0  0  0  0  0
   28.2871  -18.6923  -16.4795 C   0  0  0  0  0  0  0  0  0  0  0  0
   26.1903  -18.9451  -15.0676 C   0  0  2  0  0  0  0  0  0  0  0  0
   25.4533  -17.9096  -15.8179 N   0  0  0  0  0  0  0  0  0  0  0  0
   25.6471  -19.0508  -13.6953 C   0  0  0  0  0  0  0  0  0  0  0  0
   25.4380  -18.0141  -12.9871 O   0  0  0  0  0  0  0  0  0  0  0  0
   23.3295  -22.2947  -12.4944 C   0  0  0  0  0  0  0  0  0  0  0  0
   23.3888  -20.9348  -11.8849 C   0  0  1  0  0  0  0  0  0  0  0  0
   22.7274  -20.9636  -10.6436 O   0  0  0  0  0  0  0  0  0  0  0  0
   24.7769  -20.3891  -11.7562 C   0  0  2  0  0  0  0  0  0  0  0  0
   25.3318  -20.2748  -13.1000 N   0  0  0  0  0  0  0  0  0  0  0  0
   25.6522  -21.1786  -10.8742 C   0  0  0  0  0  0  0  0  0  0  0  0
   26.6436  -21.8567  -11.3098 O   0  0  0  0  0  0  0  0  0  0  0  0
   25.4494  -21.2332   -9.5033 O   0  0  0  0  0  0  0  0  0  0  0  0
  2  1  1  0
  2  3  1  0
  3  4  1  1
  3  5  1  0
  5  7  1  0
  5  6  1  6
  7  8  2  0
  7 13  1  0
 10  9  1  1
 10 11  1  0
 12 14  1  0
 12 10  1  0
 12 13  1  6
 14 20  1  0
 15 14  2  0
 17 16  1  1
 17 18  1  0
 19 17  1  0
 19 21  1  0
 19 20  1  6
 21 22  2  0
 21 23  1  0
M  END
$$$$
