YSN.pdb
     RDKit          3D

 27 27  0  0  1  0  0  0  0  0999 V2000
   21.9903  -13.0095  -18.9381 O   0  0  0  0  0  0  0  0  0  0  0  0
   21.6656  -14.1910  -18.2946 C   0  0  0  0  0  0  0  0  0  0  0  0
   21.2491  -14.2527  -16.9840 C   0  0  0  0  0  0  0  0  0  0  0  0
   20.9359  -15.4526  -16.3837 C   0  0  0  0  0  0  0  0  0  0  0  0
   21.0310  -16.6307  -17.0816 C   0  0  0  0  0  0  0  0  0  0  0  0
   20.6936  -17.9016  -16.4234 C   0  0  0  0  0  0  0  0  0  0  0  0
   21.9343  -18.5080  -15.7564 C   0  0  2  0  0  0  0  0  0  0  0  0
   22.8177  -18.9038  -16.8060 N   0  0  0  0  0  0  0  0  0  0  0  0
   21.4249  -19.6925  -14.9831 C   0  0  0  0  0  0  0  0  0  0  0  0
   21.1022  -20.7750  -15.5337 O   0  0  0  0  0  0  0  0  0  0  0  0
   21.4431  -16.5965  -18.3871 C   0  0  0  0  0  0  0  0  0  0  0  0
   21.7517  -15.3859  -18.9686 C   0  0  0  0  0  0  0  0  0  0  0  0
   20.7948  -19.5028  -10.7053 O   0  0  0  0  0  0  0  0  0  0  0  0
   21.2723  -20.6385  -11.3252 C   0  0  0  0  0  0  0  0  0  0  0  0
   20.8443  -20.7582  -12.7669 C   0  0  2  0  0  0  0  0  0  0  0  0
   21.2844  -19.6346  -13.5652 N   0  0  0  0  0  0  0  0  0  0  0  0
   19.3751  -20.9712  -12.8933 C   0  0  0  0  0  0  0  0  0  0  0  0
   18.5636  -20.0127  -13.0915 O   0  0  0  0  0  0  0  0  0  0  0  0
   14.6327  -23.3775  -13.3396 N   0  0  0  0  0  0  0  0  0  0  0  0
   15.7366  -24.2840  -13.4495 C   0  0  0  0  0  0  0  0  0  0  0  0
   15.4546  -25.4502  -13.7998 O   0  0  0  0  0  0  0  0  0  0  0  0
   17.1125  -23.8857  -13.1724 C   0  0  0  0  0  0  0  0  0  0  0  0
   17.3384  -22.4228  -12.9070 C   0  0  2  0  0  0  0  0  0  0  0  0
   18.7945  -22.2622  -12.7996 N   0  0  0  0  0  0  0  0  0  0  0  0
   16.7451  -21.9962  -11.6382 C   0  0  0  0  0  0  0  0  0  0  0  0
   15.4835  -21.8768  -11.5593 O   0  0  0  0  0  0  0  0  0  0  0  0
   17.4438  -21.7063  -10.4931 O   0  0  0  0  0  0  0  0  0  0  0  0
  2  1  1  0
  2 12  2  0
  3  2  1  0
  4  3  2  0
  4  5  1  0
  5 11  2  0
  6  5  1  0
  7  6  1  0
  7  9  1  0
  7  8  1  6
  9 16  1  0
  9 10  2  0
 11 12  1  0
 13 14  1  0
 15 14  1  1
 15 17  1  0
 16 15  1  0
 17 18  2  0
 19 20  1  0
 20 21  2  0
 20 22  1  0
 23 22  1  1
 23 25  1  0
 24 17  1  0
 24 23  1  0
 25 26  2  0
 25 27  1  0
M  END
$$$$
