YSN.pdb
     RDKit          3D

 27 27  0  0  1  0  0  0  0  0999 V2000
   29.3867  -18.9544   -3.2167 O   0  0  0  0  0  0  0  0  0  0  0  0
   28.8521  -19.4497   -4.3933 C   0  0  0  0  0  0  0  0  0  0  0  0
   28.5482  -20.7779   -4.5900 C   0  0  0  0  0  0  0  0  0  0  0  0
   28.0167  -21.2265   -5.7792 C   0  0  0  0  0  0  0  0  0  0  0  0
   27.7729  -20.3542   -6.8107 C   0  0  0  0  0  0  0  0  0  0  0  0
   27.2065  -20.8521   -8.0729 C   0  0  0  0  0  0  0  0  0  0  0  0
   25.8966  -20.1242   -8.3989 C   0  0  2  0  0  0  0  0  0  0  0  0
   24.9362  -20.5449   -7.4297 N   0  0  0  0  0  0  0  0  0  0  0  0
   25.5267  -20.5823   -9.7824 C   0  0  0  0  0  0  0  0  0  0  0  0
   24.6065  -21.4099  -10.0002 O   0  0  0  0  0  0  0  0  0  0  0  0
   28.0665  -19.0276   -6.6403 C   0  0  0  0  0  0  0  0  0  0  0  0
   28.5976  -18.5995   -5.4430 C   0  0  0  0  0  0  0  0  0  0  0  0
   25.8918  -18.7341  -14.3364 O   0  0  0  0  0  0  0  0  0  0  0  0
   26.5117  -19.1567  -13.1792 C   0  0  0  0  0  0  0  0  0  0  0  0
   25.5440  -19.5885  -12.1054 C   0  0  2  0  0  0  0  0  0  0  0  0
   26.2187  -20.0865  -10.9264 N   0  0  0  0  0  0  0  0  0  0  0  0
   24.5500  -20.5729  -12.6180 C   0  0  0  0  0  0  0  0  0  0  0  0
   24.7911  -21.8202  -12.6667 O   0  0  0  0  0  0  0  0  0  0  0  0
   19.9894  -22.8370  -14.0823 N   0  0  0  0  0  0  0  0  0  0  0  0
   19.9391  -21.8388  -13.0559 C   0  0  0  0  0  0  0  0  0  0  0  0
   18.8835  -21.7927  -12.3882 O   0  0  0  0  0  0  0  0  0  0  0  0
   21.0446  -20.9235  -12.7936 C   0  0  0  0  0  0  0  0  0  0  0  0
   22.3135  -21.1803  -13.5587 C   0  0  2  0  0  0  0  0  0  0  0  0
   23.2709  -20.1728  -13.0833 N   0  0  0  0  0  0  0  0  0  0  0  0
   22.1358  -20.9861  -14.9991 C   0  0  0  0  0  0  0  0  0  0  0  0
   22.3702  -19.8425  -15.4983 O   0  0  0  0  0  0  0  0  0  0  0  0
   21.7295  -21.9515  -15.8859 O   0  0  0  0  0  0  0  0  0  0  0  0
  2  1  1  0
  2 12  2  0
  3  2  1  0
  4  3  2  0
  4  5  1  0
  5 11  2  0
  6  5  1  0
  7  6  1  0
  7  9  1  0
  7  8  1  1
  9 16  1  0
  9 10  2  0
 11 12  1  0
 13 14  1  0
 15 14  1  6
 15 17  1  0
 16 15  1  0
 17 18  2  0
 19 20  1  0
 20 21  2  0
 20 22  1  0
 23 22  1  1
 23 25  1  0
 24 17  1  0
 24 23  1  0
 25 26  2  0
 25 27  1  0
M  END
$$$$
