YSN.pdb
     RDKit          3D

 27 27  0  0  1  0  0  0  0  0999 V2000
   23.3775  -14.7076  -22.8452 O   0  0  0  0  0  0  0  0  0  0  0  0
   22.7989  -13.6936  -22.1018 C   0  0  0  0  0  0  0  0  0  0  0  0
   21.5665  -13.1507  -22.3869 C   0  0  0  0  0  0  0  0  0  0  0  0
   21.0290  -12.1414  -21.6184 C   0  0  0  0  0  0  0  0  0  0  0  0
   21.7131  -11.6444  -20.5372 C   0  0  0  0  0  0  0  0  0  0  0  0
   21.1237  -10.5662  -19.7296 C   0  0  0  0  0  0  0  0  0  0  0  0
   20.7566  -11.0799  -18.3321 C   0  0  2  0  0  0  0  0  0  0  0  0
   19.6999  -12.0251  -18.5020 N   0  0  0  0  0  0  0  0  0  0  0  0
   20.2982   -9.8646  -17.5749 C   0  0  0  0  0  0  0  0  0  0  0  0
   19.2981   -9.1866  -17.9203 O   0  0  0  0  0  0  0  0  0  0  0  0
   22.9414  -12.1676  -20.2323 C   0  0  0  0  0  0  0  0  0  0  0  0
   23.4610  -13.1766  -21.0138 C   0  0  0  0  0  0  0  0  0  0  0  0
   20.6062   -7.3472  -13.3936 O   0  0  0  0  0  0  0  0  0  0  0  0
   20.9324   -8.4470  -14.1593 C   0  0  0  0  0  0  0  0  0  0  0  0
   20.5658   -8.2931  -15.6145 C   0  0  2  0  0  0  0  0  0  0  0  0
   20.9934   -9.4228  -16.4108 N   0  0  0  0  0  0  0  0  0  0  0  0
   21.0682   -7.0095  -16.1801 C   0  0  0  0  0  0  0  0  0  0  0  0
   22.3025   -6.8016  -16.4031 O   0  0  0  0  0  0  0  0  0  0  0  0
   21.1246   -2.2428  -18.5744 N   0  0  0  0  0  0  0  0  0  0  0  0
   19.9899   -3.0673  -18.8662 C   0  0  0  0  0  0  0  0  0  0  0  0
   19.2369   -2.6599  -19.7769 O   0  0  0  0  0  0  0  0  0  0  0  0
   19.7157   -4.3099  -18.1525 C   0  0  0  0  0  0  0  0  0  0  0  0
   20.7258   -4.7149  -17.1145 C   0  0  2  0  0  0  0  0  0  0  0  0
   20.1937   -5.9404  -16.5042 N   0  0  0  0  0  0  0  0  0  0  0  0
   20.8618   -3.7100  -16.0583 C   0  0  0  0  0  0  0  0  0  0  0  0
   21.3003   -2.5573  -16.3598 O   0  0  0  0  0  0  0  0  0  0  0  0
   20.5498   -3.9017  -14.7356 O   0  0  0  0  0  0  0  0  0  0  0  0
  2  1  1  0
  2 12  2  0
  3  2  1  0
  4  3  2  0
  4  5  1  0
  5 11  2  0
  6  5  1  0
  7  6  1  0
  7  9  1  0
  7  8  1  6
  9 16  1  0
  9 10  2  0
 11 12  1  0
 13 14  1  0
 15 14  1  1
 15 17  1  0
 16 15  1  0
 17 18  2  0
 19 20  1  0
 20 21  2  0
 20 22  1  0
 23 22  1  6
 23 25  1  0
 24 17  1  0
 24 23  1  0
 25 26  2  0
 25 27  1  0
M  END
$$$$
