YSN.pdb
     RDKit          3D

 27 27  0  0  1  0  0  0  0  0999 V2000
   10.4197   -9.6892   -7.2740 O   0  0  0  0  0  0  0  0  0  0  0  0
   11.3804   -9.0109   -8.0037 C   0  0  0  0  0  0  0  0  0  0  0  0
   11.4873   -7.6387   -8.0287 C   0  0  0  0  0  0  0  0  0  0  0  0
   12.4607   -7.0057   -8.7702 C   0  0  0  0  0  0  0  0  0  0  0  0
   13.3594   -7.7316   -9.5115 C   0  0  0  0  0  0  0  0  0  0  0  0
   14.3904   -7.0380  -10.2976 C   0  0  0  0  0  0  0  0  0  0  0  0
   15.7780   -7.2671   -9.6862 C   0  0  2  0  0  0  0  0  0  0  0  0
   15.8209   -6.5266   -8.4662 N   0  0  0  0  0  0  0  0  0  0  0  0
   16.7478   -6.7251  -10.6992 C   0  0  0  0  0  0  0  0  0  0  0  0
   17.0722   -5.5120  -10.7474 O   0  0  0  0  0  0  0  0  0  0  0  0
   13.2744   -9.0984   -9.5036 C   0  0  0  0  0  0  0  0  0  0  0  0
   12.2933   -9.7119   -8.7553 C   0  0  0  0  0  0  0  0  0  0  0  0
   19.9525   -8.8162  -12.6268 O   0  0  0  0  0  0  0  0  0  0  0  0
   18.9664   -8.2340  -13.3956 C   0  0  0  0  0  0  0  0  0  0  0  0
   18.2493   -7.1064  -12.6953 C   0  0  2  0  0  0  0  0  0  0  0  0
   17.3511   -7.5826  -11.6658 N   0  0  0  0  0  0  0  0  0  0  0  0
   17.5459   -6.2137  -13.6586 C   0  0  0  0  0  0  0  0  0  0  0  0
   16.4074   -6.5018  -14.1460 O   0  0  0  0  0  0  0  0  0  0  0  0
   15.5612   -0.8230  -14.5675 N   0  0  0  0  0  0  0  0  0  0  0  0
   16.1354   -2.0046  -15.1388 C   0  0  0  0  0  0  0  0  0  0  0  0
   16.0034   -2.1349  -16.3749 O   0  0  0  0  0  0  0  0  0  0  0  0
   16.8347   -3.0052  -14.3397 C   0  0  0  0  0  0  0  0  0  0  0  0
   17.4133   -4.1702  -15.0946 C   0  0  2  0  0  0  0  0  0  0  0  0
   18.1086   -4.9847  -14.0893 N   0  0  0  0  0  0  0  0  0  0  0  0
   18.4005   -3.7453  -16.0889 C   0  0  0  0  0  0  0  0  0  0  0  0
   19.6289   -3.7316  -15.7682 O   0  0  0  0  0  0  0  0  0  0  0  0
   18.1152   -3.3503  -17.3720 O   0  0  0  0  0  0  0  0  0  0  0  0
  2  1  1  0
  2 12  2  0
  3  2  1  0
  4  3  2  0
  4  5  1  0
  5 11  2  0
  6  5  1  0
  7  6  1  0
  7  9  1  0
  7  8  1  1
  9 16  1  0
  9 10  2  0
 11 12  1  0
 13 14  1  0
 15 14  1  6
 15 17  1  0
 16 15  1  0
 17 18  2  0
 19 20  1  0
 20 21  2  0
 20 22  1  0
 23 22  1  1
 23 25  1  0
 24 17  1  0
 24 23  1  0
 25 26  2  0
 25 27  1  0
M  END
$$$$
