YSN.pdb
     RDKit          3D

 27 27  0  0  1  0  0  0  0  0999 V2000
   18.3561  -13.7824  -17.3846 O   0  0  0  0  0  0  0  0  0  0  0  0
   18.7900  -12.5210  -17.0153 C   0  0  0  0  0  0  0  0  0  0  0  0
   18.3462  -11.8642  -15.8899 C   0  0  0  0  0  0  0  0  0  0  0  0
   18.8064  -10.6079  -15.5609 C   0  0  0  0  0  0  0  0  0  0  0  0
   19.7284   -9.9702  -16.3529 C   0  0  0  0  0  0  0  0  0  0  0  0
   20.2067   -8.6290  -15.9861 C   0  0  0  0  0  0  0  0  0  0  0  0
   21.6964   -8.6695  -15.6240 C   0  0  2  0  0  0  0  0  0  0  0  0
   21.8057   -9.3932  -14.3980 N   0  0  0  0  0  0  0  0  0  0  0  0
   22.0991   -7.2305  -15.4572 C   0  0  0  0  0  0  0  0  0  0  0  0
   21.6649   -6.5075  -14.5255 O   0  0  0  0  0  0  0  0  0  0  0  0
   20.1859  -10.6023  -17.4783 C   0  0  0  0  0  0  0  0  0  0  0  0
   19.7127  -11.8587  -17.7893 C   0  0  0  0  0  0  0  0  0  0  0  0
   24.4241   -5.2612  -18.4560 O   0  0  0  0  0  0  0  0  0  0  0  0
   24.6133   -4.9230  -17.1324 C   0  0  0  0  0  0  0  0  0  0  0  0
   23.4227   -5.2334  -16.2594 C   0  0  2  0  0  0  0  0  0  0  0  0
   23.0082   -6.6153  -16.3674 N   0  0  0  0  0  0  0  0  0  0  0  0
   22.2873   -4.3045  -16.5197 C   0  0  0  0  0  0  0  0  0  0  0  0
   21.3474   -4.5889  -17.3273 O   0  0  0  0  0  0  0  0  0  0  0  0
   18.8643   -0.2652  -16.1507 N   0  0  0  0  0  0  0  0  0  0  0  0
   19.4934   -0.6552  -14.9240 C   0  0  0  0  0  0  0  0  0  0  0  0
   19.0066   -0.1693  -13.8804 O   0  0  0  0  0  0  0  0  0  0  0  0
   20.6344   -1.5635  -14.8789 C   0  0  0  0  0  0  0  0  0  0  0  0
   21.0739   -2.1415  -16.1959 C   0  0  2  0  0  0  0  0  0  0  0  0
   22.1889   -3.0432  -15.8777 N   0  0  0  0  0  0  0  0  0  0  0  0
   21.5755   -1.1119  -17.1081 C   0  0  0  0  0  0  0  0  0  0  0  0
   22.7805   -0.7274  -16.9976 O   0  0  0  0  0  0  0  0  0  0  0  0
   20.8456   -0.5068  -18.1004 O   0  0  0  0  0  0  0  0  0  0  0  0
  2  1  1  0
  2 12  2  0
  3  2  1  0
  4  3  2  0
  4  5  1  0
  5 11  2  0
  6  5  1  0
  7  6  1  0
  7  9  1  0
  7  8  1  1
  9 16  1  0
  9 10  2  0
 11 12  1  0
 13 14  1  0
 15 14  1  6
 15 17  1  0
 16 15  1  0
 17 18  2  0
 19 20  1  0
 20 21  2  0
 20 22  1  0
 23 22  1  1
 23 25  1  0
 24 17  1  0
 24 23  1  0
 25 26  2  0
 25 27  1  0
M  END
$$$$
