YSN.pdb
     RDKit          3D

 27 27  0  0  1  0  0  0  0  0999 V2000
   20.6632  -19.4802  -14.3787 O   0  0  0  0  0  0  0  0  0  0  0  0
   20.9808  -18.2005  -14.7993 C   0  0  0  0  0  0  0  0  0  0  0  0
   22.1786  -17.8709  -15.3922 C   0  0  0  0  0  0  0  0  0  0  0  0
   22.4518  -16.5822  -15.7957 C   0  0  0  0  0  0  0  0  0  0  0  0
   21.5293  -15.5818  -15.6164 C   0  0  0  0  0  0  0  0  0  0  0  0
   21.8396  -14.2122  -16.0524 C   0  0  0  0  0  0  0  0  0  0  0  0
   21.1679  -13.9107  -17.3977 C   0  0  2  0  0  0  0  0  0  0  0  0
   21.9036  -14.6181  -18.3963 N   0  0  0  0  0  0  0  0  0  0  0  0
   21.2866  -12.4219  -17.5709 C   0  0  0  0  0  0  0  0  0  0  0  0
   22.3600  -11.8607  -17.9056 O   0  0  0  0  0  0  0  0  0  0  0  0
   20.3297  -15.8837  -15.0289 C   0  0  0  0  0  0  0  0  0  0  0  0
   20.0763  -17.1789  -14.6325 C   0  0  0  0  0  0  0  0  0  0  0  0
   17.8117   -9.8433  -17.4953 O   0  0  0  0  0  0  0  0  0  0  0  0
   18.9574   -9.6166  -18.2288 C   0  0  0  0  0  0  0  0  0  0  0  0
   20.2070  -10.1375  -17.5632 C   0  0  2  0  0  0  0  0  0  0  0  0
   20.1637  -11.5691  -17.3582 N   0  0  0  0  0  0  0  0  0  0  0  0
   20.5004   -9.4162  -16.2930 C   0  0  0  0  0  0  0  0  0  0  0  0
   20.2384   -9.9134  -15.1525 O   0  0  0  0  0  0  0  0  0  0  0  0
   22.2281   -5.7037  -12.8666 N   0  0  0  0  0  0  0  0  0  0  0  0
   22.6566   -5.4553  -14.2109 C   0  0  0  0  0  0  0  0  0  0  0  0
   23.4147   -4.4746  -14.3716 O   0  0  0  0  0  0  0  0  0  0  0  0
   22.2419   -6.2873  -15.3354 C   0  0  0  0  0  0  0  0  0  0  0  0
   21.3286   -7.4365  -15.0083 C   0  0  2  0  0  0  0  0  0  0  0  0
   21.0924   -8.1270  -16.2831 N   0  0  0  0  0  0  0  0  0  0  0  0
   20.0340   -6.9817  -14.4975 C   0  0  0  0  0  0  0  0  0  0  0  0
   19.1689   -6.5450  -15.3178 O   0  0  0  0  0  0  0  0  0  0  0  0
   19.6561   -6.9841  -13.1781 O   0  0  0  0  0  0  0  0  0  0  0  0
  2  1  1  0
  2 12  2  0
  3  2  1  0
  4  3  2  0
  4  5  1  0
  5 11  2  0
  6  5  1  0
  7  6  1  0
  7  9  1  0
  7  8  1  6
  9 16  1  0
  9 10  2  0
 11 12  1  0
 13 14  1  0
 15 14  1  1
 15 17  1  0
 16 15  1  0
 17 18  2  0
 19 20  1  0
 20 21  2  0
 20 22  1  0
 23 22  1  6
 23 25  1  0
 24 17  1  0
 24 23  1  0
 25 26  2  0
 25 27  1  0
M  END
$$$$
