YSN.pdb
     RDKit          3D

 27 27  0  0  1  0  0  0  0  0999 V2000
   15.0048  -23.4492  -15.6755 O   0  0  0  0  0  0  0  0  0  0  0  0
   15.4016  -22.1263  -15.5859 C   0  0  0  0  0  0  0  0  0  0  0  0
   16.1843  -21.5021  -16.5307 C   0  0  0  0  0  0  0  0  0  0  0  0
   16.5553  -20.1817  -16.4002 C   0  0  0  0  0  0  0  0  0  0  0  0
   16.1514  -19.4448  -15.3149 C   0  0  0  0  0  0  0  0  0  0  0  0
   16.5585  -18.0372  -15.1925 C   0  0  0  0  0  0  0  0  0  0  0  0
   18.0436  -17.9369  -14.8234 C   0  0  2  0  0  0  0  0  0  0  0  0
   18.1901  -18.5242  -13.5302 N   0  0  0  0  0  0  0  0  0  0  0  0
   18.3442  -16.4639  -14.8015 C   0  0  0  0  0  0  0  0  0  0  0  0
   18.0008  -15.7148  -13.8527 O   0  0  0  0  0  0  0  0  0  0  0  0
   15.3720  -20.0425  -14.3607 C   0  0  0  0  0  0  0  0  0  0  0  0
   15.0121  -21.3642  -14.5102 C   0  0  0  0  0  0  0  0  0  0  0  0
   21.0249  -14.8699  -17.6231 O   0  0  0  0  0  0  0  0  0  0  0  0
   20.7884  -14.2091  -16.4359 C   0  0  0  0  0  0  0  0  0  0  0  0
   19.4028  -14.4426  -15.8868 C   0  0  2  0  0  0  0  0  0  0  0  0
   19.0449  -15.8444  -15.8779 N   0  0  0  0  0  0  0  0  0  0  0  0
   18.3797  -13.6259  -16.5981 C   0  0  0  0  0  0  0  0  0  0  0  0
   17.6833  -14.0910  -17.5547 O   0  0  0  0  0  0  0  0  0  0  0  0
   15.1175   -9.6372  -17.9337 N   0  0  0  0  0  0  0  0  0  0  0  0
   15.4298   -9.7177  -16.5378 C   0  0  0  0  0  0  0  0  0  0  0  0
   14.7918   -8.9469  -15.7887 O   0  0  0  0  0  0  0  0  0  0  0  0
   16.4297  -10.6381  -16.0069 C   0  0  0  0  0  0  0  0  0  0  0  0
   17.1501  -11.4885  -17.0167 C   0  0  2  0  0  0  0  0  0  0  0  0
   18.1221  -12.2758  -16.2467 N   0  0  0  0  0  0  0  0  0  0  0  0
   17.8935  -10.6807  -17.9854 C   0  0  0  0  0  0  0  0  0  0  0  0
   19.1511  -10.5664  -17.8536 O   0  0  0  0  0  0  0  0  0  0  0  0
   17.3437  -10.0174  -19.0538 O   0  0  0  0  0  0  0  0  0  0  0  0
  2  1  1  0
  2 12  2  0
  3  2  1  0
  4  3  2  0
  4  5  1  0
  5 11  2  0
  6  5  1  0
  7  6  1  0
  7  9  1  0
  7  8  1  1
  9 16  1  0
  9 10  2  0
 11 12  1  0
 13 14  1  0
 15 14  1  6
 15 17  1  0
 16 15  1  0
 17 18  2  0
 19 20  1  0
 20 21  2  0
 20 22  1  0
 23 22  1  1
 23 25  1  0
 24 17  1  0
 24 23  1  0
 25 26  2  0
 25 27  1  0
M  END
$$$$
