YSN.pdb
     RDKit          3D

 27 27  0  0  1  0  0  0  0  0999 V2000
   28.7308  -19.4522   -4.2450 O   0  0  0  0  0  0  0  0  0  0  0  0
   28.1808  -19.5077   -5.5139 C   0  0  0  0  0  0  0  0  0  0  0  0
   28.5695  -18.6854   -6.5471 C   0  0  0  0  0  0  0  0  0  0  0  0
   27.9936  -18.7762   -7.7954 C   0  0  0  0  0  0  0  0  0  0  0  0
   27.0074  -19.6974   -8.0463 C   0  0  0  0  0  0  0  0  0  0  0  0
   26.4038  -19.7785   -9.3847 C   0  0  0  0  0  0  0  0  0  0  0  0
   26.3469  -21.2347   -9.8619 C   0  0  2  0  0  0  0  0  0  0  0  0
   27.6870  -21.6254  -10.1623 N   0  0  0  0  0  0  0  0  0  0  0  0
   25.4860  -21.2108  -11.0943 C   0  0  0  0  0  0  0  0  0  0  0  0
   25.9548  -21.0344  -12.2468 O   0  0  0  0  0  0  0  0  0  0  0  0
   26.6027  -20.5274   -7.0351 C   0  0  0  0  0  0  0  0  0  0  0  0
   27.1916  -20.4201   -5.7939 C   0  0  0  0  0  0  0  0  0  0  0  0
   21.2323  -20.8323  -10.9145 O   0  0  0  0  0  0  0  0  0  0  0  0
   21.7767  -21.7478  -11.7907 C   0  0  0  0  0  0  0  0  0  0  0  0
   23.2073  -21.4442  -12.1609 C   0  0  2  0  0  0  0  0  0  0  0  0
   24.0743  -21.3907  -11.0038 N   0  0  0  0  0  0  0  0  0  0  0  0
   23.3171  -20.2037  -12.9789 C   0  0  0  0  0  0  0  0  0  0  0  0
   23.5776  -19.0707  -12.4642 O   0  0  0  0  0  0  0  0  0  0  0  0
   23.6490  -16.8633  -17.0876 N   0  0  0  0  0  0  0  0  0  0  0  0
   24.5752  -17.9496  -16.9667 C   0  0  0  0  0  0  0  0  0  0  0  0
   25.5685  -17.9091  -17.7242 O   0  0  0  0  0  0  0  0  0  0  0  0
   24.3845  -19.0447  -16.0216 C   0  0  0  0  0  0  0  0  0  0  0  0
   23.1680  -18.9567  -15.1418 C   0  0  2  0  0  0  0  0  0  0  0  0
   23.1367  -20.2158  -14.3860 N   0  0  0  0  0  0  0  0  0  0  0  0
   21.9313  -18.8699  -15.9208 C   0  0  0  0  0  0  0  0  0  0  0  0
   21.5106  -17.7273  -16.2805 O   0  0  0  0  0  0  0  0  0  0  0  0
   21.1627  -19.9379  -16.3111 O   0  0  0  0  0  0  0  0  0  0  0  0
  2  1  1  0
  2 12  2  0
  3  2  1  0
  4  3  2  0
  4  5  1  0
  5 11  2  0
  6  5  1  0
  7  6  1  0
  7  9  1  0
  7  8  1  6
  9 16  1  0
  9 10  2  0
 11 12  1  0
 13 14  1  0
 15 14  1  1
 15 17  1  0
 16 15  1  0
 17 18  2  0
 19 20  1  0
 20 21  2  0
 20 22  1  0
 23 22  1  6
 23 25  1  0
 24 17  1  0
 24 23  1  0
 25 26  2  0
 25 27  1  0
M  END
$$$$
