YSN.pdb
     RDKit          3D

 27 27  0  0  1  0  0  0  0  0999 V2000
   17.5749  -16.4229   -0.4136 O   0  0  0  0  0  0  0  0  0  0  0  0
   17.7279  -16.1262    0.9296 C   0  0  0  0  0  0  0  0  0  0  0  0
   18.0336  -14.8692    1.4001 C   0  0  0  0  0  0  0  0  0  0  0  0
   18.1764  -14.6198    2.7475 C   0  0  0  0  0  0  0  0  0  0  0  0
   18.0165  -15.6264    3.6669 C   0  0  0  0  0  0  0  0  0  0  0  0
   18.1742  -15.3410    5.1007 C   0  0  0  0  0  0  0  0  0  0  0  0
   16.8044  -15.2352    5.7820 C   0  0  2  0  0  0  0  0  0  0  0  0
   16.3487  -13.8955    5.5913 N   0  0  0  0  0  0  0  0  0  0  0  0
   17.0636  -15.5323    7.2330 C   0  0  0  0  0  0  0  0  0  0  0  0
   17.7309  -14.7675    7.9740 O   0  0  0  0  0  0  0  0  0  0  0  0
   17.7121  -16.8861    3.2245 C   0  0  0  0  0  0  0  0  0  0  0  0
   17.5736  -17.1144    1.8726 C   0  0  0  0  0  0  0  0  0  0  0  0
   15.0572  -18.6851    9.3900 O   0  0  0  0  0  0  0  0  0  0  0  0
   15.6821  -17.5957    9.9599 C   0  0  0  0  0  0  0  0  0  0  0  0
   16.8889  -17.1257    9.1861 C   0  0  2  0  0  0  0  0  0  0  0  0
   16.5526  -16.7174    7.8395 N   0  0  0  0  0  0  0  0  0  0  0  0
   17.9793  -18.1409    9.1889 C   0  0  0  0  0  0  0  0  0  0  0  0
   18.1475  -18.9608    8.2318 O   0  0  0  0  0  0  0  0  0  0  0  0
   23.2917  -17.3416   10.2951 N   0  0  0  0  0  0  0  0  0  0  0  0
   22.2200  -18.2127    9.9143 C   0  0  0  0  0  0  0  0  0  0  0  0
   22.2367  -18.6166    8.7316 O   0  0  0  0  0  0  0  0  0  0  0  0
   21.1651  -18.6134   10.8392 C   0  0  0  0  0  0  0  0  0  0  0  0
   19.9579  -19.2668   10.2248 C   0  0  2  0  0  0  0  0  0  0  0  0
   18.8973  -18.2515   10.2649 N   0  0  0  0  0  0  0  0  0  0  0  0
   19.5032  -20.4219   11.0012 C   0  0  0  0  0  0  0  0  0  0  0  0
   18.5826  -20.2606   11.8605 O   0  0  0  0  0  0  0  0  0  0  0  0
   19.9912  -21.6992   10.8834 O   0  0  0  0  0  0  0  0  0  0  0  0
  2  1  1  0
  2 12  2  0
  3  2  1  0
  4  3  2  0
  4  5  1  0
  5 11  2  0
  6  5  1  0
  7  6  1  0
  7  9  1  0
  7  8  1  1
  9 16  1  0
  9 10  2  0
 11 12  1  0
 13 14  1  0
 15 14  1  6
 15 17  1  0
 16 15  1  0
 17 18  2  0
 19 20  1  0
 20 21  2  0
 20 22  1  0
 23 22  1  1
 23 25  1  0
 24 17  1  0
 24 23  1  0
 25 26  2  0
 25 27  1  0
M  END
$$$$
