YSN.pdb
     RDKit          3D

 27 27  0  0  1  0  0  0  0  0999 V2000
   28.5917  -20.0947   -4.3572 O   0  0  0  0  0  0  0  0  0  0  0  0
   28.1441  -19.9814   -5.6620 C   0  0  0  0  0  0  0  0  0  0  0  0
   28.7694  -19.2103   -6.6155 C   0  0  0  0  0  0  0  0  0  0  0  0
   28.2879  -19.1273   -7.9037 C   0  0  0  0  0  0  0  0  0  0  0  0
   27.1611  -19.8172   -8.2760 C   0  0  0  0  0  0  0  0  0  0  0  0
   26.6616  -19.7150   -9.6552 C   0  0  0  0  0  0  0  0  0  0  0  0
   26.8246  -21.0529  -10.3869 C   0  0  2  0  0  0  0  0  0  0  0  0
   28.2272  -21.2883  -10.5132 N   0  0  0  0  0  0  0  0  0  0  0  0
   26.1727  -20.8497  -11.7264 C   0  0  0  0  0  0  0  0  0  0  0  0
   26.6310  -20.0625  -12.5922 O   0  0  0  0  0  0  0  0  0  0  0  0
   26.5204  -20.5916   -7.3459 C   0  0  0  0  0  0  0  0  0  0  0  0
   27.0185  -20.6609   -6.0629 C   0  0  0  0  0  0  0  0  0  0  0  0
   24.2650  -23.9137  -13.5233 O   0  0  0  0  0  0  0  0  0  0  0  0
   24.6486  -22.7661  -14.1852 C   0  0  0  0  0  0  0  0  0  0  0  0
   24.3932  -21.5062  -13.3957 C   0  0  2  0  0  0  0  0  0  0  0  0
   24.9843  -21.5560  -12.0761 N   0  0  0  0  0  0  0  0  0  0  0  0
   22.9412  -21.1793  -13.3278 C   0  0  0  0  0  0  0  0  0  0  0  0
   22.2397  -21.4109  -12.2930 O   0  0  0  0  0  0  0  0  0  0  0  0
   18.9670  -18.3748  -13.2793 N   0  0  0  0  0  0  0  0  0  0  0  0
   19.6343  -18.1326  -14.5237 C   0  0  0  0  0  0  0  0  0  0  0  0
   19.3774  -17.0431  -15.0798 O   0  0  0  0  0  0  0  0  0  0  0  0
   20.5603  -19.0899  -15.1194 C   0  0  0  0  0  0  0  0  0  0  0  0
   20.8077  -20.3489  -14.3350 C   0  0  2  0  0  0  0  0  0  0  0  0
   22.2547  -20.5874  -14.4191 N   0  0  0  0  0  0  0  0  0  0  0  0
   20.1274  -21.5050  -14.9220 C   0  0  0  0  0  0  0  0  0  0  0  0
   18.8809  -21.6481  -14.7279 O   0  0  0  0  0  0  0  0  0  0  0  0
   20.7269  -22.4755  -15.6850 O   0  0  0  0  0  0  0  0  0  0  0  0
  2  1  1  0
  2 12  2  0
  3  2  1  0
  4  3  2  0
  4  5  1  0
  5 11  2  0
  6  5  1  0
  7  6  1  0
  7  9  1  0
  7  8  1  6
  9 16  1  0
  9 10  2  0
 11 12  1  0
 13 14  1  0
 15 14  1  1
 15 17  1  0
 16 15  1  0
 17 18  2  0
 19 20  1  0
 20 21  2  0
 20 22  1  0
 23 22  1  6
 23 25  1  0
 24 17  1  0
 24 23  1  0
 25 26  2  0
 25 27  1  0
M  END
$$$$
