GCD.pdb
     RDKit          3D

 19 18  0  0  1  0  0  0  0  0999 V2000
   16.1034  -12.2249  -12.0827 N   0  0  0  0  0  0  0  0  0  0  0  0
   16.8762  -11.0912  -11.6519 C   0  0  0  0  0  0  0  0  0  0  0  0
   15.9746  -10.0034  -11.2533 C   0  0  0  0  0  0  0  0  0  0  0  0
   15.0651   -9.6357  -12.0239 O   0  0  0  0  0  0  0  0  0  0  0  0
   16.0736   -9.3178  -10.0029 N   0  0  0  0  0  0  0  0  0  0  0  0
   15.1794   -8.2592   -9.6269 C   0  0  1  0  0  0  0  0  0  0  0  0
   14.6070   -8.4686   -8.2352 C   0  0  0  0  0  0  0  0  0  0  0  0
   13.6451   -9.9946   -8.1412 S   0  0  0  0  0  0  0  0  0  0  0  0
   15.8456   -6.9252   -9.6848 C   0  0  0  0  0  0  0  0  0  0  0  0
   16.9956   -6.7950   -9.1919 O   0  0  0  0  0  0  0  0  0  0  0  0
   15.1808   -5.8304  -10.2889 N   0  0  0  0  0  0  0  0  0  0  0  0
   15.9046   -4.5673  -10.4059 C   0  0  1  0  0  0  0  0  0  0  0  0
   16.3208   -4.3201  -11.8358 C   0  0  0  0  0  0  0  0  0  0  0  0
   16.8851   -2.9603  -11.9365 C   0  0  0  0  0  0  0  0  0  0  0  0
   16.3822   -2.0090  -12.5561 O   0  0  0  0  0  0  0  0  0  0  0  0
   15.0851   -3.5053   -9.8176 C   0  0  0  0  0  0  0  0  0  0  0  0
   15.6275   -2.3397   -9.3090 O   0  0  0  0  0  0  0  0  0  0  0  0
   18.0970   -2.7080  -11.2777 O   0  0  0  0  0  0  0  0  0  0  0  0
   13.8259   -3.6090   -9.7464 O   0  0  0  0  0  0  0  0  0  0  0  0
  2  1  1  0
  3  2  1  0
  3  4  2  0
  5  3  1  0
  6  5  1  0
  6  7  1  1
  8  7  1  0
  9  6  1  0
 10  9  2  0
 11  9  1  0
 12 11  1  0
 12 13  1  6
 14 13  1  0
 14 15  2  0
 16 12  1  0
 17 16  1  0
 18 14  1  0
 19 16  2  0
M  END
$$$$
