GCD.pdb
     RDKit          3D

 19 18  0  0  1  0  0  0  0  0999 V2000
   17.2612  -12.3465  -17.0225 N   0  0  0  0  0  0  0  0  0  0  0  0
   16.9990  -10.9382  -16.8954 C   0  0  0  0  0  0  0  0  0  0  0  0
   18.0338  -10.3182  -16.0589 C   0  0  0  0  0  0  0  0  0  0  0  0
   17.7722   -9.9971  -14.8821 O   0  0  0  0  0  0  0  0  0  0  0  0
   19.3607  -10.0504  -16.5180 N   0  0  0  0  0  0  0  0  0  0  0  0
   20.3733   -9.4829  -15.6729 C   0  0  1  0  0  0  0  0  0  0  0  0
   21.7224  -10.1507  -15.8782 C   0  0  0  0  0  0  0  0  0  0  0  0
   22.8877   -9.6961  -14.5750 S   0  0  0  0  0  0  0  0  0  0  0  0
   20.5177   -8.0140  -15.8918 C   0  0  0  0  0  0  0  0  0  0  0  0
   20.5631   -7.5736  -17.0693 O   0  0  0  0  0  0  0  0  0  0  0  0
   20.6012   -7.1399  -14.7807 N   0  0  0  0  0  0  0  0  0  0  0  0
   20.8312   -5.7210  -15.0390 C   0  0  1  0  0  0  0  0  0  0  0  0
   19.5536   -4.9338  -14.8752 C   0  0  0  0  0  0  0  0  0  0  0  0
   19.8380   -3.5096  -15.1364 C   0  0  0  0  0  0  0  0  0  0  0  0
   20.0155   -2.6341  -14.2740 O   0  0  0  0  0  0  0  0  0  0  0  0
   21.9386   -5.2679  -14.1940 C   0  0  0  0  0  0  0  0  0  0  0  0
   22.4482   -3.9842  -14.2572 O   0  0  0  0  0  0  0  0  0  0  0  0
   19.9172   -3.0963  -16.4740 O   0  0  0  0  0  0  0  0  0  0  0  0
   22.4871   -6.0425  -13.3571 O   0  0  0  0  0  0  0  0  0  0  0  0
  2  1  1  0
  3  2  1  0
  3  4  2  0
  5  3  1  0
  6  5  1  0
  6  7  1  6
  8  7  1  0
  9  6  1  0
 10  9  2  0
 11  9  1  0
 12 11  1  0
 12 13  1  1
 14 13  1  0
 14 15  2  0
 16 12  1  0
 17 16  1  0
 18 14  1  0
 19 16  2  0
M  END
$$$$
