GCD.pdb
     RDKit          3D

 19 18  0  0  1  0  0  0  0  0999 V2000
   23.5599  -12.5448  -19.5827 N   0  0  0  0  0  0  0  0  0  0  0  0
   24.0930  -11.8320  -18.4532 C   0  0  0  0  0  0  0  0  0  0  0  0
   23.0637  -10.9422  -17.9020 C   0  0  0  0  0  0  0  0  0  0  0  0
   22.0095  -10.7417  -18.5382 O   0  0  0  0  0  0  0  0  0  0  0  0
   23.1942  -10.2708  -16.6469 N   0  0  0  0  0  0  0  0  0  0  0  0
   22.1560   -9.4441  -16.0988 C   0  0  1  0  0  0  0  0  0  0  0  0
   21.7083   -9.9294  -14.7304 C   0  0  0  0  0  0  0  0  0  0  0  0
   23.1183  -10.2059  -13.6357 S   0  0  0  0  0  0  0  0  0  0  0  0
   22.5810   -8.0174  -15.9954 C   0  0  0  0  0  0  0  0  0  0  0  0
   23.8080   -7.7494  -15.9244 O   0  0  0  0  0  0  0  0  0  0  0  0
   21.6061   -6.9904  -15.9786 N   0  0  0  0  0  0  0  0  0  0  0  0
   22.0681   -5.6050  -15.9866 C   0  0  1  0  0  0  0  0  0  0  0  0
   21.2709   -4.7812  -16.9689 C   0  0  0  0  0  0  0  0  0  0  0  0
   21.7744   -3.3944  -16.9423 C   0  0  0  0  0  0  0  0  0  0  0  0
   22.9684   -3.0543  -16.9634 O   0  0  0  0  0  0  0  0  0  0  0  0
   22.0489   -5.1003  -14.6116 C   0  0  0  0  0  0  0  0  0  0  0  0
   22.7469   -3.9726  -14.2211 O   0  0  0  0  0  0  0  0  0  0  0  0
   20.8294   -2.3597  -16.8884 O   0  0  0  0  0  0  0  0  0  0  0  0
   21.3838   -5.6828  -13.7063 O   0  0  0  0  0  0  0  0  0  0  0  0
  2  1  1  0
  3  2  1  0
  3  4  2  0
  5  3  1  0
  6  5  1  0
  6  7  1  1
  8  7  1  0
  9  6  1  0
 10  9  2  0
 11  9  1  0
 12 11  1  0
 12 13  1  6
 14 13  1  0
 14 15  2  0
 16 12  1  0
 17 16  1  0
 18 14  1  0
 19 16  2  0
M  END
$$$$
