GCD.pdb
     RDKit          3D

 19 18  0  0  1  0  0  0  0  0999 V2000
   14.7267   -9.1708   -9.3629 N   0  0  0  0  0  0  0  0  0  0  0  0
   15.8873   -9.4667  -10.1589 C   0  0  0  0  0  0  0  0  0  0  0  0
   16.4318   -8.2229  -10.7171 C   0  0  0  0  0  0  0  0  0  0  0  0
   15.6618   -7.3697  -11.2022 O   0  0  0  0  0  0  0  0  0  0  0  0
   17.8277   -7.9166  -10.7418 N   0  0  0  0  0  0  0  0  0  0  0  0
   18.3399   -6.6768  -11.2539 C   0  0  1  0  0  0  0  0  0  0  0  0
   19.5476   -6.1948  -10.4680 C   0  0  0  0  0  0  0  0  0  0  0  0
   19.0628   -5.5163   -8.8657 S   0  0  0  0  0  0  0  0  0  0  0  0
   18.7073   -6.7832  -12.6962 C   0  0  0  0  0  0  0  0  0  0  0  0
   19.4125   -7.7529  -13.0768 O   0  0  0  0  0  0  0  0  0  0  0  0
   18.2614   -5.7996  -13.6123 N   0  0  0  0  0  0  0  0  0  0  0  0
   18.5953   -5.9737  -15.0233 C   0  0  1  0  0  0  0  0  0  0  0  0
   17.3476   -5.9638  -15.8731 C   0  0  0  0  0  0  0  0  0  0  0  0
   17.7390   -6.0866  -17.2906 C   0  0  0  0  0  0  0  0  0  0  0  0
   17.6279   -5.2015  -18.1543 O   0  0  0  0  0  0  0  0  0  0  0  0
   19.5923   -4.9663  -15.3932 C   0  0  0  0  0  0  0  0  0  0  0  0
   20.4911   -5.1510  -16.4274 O   0  0  0  0  0  0  0  0  0  0  0  0
   18.2864   -7.3071  -17.7114 O   0  0  0  0  0  0  0  0  0  0  0  0
   19.6776   -3.8665  -14.7732 O   0  0  0  0  0  0  0  0  0  0  0  0
  2  1  1  0
  3  2  1  0
  3  4  2  0
  5  3  1  0
  6  5  1  0
  6  7  1  1
  8  7  1  0
  9  6  1  0
 10  9  2  0
 11  9  1  0
 12 11  1  0
 12 13  1  6
 14 13  1  0
 14 15  2  0
 16 12  1  0
 17 16  1  0
 18 14  1  0
 19 16  2  0
M  END
$$$$
