GCD.pdb
     RDKit          3D

 19 18  0  0  1  0  0  0  0  0999 V2000
   23.1455  -12.1042  -17.5978 N   0  0  0  0  0  0  0  0  0  0  0  0
   23.3629  -10.7437  -18.0101 C   0  0  0  0  0  0  0  0  0  0  0  0
   22.2629   -9.9007  -17.5259 C   0  0  0  0  0  0  0  0  0  0  0  0
   21.5250   -9.3122  -18.3417 O   0  0  0  0  0  0  0  0  0  0  0  0
   21.9736   -9.7042  -16.1399 N   0  0  0  0  0  0  0  0  0  0  0  0
   20.8838   -8.8880  -15.6841 C   0  0  1  0  0  0  0  0  0  0  0  0
   20.1407   -9.5307  -14.5251 C   0  0  0  0  0  0  0  0  0  0  0  0
   19.4954  -11.1563  -14.9767 S   0  0  0  0  0  0  0  0  0  0  0  0
   21.3437   -7.5287  -15.2749 C   0  0  0  0  0  0  0  0  0  0  0  0
   22.3348   -7.4248  -14.5073 O   0  0  0  0  0  0  0  0  0  0  0  0
   20.6646   -6.3811  -15.7517 N   0  0  0  0  0  0  0  0  0  0  0  0
   21.2376   -5.0711  -15.4541 C   0  0  1  0  0  0  0  0  0  0  0  0
   21.0361   -4.1238  -16.6121 C   0  0  0  0  0  0  0  0  0  0  0  0
   21.6370   -2.8208  -16.2681 C   0  0  0  0  0  0  0  0  0  0  0  0
   22.6702   -2.6506  -15.6007 O   0  0  0  0  0  0  0  0  0  0  0  0
   20.6879   -4.6015  -14.1801 C   0  0  0  0  0  0  0  0  0  0  0  0
   19.7731   -5.3344  -13.4470 O   0  0  0  0  0  0  0  0  0  0  0  0
   20.9928   -1.6643  -16.7307 O   0  0  0  0  0  0  0  0  0  0  0  0
   21.0300   -3.4876  -13.6867 O   0  0  0  0  0  0  0  0  0  0  0  0
  2  1  1  0
  3  2  1  0
  3  4  2  0
  5  3  1  0
  6  5  1  0
  6  7  1  1
  8  7  1  0
  9  6  1  0
 10  9  2  0
 11  9  1  0
 12 11  1  0
 12 13  1  6
 14 13  1  0
 14 15  2  0
 16 12  1  0
 17 16  1  0
 18 14  1  0
 19 16  2  0
M  END
$$$$
