GCD.pdb
     RDKit          3D

 19 18  0  0  1  0  0  0  0  0999 V2000
   28.3855  -21.6738  -15.4017 N   0  0  0  0  0  0  0  0  0  0  0  0
   27.7051  -20.6074  -14.7176 C   0  0  0  0  0  0  0  0  0  0  0  0
   26.5888  -21.1559  -13.9377 C   0  0  0  0  0  0  0  0  0  0  0  0
   25.9807  -22.1651  -14.3475 O   0  0  0  0  0  0  0  0  0  0  0  0
   26.1399  -20.5926  -12.7031 N   0  0  0  0  0  0  0  0  0  0  0  0
   25.0108  -21.1083  -11.9814 C   0  0  1  0  0  0  0  0  0  0  0  0
   25.0109  -20.6561  -10.5309 C   0  0  0  0  0  0  0  0  0  0  0  0
   26.4241  -21.3307   -9.6306 S   0  0  0  0  0  0  0  0  0  0  0  0
   23.7200  -20.7114  -12.6160 C   0  0  0  0  0  0  0  0  0  0  0  0
   23.5485  -19.5115  -12.9527 O   0  0  0  0  0  0  0  0  0  0  0  0
   22.7113  -21.6820  -12.8302 N   0  0  0  0  0  0  0  0  0  0  0  0
   21.5067  -21.2737  -13.5477 C   0  0  1  0  0  0  0  0  0  0  0  0
   20.9966  -22.3965  -14.4185 C   0  0  0  0  0  0  0  0  0  0  0  0
   19.7639  -21.9488  -15.0948 C   0  0  0  0  0  0  0  0  0  0  0  0
   18.6036  -22.1734  -14.7138 O   0  0  0  0  0  0  0  0  0  0  0  0
   20.5351  -20.7674  -12.5754 C   0  0  0  0  0  0  0  0  0  0  0  0
   19.6184  -19.7791  -12.8824 O   0  0  0  0  0  0  0  0  0  0  0  0
   19.9024  -21.2022  -16.2737 O   0  0  0  0  0  0  0  0  0  0  0  0
   20.4914  -21.2175  -11.3936 O   0  0  0  0  0  0  0  0  0  0  0  0
  2  1  1  0
  3  2  1  0
  3  4  2  0
  5  3  1  0
  6  5  1  0
  6  7  1  1
  8  7  1  0
  9  6  1  0
 10  9  2  0
 11  9  1  0
 12 11  1  0
 12 13  1  1
 14 13  1  0
 14 15  2  0
 16 12  1  0
 17 16  1  0
 18 14  1  0
 19 16  2  0
M  END
$$$$
