GCD.pdb
     RDKit          3D

 19 18  0  0  1  0  0  0  0  0999 V2000
   22.5406  -20.4632  -16.3254 N   0  0  0  0  0  0  0  0  0  0  0  0
   23.6801  -19.7655  -16.8572 C   0  0  0  0  0  0  0  0  0  0  0  0
   23.7835  -18.4419  -16.2306 C   0  0  0  0  0  0  0  0  0  0  0  0
   22.8440  -18.0089  -15.5335 O   0  0  0  0  0  0  0  0  0  0  0  0
   24.9240  -17.5918  -16.3713 N   0  0  0  0  0  0  0  0  0  0  0  0
   24.9564  -16.2487  -15.8647 C   0  0  1  0  0  0  0  0  0  0  0  0
   26.3441  -15.8570  -15.3859 C   0  0  0  0  0  0  0  0  0  0  0  0
   26.8450  -16.8317  -13.9500 S   0  0  0  0  0  0  0  0  0  0  0  0
   24.4954  -15.2614  -16.8841 C   0  0  0  0  0  0  0  0  0  0  0  0
   24.8885  -15.3823  -18.0729 O   0  0  0  0  0  0  0  0  0  0  0  0
   23.6278  -14.2084  -16.5046 N   0  0  0  0  0  0  0  0  0  0  0  0
   23.1151  -13.3296  -17.5523 C   0  0  1  0  0  0  0  0  0  0  0  0
   21.9578  -12.5063  -17.0407 C   0  0  0  0  0  0  0  0  0  0  0  0
   21.4386  -11.6800  -18.1475 C   0  0  0  0  0  0  0  0  0  0  0  0
   21.6137  -10.4586  -18.2866 O   0  0  0  0  0  0  0  0  0  0  0  0
   24.2302  -12.5459  -18.0890 C   0  0  0  0  0  0  0  0  0  0  0  0
   24.2372  -12.0440  -19.3771 O   0  0  0  0  0  0  0  0  0  0  0  0
   20.6781  -12.3202  -19.1366 O   0  0  0  0  0  0  0  0  0  0  0  0
   25.2522  -12.2903  -17.3879 O   0  0  0  0  0  0  0  0  0  0  0  0
  2  1  1  0
  3  2  1  0
  3  4  2  0
  5  3  1  0
  6  5  1  0
  6  7  1  6
  8  7  1  0
  9  6  1  0
 10  9  2  0
 11  9  1  0
 12 11  1  0
 12 13  1  1
 14 13  1  0
 14 15  2  0
 16 12  1  0
 17 16  1  0
 18 14  1  0
 19 16  2  0
M  END
$$$$
