GCD.pdb
     RDKit          3D

 19 18  0  0  1  0  0  0  0  0999 V2000
   27.1403  -35.0684   -6.4747 N   0  0  0  0  0  0  0  0  0  0  0  0
   28.3344  -34.2674   -6.4450 C   0  0  0  0  0  0  0  0  0  0  0  0
   29.2936  -34.8484   -5.4977 C   0  0  0  0  0  0  0  0  0  0  0  0
   28.9623  -35.8274   -4.7991 O   0  0  0  0  0  0  0  0  0  0  0  0
   30.6216  -34.3510   -5.3182 N   0  0  0  0  0  0  0  0  0  0  0  0
   31.5427  -34.9234   -4.3771 C   0  0  1  0  0  0  0  0  0  0  0  0
   32.9599  -34.4201   -4.5935 C   0  0  0  0  0  0  0  0  0  0  0  0
   33.4476  -34.5505   -6.3278 S   0  0  0  0  0  0  0  0  0  0  0  0
   31.1370  -34.6478   -2.9678 C   0  0  0  0  0  0  0  0  0  0  0  0
   30.4771  -33.6072   -2.7147 O   0  0  0  0  0  0  0  0  0  0  0  0
   31.4967  -35.5535   -1.9402 N   0  0  0  0  0  0  0  0  0  0  0  0
   30.9372  -35.3383   -0.6085 C   0  0  1  0  0  0  0  0  0  0  0  0
   29.4286  -35.3723   -0.6504 C   0  0  0  0  0  0  0  0  0  0  0  0
   28.9139  -35.2648    0.7284 C   0  0  0  0  0  0  0  0  0  0  0  0
   29.2829  -34.4392    1.5793 O   0  0  0  0  0  0  0  0  0  0  0  0
   31.5431  -36.3033    0.3121 C   0  0  0  0  0  0  0  0  0  0  0  0
   31.9647  -37.5564   -0.0921 O   0  0  0  0  0  0  0  0  0  0  0  0
   27.9192  -36.1704    1.1245 O   0  0  0  0  0  0  0  0  0  0  0  0
   31.7092  -36.0297    1.5363 O   0  0  0  0  0  0  0  0  0  0  0  0
  2  1  1  0
  3  2  1  0
  3  4  2  0
  5  3  1  0
  6  5  1  0
  6  7  1  6
  8  7  1  0
  9  6  1  0
 10  9  2  0
 11  9  1  0
 12 11  1  0
 12 13  1  6
 14 13  1  0
 14 15  2  0
 16 12  1  0
 17 16  1  0
 18 14  1  0
 19 16  2  0
M  END
$$$$
