GCD.pdb
     RDKit          3D

 19 18  0  0  1  0  0  0  0  0999 V2000
   20.7333  -10.9847  -17.2841 N   0  0  0  0  0  0  0  0  0  0  0  0
   20.0702   -9.7832  -17.7142 C   0  0  0  0  0  0  0  0  0  0  0  0
   19.8440   -8.9053  -16.5595 C   0  0  0  0  0  0  0  0  0  0  0  0
   18.7702   -8.2786  -16.4558 O   0  0  0  0  0  0  0  0  0  0  0  0
   20.8017   -8.7161  -15.5155 N   0  0  0  0  0  0  0  0  0  0  0  0
   20.5912   -7.8037  -14.4270 C   0  0  1  0  0  0  0  0  0  0  0  0
   21.2756   -8.2726  -13.1542 C   0  0  0  0  0  0  0  0  0  0  0  0
   20.1094   -8.3756  -11.7786 S   0  0  0  0  0  0  0  0  0  0  0  0
   21.0658   -6.4283  -14.7578 C   0  0  0  0  0  0  0  0  0  0  0  0
   22.1915   -6.2848  -15.3006 O   0  0  0  0  0  0  0  0  0  0  0  0
   20.2502   -5.3097  -14.4595 N   0  0  0  0  0  0  0  0  0  0  0  0
   20.6807   -3.9988  -14.9379 C   0  0  1  0  0  0  0  0  0  0  0  0
   19.5089   -3.2157  -15.4788 C   0  0  0  0  0  0  0  0  0  0  0  0
   19.9850   -1.8863  -15.9074 C   0  0  0  0  0  0  0  0  0  0  0  0
   20.9862   -1.6640  -16.6073 O   0  0  0  0  0  0  0  0  0  0  0  0
   21.4164   -3.3296  -13.8624 C   0  0  0  0  0  0  0  0  0  0  0  0
   22.1949   -2.2075  -14.0772 O   0  0  0  0  0  0  0  0  0  0  0  0
   19.2491   -0.7667  -15.4936 O   0  0  0  0  0  0  0  0  0  0  0  0
   21.3725   -3.7552  -12.6716 O   0  0  0  0  0  0  0  0  0  0  0  0
  2  1  1  0
  3  2  1  0
  3  4  2  0
  5  3  1  0
  6  5  1  0
  6  7  1  1
  8  7  1  0
  9  6  1  0
 10  9  2  0
 11  9  1  0
 12 11  1  0
 12 13  1  1
 14 13  1  0
 14 15  2  0
 16 12  1  0
 17 16  1  0
 18 14  1  0
 19 16  2  0
M  END
$$$$
