NAP.pdb
     RDKit          3D

 21 21  0  0  1  0  0  0  0  0999 V2000
   20.1102  -11.5439  -21.2698 N   0  0  0  0  0  0  0  0  0  0  0  0
   19.1346  -11.7953  -20.2911 C   0  0  0  0  0  0  0  0  0  0  0  0
   18.1311  -12.4999  -20.5444 O   0  0  0  0  0  0  0  0  0  0  0  0
   19.2354  -11.2414  -18.9010 C   0  0  0  0  0  0  0  0  0  0  0  0
   20.1497  -12.0992  -18.0957 C   0  0  2  0  0  0  0  0  0  0  0  0
   19.4205  -13.3125  -17.6987 N   0  0  0  0  0  0  0  0  0  0  0  0
   20.6033  -11.4320  -16.8674 C   0  0  0  0  0  0  0  0  0  0  0  0
   19.7888  -11.1337  -15.9493 O   0  0  0  0  0  0  0  0  0  0  0  0
   23.8908  -10.3067  -15.3951 C   0  0  0  0  0  0  0  0  0  0  0  0
   22.3541  -10.3115  -15.4593 C   0  0  2  0  0  0  0  0  0  0  0  0
   21.9751  -11.0717  -16.6070 N   0  0  0  0  0  0  0  0  0  0  0  0
   21.8068   -8.9771  -15.2981 C   0  0  0  0  0  0  0  0  0  0  0  0
   21.4158   -8.3668  -16.3890 O   0  0  0  0  0  0  0  0  0  0  0  0
   21.6179   -8.1980  -14.1411 N   0  0  0  0  0  0  0  0  0  0  0  0
   21.8744   -8.5259  -12.7823 C   0  0  0  0  0  0  0  0  0  0  0  0
   20.5951   -8.0155  -12.1040 C   0  0  0  0  0  0  0  0  0  0  0  0
   20.1657   -6.8426  -12.9250 C   0  0  0  0  0  0  0  0  0  0  0  0
   21.0907   -6.8185  -14.0846 C   0  0  1  0  0  0  0  0  0  0  0  0
   22.1689   -5.8396  -13.8782 C   0  0  0  0  0  0  0  0  0  0  0  0
   21.9258   -4.4765  -13.9826 O   0  0  0  0  0  0  0  0  0  0  0  0
   23.3403   -6.1934  -13.6021 O   0  0  0  0  0  0  0  0  0  0  0  0
  2  3  2  0
  2  1  1  0
  4  2  1  0
  5  4  1  0
  5  6  1  1
  5  7  1  0
  7  8  2  0
 10  9  1  6
 10 12  1  0
 11  7  1  0
 11 10  1  0
 12 14  1  0
 13 12  2  0
 14 15  1  0
 14 18  1  0
 15 16  1  0
 16 17  1  0
 18 17  1  0
 19 20  1  0
 18 19  1  1
 21 19  2  0
M  END
$$$$
