NAP.pdb
     RDKit          3D

 21 21  0  0  1  0  0  0  0  0999 V2000
   20.9940  -13.9545  -20.4308 N   0  0  0  0  0  0  0  0  0  0  0  0
   21.4253  -12.6295  -20.2540 C   0  0  0  0  0  0  0  0  0  0  0  0
   22.4527  -12.2019  -20.8278 O   0  0  0  0  0  0  0  0  0  0  0  0
   20.6898  -11.6595  -19.3781 C   0  0  0  0  0  0  0  0  0  0  0  0
   21.6061  -11.1699  -18.3100 C   0  0  2  0  0  0  0  0  0  0  0  0
   21.8287  -12.2619  -17.3510 N   0  0  0  0  0  0  0  0  0  0  0  0
   21.0412  -10.0349  -17.5668 C   0  0  0  0  0  0  0  0  0  0  0  0
   20.8695   -8.9135  -18.1220 O   0  0  0  0  0  0  0  0  0  0  0  0
   19.5947   -9.4486  -14.1321 C   0  0  0  0  0  0  0  0  0  0  0  0
   20.1282   -8.9604  -15.4895 C   0  0  2  0  0  0  0  0  0  0  0  0
   20.6427  -10.0979  -16.1824 N   0  0  0  0  0  0  0  0  0  0  0  0
   20.9781   -7.7932  -15.3429 C   0  0  0  0  0  0  0  0  0  0  0  0
   22.2650   -7.9803  -15.4988 O   0  0  0  0  0  0  0  0  0  0  0  0
   20.6540   -6.4547  -15.0518 N   0  0  0  0  0  0  0  0  0  0  0  0
   19.3781   -5.8551  -14.8728 C   0  0  0  0  0  0  0  0  0  0  0  0
   19.5297   -4.5735  -15.7046 C   0  0  0  0  0  0  0  0  0  0  0  0
   20.9763   -4.2132  -15.5964 C   0  0  0  0  0  0  0  0  0  0  0  0
   21.6050   -5.3393  -14.8633 C   0  0  1  0  0  0  0  0  0  0  0  0
   21.7736   -5.0122  -13.4392 C   0  0  0  0  0  0  0  0  0  0  0  0
   21.0442   -5.6769  -12.4623 O   0  0  0  0  0  0  0  0  0  0  0  0
   22.5754   -4.1280  -13.0535 O   0  0  0  0  0  0  0  0  0  0  0  0
  2  3  2  0
  2  1  1  0
  4  2  1  0
  5  4  1  0
  5  6  1  1
  5  7  1  0
  7  8  2  0
 10  9  1  1
 10 12  1  0
 11  7  1  0
 11 10  1  0
 12 14  1  0
 13 12  2  0
 14 15  1  0
 14 18  1  0
 15 16  1  0
 16 17  1  0
 18 17  1  0
 19 20  1  0
 18 19  1  1
 21 19  2  0
M  END
$$$$
