NAP.pdb
     RDKit          3D

 21 21  0  0  1  0  0  0  0  0999 V2000
   30.9411  -25.8045  -16.9733 N   0  0  0  0  0  0  0  0  0  0  0  0
   30.7449  -24.5462  -17.5656 C   0  0  0  0  0  0  0  0  0  0  0  0
   30.8345  -24.3939  -18.8052 O   0  0  0  0  0  0  0  0  0  0  0  0
   30.4201  -23.3245  -16.7586 C   0  0  0  0  0  0  0  0  0  0  0  0
   28.9570  -23.0553  -16.8422 C   0  0  2  0  0  0  0  0  0  0  0  0
   28.6952  -22.2807  -18.0641 N   0  0  0  0  0  0  0  0  0  0  0  0
   28.4688  -22.2657  -15.7030 C   0  0  0  0  0  0  0  0  0  0  0  0
   28.4788  -22.7374  -14.5314 O   0  0  0  0  0  0  0  0  0  0  0  0
   27.0972  -18.7923  -15.1468 C   0  0  0  0  0  0  0  0  0  0  0  0
   27.3661  -20.2416  -14.7077 C   0  0  2  0  0  0  0  0  0  0  0  0
   27.9531  -20.9238  -15.8162 N   0  0  0  0  0  0  0  0  0  0  0  0
   26.2062  -20.8306  -14.0646 C   0  0  0  0  0  0  0  0  0  0  0  0
   25.4894  -21.6551  -14.7869 O   0  0  0  0  0  0  0  0  0  0  0  0
   25.6985  -20.6659  -12.7620 N   0  0  0  0  0  0  0  0  0  0  0  0
   26.1629  -19.8265  -11.7136 C   0  0  0  0  0  0  0  0  0  0  0  0
   26.1158  -20.7874  -10.5170 C   0  0  0  0  0  0  0  0  0  0  0  0
   24.9775  -21.7109  -10.8093 C   0  0  0  0  0  0  0  0  0  0  0  0
   24.5295  -21.3566  -12.1785 C   0  0  1  0  0  0  0  0  0  0  0  0
   23.3517  -20.4766  -12.1364 C   0  0  0  0  0  0  0  0  0  0  0  0
   22.0832  -20.9915  -11.9042 O   0  0  0  0  0  0  0  0  0  0  0  0
   23.4448  -19.2374  -12.3068 O   0  0  0  0  0  0  0  0  0  0  0  0
  2  3  2  0
  2  1  1  0
  4  2  1  0
  5  4  1  0
  5  6  1  6
  5  7  1  0
  7  8  2  0
 10  9  1  6
 10 12  1  0
 11  7  1  0
 11 10  1  0
 12 14  1  0
 13 12  2  0
 14 15  1  0
 14 18  1  0
 15 16  1  0
 16 17  1  0
 18 17  1  0
 19 20  1  0
 18 19  1  1
 21 19  2  0
M  END
$$$$
