NAP.pdb
     RDKit          3D

 21 21  0  0  1  0  0  0  0  0999 V2000
   16.6410  -16.2536  -17.8427 N   0  0  0  0  0  0  0  0  0  0  0  0
   16.6427  -15.6146  -16.5919 C   0  0  0  0  0  0  0  0  0  0  0  0
   15.6040  -15.5540  -15.8954 O   0  0  0  0  0  0  0  0  0  0  0  0
   17.8737  -14.9745  -16.0228 C   0  0  0  0  0  0  0  0  0  0  0  0
   18.9950  -15.1172  -16.9936 C   0  0  2  0  0  0  0  0  0  0  0  0
   19.5475  -16.4741  -16.8706 N   0  0  0  0  0  0  0  0  0  0  0  0
   20.0858  -14.1683  -16.7300 C   0  0  0  0  0  0  0  0  0  0  0  0
   20.7260  -14.1978  -15.6416 O   0  0  0  0  0  0  0  0  0  0  0  0
   21.8800  -11.4524  -18.6406 C   0  0  0  0  0  0  0  0  0  0  0  0
   21.5691  -12.2426  -17.3582 C   0  0  2  0  0  0  0  0  0  0  0  0
   20.5112  -13.1525  -17.6608 N   0  0  0  0  0  0  0  0  0  0  0  0
   21.4248  -11.3663  -16.2105 C   0  0  0  0  0  0  0  0  0  0  0  0
   20.2125  -11.2089  -15.7403 O   0  0  0  0  0  0  0  0  0  0  0  0
   22.3868  -10.6314  -15.4922 N   0  0  0  0  0  0  0  0  0  0  0  0
   23.7765  -10.4769  -15.7459 C   0  0  0  0  0  0  0  0  0  0  0  0
   24.3621  -10.6785  -14.3410 C   0  0  0  0  0  0  0  0  0  0  0  0
   23.3155  -10.1580  -13.4094 C   0  0  0  0  0  0  0  0  0  0  0  0
   22.1532   -9.8317  -14.2715 C   0  0  1  0  0  0  0  0  0  0  0  0
   22.1080   -8.3927  -14.5726 C   0  0  0  0  0  0  0  0  0  0  0  0
   21.5938   -7.4866  -13.6547 O   0  0  0  0  0  0  0  0  0  0  0  0
   22.5281   -7.9306  -15.6604 O   0  0  0  0  0  0  0  0  0  0  0  0
  2  3  2  0
  2  1  1  0
  4  2  1  0
  5  4  1  0
  5  6  1  1
  5  7  1  0
  7  8  2  0
 10  9  1  6
 10 12  1  0
 11  7  1  0
 11 10  1  0
 12 14  1  0
 13 12  2  0
 14 15  1  0
 14 18  1  0
 15 16  1  0
 16 17  1  0
 18 17  1  0
 19 20  1  0
 18 19  1  6
 21 19  2  0
M  END
$$$$
