NAP.pdb
     RDKit          3D

 21 21  0  0  1  0  0  0  0  0999 V2000
   18.7923  -19.1118  -16.6109 N   0  0  0  0  0  0  0  0  0  0  0  0
   20.0260  -18.6062  -16.1694 C   0  0  0  0  0  0  0  0  0  0  0  0
   20.2130  -17.3744  -16.0453 O   0  0  0  0  0  0  0  0  0  0  0  0
   21.1793  -19.5007  -15.8243 C   0  0  0  0  0  0  0  0  0  0  0  0
   22.3636  -19.1120  -16.6406 C   0  0  2  0  0  0  0  0  0  0  0  0
   22.3161  -19.8505  -17.9110 N   0  0  0  0  0  0  0  0  0  0  0  0
   23.6321  -19.4481  -15.9791 C   0  0  0  0  0  0  0  0  0  0  0  0
   23.9254  -20.6451  -15.7024 O   0  0  0  0  0  0  0  0  0  0  0  0
   26.4784  -17.4912  -14.4498 C   0  0  0  0  0  0  0  0  0  0  0  0
   25.6983  -18.7902  -14.7136 C   0  0  2  0  0  0  0  0  0  0  0  0
   24.6252  -18.4734  -15.6006 N   0  0  0  0  0  0  0  0  0  0  0  0
   25.3962  -19.4937  -13.4808 C   0  0  0  0  0  0  0  0  0  0  0  0
   24.1452  -19.4887  -13.0931 O   0  0  0  0  0  0  0  0  0  0  0  0
   26.2362  -20.2007  -12.6000 N   0  0  0  0  0  0  0  0  0  0  0  0
   27.6544  -20.2891  -12.5837 C   0  0  0  0  0  0  0  0  0  0  0  0
   27.8585  -21.7958  -12.3708 C   0  0  0  0  0  0  0  0  0  0  0  0
   26.6866  -22.2312  -11.5515 C   0  0  0  0  0  0  0  0  0  0  0  0
   25.8107  -21.0374  -11.4585 C   0  0  1  0  0  0  0  0  0  0  0  0
   26.0059  -20.3392  -10.1787 C   0  0  0  0  0  0  0  0  0  0  0  0
   25.3629  -20.7686   -9.0253 O   0  0  0  0  0  0  0  0  0  0  0  0
   26.7541  -19.3374  -10.0785 O   0  0  0  0  0  0  0  0  0  0  0  0
  2  3  2  0
  2  1  1  0
  4  2  1  0
  5  4  1  0
  5  6  1  6
  5  7  1  0
  7  8  2  0
 10  9  1  1
 10 12  1  0
 11  7  1  0
 11 10  1  0
 12 14  1  0
 13 12  2  0
 14 15  1  0
 14 18  1  0
 15 16  1  0
 16 17  1  0
 18 17  1  0
 19 20  1  0
 18 19  1  1
 21 19  2  0
M  END
$$$$
