NAP.pdb
     RDKit          3D

 21 21  0  0  1  0  0  0  0  0999 V2000
   30.7041  -30.7007  -19.7922 N   0  0  0  0  0  0  0  0  0  0  0  0
   30.5819  -30.4842  -18.4098 C   0  0  0  0  0  0  0  0  0  0  0  0
   31.4650  -29.8678  -17.7713 O   0  0  0  0  0  0  0  0  0  0  0  0
   29.4006  -30.9726  -17.6255 C   0  0  0  0  0  0  0  0  0  0  0  0
   29.0264  -29.9470  -16.6113 C   0  0  2  0  0  0  0  0  0  0  0  0
   27.9256  -30.4794  -15.7950 N   0  0  0  0  0  0  0  0  0  0  0  0
   28.5582  -28.6977  -17.2274 C   0  0  0  0  0  0  0  0  0  0  0  0
   29.3501  -27.9501  -17.8673 O   0  0  0  0  0  0  0  0  0  0  0  0
   25.2763  -27.1277  -18.0696 C   0  0  0  0  0  0  0  0  0  0  0  0
   26.7826  -27.0113  -17.7815 C   0  0  2  0  0  0  0  0  0  0  0  0
   27.1960  -28.2291  -17.1611 N   0  0  0  0  0  0  0  0  0  0  0  0
   27.1085  -25.7551  -17.1320 C   0  0  0  0  0  0  0  0  0  0  0  0
   27.4451  -25.8175  -15.8678 O   0  0  0  0  0  0  0  0  0  0  0  0
   27.1253  -24.4408  -17.6355 N   0  0  0  0  0  0  0  0  0  0  0  0
   26.7998  -23.9700  -18.9362 C   0  0  0  0  0  0  0  0  0  0  0  0
   27.9628  -23.0046  -19.2055 C   0  0  0  0  0  0  0  0  0  0  0  0
   28.3304  -22.4606  -17.8627 C   0  0  0  0  0  0  0  0  0  0  0  0
   27.5005  -23.2185  -16.8943 C   0  0  1  0  0  0  0  0  0  0  0  0
   26.3138  -22.4448  -16.4987 C   0  0  0  0  0  0  0  0  0  0  0  0
   26.3995  -21.4471  -15.5367 O   0  0  0  0  0  0  0  0  0  0  0  0
   25.1872  -22.6530  -17.0096 O   0  0  0  0  0  0  0  0  0  0  0  0
  2  3  2  0
  2  1  1  0
  4  2  1  0
  5  4  1  0
  5  6  1  1
  5  7  1  0
  7  8  2  0
 10  9  1  1
 10 12  1  0
 11  7  1  0
 11 10  1  0
 12 14  1  0
 13 12  2  0
 14 15  1  0
 14 18  1  0
 15 16  1  0
 16 17  1  0
 18 17  1  0
 19 20  1  0
 18 19  1  6
 21 19  2  0
M  END
$$$$
