NAP.pdb
     RDKit          3D

 21 21  0  0  1  0  0  0  0  0999 V2000
   18.9827  -14.2653  -16.4034 N   0  0  0  0  0  0  0  0  0  0  0  0
   20.1501  -13.4870  -16.4682 C   0  0  0  0  0  0  0  0  0  0  0  0
   21.2662  -14.0119  -16.6835 O   0  0  0  0  0  0  0  0  0  0  0  0
   20.1297  -11.9985  -16.2855 C   0  0  0  0  0  0  0  0  0  0  0  0
   18.7626  -11.5730  -15.8731 C   0  0  2  0  0  0  0  0  0  0  0  0
   17.8578  -11.7380  -17.0201 N   0  0  0  0  0  0  0  0  0  0  0  0
   18.7154  -10.1606  -15.4702 C   0  0  0  0  0  0  0  0  0  0  0  0
   18.8532   -9.2359  -16.3195 O   0  0  0  0  0  0  0  0  0  0  0  0
   18.1499   -8.2352  -12.2702 C   0  0  0  0  0  0  0  0  0  0  0  0
   18.5346   -8.3350  -13.7560 C   0  0  2  0  0  0  0  0  0  0  0  0
   18.5118   -9.7173  -14.1131 N   0  0  0  0  0  0  0  0  0  0  0  0
   19.7245   -7.5598  -14.0548 C   0  0  0  0  0  0  0  0  0  0  0  0
   20.8229   -8.2349  -14.2853 O   0  0  0  0  0  0  0  0  0  0  0  0
   19.9130   -6.1675  -14.1414 N   0  0  0  0  0  0  0  0  0  0  0  0
   18.9655   -5.1190  -13.9918 C   0  0  0  0  0  0  0  0  0  0  0  0
   19.3241   -4.2187  -15.1826 C   0  0  0  0  0  0  0  0  0  0  0  0
   20.7961   -4.3974  -15.3710 C   0  0  0  0  0  0  0  0  0  0  0  0
   21.1842   -5.4665  -14.4184 C   0  0  1  0  0  0  0  0  0  0  0  0
   21.7609   -4.8953  -13.1918 C   0  0  0  0  0  0  0  0  0  0  0  0
   23.0953   -4.5147  -13.1398 O   0  0  0  0  0  0  0  0  0  0  0  0
   21.0771   -4.7306  -12.1532 O   0  0  0  0  0  0  0  0  0  0  0  0
  2  3  2  0
  2  1  1  0
  4  2  1  0
  5  4  1  0
  5  6  1  6
  5  7  1  0
  7  8  2  0
 10  9  1  1
 10 12  1  0
 11  7  1  0
 11 10  1  0
 12 14  1  0
 13 12  2  0
 14 15  1  0
 14 18  1  0
 15 16  1  0
 16 17  1  0
 18 17  1  0
 19 20  1  0
 18 19  1  1
 21 19  2  0
M  END
$$$$
