AVL.pdb
     RDKit          3D

 21 20  0  0  1  0  0  0  0  0999 V2000
   24.8613  -15.0959  -18.6852 C   0  0  0  0  0  0  0  0  0  0  0  0
   23.5800  -15.0166  -19.5269 C   0  0  2  0  0  0  0  0  0  0  0  0
   23.9941  -15.1145  -20.8998 N   0  0  0  0  0  0  0  0  0  0  0  0
   22.8789  -13.7330  -19.2798 C   0  0  0  0  0  0  0  0  0  0  0  0
   23.2167  -12.6712  -19.8638 O   0  0  0  0  0  0  0  0  0  0  0  0
   19.0382  -13.3758  -19.1101 C   0  0  0  0  0  0  0  0  0  0  0  0
   19.6185  -12.8799  -17.8013 C   0  0  2  0  0  0  0  0  0  0  0  0
   18.9027  -11.6065  -17.3993 C   0  0  0  0  0  0  0  0  0  0  0  0
   21.0667  -12.5242  -18.0261 C   0  0  2  0  0  0  0  0  0  0  0  0
   21.8001  -13.7057  -18.3605 N   0  0  0  0  0  0  0  0  0  0  0  0
   21.6788  -11.9204  -16.8013 C   0  0  0  0  0  0  0  0  0  0  0  0
   22.1093  -12.6489  -15.8693 O   0  0  0  0  0  0  0  0  0  0  0  0
   25.1159  -10.5995  -13.6107 C   0  0  0  0  0  0  0  0  0  0  0  0
   25.0871   -9.8258  -14.9203 C   0  0  1  0  0  0  0  0  0  0  0  0
   26.5130   -9.8371  -15.4986 C   0  0  0  0  0  0  0  0  0  0  0  0
   24.1192  -10.4092  -15.8997 C   0  0  0  0  0  0  0  0  0  0  0  0
   22.7501   -9.8940  -15.7003 C   0  0  2  0  0  0  0  0  0  0  0  0
   21.8001  -10.5155  -16.6370 N   0  0  0  0  0  0  0  0  0  0  0  0
   22.5944   -8.4321  -15.7101 C   0  0  0  0  0  0  0  0  0  0  0  0
   22.4277   -7.7873  -16.7465 O   0  0  0  0  0  0  0  0  0  0  0  0
   22.6384   -7.7524  -14.5076 O   0  0  0  0  0  0  0  0  0  0  0  0
  2  1  1  1
  3  2  1  0
  4  5  2  0
  4  2  1  0
  7  6  1  6
  7  9  1  0
  8  7  1  0
  9 11  1  0
  9 10  1  1
 10  4  1  0
 11 18  1  0
 12 11  2  0
 14 15  1  6
 14 13  1  0
 16 14  1  0
 17 16  1  6
 18 17  1  0
 19 21  1  0
 19 17  1  0
 20 19  2  0
M  END
$$$$
