AVL.pdb
     RDKit          3D

 21 20  0  0  1  0  0  0  0  0999 V2000
   27.4563  -37.1781  -10.0983 C   0  0  0  0  0  0  0  0  0  0  0  0
   27.3309  -35.6739  -10.3772 C   0  0  2  0  0  0  0  0  0  0  0  0
   28.2739  -35.3784  -11.4210 N   0  0  0  0  0  0  0  0  0  0  0  0
   27.6404  -34.8946   -9.1536 C   0  0  0  0  0  0  0  0  0  0  0  0
   28.8210  -34.5910   -8.8432 O   0  0  0  0  0  0  0  0  0  0  0  0
   24.3031  -33.3590   -7.2594 C   0  0  0  0  0  0  0  0  0  0  0  0
   25.6209  -32.6207   -7.1406 C   0  0  2  0  0  0  0  0  0  0  0  0
   25.7908  -31.7240   -8.3499 C   0  0  0  0  0  0  0  0  0  0  0  0
   26.7390  -33.6321   -7.1760 C   0  0  2  0  0  0  0  0  0  0  0  0
   26.5749  -34.4827   -8.3140 N   0  0  0  0  0  0  0  0  0  0  0  0
   26.7448  -34.4853   -5.9467 C   0  0  0  0  0  0  0  0  0  0  0  0
   26.0169  -35.5093   -5.8688 O   0  0  0  0  0  0  0  0  0  0  0  0
   29.2127  -37.5429   -2.0908 C   0  0  0  0  0  0  0  0  0  0  0  0
   28.8645  -36.0833   -1.8398 C   0  0  1  0  0  0  0  0  0  0  0  0
   29.8804  -35.5307   -0.8248 C   0  0  0  0  0  0  0  0  0  0  0  0
   28.8855  -35.2735   -3.0969 C   0  0  0  0  0  0  0  0  0  0  0  0
   27.5253  -34.9514   -3.5719 C   0  0  2  0  0  0  0  0  0  0  0  0
   27.5619  -34.1820   -4.8260 N   0  0  0  0  0  0  0  0  0  0  0  0
   26.6308  -34.3038   -2.6013 C   0  0  0  0  0  0  0  0  0  0  0  0
   26.4835  -33.0820   -2.5441 O   0  0  0  0  0  0  0  0  0  0  0  0
   25.9270  -35.0974   -1.7155 O   0  0  0  0  0  0  0  0  0  0  0  0
  2  1  1  1
  3  2  1  0
  4  5  2  0
  4  2  1  0
  7  6  1  6
  7  9  1  0
  8  7  1  0
  9 11  1  0
  9 10  1  6
 10  4  1  0
 11 18  1  0
 12 11  2  0
 14 15  1  1
 14 13  1  0
 16 14  1  0
 17 16  1  1
 18 17  1  0
 19 21  1  0
 19 17  1  0
 20 19  2  0
M  END
$$$$
