AVL.pdb
     RDKit          3D

 21 20  0  0  1  0  0  0  0  0999 V2000
   17.9223  -14.2523  -17.1759 C   0  0  0  0  0  0  0  0  0  0  0  0
   17.0256  -13.3631  -18.0485 C   0  0  2  0  0  0  0  0  0  0  0  0
   16.9669  -13.9941  -19.3387 N   0  0  0  0  0  0  0  0  0  0  0  0
   17.5993  -11.9994  -18.1563 C   0  0  0  0  0  0  0  0  0  0  0  0
   18.5488  -11.7409  -18.9400 O   0  0  0  0  0  0  0  0  0  0  0  0
   15.5969   -8.7037  -18.5567 C   0  0  0  0  0  0  0  0  0  0  0  0
   16.3694   -8.6678  -17.2538 C   0  0  2  0  0  0  0  0  0  0  0  0
   16.9378   -7.2769  -17.0594 C   0  0  0  0  0  0  0  0  0  0  0  0
   17.5381   -9.6143  -17.3660 C   0  0  2  0  0  0  0  0  0  0  0  0
   17.0609  -10.9625  -17.3533 N   0  0  0  0  0  0  0  0  0  0  0  0
   18.4938   -9.4419  -16.2275 C   0  0  0  0  0  0  0  0  0  0  0  0
   18.1042   -9.5543  -15.0357 O   0  0  0  0  0  0  0  0  0  0  0  0
   22.5257  -10.1083  -13.0550 C   0  0  0  0  0  0  0  0  0  0  0  0
   23.0093   -9.5763  -14.3958 C   0  0  1  0  0  0  0  0  0  0  0  0
   24.3369  -10.2814  -14.7245 C   0  0  0  0  0  0  0  0  0  0  0  0
   22.0112   -9.8024  -15.4863 C   0  0  0  0  0  0  0  0  0  0  0  0
   20.8223   -8.9398  -15.3375 C   0  0  2  0  0  0  0  0  0  0  0  0
   19.8666   -9.1473  -16.4374 N   0  0  0  0  0  0  0  0  0  0  0  0
   21.0766   -7.5045  -15.1458 C   0  0  0  0  0  0  0  0  0  0  0  0
   21.2064   -6.7200  -16.0868 O   0  0  0  0  0  0  0  0  0  0  0  0
   21.1754   -7.0147  -13.8573 O   0  0  0  0  0  0  0  0  0  0  0  0
  2  1  1  1
  3  2  1  0
  4  5  2  0
  4  2  1  0
  7  6  1  6
  7  9  1  0
  8  7  1  0
  9 11  1  0
  9 10  1  1
 10  4  1  0
 11 18  1  0
 12 11  2  0
 14 15  1  6
 14 13  1  0
 16 14  1  0
 17 16  1  6
 18 17  1  0
 19 21  1  0
 19 17  1  0
 20 19  2  0
M  END
$$$$
