AVL.pdb
     RDKit          3D

 21 20  0  0  1  0  0  0  0  0999 V2000
   30.4780  -21.1432  -13.4088 C   0  0  0  0  0  0  0  0  0  0  0  0
   29.0454  -21.0426  -13.9507 C   0  0  2  0  0  0  0  0  0  0  0  0
   29.1298  -20.2925  -15.1740 N   0  0  0  0  0  0  0  0  0  0  0  0
   28.1703  -20.3534  -12.9712 C   0  0  0  0  0  0  0  0  0  0  0  0
   28.2370  -19.1113  -12.7833 O   0  0  0  0  0  0  0  0  0  0  0  0
   24.6712  -20.1173  -13.1472 C   0  0  0  0  0  0  0  0  0  0  0  0
   24.8820  -20.8585  -11.8426 C   0  0  2  0  0  0  0  0  0  0  0  0
   23.9050  -20.3272  -10.8138 C   0  0  0  0  0  0  0  0  0  0  0  0
   26.2698  -20.5515  -11.3384 C   0  0  2  0  0  0  0  0  0  0  0  0
   27.2353  -21.1178  -12.2288 N   0  0  0  0  0  0  0  0  0  0  0  0
   26.4954  -21.1223   -9.9737 C   0  0  0  0  0  0  0  0  0  0  0  0
   26.6399  -22.3619   -9.8088 O   0  0  0  0  0  0  0  0  0  0  0  0
   28.7549  -20.4590   -4.4473 C   0  0  0  0  0  0  0  0  0  0  0  0
   27.6491  -19.9373   -5.3527 C   0  0  1  0  0  0  0  0  0  0  0  0
   27.5409  -18.4190   -5.1271 C   0  0  0  0  0  0  0  0  0  0  0  0
   27.9115  -20.2361   -6.7943 C   0  0  0  0  0  0  0  0  0  0  0  0
   26.7382  -20.8376   -7.4585 C   0  0  2  0  0  0  0  0  0  0  0  0
   26.5559  -20.3014   -8.8170 N   0  0  0  0  0  0  0  0  0  0  0  0
   25.4705  -20.7882   -6.7156 C   0  0  0  0  0  0  0  0  0  0  0  0
   24.5843  -19.9695   -6.9649 O   0  0  0  0  0  0  0  0  0  0  0  0
   25.2642  -21.6963   -5.6945 O   0  0  0  0  0  0  0  0  0  0  0  0
  2  1  1  1
  3  2  1  0
  4  5  2  0
  4  2  1  0
  7  6  1  6
  7  9  1  0
  8  7  1  0
  9 11  1  0
  9 10  1  6
 10  4  1  0
 11 18  1  0
 12 11  2  0
 14 15  1  6
 14 13  1  0
 16 14  1  0
 17 16  1  1
 18 17  1  0
 19 21  1  0
 19 17  1  0
 20 19  2  0
M  END
$$$$
