AVL.pdb
     RDKit          3D

 21 20  0  0  1  0  0  0  0  0999 V2000
   24.5494  -24.5653  -14.6705 C   0  0  0  0  0  0  0  0  0  0  0  0
   24.9937  -23.2087  -15.2349 C   0  0  2  0  0  0  0  0  0  0  0  0
   25.7056  -23.4927  -16.4509 N   0  0  0  0  0  0  0  0  0  0  0  0
   25.8699  -22.5080  -14.2646 C   0  0  0  0  0  0  0  0  0  0  0  0
   27.0802  -22.8195  -14.1207 O   0  0  0  0  0  0  0  0  0  0  0  0
   26.4962  -18.9637  -14.3411 C   0  0  0  0  0  0  0  0  0  0  0  0
   25.9072  -19.1909  -12.9637 C   0  0  2  0  0  0  0  0  0  0  0  0
   26.6856  -18.3695  -11.9564 C   0  0  0  0  0  0  0  0  0  0  0  0
   26.0971  -20.6413  -12.5970 C   0  0  2  0  0  0  0  0  0  0  0  0
   25.3257  -21.4601  -13.4801 N   0  0  0  0  0  0  0  0  0  0  0  0
   25.6541  -20.9140  -11.1939 C   0  0  0  0  0  0  0  0  0  0  0  0
   24.4631  -21.2365  -10.9448 O   0  0  0  0  0  0  0  0  0  0  0  0
   27.6522  -19.6190   -5.9775 C   0  0  0  0  0  0  0  0  0  0  0  0
   27.9001  -19.9439   -7.4430 C   0  0  1  0  0  0  0  0  0  0  0  0
   29.4213  -19.9211   -7.6736 C   0  0  0  0  0  0  0  0  0  0  0  0
   27.3305  -21.2710   -7.8314 C   0  0  0  0  0  0  0  0  0  0  0  0
   26.1520  -21.1330   -8.7099 C   0  0  2  0  0  0  0  0  0  0  0  0
   26.5463  -20.8223  -10.0934 N   0  0  0  0  0  0  0  0  0  0  0  0
   25.1046  -20.2060   -8.2570 C   0  0  0  0  0  0  0  0  0  0  0  0
   24.9597  -19.0802   -8.7357 O   0  0  0  0  0  0  0  0  0  0  0  0
   24.2479  -20.6131   -7.2519 O   0  0  0  0  0  0  0  0  0  0  0  0
  2  1  1  1
  3  2  1  0
  4  5  2  0
  4  2  1  0
  7  6  1  6
  7  9  1  0
  8  7  1  0
  9 11  1  0
  9 10  1  6
 10  4  1  0
 11 18  1  0
 12 11  2  0
 14 15  1  1
 14 13  1  0
 16 14  1  0
 17 16  1  1
 18 17  1  0
 19 21  1  0
 19 17  1  0
 20 19  2  0
M  END
$$$$
