AVL.pdb
     RDKit          3D

 21 20  0  0  1  0  0  0  0  0999 V2000
   24.0355  -12.1405  -14.8656 C   0  0  0  0  0  0  0  0  0  0  0  0
   23.2952  -12.4213  -16.1806 C   0  0  2  0  0  0  0  0  0  0  0  0
   24.3054  -12.7530  -17.1479 N   0  0  0  0  0  0  0  0  0  0  0  0
   22.5310  -11.2242  -16.6084 C   0  0  0  0  0  0  0  0  0  0  0  0
   23.0723  -10.2885  -17.2518 O   0  0  0  0  0  0  0  0  0  0  0  0
   19.2675  -11.5204  -18.3270 C   0  0  0  0  0  0  0  0  0  0  0  0
   18.9941  -10.5845  -17.1673 C   0  0  2  0  0  0  0  0  0  0  0  0
   18.1904   -9.4027  -17.6702 C   0  0  0  0  0  0  0  0  0  0  0  0
   20.3115  -10.0464  -16.6678 C   0  0  2  0  0  0  0  0  0  0  0  0
   21.1543  -11.1355  -16.2818 N   0  0  0  0  0  0  0  0  0  0  0  0
   20.1238   -9.1526  -15.4824 C   0  0  0  0  0  0  0  0  0  0  0  0
   20.4264   -9.5441  -14.3250 O   0  0  0  0  0  0  0  0  0  0  0  0
   22.1179   -4.1272  -14.9813 C   0  0  0  0  0  0  0  0  0  0  0  0
   22.2433   -5.4845  -14.3054 C   0  0  1  0  0  0  0  0  0  0  0  0
   21.5595   -5.3844  -12.9306 C   0  0  0  0  0  0  0  0  0  0  0  0
   21.6292   -6.5792  -15.1183 C   0  0  0  0  0  0  0  0  0  0  0  0
   20.1713   -6.6762  -14.9065 C   0  0  2  0  0  0  0  0  0  0  0  0
   19.6023   -7.8381  -15.6082 N   0  0  0  0  0  0  0  0  0  0  0  0
   19.3869   -5.4679  -15.2000 C   0  0  0  0  0  0  0  0  0  0  0  0
   19.0716   -5.1408  -16.3452 O   0  0  0  0  0  0  0  0  0  0  0  0
   18.9874   -4.6647  -14.1487 O   0  0  0  0  0  0  0  0  0  0  0  0
  2  1  1  1
  3  2  1  0
  4  5  2  0
  4  2  1  0
  7  6  1  6
  7  9  1  0
  8  7  1  0
  9 11  1  0
  9 10  1  1
 10  4  1  0
 11 18  1  0
 12 11  2  0
 14 15  1  1
 14 13  1  0
 16 14  1  0
 17 16  1  6
 18 17  1  0
 19 21  1  0
 19 17  1  0
 20 19  2  0
M  END
$$$$
