AVL.pdb
     RDKit          3D

 21 20  0  0  1  0  0  0  0  0999 V2000
   22.2677  -19.9728  -13.4382 C   0  0  0  0  0  0  0  0  0  0  0  0
   23.5052  -19.7500  -14.3186 C   0  0  2  0  0  0  0  0  0  0  0  0
   23.0651  -19.9068  -15.6780 N   0  0  0  0  0  0  0  0  0  0  0  0
   24.5580  -20.7417  -13.9895 C   0  0  0  0  0  0  0  0  0  0  0  0
   24.3674  -21.9781  -14.1224 O   0  0  0  0  0  0  0  0  0  0  0  0
   28.3259  -19.1440  -12.9915 C   0  0  0  0  0  0  0  0  0  0  0  0
   28.1949  -20.4880  -13.6787 C   0  0  2  0  0  0  0  0  0  0  0  0
   28.0667  -20.2645  -15.1716 C   0  0  0  0  0  0  0  0  0  0  0  0
   26.9158  -21.1383  -13.2146 C   0  0  2  0  0  0  0  0  0  0  0  0
   25.8109  -20.2806  -13.5128 N   0  0  0  0  0  0  0  0  0  0  0  0
   26.9329  -21.3893  -11.7395 C   0  0  0  0  0  0  0  0  0  0  0  0
   27.8245  -22.1087  -11.2179 O   0  0  0  0  0  0  0  0  0  0  0  0
   28.7302  -20.6570   -6.9436 C   0  0  0  0  0  0  0  0  0  0  0  0
   27.3277  -20.2850   -7.4010 C   0  0  1  0  0  0  0  0  0  0  0  0
   26.9718  -18.9334   -6.7574 C   0  0  0  0  0  0  0  0  0  0  0  0
   27.2231  -20.2006   -8.8904 C   0  0  0  0  0  0  0  0  0  0  0  0
   26.0408  -20.9194   -9.4050 C   0  0  2  0  0  0  0  0  0  0  0  0
   25.9560  -20.8339  -10.8719 N   0  0  0  0  0  0  0  0  0  0  0  0
   24.7484  -20.5700   -8.7976 C   0  0  0  0  0  0  0  0  0  0  0  0
   23.9163  -19.8605   -9.3650 O   0  0  0  0  0  0  0  0  0  0  0  0
   24.4547  -21.0559   -7.5376 O   0  0  0  0  0  0  0  0  0  0  0  0
  2  1  1  1
  3  2  1  0
  4  5  2  0
  4  2  1  0
  7  6  1  1
  7  9  1  0
  8  7  1  0
  9 11  1  0
  9 10  1  1
 10  4  1  0
 11 18  1  0
 12 11  2  0
 14 15  1  1
 14 13  1  0
 16 14  1  0
 17 16  1  1
 18 17  1  0
 19 21  1  0
 19 17  1  0
 20 19  2  0
M  END
$$$$
