AVL.pdb
     RDKit          3D

 21 20  0  0  1  0  0  0  0  0999 V2000
   19.2393  -13.8371  -18.8109 C   0  0  0  0  0  0  0  0  0  0  0  0
   20.3788  -13.3521  -19.7179 C   0  0  2  0  0  0  0  0  0  0  0  0
   21.2243  -14.4920  -19.9458 N   0  0  0  0  0  0  0  0  0  0  0  0
   21.1353  -12.2607  -19.0571 C   0  0  0  0  0  0  0  0  0  0  0  0
   22.0558  -12.4980  -18.2332 O   0  0  0  0  0  0  0  0  0  0  0  0
   20.2575   -8.3559  -20.3692 C   0  0  0  0  0  0  0  0  0  0  0  0
   21.6236   -8.7044  -19.8142 C   0  0  2  0  0  0  0  0  0  0  0  0
   22.4713   -9.2848  -20.9277 C   0  0  0  0  0  0  0  0  0  0  0  0
   21.4549   -9.7838  -18.7746 C   0  0  2  0  0  0  0  0  0  0  0  0
   20.8098  -10.9156  -19.3647 N   0  0  0  0  0  0  0  0  0  0  0  0
   20.6206   -9.3117  -17.6255 C   0  0  0  0  0  0  0  0  0  0  0  0
   19.4947   -9.8241  -17.3925 O   0  0  0  0  0  0  0  0  0  0  0  0
   20.4779   -8.1261  -12.3277 C   0  0  0  0  0  0  0  0  0  0  0  0
   19.7221   -9.0102  -13.3084 C   0  0  1  0  0  0  0  0  0  0  0  0
   18.3637   -8.3423  -13.5851 C   0  0  0  0  0  0  0  0  0  0  0  0
   20.4766   -9.2127  -14.5836 C   0  0  0  0  0  0  0  0  0  0  0  0
   20.4403   -8.0148  -15.4457 C   0  0  2  0  0  0  0  0  0  0  0  0
   21.0560   -8.2769  -16.7565 N   0  0  0  0  0  0  0  0  0  0  0  0
   20.9805   -6.7763  -14.8662 C   0  0  0  0  0  0  0  0  0  0  0  0
   22.1747   -6.4795  -14.9252 O   0  0  0  0  0  0  0  0  0  0  0  0
   20.1140   -5.9096  -14.2276 O   0  0  0  0  0  0  0  0  0  0  0  0
  2  1  1  1
  3  2  1  0
  4  5  2  0
  4  2  1  0
  7  6  1  6
  7  9  1  0
  8  7  1  0
  9 11  1  0
  9 10  1  6
 10  4  1  0
 11 18  1  0
 12 11  2  0
 14 15  1  6
 14 13  1  0
 16 14  1  0
 17 16  1  1
 18 17  1  0
 19 21  1  0
 19 17  1  0
 20 19  2  0
M  END
$$$$
