AVL.pdb
     RDKit          3D

 21 20  0  0  1  0  0  0  0  0999 V2000
   22.3658  -20.7732  -14.0598 C   0  0  0  0  0  0  0  0  0  0  0  0
   21.2052  -20.7474  -15.0640 C   0  0  2  0  0  0  0  0  0  0  0  0
   21.1037  -22.0790  -15.5957 N   0  0  0  0  0  0  0  0  0  0  0  0
   21.4798  -19.7696  -16.1450 C   0  0  0  0  0  0  0  0  0  0  0  0
   22.2745  -20.0283  -17.0853 O   0  0  0  0  0  0  0  0  0  0  0  0
   18.9432  -18.1303  -18.3354 C   0  0  0  0  0  0  0  0  0  0  0  0
   19.6227  -17.0215  -17.5579 C   0  0  2  0  0  0  0  0  0  0  0  0
   19.8452  -15.8410  -18.4811 C   0  0  0  0  0  0  0  0  0  0  0  0
   20.9822  -17.5081  -17.1224 C   0  0  2  0  0  0  0  0  0  0  0  0
   20.8277  -18.5111  -16.1146 N   0  0  0  0  0  0  0  0  0  0  0  0
   21.8070  -16.3950  -16.5570 C   0  0  0  0  0  0  0  0  0  0  0  0
   21.4137  -15.7469  -15.5521 O   0  0  0  0  0  0  0  0  0  0  0  0
   26.3641  -13.9643  -14.8387 C   0  0  0  0  0  0  0  0  0  0  0  0
   26.1601  -14.0305  -16.3449 C   0  0  1  0  0  0  0  0  0  0  0  0
   27.5501  -14.1168  -16.9992 C   0  0  0  0  0  0  0  0  0  0  0  0
   25.3164  -15.1970  -16.7499 C   0  0  0  0  0  0  0  0  0  0  0  0
   23.8744  -14.9152  -16.6056 C   0  0  2  0  0  0  0  0  0  0  0  0
   23.0556  -16.0239  -17.1217 N   0  0  0  0  0  0  0  0  0  0  0  0
   23.4015  -13.6343  -17.1507 C   0  0  0  0  0  0  0  0  0  0  0  0
   23.2647  -12.6255  -16.4569 O   0  0  0  0  0  0  0  0  0  0  0  0
   23.0962  -13.5583  -18.4964 O   0  0  0  0  0  0  0  0  0  0  0  0
  2  1  1  1
  3  2  1  0
  4  5  2  0
  4  2  1  0
  7  6  1  6
  7  9  1  0
  8  7  1  0
  9 11  1  0
  9 10  1  1
 10  4  1  0
 11 18  1  0
 12 11  2  0
 14 15  1  6
 14 13  1  0
 16 14  1  0
 17 16  1  6
 18 17  1  0
 19 21  1  0
 19 17  1  0
 20 19  2  0
M  END
$$$$
