MNN.pdb
     RDKit          3D

 25 24  0  0  1  0  0  0  0  0999 V2000
   22.9352  -11.6936  -22.9905 C   0  0  0  0  0  0  0  0  0  0  0  0
   22.7267  -13.4207  -22.5091 S   0  0  0  0  0  0  0  0  0  0  0  0
   21.6438  -13.6634  -21.1382 C   0  0  0  0  0  0  0  0  0  0  0  0
   21.8056  -12.8678  -19.9145 C   0  0  0  0  0  0  0  0  0  0  0  0
   22.9624  -13.0795  -19.0239 C   0  0  2  0  0  0  0  0  0  0  0  0
   23.0080  -14.4357  -18.4689 N   0  0  0  0  0  0  0  0  0  0  0  0
   22.8122  -12.1172  -17.8420 C   0  0  0  0  0  0  0  0  0  0  0  0
   21.7519  -12.1118  -17.2037 O   0  0  0  0  0  0  0  0  0  0  0  0
   25.4868  -12.1820  -15.5110 N   0  0  0  0  0  0  0  0  0  0  0  0
   26.0561  -10.9018  -15.5600 C   0  0  0  0  0  0  0  0  0  0  0  0
   27.2238  -10.7229  -15.1398 O   0  0  0  0  0  0  0  0  0  0  0  0
   25.2984   -9.7549  -16.1021 C   0  0  0  0  0  0  0  0  0  0  0  0
   23.9116  -10.2406  -16.4973 C   0  0  2  0  0  0  0  0  0  0  0  0
   23.8722  -11.2533  -17.4916 N   0  0  0  0  0  0  0  0  0  0  0  0
   22.9119   -9.1757  -16.5879 C   0  0  0  0  0  0  0  0  0  0  0  0
   22.9529   -8.4227  -17.6116 O   0  0  0  0  0  0  0  0  0  0  0  0
   19.2731   -9.1783  -17.4227 N   0  0  0  0  0  0  0  0  0  0  0  0
   18.8154   -9.0487  -16.0663 C   0  0  0  0  0  0  0  0  0  0  0  0
   17.7383   -9.5665  -15.7126 O   0  0  0  0  0  0  0  0  0  0  0  0
   19.6602   -8.2923  -15.1313 C   0  0  0  0  0  0  0  0  0  0  0  0
   20.9552   -7.8092  -15.7707 C   0  0  2  0  0  0  0  0  0  0  0  0
   21.8948   -8.8862  -15.6570 N   0  0  0  0  0  0  0  0  0  0  0  0
   21.3629   -6.5729  -15.0932 C   0  0  0  0  0  0  0  0  0  0  0  0
   22.5494   -6.5410  -14.3678 O   0  0  0  0  0  0  0  0  0  0  0  0
   20.6992   -5.5158  -15.1212 O   0  0  0  0  0  0  0  0  0  0  0  0
  1  2  1  0
  2  3  1  0
  3  4  1  0
  5  4  1  0
  5  7  1  0
  5  6  1  1
  7  8  2  0
  9 10  1  0
 10 11  2  0
 12 10  1  0
 13 12  1  6
 14 13  1  0
 14  7  1  0
 15 13  1  0
 15 16  2  0
 17 18  1  0
 18 20  1  0
 19 18  2  0
 21 20  1  1
 21 22  1  0
 21 23  1  0
 22 15  1  0
 23 24  1  0
 25 23  2  0
M  END
$$$$
