MNN.pdb
     RDKit          3D

 25 24  0  0  1  0  0  0  0  0999 V2000
   22.3217  -12.4905  -18.5111 C   0  0  0  0  0  0  0  0  0  0  0  0
   20.7245  -13.0113  -19.1713 S   0  0  0  0  0  0  0  0  0  0  0  0
   19.3419  -12.1787  -18.4597 C   0  0  0  0  0  0  0  0  0  0  0  0
   19.5010  -10.8402  -17.8768 C   0  0  0  0  0  0  0  0  0  0  0  0
   19.0803  -10.5660  -16.4897 C   0  0  2  0  0  0  0  0  0  0  0  0
   17.6718  -10.8948  -16.2505 N   0  0  0  0  0  0  0  0  0  0  0  0
   19.2348   -9.0607  -16.2536 C   0  0  0  0  0  0  0  0  0  0  0  0
   18.3913   -8.2894  -16.7282 O   0  0  0  0  0  0  0  0  0  0  0  0
   22.8798   -4.8563  -13.8885 N   0  0  0  0  0  0  0  0  0  0  0  0
   21.7103   -5.6079  -13.7082 C   0  0  0  0  0  0  0  0  0  0  0  0
   20.6840   -5.0603  -13.2402 O   0  0  0  0  0  0  0  0  0  0  0  0
   21.6675   -7.0416  -14.0633 C   0  0  0  0  0  0  0  0  0  0  0  0
   20.6654   -7.2257  -15.1933 C   0  0  2  0  0  0  0  0  0  0  0  0
   20.3249   -8.5685  -15.5040 N   0  0  0  0  0  0  0  0  0  0  0  0
   20.8607   -6.3085  -16.3168 C   0  0  0  0  0  0  0  0  0  0  0  0
   21.7012   -6.6488  -17.2082 O   0  0  0  0  0  0  0  0  0  0  0  0
   20.7639   -2.9154  -20.0214 N   0  0  0  0  0  0  0  0  0  0  0  0
   19.6928   -3.8735  -19.9862 C   0  0  0  0  0  0  0  0  0  0  0  0
   18.9717   -4.0494  -20.9874 O   0  0  0  0  0  0  0  0  0  0  0  0
   19.4904   -4.6237  -18.7388 C   0  0  0  0  0  0  0  0  0  0  0  0
   20.4504   -4.1977  -17.6359 C   0  0  2  0  0  0  0  0  0  0  0  0
   20.2143   -5.0743  -16.5261 N   0  0  0  0  0  0  0  0  0  0  0  0
   20.2130   -2.7780  -17.3502 C   0  0  0  0  0  0  0  0  0  0  0  0
   21.2176   -1.8468  -17.5923 O   0  0  0  0  0  0  0  0  0  0  0  0
   19.1412   -2.3333  -16.8897 O   0  0  0  0  0  0  0  0  0  0  0  0
  1  2  1  0
  2  3  1  0
  3  4  1  0
  5  4  1  0
  5  7  1  0
  5  6  1  6
  7  8  2  0
  9 10  1  0
 10 11  2  0
 12 10  1  0
 13 12  1  6
 14 13  1  0
 14  7  1  0
 15 13  1  0
 15 16  2  0
 17 18  1  0
 18 20  1  0
 19 18  2  0
 21 20  1  6
 21 22  1  0
 21 23  1  0
 22 15  1  0
 23 24  1  0
 25 23  2  0
M  END
$$$$
