MNN.pdb
     RDKit          3D

 25 24  0  0  1  0  0  0  0  0999 V2000
   26.3145   -8.2765  -23.0335 C   0  0  0  0  0  0  0  0  0  0  0  0
   26.3795  -10.0551  -22.7328 S   0  0  0  0  0  0  0  0  0  0  0  0
   24.9829  -10.6932  -21.8648 C   0  0  0  0  0  0  0  0  0  0  0  0
   24.2860   -9.8670  -20.8705 C   0  0  0  0  0  0  0  0  0  0  0  0
   24.4172  -10.1497  -19.4286 C   0  0  2  0  0  0  0  0  0  0  0  0
   24.2418  -11.5705  -19.1128 N   0  0  0  0  0  0  0  0  0  0  0  0
   23.2985   -9.3900  -18.7096 C   0  0  0  0  0  0  0  0  0  0  0  0
   23.1241   -8.1924  -18.9685 O   0  0  0  0  0  0  0  0  0  0  0  0
   18.9971   -9.7576  -17.9550 N   0  0  0  0  0  0  0  0  0  0  0  0
   19.2945  -10.6070  -16.8800 C   0  0  0  0  0  0  0  0  0  0  0  0
   18.4393  -11.4345  -16.4850 O   0  0  0  0  0  0  0  0  0  0  0  0
   20.6061  -10.5426  -16.2027 C   0  0  0  0  0  0  0  0  0  0  0  0
   21.4699   -9.5207  -16.9271 C   0  0  2  0  0  0  0  0  0  0  0  0
   22.4823  -10.0532  -17.7681 N   0  0  0  0  0  0  0  0  0  0  0  0
   21.8206   -8.3554  -16.1144 C   0  0  0  0  0  0  0  0  0  0  0  0
   23.0359   -8.2353  -15.7607 O   0  0  0  0  0  0  0  0  0  0  0  0
   22.2155   -3.8792  -13.7610 N   0  0  0  0  0  0  0  0  0  0  0  0
   22.6907   -4.1211  -15.0959 C   0  0  0  0  0  0  0  0  0  0  0  0
   23.4658   -3.3140  -15.6448 O   0  0  0  0  0  0  0  0  0  0  0  0
   22.2303   -5.3419  -15.7723 C   0  0  0  0  0  0  0  0  0  0  0  0
   21.3431   -6.2050  -14.8849 C   0  0  2  0  0  0  0  0  0  0  0  0
   20.9526   -7.3371  -15.6733 N   0  0  0  0  0  0  0  0  0  0  0  0
   20.2263   -5.3765  -14.4159 C   0  0  0  0  0  0  0  0  0  0  0  0
   20.3212   -4.7146  -13.1962 O   0  0  0  0  0  0  0  0  0  0  0  0
   19.1640   -5.2202  -15.0528 O   0  0  0  0  0  0  0  0  0  0  0  0
  1  2  1  0
  2  3  1  0
  3  4  1  0
  5  4  1  0
  5  7  1  0
  5  6  1  6
  7  8  2  0
  9 10  1  0
 10 11  2  0
 12 10  1  0
 13 12  1  1
 14 13  1  0
 14  7  1  0
 15 13  1  0
 15 16  2  0
 17 18  1  0
 18 20  1  0
 19 18  2  0
 21 20  1  6
 21 22  1  0
 21 23  1  0
 22 15  1  0
 23 24  1  0
 25 23  2  0
M  END
$$$$
