MNN.pdb
     RDKit          3D

 25 24  0  0  1  0  0  0  0  0999 V2000
   26.5816  -19.0771   -7.8446 C   0  0  0  0  0  0  0  0  0  0  0  0
   26.4252  -20.8689   -7.6921 S   0  0  0  0  0  0  0  0  0  0  0  0
   26.3261  -21.7197   -9.2339 C   0  0  0  0  0  0  0  0  0  0  0  0
   26.7027  -21.0421  -10.4812 C   0  0  0  0  0  0  0  0  0  0  0  0
   25.7846  -21.0206  -11.6356 C   0  0  2  0  0  0  0  0  0  0  0  0
   25.7663  -22.2909  -12.3673 N   0  0  0  0  0  0  0  0  0  0  0  0
   26.2953  -19.9522  -12.6068 C   0  0  0  0  0  0  0  0  0  0  0  0
   27.4897  -19.6298  -12.5702 O   0  0  0  0  0  0  0  0  0  0  0  0
   28.0159  -16.9629  -16.3325 N   0  0  0  0  0  0  0  0  0  0  0  0
   27.1906  -18.0747  -16.5523 C   0  0  0  0  0  0  0  0  0  0  0  0
   26.6598  -18.2439  -17.6756 O   0  0  0  0  0  0  0  0  0  0  0  0
   26.9358  -19.0548  -15.4764 C   0  0  0  0  0  0  0  0  0  0  0  0
   25.7079  -18.6044  -14.6989 C   0  0  2  0  0  0  0  0  0  0  0  0
   25.4111  -19.3497  -13.5275 N   0  0  0  0  0  0  0  0  0  0  0  0
   24.5801  -18.2107  -15.5442 C   0  0  0  0  0  0  0  0  0  0  0  0
   24.0145  -19.1237  -16.2248 O   0  0  0  0  0  0  0  0  0  0  0  0
   22.5497  -14.8985  -19.7892 N   0  0  0  0  0  0  0  0  0  0  0  0
   22.3783  -14.9889  -18.3648 C   0  0  0  0  0  0  0  0  0  0  0  0
   21.3473  -14.5432  -17.8247 O   0  0  0  0  0  0  0  0  0  0  0  0
   23.4542  -15.6203  -17.5878 C   0  0  0  0  0  0  0  0  0  0  0  0
   22.9273  -16.5778  -16.5272 C   0  0  2  0  0  0  0  0  0  0  0  0
   24.0418  -16.9170  -15.6915 N   0  0  0  0  0  0  0  0  0  0  0  0
   22.3113  -17.7202  -17.2121 C   0  0  0  0  0  0  0  0  0  0  0  0
   23.0908  -18.5485  -18.0128 O   0  0  0  0  0  0  0  0  0  0  0  0
   21.0998  -18.0092  -17.1257 O   0  0  0  0  0  0  0  0  0  0  0  0
  1  2  1  0
  2  3  1  0
  3  4  1  0
  5  4  1  0
  5  7  1  0
  5  6  1  6
  7  8  2  0
  9 10  1  0
 10 11  2  0
 12 10  1  0
 13 12  1  6
 14 13  1  0
 14  7  1  0
 15 13  1  0
 15 16  2  0
 17 18  1  0
 18 20  1  0
 19 18  2  0
 21 20  1  6
 21 22  1  0
 21 23  1  0
 22 15  1  0
 23 24  1  0
 25 23  2  0
M  END
$$$$
