MNN.pdb
     RDKit          3D

 25 24  0  0  1  0  0  0  0  0999 V2000
   26.1419  -15.8974  -15.9185 C   0  0  0  0  0  0  0  0  0  0  0  0
   27.6297  -16.6617  -16.5971 S   0  0  0  0  0  0  0  0  0  0  0  0
   28.0010  -18.2475  -15.9201 C   0  0  0  0  0  0  0  0  0  0  0  0
   26.9848  -18.9862  -15.1594 C   0  0  0  0  0  0  0  0  0  0  0  0
   27.3077  -20.2787  -14.5258 C   0  0  2  0  0  0  0  0  0  0  0  0
   27.7548  -21.2862  -15.4923 N   0  0  0  0  0  0  0  0  0  0  0  0
   26.0206  -20.8102  -13.8884 C   0  0  0  0  0  0  0  0  0  0  0  0
   25.3553  -21.6578  -14.4972 O   0  0  0  0  0  0  0  0  0  0  0  0
   25.6231  -22.0719   -9.3448 N   0  0  0  0  0  0  0  0  0  0  0  0
   25.6007  -20.7600   -9.8388 C   0  0  0  0  0  0  0  0  0  0  0  0
   26.6278  -20.0457   -9.7556 O   0  0  0  0  0  0  0  0  0  0  0  0
   24.3806  -20.2038  -10.4594 C   0  0  0  0  0  0  0  0  0  0  0  0
   24.3863  -20.5670  -11.9369 C   0  0  2  0  0  0  0  0  0  0  0  0
   25.6066  -20.3362  -12.6249 N   0  0  0  0  0  0  0  0  0  0  0  0
   23.1484  -20.2245  -12.6383 C   0  0  0  0  0  0  0  0  0  0  0  0
   22.9175  -18.9914  -12.8456 O   0  0  0  0  0  0  0  0  0  0  0  0
   20.3940  -20.4331  -17.5834 N   0  0  0  0  0  0  0  0  0  0  0  0
   20.2188  -20.3429  -16.1595 C   0  0  0  0  0  0  0  0  0  0  0  0
   19.1859  -19.8337  -15.6828 O   0  0  0  0  0  0  0  0  0  0  0  0
   21.2931  -20.8697  -15.3061 C   0  0  0  0  0  0  0  0  0  0  0  0
   20.9803  -20.7381  -13.8214 C   0  0  2  0  0  0  0  0  0  0  0  0
   22.1699  -21.1180  -13.1170 N   0  0  0  0  0  0  0  0  0  0  0  0
   19.8082  -21.5710  -13.5283 C   0  0  0  0  0  0  0  0  0  0  0  0
   18.5376  -21.1226  -13.8741 O   0  0  0  0  0  0  0  0  0  0  0  0
   19.8723  -22.6869  -12.9721 O   0  0  0  0  0  0  0  0  0  0  0  0
  1  2  1  0
  2  3  1  0
  3  4  1  0
  5  4  1  0
  5  7  1  0
  5  6  1  6
  7  8  2  0
  9 10  1  0
 10 11  2  0
 12 10  1  0
 13 12  1  1
 14 13  1  0
 14  7  1  0
 15 13  1  0
 15 16  2  0
 17 18  1  0
 18 20  1  0
 19 18  2  0
 21 20  1  6
 21 22  1  0
 21 23  1  0
 22 15  1  0
 23 24  1  0
 25 23  2  0
M  END
$$$$
