MNN.pdb
     RDKit          3D

 25 24  0  0  1  0  0  0  0  0999 V2000
   30.2199  -21.2835  -10.0006 C   0  0  0  0  0  0  0  0  0  0  0  0
   30.6173  -21.5207  -11.7454 S   0  0  0  0  0  0  0  0  0  0  0  0
   30.5053  -20.0537  -12.7182 C   0  0  0  0  0  0  0  0  0  0  0  0
   29.1974  -19.5579  -13.1658 C   0  0  0  0  0  0  0  0  0  0  0  0
   28.0395  -20.4664  -13.2653 C   0  0  2  0  0  0  0  0  0  0  0  0
   28.1825  -21.4486  -14.3443 N   0  0  0  0  0  0  0  0  0  0  0  0
   26.8137  -19.6108  -13.5987 C   0  0  0  0  0  0  0  0  0  0  0  0
   26.5353  -18.6513  -12.8682 O   0  0  0  0  0  0  0  0  0  0  0  0
   26.3562  -19.3180  -18.3712 N   0  0  0  0  0  0  0  0  0  0  0  0
   25.5733  -19.8755  -17.3506 C   0  0  0  0  0  0  0  0  0  0  0  0
   25.6841  -21.0939  -17.0757 O   0  0  0  0  0  0  0  0  0  0  0  0
   24.6159  -19.0461  -16.5899 C   0  0  0  0  0  0  0  0  0  0  0  0
   24.7661  -19.3746  -15.1119 C   0  0  2  0  0  0  0  0  0  0  0  0
   26.0193  -19.9179  -14.7243 N   0  0  0  0  0  0  0  0  0  0  0  0
   23.5685  -19.9598  -14.5079 C   0  0  0  0  0  0  0  0  0  0  0  0
   22.8064  -20.6401  -15.2649 O   0  0  0  0  0  0  0  0  0  0  0  0
   24.3817  -20.6732   -9.6009 N   0  0  0  0  0  0  0  0  0  0  0  0
   23.6771  -21.2129  -10.7315 C   0  0  0  0  0  0  0  0  0  0  0  0
   24.1700  -22.1462  -11.3943 O   0  0  0  0  0  0  0  0  0  0  0  0
   22.3717  -20.6255  -11.0646 C   0  0  0  0  0  0  0  0  0  0  0  0
   22.1000  -20.6117  -12.5630 C   0  0  2  0  0  0  0  0  0  0  0  0
   23.1582  -19.8539  -13.1643 N   0  0  0  0  0  0  0  0  0  0  0  0
   20.7581  -20.0572  -12.7765 C   0  0  0  0  0  0  0  0  0  0  0  0
   20.6060  -18.8658  -13.4781 O   0  0  0  0  0  0  0  0  0  0  0  0
   19.7115  -20.5946  -12.3588 O   0  0  0  0  0  0  0  0  0  0  0  0
  1  2  1  0
  2  3  1  0
  3  4  1  0
  5  4  1  0
  5  7  1  0
  5  6  1  6
  7  8  2  0
  9 10  1  0
 10 11  2  0
 12 10  1  0
 13 12  1  6
 14 13  1  0
 14  7  1  0
 15 13  1  0
 15 16  2  0
 17 18  1  0
 18 20  1  0
 19 18  2  0
 21 20  1  1
 21 22  1  0
 21 23  1  0
 22 15  1  0
 23 24  1  0
 25 23  2  0
M  END
$$$$
