MNN.pdb
     RDKit          3D

 25 24  0  0  1  0  0  0  0  0999 V2000
   34.4345  -22.5268  -24.4495 C   0  0  0  0  0  0  0  0  0  0  0  0
   35.6044  -23.8534  -24.0896 S   0  0  0  0  0  0  0  0  0  0  0  0
   36.1124  -23.9313  -22.4023 C   0  0  0  0  0  0  0  0  0  0  0  0
   35.4666  -24.8696  -21.4752 C   0  0  0  0  0  0  0  0  0  0  0  0
   34.0432  -24.7190  -21.1184 C   0  0  2  0  0  0  0  0  0  0  0  0
   33.6793  -23.3309  -20.8181 N   0  0  0  0  0  0  0  0  0  0  0  0
   33.8029  -25.5306  -19.8421 C   0  0  0  0  0  0  0  0  0  0  0  0
   34.0924  -26.7339  -19.8329 O   0  0  0  0  0  0  0  0  0  0  0  0
   32.5377  -25.9593  -14.1869 N   0  0  0  0  0  0  0  0  0  0  0  0
   32.0817  -25.0983  -15.1949 C   0  0  0  0  0  0  0  0  0  0  0  0
   30.8789  -24.7447  -15.2148 O   0  0  0  0  0  0  0  0  0  0  0  0
   33.0005  -24.5981  -16.2384 C   0  0  0  0  0  0  0  0  0  0  0  0
   32.8641  -25.4894  -17.4640 C   0  0  2  0  0  0  0  0  0  0  0  0
   33.2601  -24.9082  -18.6973 N   0  0  0  0  0  0  0  0  0  0  0  0
   31.6527  -26.3104  -17.4706 C   0  0  0  0  0  0  0  0  0  0  0  0
   30.7308  -25.9963  -16.6532 O   0  0  0  0  0  0  0  0  0  0  0  0
   27.5134  -28.0306  -19.6316 N   0  0  0  0  0  0  0  0  0  0  0  0
   27.8483  -26.7325  -19.1129 C   0  0  0  0  0  0  0  0  0  0  0  0
   26.9846  -25.8359  -19.0531 O   0  0  0  0  0  0  0  0  0  0  0  0
   29.2303  -26.5141  -18.6633 C   0  0  0  0  0  0  0  0  0  0  0  0
   30.1157  -27.7351  -18.8748 C   0  0  2  0  0  0  0  0  0  0  0  0
   31.3879  -27.4246  -18.2911 N   0  0  0  0  0  0  0  0  0  0  0  0
   30.1604  -28.0201  -20.3137 C   0  0  0  0  0  0  0  0  0  0  0  0
   30.9203  -27.2140  -21.1549 O   0  0  0  0  0  0  0  0  0  0  0  0
   29.5446  -28.9628  -20.8530 O   0  0  0  0  0  0  0  0  0  0  0  0
  1  2  1  0
  2  3  1  0
  3  4  1  0
  5  4  1  0
  5  7  1  0
  5  6  1  1
  7  8  2  0
  9 10  1  0
 10 11  2  0
 12 10  1  0
 13 12  1  1
 14 13  1  0
 14  7  1  0
 15 13  1  0
 15 16  2  0
 17 18  1  0
 18 20  1  0
 19 18  2  0
 21 20  1  6
 21 22  1  0
 21 23  1  0
 22 15  1  0
 23 24  1  0
 25 23  2  0
M  END
$$$$
