MNN.pdb
     RDKit          3D

 25 24  0  0  1  0  0  0  0  0999 V2000
   28.6440  -12.7905  -15.2622 C   0  0  0  0  0  0  0  0  0  0  0  0
   26.9979  -12.0512  -15.2162 S   0  0  0  0  0  0  0  0  0  0  0  0
   26.7821  -10.6976  -16.3263 C   0  0  0  0  0  0  0  0  0  0  0  0
   25.4913  -10.0018  -16.4063 C   0  0  0  0  0  0  0  0  0  0  0  0
   24.2323  -10.7098  -16.1064 C   0  0  2  0  0  0  0  0  0  0  0  0
   24.0332  -11.8917  -16.9506 N   0  0  0  0  0  0  0  0  0  0  0  0
   23.0816   -9.7452  -16.4086 C   0  0  0  0  0  0  0  0  0  0  0  0
   22.8244   -9.4688  -17.5872 O   0  0  0  0  0  0  0  0  0  0  0  0
   19.0298  -11.1923  -15.1588 N   0  0  0  0  0  0  0  0  0  0  0  0
   19.4809   -9.9897  -15.7206 C   0  0  0  0  0  0  0  0  0  0  0  0
   19.5238   -9.8621  -16.9672 O   0  0  0  0  0  0  0  0  0  0  0  0
   19.9078   -8.8649  -14.8629 C   0  0  0  0  0  0  0  0  0  0  0  0
   21.2132   -8.3106  -15.4142 C   0  0  2  0  0  0  0  0  0  0  0  0
   22.3301   -9.1850  -15.3533 N   0  0  0  0  0  0  0  0  0  0  0  0
   21.4472   -6.9036  -15.0868 C   0  0  0  0  0  0  0  0  0  0  0  0
   22.6007   -6.5895  -14.6537 O   0  0  0  0  0  0  0  0  0  0  0  0
   23.3317   -2.2848  -14.8936 N   0  0  0  0  0  0  0  0  0  0  0  0
   22.2578   -2.6249  -15.7864 C   0  0  0  0  0  0  0  0  0  0  0  0
   21.6631   -1.7348  -16.4247 O   0  0  0  0  0  0  0  0  0  0  0  0
   21.8993   -4.0448  -15.9114 C   0  0  0  0  0  0  0  0  0  0  0  0
   20.8188   -4.4658  -14.9242 C   0  0  2  0  0  0  0  0  0  0  0  0
   20.5271   -5.8425  -15.1987 N   0  0  0  0  0  0  0  0  0  0  0  0
   19.6767   -3.5586  -15.0863 C   0  0  0  0  0  0  0  0  0  0  0  0
   18.7682   -3.7684  -16.1184 O   0  0  0  0  0  0  0  0  0  0  0  0
   19.4570   -2.5810  -14.3416 O   0  0  0  0  0  0  0  0  0  0  0  0
  1  2  1  0
  2  3  1  0
  3  4  1  0
  5  4  1  0
  5  7  1  0
  5  6  1  6
  7  8  2  0
  9 10  1  0
 10 11  2  0
 12 10  1  0
 13 12  1  1
 14 13  1  0
 14  7  1  0
 15 13  1  0
 15 16  2  0
 17 18  1  0
 18 20  1  0
 19 18  2  0
 21 20  1  6
 21 22  1  0
 21 23  1  0
 22 15  1  0
 23 24  1  0
 25 23  2  0
M  END
$$$$
