MNN.pdb
     RDKit          3D

 25 24  0  0  1  0  0  0  0  0999 V2000
   25.6881  -14.9006  -14.1228 C   0  0  0  0  0  0  0  0  0  0  0  0
   26.9818  -13.9326  -14.9275 S   0  0  0  0  0  0  0  0  0  0  0  0
   26.5625  -13.3690  -16.5454 C   0  0  0  0  0  0  0  0  0  0  0  0
   25.4002  -12.4946  -16.7487 C   0  0  0  0  0  0  0  0  0  0  0  0
   24.0317  -13.0452  -16.7460 C   0  0  2  0  0  0  0  0  0  0  0  0
   23.7760  -13.9303  -17.8864 N   0  0  0  0  0  0  0  0  0  0  0  0
   23.0633  -11.8652  -16.8696 C   0  0  0  0  0  0  0  0  0  0  0  0
   22.9532  -11.2910  -17.9604 O   0  0  0  0  0  0  0  0  0  0  0  0
   19.3813  -12.0296  -16.5266 N   0  0  0  0  0  0  0  0  0  0  0  0
   19.2622  -11.5777  -15.2049 C   0  0  0  0  0  0  0  0  0  0  0  0
   18.3169  -11.9865  -14.4897 O   0  0  0  0  0  0  0  0  0  0  0  0
   20.2379  -10.6234  -14.6386 C   0  0  0  0  0  0  0  0  0  0  0  0
   21.3454  -10.4081  -15.6594 C   0  0  2  0  0  0  0  0  0  0  0  0
   22.3104  -11.4454  -15.7517 N   0  0  0  0  0  0  0  0  0  0  0  0
   21.8364   -9.0310  -15.7227 C   0  0  0  0  0  0  0  0  0  0  0  0
   22.6780   -8.6706  -14.8404 O   0  0  0  0  0  0  0  0  0  0  0  0
   22.6076   -7.3318  -20.3222 N   0  0  0  0  0  0  0  0  0  0  0  0
   22.9721   -7.0039  -18.9709 C   0  0  0  0  0  0  0  0  0  0  0  0
   24.0873   -7.3323  -18.5218 O   0  0  0  0  0  0  0  0  0  0  0  0
   21.9882   -6.2759  -18.1573 C   0  0  0  0  0  0  0  0  0  0  0  0
   21.9984   -6.7098  -16.6975 C   0  0  2  0  0  0  0  0  0  0  0  0
   21.4779   -8.0453  -16.6634 N   0  0  0  0  0  0  0  0  0  0  0  0
   21.2185   -5.7337  -15.9278 C   0  0  0  0  0  0  0  0  0  0  0  0
   21.6427   -4.4108  -15.8578 O   0  0  0  0  0  0  0  0  0  0  0  0
   20.1701   -6.0154  -15.3113 O   0  0  0  0  0  0  0  0  0  0  0  0
  1  2  1  0
  2  3  1  0
  3  4  1  0
  5  4  1  0
  5  7  1  0
  5  6  1  6
  7  8  2  0
  9 10  1  0
 10 11  2  0
 12 10  1  0
 13 12  1  1
 14 13  1  0
 14  7  1  0
 15 13  1  0
 15 16  2  0
 17 18  1  0
 18 20  1  0
 19 18  2  0
 21 20  1  6
 21 22  1  0
 21 23  1  0
 22 15  1  0
 23 24  1  0
 25 23  2  0
M  END
$$$$
