NSY.pdb
     RDKit          3D

 27 27  0  0  1  0  0  0  0  0999 V2000
   18.4092  -12.9677  -18.7016 N   0  0  0  0  0  0  0  0  0  0  0  0
   18.8201  -12.6678  -17.3524 C   0  0  0  0  0  0  0  0  0  0  0  0
   18.0323  -13.0596  -16.4688 O   0  0  0  0  0  0  0  0  0  0  0  0
   20.0621  -11.9597  -17.0659 C   0  0  0  0  0  0  0  0  0  0  0  0
   20.9183  -11.5655  -18.2360 C   0  0  2  0  0  0  0  0  0  0  0  0
   21.7060  -12.7558  -18.5935 N   0  0  0  0  0  0  0  0  0  0  0  0
   21.8141  -10.4168  -17.9974 C   0  0  0  0  0  0  0  0  0  0  0  0
   23.0239  -10.5153  -18.2750 O   0  0  0  0  0  0  0  0  0  0  0  0
   21.7854   -7.1414  -19.4268 O   0  0  0  0  0  0  0  0  0  0  0  0
   22.7968   -7.7666  -18.7026 C   0  0  0  0  0  0  0  0  0  0  0  0
   22.2430   -8.0836  -17.3269 C   0  0  2  0  0  0  0  0  0  0  0  0
   21.3327   -9.1799  -17.4499 N   0  0  0  0  0  0  0  0  0  0  0  0
   21.6026   -6.8733  -16.7545 C   0  0  0  0  0  0  0  0  0  0  0  0
   20.4448   -6.4881  -17.0620 O   0  0  0  0  0  0  0  0  0  0  0  0
   17.5669   -8.8777  -12.1864 O   0  0  0  0  0  0  0  0  0  0  0  0
   18.5894   -8.0055  -12.5474 C   0  0  0  0  0  0  0  0  0  0  0  0
   18.2561   -6.7812  -13.1041 C   0  0  0  0  0  0  0  0  0  0  0  0
   19.2435   -5.8992  -13.4709 C   0  0  0  0  0  0  0  0  0  0  0  0
   20.5968   -6.2102  -13.2939 C   0  0  0  0  0  0  0  0  0  0  0  0
   21.6369   -5.2645  -13.6965 C   0  0  0  0  0  0  0  0  0  0  0  0
   21.6588   -4.9386  -15.1790 C   0  0  2  0  0  0  0  0  0  0  0  0
   22.3157   -6.1030  -15.8125 N   0  0  0  0  0  0  0  0  0  0  0  0
   22.5039   -3.7364  -15.3864 C   0  0  0  0  0  0  0  0  0  0  0  0
   22.1646   -2.4608  -14.9648 O   0  0  0  0  0  0  0  0  0  0  0  0
   20.8913   -7.4246  -12.7432 C   0  0  0  0  0  0  0  0  0  0  0  0
   19.9080   -8.3310  -12.3653 C   0  0  0  0  0  0  0  0  0  0  0  0
   23.5990   -3.8817  -15.9831 O   0  0  0  0  0  0  0  0  0  0  0  0
  2  1  1  0
  2  3  2  0
  4  2  1  0
  5  4  1  0
  5  6  1  1
  7  5  1  0
  7  8  2  0
 10  9  1  0
 11 10  1  6
 11 12  1  0
 12  7  1  0
 13 22  1  0
 13 11  1  0
 14 13  2  0
 16 15  1  0
 16 26  2  0
 17 16  1  0
 18 17  2  0
 18 19  1  0
 19 20  1  0
 19 25  2  0
 21 20  1  1
 21 22  1  0
 21 23  1  0
 23 27  2  0
 23 24  1  0
 25 26  1  0
M  END
$$$$
