NSY.pdb
     RDKit          3D

 27 27  0  0  1  0  0  0  0  0999 V2000
   20.4685  -13.3409  -19.2450 N   0  0  0  0  0  0  0  0  0  0  0  0
   20.0026  -12.5995  -18.0994 C   0  0  0  0  0  0  0  0  0  0  0  0
   18.8395  -12.8710  -17.7412 O   0  0  0  0  0  0  0  0  0  0  0  0
   20.8412  -11.6134  -17.4284 C   0  0  0  0  0  0  0  0  0  0  0  0
   22.1840  -11.3205  -18.0357 C   0  0  2  0  0  0  0  0  0  0  0  0
   23.0232  -12.5009  -17.7764 N   0  0  0  0  0  0  0  0  0  0  0  0
   22.8485  -10.1039  -17.5286 C   0  0  0  0  0  0  0  0  0  0  0  0
   23.8869  -10.2106  -16.8498 O   0  0  0  0  0  0  0  0  0  0  0  0
   22.8853   -6.8197  -19.4828 O   0  0  0  0  0  0  0  0  0  0  0  0
   23.8001   -7.0247  -18.4535 C   0  0  0  0  0  0  0  0  0  0  0  0
   23.0505   -7.6579  -17.2971 C   0  0  2  0  0  0  0  0  0  0  0  0
   22.3319   -8.7907  -17.7931 N   0  0  0  0  0  0  0  0  0  0  0  0
   22.1612   -6.6510  -16.6664 C   0  0  0  0  0  0  0  0  0  0  0  0
   20.9700   -6.4556  -17.0221 O   0  0  0  0  0  0  0  0  0  0  0  0
   17.8150   -9.2251  -12.5381 O   0  0  0  0  0  0  0  0  0  0  0  0
   18.7412   -8.2220  -12.8066 C   0  0  0  0  0  0  0  0  0  0  0  0
   20.0308   -8.3568  -12.3177 C   0  0  0  0  0  0  0  0  0  0  0  0
   20.9673   -7.3827  -12.5660 C   0  0  0  0  0  0  0  0  0  0  0  0
   20.6476   -6.2417  -13.3110 C   0  0  0  0  0  0  0  0  0  0  0  0
   21.6529   -5.2096  -13.5605 C   0  0  0  0  0  0  0  0  0  0  0  0
   21.8058   -4.8116  -15.0174 C   0  0  2  0  0  0  0  0  0  0  0  0
   22.6618   -5.8634  -15.6088 N   0  0  0  0  0  0  0  0  0  0  0  0
   22.5233   -3.5141  -15.0804 C   0  0  0  0  0  0  0  0  0  0  0  0
   21.9948   -2.3075  -14.6503 O   0  0  0  0  0  0  0  0  0  0  0  0
   19.3684   -6.1392  -13.7780 C   0  0  0  0  0  0  0  0  0  0  0  0
   18.4062   -7.1128  -13.5383 C   0  0  0  0  0  0  0  0  0  0  0  0
   23.6860   -3.5060  -15.5544 O   0  0  0  0  0  0  0  0  0  0  0  0
  2  1  1  0
  2  3  2  0
  4  2  1  0
  5  4  1  0
  5  6  1  1
  7  5  1  0
  7  8  2  0
 10  9  1  0
 11 10  1  6
 11 12  1  0
 12  7  1  0
 13 22  1  0
 13 11  1  0
 14 13  2  0
 16 15  1  0
 16 26  2  0
 17 16  1  0
 18 17  2  0
 18 19  1  0
 19 20  1  0
 19 25  2  0
 21 20  1  1
 21 22  1  0
 21 23  1  0
 23 27  2  0
 23 24  1  0
 25 26  1  0
M  END
$$$$
