NSY.pdb
     RDKit          3D

 27 27  0  0  1  0  0  0  0  0999 V2000
   29.6760  -19.8582  -16.4903 N   0  0  0  0  0  0  0  0  0  0  0  0
   28.4238  -19.1474  -16.4158 C   0  0  0  0  0  0  0  0  0  0  0  0
   28.4093  -18.0536  -17.0144 O   0  0  0  0  0  0  0  0  0  0  0  0
   27.2774  -19.6826  -15.6911 C   0  0  0  0  0  0  0  0  0  0  0  0
   27.4539  -21.0038  -14.9977 C   0  0  2  0  0  0  0  0  0  0  0  0
   27.6411  -22.0070  -16.0576 N   0  0  0  0  0  0  0  0  0  0  0  0
   26.3402  -21.4008  -14.1140 C   0  0  0  0  0  0  0  0  0  0  0  0
   25.3687  -22.0162  -14.5914 O   0  0  0  0  0  0  0  0  0  0  0  0
   25.6600  -19.7608  -10.3133 O   0  0  0  0  0  0  0  0  0  0  0  0
   25.4683  -21.1289  -10.4858 C   0  0  0  0  0  0  0  0  0  0  0  0
   25.1573  -21.3643  -11.9514 C   0  0  2  0  0  0  0  0  0  0  0  0
   26.3395  -21.0970  -12.7107 N   0  0  0  0  0  0  0  0  0  0  0  0
   24.0123  -20.5143  -12.3624 C   0  0  0  0  0  0  0  0  0  0  0  0
   24.1382  -19.3372  -12.7893 O   0  0  0  0  0  0  0  0  0  0  0  0
   17.7838  -16.9459  -16.7767 O   0  0  0  0  0  0  0  0  0  0  0  0
   18.7480  -17.7263  -16.1464 C   0  0  0  0  0  0  0  0  0  0  0  0
   19.8650  -17.1040  -15.6123 C   0  0  0  0  0  0  0  0  0  0  0  0
   20.8343  -17.8481  -14.9844 C   0  0  0  0  0  0  0  0  0  0  0  0
   20.7206  -19.2384  -14.8686 C   0  0  0  0  0  0  0  0  0  0  0  0
   21.7643  -20.0180  -14.2044 C   0  0  0  0  0  0  0  0  0  0  0  0
   21.5600  -20.2107  -12.7125 C   0  0  2  0  0  0  0  0  0  0  0  0
   22.7059  -21.0393  -12.2779 N   0  0  0  0  0  0  0  0  0  0  0  0
   20.3053  -20.9747  -12.5019 C   0  0  0  0  0  0  0  0  0  0  0  0
   19.0984  -20.4066  -12.1264 O   0  0  0  0  0  0  0  0  0  0  0  0
   19.6083  -19.8207  -15.4058 C   0  0  0  0  0  0  0  0  0  0  0  0
   18.6163  -19.0866  -16.0448 C   0  0  0  0  0  0  0  0  0  0  0  0
   20.3363  -22.2180  -12.6745 O   0  0  0  0  0  0  0  0  0  0  0  0
  2  1  1  0
  2  3  2  0
  4  2  1  0
  5  4  1  0
  5  6  1  6
  7  5  1  0
  7  8  2  0
 10  9  1  0
 11 10  1  1
 11 12  1  0
 12  7  1  0
 13 22  1  0
 13 11  1  0
 14 13  2  0
 16 15  1  0
 16 26  2  0
 17 16  1  0
 18 17  2  0
 18 19  1  0
 19 20  1  0
 19 25  2  0
 21 20  1  6
 21 22  1  0
 21 23  1  0
 23 27  2  0
 23 24  1  0
 25 26  1  0
M  END
$$$$
