NSY.pdb
     RDKit          3D

 27 27  0  0  1  0  0  0  0  0999 V2000
   30.2926  -24.7801  -18.0227 N   0  0  0  0  0  0  0  0  0  0  0  0
   30.8171  -24.0615  -16.8879 C   0  0  0  0  0  0  0  0  0  0  0  0
   31.9133  -24.4809  -16.4671 O   0  0  0  0  0  0  0  0  0  0  0  0
   30.1048  -22.9365  -16.2937 C   0  0  0  0  0  0  0  0  0  0  0  0
   28.7239  -22.6434  -16.8084 C   0  0  2  0  0  0  0  0  0  0  0  0
   28.8841  -22.2203  -18.2085 N   0  0  0  0  0  0  0  0  0  0  0  0
   27.9777  -21.6197  -16.0509 C   0  0  0  0  0  0  0  0  0  0  0  0
   27.7596  -21.7932  -14.8374 O   0  0  0  0  0  0  0  0  0  0  0  0
   26.2436  -18.4025  -17.9065 O   0  0  0  0  0  0  0  0  0  0  0  0
   26.6815  -18.1733  -16.6050 C   0  0  0  0  0  0  0  0  0  0  0  0
   26.7102  -19.5113  -15.8916 C   0  0  2  0  0  0  0  0  0  0  0  0
   27.4897  -20.4211  -16.6728 N   0  0  0  0  0  0  0  0  0  0  0  0
   25.3230  -19.9917  -15.6737 C   0  0  0  0  0  0  0  0  0  0  0  0
   25.0303  -21.1966  -15.4586 O   0  0  0  0  0  0  0  0  0  0  0  0
   17.5204  -21.4890  -12.6065 O   0  0  0  0  0  0  0  0  0  0  0  0
   18.8174  -21.1537  -12.9829 C   0  0  0  0  0  0  0  0  0  0  0  0
   19.1395  -19.8160  -13.1467 C   0  0  0  0  0  0  0  0  0  0  0  0
   20.4117  -19.4539  -13.5182 C   0  0  0  0  0  0  0  0  0  0  0  0
   21.4048  -20.4155  -13.7384 C   0  0  0  0  0  0  0  0  0  0  0  0
   22.7523  -20.0154  -14.1411 C   0  0  0  0  0  0  0  0  0  0  0  0
   22.8703  -19.5404  -15.5781 C   0  0  2  0  0  0  0  0  0  0  0  0
   24.2641  -19.0605  -15.7045 N   0  0  0  0  0  0  0  0  0  0  0  0
   21.9466  -18.3956  -15.7751 C   0  0  0  0  0  0  0  0  0  0  0  0
   22.3412  -17.0674  -15.7916 O   0  0  0  0  0  0  0  0  0  0  0  0
   21.0547  -21.7245  -13.5689 C   0  0  0  0  0  0  0  0  0  0  0  0
   19.7740  -22.1120  -13.1935 C   0  0  0  0  0  0  0  0  0  0  0  0
   20.7266  -18.6439  -15.9375 O   0  0  0  0  0  0  0  0  0  0  0  0
  2  1  1  0
  2  3  2  0
  4  2  1  0
  5  4  1  0
  5  6  1  6
  7  5  1  0
  7  8  2  0
 10  9  1  0
 11 10  1  6
 11 12  1  0
 12  7  1  0
 13 22  1  0
 13 11  1  0
 14 13  2  0
 16 15  1  0
 16 26  2  0
 17 16  1  0
 18 17  2  0
 18 19  1  0
 19 20  1  0
 19 25  2  0
 21 20  1  1
 21 22  1  0
 21 23  1  0
 23 27  2  0
 23 24  1  0
 25 26  1  0
M  END
$$$$
