NSY.pdb
     RDKit          3D

 27 27  0  0  1  0  0  0  0  0999 V2000
   19.7937  -16.9145  -17.7403 N   0  0  0  0  0  0  0  0  0  0  0  0
   19.5126  -15.9614  -16.6955 C   0  0  0  0  0  0  0  0  0  0  0  0
   19.9412  -16.2817  -15.5692 O   0  0  0  0  0  0  0  0  0  0  0  0
   18.7818  -14.7270  -16.9566 C   0  0  0  0  0  0  0  0  0  0  0  0
   17.4918  -14.5179  -16.2151 C   0  0  2  0  0  0  0  0  0  0  0  0
   16.5494  -15.5237  -16.7299 N   0  0  0  0  0  0  0  0  0  0  0  0
   16.9103  -13.1669  -16.3393 C   0  0  0  0  0  0  0  0  0  0  0  0
   15.8535  -13.0111  -16.9790 O   0  0  0  0  0  0  0  0  0  0  0  0
   15.5638  -10.9113  -13.9676 O   0  0  0  0  0  0  0  0  0  0  0  0
   15.4814  -10.8468  -15.3559 C   0  0  0  0  0  0  0  0  0  0  0  0
   16.8962  -10.7426  -15.8920 C   0  0  2  0  0  0  0  0  0  0  0  0
   17.5289  -12.0166  -15.7429 N   0  0  0  0  0  0  0  0  0  0  0  0
   17.6216   -9.6600  -15.1818 C   0  0  0  0  0  0  0  0  0  0  0  0
   18.5330   -9.8700  -14.3398 O   0  0  0  0  0  0  0  0  0  0  0  0
   22.7136   -2.8817  -14.0876 O   0  0  0  0  0  0  0  0  0  0  0  0
   21.9134   -3.9791  -14.3904 C   0  0  0  0  0  0  0  0  0  0  0  0
   21.1011   -3.9230  -15.5116 C   0  0  0  0  0  0  0  0  0  0  0  0
   20.2996   -4.9907  -15.8361 C   0  0  0  0  0  0  0  0  0  0  0  0
   20.2826   -6.1501  -15.0520 C   0  0  0  0  0  0  0  0  0  0  0  0
   19.4184   -7.2753  -15.4055 C   0  0  0  0  0  0  0  0  0  0  0  0
   18.0330   -7.2304  -14.7864 C   0  0  2  0  0  0  0  0  0  0  0  0
   17.2848   -8.3178  -15.4546 N   0  0  0  0  0  0  0  0  0  0  0  0
   17.4037   -5.9308  -15.1294 C   0  0  0  0  0  0  0  0  0  0  0  0
   17.3957   -4.8230  -14.2971 O   0  0  0  0  0  0  0  0  0  0  0  0
   21.0942   -6.1730  -13.9540 C   0  0  0  0  0  0  0  0  0  0  0  0
   21.9124   -5.1043  -13.6082 C   0  0  0  0  0  0  0  0  0  0  0  0
   16.8406   -5.8254  -16.2467 O   0  0  0  0  0  0  0  0  0  0  0  0
  2  1  1  0
  2  3  2  0
  4  2  1  0
  5  4  1  0
  5  6  1  6
  7  5  1  0
  7  8  2  0
 10  9  1  0
 11 10  1  1
 11 12  1  0
 12  7  1  0
 13 22  1  0
 13 11  1  0
 14 13  2  0
 16 15  1  0
 16 26  2  0
 17 16  1  0
 18 17  2  0
 18 19  1  0
 19 20  1  0
 19 25  2  0
 21 20  1  6
 21 22  1  0
 21 23  1  0
 23 27  2  0
 23 24  1  0
 25 26  1  0
M  END
$$$$
