NSY.pdb
     RDKit          3D

 27 27  0  0  1  0  0  0  0  0999 V2000
   12.4348  -10.5190  -17.2609 N   0  0  0  0  0  0  0  0  0  0  0  0
   12.6236  -11.0066  -15.9172 C   0  0  0  0  0  0  0  0  0  0  0  0
   11.6591  -11.6480  -15.4555 O   0  0  0  0  0  0  0  0  0  0  0  0
   13.8529  -10.7569  -15.1739 C   0  0  0  0  0  0  0  0  0  0  0  0
   14.8419  -11.8838  -15.0756 C   0  0  2  0  0  0  0  0  0  0  0  0
   14.2852  -12.8412  -14.1068 N   0  0  0  0  0  0  0  0  0  0  0  0
   16.2049  -11.4871  -14.6714 C   0  0  0  0  0  0  0  0  0  0  0  0
   16.4858  -11.4057  -13.4611 O   0  0  0  0  0  0  0  0  0  0  0  0
   19.4482  -11.5775  -17.1795 O   0  0  0  0  0  0  0  0  0  0  0  0
   19.5489  -11.7237  -15.7986 C   0  0  0  0  0  0  0  0  0  0  0  0
   18.5214  -10.8044  -15.1670 C   0  0  2  0  0  0  0  0  0  0  0  0
   17.2258  -11.1882  -15.6358 N   0  0  0  0  0  0  0  0  0  0  0  0
   18.8482   -9.3930  -15.4886 C   0  0  0  0  0  0  0  0  0  0  0  0
   18.2542   -8.7266  -16.3755 O   0  0  0  0  0  0  0  0  0  0  0  0
   21.7694   -1.1718  -14.2854 O   0  0  0  0  0  0  0  0  0  0  0  0
   21.4310   -2.5168  -14.1728 C   0  0  0  0  0  0  0  0  0  0  0  0
   20.1010   -2.8830  -14.3042 C   0  0  0  0  0  0  0  0  0  0  0  0
   19.7360   -4.2032  -14.1974 C   0  0  0  0  0  0  0  0  0  0  0  0
   20.6868   -5.2018  -13.9561 C   0  0  0  0  0  0  0  0  0  0  0  0
   20.2822   -6.6019  -13.8371 C   0  0  0  0  0  0  0  0  0  0  0  0
   20.2733   -7.3732  -15.1447 C   0  0  2  0  0  0  0  0  0  0  0  0
   19.8764   -8.7482  -14.7699 N   0  0  0  0  0  0  0  0  0  0  0  0
   21.6545   -7.4010  -15.6867 C   0  0  0  0  0  0  0  0  0  0  0  0
   22.1435   -6.5065  -16.6252 O   0  0  0  0  0  0  0  0  0  0  0  0
   21.9882   -4.8075  -13.8314 C   0  0  0  0  0  0  0  0  0  0  0  0
   22.3786   -3.4779  -13.9360 C   0  0  0  0  0  0  0  0  0  0  0  0
   22.4336   -8.2928  -15.2693 O   0  0  0  0  0  0  0  0  0  0  0  0
  2  1  1  0
  2  3  2  0
  4  2  1  0
  5  4  1  0
  5  6  1  1
  7  5  1  0
  7  8  2  0
 10  9  1  0
 11 10  1  6
 11 12  1  0
 12  7  1  0
 13 22  1  0
 13 11  1  0
 14 13  2  0
 16 15  1  0
 16 26  2  0
 17 16  1  0
 18 17  2  0
 18 19  1  0
 19 20  1  0
 19 25  2  0
 21 20  1  1
 21 22  1  0
 21 23  1  0
 23 27  2  0
 23 24  1  0
 25 26  1  0
M  END
$$$$
