RTR.pdb
     RDKit          3D

 30 29  0  0  1  0  0  0  0  0999 V2000
   18.1261  -28.0040    1.1663 N   0  0  0  0  0  0  0  0  0  0  0  0
   16.9963  -27.1404    1.2508 C   0  0  0  0  0  0  0  0  0  0  0  0
   16.0271  -27.4681    2.0293 N   0  0  0  0  0  0  0  0  0  0  0  0
   16.9488  -25.9231    0.4743 N   0  0  0  0  0  0  0  0  0  0  0  0
   16.3730  -26.0139   -0.8372 C   0  0  0  0  0  0  0  0  0  0  0  0
   17.0019  -27.0269   -1.7177 C   0  0  0  0  0  0  0  0  0  0  0  0
   17.8632  -26.5647   -2.8191 C   0  0  0  0  0  0  0  0  0  0  0  0
   17.2387  -25.6125   -3.8117 C   0  0  2  0  0  0  0  0  0  0  0  0
   15.8403  -25.7795   -3.9436 N   0  0  0  0  0  0  0  0  0  0  0  0
   18.0304  -25.6760   -5.0646 C   0  0  0  0  0  0  0  0  0  0  0  0
   19.3157  -25.6435   -5.0118 O   0  0  0  0  0  0  0  0  0  0  0  0
   15.2572  -26.7882    2.1758 C   0  0  0  0  0  0  0  0  0  0  0  0
   18.8147  -28.3273   -7.6070 C   0  0  2  0  0  0  0  0  0  0  0  0
   18.1729  -27.1510   -8.3040 O   0  0  0  0  0  0  0  0  0  0  0  0
   16.8014  -27.3979   -8.3383 C   0  0  2  0  0  0  0  0  0  0  0  0
   18.3654  -25.8569   -7.5436 N   0  0  0  0  0  0  0  0  0  0  0  0
   17.5023  -25.7716   -6.3757 C   0  0  0  0  0  0  0  0  0  0  0  0
   18.0944  -24.7083   -8.4780 O   0  0  0  0  0  0  0  0  0  0  0  0
   17.0035  -24.0929   -8.3893 N   0  0  0  0  0  0  0  0  0  0  0  0
   21.9231  -20.0340  -13.8608 C   0  0  0  0  0  0  0  0  0  0  0  0
   20.7023  -19.3115  -13.8379 N   0  0  0  0  0  0  0  0  0  0  0  0
   20.4125  -18.5494  -14.8228 N   0  0  0  0  0  0  0  0  0  0  0  0
   19.8109  -19.4282  -12.7412 C   0  0  0  0  0  0  0  0  0  0  0  0
   20.0342  -20.4035  -11.7161 C   0  0  0  0  0  0  0  0  0  0  0  0
   19.8202  -21.8175  -12.2139 C   0  0  0  0  0  0  0  0  0  0  0  0
   20.0205  -22.8534  -11.1452 C   0  0  1  0  0  0  0  0  0  0  0  0
   18.7661  -23.2261  -10.4182 N   0  0  0  0  0  0  0  0  0  0  0  0
   19.0252  -24.3010   -9.4494 C   0  0  0  0  0  0  0  0  0  0  0  0
   17.6760  -23.7017  -11.2989 O   0  0  0  0  0  0  0  0  0  0  0  0
   16.7725  -22.8044  -11.8517 O   0  0  0  0  0  0  0  0  0  0  0  0
  2  3  2  0
  2  1  1  0
  4  2  1  0
  5  4  1  0
  6  7  1  0
  6  5  1  0
  8 10  1  0
  8  7  1  0
  8  9  1  6
 10 11  2  0
 13 12  1  6
 13 14  1  0
 15 13  1  0
 16 10  1  0
 15 16  1  6
 17 15  1  0
 18 17  2  0
 19 20  1  0
 20 22  1  0
 21 20  2  0
 22 23  1  0
 23 24  1  0
 24 25  1  0
 26 25  1  1
 26 28  1  0
 26 27  1  0
 27 17  1  0
 28 29  1  0
 30 28  2  0
M  END
$$$$
