RTR.pdb
     RDKit          3D

 30 29  0  0  1  0  0  0  0  0999 V2000
   27.8285  -26.2612  -16.7633 N   0  0  0  0  0  0  0  0  0  0  0  0
   26.6410  -26.8649  -17.2680 C   0  0  0  0  0  0  0  0  0  0  0  0
   26.6070  -28.1434  -17.3981 N   0  0  0  0  0  0  0  0  0  0  0  0
   25.5027  -26.0496  -17.6240 N   0  0  0  0  0  0  0  0  0  0  0  0
   25.5551  -24.6654  -17.2488 C   0  0  0  0  0  0  0  0  0  0  0  0
   25.7752  -24.4266  -15.8026 C   0  0  0  0  0  0  0  0  0  0  0  0
   24.8064  -23.5926  -15.0715 C   0  0  0  0  0  0  0  0  0  0  0  0
   24.6985  -22.1483  -15.5005 C   0  0  2  0  0  0  0  0  0  0  0  0
   25.9543  -21.5271  -15.6953 N   0  0  0  0  0  0  0  0  0  0  0  0
   23.7631  -21.4658  -14.5732 C   0  0  0  0  0  0  0  0  0  0  0  0
   24.1265  -20.3834  -13.9796 O   0  0  0  0  0  0  0  0  0  0  0  0
   25.7405  -28.5818  -17.7632 C   0  0  0  0  0  0  0  0  0  0  0  0
   20.6130  -19.9591  -15.6401 C   0  0  2  0  0  0  0  0  0  0  0  0
   21.2670  -19.7355  -14.2970 O   0  0  0  0  0  0  0  0  0  0  0  0
   20.3719  -18.9938  -13.5278 C   0  0  1  0  0  0  0  0  0  0  0  0
   21.5129  -21.0308  -13.5544 N   0  0  0  0  0  0  0  0  0  0  0  0
   22.4518  -21.8954  -14.2525 C   0  0  0  0  0  0  0  0  0  0  0  0
   20.1947  -21.7336  -13.3691 O   0  0  0  0  0  0  0  0  0  0  0  0
   19.6195  -22.2271  -14.3702 N   0  0  0  0  0  0  0  0  0  0  0  0
   17.0937  -25.1725   -5.7768 C   0  0  0  0  0  0  0  0  0  0  0  0
   17.6739  -26.1346   -6.6431 N   0  0  0  0  0  0  0  0  0  0  0  0
   17.7873  -27.3435   -6.2424 N   0  0  0  0  0  0  0  0  0  0  0  0
   18.1240  -25.7679   -7.9368 C   0  0  0  0  0  0  0  0  0  0  0  0
   18.0115  -24.4156   -8.3957 C   0  0  0  0  0  0  0  0  0  0  0  0
   18.3595  -24.2773   -9.8630 C   0  0  0  0  0  0  0  0  0  0  0  0
   18.1996  -22.8748  -10.3753 C   0  0  2  0  0  0  0  0  0  0  0  0
   18.4364  -22.7352  -11.8468 N   0  0  0  0  0  0  0  0  0  0  0  0
   19.5849  -21.8557  -12.1085 C   0  0  0  0  0  0  0  0  0  0  0  0
   17.2897  -22.1698  -12.5923 O   0  0  0  0  0  0  0  0  0  0  0  0
   16.4615  -22.9921  -13.3438 O   0  0  0  0  0  0  0  0  0  0  0  0
  2  3  2  0
  2  1  1  0
  4  2  1  0
  5  4  1  0
  6  7  1  0
  6  5  1  0
  8 10  1  0
  8  7  1  0
  8  9  1  1
 10 11  2  0
 13 12  1  6
 13 14  1  0
 15 13  1  0
 16 10  1  0
 15 16  1  6
 17 15  1  0
 18 17  2  0
 19 20  1  0
 20 22  1  0
 21 20  2  0
 22 23  1  0
 23 24  1  0
 24 25  1  0
 26 25  1  1
 26 28  1  0
 26 27  1  0
 27 17  1  0
 28 29  1  0
 30 28  2  0
M  END
$$$$
