RTR.pdb
     RDKit          3D

 30 29  0  0  1  0  0  0  0  0999 V2000
   18.5214  -22.4655  -10.6792 N   0  0  0  0  0  0  0  0  0  0  0  0
   17.9451  -23.6507  -11.2203 C   0  0  0  0  0  0  0  0  0  0  0  0
   17.1774  -24.3599  -10.4717 N   0  0  0  0  0  0  0  0  0  0  0  0
   18.2229  -24.0404  -12.5834 N   0  0  0  0  0  0  0  0  0  0  0  0
   19.2402  -23.3001  -13.2738 C   0  0  0  0  0  0  0  0  0  0  0  0
   20.0763  -22.4409  -12.4021 C   0  0  0  0  0  0  0  0  0  0  0  0
   21.0708  -21.5558  -13.0315 C   0  0  0  0  0  0  0  0  0  0  0  0
   20.8062  -21.1516  -14.4627 C   0  0  2  0  0  0  0  0  0  0  0  0
   20.6590  -22.2535  -15.3372 N   0  0  0  0  0  0  0  0  0  0  0  0
   21.8200  -20.1384  -14.8452 C   0  0  0  0  0  0  0  0  0  0  0  0
   22.4068  -19.4445  -13.9341 O   0  0  0  0  0  0  0  0  0  0  0  0
   16.7913  -25.2439  -10.8536 C   0  0  0  0  0  0  0  0  0  0  0  0
   24.5432  -20.2697  -14.5200 C   0  0  2  0  0  0  0  0  0  0  0  0
   24.6854  -19.7810  -15.9422 O   0  0  0  0  0  0  0  0  0  0  0  0
   24.8505  -20.9087  -16.7447 C   0  0  2  0  0  0  0  0  0  0  0  0
   23.4420  -19.0725  -16.4338 N   0  0  0  0  0  0  0  0  0  0  0  0
   22.2323  -19.8350  -16.1661 C   0  0  0  0  0  0  0  0  0  0  0  0
   23.5860  -18.8236  -17.9114 O   0  0  0  0  0  0  0  0  0  0  0  0
   23.0076  -19.5913  -18.7194 N   0  0  0  0  0  0  0  0  0  0  0  0
   17.0710  -16.3078  -18.9425 C   0  0  0  0  0  0  0  0  0  0  0  0
   17.6023  -16.4675  -20.2482 N   0  0  0  0  0  0  0  0  0  0  0  0
   16.7990  -16.5965  -21.2347 N   0  0  0  0  0  0  0  0  0  0  0  0
   19.0037  -16.4846  -20.4640 C   0  0  0  0  0  0  0  0  0  0  0  0
   19.9158  -16.3799  -19.3643 C   0  0  0  0  0  0  0  0  0  0  0  0
   21.3615  -16.4205  -19.8128 C   0  0  0  0  0  0  0  0  0  0  0  0
   22.3328  -16.4026  -18.6676 C   0  0  2  0  0  0  0  0  0  0  0  0
   23.7606  -16.5838  -19.0795 N   0  0  0  0  0  0  0  0  0  0  0  0
   24.3489  -17.7571  -18.4176 C   0  0  0  0  0  0  0  0  0  0  0  0
   24.6329  -15.4324  -18.7576 O   0  0  0  0  0  0  0  0  0  0  0  0
   25.3987  -14.8287  -19.7455 O   0  0  0  0  0  0  0  0  0  0  0  0
  2  3  2  0
  2  1  1  0
  4  2  1  0
  5  4  1  0
  6  7  1  0
  6  5  1  0
  8 10  1  0
  8  7  1  0
  8  9  1  6
 10 11  2  0
 13 12  1  1
 13 14  1  0
 15 13  1  0
 16 10  1  0
 15 16  1  6
 17 15  1  0
 18 17  2  0
 19 20  1  0
 20 22  1  0
 21 20  2  0
 22 23  1  0
 23 24  1  0
 24 25  1  0
 26 25  1  6
 26 28  1  0
 26 27  1  0
 27 17  1  0
 28 29  1  0
 30 28  2  0
M  END
$$$$
