RTR.pdb
     RDKit          3D

 30 29  0  0  1  0  0  0  0  0999 V2000
   23.7266  -13.5135  -15.5986 N   0  0  0  0  0  0  0  0  0  0  0  0
   23.0020  -12.3986  -16.1099 C   0  0  0  0  0  0  0  0  0  0  0  0
   23.3825  -11.2146  -15.7843 N   0  0  0  0  0  0  0  0  0  0  0  0
   21.8640  -12.6033  -16.9760 N   0  0  0  0  0  0  0  0  0  0  0  0
   21.7324  -13.9001  -17.5765 C   0  0  0  0  0  0  0  0  0  0  0  0
   20.9342  -14.8673  -16.7863 C   0  0  0  0  0  0  0  0  0  0  0  0
   21.5770  -16.1169  -16.3463 C   0  0  0  0  0  0  0  0  0  0  0  0
   21.7766  -17.1815  -17.3991 C   0  0  2  0  0  0  0  0  0  0  0  0
   20.5999  -17.4770  -18.1262 N   0  0  0  0  0  0  0  0  0  0  0  0
   22.4621  -18.3317  -16.7604 C   0  0  0  0  0  0  0  0  0  0  0  0
   21.7716  -19.3250  -16.3217 O   0  0  0  0  0  0  0  0  0  0  0  0
   22.8594  -10.4035  -16.1648 C   0  0  0  0  0  0  0  0  0  0  0  0
   24.7901  -20.7606  -18.2489 C   0  0  2  0  0  0  0  0  0  0  0  0
   25.4353  -20.3174  -16.9570 O   0  0  0  0  0  0  0  0  0  0  0  0
   26.3739  -19.3407  -17.2859 C   0  0  2  0  0  0  0  0  0  0  0  0
   24.4454  -19.6720  -16.0117 N   0  0  0  0  0  0  0  0  0  0  0  0
   23.8597  -18.4629  -16.5699 C   0  0  0  0  0  0  0  0  0  0  0  0
   25.1514  -19.3613  -14.7190 O   0  0  0  0  0  0  0  0  0  0  0  0
   25.8288  -18.3078  -14.6308 N   0  0  0  0  0  0  0  0  0  0  0  0
   23.8413  -21.6681   -7.9148 C   0  0  0  0  0  0  0  0  0  0  0  0
   25.1027  -21.4553   -7.3013 N   0  0  0  0  0  0  0  0  0  0  0  0
   25.3494  -22.0135   -6.1777 N   0  0  0  0  0  0  0  0  0  0  0  0
   26.0811  -20.6362   -7.9197 C   0  0  0  0  0  0  0  0  0  0  0  0
   25.9311  -20.2164   -9.2811 C   0  0  0  0  0  0  0  0  0  0  0  0
   26.5492  -21.1976  -10.2549 C   0  0  0  0  0  0  0  0  0  0  0  0
   25.7816  -21.3123  -11.5405 C   0  0  2  0  0  0  0  0  0  0  0  0
   26.0676  -20.2157  -12.5184 N   0  0  0  0  0  0  0  0  0  0  0  0
   25.0768  -20.2145  -13.6044 C   0  0  0  0  0  0  0  0  0  0  0  0
   27.3990  -20.3087  -13.1580 O   0  0  0  0  0  0  0  0  0  0  0  0
   27.7035  -21.3660  -14.0043 O   0  0  0  0  0  0  0  0  0  0  0  0
  2  3  2  0
  2  1  1  0
  4  2  1  0
  5  4  1  0
  6  7  1  0
  6  5  1  0
  8 10  1  0
  8  7  1  0
  8  9  1  1
 10 11  2  0
 13 12  1  6
 13 14  1  0
 15 13  1  0
 16 10  1  0
 15 16  1  1
 17 15  1  0
 18 17  2  0
 19 20  1  0
 20 22  1  0
 21 20  2  0
 22 23  1  0
 23 24  1  0
 24 25  1  0
 26 25  1  1
 26 28  1  0
 26 27  1  0
 27 17  1  0
 28 29  1  0
 30 28  2  0
M  END
$$$$
