RTR.pdb
     RDKit          3D

 30 29  0  0  1  0  0  0  0  0999 V2000
   26.3799  -21.0100   -9.5608 N   0  0  0  0  0  0  0  0  0  0  0  0
   25.2049  -21.7407   -9.8998 C   0  0  0  0  0  0  0  0  0  0  0  0
   24.3048  -21.9129   -8.9982 N   0  0  0  0  0  0  0  0  0  0  0  0
   25.0362  -22.2738  -11.2319 N   0  0  0  0  0  0  0  0  0  0  0  0
   25.3346  -21.3924  -12.3245 C   0  0  0  0  0  0  0  0  0  0  0  0
   26.7274  -20.8859  -12.3453 C   0  0  0  0  0  0  0  0  0  0  0  0
   27.1462  -20.0236  -13.4632 C   0  0  0  0  0  0  0  0  0  0  0  0
   27.2262  -20.6732  -14.8246 C   0  0  2  0  0  0  0  0  0  0  0  0
   28.5522  -20.8398  -15.2880 N   0  0  0  0  0  0  0  0  0  0  0  0
   26.2985  -19.9513  -15.7296 C   0  0  0  0  0  0  0  0  0  0  0  0
   26.6422  -18.8140  -16.2238 O   0  0  0  0  0  0  0  0  0  0  0  0
   23.4856  -22.5087   -9.2227 C   0  0  0  0  0  0  0  0  0  0  0  0
   22.8827  -19.7639  -19.2167 C   0  0  2  0  0  0  0  0  0  0  0  0
   23.7351  -20.5261  -18.2298 O   0  0  0  0  0  0  0  0  0  0  0  0
   24.8729  -20.9474  -18.9162 C   0  0  1  0  0  0  0  0  0  0  0  0
   24.2109  -19.6548  -17.0877 N   0  0  0  0  0  0  0  0  0  0  0  0
   25.0139  -20.3964  -16.1276 C   0  0  0  0  0  0  0  0  0  0  0  0
   23.0077  -19.0559  -16.4098 O   0  0  0  0  0  0  0  0  0  0  0  0
   22.3443  -19.7596  -15.6090 N   0  0  0  0  0  0  0  0  0  0  0  0
   19.2798  -10.8467  -16.9452 C   0  0  0  0  0  0  0  0  0  0  0  0
   18.3806  -11.6360  -16.1829 N   0  0  0  0  0  0  0  0  0  0  0  0
   17.3069  -11.1017  -15.7394 N   0  0  0  0  0  0  0  0  0  0  0  0
   18.6619  -12.9994  -15.9128 C   0  0  0  0  0  0  0  0  0  0  0  0
   19.9059  -13.5845  -16.3154 C   0  0  0  0  0  0  0  0  0  0  0  0
   19.9773  -15.0613  -15.9880 C   0  0  0  0  0  0  0  0  0  0  0  0
   21.2364  -15.7129  -16.4832 C   0  0  1  0  0  0  0  0  0  0  0  0
   21.3840  -17.1433  -16.0671 N   0  0  0  0  0  0  0  0  0  0  0  0
   22.6014  -17.7309  -16.6446 C   0  0  0  0  0  0  0  0  0  0  0  0
   20.2575  -18.0110  -16.4773 O   0  0  0  0  0  0  0  0  0  0  0  0
   19.2795  -18.3779  -15.5630 O   0  0  0  0  0  0  0  0  0  0  0  0
  2  3  2  0
  2  1  1  0
  4  2  1  0
  5  4  1  0
  6  7  1  0
  6  5  1  0
  8 10  1  0
  8  7  1  0
  8  9  1  6
 10 11  2  0
 13 12  1  6
 13 14  1  0
 15 13  1  0
 16 10  1  0
 15 16  1  1
 17 15  1  0
 18 17  2  0
 19 20  1  0
 20 22  1  0
 21 20  2  0
 22 23  1  0
 23 24  1  0
 24 25  1  0
 26 25  1  1
 26 28  1  0
 26 27  1  0
 27 17  1  0
 28 29  1  0
 30 28  2  0
M  END
$$$$
