RTR.pdb
     RDKit          3D

 30 29  0  0  1  0  0  0  0  0999 V2000
   19.8651  -24.3715  -13.3926 N   0  0  0  0  0  0  0  0  0  0  0  0
   19.5862  -25.7662  -13.4731 C   0  0  0  0  0  0  0  0  0  0  0  0
   18.3617  -26.1450  -13.5724 N   0  0  0  0  0  0  0  0  0  0  0  0
   20.6633  -26.7285  -13.4429 N   0  0  0  0  0  0  0  0  0  0  0  0
   21.8408  -26.4060  -14.1973 C   0  0  0  0  0  0  0  0  0  0  0  0
   21.8686  -26.9700  -15.5677 C   0  0  0  0  0  0  0  0  0  0  0  0
   21.5991  -26.0725  -16.7037 C   0  0  0  0  0  0  0  0  0  0  0  0
   22.7938  -25.6366  -17.5189 C   0  0  2  0  0  0  0  0  0  0  0  0
   23.6924  -26.6913  -17.8029 N   0  0  0  0  0  0  0  0  0  0  0  0
   23.3734  -24.4342  -16.8715 C   0  0  0  0  0  0  0  0  0  0  0  0
   24.6425  -24.3646  -16.6707 O   0  0  0  0  0  0  0  0  0  0  0  0
   18.1589  -27.1617  -13.6122 C   0  0  0  0  0  0  0  0  0  0  0  0
   22.0669  -20.5735  -17.5188 C   0  0  2  0  0  0  0  0  0  0  0  0
   22.4450  -20.8689  -16.0865 O   0  0  0  0  0  0  0  0  0  0  0  0
   21.2625  -21.1489  -15.4037 C   0  0  2  0  0  0  0  0  0  0  0  0
   23.3215  -22.0964  -15.9647 N   0  0  0  0  0  0  0  0  0  0  0  0
   22.6491  -23.3006  -16.4274 C   0  0  0  0  0  0  0  0  0  0  0  0
   23.7333  -22.2490  -14.5248 O   0  0  0  0  0  0  0  0  0  0  0  0
   23.0700  -23.0089  -13.7770 N   0  0  0  0  0  0  0  0  0  0  0  0
   31.2877  -21.1917  -10.0747 C   0  0  0  0  0  0  0  0  0  0  0  0
   30.2987  -20.9668   -9.0828 N   0  0  0  0  0  0  0  0  0  0  0  0
   30.6660  -20.7331   -7.8805 N   0  0  0  0  0  0  0  0  0  0  0  0
   28.9199  -20.9992   -9.4128 C   0  0  0  0  0  0  0  0  0  0  0  0
   28.4940  -21.0116  -10.7804 C   0  0  0  0  0  0  0  0  0  0  0  0
   26.9864  -20.9581  -10.9117 C   0  0  0  0  0  0  0  0  0  0  0  0
   26.5215  -20.9259  -12.3393 C   0  0  1  0  0  0  0  0  0  0  0  0
   25.2280  -21.6422  -12.5730 N   0  0  0  0  0  0  0  0  0  0  0  0
   24.8390  -21.5666  -13.9887 C   0  0  0  0  0  0  0  0  0  0  0  0
   24.0913  -21.1071  -11.7909 O   0  0  0  0  0  0  0  0  0  0  0  0
   23.2115  -20.1949  -12.3574 O   0  0  0  0  0  0  0  0  0  0  0  0
  2  3  2  0
  2  1  1  0
  4  2  1  0
  5  4  1  0
  6  7  1  0
  6  5  1  0
  8 10  1  0
  8  7  1  0
  8  9  1  1
 10 11  2  0
 13 12  1  1
 13 14  1  0
 15 13  1  0
 16 10  1  0
 15 16  1  1
 17 15  1  0
 18 17  2  0
 19 20  1  0
 20 22  1  0
 21 20  2  0
 22 23  1  0
 23 24  1  0
 24 25  1  0
 26 25  1  6
 26 28  1  0
 26 27  1  0
 27 17  1  0
 28 29  1  0
 30 28  2  0
M  END
$$$$
