RTR.pdb
     RDKit          3D

 30 29  0  0  1  0  0  0  0  0999 V2000
   30.2594  -25.6630  -17.8273 N   0  0  0  0  0  0  0  0  0  0  0  0
   28.9889  -25.4088  -17.2351 C   0  0  0  0  0  0  0  0  0  0  0  0
   28.8497  -25.5964  -15.9710 N   0  0  0  0  0  0  0  0  0  0  0  0
   27.8849  -24.9496  -18.0459 N   0  0  0  0  0  0  0  0  0  0  0  0
   28.1699  -24.6568  -19.4217 C   0  0  0  0  0  0  0  0  0  0  0  0
   28.8774  -23.3736  -19.6450 C   0  0  0  0  0  0  0  0  0  0  0  0
   28.0769  -22.1518  -19.8326 C   0  0  0  0  0  0  0  0  0  0  0  0
   28.6195  -20.8862  -19.2117 C   0  0  2  0  0  0  0  0  0  0  0  0
   30.0329  -20.8377  -19.1844 N   0  0  0  0  0  0  0  0  0  0  0  0
   27.9286  -20.6820  -17.9149 C   0  0  0  0  0  0  0  0  0  0  0  0
   28.3626  -21.2746  -16.8583 O   0  0  0  0  0  0  0  0  0  0  0  0
   27.9520  -25.3275  -15.5257 C   0  0  0  0  0  0  0  0  0  0  0  0
   25.9914  -17.9777  -14.5044 C   0  0  2  0  0  0  0  0  0  0  0  0
   26.7223  -18.3293  -15.7786 O   0  0  0  0  0  0  0  0  0  0  0  0
   28.0647  -18.4983  -15.4434 C   0  0  1  0  0  0  0  0  0  0  0  0
   26.2506  -19.6403  -16.3691 N   0  0  0  0  0  0  0  0  0  0  0  0
   26.7885  -19.8687  -17.7014 C   0  0  0  0  0  0  0  0  0  0  0  0
   24.7458  -19.6334  -16.4079 O   0  0  0  0  0  0  0  0  0  0  0  0
   24.1592  -18.8830  -17.2261 N   0  0  0  0  0  0  0  0  0  0  0  0
   18.3955  -22.4604  -11.4927 C   0  0  0  0  0  0  0  0  0  0  0  0
   17.7608  -22.7321  -12.7321 N   0  0  0  0  0  0  0  0  0  0  0  0
   16.4864  -22.8298  -12.7695 N   0  0  0  0  0  0  0  0  0  0  0  0
   18.5226  -22.8942  -13.9170 C   0  0  0  0  0  0  0  0  0  0  0  0
   19.9523  -22.8098  -13.8862 C   0  0  0  0  0  0  0  0  0  0  0  0
   20.4723  -21.6096  -14.6492 C   0  0  0  0  0  0  0  0  0  0  0  0
   21.9694  -21.5909  -14.7659 C   0  0  1  0  0  0  0  0  0  0  0  0
   22.5039  -20.4228  -15.5345 N   0  0  0  0  0  0  0  0  0  0  0  0
   23.9737  -20.4417  -15.5557 C   0  0  0  0  0  0  0  0  0  0  0  0
   22.1036  -19.1065  -14.9891 O   0  0  0  0  0  0  0  0  0  0  0  0
   21.0757  -18.3818  -15.5765 O   0  0  0  0  0  0  0  0  0  0  0  0
  2  3  2  0
  2  1  1  0
  4  2  1  0
  5  4  1  0
  6  7  1  0
  6  5  1  0
  8 10  1  0
  8  7  1  0
  8  9  1  1
 10 11  2  0
 13 12  1  6
 13 14  1  0
 15 13  1  0
 16 10  1  0
 15 16  1  6
 17 15  1  0
 18 17  2  0
 19 20  1  0
 20 22  1  0
 21 20  2  0
 22 23  1  0
 23 24  1  0
 24 25  1  0
 26 25  1  6
 26 28  1  0
 26 27  1  0
 27 17  1  0
 28 29  1  0
 30 28  2  0
M  END
$$$$
