RTR.pdb
     RDKit          3D

 30 29  0  0  1  0  0  0  0  0999 V2000
   30.1609  -22.9738  -10.7831 N   0  0  0  0  0  0  0  0  0  0  0  0
   31.2707  -22.0824  -10.8399 C   0  0  0  0  0  0  0  0  0  0  0  0
   32.4565  -22.5769  -10.8879 N   0  0  0  0  0  0  0  0  0  0  0  0
   31.0592  -20.6534  -10.8431 N   0  0  0  0  0  0  0  0  0  0  0  0
   29.7064  -20.1995  -10.9971 C   0  0  0  0  0  0  0  0  0  0  0  0
   28.9690  -20.8286  -12.1185 C   0  0  0  0  0  0  0  0  0  0  0  0
   27.5974  -20.3736  -12.4020 C   0  0  0  0  0  0  0  0  0  0  0  0
   26.8918  -21.0358  -13.5620 C   0  0  2  0  0  0  0  0  0  0  0  0
   27.5993  -20.9285  -14.7822 N   0  0  0  0  0  0  0  0  0  0  0  0
   25.4864  -20.5610  -13.5719 C   0  0  0  0  0  0  0  0  0  0  0  0
   25.2282  -19.3315  -13.8503 O   0  0  0  0  0  0  0  0  0  0  0  0
   33.2659  -21.9288  -10.8514 C   0  0  0  0  0  0  0  0  0  0  0  0
   23.7098  -19.1780  -15.2128 C   0  0  2  0  0  0  0  0  0  0  0  0
   22.7538  -20.2903  -14.8516 O   0  0  0  0  0  0  0  0  0  0  0  0
   23.0001  -21.3404  -15.7345 C   0  0  2  0  0  0  0  0  0  0  0  0
   22.9950  -20.8257  -13.4570 N   0  0  0  0  0  0  0  0  0  0  0  0
   24.3426  -21.3492  -13.2942 C   0  0  0  0  0  0  0  0  0  0  0  0
   21.9797  -21.9008  -13.1751 O   0  0  0  0  0  0  0  0  0  0  0  0
   22.2624  -23.0940  -13.4455 N   0  0  0  0  0  0  0  0  0  0  0  0
   16.3048  -25.2202   -8.0102 C   0  0  0  0  0  0  0  0  0  0  0  0
   17.3849  -24.4183   -7.5597 N   0  0  0  0  0  0  0  0  0  0  0  0
   17.9872  -24.7376   -6.4779 N   0  0  0  0  0  0  0  0  0  0  0  0
   17.7964  -23.2769   -8.2937 C   0  0  0  0  0  0  0  0  0  0  0  0
   17.1025  -22.8812   -9.4828 C   0  0  0  0  0  0  0  0  0  0  0  0
   17.8585  -23.2576  -10.7397 C   0  0  0  0  0  0  0  0  0  0  0  0
   18.9841  -22.3143  -11.0533 C   0  0  1  0  0  0  0  0  0  0  0  0
   19.7138  -22.6391  -12.3193 N   0  0  0  0  0  0  0  0  0  0  0  0
   20.7221  -21.6118  -12.6178 C   0  0  0  0  0  0  0  0  0  0  0  0
   18.8417  -22.7373  -13.5110 O   0  0  0  0  0  0  0  0  0  0  0  0
   18.1561  -23.9117  -13.7895 O   0  0  0  0  0  0  0  0  0  0  0  0
  2  3  2  0
  2  1  1  0
  4  2  1  0
  5  4  1  0
  6  7  1  0
  6  5  1  0
  8 10  1  0
  8  7  1  0
  8  9  1  6
 10 11  2  0
 13 12  1  6
 13 14  1  0
 15 13  1  0
 16 10  1  0
 15 16  1  1
 17 15  1  0
 18 17  2  0
 19 20  1  0
 20 22  1  0
 21 20  2  0
 22 23  1  0
 23 24  1  0
 24 25  1  0
 26 25  1  1
 26 28  1  0
 26 27  1  0
 27 17  1  0
 28 29  1  0
 30 28  2  0
M  END
$$$$
