SLW.pdb
     RDKit          3D

 29 30  0  0  1  0  0  0  0  0999 V2000
   25.6899  -16.8799  -16.6290 O   0  0  0  0  0  0  0  0  0  0  0  0
   27.0438  -16.8238  -16.3207 C   0  0  0  0  0  0  0  0  0  0  0  0
   27.5939  -18.2350  -16.2986 C   0  0  2  0  0  0  0  0  0  0  0  0
   27.7349  -18.6648  -17.6761 N   0  0  0  0  0  0  0  0  0  0  0  0
   26.7189  -19.1747  -15.5806 C   0  0  0  0  0  0  0  0  0  0  0  0
   25.9387  -19.9105  -16.2364 O   0  0  0  0  0  0  0  0  0  0  0  0
   25.8303  -20.7062   -9.5971 C   0  0  0  0  0  0  0  0  0  0  0  0
   25.3742  -20.8208  -11.0167 C   0  0  2  0  0  0  0  0  0  0  0  0
   25.3360  -22.2774  -11.4366 C   0  0  0  0  0  0  0  0  0  0  0  0
   26.2795  -20.1027  -11.9573 C   0  0  0  0  0  0  0  0  0  0  0  0
   25.7952  -20.0744  -13.3924 C   0  0  2  0  0  0  0  0  0  0  0  0
   26.7345  -19.2697  -14.1732 N   0  0  0  0  0  0  0  0  0  0  0  0
   24.4634  -19.4461  -13.3710 C   0  0  0  0  0  0  0  0  0  0  0  0
   24.3137  -18.3367  -12.8392 O   0  0  0  0  0  0  0  0  0  0  0  0
   23.3738  -20.1125  -13.9553 N   0  0  0  0  0  0  0  0  0  0  0  0
   21.9972  -19.6033  -13.9512 C   0  0  1  0  0  0  0  0  0  0  0  0
   21.7340  -18.7799  -15.1545 C   0  0  0  0  0  0  0  0  0  0  0  0
   21.6924  -19.5672  -16.3887 C   0  0  0  0  0  0  0  0  0  0  0  0
   20.8139  -20.6495  -16.5436 C   0  0  0  0  0  0  0  0  0  0  0  0
   21.0505  -21.1658  -17.7497 N   0  0  0  0  0  0  0  0  0  0  0  0
   22.0201  -20.4801  -18.3664 C   0  0  0  0  0  0  0  0  0  0  0  0
   22.5623  -20.6670  -19.6301 C   0  0  0  0  0  0  0  0  0  0  0  0
   23.5476  -19.8043  -20.0421 C   0  0  0  0  0  0  0  0  0  0  0  0
   23.9719  -18.7800  -19.1966 C   0  0  0  0  0  0  0  0  0  0  0  0
   23.4239  -18.6046  -17.9388 C   0  0  0  0  0  0  0  0  0  0  0  0
   22.4431  -19.4672  -17.5329 C   0  0  0  0  0  0  0  0  0  0  0  0
   21.0919  -20.6792  -13.6228 C   0  0  0  0  0  0  0  0  0  0  0  0
   19.7453  -20.5846  -13.2994 O   0  0  0  0  0  0  0  0  0  0  0  0
   21.5428  -21.8790  -13.6117 O   0  0  0  0  0  0  0  0  0  0  0  0
  1  2  1  0
  2  3  1  0
  3  5  1  0
  3  4  1  6
  5  6  2  0
  8 10  1  0
  8  7  1  1
  9  8  1  0
 11 10  1  1
 11 13  1  0
 12  5  1  0
 12 11  1  0
 13 14  2  0
 15 13  1  0
 15 16  1  0
 16 27  1  0
 16 17  1  6
 18 19  2  0
 18 17  1  0
 20 19  1  0
 21 26  2  0
 21 20  1  0
 22 21  1  0
 23 24  1  0
 23 22  2  0
 24 25  2  0
 25 26  1  0
 26 18  1  0
 27 28  1  0
 29 27  2  0
M  END
$$$$
