SLW.pdb
     RDKit          3D

 29 30  0  0  1  0  0  0  0  0999 V2000
   21.7133  -18.3492  -16.4813 O   0  0  0  0  0  0  0  0  0  0  0  0
   22.1708  -19.5809  -16.9336 C   0  0  0  0  0  0  0  0  0  0  0  0
   23.6231  -19.4383  -17.3399 C   0  0  2  0  0  0  0  0  0  0  0  0
   23.6657  -19.4180  -18.7890 N   0  0  0  0  0  0  0  0  0  0  0  0
   24.4631  -20.5383  -16.8416 C   0  0  0  0  0  0  0  0  0  0  0  0
   24.2846  -21.6990  -17.2903 O   0  0  0  0  0  0  0  0  0  0  0  0
   28.1105  -21.3658  -17.7069 C   0  0  0  0  0  0  0  0  0  0  0  0
   28.2018  -20.3516  -16.6116 C   0  0  2  0  0  0  0  0  0  0  0  0
   29.6387  -19.8997  -16.4373 C   0  0  0  0  0  0  0  0  0  0  0  0
   27.7365  -20.8936  -15.3040 C   0  0  0  0  0  0  0  0  0  0  0  0
   26.3012  -21.3779  -15.3029 C   0  0  2  0  0  0  0  0  0  0  0  0
   25.4646  -20.3217  -15.8720 N   0  0  0  0  0  0  0  0  0  0  0  0
   25.9447  -21.6233  -13.8952 C   0  0  0  0  0  0  0  0  0  0  0  0
   26.4303  -22.5939  -13.2966 O   0  0  0  0  0  0  0  0  0  0  0  0
   25.0558  -20.7525  -13.2439 N   0  0  0  0  0  0  0  0  0  0  0  0
   24.7084  -20.8416  -11.8206 C   0  0  1  0  0  0  0  0  0  0  0  0
   25.3212  -19.7303  -11.0559 C   0  0  0  0  0  0  0  0  0  0  0  0
   26.6845  -20.0259  -10.6102 C   0  0  0  0  0  0  0  0  0  0  0  0
   27.7016  -20.3561  -11.5176 C   0  0  0  0  0  0  0  0  0  0  0  0
   28.7957  -20.5989  -10.7956 N   0  0  0  0  0  0  0  0  0  0  0  0
   28.5361  -20.4429   -9.4922 C   0  0  0  0  0  0  0  0  0  0  0  0
   29.3856  -20.5805   -8.4035 C   0  0  0  0  0  0  0  0  0  0  0  0
   28.8726  -20.3435   -7.1524 C   0  0  0  0  0  0  0  0  0  0  0  0
   27.5351  -19.9771   -7.0081 C   0  0  0  0  0  0  0  0  0  0  0  0
   26.6982  -19.8438   -8.1013 C   0  0  0  0  0  0  0  0  0  0  0  0
   27.2140  -20.0817   -9.3456 C   0  0  0  0  0  0  0  0  0  0  0  0
   23.2918  -21.0886  -11.6902 C   0  0  0  0  0  0  0  0  0  0  0  0
   22.5649  -21.2547  -10.5194 O   0  0  0  0  0  0  0  0  0  0  0  0
   22.5836  -21.1773  -12.7549 O   0  0  0  0  0  0  0  0  0  0  0  0
  1  2  1  0
  2  3  1  0
  3  5  1  0
  3  4  1  6
  5  6  2  0
  8 10  1  0
  8  7  1  6
  9  8  1  0
 11 10  1  1
 11 13  1  0
 12  5  1  0
 12 11  1  0
 13 14  2  0
 15 13  1  0
 15 16  1  0
 16 27  1  0
 16 17  1  1
 18 19  2  0
 18 17  1  0
 20 19  1  0
 21 26  2  0
 21 20  1  0
 22 21  1  0
 23 24  1  0
 23 22  2  0
 24 25  2  0
 25 26  1  0
 26 18  1  0
 27 28  1  0
 29 27  2  0
M  END
$$$$
