SLW.pdb
     RDKit          3D

 29 30  0  0  1  0  0  0  0  0999 V2000
   23.1850  -18.9812  -11.8187 O   0  0  0  0  0  0  0  0  0  0  0  0
   23.0312  -18.1825  -12.9454 C   0  0  0  0  0  0  0  0  0  0  0  0
   24.0894  -18.5665  -13.9589 C   0  0  2  0  0  0  0  0  0  0  0  0
   23.4168  -18.7786  -15.2257 N   0  0  0  0  0  0  0  0  0  0  0  0
   24.8198  -19.7869  -13.5830 C   0  0  0  0  0  0  0  0  0  0  0  0
   24.3368  -20.9082  -13.8825 O   0  0  0  0  0  0  0  0  0  0  0  0
   30.4729  -19.7797  -13.9353 C   0  0  0  0  0  0  0  0  0  0  0  0
   29.0274  -20.1463  -14.0475 C   0  0  2  0  0  0  0  0  0  0  0  0
   28.2718  -19.0665  -14.7974 C   0  0  0  0  0  0  0  0  0  0  0  0
   28.3832  -20.3057  -12.7135 C   0  0  0  0  0  0  0  0  0  0  0  0
   26.9725  -20.8557  -12.7620 C   0  0  2  0  0  0  0  0  0  0  0  0
   26.0496  -19.7287  -12.8945 N   0  0  0  0  0  0  0  0  0  0  0  0
   26.7552  -21.5600  -11.4870 C   0  0  0  0  0  0  0  0  0  0  0  0
   27.3942  -22.5919  -11.2361 O   0  0  0  0  0  0  0  0  0  0  0  0
   25.8237  -21.0534  -10.5659 N   0  0  0  0  0  0  0  0  0  0  0  0
   25.5590  -21.6468   -9.2498 C   0  0  1  0  0  0  0  0  0  0  0  0
   26.8064  -21.7552   -8.4577 C   0  0  0  0  0  0  0  0  0  0  0  0
   27.0764  -20.5642   -7.6494 C   0  0  0  0  0  0  0  0  0  0  0  0
   26.5779  -19.3027   -8.0059 C   0  0  0  0  0  0  0  0  0  0  0  0
   27.0288  -18.4407   -7.0944 N   0  0  0  0  0  0  0  0  0  0  0  0
   27.7784  -19.0754   -6.1857 C   0  0  0  0  0  0  0  0  0  0  0  0
   28.4234  -18.5666   -5.0672 C   0  0  0  0  0  0  0  0  0  0  0  0
   29.1225  -19.4417   -4.2733 C   0  0  0  0  0  0  0  0  0  0  0  0
   29.1669  -20.7956   -4.6037 C   0  0  0  0  0  0  0  0  0  0  0  0
   28.5203  -21.2903   -5.7219 C   0  0  0  0  0  0  0  0  0  0  0  0
   27.8257  -20.4142   -6.5098 C   0  0  0  0  0  0  0  0  0  0  0  0
   24.4054  -21.0076   -8.6620 C   0  0  0  0  0  0  0  0  0  0  0  0
   23.9624  -21.0997   -7.3497 O   0  0  0  0  0  0  0  0  0  0  0  0
   23.6724  -20.2620   -9.4034 O   0  0  0  0  0  0  0  0  0  0  0  0
  1  2  1  0
  2  3  1  0
  3  5  1  0
  3  4  1  6
  5  6  2  0
  8 10  1  0
  8  7  1  1
  9  8  1  0
 11 10  1  1
 11 13  1  0
 12  5  1  0
 12 11  1  0
 13 14  2  0
 15 13  1  0
 15 16  1  0
 16 27  1  0
 16 17  1  1
 18 19  2  0
 18 17  1  0
 20 19  1  0
 21 26  2  0
 21 20  1  0
 22 21  1  0
 23 24  1  0
 23 22  2  0
 24 25  2  0
 25 26  1  0
 26 18  1  0
 27 28  1  0
 29 27  2  0
M  END
$$$$
