SLW.pdb
     RDKit          3D

 29 30  0  0  1  0  0  0  0  0999 V2000
   27.9076  -24.6269  -18.3141 O   0  0  0  0  0  0  0  0  0  0  0  0
   28.1810  -24.4028  -16.9702 C   0  0  0  0  0  0  0  0  0  0  0  0
   29.1562  -23.2489  -16.8606 C   0  0  2  0  0  0  0  0  0  0  0  0
   30.4785  -23.8169  -16.6834 N   0  0  0  0  0  0  0  0  0  0  0  0
   28.8534  -22.3543  -15.7328 C   0  0  0  0  0  0  0  0  0  0  0  0
   29.4686  -22.5054  -14.6470 O   0  0  0  0  0  0  0  0  0  0  0  0
   26.9341  -17.7672  -13.3176 C   0  0  0  0  0  0  0  0  0  0  0  0
   27.3579  -17.9315  -14.7424 C   0  0  2  0  0  0  0  0  0  0  0  0
   26.8105  -16.7951  -15.5840 C   0  0  0  0  0  0  0  0  0  0  0  0
   26.8653  -19.2084  -15.3313 C   0  0  0  0  0  0  0  0  0  0  0  0
   27.4932  -20.4534  -14.7393 C   0  0  2  0  0  0  0  0  0  0  0  0
   27.8890  -21.3305  -15.8409 N   0  0  0  0  0  0  0  0  0  0  0  0
   26.4549  -21.0915  -13.9125 C   0  0  0  0  0  0  0  0  0  0  0  0
   26.1022  -22.2547  -14.1552 O   0  0  0  0  0  0  0  0  0  0  0  0
   25.8737  -20.3735  -12.8545 N   0  0  0  0  0  0  0  0  0  0  0  0
   25.2011  -20.9950  -11.7074 C   0  0  1  0  0  0  0  0  0  0  0  0
   26.1727  -21.3214  -10.6376 C   0  0  0  0  0  0  0  0  0  0  0  0
   26.3563  -20.2297   -9.6788 C   0  0  0  0  0  0  0  0  0  0  0  0
   26.1777  -18.8880  -10.0461 C   0  0  0  0  0  0  0  0  0  0  0  0
   26.4528  -18.1552   -8.9670 N   0  0  0  0  0  0  0  0  0  0  0  0
   26.7926  -18.9462   -7.9426 C   0  0  0  0  0  0  0  0  0  0  0  0
   27.1368  -18.6030   -6.6428 C   0  0  0  0  0  0  0  0  0  0  0  0
   27.4287  -19.6172   -5.7648 C   0  0  0  0  0  0  0  0  0  0  0  0
   27.3735  -20.9432   -6.1921 C   0  0  0  0  0  0  0  0  0  0  0  0
   27.0296  -21.2724   -7.4909 C   0  0  0  0  0  0  0  0  0  0  0  0
   26.7403  -20.2582   -8.3618 C   0  0  0  0  0  0  0  0  0  0  0  0
   24.0200  -20.2329  -11.3770 C   0  0  0  0  0  0  0  0  0  0  0  0
   23.6123  -19.0232  -11.9219 O   0  0  0  0  0  0  0  0  0  0  0  0
   23.2288  -20.6867  -10.4765 O   0  0  0  0  0  0  0  0  0  0  0  0
  1  2  1  0
  2  3  1  0
  3  5  1  0
  3  4  1  1
  5  6  2  0
  8 10  1  0
  8  7  1  1
  9  8  1  0
 11 10  1  6
 11 13  1  0
 12  5  1  0
 12 11  1  0
 13 14  2  0
 15 13  1  0
 15 16  1  0
 16 27  1  0
 16 17  1  1
 18 19  2  0
 18 17  1  0
 20 19  1  0
 21 26  2  0
 21 20  1  0
 22 21  1  0
 23 24  1  0
 23 22  2  0
 24 25  2  0
 25 26  1  0
 26 18  1  0
 27 28  1  0
 29 27  2  0
M  END
$$$$
