SLW.pdb
     RDKit          3D

 29 30  0  0  1  0  0  0  0  0999 V2000
   18.4644   -8.3129  -22.6111 O   0  0  0  0  0  0  0  0  0  0  0  0
   19.4826   -8.3295  -21.6656 C   0  0  0  0  0  0  0  0  0  0  0  0
   20.7482   -7.8003  -22.3079 C   0  0  2  0  0  0  0  0  0  0  0  0
   21.1900   -8.7903  -23.2707 N   0  0  0  0  0  0  0  0  0  0  0  0
   21.8211   -7.5552  -21.3317 C   0  0  0  0  0  0  0  0  0  0  0  0
   22.7243   -8.4168  -21.1828 O   0  0  0  0  0  0  0  0  0  0  0  0
   23.3432   -2.6691  -21.3801 C   0  0  0  0  0  0  0  0  0  0  0  0
   22.6817   -3.9469  -20.9722 C   0  0  2  0  0  0  0  0  0  0  0  0
   21.3201   -3.6604  -20.3694 C   0  0  0  0  0  0  0  0  0  0  0  0
   23.4778   -4.6925  -19.9572 C   0  0  0  0  0  0  0  0  0  0  0  0
   22.9187   -6.0547  -19.6013 C   0  0  2  0  0  0  0  0  0  0  0  0
   21.8606   -6.3759  -20.5587 N   0  0  0  0  0  0  0  0  0  0  0  0
   22.3712   -5.9381  -18.2391 C   0  0  0  0  0  0  0  0  0  0  0  0
   21.3071   -5.3306  -18.0525 O   0  0  0  0  0  0  0  0  0  0  0  0
   23.0622   -6.5184  -17.1629 N   0  0  0  0  0  0  0  0  0  0  0  0
   22.5468   -6.5818  -15.7900 C   0  0  1  0  0  0  0  0  0  0  0  0
   22.3059   -7.9849  -15.3797 C   0  0  0  0  0  0  0  0  0  0  0  0
   23.5238   -8.7981  -15.3790 C   0  0  0  0  0  0  0  0  0  0  0  0
   24.5248   -8.6260  -14.4117 C   0  0  0  0  0  0  0  0  0  0  0  0
   25.4998   -9.4842  -14.7120 N   0  0  0  0  0  0  0  0  0  0  0  0
   25.1797  -10.1870  -15.8047 C   0  0  0  0  0  0  0  0  0  0  0  0
   25.8948  -11.1876  -16.4477 C   0  0  0  0  0  0  0  0  0  0  0  0
   25.3308  -11.7728  -17.5541 C   0  0  0  0  0  0  0  0  0  0  0  0
   24.0762  -11.3557  -17.9970 C   0  0  0  0  0  0  0  0  0  0  0  0
   23.3737  -10.3567  -17.3477 C   0  0  0  0  0  0  0  0  0  0  0  0
   23.9403   -9.7764  -16.2463 C   0  0  0  0  0  0  0  0  0  0  0  0
   23.3437   -5.7273  -14.9417 C   0  0  0  0  0  0  0  0  0  0  0  0
   23.1193   -5.4090  -13.6093 O   0  0  0  0  0  0  0  0  0  0  0  0
   24.3876   -5.1723  -15.4366 O   0  0  0  0  0  0  0  0  0  0  0  0
  1  2  1  0
  2  3  1  0
  3  5  1  0
  3  4  1  6
  5  6  2  0
  8 10  1  0
  8  7  1  1
  9  8  1  0
 11 10  1  6
 11 13  1  0
 12  5  1  0
 12 11  1  0
 13 14  2  0
 15 13  1  0
 15 16  1  0
 16 27  1  0
 16 17  1  1
 18 19  2  0
 18 17  1  0
 20 19  1  0
 21 26  2  0
 21 20  1  0
 22 21  1  0
 23 24  1  0
 23 22  2  0
 24 25  2  0
 25 26  1  0
 26 18  1  0
 27 28  1  0
 29 27  2  0
M  END
$$$$
