SLW.pdb
     RDKit          3D

 29 30  0  0  1  0  0  0  0  0999 V2000
   25.0075  -35.0156  -15.2938 O   0  0  0  0  0  0  0  0  0  0  0  0
   24.8648  -33.7052  -14.8538 C   0  0  0  0  0  0  0  0  0  0  0  0
   25.4389  -32.7768  -15.9040 C   0  0  2  0  0  0  0  0  0  0  0  0
   26.8791  -32.7737  -15.7363 N   0  0  0  0  0  0  0  0  0  0  0  0
   24.9301  -31.4016  -15.7859 C   0  0  0  0  0  0  0  0  0  0  0  0
   25.5899  -30.5572  -15.1286 O   0  0  0  0  0  0  0  0  0  0  0  0
   24.1286  -27.8058  -18.4341 C   0  0  0  0  0  0  0  0  0  0  0  0
   23.2987  -29.0192  -18.7086 C   0  0  2  0  0  0  0  0  0  0  0  0
   22.4213  -28.7874  -19.9235 C   0  0  0  0  0  0  0  0  0  0  0  0
   22.4066  -29.3601  -17.5650 C   0  0  0  0  0  0  0  0  0  0  0  0
   23.1359  -29.6716  -16.2743 C   0  0  2  0  0  0  0  0  0  0  0  0
   23.7192  -31.0076  -16.3928 N   0  0  0  0  0  0  0  0  0  0  0  0
   22.1240  -29.6379  -15.2047 C   0  0  0  0  0  0  0  0  0  0  0  0
   21.2180  -30.4836  -15.1865 O   0  0  0  0  0  0  0  0  0  0  0  0
   22.1963  -28.6453  -14.2138 N   0  0  0  0  0  0  0  0  0  0  0  0
   21.2618  -28.5347  -13.0874 C   0  0  1  0  0  0  0  0  0  0  0  0
   21.7514  -27.5570  -12.0876 C   0  0  0  0  0  0  0  0  0  0  0  0
   21.2193  -26.2089  -12.2975 C   0  0  0  0  0  0  0  0  0  0  0  0
   21.7969  -25.3236  -13.2194 C   0  0  0  0  0  0  0  0  0  0  0  0
   21.1071  -24.1854  -13.1418 N   0  0  0  0  0  0  0  0  0  0  0  0
   20.1318  -24.2944  -12.2322 C   0  0  0  0  0  0  0  0  0  0  0  0
   19.1787  -23.3615  -11.8484 C   0  0  0  0  0  0  0  0  0  0  0  0
   18.2638  -23.7310  -10.8939 C   0  0  0  0  0  0  0  0  0  0  0  0
   18.3132  -25.0110  -10.3430 C   0  0  0  0  0  0  0  0  0  0  0  0
   19.2688  -25.9317  -10.7336 C   0  0  0  0  0  0  0  0  0  0  0  0
   20.1783  -25.5583  -11.6844 C   0  0  0  0  0  0  0  0  0  0  0  0
   19.9160  -28.4082  -13.5952 C   0  0  0  0  0  0  0  0  0  0  0  0
   18.7347  -28.7751  -12.9653 O   0  0  0  0  0  0  0  0  0  0  0  0
   19.7450  -27.9080  -14.7628 O   0  0  0  0  0  0  0  0  0  0  0  0
  1  2  1  0
  2  3  1  0
  3  5  1  0
  3  4  1  1
  5  6  2  0
  8 10  1  0
  8  7  1  1
  9  8  1  0
 11 10  1  6
 11 13  1  0
 12  5  1  0
 12 11  1  0
 13 14  2  0
 15 13  1  0
 15 16  1  0
 16 27  1  0
 16 17  1  6
 18 19  2  0
 18 17  1  0
 20 19  1  0
 21 26  2  0
 21 20  1  0
 22 21  1  0
 23 24  1  0
 23 22  2  0
 24 25  2  0
 25 26  1  0
 26 18  1  0
 27 28  1  0
 29 27  2  0
M  END
$$$$
