SLW.pdb
     RDKit          3D

 29 30  0  0  1  0  0  0  0  0999 V2000
   26.3333  -18.7103  -15.1422 O   0  0  0  0  0  0  0  0  0  0  0  0
   26.8754  -19.6964  -15.9576 C   0  0  0  0  0  0  0  0  0  0  0  0
   27.6517  -20.6674  -15.0921 C   0  0  2  0  0  0  0  0  0  0  0  0
   28.1187  -21.7356  -15.9541 N   0  0  0  0  0  0  0  0  0  0  0  0
   26.8384  -21.2359  -14.0061 C   0  0  0  0  0  0  0  0  0  0  0  0
   26.0138  -22.1476  -14.2693 O   0  0  0  0  0  0  0  0  0  0  0  0
   24.8775  -19.9345   -9.2327 C   0  0  0  0  0  0  0  0  0  0  0  0
   25.9925  -20.9175   -9.0685 C   0  0  2  0  0  0  0  0  0  0  0  0
   26.8668  -20.5236   -7.8939 C   0  0  0  0  0  0  0  0  0  0  0  0
   26.8622  -20.9873  -10.2762 C   0  0  0  0  0  0  0  0  0  0  0  0
   26.1156  -21.2326  -11.5713 C   0  0  2  0  0  0  0  0  0  0  0  0
   26.9619  -20.7824  -12.6761 N   0  0  0  0  0  0  0  0  0  0  0  0
   24.8820  -20.4313  -11.4999 C   0  0  0  0  0  0  0  0  0  0  0  0
   24.9311  -19.2582  -11.1028 O   0  0  0  0  0  0  0  0  0  0  0  0
   23.6595  -21.0062  -11.8838 N   0  0  0  0  0  0  0  0  0  0  0  0
   22.7537  -20.4274  -12.8833 C   0  0  1  0  0  0  0  0  0  0  0  0
   23.4980  -20.0162  -14.0966 C   0  0  0  0  0  0  0  0  0  0  0  0
   22.6344  -19.4416  -15.1304 C   0  0  0  0  0  0  0  0  0  0  0  0
   21.5747  -18.5802  -14.8108 C   0  0  0  0  0  0  0  0  0  0  0  0
   20.9737  -18.2692  -15.9594 N   0  0  0  0  0  0  0  0  0  0  0  0
   21.5847  -18.8772  -16.9829 C   0  0  0  0  0  0  0  0  0  0  0  0
   21.2982  -18.8175  -18.3394 C   0  0  0  0  0  0  0  0  0  0  0  0
   22.0985  -19.5288  -19.1985 C   0  0  0  0  0  0  0  0  0  0  0  0
   23.1605  -20.2803  -18.6969 C   0  0  0  0  0  0  0  0  0  0  0  0
   23.4354  -20.3322  -17.3423 C   0  0  0  0  0  0  0  0  0  0  0  0
   22.6346  -19.6222  -16.4906 C   0  0  0  0  0  0  0  0  0  0  0  0
   21.5934  -21.2755  -13.0230 C   0  0  0  0  0  0  0  0  0  0  0  0
   20.2606  -20.8891  -13.0570 O   0  0  0  0  0  0  0  0  0  0  0  0
   21.7671  -22.5412  -13.1262 O   0  0  0  0  0  0  0  0  0  0  0  0
  1  2  1  0
  2  3  1  0
  3  5  1  0
  3  4  1  6
  5  6  2  0
  8 10  1  0
  8  7  1  6
  9  8  1  0
 11 10  1  1
 11 13  1  0
 12  5  1  0
 12 11  1  0
 13 14  2  0
 15 13  1  0
 15 16  1  0
 16 27  1  0
 16 17  1  6
 18 19  2  0
 18 17  1  0
 20 19  1  0
 21 26  2  0
 21 20  1  0
 22 21  1  0
 23 24  1  0
 23 22  2  0
 24 25  2  0
 25 26  1  0
 26 18  1  0
 27 28  1  0
 29 27  2  0
M  END
$$$$
