SLW.pdb
     RDKit          3D

 29 30  0  0  1  0  0  0  0  0999 V2000
   36.5549  -33.6850  -15.0453 O   0  0  0  0  0  0  0  0  0  0  0  0
   35.6432  -33.4099  -16.0574 C   0  0  0  0  0  0  0  0  0  0  0  0
   36.1483  -32.2253  -16.8549 C   0  0  2  0  0  0  0  0  0  0  0  0
   36.0341  -31.0544  -16.0074 N   0  0  0  0  0  0  0  0  0  0  0  0
   35.3858  -32.0079  -18.0940 C   0  0  0  0  0  0  0  0  0  0  0  0
   34.5666  -31.0561  -18.1519 O   0  0  0  0  0  0  0  0  0  0  0  0
   34.0831  -33.1593  -23.3752 C   0  0  0  0  0  0  0  0  0  0  0  0
   35.4421  -32.6847  -22.9695 C   0  0  2  0  0  0  0  0  0  0  0  0
   36.4893  -33.2210  -23.9262 C   0  0  0  0  0  0  0  0  0  0  0  0
   35.8087  -33.1369  -21.5980 C   0  0  0  0  0  0  0  0  0  0  0  0
   34.8893  -32.6305  -20.5058 C   0  0  2  0  0  0  0  0  0  0  0  0
   35.5521  -32.8423  -19.2192 N   0  0  0  0  0  0  0  0  0  0  0  0
   33.6559  -33.4305  -20.5944 C   0  0  0  0  0  0  0  0  0  0  0  0
   33.6361  -34.5846  -20.1428 O   0  0  0  0  0  0  0  0  0  0  0  0
   32.5120  -32.8758  -21.1912 N   0  0  0  0  0  0  0  0  0  0  0  0
   31.1446  -33.0754  -20.6964 C   0  0  1  0  0  0  0  0  0  0  0  0
   31.1075  -33.0415  -19.2156 C   0  0  0  0  0  0  0  0  0  0  0  0
   29.7529  -33.1703  -18.6741 C   0  0  0  0  0  0  0  0  0  0  0  0
   28.8226  -34.0666  -19.2203 C   0  0  0  0  0  0  0  0  0  0  0  0
   27.6921  -33.9134  -18.5305 N   0  0  0  0  0  0  0  0  0  0  0  0
   27.8479  -32.9800  -17.5846 C   0  0  0  0  0  0  0  0  0  0  0  0
   26.9380  -32.5226  -16.6418 C   0  0  0  0  0  0  0  0  0  0  0  0
   27.3560  -31.5586  -15.7582 C   0  0  0  0  0  0  0  0  0  0  0  0
   28.6604  -31.0711  -15.8280 C   0  0  0  0  0  0  0  0  0  0  0  0
   29.5578  -31.5347  -16.7730 C   0  0  0  0  0  0  0  0  0  0  0  0
   29.1363  -32.4947  -17.6513 C   0  0  0  0  0  0  0  0  0  0  0  0
   30.2398  -32.2331  -21.4426 C   0  0  0  0  0  0  0  0  0  0  0  0
   28.9161  -32.4926  -21.7700 O   0  0  0  0  0  0  0  0  0  0  0  0
   30.6682  -31.1061  -21.8776 O   0  0  0  0  0  0  0  0  0  0  0  0
  1  2  1  0
  2  3  1  0
  3  5  1  0
  3  4  1  1
  5  6  2  0
  8 10  1  0
  8  7  1  6
  9  8  1  0
 11 10  1  6
 11 13  1  0
 12  5  1  0
 12 11  1  0
 13 14  2  0
 15 13  1  0
 15 16  1  0
 16 27  1  0
 16 17  1  1
 18 19  2  0
 18 17  1  0
 20 19  1  0
 21 26  2  0
 21 20  1  0
 22 21  1  0
 23 24  1  0
 23 22  2  0
 24 25  2  0
 25 26  1  0
 26 18  1  0
 27 28  1  0
 29 27  2  0
M  END
$$$$
