SLW.pdb
     RDKit          3D

 29 30  0  0  1  0  0  0  0  0999 V2000
   28.4430  -24.9554  -18.6358 O   0  0  0  0  0  0  0  0  0  0  0  0
   28.7622  -24.4473  -17.3824 C   0  0  0  0  0  0  0  0  0  0  0  0
   30.1498  -23.8429  -17.4442 C   0  0  2  0  0  0  0  0  0  0  0  0
   30.2298  -23.0705  -18.6687 N   0  0  0  0  0  0  0  0  0  0  0  0
   31.2131  -24.8594  -17.4371 C   0  0  0  0  0  0  0  0  0  0  0  0
   31.8430  -25.0964  -18.4989 O   0  0  0  0  0  0  0  0  0  0  0  0
   35.1862  -25.1002  -15.4218 C   0  0  0  0  0  0  0  0  0  0  0  0
   33.9665  -25.2315  -14.5664 C   0  0  2  0  0  0  0  0  0  0  0  0
   34.3527  -25.2102  -13.1001 C   0  0  0  0  0  0  0  0  0  0  0  0
   33.2349  -26.5039  -14.8228 C   0  0  0  0  0  0  0  0  0  0  0  0
   32.5924  -26.5908  -16.1919 C   0  0  2  0  0  0  0  0  0  0  0  0
   31.5430  -25.5747  -16.2668 N   0  0  0  0  0  0  0  0  0  0  0  0
   32.0173  -27.9425  -16.2978 C   0  0  0  0  0  0  0  0  0  0  0  0
   32.7637  -28.9320  -16.2945 O   0  0  0  0  0  0  0  0  0  0  0  0
   30.6252  -28.0967  -16.4017 N   0  0  0  0  0  0  0  0  0  0  0  0
   29.9380  -29.3936  -16.4185 C   0  0  1  0  0  0  0  0  0  0  0  0
   28.7719  -29.3864  -15.5046 C   0  0  0  0  0  0  0  0  0  0  0  0
   28.0378  -30.6536  -15.5036 C   0  0  0  0  0  0  0  0  0  0  0  0
   28.5439  -31.7983  -14.8705 C   0  0  0  0  0  0  0  0  0  0  0  0
   27.6624  -32.7755  -15.0835 N   0  0  0  0  0  0  0  0  0  0  0  0
   26.6331  -32.3227  -15.8087 C   0  0  0  0  0  0  0  0  0  0  0  0
   25.4981  -32.9946  -16.2402 C   0  0  0  0  0  0  0  0  0  0  0  0
   24.5687  -32.2897  -16.9640 C   0  0  0  0  0  0  0  0  0  0  0  0
   24.7832  -30.9406  -17.2430 C   0  0  0  0  0  0  0  0  0  0  0  0
   25.9192  -30.2822  -16.8077 C   0  0  0  0  0  0  0  0  0  0  0  0
   26.8424  -30.9892  -16.0876 C   0  0  0  0  0  0  0  0  0  0  0  0
   29.7578  -29.8199  -17.7862 C   0  0  0  0  0  0  0  0  0  0  0  0
   29.6161  -31.1178  -18.2575 O   0  0  0  0  0  0  0  0  0  0  0  0
   29.7234  -28.9293  -18.7073 O   0  0  0  0  0  0  0  0  0  0  0  0
  1  2  1  0
  2  3  1  0
  3  5  1  0
  3  4  1  6
  5  6  2  0
  8 10  1  0
  8  7  1  6
  9  8  1  0
 11 10  1  1
 11 13  1  0
 12  5  1  0
 12 11  1  0
 13 14  2  0
 15 13  1  0
 15 16  1  0
 16 27  1  0
 16 17  1  6
 18 19  2  0
 18 17  1  0
 20 19  1  0
 21 26  2  0
 21 20  1  0
 22 21  1  0
 23 24  1  0
 23 22  2  0
 24 25  2  0
 25 26  1  0
 26 18  1  0
 27 28  1  0
 29 27  2  0
M  END
$$$$
