SLW.pdb
     RDKit          3D

 29 30  0  0  1  0  0  0  0  0999 V2000
   26.2441  -18.2643  -16.1012 O   0  0  0  0  0  0  0  0  0  0  0  0
   26.4863  -19.1066  -17.1796 C   0  0  0  0  0  0  0  0  0  0  0  0
   27.7811  -19.8520  -16.9302 C   0  0  2  0  0  0  0  0  0  0  0  0
   28.0071  -20.7180  -18.0709 N   0  0  0  0  0  0  0  0  0  0  0  0
   27.7435  -20.6611  -15.7022 C   0  0  0  0  0  0  0  0  0  0  0  0
   27.0750  -21.7257  -15.6886 O   0  0  0  0  0  0  0  0  0  0  0  0
   30.9407  -21.1006  -10.4253 C   0  0  0  0  0  0  0  0  0  0  0  0
   29.6731  -21.4024  -11.1592 C   0  0  2  0  0  0  0  0  0  0  0  0
   29.5446  -22.8961  -11.3864 C   0  0  0  0  0  0  0  0  0  0  0  0
   29.6229  -20.7364  -12.4911 C   0  0  0  0  0  0  0  0  0  0  0  0
   28.3269  -20.9463  -13.2468 C   0  0  2  0  0  0  0  0  0  0  0  0
   28.4399  -20.2708  -14.5392 N   0  0  0  0  0  0  0  0  0  0  0  0
   27.2642  -20.3351  -12.4305 C   0  0  0  0  0  0  0  0  0  0  0  0
   27.2443  -19.1071  -12.2640 O   0  0  0  0  0  0  0  0  0  0  0  0
   26.2818  -21.1524  -11.8480 N   0  0  0  0  0  0  0  0  0  0  0  0
   25.1297  -20.6461  -11.0925 C   0  0  1  0  0  0  0  0  0  0  0  0
   23.8570  -21.0825  -11.7130 C   0  0  0  0  0  0  0  0  0  0  0  0
   23.5900  -20.4253  -12.9942 C   0  0  0  0  0  0  0  0  0  0  0  0
   24.0900  -19.1478  -13.2858 C   0  0  0  0  0  0  0  0  0  0  0  0
   23.6418  -18.8287  -14.5001 N   0  0  0  0  0  0  0  0  0  0  0  0
   22.8924  -19.8210  -14.9943 C   0  0  0  0  0  0  0  0  0  0  0  0
   22.2497  -19.9109  -16.2210 C   0  0  0  0  0  0  0  0  0  0  0  0
   21.5503  -21.0590  -16.4989 C   0  0  0  0  0  0  0  0  0  0  0  0
   21.5032  -22.0883  -15.5595 C   0  0  0  0  0  0  0  0  0  0  0  0
   22.1476  -21.9862  -14.3398 C   0  0  0  0  0  0  0  0  0  0  0  0
   22.8425  -20.8400  -14.0675 C   0  0  0  0  0  0  0  0  0  0  0  0
   25.3428  -20.8808   -9.6838 C   0  0  0  0  0  0  0  0  0  0  0  0
   24.9641  -20.0697   -8.6229 O   0  0  0  0  0  0  0  0  0  0  0  0
   25.9537  -21.9489   -9.3251 O   0  0  0  0  0  0  0  0  0  0  0  0
  1  2  1  0
  2  3  1  0
  3  5  1  0
  3  4  1  6
  5  6  2  0
  8 10  1  0
  8  7  1  6
  9  8  1  0
 11 10  1  1
 11 13  1  0
 12  5  1  0
 12 11  1  0
 13 14  2  0
 15 13  1  0
 15 16  1  0
 16 27  1  0
 16 17  1  6
 18 19  2  0
 18 17  1  0
 20 19  1  0
 21 26  2  0
 21 20  1  0
 22 21  1  0
 23 24  1  0
 23 22  2  0
 24 25  2  0
 25 26  1  0
 26 18  1  0
 27 28  1  0
 29 27  2  0
M  END
$$$$
