CDF.pdb
     RDKit          3D

 26 26  0  0  1  0  0  0  0  0999 V2000
   23.1512  -19.7224  -14.4855 N   0  0  0  0  0  0  0  0  0  0  0  0
   23.5330  -19.8204  -13.0913 C   0  0  1  0  0  0  0  0  0  0  0  0
   22.3481  -20.3073  -12.2818 C   0  0  0  0  0  0  0  0  0  0  0  0
   22.5815  -20.0945  -10.5117 S   0  0  0  0  0  0  0  0  0  0  0  0
   24.7247  -20.6899  -12.9102 C   0  0  0  0  0  0  0  0  0  0  0  0
   24.7191  -21.8668  -13.3523 O   0  0  0  0  0  0  0  0  0  0  0  0
   25.8544  -20.1582  -12.2318 N   0  0  0  0  0  0  0  0  0  0  0  0
   27.0388  -20.9782  -12.0320 C   0  0  1  0  0  0  0  0  0  0  0  0
   28.2730  -20.3197  -12.5971 C   0  0  0  0  0  0  0  0  0  0  0  0
   28.0728  -19.8612  -13.9938 C   0  0  0  0  0  0  0  0  0  0  0  0
   27.7274  -20.7285  -14.8336 O   0  0  0  0  0  0  0  0  0  0  0  0
   27.2433  -21.1116  -10.5676 C   0  0  0  0  0  0  0  0  0  0  0  0
   28.3866  -21.0834  -10.0659 O   0  0  0  0  0  0  0  0  0  0  0  0
   28.2369  -18.5735  -14.4239 O   0  0  0  0  0  0  0  0  0  0  0  0
   26.1549  -21.2760   -9.6810 N   0  0  0  0  0  0  0  0  0  0  0  0
   26.2433  -21.1067   -8.2349 C   0  0  1  0  0  0  0  0  0  0  0  0
   26.9141  -19.8017   -7.8922 C   0  0  0  0  0  0  0  0  0  0  0  0
   27.6231  -19.8809   -6.6070 C   0  0  0  0  0  0  0  0  0  0  0  0
   28.2619  -18.7565   -6.0778 C   0  0  0  0  0  0  0  0  0  0  0  0
   28.9060  -18.8106   -4.8633 C   0  0  0  0  0  0  0  0  0  0  0  0
   28.9472  -19.9720   -4.1218 C   0  0  0  0  0  0  0  0  0  0  0  0
   28.3190  -21.0892   -4.6354 C   0  0  0  0  0  0  0  0  0  0  0  0
   27.6677  -21.0279   -5.8672 C   0  0  0  0  0  0  0  0  0  0  0  0
   24.9408  -21.2017   -7.5865 C   0  0  0  0  0  0  0  0  0  0  0  0
   24.8041  -21.4825   -6.3900 O   0  0  0  0  0  0  0  0  0  0  0  0
   23.7846  -20.9675   -8.3374 O   0  0  0  0  0  0  0  0  0  0  0  0
  2  1  1  6
  3  4  1  0
  3  2  1  0
  5  2  1  0
  5  6  2  0
  7  5  1  0
  8  7  1  0
  8 12  1  0
  8  9  1  6
 10 11  2  0
 10  9  1  0
 12 15  1  0
 13 12  2  0
 14 10  1  0
 15 16  1  0
 16 24  1  0
 17 18  1  0
 16 17  1  6
 18 23  2  0
 19 18  1  0
 19 20  2  0
 20 21  1  0
 21 22  2  0
 23 22  1  0
 24 25  2  0
 24 26  1  0
M  END
$$$$
