CDF.pdb
     RDKit          3D

 26 26  0  0  1  0  0  0  0  0999 V2000
   17.5438  -11.9328  -17.0075 N   0  0  0  0  0  0  0  0  0  0  0  0
   17.3489  -11.7947  -15.5785 C   0  0  1  0  0  0  0  0  0  0  0  0
   18.4257  -12.5732  -14.8497 C   0  0  0  0  0  0  0  0  0  0  0  0
   18.1831  -14.3522  -14.9471 S   0  0  0  0  0  0  0  0  0  0  0  0
   17.3198  -10.3672  -15.1657 C   0  0  0  0  0  0  0  0  0  0  0  0
   18.0946   -9.5386  -15.7076 O   0  0  0  0  0  0  0  0  0  0  0  0
   16.4025   -9.9731  -14.1545 N   0  0  0  0  0  0  0  0  0  0  0  0
   16.3316   -8.5824  -13.7349 C   0  0  1  0  0  0  0  0  0  0  0  0
   14.9144   -8.0655  -13.7598 C   0  0  0  0  0  0  0  0  0  0  0  0
   14.4863   -7.6721  -15.1247 C   0  0  0  0  0  0  0  0  0  0  0  0
   13.6069   -8.3819  -15.6721 O   0  0  0  0  0  0  0  0  0  0  0  0
   16.7973   -8.5203  -12.3265 C   0  0  0  0  0  0  0  0  0  0  0  0
   16.8834   -9.5497  -11.6247 O   0  0  0  0  0  0  0  0  0  0  0  0
   14.9782   -6.6017  -15.8192 O   0  0  0  0  0  0  0  0  0  0  0  0
   17.1622   -7.2961  -11.7217 N   0  0  0  0  0  0  0  0  0  0  0  0
   17.7992   -7.1860  -10.4141 C   0  0  1  0  0  0  0  0  0  0  0  0
   19.1380   -7.8773  -10.4148 C   0  0  0  0  0  0  0  0  0  0  0  0
   20.0567   -7.2729  -11.3903 C   0  0  0  0  0  0  0  0  0  0  0  0
   20.5698   -8.0301  -12.4465 C   0  0  0  0  0  0  0  0  0  0  0  0
   21.4093   -7.4691  -13.3812 C   0  0  0  0  0  0  0  0  0  0  0  0
   21.7768   -6.1423  -13.3138 C   0  0  0  0  0  0  0  0  0  0  0  0
   21.2754   -5.3847  -12.2740 C   0  0  0  0  0  0  0  0  0  0  0  0
   20.4248   -5.9592  -11.3297 C   0  0  0  0  0  0  0  0  0  0  0  0
   17.9355   -5.8007   -9.9804 C   0  0  0  0  0  0  0  0  0  0  0  0
   17.7781   -4.8390  -10.7416 O   0  0  0  0  0  0  0  0  0  0  0  0
   18.2585   -5.5305   -8.6468 O   0  0  0  0  0  0  0  0  0  0  0  0
  2  1  1  6
  3  4  1  0
  3  2  1  0
  5  2  1  0
  5  6  2  0
  7  5  1  0
  8  7  1  0
  8 12  1  0
  8  9  1  1
 10 11  2  0
 10  9  1  0
 12 15  1  0
 13 12  2  0
 14 10  1  0
 15 16  1  0
 16 24  1  0
 17 18  1  0
 16 17  1  6
 18 23  2  0
 19 18  1  0
 19 20  2  0
 20 21  1  0
 21 22  2  0
 23 22  1  0
 24 25  2  0
 24 26  1  0
M  END
$$$$
