CDF.pdb
     RDKit          3D

 26 26  0  0  1  0  0  0  0  0999 V2000
   28.4497  -20.0591  -14.8040 N   0  0  0  0  0  0  0  0  0  0  0  0
   27.9456  -18.8183  -14.2514 C   0  0  1  0  0  0  0  0  0  0  0  0
   27.3309  -17.9900  -15.3616 C   0  0  0  0  0  0  0  0  0  0  0  0
   27.8982  -16.2838  -15.3510 S   0  0  0  0  0  0  0  0  0  0  0  0
   26.9852  -19.0630  -13.1438 C   0  0  0  0  0  0  0  0  0  0  0  0
   26.4615  -18.0937  -12.5381 O   0  0  0  0  0  0  0  0  0  0  0  0
   26.6812  -20.4066  -12.7953 N   0  0  0  0  0  0  0  0  0  0  0  0
   25.7314  -20.6877  -11.7303 C   0  0  1  0  0  0  0  0  0  0  0  0
   25.0507  -22.0193  -11.9292 C   0  0  0  0  0  0  0  0  0  0  0  0
   24.3094  -22.0825  -13.2127 C   0  0  0  0  0  0  0  0  0  0  0  0
   23.4507  -21.1898  -13.4187 O   0  0  0  0  0  0  0  0  0  0  0  0
   26.4995  -20.7718  -10.4626 C   0  0  0  0  0  0  0  0  0  0  0  0
   27.7387  -20.9267  -10.4627 O   0  0  0  0  0  0  0  0  0  0  0  0
   24.4953  -23.0356  -14.1756 O   0  0  0  0  0  0  0  0  0  0  0  0
   25.8621  -20.6801   -9.2044 N   0  0  0  0  0  0  0  0  0  0  0  0
   26.5551  -20.7850   -7.9252 C   0  0  1  0  0  0  0  0  0  0  0  0
   27.6228  -19.7280   -7.8105 C   0  0  0  0  0  0  0  0  0  0  0  0
   28.2836  -19.7690   -6.4981 C   0  0  0  0  0  0  0  0  0  0  0  0
   27.9248  -18.8662   -5.4938 C   0  0  0  0  0  0  0  0  0  0  0  0
   28.5168  -18.9114   -4.2526 C   0  0  0  0  0  0  0  0  0  0  0  0
   29.4844  -19.8456   -3.9506 C   0  0  0  0  0  0  0  0  0  0  0  0
   29.8464  -20.7428   -4.9358 C   0  0  0  0  0  0  0  0  0  0  0  0
   29.2425  -20.6918   -6.1920 C   0  0  0  0  0  0  0  0  0  0  0  0
   25.6392  -20.7164   -6.7929 C   0  0  0  0  0  0  0  0  0  0  0  0
   24.5175  -20.2010   -6.8655 O   0  0  0  0  0  0  0  0  0  0  0  0
   26.0318  -21.2529   -5.5625 O   0  0  0  0  0  0  0  0  0  0  0  0
  2  1  1  6
  3  4  1  0
  3  2  1  0
  5  2  1  0
  5  6  2  0
  7  5  1  0
  8  7  1  0
  8 12  1  0
  8  9  1  6
 10 11  2  0
 10  9  1  0
 12 15  1  0
 13 12  2  0
 14 10  1  0
 15 16  1  0
 16 24  1  0
 17 18  1  0
 16 17  1  1
 18 23  2  0
 19 18  1  0
 19 20  2  0
 20 21  1  0
 21 22  2  0
 23 22  1  0
 24 25  2  0
 24 26  1  0
M  END
$$$$
