CDF.pdb
     RDKit          3D

 26 26  0  0  1  0  0  0  0  0999 V2000
   21.2183  -10.6260  -17.1691 N   0  0  0  0  0  0  0  0  0  0  0  0
   19.8542  -10.1921  -16.9452 C   0  0  1  0  0  0  0  0  0  0  0  0
   19.1122  -11.2586  -16.1651 C   0  0  0  0  0  0  0  0  0  0  0  0
   19.2364  -12.8852  -16.9214 S   0  0  0  0  0  0  0  0  0  0  0  0
   19.8048   -8.8712  -16.2656 C   0  0  0  0  0  0  0  0  0  0  0  0
   18.6968   -8.3362  -16.0076 O   0  0  0  0  0  0  0  0  0  0  0  0
   21.0307   -8.2404  -15.9212 N   0  0  0  0  0  0  0  0  0  0  0  0
   21.0258   -6.9279  -15.2946 C   0  0  1  0  0  0  0  0  0  0  0  0
   22.2707   -6.6987  -14.4739 C   0  0  0  0  0  0  0  0  0  0  0  0
   22.3328   -5.3222  -13.9240 C   0  0  0  0  0  0  0  0  0  0  0  0
   22.2331   -5.2020  -12.6780 O   0  0  0  0  0  0  0  0  0  0  0  0
   21.0244   -5.9177  -16.3826 C   0  0  0  0  0  0  0  0  0  0  0  0
   21.8625   -5.9579  -17.3076 O   0  0  0  0  0  0  0  0  0  0  0  0
   22.4893   -4.1886  -14.6726 O   0  0  0  0  0  0  0  0  0  0  0  0
   20.0764   -4.8699  -16.4174 N   0  0  0  0  0  0  0  0  0  0  0  0
   20.0418   -3.8301  -17.4398 C   0  0  1  0  0  0  0  0  0  0  0  0
   19.2431   -4.2846  -18.6339 C   0  0  0  0  0  0  0  0  0  0  0  0
   19.2820   -3.2927  -19.7180 C   0  0  0  0  0  0  0  0  0  0  0  0
   18.1397   -2.5608  -20.0522 C   0  0  0  0  0  0  0  0  0  0  0  0
   18.1700   -1.6107  -21.0470 C   0  0  0  0  0  0  0  0  0  0  0  0
   19.3242   -1.3433  -21.7516 C   0  0  0  0  0  0  0  0  0  0  0  0
   20.4590   -2.0610  -21.4295 C   0  0  0  0  0  0  0  0  0  0  0  0
   20.4218   -3.0227  -20.4200 C   0  0  0  0  0  0  0  0  0  0  0  0
   19.5259   -2.5668  -16.9262 C   0  0  0  0  0  0  0  0  0  0  0  0
   18.6677   -2.5020  -16.0382 O   0  0  0  0  0  0  0  0  0  0  0  0
   20.0131   -1.3655  -17.4508 O   0  0  0  0  0  0  0  0  0  0  0  0
  2  1  1  1
  3  4  1  0
  3  2  1  0
  5  2  1  0
  5  6  2  0
  7  5  1  0
  8  7  1  0
  8 12  1  0
  8  9  1  1
 10 11  2  0
 10  9  1  0
 12 15  1  0
 13 12  2  0
 14 10  1  0
 15 16  1  0
 16 24  1  0
 17 18  1  0
 16 17  1  6
 18 23  2  0
 19 18  1  0
 19 20  2  0
 20 21  1  0
 21 22  2  0
 23 22  1  0
 24 25  2  0
 24 26  1  0
M  END
$$$$
