QLP.pdb
     RDKit          3D

 25 25  0  0  1  0  0  0  0  0999 V2000
   18.9698  -16.3903  -16.7376 N   0  0  0  0  0  0  0  0  0  0  0  0
   19.1642  -16.4933  -18.1463 C   0  0  0  0  0  0  0  0  0  0  0  0
   18.6264  -17.4617  -18.7640 O   0  0  0  0  0  0  0  0  0  0  0  0
   19.9908  -15.4639  -18.8497 C   0  0  0  0  0  0  0  0  0  0  0  0
   20.5264  -14.5332  -17.8123 C   0  0  0  0  0  0  0  0  0  0  0  0
   20.6681  -13.1157  -18.2807 C   0  0  2  0  0  0  0  0  0  0  0  0
   21.4542  -13.0513  -19.4725 N   0  0  0  0  0  0  0  0  0  0  0  0
   21.1749  -12.2057  -17.2447 C   0  0  0  0  0  0  0  0  0  0  0  0
   20.6814  -12.0928  -16.0970 O   0  0  0  0  0  0  0  0  0  0  0  0
   26.5598  -11.3099  -16.8041 C   0  0  0  0  0  0  0  0  0  0  0  0
   25.1104  -11.3825  -16.4580 C   0  0  1  0  0  0  0  0  0  0  0  0
   24.9939  -11.5414  -14.9394 C   0  0  0  0  0  0  0  0  0  0  0  0
   24.2608  -10.2505  -16.9355 C   0  0  0  0  0  0  0  0  0  0  0  0
   22.7943  -10.3676  -16.6157 C   0  0  2  0  0  0  0  0  0  0  0  0
   22.2948  -11.3945  -17.5454 N   0  0  0  0  0  0  0  0  0  0  0  0
   22.0180   -9.1409  -16.6872 C   0  0  0  0  0  0  0  0  0  0  0  0
   21.6159   -8.8047  -17.8662 O   0  0  0  0  0  0  0  0  0  0  0  0
   21.6574   -8.2866  -15.6158 N   0  0  0  0  0  0  0  0  0  0  0  0
   22.0226   -8.5108  -14.2135 C   0  0  0  0  0  0  0  0  0  0  0  0
   20.7972   -8.0580  -13.4800 C   0  0  0  0  0  0  0  0  0  0  0  0
   19.9460   -7.2791  -14.4545 C   0  0  0  0  0  0  0  0  0  0  0  0
   20.9183   -7.0552  -15.6186 C   0  0  1  0  0  0  0  0  0  0  0  0
   21.7888   -5.8739  -15.3266 C   0  0  0  0  0  0  0  0  0  0  0  0
   22.9878   -6.0087  -15.0030 O   0  0  0  0  0  0  0  0  0  0  0  0
   21.2533   -4.6100  -15.4165 O   0  0  0  0  0  0  0  0  0  0  0  0
  2  4  1  0
  2  1  1  0
  3  2  2  0
  5  4  1  0
  6  5  1  0
  6  7  1  6
  8  6  1  0
  9  8  2  0
 11 10  1  1
 11 12  1  0
 14 13  1  6
 13 11  1  0
 14 15  1  0
 15  8  1  0
 16 14  1  0
 17 16  2  0
 18 19  1  0
 18 16  1  0
 20 19  1  0
 21 20  1  0
 21 22  1  0
 22 18  1  0
 23 25  1  0
 22 23  1  1
 24 23  2  0
M  END
$$$$
