QLP.pdb
     RDKit          3D

 25 25  0  0  1  0  0  0  0  0999 V2000
   15.6419  -23.2016   -1.0362 N   0  0  0  0  0  0  0  0  0  0  0  0
   14.5745  -22.9369   -1.9437 C   0  0  0  0  0  0  0  0  0  0  0  0
   14.1621  -21.7436   -2.0641 O   0  0  0  0  0  0  0  0  0  0  0  0
   13.9766  -24.0659   -2.7218 C   0  0  0  0  0  0  0  0  0  0  0  0
   14.7122  -25.3094   -2.3452 C   0  0  0  0  0  0  0  0  0  0  0  0
   15.9166  -25.5854   -3.1950 C   0  0  2  0  0  0  0  0  0  0  0  0
   15.5291  -25.9458   -4.5226 N   0  0  0  0  0  0  0  0  0  0  0  0
   16.8320  -26.5733   -2.6082 C   0  0  0  0  0  0  0  0  0  0  0  0
   16.8525  -27.7899   -2.9131 O   0  0  0  0  0  0  0  0  0  0  0  0
   21.9154  -25.9856    0.9237 C   0  0  0  0  0  0  0  0  0  0  0  0
   20.7494  -26.8117    0.4946 C   0  0  1  0  0  0  0  0  0  0  0  0
   19.9954  -27.2549    1.7515 C   0  0  0  0  0  0  0  0  0  0  0  0
   19.8154  -26.1767   -0.4831 C   0  0  0  0  0  0  0  0  0  0  0  0
   18.7040  -27.0627   -0.9795 C   0  0  2  0  0  0  0  0  0  0  0  0
   17.7600  -26.1398   -1.6316 N   0  0  0  0  0  0  0  0  0  0  0  0
   18.0527  -27.8995    0.0144 C   0  0  0  0  0  0  0  0  0  0  0  0
   17.1297  -27.3236    0.7082 O   0  0  0  0  0  0  0  0  0  0  0  0
   18.3162  -29.2624    0.2986 N   0  0  0  0  0  0  0  0  0  0  0  0
   19.3935  -30.0469   -0.3131 C   0  0  0  0  0  0  0  0  0  0  0  0
   18.7578  -31.3917   -0.4920 C   0  0  0  0  0  0  0  0  0  0  0  0
   17.4944  -31.4109    0.3353 C   0  0  0  0  0  0  0  0  0  0  0  0
   17.6670  -30.1633    1.2095 C   0  0  1  0  0  0  0  0  0  0  0  0
   18.5276  -30.4907    2.3888 C   0  0  0  0  0  0  0  0  0  0  0  0
   19.7339  -30.1684    2.4281 O   0  0  0  0  0  0  0  0  0  0  0  0
   17.9750  -31.1636    3.4537 O   0  0  0  0  0  0  0  0  0  0  0  0
  2  4  1  0
  2  1  1  0
  3  2  2  0
  5  4  1  0
  6  5  1  0
  6  7  1  6
  8  6  1  0
  9  8  2  0
 11 10  1  1
 11 12  1  0
 14 13  1  1
 13 11  1  0
 14 15  1  0
 15  8  1  0
 16 14  1  0
 17 16  2  0
 18 19  1  0
 18 16  1  0
 20 19  1  0
 21 20  1  0
 21 22  1  0
 22 18  1  0
 23 25  1  0
 22 23  1  1
 24 23  2  0
M  END
$$$$
