QLP.pdb
     RDKit          3D

 25 25  0  0  1  0  0  0  0  0999 V2000
   18.8637   -9.5606  -21.6732 N   0  0  0  0  0  0  0  0  0  0  0  0
   17.6772  -10.3468  -21.7562 C   0  0  0  0  0  0  0  0  0  0  0  0
   17.3028  -10.7622  -22.8945 O   0  0  0  0  0  0  0  0  0  0  0  0
   16.9140  -10.6565  -20.5075 C   0  0  0  0  0  0  0  0  0  0  0  0
   17.6089   -9.9739  -19.3759 C   0  0  0  0  0  0  0  0  0  0  0  0
   18.2553  -10.9138  -18.4025 C   0  0  2  0  0  0  0  0  0  0  0  0
   17.4508  -12.0796  -18.2122 N   0  0  0  0  0  0  0  0  0  0  0  0
   18.6068  -10.2807  -17.1243 C   0  0  0  0  0  0  0  0  0  0  0  0
   17.8007  -10.0893  -16.1824 O   0  0  0  0  0  0  0  0  0  0  0  0
   21.2359   -9.3562  -12.6350 C   0  0  0  0  0  0  0  0  0  0  0  0
   22.0635   -9.4034  -13.8755 C   0  0  1  0  0  0  0  0  0  0  0  0
   23.3564  -10.1580  -13.5533 C   0  0  0  0  0  0  0  0  0  0  0  0
   21.4051   -9.9800  -15.0860 C   0  0  0  0  0  0  0  0  0  0  0  0
   20.3572   -9.1081  -15.7250 C   0  0  2  0  0  0  0  0  0  0  0  0
   19.9408   -9.8517  -16.9258 N   0  0  0  0  0  0  0  0  0  0  0  0
   20.7536   -7.7448  -16.0359 C   0  0  0  0  0  0  0  0  0  0  0  0
   21.5404   -7.6115  -17.0498 O   0  0  0  0  0  0  0  0  0  0  0  0
   20.3724   -6.5612  -15.3565 N   0  0  0  0  0  0  0  0  0  0  0  0
   19.4568   -6.5166  -14.2121 C   0  0  0  0  0  0  0  0  0  0  0  0
   18.6822   -5.2587  -14.4618 C   0  0  0  0  0  0  0  0  0  0  0  0
   19.4189   -4.4739  -15.5211 C   0  0  0  0  0  0  0  0  0  0  0  0
   20.7694   -5.1979  -15.5725 C   0  0  1  0  0  0  0  0  0  0  0  0
   21.6550   -4.6882  -14.4796 C   0  0  0  0  0  0  0  0  0  0  0  0
   21.7952   -5.3122  -13.4064 O   0  0  0  0  0  0  0  0  0  0  0  0
   22.3293   -3.5034  -14.6630 O   0  0  0  0  0  0  0  0  0  0  0  0
  2  4  1  0
  2  1  1  0
  3  2  2  0
  5  4  1  0
  6  5  1  0
  6  7  1  1
  8  6  1  0
  9  8  2  0
 11 10  1  1
 11 12  1  0
 14 13  1  6
 13 11  1  0
 14 15  1  0
 15  8  1  0
 16 14  1  0
 17 16  2  0
 18 19  1  0
 18 16  1  0
 20 19  1  0
 21 20  1  0
 21 22  1  0
 22 18  1  0
 23 25  1  0
 22 23  1  1
 24 23  2  0
M  END
$$$$
