QLP.pdb
     RDKit          3D

 25 25  0  0  1  0  0  0  0  0999 V2000
   25.6224  -18.7751  -13.1004 N   0  0  0  0  0  0  0  0  0  0  0  0
   24.3449  -19.3992  -13.2078 C   0  0  0  0  0  0  0  0  0  0  0  0
   23.7065  -19.2913  -14.2984 O   0  0  0  0  0  0  0  0  0  0  0  0
   23.7989  -20.1575  -12.0397 C   0  0  0  0  0  0  0  0  0  0  0  0
   24.8204  -20.1030  -10.9522 C   0  0  0  0  0  0  0  0  0  0  0  0
   25.9715  -21.0435  -11.1504 C   0  0  2  0  0  0  0  0  0  0  0  0
   25.5497  -22.2245  -11.8356 N   0  0  0  0  0  0  0  0  0  0  0  0
   26.6870  -21.3617   -9.9074 C   0  0  0  0  0  0  0  0  0  0  0  0
   26.2134  -22.0528   -8.9737 O   0  0  0  0  0  0  0  0  0  0  0  0
   32.1712  -21.4983  -10.1878 C   0  0  0  0  0  0  0  0  0  0  0  0
   30.7924  -21.7882   -9.6971 C   0  0  1  0  0  0  0  0  0  0  0  0
   30.8194  -23.1423   -8.9827 C   0  0  0  0  0  0  0  0  0  0  0  0
   30.1695  -20.7461   -8.8268 C   0  0  0  0  0  0  0  0  0  0  0  0
   28.7291  -20.9895   -8.4625 C   0  0  2  0  0  0  0  0  0  0  0  0
   28.0001  -20.8628   -9.7356 N   0  0  0  0  0  0  0  0  0  0  0  0
   28.1723  -20.1363   -7.4260 C   0  0  0  0  0  0  0  0  0  0  0  0
   27.2487  -19.3222   -7.8119 O   0  0  0  0  0  0  0  0  0  0  0  0
   28.5276  -20.1037   -6.0546 N   0  0  0  0  0  0  0  0  0  0  0  0
   29.5531  -20.9528   -5.4402 C   0  0  0  0  0  0  0  0  0  0  0  0
   28.9585  -21.2669   -4.1014 C   0  0  0  0  0  0  0  0  0  0  0  0
   27.8100  -20.3119   -3.8788 C   0  0  0  0  0  0  0  0  0  0  0  0
   28.0362  -19.2775   -4.9876 C   0  0  1  0  0  0  0  0  0  0  0  0
   29.0501  -18.2729   -4.5389 C   0  0  0  0  0  0  0  0  0  0  0  0
   30.2015  -18.2443   -5.0229 O   0  0  0  0  0  0  0  0  0  0  0  0
   28.7040  -17.3605   -3.5694 O   0  0  0  0  0  0  0  0  0  0  0  0
  2  4  1  0
  2  1  1  0
  3  2  2  0
  5  4  1  0
  6  5  1  0
  6  7  1  1
  8  6  1  0
  9  8  2  0
 11 10  1  1
 11 12  1  0
 14 13  1  6
 13 11  1  0
 14 15  1  0
 15  8  1  0
 16 14  1  0
 17 16  2  0
 18 19  1  0
 18 16  1  0
 20 19  1  0
 21 20  1  0
 21 22  1  0
 22 18  1  0
 23 25  1  0
 22 23  1  1
 24 23  2  0
M  END
$$$$
