QLP.pdb
     RDKit          3D

 25 25  0  0  1  0  0  0  0  0999 V2000
   19.1196  -16.6438  -14.5571 N   0  0  0  0  0  0  0  0  0  0  0  0
   17.9267  -16.4255  -15.3070 C   0  0  0  0  0  0  0  0  0  0  0  0
   16.8104  -16.6664  -14.7553 O   0  0  0  0  0  0  0  0  0  0  0  0
   18.0258  -15.9225  -16.7123 C   0  0  0  0  0  0  0  0  0  0  0  0
   18.8678  -14.6897  -16.6892 C   0  0  0  0  0  0  0  0  0  0  0  0
   19.0783  -14.0708  -18.0389 C   0  0  2  0  0  0  0  0  0  0  0  0
   19.8340  -14.9410  -18.8839 N   0  0  0  0  0  0  0  0  0  0  0  0
   19.6648  -12.7252  -17.9797 C   0  0  0  0  0  0  0  0  0  0  0  0
   20.8763  -12.4890  -17.7558 O   0  0  0  0  0  0  0  0  0  0  0  0
   17.5377   -8.7931  -21.2434 C   0  0  0  0  0  0  0  0  0  0  0  0
   18.5792   -9.4433  -20.3957 C   0  0  1  0  0  0  0  0  0  0  0  0
   19.9288   -8.8010  -20.7284 C   0  0  0  0  0  0  0  0  0  0  0  0
   18.3363   -9.4246  -18.9220 C   0  0  0  0  0  0  0  0  0  0  0  0
   19.3115  -10.2237  -18.0992 C   0  0  2  0  0  0  0  0  0  0  0  0
   18.8199  -11.6089  -18.1870 N   0  0  0  0  0  0  0  0  0  0  0  0
   19.4977   -9.7955  -16.7228 C   0  0  0  0  0  0  0  0  0  0  0  0
   18.6945  -10.3238  -15.8622 O   0  0  0  0  0  0  0  0  0  0  0  0
   20.4550   -8.8746  -16.2297 N   0  0  0  0  0  0  0  0  0  0  0  0
   21.4565   -8.1928  -17.0556 C   0  0  0  0  0  0  0  0  0  0  0  0
   22.6571   -8.1675  -16.1597 C   0  0  0  0  0  0  0  0  0  0  0  0
   22.1900   -8.5071  -14.7642 C   0  0  0  0  0  0  0  0  0  0  0  0
   20.6680   -8.3806  -14.8980 C   0  0  1  0  0  0  0  0  0  0  0  0
   20.2685   -6.9455  -14.7579 C   0  0  0  0  0  0  0  0  0  0  0  0
   20.3059   -6.3606  -13.6547 O   0  0  0  0  0  0  0  0  0  0  0  0
   19.8494   -6.2561  -15.8721 O   0  0  0  0  0  0  0  0  0  0  0  0
  2  4  1  0
  2  1  1  0
  3  2  2  0
  5  4  1  0
  6  5  1  0
  6  7  1  6
  8  6  1  0
  9  8  2  0
 11 10  1  6
 11 12  1  0
 14 13  1  1
 13 11  1  0
 14 15  1  0
 15  8  1  0
 16 14  1  0
 17 16  2  0
 18 19  1  0
 18 16  1  0
 20 19  1  0
 21 20  1  0
 21 22  1  0
 22 18  1  0
 23 25  1  0
 22 23  1  6
 24 23  2  0
M  END
$$$$
