QLP.pdb
     RDKit          3D

 25 25  0  0  1  0  0  0  0  0999 V2000
   17.0725  -14.1740  -18.1493 N   0  0  0  0  0  0  0  0  0  0  0  0
   17.3794  -14.8309  -16.9216 C   0  0  0  0  0  0  0  0  0  0  0  0
   16.9579  -16.0139  -16.7444 O   0  0  0  0  0  0  0  0  0  0  0  0
   18.1837  -14.1111  -15.8860 C   0  0  0  0  0  0  0  0  0  0  0  0
   18.5466  -12.7761  -16.4477 C   0  0  0  0  0  0  0  0  0  0  0  0
   18.5218  -11.6648  -15.4411 C   0  0  2  0  0  0  0  0  0  0  0  0
   17.1899  -11.4266  -14.9810 N   0  0  0  0  0  0  0  0  0  0  0  0
   19.1621  -10.4311  -15.9167 C   0  0  0  0  0  0  0  0  0  0  0  0
   20.3581  -10.3499  -16.2862 O   0  0  0  0  0  0  0  0  0  0  0  0
   16.0275   -7.4015  -18.8640 C   0  0  0  0  0  0  0  0  0  0  0  0
   17.3506   -7.8646  -18.3531 C   0  0  1  0  0  0  0  0  0  0  0  0
   18.3855   -7.6554  -19.4621 C   0  0  0  0  0  0  0  0  0  0  0  0
   17.8166   -7.2478  -17.0749 C   0  0  0  0  0  0  0  0  0  0  0  0
   18.9595   -7.9564  -16.3981 C   0  0  2  0  0  0  0  0  0  0  0  0
   18.3916   -9.2451  -15.9678 N   0  0  0  0  0  0  0  0  0  0  0  0
   19.6004   -7.2480  -15.3027 C   0  0  0  0  0  0  0  0  0  0  0  0
   19.0751   -7.4310  -14.1386 O   0  0  0  0  0  0  0  0  0  0  0  0
   20.7268   -6.3912  -15.3736 N   0  0  0  0  0  0  0  0  0  0  0  0
   21.4874   -6.1157  -16.5966 C   0  0  0  0  0  0  0  0  0  0  0  0
   22.8975   -6.0438  -16.0955 C   0  0  0  0  0  0  0  0  0  0  0  0
   22.8399   -5.9274  -14.5909 C   0  0  0  0  0  0  0  0  0  0  0  0
   21.3602   -5.6042  -14.3528 C   0  0  1  0  0  0  0  0  0  0  0  0
   21.1284   -4.1386  -14.5450 C   0  0  0  0  0  0  0  0  0  0  0  0
   20.6496   -3.6855  -15.6061 O   0  0  0  0  0  0  0  0  0  0  0  0
   21.4520   -3.2712  -13.5275 O   0  0  0  0  0  0  0  0  0  0  0  0
  2  4  1  0
  2  1  1  0
  3  2  2  0
  5  4  1  0
  6  5  1  0
  6  7  1  6
  8  6  1  0
  9  8  2  0
 11 10  1  6
 11 12  1  0
 14 13  1  1
 13 11  1  0
 14 15  1  0
 15  8  1  0
 16 14  1  0
 17 16  2  0
 18 19  1  0
 18 16  1  0
 20 19  1  0
 21 20  1  0
 21 22  1  0
 22 18  1  0
 23 25  1  0
 22 23  1  6
 24 23  2  0
M  END
$$$$
