QLP.pdb
     RDKit          3D

 25 25  0  0  1  0  0  0  0  0999 V2000
   21.6059  -16.8250  -17.5878 N   0  0  0  0  0  0  0  0  0  0  0  0
   21.0402  -16.5810  -18.8737 C   0  0  0  0  0  0  0  0  0  0  0  0
   20.2740  -17.4580  -19.3760 O   0  0  0  0  0  0  0  0  0  0  0  0
   21.3644  -15.3071  -19.5876 C   0  0  0  0  0  0  0  0  0  0  0  0
   22.1882  -14.4721  -18.6638 C   0  0  0  0  0  0  0  0  0  0  0  0
   22.5533  -13.1281  -19.2200 C   0  0  2  0  0  0  0  0  0  0  0  0
   23.7160  -13.2196  -20.0458 N   0  0  0  0  0  0  0  0  0  0  0  0
   22.6969  -12.0893  -18.1912 C   0  0  0  0  0  0  0  0  0  0  0  0
   21.8203  -11.8099  -17.3384 O   0  0  0  0  0  0  0  0  0  0  0  0
   27.8694  -11.1847  -16.6875 C   0  0  0  0  0  0  0  0  0  0  0  0
   26.3827  -11.2762  -16.6021 C   0  0  1  0  0  0  0  0  0  0  0  0
   26.0092  -11.5607  -15.1446 C   0  0  0  0  0  0  0  0  0  0  0  0
   25.6188  -10.1026  -17.1218 C   0  0  0  0  0  0  0  0  0  0  0  0
   24.1234  -10.2738  -17.1589 C   0  0  2  0  0  0  0  0  0  0  0  0
   23.8991  -11.3440  -18.1451 N   0  0  0  0  0  0  0  0  0  0  0  0
   23.3446   -9.0834  -17.4568 C   0  0  0  0  0  0  0  0  0  0  0  0
   23.2188   -8.7996  -18.7092 O   0  0  0  0  0  0  0  0  0  0  0  0
   22.7143   -8.2134  -16.5329 N   0  0  0  0  0  0  0  0  0  0  0  0
   22.6814   -8.4226  -15.0820 C   0  0  0  0  0  0  0  0  0  0  0  0
   21.3071   -7.9523  -14.7148 C   0  0  0  0  0  0  0  0  0  0  0  0
   20.7614   -7.1797  -15.8921 C   0  0  0  0  0  0  0  0  0  0  0  0
   22.0162   -6.9771  -16.7494 C   0  0  1  0  0  0  0  0  0  0  0  0
   22.7860   -5.7981  -16.2432 C   0  0  0  0  0  0  0  0  0  0  0  0
   23.8264   -5.9379  -15.5659 O   0  0  0  0  0  0  0  0  0  0  0  0
   22.3347   -4.5310  -16.5312 O   0  0  0  0  0  0  0  0  0  0  0  0
  2  4  1  0
  2  1  1  0
  3  2  2  0
  5  4  1  0
  6  5  1  0
  6  7  1  1
  8  6  1  0
  9  8  2  0
 11 10  1  1
 11 12  1  0
 14 13  1  6
 13 11  1  0
 14 15  1  0
 15  8  1  0
 16 14  1  0
 17 16  2  0
 18 19  1  0
 18 16  1  0
 20 19  1  0
 21 20  1  0
 21 22  1  0
 22 18  1  0
 23 25  1  0
 22 23  1  1
 24 23  2  0
M  END
$$$$
