LKR.pdb
     RDKit          3D

 29 28  0  0  1  0  0  0  0  0999 V2000
    4.7013  -21.3613   20.5141 C   0  0  0  0  0  0  0  0  0  0  0  0
    5.2812  -20.5528   21.6356 C   0  0  1  0  0  0  0  0  0  0  0  0
    5.9723  -21.4151   22.6597 C   0  0  0  0  0  0  0  0  0  0  0  0
    6.1549  -19.4172   21.1641 C   0  0  0  0  0  0  0  0  0  0  0  0
    6.8475  -18.7082   22.2815 C   0  0  2  0  0  0  0  0  0  0  0  0
    5.9050  -18.1591   23.2115 N   0  0  0  0  0  0  0  0  0  0  0  0
    7.7609  -17.6806   21.7184 C   0  0  0  0  0  0  0  0  0  0  0  0
    8.7038  -18.0896   20.9945 O   0  0  0  0  0  0  0  0  0  0  0  0
    7.6147  -16.2870   21.9597 N   0  0  0  0  0  0  0  0  0  0  0  0
    8.5474  -15.2916   21.4926 C   0  0  1  0  0  0  0  0  0  0  0  0
    7.8827  -14.0059   21.0765 C   0  0  0  0  0  0  0  0  0  0  0  0
    7.2278  -14.1110   19.7170 C   0  0  0  0  0  0  0  0  0  0  0  0
    8.2313  -13.6611   18.6721 C   0  0  0  0  0  0  0  0  0  0  0  0
    7.6325  -13.7603   17.2840 C   0  0  0  0  0  0  0  0  0  0  0  0
    8.5805  -13.3180   16.2996 N   0  0  0  0  0  0  0  0  0  0  0  0
    9.5663  -15.0239   22.5425 C   0  0  0  0  0  0  0  0  0  0  0  0
    9.2952  -14.3598   23.5798 O   0  0  0  0  0  0  0  0  0  0  0  0
    9.8518  -17.4761   29.7840 N   0  0  0  0  0  0  0  0  0  0  0  0
   10.9502  -17.0161   29.0172 C   0  0  0  0  0  0  0  0  0  0  0  0
   11.4900  -15.8533   29.2774 N   0  0  0  0  0  0  0  0  0  0  0  0
   11.4529  -17.8280   27.9705 N   0  0  0  0  0  0  0  0  0  0  0  0
   10.7926  -17.7651   26.6550 C   0  0  0  0  0  0  0  0  0  0  0  0
   11.5091  -16.7588   25.8507 C   0  0  0  0  0  0  0  0  0  0  0  0
   11.1111  -16.5158   24.4818 C   0  0  0  0  0  0  0  0  0  0  0  0
   11.7638  -15.5750   23.5703 C   0  0  2  0  0  0  0  0  0  0  0  0
   10.8656  -15.5336   22.3568 N   0  0  0  0  0  0  0  0  0  0  0  0
   13.0717  -15.9085   23.0170 C   0  0  0  0  0  0  0  0  0  0  0  0
   13.3566  -16.2868   21.7260 O   0  0  0  0  0  0  0  0  0  0  0  0
   14.1126  -15.8712   23.7796 O   0  0  0  0  0  0  0  0  0  0  0  0
  2  1  1  6
  2  4  1  0
  2  3  1  0
  5  4  1  0
  5  7  1  0
  5  6  1  1
  7  8  2  0
  9 10  1  0
  9  7  1  0
 10 16  1  0
 10 11  1  1
 12 11  1  0
 12 13  1  0
 14 15  1  0
 14 13  1  0
 16 17  2  0
 18 19  1  0
 19 21  1  0
 20 19  2  0
 21 22  1  0
 23 24  1  0
 23 22  1  0
 25 24  1  1
 25 27  1  0
 26 16  1  0
 26 25  1  0
 27 29  2  0
 27 28  1  0
M  END
$$$$
