LKR.pdb
     RDKit          3D

 29 28  0  0  1  0  0  0  0  0999 V2000
    3.4986  -22.1542   21.1929 C   0  0  0  0  0  0  0  0  0  0  0  0
    4.3358  -21.4735   22.2339 C   0  0  1  0  0  0  0  0  0  0  0  0
    5.1323  -22.4549   23.0536 C   0  0  0  0  0  0  0  0  0  0  0  0
    5.1952  -20.3651   21.6787 C   0  0  0  0  0  0  0  0  0  0  0  0
    6.1169  -19.7739   22.6946 C   0  0  2  0  0  0  0  0  0  0  0  0
    5.4004  -19.3494   23.8613 N   0  0  0  0  0  0  0  0  0  0  0  0
    6.8949  -18.6736   22.0689 C   0  0  0  0  0  0  0  0  0  0  0  0
    7.5185  -18.9446   21.0116 O   0  0  0  0  0  0  0  0  0  0  0  0
    6.9605  -17.3584   22.6053 N   0  0  0  0  0  0  0  0  0  0  0  0
    7.6953  -16.2798   21.9923 C   0  0  1  0  0  0  0  0  0  0  0  0
    7.1411  -14.9201   22.3271 C   0  0  0  0  0  0  0  0  0  0  0  0
    7.8771  -13.8076   21.6137 C   0  0  0  0  0  0  0  0  0  0  0  0
    7.6891  -13.9973   20.1204 C   0  0  0  0  0  0  0  0  0  0  0  0
    8.3662  -12.8793   19.3543 C   0  0  0  0  0  0  0  0  0  0  0  0
    8.1119  -13.0145   17.9471 N   0  0  0  0  0  0  0  0  0  0  0  0
    9.1276  -16.3589   22.3852 C   0  0  0  0  0  0  0  0  0  0  0  0
    9.4809  -16.5479   23.5810 O   0  0  0  0  0  0  0  0  0  0  0  0
   17.0508  -15.4920   18.8335 N   0  0  0  0  0  0  0  0  0  0  0  0
   16.7617  -14.2075   19.3556 C   0  0  0  0  0  0  0  0  0  0  0  0
   17.5338  -13.1925   19.0642 N   0  0  0  0  0  0  0  0  0  0  0  0
   15.6314  -14.0383   20.1932 N   0  0  0  0  0  0  0  0  0  0  0  0
   14.3242  -14.5184   19.7128 C   0  0  0  0  0  0  0  0  0  0  0  0
   13.7029  -15.2780   20.8129 C   0  0  0  0  0  0  0  0  0  0  0  0
   12.2786  -15.5282   20.7997 C   0  0  0  0  0  0  0  0  0  0  0  0
   11.5484  -16.2871   21.8160 C   0  0  2  0  0  0  0  0  0  0  0  0
   10.1039  -16.2164   21.3806 N   0  0  0  0  0  0  0  0  0  0  0  0
   11.5168  -15.7944   23.1887 C   0  0  0  0  0  0  0  0  0  0  0  0
   12.3317  -16.1764   24.2283 O   0  0  0  0  0  0  0  0  0  0  0  0
   10.6413  -14.9076   23.5255 O   0  0  0  0  0  0  0  0  0  0  0  0
  2  1  1  6
  2  4  1  0
  2  3  1  0
  5  4  1  0
  5  7  1  0
  5  6  1  1
  7  8  2  0
  9 10  1  0
  9  7  1  0
 10 16  1  0
 10 11  1  1
 12 11  1  0
 12 13  1  0
 14 15  1  0
 14 13  1  0
 16 17  2  0
 18 19  1  0
 19 21  1  0
 20 19  2  0
 21 22  1  0
 23 24  1  0
 23 22  1  0
 25 24  1  6
 25 27  1  0
 26 16  1  0
 26 25  1  0
 27 29  2  0
 27 28  1  0
M  END
$$$$
