LKR.pdb
     RDKit          3D

 29 28  0  0  1  0  0  0  0  0999 V2000
    9.0755  -12.6316   19.6407 C   0  0  0  0  0  0  0  0  0  0  0  0
    8.1578  -13.6725   20.2082 C   0  0  1  0  0  0  0  0  0  0  0  0
    7.2342  -13.1061   21.2552 C   0  0  0  0  0  0  0  0  0  0  0  0
    7.4131  -14.4519   19.1532 C   0  0  0  0  0  0  0  0  0  0  0  0
    8.3189  -15.1622   18.2012 C   0  0  2  0  0  0  0  0  0  0  0  0
    7.5806  -15.7493   17.1218 N   0  0  0  0  0  0  0  0  0  0  0  0
    9.1307  -16.1578   18.9476 C   0  0  0  0  0  0  0  0  0  0  0  0
    8.5055  -17.0553   19.5671 O   0  0  0  0  0  0  0  0  0  0  0  0
   10.5519  -16.1364   18.9881 N   0  0  0  0  0  0  0  0  0  0  0  0
   11.3485  -17.1313   19.6623 C   0  0  1  0  0  0  0  0  0  0  0  0
   12.6816  -17.3691   19.0032 C   0  0  0  0  0  0  0  0  0  0  0  0
   12.6810  -18.6081   18.1354 C   0  0  0  0  0  0  0  0  0  0  0  0
   11.7590  -18.3601   16.9566 C   0  0  0  0  0  0  0  0  0  0  0  0
   11.7023  -19.5810   16.0614 C   0  0  0  0  0  0  0  0  0  0  0  0
   10.8710  -19.3227   14.9188 N   0  0  0  0  0  0  0  0  0  0  0  0
   11.5435  -16.7416   21.0843 C   0  0  0  0  0  0  0  0  0  0  0  0
   11.6519  -15.5352   21.4355 O   0  0  0  0  0  0  0  0  0  0  0  0
    7.6155  -20.0799   26.1981 N   0  0  0  0  0  0  0  0  0  0  0  0
    8.0860  -19.3139   27.2926 C   0  0  0  0  0  0  0  0  0  0  0  0
    7.2415  -18.8392   28.1716 N   0  0  0  0  0  0  0  0  0  0  0  0
    9.4759  -19.0701   27.4212 N   0  0  0  0  0  0  0  0  0  0  0  0
   10.3770  -19.5775   26.3720 C   0  0  0  0  0  0  0  0  0  0  0  0
   10.9795  -18.4084   25.7062 C   0  0  0  0  0  0  0  0  0  0  0  0
   11.0855  -18.3771   24.2642 C   0  0  0  0  0  0  0  0  0  0  0  0
   11.7548  -17.3290   23.4925 C   0  0  2  0  0  0  0  0  0  0  0  0
   11.6069  -17.7615   22.0530 N   0  0  0  0  0  0  0  0  0  0  0  0
   13.1928  -17.1375   23.6465 C   0  0  0  0  0  0  0  0  0  0  0  0
   13.8304  -16.3087   24.5394 O   0  0  0  0  0  0  0  0  0  0  0  0
   14.0055  -17.7843   22.8800 O   0  0  0  0  0  0  0  0  0  0  0  0
  2  1  1  6
  2  4  1  0
  2  3  1  0
  5  4  1  0
  5  7  1  0
  5  6  1  6
  7  8  2  0
  9 10  1  0
  9  7  1  0
 10 16  1  0
 10 11  1  6
 12 11  1  0
 12 13  1  0
 14 15  1  0
 14 13  1  0
 16 17  2  0
 18 19  1  0
 19 21  1  0
 20 19  2  0
 21 22  1  0
 23 24  1  0
 23 22  1  0
 25 24  1  1
 25 27  1  0
 26 16  1  0
 26 25  1  0
 27 29  2  0
 27 28  1  0
M  END
$$$$
