LKR.pdb
     RDKit          3D

 29 28  0  0  1  0  0  0  0  0999 V2000
    6.8957  -12.4838   19.1200 C   0  0  0  0  0  0  0  0  0  0  0  0
    8.0191  -13.4418   18.8597 C   0  0  1  0  0  0  0  0  0  0  0  0
    9.3014  -12.7326   18.5097 C   0  0  0  0  0  0  0  0  0  0  0  0
    8.2100  -14.4529   19.9626 C   0  0  0  0  0  0  0  0  0  0  0  0
    9.3228  -15.4119   19.6919 C   0  0  2  0  0  0  0  0  0  0  0  0
    9.1457  -16.0703   18.4310 N   0  0  0  0  0  0  0  0  0  0  0  0
    9.4339  -16.3662   20.8252 C   0  0  0  0  0  0  0  0  0  0  0  0
    9.4663  -15.8769   21.9827 O   0  0  0  0  0  0  0  0  0  0  0  0
    9.5035  -17.7763   20.6568 N   0  0  0  0  0  0  0  0  0  0  0  0
    9.7279  -18.7016   21.7397 C   0  0  1  0  0  0  0  0  0  0  0  0
    9.4028  -20.1269   21.3779 C   0  0  0  0  0  0  0  0  0  0  0  0
    9.6034  -21.0750   22.5394 C   0  0  0  0  0  0  0  0  0  0  0  0
    9.3035  -22.4823   22.0590 C   0  0  0  0  0  0  0  0  0  0  0  0
    9.4685  -23.4757   23.1909 C   0  0  0  0  0  0  0  0  0  0  0  0
    9.1549  -24.8026   22.7389 N   0  0  0  0  0  0  0  0  0  0  0  0
   11.1371  -18.6008   22.2046 C   0  0  0  0  0  0  0  0  0  0  0  0
   12.0990  -19.0340   21.5137 O   0  0  0  0  0  0  0  0  0  0  0  0
   16.0342  -13.7225   19.7625 N   0  0  0  0  0  0  0  0  0  0  0  0
   14.7706  -14.1638   19.2994 C   0  0  0  0  0  0  0  0  0  0  0  0
   14.2289  -13.6103   18.2452 N   0  0  0  0  0  0  0  0  0  0  0  0
   14.1052  -15.2069   19.9901 N   0  0  0  0  0  0  0  0  0  0  0  0
   14.1333  -15.2025   21.4630 C   0  0  0  0  0  0  0  0  0  0  0  0
   13.5369  -16.4714   21.9183 C   0  0  0  0  0  0  0  0  0  0  0  0
   13.3517  -16.7128   23.3321 C   0  0  0  0  0  0  0  0  0  0  0  0
   12.8243  -17.9484   23.9125 C   0  0  2  0  0  0  0  0  0  0  0  0
   11.3861  -18.0019   23.4543 N   0  0  0  0  0  0  0  0  0  0  0  0
   12.7263  -18.0704   25.3629 C   0  0  0  0  0  0  0  0  0  0  0  0
   11.5958  -17.9369   26.1342 O   0  0  0  0  0  0  0  0  0  0  0  0
   13.7883  -18.3211   26.0526 O   0  0  0  0  0  0  0  0  0  0  0  0
  2  1  1  1
  2  4  1  0
  2  3  1  0
  5  4  1  0
  5  7  1  0
  5  6  1  6
  7  8  2  0
  9 10  1  0
  9  7  1  0
 10 16  1  0
 10 11  1  6
 12 11  1  0
 12 13  1  0
 14 15  1  0
 14 13  1  0
 16 17  2  0
 18 19  1  0
 19 21  1  0
 20 19  2  0
 21 22  1  0
 23 24  1  0
 23 22  1  0
 25 24  1  1
 25 27  1  0
 26 16  1  0
 26 25  1  0
 27 29  2  0
 27 28  1  0
M  END
$$$$
