LKR.pdb
     RDKit          3D

 29 28  0  0  1  0  0  0  0  0999 V2000
    6.9996  -11.9841   27.8401 C   0  0  0  0  0  0  0  0  0  0  0  0
    6.2723  -13.0968   27.1466 C   0  0  1  0  0  0  0  0  0  0  0  0
    4.9314  -12.6571   26.6187 C   0  0  0  0  0  0  0  0  0  0  0  0
    7.1013  -13.7867   26.0921 C   0  0  0  0  0  0  0  0  0  0  0  0
    6.3874  -14.9232   25.4367 C   0  0  2  0  0  0  0  0  0  0  0  0
    6.2011  -16.0141   26.3478 N   0  0  0  0  0  0  0  0  0  0  0  0
    7.1237  -15.3220   24.2094 C   0  0  0  0  0  0  0  0  0  0  0  0
    7.8278  -16.3611   24.2780 O   0  0  0  0  0  0  0  0  0  0  0  0
    7.0652  -14.5928   22.9901 N   0  0  0  0  0  0  0  0  0  0  0  0
    7.7885  -14.9648   21.7995 C   0  0  1  0  0  0  0  0  0  0  0  0
    7.6343  -13.9715   20.6781 C   0  0  0  0  0  0  0  0  0  0  0  0
    8.3210  -14.4259   19.4091 C   0  0  0  0  0  0  0  0  0  0  0  0
    8.0521  -13.3942   18.3300 C   0  0  0  0  0  0  0  0  0  0  0  0
    8.6294  -13.8493   17.0053 C   0  0  0  0  0  0  0  0  0  0  0  0
    8.4056  -12.8526   15.9955 N   0  0  0  0  0  0  0  0  0  0  0  0
    9.2283  -15.1516   22.1226 C   0  0  0  0  0  0  0  0  0  0  0  0
    9.8898  -14.2778   22.7465 O   0  0  0  0  0  0  0  0  0  0  0  0
   11.1067  -20.2470   28.0459 N   0  0  0  0  0  0  0  0  0  0  0  0
   11.9836  -19.1387   27.9521 C   0  0  0  0  0  0  0  0  0  0  0  0
   12.4855  -18.6063   29.0365 N   0  0  0  0  0  0  0  0  0  0  0  0
   12.3075  -18.6177   26.6748 N   0  0  0  0  0  0  0  0  0  0  0  0
   11.2587  -18.5933   25.6406 C   0  0  0  0  0  0  0  0  0  0  0  0
   11.8108  -17.8867   24.4706 C   0  0  0  0  0  0  0  0  0  0  0  0
   10.9787  -17.6571   23.3102 C   0  0  0  0  0  0  0  0  0  0  0  0
   11.2191  -16.6339   22.2919 C   0  0  2  0  0  0  0  0  0  0  0  0
    9.8549  -16.3440   21.7125 N   0  0  0  0  0  0  0  0  0  0  0  0
   12.0243  -16.9669   21.1219 C   0  0  0  0  0  0  0  0  0  0  0  0
   11.5953  -17.0719   19.8197 O   0  0  0  0  0  0  0  0  0  0  0  0
   13.2840  -17.2098   21.2657 O   0  0  0  0  0  0  0  0  0  0  0  0
  2  1  1  6
  2  4  1  0
  2  3  1  0
  5  4  1  0
  5  7  1  0
  5  6  1  1
  7  8  2  0
  9 10  1  0
  9  7  1  0
 10 16  1  0
 10 11  1  6
 12 11  1  0
 12 13  1  0
 14 15  1  0
 14 13  1  0
 16 17  2  0
 18 19  1  0
 19 21  1  0
 20 19  2  0
 21 22  1  0
 23 24  1  0
 23 22  1  0
 25 24  1  1
 25 27  1  0
 26 16  1  0
 26 25  1  0
 27 29  2  0
 27 28  1  0
M  END
$$$$
