LKR.pdb
     RDKit          3D

 29 28  0  0  1  0  0  0  0  0999 V2000
    6.3928  -11.8276   27.1966 C   0  0  0  0  0  0  0  0  0  0  0  0
    5.9234  -12.8408   26.1962 C   0  0  1  0  0  0  0  0  0  0  0  0
    5.8570  -12.2742   24.8018 C   0  0  0  0  0  0  0  0  0  0  0  0
    6.6961  -14.1352   26.2490 C   0  0  0  0  0  0  0  0  0  0  0  0
    6.1289  -15.1926   25.3594 C   0  0  2  0  0  0  0  0  0  0  0  0
    5.8002  -16.3742   26.1014 N   0  0  0  0  0  0  0  0  0  0  0  0
    7.0788  -15.4600   24.2487 C   0  0  0  0  0  0  0  0  0  0  0  0
    7.9433  -16.3526   24.4390 O   0  0  0  0  0  0  0  0  0  0  0  0
    7.0498  -14.7634   23.0095 N   0  0  0  0  0  0  0  0  0  0  0  0
    7.8751  -15.1077   21.8783 C   0  0  1  0  0  0  0  0  0  0  0  0
    7.6688  -14.1981   20.6959 C   0  0  0  0  0  0  0  0  0  0  0  0
    8.4713  -14.6325   19.4895 C   0  0  0  0  0  0  0  0  0  0  0  0
    8.0461  -13.7825   18.3071 C   0  0  0  0  0  0  0  0  0  0  0  0
    8.6457  -14.3206   17.0240 C   0  0  0  0  0  0  0  0  0  0  0  0
    8.0856  -13.6413   15.8891 N   0  0  0  0  0  0  0  0  0  0  0  0
    9.3070  -15.1065   22.2805 C   0  0  0  0  0  0  0  0  0  0  0  0
    9.8158  -14.1523   22.9293 O   0  0  0  0  0  0  0  0  0  0  0  0
   12.8028  -20.0395   27.1166 N   0  0  0  0  0  0  0  0  0  0  0  0
   11.6625  -19.3693   27.6232 C   0  0  0  0  0  0  0  0  0  0  0  0
   11.3525  -19.4691   28.8901 N   0  0  0  0  0  0  0  0  0  0  0  0
   10.8668  -18.5941   26.7436 N   0  0  0  0  0  0  0  0  0  0  0  0
   10.9381  -18.8772   25.2996 C   0  0  0  0  0  0  0  0  0  0  0  0
   10.9056  -17.5826   24.5953 C   0  0  0  0  0  0  0  0  0  0  0  0
   11.5452  -17.4494   23.3051 C   0  0  0  0  0  0  0  0  0  0  0  0
   11.5088  -16.2494   22.4681 C   0  0  2  0  0  0  0  0  0  0  0  0
   10.1027  -16.2102   21.9181 N   0  0  0  0  0  0  0  0  0  0  0  0
   12.3451  -16.1863   21.2745 C   0  0  0  0  0  0  0  0  0  0  0  0
   13.6615  -15.7955   21.2012 O   0  0  0  0  0  0  0  0  0  0  0  0
   11.8449  -16.5125   20.1301 O   0  0  0  0  0  0  0  0  0  0  0  0
  2  1  1  1
  2  4  1  0
  2  3  1  0
  5  4  1  0
  5  7  1  0
  5  6  1  1
  7  8  2  0
  9 10  1  0
  9  7  1  0
 10 16  1  0
 10 11  1  6
 12 11  1  0
 12 13  1  0
 14 15  1  0
 14 13  1  0
 16 17  2  0
 18 19  1  0
 19 21  1  0
 20 19  2  0
 21 22  1  0
 23 24  1  0
 23 22  1  0
 25 24  1  6
 25 27  1  0
 26 16  1  0
 26 25  1  0
 27 29  2  0
 27 28  1  0
M  END
$$$$
