LKR.pdb
     RDKit          3D

 29 28  0  0  1  0  0  0  0  0999 V2000
    5.5231  -11.9389   27.0137 C   0  0  0  0  0  0  0  0  0  0  0  0
    6.4472  -12.1147   25.8463 C   0  0  1  0  0  0  0  0  0  0  0  0
    7.6469  -11.2071   25.9294 C   0  0  0  0  0  0  0  0  0  0  0  0
    6.8358  -13.5516   25.6027 C   0  0  0  0  0  0  0  0  0  0  0  0
    7.8016  -13.7141   24.4748 C   0  0  2  0  0  0  0  0  0  0  0  0
    7.4074  -12.9359   23.3374 N   0  0  0  0  0  0  0  0  0  0  0  0
    7.9464  -15.1584   24.1579 C   0  0  0  0  0  0  0  0  0  0  0  0
    7.9184  -15.9609   25.1250 O   0  0  0  0  0  0  0  0  0  0  0  0
    8.1113  -15.6568   22.8364 N   0  0  0  0  0  0  0  0  0  0  0  0
    8.2986  -17.0521   22.5248 C   0  0  1  0  0  0  0  0  0  0  0  0
    7.6676  -17.4572   21.2187 C   0  0  0  0  0  0  0  0  0  0  0  0
    6.9754  -18.7993   21.3066 C   0  0  0  0  0  0  0  0  0  0  0  0
    6.4135  -19.1326   19.9375 C   0  0  0  0  0  0  0  0  0  0  0  0
    5.6594  -20.4460   19.9788 C   0  0  0  0  0  0  0  0  0  0  0  0
    5.1372  -20.7618   18.6785 N   0  0  0  0  0  0  0  0  0  0  0  0
    9.7503  -17.3751   22.5132 C   0  0  0  0  0  0  0  0  0  0  0  0
   10.5149  -16.9729   21.5945 O   0  0  0  0  0  0  0  0  0  0  0  0
   16.1123  -15.7410   24.8304 N   0  0  0  0  0  0  0  0  0  0  0  0
   16.6727  -15.8714   23.5362 C   0  0  0  0  0  0  0  0  0  0  0  0
   17.8051  -15.2824   23.2499 N   0  0  0  0  0  0  0  0  0  0  0  0
   15.9935  -16.6439   22.5616 N   0  0  0  0  0  0  0  0  0  0  0  0
   14.5343  -16.4862   22.4337 C   0  0  0  0  0  0  0  0  0  0  0  0
   13.9130  -17.2170   23.5531 C   0  0  0  0  0  0  0  0  0  0  0  0
   12.4731  -17.3297   23.6276 C   0  0  0  0  0  0  0  0  0  0  0  0
   11.7166  -18.5710   23.4582 C   0  0  2  0  0  0  0  0  0  0  0  0
   10.2691  -18.1535   23.5656 N   0  0  0  0  0  0  0  0  0  0  0  0
   11.8437  -19.6261   24.4576 C   0  0  0  0  0  0  0  0  0  0  0  0
   12.7673  -20.6446   24.4787 O   0  0  0  0  0  0  0  0  0  0  0  0
   11.0190  -19.6641   25.4499 O   0  0  0  0  0  0  0  0  0  0  0  0
  2  1  1  1
  2  4  1  0
  2  3  1  0
  5  4  1  0
  5  7  1  0
  5  6  1  6
  7  8  2  0
  9 10  1  0
  9  7  1  0
 10 16  1  0
 10 11  1  6
 12 11  1  0
 12 13  1  0
 14 15  1  0
 14 13  1  0
 16 17  2  0
 18 19  1  0
 19 21  1  0
 20 19  2  0
 21 22  1  0
 23 24  1  0
 23 22  1  0
 25 24  1  1
 25 27  1  0
 26 16  1  0
 26 25  1  0
 27 29  2  0
 27 28  1  0
M  END
$$$$
