LKR.pdb
     RDKit          3D

 29 28  0  0  1  0  0  0  0  0999 V2000
    6.5666  -12.2040   18.0120 C   0  0  0  0  0  0  0  0  0  0  0  0
    7.7032  -13.1302   18.3250 C   0  0  1  0  0  0  0  0  0  0  0  0
    8.9729  -12.3844   18.6436 C   0  0  0  0  0  0  0  0  0  0  0  0
    7.3654  -14.1560   19.3780 C   0  0  0  0  0  0  0  0  0  0  0  0
    8.5168  -15.0432   19.7219 C   0  0  2  0  0  0  0  0  0  0  0  0
    8.8264  -15.9343   18.6426 N   0  0  0  0  0  0  0  0  0  0  0  0
    8.2215  -15.7602   20.9893 C   0  0  0  0  0  0  0  0  0  0  0  0
    7.9522  -15.0555   21.9948 O   0  0  0  0  0  0  0  0  0  0  0  0
    8.2313  -17.1772   21.1073 N   0  0  0  0  0  0  0  0  0  0  0  0
    8.0167  -17.8785   22.3487 C   0  0  1  0  0  0  0  0  0  0  0  0
    7.7198  -19.3426   22.1583 C   0  0  0  0  0  0  0  0  0  0  0  0
    7.6407  -20.0887   23.4718 C   0  0  0  0  0  0  0  0  0  0  0  0
    7.4145  -21.5578   23.1688 C   0  0  0  0  0  0  0  0  0  0  0  0
    7.2990  -22.3528   24.4533 C   0  0  0  0  0  0  0  0  0  0  0  0
    6.0645  -22.0454   25.1201 N   0  0  0  0  0  0  0  0  0  0  0  0
    9.1990  -17.7075   23.2347 C   0  0  0  0  0  0  0  0  0  0  0  0
   10.3617  -18.0235   22.8622 O   0  0  0  0  0  0  0  0  0  0  0  0
   11.6352  -14.9638   30.4176 N   0  0  0  0  0  0  0  0  0  0  0  0
   10.3206  -15.4861   30.3470 C   0  0  0  0  0  0  0  0  0  0  0  0
    9.9436  -16.4266   31.1743 N   0  0  0  0  0  0  0  0  0  0  0  0
    9.4249  -14.9788   29.3733 N   0  0  0  0  0  0  0  0  0  0  0  0
    9.9794  -14.2269   28.2342 C   0  0  0  0  0  0  0  0  0  0  0  0
   10.5784  -15.2067   27.3099 C   0  0  0  0  0  0  0  0  0  0  0  0
    9.7437  -15.8923   26.3484 C   0  0  0  0  0  0  0  0  0  0  0  0
   10.2296  -16.8022   25.3102 C   0  0  2  0  0  0  0  0  0  0  0  0
    8.9962  -17.1766   24.5230 N   0  0  0  0  0  0  0  0  0  0  0  0
   10.7929  -18.0909   25.6974 C   0  0  0  0  0  0  0  0  0  0  0  0
   12.1174  -18.3866   25.9194 O   0  0  0  0  0  0  0  0  0  0  0  0
   10.0101  -19.1053   25.8542 O   0  0  0  0  0  0  0  0  0  0  0  0
  2  1  1  1
  2  4  1  0
  2  3  1  0
  5  4  1  0
  5  7  1  0
  5  6  1  6
  7  8  2  0
  9 10  1  0
  9  7  1  0
 10 16  1  0
 10 11  1  6
 12 11  1  0
 12 13  1  0
 14 15  1  0
 14 13  1  0
 16 17  2  0
 18 19  1  0
 19 21  1  0
 20 19  2  0
 21 22  1  0
 23 24  1  0
 23 22  1  0
 25 24  1  1
 25 27  1  0
 26 16  1  0
 26 25  1  0
 27 29  2  0
 27 28  1  0
M  END
$$$$
