LKR.pdb
     RDKit          3D

 29 28  0  0  1  0  0  0  0  0999 V2000
    6.5238  -12.4152   19.3419 C   0  0  0  0  0  0  0  0  0  0  0  0
    7.8302  -13.0955   19.0623 C   0  0  1  0  0  0  0  0  0  0  0  0
    8.9929  -12.1392   19.1206 C   0  0  0  0  0  0  0  0  0  0  0  0
    8.0585  -14.3223   19.9097 C   0  0  0  0  0  0  0  0  0  0  0  0
    9.3858  -14.9630   19.6669 C   0  0  2  0  0  0  0  0  0  0  0  0
    9.5761  -15.2525   18.2760 N   0  0  0  0  0  0  0  0  0  0  0  0
    9.5119  -16.1693   20.5251 C   0  0  0  0  0  0  0  0  0  0  0  0
    9.0099  -16.1066   21.6759 O   0  0  0  0  0  0  0  0  0  0  0  0
   10.1619  -17.3627   20.1067 N   0  0  0  0  0  0  0  0  0  0  0  0
   10.3286  -18.5209   20.9493 C   0  0  1  0  0  0  0  0  0  0  0  0
   10.9787  -19.6801   20.2410 C   0  0  0  0  0  0  0  0  0  0  0  0
   11.1306  -20.8893   21.1370 C   0  0  0  0  0  0  0  0  0  0  0  0
   11.8508  -21.9709   20.3542 C   0  0  0  0  0  0  0  0  0  0  0  0
   11.9433  -23.2440   21.1703 C   0  0  0  0  0  0  0  0  0  0  0  0
   12.6979  -24.2380   20.4592 N   0  0  0  0  0  0  0  0  0  0  0  0
   11.1136  -18.1553   22.1585 C   0  0  0  0  0  0  0  0  0  0  0  0
   12.1792  -17.4851   22.0834 O   0  0  0  0  0  0  0  0  0  0  0  0
    8.7015  -13.6156   28.0562 N   0  0  0  0  0  0  0  0  0  0  0  0
    9.7011  -14.3553   28.7342 C   0  0  0  0  0  0  0  0  0  0  0  0
   10.2708  -13.8609   29.8030 N   0  0  0  0  0  0  0  0  0  0  0  0
   10.0733  -15.6306   28.2415 N   0  0  0  0  0  0  0  0  0  0  0  0
   10.9612  -15.6974   27.0679 C   0  0  0  0  0  0  0  0  0  0  0  0
   10.1747  -16.2540   25.9522 C   0  0  0  0  0  0  0  0  0  0  0  0
   10.3675  -17.6305   25.5525 C   0  0  0  0  0  0  0  0  0  0  0  0
   11.4006  -18.1015   24.6291 C   0  0  2  0  0  0  0  0  0  0  0  0
   10.6390  -18.5779   23.4150 N   0  0  0  0  0  0  0  0  0  0  0  0
   12.2144  -19.2550   24.9971 C   0  0  0  0  0  0  0  0  0  0  0  0
   13.4177  -19.2455   25.6625 O   0  0  0  0  0  0  0  0  0  0  0  0
   11.8155  -20.4411   24.6802 O   0  0  0  0  0  0  0  0  0  0  0  0
  2  1  1  1
  2  4  1  0
  2  3  1  0
  5  4  1  0
  5  7  1  0
  5  6  1  6
  7  8  2  0
  9 10  1  0
  9  7  1  0
 10 16  1  0
 10 11  1  6
 12 11  1  0
 12 13  1  0
 14 15  1  0
 14 13  1  0
 16 17  2  0
 18 19  1  0
 19 21  1  0
 20 19  2  0
 21 22  1  0
 23 24  1  0
 23 22  1  0
 25 24  1  1
 25 27  1  0
 26 16  1  0
 26 25  1  0
 27 29  2  0
 27 28  1  0
M  END
$$$$
