LKR.pdb
     RDKit          3D

 29 28  0  0  1  0  0  0  0  0999 V2000
    7.0416  -12.3062   27.6322 C   0  0  0  0  0  0  0  0  0  0  0  0
    6.5187  -13.0629   26.4483 C   0  0  1  0  0  0  0  0  0  0  0  0
    6.4956  -12.2198   25.1999 C   0  0  0  0  0  0  0  0  0  0  0  0
    7.2118  -14.3848   26.2303 C   0  0  0  0  0  0  0  0  0  0  0  0
    6.5744  -15.2110   25.1615 C   0  0  2  0  0  0  0  0  0  0  0  0
    5.4225  -15.9043   25.6587 N   0  0  0  0  0  0  0  0  0  0  0  0
    7.5885  -16.1287   24.5813 C   0  0  0  0  0  0  0  0  0  0  0  0
    7.7547  -17.2338   25.1571 O   0  0  0  0  0  0  0  0  0  0  0  0
    8.3599  -15.8145   23.4289 N   0  0  0  0  0  0  0  0  0  0  0  0
    9.3395  -16.7031   22.8547 C   0  0  1  0  0  0  0  0  0  0  0  0
    9.7458  -16.3139   21.4578 C   0  0  0  0  0  0  0  0  0  0  0  0
    8.7208  -16.7269   20.4248 C   0  0  0  0  0  0  0  0  0  0  0  0
    9.2112  -16.2720   19.0632 C   0  0  0  0  0  0  0  0  0  0  0  0
    8.2254  -16.6704   17.9840 C   0  0  0  0  0  0  0  0  0  0  0  0
    8.6055  -16.0939   16.7245 N   0  0  0  0  0  0  0  0  0  0  0  0
   10.5363  -16.7700   23.7353 C   0  0  0  0  0  0  0  0  0  0  0  0
   10.9834  -15.7518   24.3300 O   0  0  0  0  0  0  0  0  0  0  0  0
   11.4193  -19.8326   31.0783 N   0  0  0  0  0  0  0  0  0  0  0  0
   12.7809  -19.9000   30.6944 C   0  0  0  0  0  0  0  0  0  0  0  0
   13.7160  -19.9758   31.6061 N   0  0  0  0  0  0  0  0  0  0  0  0
   13.1142  -19.8840   29.3173 N   0  0  0  0  0  0  0  0  0  0  0  0
   12.0659  -19.5261   28.3461 C   0  0  0  0  0  0  0  0  0  0  0  0
   12.6994  -19.4680   27.0162 C   0  0  0  0  0  0  0  0  0  0  0  0
   11.9193  -19.0729   25.8644 C   0  0  0  0  0  0  0  0  0  0  0  0
   12.3233  -18.0691   24.8790 C   0  0  2  0  0  0  0  0  0  0  0  0
   11.1761  -18.0137   23.8982 N   0  0  0  0  0  0  0  0  0  0  0  0
   13.4843  -18.3259   24.0337 C   0  0  0  0  0  0  0  0  0  0  0  0
   14.8066  -18.1273   24.3544 O   0  0  0  0  0  0  0  0  0  0  0  0
   13.3116  -18.7813   22.8383 O   0  0  0  0  0  0  0  0  0  0  0  0
  2  1  1  1
  2  4  1  0
  2  3  1  0
  5  4  1  0
  5  7  1  0
  5  6  1  1
  7  8  2  0
  9 10  1  0
  9  7  1  0
 10 16  1  0
 10 11  1  6
 12 11  1  0
 12 13  1  0
 14 15  1  0
 14 13  1  0
 16 17  2  0
 18 19  1  0
 19 21  1  0
 20 19  2  0
 21 22  1  0
 23 24  1  0
 23 22  1  0
 25 24  1  1
 25 27  1  0
 26 16  1  0
 26 25  1  0
 27 29  2  0
 27 28  1  0
M  END
$$$$
