LKR.pdb
     RDKit          3D

 29 28  0  0  1  0  0  0  0  0999 V2000
    7.1759  -12.7820   18.1096 C   0  0  0  0  0  0  0  0  0  0  0  0
    8.1661  -13.7431   18.6960 C   0  0  1  0  0  0  0  0  0  0  0  0
    9.4737  -13.0758   19.0348 C   0  0  0  0  0  0  0  0  0  0  0  0
    7.6146  -14.5369   19.8540 C   0  0  0  0  0  0  0  0  0  0  0  0
    8.6131  -15.4749   20.4493 C   0  0  2  0  0  0  0  0  0  0  0  0
    9.1762  -16.3360   19.4511 N   0  0  0  0  0  0  0  0  0  0  0  0
    7.9764  -16.2273   21.5611 C   0  0  0  0  0  0  0  0  0  0  0  0
    7.1186  -15.6157   22.2469 O   0  0  0  0  0  0  0  0  0  0  0  0
    8.2911  -17.5785   21.8726 N   0  0  0  0  0  0  0  0  0  0  0  0
    7.6415  -18.3313   22.9167 C   0  0  1  0  0  0  0  0  0  0  0  0
    7.4481  -19.7834   22.5674 C   0  0  0  0  0  0  0  0  0  0  0  0
    6.8186  -20.5677   23.6974 C   0  0  0  0  0  0  0  0  0  0  0  0
    6.5485  -21.9762   23.2030 C   0  0  0  0  0  0  0  0  0  0  0  0
    5.9564  -22.8230   24.3111 C   0  0  0  0  0  0  0  0  0  0  0  0
    5.7778  -24.1759   23.8629 N   0  0  0  0  0  0  0  0  0  0  0  0
    8.4141  -18.2084   24.1817 C   0  0  0  0  0  0  0  0  0  0  0  0
    8.1140  -18.8700   25.2125 O   0  0  0  0  0  0  0  0  0  0  0  0
    4.8044  -12.1456   26.8695 N   0  0  0  0  0  0  0  0  0  0  0  0
    6.1306  -11.7127   27.1140 C   0  0  0  0  0  0  0  0  0  0  0  0
    6.3644  -10.4671   27.4383 N   0  0  0  0  0  0  0  0  0  0  0  0
    7.1944  -12.6422   27.0029 N   0  0  0  0  0  0  0  0  0  0  0  0
    6.8866  -14.0097   26.5499 C   0  0  0  0  0  0  0  0  0  0  0  0
    8.1379  -14.7864   26.6133 C   0  0  0  0  0  0  0  0  0  0  0  0
    8.5392  -15.5973   25.4850 C   0  0  0  0  0  0  0  0  0  0  0  0
    9.6897  -16.5017   25.4660 C   0  0  2  0  0  0  0  0  0  0  0  0
    9.5087  -17.3232   24.2116 N   0  0  0  0  0  0  0  0  0  0  0  0
    9.8258  -17.5053   26.5159 C   0  0  0  0  0  0  0  0  0  0  0  0
   10.8845  -17.6687   27.3780 O   0  0  0  0  0  0  0  0  0  0  0  0
    8.8831  -18.3688   26.6955 O   0  0  0  0  0  0  0  0  0  0  0  0
  2  1  1  1
  2  4  1  0
  2  3  1  0
  5  4  1  0
  5  7  1  0
  5  6  1  6
  7  8  2  0
  9 10  1  0
  9  7  1  0
 10 16  1  0
 10 11  1  6
 12 11  1  0
 12 13  1  0
 14 15  1  0
 14 13  1  0
 16 17  2  0
 18 19  1  0
 19 21  1  0
 20 19  2  0
 21 22  1  0
 23 24  1  0
 23 22  1  0
 25 24  1  1
 25 27  1  0
 26 16  1  0
 26 25  1  0
 27 29  2  0
 27 28  1  0
M  END
$$$$
