LKR.pdb
     RDKit          3D

 29 28  0  0  1  0  0  0  0  0999 V2000
    6.9076  -12.1640   27.3749 C   0  0  0  0  0  0  0  0  0  0  0  0
    6.1408  -13.2530   26.6866 C   0  0  1  0  0  0  0  0  0  0  0  0
    5.3495  -12.7367   25.5131 C   0  0  0  0  0  0  0  0  0  0  0  0
    6.9917  -14.4435   26.3204 C   0  0  0  0  0  0  0  0  0  0  0  0
    6.2929  -15.4078   25.4190 C   0  0  2  0  0  0  0  0  0  0  0  0
    5.9138  -16.5968   26.1242 N   0  0  0  0  0  0  0  0  0  0  0  0
    7.1543  -15.6907   24.2419 C   0  0  0  0  0  0  0  0  0  0  0  0
    8.0307  -16.5818   24.3765 O   0  0  0  0  0  0  0  0  0  0  0  0
    7.0298  -15.0103   22.9996 N   0  0  0  0  0  0  0  0  0  0  0  0
    7.9203  -15.2122   21.8837 C   0  0  1  0  0  0  0  0  0  0  0  0
    7.6262  -14.3037   20.7192 C   0  0  0  0  0  0  0  0  0  0  0  0
    8.4706  -14.6306   19.5074 C   0  0  0  0  0  0  0  0  0  0  0  0
    7.9604  -13.8082   18.3392 C   0  0  0  0  0  0  0  0  0  0  0  0
    8.6619  -14.2131   17.0589 C   0  0  0  0  0  0  0  0  0  0  0  0
    8.2408  -13.3726   15.9728 N   0  0  0  0  0  0  0  0  0  0  0  0
    9.3296  -15.0369   22.3256 C   0  0  0  0  0  0  0  0  0  0  0  0
    9.6867  -14.0623   23.0419 O   0  0  0  0  0  0  0  0  0  0  0  0
   10.9911  -18.2437   28.5104 N   0  0  0  0  0  0  0  0  0  0  0  0
   11.7574  -17.0763   28.7470 C   0  0  0  0  0  0  0  0  0  0  0  0
   12.2291  -16.8329   29.9426 N   0  0  0  0  0  0  0  0  0  0  0  0
   12.0044  -16.1810   27.6769 N   0  0  0  0  0  0  0  0  0  0  0  0
   11.0101  -16.0915   26.5935 C   0  0  0  0  0  0  0  0  0  0  0  0
   11.6569  -16.5780   25.3614 C   0  0  0  0  0  0  0  0  0  0  0  0
   10.9266  -16.5676   24.1132 C   0  0  0  0  0  0  0  0  0  0  0  0
   11.4834  -16.1814   22.8160 C   0  0  2  0  0  0  0  0  0  0  0  0
   10.2791  -15.9957   21.9237 N   0  0  0  0  0  0  0  0  0  0  0  0
   12.3097  -17.1337   22.0822 C   0  0  0  0  0  0  0  0  0  0  0  0
   11.8845  -18.0863   21.1863 O   0  0  0  0  0  0  0  0  0  0  0  0
   13.5882  -17.1353   22.2608 O   0  0  0  0  0  0  0  0  0  0  0  0
  2  1  1  6
  2  4  1  0
  2  3  1  0
  5  4  1  0
  5  7  1  0
  5  6  1  1
  7  8  2  0
  9 10  1  0
  9  7  1  0
 10 16  1  0
 10 11  1  6
 12 11  1  0
 12 13  1  0
 14 15  1  0
 14 13  1  0
 16 17  2  0
 18 19  1  0
 19 21  1  0
 20 19  2  0
 21 22  1  0
 23 24  1  0
 23 22  1  0
 25 24  1  1
 25 27  1  0
 26 16  1  0
 26 25  1  0
 27 29  2  0
 27 28  1  0
M  END
$$$$
