NTT.pdb
     RDKit          3D

 23 22  0  0  1  0  0  0  0  0999 V2000
   20.0513  -22.1991  -13.3618 N   0  0  0  0  0  0  0  0  0  0  0  0
   20.3614  -21.5204  -14.5717 C   0  0  0  0  0  0  0  0  0  0  0  0
   19.9721  -22.0680  -15.6443 O   0  0  0  0  0  0  0  0  0  0  0  0
   21.1051  -20.2338  -14.5688 C   0  0  0  0  0  0  0  0  0  0  0  0
   20.2199  -19.1727  -15.1419 C   0  0  2  0  0  0  0  0  0  0  0  0
   19.8724  -19.5816  -16.5026 N   0  0  0  0  0  0  0  0  0  0  0  0
   20.8303  -17.8310  -15.1231 C   0  0  0  0  0  0  0  0  0  0  0  0
   21.2687  -17.3926  -14.0451 O   0  0  0  0  0  0  0  0  0  0  0  0
   23.8408  -16.4322  -17.0070 C   0  0  0  0  0  0  0  0  0  0  0  0
   22.6549  -15.5651  -17.3019 C   0  0  1  0  0  0  0  0  0  0  0  0
   22.1856  -15.8802  -18.5773 O   0  0  0  0  0  0  0  0  0  0  0  0
   21.5435  -15.7182  -16.2925 C   0  0  2  0  0  0  0  0  0  0  0  0
   20.9435  -17.0047  -16.2903 N   0  0  0  0  0  0  0  0  0  0  0  0
   20.5597  -14.6121  -16.5162 C   0  0  0  0  0  0  0  0  0  0  0  0
   19.4214  -14.7908  -16.9718 O   0  0  0  0  0  0  0  0  0  0  0  0
   18.8639  -10.2370  -15.2917 C   0  0  0  0  0  0  0  0  0  0  0  0
   19.7470  -11.4446  -15.0800 C   0  0  1  0  0  0  0  0  0  0  0  0
   19.0718  -12.2989  -14.2088 O   0  0  0  0  0  0  0  0  0  0  0  0
   19.9874  -12.2023  -16.3592 C   0  0  2  0  0  0  0  0  0  0  0  0
   20.9403  -13.2806  -16.1922 N   0  0  0  0  0  0  0  0  0  0  0  0
   20.4992  -11.2456  -17.3726 C   0  0  0  0  0  0  0  0  0  0  0  0
   21.8367  -11.2430  -17.7387 O   0  0  0  0  0  0  0  0  0  0  0  0
   19.7478  -10.4091  -17.9326 O   0  0  0  0  0  0  0  0  0  0  0  0
  2  4  1  0
  2  1  1  0
  3  2  2  0
  5  4  1  0
  5  6  1  6
  7  5  1  0
  7  8  2  0
 10  9  1  1
 10 12  1  0
 11 10  1  0
 12 13  1  6
 12 14  1  0
 13  7  1  0
 14 20  1  0
 14 15  2  0
 17 16  1  6
 18 17  1  0
 19 17  1  0
 19 20  1  1
 21 22  1  0
 21 19  1  0
 23 21  2  0
M  END
$$$$
