NTT.pdb
     RDKit          3D

 23 22  0  0  1  0  0  0  0  0999 V2000
   21.7774  -22.3036   -9.7166 N   0  0  0  0  0  0  0  0  0  0  0  0
   21.6402  -20.9049   -9.9299 C   0  0  0  0  0  0  0  0  0  0  0  0
   20.4847  -20.4168   -9.7614 O   0  0  0  0  0  0  0  0  0  0  0  0
   22.7994  -20.0656  -10.3301 C   0  0  0  0  0  0  0  0  0  0  0  0
   23.9955  -20.9508  -10.4845 C   0  0  2  0  0  0  0  0  0  0  0  0
   24.4509  -21.3078   -9.1412 N   0  0  0  0  0  0  0  0  0  0  0  0
   25.0782  -20.3358  -11.2736 C   0  0  0  0  0  0  0  0  0  0  0  0
   25.9597  -19.6948  -10.6747 O   0  0  0  0  0  0  0  0  0  0  0  0
   27.9469  -21.5191  -13.1417 C   0  0  0  0  0  0  0  0  0  0  0  0
   27.1365  -20.7401  -14.1325 C   0  0  1  0  0  0  0  0  0  0  0  0
   26.4550  -21.6422  -14.9499 O   0  0  0  0  0  0  0  0  0  0  0  0
   26.1572  -19.7932  -13.4830 C   0  0  2  0  0  0  0  0  0  0  0  0
   25.1648  -20.4411  -12.7016 N   0  0  0  0  0  0  0  0  0  0  0  0
   25.5827  -18.9166  -14.5520 C   0  0  0  0  0  0  0  0  0  0  0  0
   24.3921  -18.9451  -14.8936 O   0  0  0  0  0  0  0  0  0  0  0  0
   26.2343  -15.0417  -17.5900 C   0  0  0  0  0  0  0  0  0  0  0  0
   26.7909  -15.9370  -16.5076 C   0  0  1  0  0  0  0  0  0  0  0  0
   26.8545  -15.1777  -15.3396 O   0  0  0  0  0  0  0  0  0  0  0  0
   25.8957  -17.1162  -16.2313 C   0  0  2  0  0  0  0  0  0  0  0  0
   26.4395  -17.9976  -15.2184 N   0  0  0  0  0  0  0  0  0  0  0  0
   25.7220  -17.8702  -17.4983 C   0  0  0  0  0  0  0  0  0  0  0  0
   24.5755  -17.7223  -18.2641 O   0  0  0  0  0  0  0  0  0  0  0  0
   26.5986  -18.6639  -17.9221 O   0  0  0  0  0  0  0  0  0  0  0  0
  2  4  1  0
  2  1  1  0
  3  2  2  0
  5  4  1  0
  5  6  1  1
  7  5  1  0
  7  8  2  0
 10  9  1  1
 10 12  1  0
 11 10  1  0
 12 13  1  6
 12 14  1  0
 13  7  1  0
 14 20  1  0
 14 15  2  0
 17 16  1  6
 18 17  1  0
 19 17  1  0
 19 20  1  1
 21 22  1  0
 21 19  1  0
 23 21  2  0
M  END
$$$$
