NTT.pdb
     RDKit          3D

 23 22  0  0  1  0  0  0  0  0999 V2000
   17.3393  -13.8951  -17.1638 N   0  0  0  0  0  0  0  0  0  0  0  0
   17.1365  -13.5881  -15.7908 C   0  0  0  0  0  0  0  0  0  0  0  0
   16.4623  -14.4213  -15.1176 O   0  0  0  0  0  0  0  0  0  0  0  0
   17.6910  -12.3499  -15.1844 C   0  0  0  0  0  0  0  0  0  0  0  0
   16.6267  -11.7135  -14.3476 C   0  0  2  0  0  0  0  0  0  0  0  0
   15.5981  -11.2105  -15.2578 N   0  0  0  0  0  0  0  0  0  0  0  0
   17.1364  -10.6450  -13.4692 C   0  0  0  0  0  0  0  0  0  0  0  0
   18.0391  -10.9212  -12.6597 O   0  0  0  0  0  0  0  0  0  0  0  0
   16.9604   -6.4566  -14.4202 C   0  0  0  0  0  0  0  0  0  0  0  0
   17.8455   -7.1617  -13.4379 C   0  0  1  0  0  0  0  0  0  0  0  0
   18.3545   -6.2167  -12.5468 O   0  0  0  0  0  0  0  0  0  0  0  0
   17.1343   -8.2546  -12.6780 C   0  0  2  0  0  0  0  0  0  0  0  0
   16.6407   -9.2992  -13.5028 N   0  0  0  0  0  0  0  0  0  0  0  0
   16.0710   -7.6177  -11.8383 C   0  0  0  0  0  0  0  0  0  0  0  0
   14.9109   -7.4293  -12.2304 O   0  0  0  0  0  0  0  0  0  0  0  0
   14.5562   -6.1472   -7.3729 C   0  0  0  0  0  0  0  0  0  0  0  0
   15.6634   -6.7248   -8.2234 C   0  0  1  0  0  0  0  0  0  0  0  0
   15.7186   -8.0916   -7.9521 O   0  0  0  0  0  0  0  0  0  0  0  0
   15.3880   -6.5676   -9.6957 C   0  0  2  0  0  0  0  0  0  0  0  0
   16.3978   -7.2025  -10.5178 N   0  0  0  0  0  0  0  0  0  0  0  0
   15.3433   -5.1161  -10.0041 C   0  0  0  0  0  0  0  0  0  0  0  0
   14.1511   -4.4106   -9.9415 O   0  0  0  0  0  0  0  0  0  0  0  0
   16.3739   -4.4764  -10.3306 O   0  0  0  0  0  0  0  0  0  0  0  0
  2  4  1  0
  2  1  1  0
  3  2  2  0
  5  4  1  0
  5  6  1  6
  7  5  1  0
  7  8  2  0
 10  9  1  6
 10 12  1  0
 11 10  1  0
 12 13  1  6
 12 14  1  0
 13  7  1  0
 14 20  1  0
 14 15  2  0
 17 16  1  1
 18 17  1  0
 19 17  1  0
 19 20  1  6
 21 22  1  0
 21 19  1  0
 23 21  2  0
M  END
$$$$
