NTT.pdb
     RDKit          3D

 23 22  0  0  1  0  0  0  0  0999 V2000
   15.8897  -11.9491  -17.5494 N   0  0  0  0  0  0  0  0  0  0  0  0
   16.5589  -12.8795  -16.7085 C   0  0  0  0  0  0  0  0  0  0  0  0
   15.9571  -13.9686  -16.4769 O   0  0  0  0  0  0  0  0  0  0  0  0
   17.8968  -12.5811  -16.1346 C   0  0  0  0  0  0  0  0  0  0  0  0
   18.3211  -11.2242  -16.6003 C   0  0  2  0  0  0  0  0  0  0  0  0
   18.8927  -11.3804  -17.9376 N   0  0  0  0  0  0  0  0  0  0  0  0
   19.2685  -10.5631  -15.6845 C   0  0  0  0  0  0  0  0  0  0  0  0
   18.9802  -10.4981  -14.4766 O   0  0  0  0  0  0  0  0  0  0  0  0
   23.7672   -9.3547  -14.3083 C   0  0  0  0  0  0  0  0  0  0  0  0
   22.7946  -10.0320  -15.2251 C   0  0  1  0  0  0  0  0  0  0  0  0
   22.6638  -11.3616  -14.8235 O   0  0  0  0  0  0  0  0  0  0  0  0
   21.4404   -9.3662  -15.2486 C   0  0  2  0  0  0  0  0  0  0  0  0
   20.5094   -9.9900  -16.1199 N   0  0  0  0  0  0  0  0  0  0  0  0
   21.6440   -7.9139  -15.5497 C   0  0  0  0  0  0  0  0  0  0  0  0
   22.1104   -7.4956  -16.6187 O   0  0  0  0  0  0  0  0  0  0  0  0
   19.3571   -5.2811  -16.2063 C   0  0  0  0  0  0  0  0  0  0  0  0
   20.1221   -4.8319  -14.9832 C   0  0  1  0  0  0  0  0  0  0  0  0
   19.3517   -5.1690  -13.8707 O   0  0  0  0  0  0  0  0  0  0  0  0
   21.4437   -5.5415  -14.8489 C   0  0  2  0  0  0  0  0  0  0  0  0
   21.2867   -6.9531  -14.5638 N   0  0  0  0  0  0  0  0  0  0  0  0
   22.2026   -4.8981  -13.7470 C   0  0  0  0  0  0  0  0  0  0  0  0
   22.6946   -3.6083  -13.8787 O   0  0  0  0  0  0  0  0  0  0  0  0
   22.4266   -5.4914  -12.6627 O   0  0  0  0  0  0  0  0  0  0  0  0
  2  4  1  0
  2  1  1  0
  3  2  2  0
  5  4  1  0
  5  6  1  6
  7  5  1  0
  7  8  2  0
 10  9  1  1
 10 12  1  0
 11 10  1  0
 12 13  1  6
 12 14  1  0
 13  7  1  0
 14 20  1  0
 14 15  2  0
 17 16  1  6
 18 17  1  0
 19 17  1  0
 19 20  1  1
 21 22  1  0
 21 19  1  0
 23 21  2  0
M  END
$$$$
