NTT.pdb
     RDKit          3D

 23 22  0  0  1  0  0  0  0  0999 V2000
   16.2540  -12.7320  -17.3600 N   0  0  0  0  0  0  0  0  0  0  0  0
   16.8480  -13.2944  -16.1975 C   0  0  0  0  0  0  0  0  0  0  0  0
   16.4157  -14.4262  -15.8313 O   0  0  0  0  0  0  0  0  0  0  0  0
   17.9214  -12.5833  -15.4555 C   0  0  0  0  0  0  0  0  0  0  0  0
   18.1620  -11.2637  -16.1177 C   0  0  2  0  0  0  0  0  0  0  0  0
   18.7966  -11.5318  -17.4080 N   0  0  0  0  0  0  0  0  0  0  0  0
   18.9717  -10.3406  -15.3019 C   0  0  0  0  0  0  0  0  0  0  0  0
   18.6128  -10.1090  -14.1339 O   0  0  0  0  0  0  0  0  0  0  0  0
   22.7577  -10.6824  -14.6473 C   0  0  0  0  0  0  0  0  0  0  0  0
   22.4739   -9.2817  -15.0973 C   0  0  1  0  0  0  0  0  0  0  0  0
   22.8964   -9.1503  -16.4204 O   0  0  0  0  0  0  0  0  0  0  0  0
   21.0166   -8.9065  -14.9830 C   0  0  2  0  0  0  0  0  0  0  0  0
   20.1560   -9.6953  -15.7907 N   0  0  0  0  0  0  0  0  0  0  0  0
   20.8939   -7.4392  -15.2538 C   0  0  0  0  0  0  0  0  0  0  0  0
   20.5219   -6.9726  -16.3396 O   0  0  0  0  0  0  0  0  0  0  0  0
   19.9601   -2.9469  -14.2916 C   0  0  0  0  0  0  0  0  0  0  0  0
   19.8955   -4.4529  -14.1875 C   0  0  1  0  0  0  0  0  0  0  0  0
   18.9849   -4.8918  -15.1482 O   0  0  0  0  0  0  0  0  0  0  0  0
   21.2209   -5.0996  -14.4931 C   0  0  2  0  0  0  0  0  0  0  0  0
   21.2188   -6.5216  -14.2168 N   0  0  0  0  0  0  0  0  0  0  0  0
   22.2589   -4.4383  -13.6629 C   0  0  0  0  0  0  0  0  0  0  0  0
   23.0068   -3.3834  -14.1639 O   0  0  0  0  0  0  0  0  0  0  0  0
   22.4981   -4.8050  -12.4855 O   0  0  0  0  0  0  0  0  0  0  0  0
  2  4  1  0
  2  1  1  0
  3  2  2  0
  5  4  1  0
  5  6  1  6
  7  5  1  0
  7  8  2  0
 10  9  1  6
 10 12  1  0
 11 10  1  0
 12 13  1  6
 12 14  1  0
 13  7  1  0
 14 20  1  0
 14 15  2  0
 17 16  1  6
 18 17  1  0
 19 17  1  0
 19 20  1  1
 21 22  1  0
 21 19  1  0
 23 21  2  0
M  END
$$$$
