NTT.pdb
     RDKit          3D

 23 22  0  0  1  0  0  0  0  0999 V2000
   19.1679  -14.7444  -15.6139 N   0  0  0  0  0  0  0  0  0  0  0  0
   20.2773  -14.3263  -16.3981 C   0  0  0  0  0  0  0  0  0  0  0  0
   21.1867  -15.1841  -16.5960 O   0  0  0  0  0  0  0  0  0  0  0  0
   20.3579  -12.9503  -16.9536 C   0  0  0  0  0  0  0  0  0  0  0  0
   19.1409  -12.1933  -16.5246 C   0  0  2  0  0  0  0  0  0  0  0  0
   18.0141  -12.6968  -17.3097 N   0  0  0  0  0  0  0  0  0  0  0  0
   19.2832  -10.7327  -16.6640 C   0  0  0  0  0  0  0  0  0  0  0  0
   19.4765  -10.2599  -17.7979 O   0  0  0  0  0  0  0  0  0  0  0  0
   16.8284   -8.1044  -16.1987 C   0  0  0  0  0  0  0  0  0  0  0  0
   17.9751   -7.7202  -15.3141 C   0  0  1  0  0  0  0  0  0  0  0  0
   17.6320   -8.0172  -13.9949 O   0  0  0  0  0  0  0  0  0  0  0  0
   19.2639   -8.4154  -15.6794 C   0  0  2  0  0  0  0  0  0  0  0  0
   19.2095   -9.8282  -15.5530 N   0  0  0  0  0  0  0  0  0  0  0  0
   20.3667   -7.7964  -14.8780 C   0  0  0  0  0  0  0  0  0  0  0  0
   20.8863   -8.3414  -13.8941 O   0  0  0  0  0  0  0  0  0  0  0  0
   23.7529   -6.8643  -16.2031 C   0  0  0  0  0  0  0  0  0  0  0  0
   23.1187   -5.6323  -15.6007 C   0  0  1  0  0  0  0  0  0  0  0  0
   22.5236   -4.9250  -16.6449 O   0  0  0  0  0  0  0  0  0  0  0  0
   22.0346   -5.9777  -14.6139 C   0  0  2  0  0  0  0  0  0  0  0  0
   20.8526   -6.5145  -15.2568 N   0  0  0  0  0  0  0  0  0  0  0  0
   21.6743   -4.7423  -13.8736 C   0  0  0  0  0  0  0  0  0  0  0  0
   22.5580   -4.1682  -12.9723 O   0  0  0  0  0  0  0  0  0  0  0  0
   20.5654   -4.1743  -14.0333 O   0  0  0  0  0  0  0  0  0  0  0  0
  2  4  1  0
  2  1  1  0
  3  2  2  0
  5  4  1  0
  5  6  1  6
  7  5  1  0
  7  8  2  0
 10  9  1  6
 10 12  1  0
 11 10  1  0
 12 13  1  1
 12 14  1  0
 13  7  1  0
 14 20  1  0
 14 15  2  0
 17 16  1  6
 18 17  1  0
 19 17  1  0
 19 20  1  6
 21 22  1  0
 21 19  1  0
 23 21  2  0
M  END
$$$$
