HHP.pdb
     RDKit          3D

 28 30  0  0  1  0  0  0  0  0999 V2000
   15.5833  -13.4210  -16.2231 N   0  0  0  0  0  0  0  0  0  0  0  0
   15.9968  -12.1589  -16.7406 C   0  0  1  0  0  0  0  0  0  0  0  0
   14.9905  -11.0747  -16.4361 C   0  0  0  0  0  0  0  0  0  0  0  0
   13.6969  -11.3318  -17.1421 C   0  0  0  0  0  0  0  0  0  0  0  0
   12.6697  -12.1159  -16.7150 C   0  0  0  0  0  0  0  0  0  0  0  0
   11.6927  -12.0827  -17.6373 N   0  0  0  0  0  0  0  0  0  0  0  0
   12.0962  -11.2848  -18.6407 C   0  0  0  0  0  0  0  0  0  0  0  0
   13.3283  -10.8276  -18.3289 N   0  0  0  0  0  0  0  0  0  0  0  0
   17.3250  -11.7270  -16.2727 C   0  0  0  0  0  0  0  0  0  0  0  0
   17.7182  -11.8315  -15.0853 O   0  0  0  0  0  0  0  0  0  0  0  0
   18.2133  -11.1584  -17.2226 N   0  0  0  0  0  0  0  0  0  0  0  0
   19.5553  -10.6967  -16.8758 C   0  0  1  0  0  0  0  0  0  0  0  0
   20.4655  -10.9221  -18.1002 C   0  0  0  0  0  0  0  0  0  0  0  0
   20.6062  -12.3743  -18.3702 C   0  0  0  0  0  0  0  0  0  0  0  0
   21.5941  -13.1924  -17.8646 C   0  0  0  0  0  0  0  0  0  0  0  0
   21.3920  -14.4548  -18.3346 N   0  0  0  0  0  0  0  0  0  0  0  0
   20.2899  -14.4267  -19.1256 C   0  0  0  0  0  0  0  0  0  0  0  0
   19.8336  -13.1691  -19.1335 N   0  0  0  0  0  0  0  0  0  0  0  0
   19.5764   -9.3099  -16.4404 C   0  0  0  0  0  0  0  0  0  0  0  0
   18.7114   -8.5258  -16.9074 O   0  0  0  0  0  0  0  0  0  0  0  0
   20.5263   -8.8314  -15.5212 N   0  0  0  0  0  0  0  0  0  0  0  0
   21.6440   -9.6520  -15.0161 C   0  0  0  0  0  0  0  0  0  0  0  0
   22.0462   -9.0786  -13.6982 C   0  0  0  0  0  0  0  0  0  0  0  0
   20.9227   -8.0712  -13.4180 C   0  0  0  0  0  0  0  0  0  0  0  0
   20.6893   -7.5775  -14.8530 C   0  0  1  0  0  0  0  0  0  0  0  0
   21.9586   -6.8906  -15.2491 C   0  0  0  0  0  0  0  0  0  0  0  0
   22.7580   -7.5701  -15.9448 O   0  0  0  0  0  0  0  0  0  0  0  0
   22.2735   -5.6005  -14.8979 O   0  0  0  0  0  0  0  0  0  0  0  0
  2  3  1  0
  2  1  1  1
  3  4  1  0
  4  5  2  0
  4  8  1  0
  5  6  1  0
  6  7  1  0
  8  7  2  0
  9 11  1  0
  9  2  1  0
 10  9  2  0
 12 19  1  0
 12 11  1  0
 12 13  1  6
 14 13  1  0
 15 14  2  0
 16 17  1  0
 16 15  1  0
 17 18  2  0
 18 14  1  0
 19 21  1  0
 20 19  2  0
 21 25  1  0
 21 22  1  0
 22 23  1  0
 24 23  1  0
 25 24  1  0
 25 26  1  6
 26 27  2  0
 26 28  1  0
M  END
$$$$
