HHP.pdb
     RDKit          3D

 28 30  0  0  1  0  0  0  0  0999 V2000
   25.8512  -16.2173  -17.8341 N   0  0  0  0  0  0  0  0  0  0  0  0
   25.4568  -17.5553  -17.5410 C   0  0  1  0  0  0  0  0  0  0  0  0
   26.5713  -18.3337  -16.8831 C   0  0  0  0  0  0  0  0  0  0  0  0
   27.7656  -18.4197  -17.7799 C   0  0  0  0  0  0  0  0  0  0  0  0
   28.3222  -19.5471  -18.3008 C   0  0  0  0  0  0  0  0  0  0  0  0
   29.3791  -19.1956  -19.0529 N   0  0  0  0  0  0  0  0  0  0  0  0
   29.4922  -17.8571  -19.0097 C   0  0  0  0  0  0  0  0  0  0  0  0
   28.4974  -17.3881  -18.2258 N   0  0  0  0  0  0  0  0  0  0  0  0
   24.2458  -17.6528  -16.7082 C   0  0  0  0  0  0  0  0  0  0  0  0
   24.1290  -17.1236  -15.5761 O   0  0  0  0  0  0  0  0  0  0  0  0
   23.1449  -18.3898  -17.2175 N   0  0  0  0  0  0  0  0  0  0  0  0
   21.8938  -18.5561  -16.4816 C   0  0  1  0  0  0  0  0  0  0  0  0
   20.7346  -18.1740  -17.4245 C   0  0  0  0  0  0  0  0  0  0  0  0
   19.4353  -18.3382  -16.7272 C   0  0  0  0  0  0  0  0  0  0  0  0
   18.6717  -17.3172  -16.2023 C   0  0  0  0  0  0  0  0  0  0  0  0
   17.5536  -17.8578  -15.6430 N   0  0  0  0  0  0  0  0  0  0  0  0
   17.6169  -19.2021  -15.8160 C   0  0  0  0  0  0  0  0  0  0  0  0
   18.7536  -19.4695  -16.4687 N   0  0  0  0  0  0  0  0  0  0  0  0
   21.7306  -19.8986  -15.9486 C   0  0  0  0  0  0  0  0  0  0  0  0
   22.1306  -20.8678  -16.6427 O   0  0  0  0  0  0  0  0  0  0  0  0
   21.1461  -20.1360  -14.6923 N   0  0  0  0  0  0  0  0  0  0  0  0
   20.5920  -19.0624  -13.8450 C   0  0  0  0  0  0  0  0  0  0  0  0
   20.6231  -19.5567  -12.4372 C   0  0  0  0  0  0  0  0  0  0  0  0
   21.4516  -20.8432  -12.5556 C   0  0  0  0  0  0  0  0  0  0  0  0
   20.9418  -21.3236  -13.9220 C   0  0  1  0  0  0  0  0  0  0  0  0
   19.4886  -21.6209  -13.7227 C   0  0  0  0  0  0  0  0  0  0  0  0
   18.6881  -20.7172  -14.0796 O   0  0  0  0  0  0  0  0  0  0  0  0
   19.0126  -22.7930  -13.1873 O   0  0  0  0  0  0  0  0  0  0  0  0
  2  3  1  0
  2  1  1  1
  3  4  1  0
  4  5  2  0
  4  8  1  0
  5  6  1  0
  6  7  1  0
  8  7  2  0
  9 11  1  0
  9  2  1  0
 10  9  2  0
 12 19  1  0
 12 11  1  0
 12 13  1  6
 14 13  1  0
 15 14  2  0
 16 17  1  0
 16 15  1  0
 17 18  2  0
 18 14  1  0
 19 21  1  0
 20 19  2  0
 21 25  1  0
 21 22  1  0
 22 23  1  0
 24 23  1  0
 25 24  1  0
 25 26  1  1
 26 27  2  0
 26 28  1  0
M  END
$$$$
