HHP.pdb
     RDKit          3D

 28 30  0  0  1  0  0  0  0  0999 V2000
    8.6217  -18.0664   -1.2866 N   0  0  0  0  0  0  0  0  0  0  0  0
    9.8265  -18.8188   -1.1687 C   0  0  1  0  0  0  0  0  0  0  0  0
   10.8186  -18.4559   -2.2480 C   0  0  0  0  0  0  0  0  0  0  0  0
   10.2618  -18.7461   -3.6059 C   0  0  0  0  0  0  0  0  0  0  0  0
   10.4038  -19.8936   -4.3238 C   0  0  0  0  0  0  0  0  0  0  0  0
    9.7541  -19.7518   -5.4918 N   0  0  0  0  0  0  0  0  0  0  0  0
    9.2048  -18.5255   -5.5148 C   0  0  0  0  0  0  0  0  0  0  0  0
    9.5213  -17.9142   -4.3528 N   0  0  0  0  0  0  0  0  0  0  0  0
   10.4806  -18.6980    0.1456 C   0  0  0  0  0  0  0  0  0  0  0  0
   10.6141  -17.6147    0.7653 O   0  0  0  0  0  0  0  0  0  0  0  0
   10.9904  -19.8784    0.7468 N   0  0  0  0  0  0  0  0  0  0  0  0
   11.6055  -19.8910    2.0719 C   0  0  1  0  0  0  0  0  0  0  0  0
   11.6479  -21.3530    2.5611 C   0  0  0  0  0  0  0  0  0  0  0  0
   10.2690  -21.8690    2.7452 C   0  0  0  0  0  0  0  0  0  0  0  0
    9.6174  -22.7380    1.8960 C   0  0  0  0  0  0  0  0  0  0  0  0
    8.3737  -22.9795    2.3962 N   0  0  0  0  0  0  0  0  0  0  0  0
    8.2486  -22.2695    3.5457 C   0  0  0  0  0  0  0  0  0  0  0  0
    9.3968  -21.6102    3.7370 N   0  0  0  0  0  0  0  0  0  0  0  0
   12.9262  -19.2837    2.0831 C   0  0  0  0  0  0  0  0  0  0  0  0
   13.6353  -19.3808    1.0492 O   0  0  0  0  0  0  0  0  0  0  0  0
   13.4221  -18.5984    3.2058 N   0  0  0  0  0  0  0  0  0  0  0  0
   12.6734  -18.4764    4.4716 C   0  0  0  0  0  0  0  0  0  0  0  0
   13.1842  -17.2581    5.1658 C   0  0  0  0  0  0  0  0  0  0  0  0
   14.0611  -16.6055    4.0884 C   0  0  0  0  0  0  0  0  0  0  0  0
   14.6339  -17.8795    3.4511 C   0  0  1  0  0  0  0  0  0  0  0  0
   15.4616  -18.5218    4.5200 C   0  0  0  0  0  0  0  0  0  0  0  0
   14.8594  -19.3365    5.2671 O   0  0  0  0  0  0  0  0  0  0  0  0
   16.7980  -18.2679    4.7107 O   0  0  0  0  0  0  0  0  0  0  0  0
  2  3  1  0
  2  1  1  1
  3  4  1  0
  4  5  2  0
  4  8  1  0
  5  6  1  0
  6  7  1  0
  8  7  2  0
  9 11  1  0
  9  2  1  0
 10  9  2  0
 12 19  1  0
 12 11  1  0
 12 13  1  6
 14 13  1  0
 15 14  2  0
 16 17  1  0
 16 15  1  0
 17 18  2  0
 18 14  1  0
 19 21  1  0
 20 19  2  0
 21 25  1  0
 21 22  1  0
 22 23  1  0
 24 23  1  0
 25 24  1  0
 25 26  1  1
 26 27  2  0
 26 28  1  0
M  END
$$$$
