HHP.pdb
     RDKit          3D

 28 30  0  0  1  0  0  0  0  0999 V2000
   22.8222  -10.7929  -18.4059 N   0  0  0  0  0  0  0  0  0  0  0  0
   23.2586   -9.4373  -18.4640 C   0  0  1  0  0  0  0  0  0  0  0  0
   23.5910   -9.0185  -19.8764 C   0  0  0  0  0  0  0  0  0  0  0  0
   24.6326   -9.9141  -20.4689 C   0  0  0  0  0  0  0  0  0  0  0  0
   25.9797   -9.8377  -20.2903 C   0  0  0  0  0  0  0  0  0  0  0  0
   26.5622  -10.8236  -20.9938 N   0  0  0  0  0  0  0  0  0  0  0  0
   25.5935  -11.5195  -21.6132 C   0  0  0  0  0  0  0  0  0  0  0  0
   24.4113  -10.9545  -21.2856 N   0  0  0  0  0  0  0  0  0  0  0  0
   22.3013   -8.4760  -17.8904 C   0  0  0  0  0  0  0  0  0  0  0  0
   21.0730   -8.4709  -18.1486 O   0  0  0  0  0  0  0  0  0  0  0  0
   22.7987   -7.4965  -16.9915 N   0  0  0  0  0  0  0  0  0  0  0  0
   21.9340   -6.5439  -16.2994 C   0  0  1  0  0  0  0  0  0  0  0  0
   21.9762   -6.8727  -14.7932 C   0  0  0  0  0  0  0  0  0  0  0  0
   21.2828   -8.1583  -14.5326 C   0  0  0  0  0  0  0  0  0  0  0  0
   21.8959   -9.3831  -14.3752 C   0  0  0  0  0  0  0  0  0  0  0  0
   20.9344  -10.3220  -14.1528 N   0  0  0  0  0  0  0  0  0  0  0  0
   19.7330   -9.6915  -14.1709 C   0  0  0  0  0  0  0  0  0  0  0  0
   19.9643   -8.3939  -14.4002 N   0  0  0  0  0  0  0  0  0  0  0  0
   22.3031   -5.1616  -16.5566 C   0  0  0  0  0  0  0  0  0  0  0  0
   23.5117   -4.9004  -16.7850 O   0  0  0  0  0  0  0  0  0  0  0  0
   21.3541   -4.1244  -16.5581 N   0  0  0  0  0  0  0  0  0  0  0  0
   19.9207   -4.3428  -16.2841 C   0  0  0  0  0  0  0  0  0  0  0  0
   19.1763   -3.2239  -16.9331 C   0  0  0  0  0  0  0  0  0  0  0  0
   20.2659   -2.5440  -17.7733 C   0  0  0  0  0  0  0  0  0  0  0  0
   21.4474   -2.7195  -16.8086 C   0  0  1  0  0  0  0  0  0  0  0  0
   21.0981   -1.9089  -15.5998 C   0  0  0  0  0  0  0  0  0  0  0  0
   20.4575   -2.5118  -14.6994 O   0  0  0  0  0  0  0  0  0  0  0  0
   21.4349   -0.5868  -15.4403 O   0  0  0  0  0  0  0  0  0  0  0  0
  2  3  1  0
  2  1  1  6
  3  4  1  0
  4  5  2  0
  4  8  1  0
  5  6  1  0
  6  7  1  0
  8  7  2  0
  9 11  1  0
  9  2  1  0
 10  9  2  0
 12 19  1  0
 12 11  1  0
 12 13  1  1
 14 13  1  0
 15 14  2  0
 16 17  1  0
 16 15  1  0
 17 18  2  0
 18 14  1  0
 19 21  1  0
 20 19  2  0
 21 25  1  0
 21 22  1  0
 22 23  1  0
 24 23  1  0
 25 24  1  0
 25 26  1  1
 26 27  2  0
 26 28  1  0
M  END
$$$$
