HHP.pdb
     RDKit          3D

 28 30  0  0  1  0  0  0  0  0999 V2000
   16.0545  -20.9200   -0.0705 N   0  0  0  0  0  0  0  0  0  0  0  0
   15.8655  -21.0750    1.3337 C   0  0  1  0  0  0  0  0  0  0  0  0
   15.6277  -22.5186    1.7084 C   0  0  0  0  0  0  0  0  0  0  0  0
   14.4017  -23.0508    1.0364 C   0  0  0  0  0  0  0  0  0  0  0  0
   13.1105  -22.8889    1.4352 C   0  0  0  0  0  0  0  0  0  0  0  0
   12.3092  -23.5216    0.5611 N   0  0  0  0  0  0  0  0  0  0  0  0
   13.0849  -24.0799   -0.3838 C   0  0  0  0  0  0  0  0  0  0  0  0
   14.3688  -23.7861   -0.0846 N   0  0  0  0  0  0  0  0  0  0  0  0
   16.9715  -20.5430    2.1481 C   0  0  0  0  0  0  0  0  0  0  0  0
   18.1683  -20.9003    2.0242 O   0  0  0  0  0  0  0  0  0  0  0  0
   16.6644  -19.5673    3.1323 N   0  0  0  0  0  0  0  0  0  0  0  0
   17.6521  -19.0620    4.0827 C   0  0  1  0  0  0  0  0  0  0  0  0
   17.0408  -17.8393    4.7968 C   0  0  0  0  0  0  0  0  0  0  0  0
   17.3281  -16.6035    4.0275 C   0  0  0  0  0  0  0  0  0  0  0  0
   18.0787  -16.5332    2.8731 C   0  0  0  0  0  0  0  0  0  0  0  0
   18.1184  -15.2352    2.4621 N   0  0  0  0  0  0  0  0  0  0  0  0
   17.4007  -14.5015    3.3496 C   0  0  0  0  0  0  0  0  0  0  0  0
   16.9351  -15.3415    4.2809 N   0  0  0  0  0  0  0  0  0  0  0  0
   18.0872  -20.0741    5.0311 C   0  0  0  0  0  0  0  0  0  0  0  0
   17.4351  -21.1471    5.0983 O   0  0  0  0  0  0  0  0  0  0  0  0
   19.2053  -19.8856    5.8621 N   0  0  0  0  0  0  0  0  0  0  0  0
   19.9856  -18.6334    5.8921 C   0  0  0  0  0  0  0  0  0  0  0  0
   21.3523  -18.9818    6.3799 C   0  0  0  0  0  0  0  0  0  0  0  0
   21.3282  -20.5163    6.3663 C   0  0  0  0  0  0  0  0  0  0  0  0
   19.8722  -20.7303    6.8040 C   0  0  1  0  0  0  0  0  0  0  0  0
   19.7920  -20.1908    8.1977 C   0  0  0  0  0  0  0  0  0  0  0  0
   19.4857  -18.9741    8.2999 O   0  0  0  0  0  0  0  0  0  0  0  0
   20.0301  -20.9399    9.3242 O   0  0  0  0  0  0  0  0  0  0  0  0
  2  3  1  0
  2  1  1  6
  3  4  1  0
  4  5  2  0
  4  8  1  0
  5  6  1  0
  6  7  1  0
  8  7  2  0
  9 11  1  0
  9  2  1  0
 10  9  2  0
 12 19  1  0
 12 11  1  0
 12 13  1  1
 14 13  1  0
 15 14  2  0
 16 17  1  0
 16 15  1  0
 17 18  2  0
 18 14  1  0
 19 21  1  0
 20 19  2  0
 21 25  1  0
 21 22  1  0
 22 23  1  0
 24 23  1  0
 25 24  1  0
 25 26  1  1
 26 27  2  0
 26 28  1  0
M  END
$$$$
