HHP.pdb
     RDKit          3D

 28 30  0  0  1  0  0  0  0  0999 V2000
   36.8900  -29.3415  -14.6778 N   0  0  0  0  0  0  0  0  0  0  0  0
   37.1306  -29.7935  -16.0080 C   0  0  1  0  0  0  0  0  0  0  0  0
   38.3126  -29.0896  -16.6309 C   0  0  0  0  0  0  0  0  0  0  0  0
   37.9815  -27.6654  -16.9470 C   0  0  0  0  0  0  0  0  0  0  0  0
   36.7435  -27.1026  -17.0020 C   0  0  0  0  0  0  0  0  0  0  0  0
   36.8768  -25.8033  -17.3186 N   0  0  0  0  0  0  0  0  0  0  0  0
   38.1875  -25.5438  -17.4633 C   0  0  0  0  0  0  0  0  0  0  0  0
   38.8592  -26.6927  -17.2333 N   0  0  0  0  0  0  0  0  0  0  0  0
   37.3252  -31.2493  -16.1187 C   0  0  0  0  0  0  0  0  0  0  0  0
   38.0737  -31.9161  -15.3633 O   0  0  0  0  0  0  0  0  0  0  0  0
   36.6234  -31.9392  -17.1416 N   0  0  0  0  0  0  0  0  0  0  0  0
   36.7942  -33.3678  -17.3952 C   0  0  1  0  0  0  0  0  0  0  0  0
   35.5435  -33.8690  -18.1457 C   0  0  0  0  0  0  0  0  0  0  0  0
   34.3282  -33.6263  -17.3298 C   0  0  0  0  0  0  0  0  0  0  0  0
   33.9760  -34.3171  -16.1897 C   0  0  0  0  0  0  0  0  0  0  0  0
   32.8005  -33.8107  -15.7238 N   0  0  0  0  0  0  0  0  0  0  0  0
   32.4215  -32.8141  -16.5629 C   0  0  0  0  0  0  0  0  0  0  0  0
   33.3518  -32.7197  -17.5197 N   0  0  0  0  0  0  0  0  0  0  0  0
   38.0139  -33.6656  -18.1278 C   0  0  0  0  0  0  0  0  0  0  0  0
   38.5338  -32.7508  -18.8162 O   0  0  0  0  0  0  0  0  0  0  0  0
   38.6188  -34.9339  -18.0844 N   0  0  0  0  0  0  0  0  0  0  0  0
   38.0054  -36.0972  -17.4151 C   0  0  0  0  0  0  0  0  0  0  0  0
   39.1142  -37.0287  -17.0544 C   0  0  0  0  0  0  0  0  0  0  0  0
   40.3633  -36.1845  -17.3418 C   0  0  0  0  0  0  0  0  0  0  0  0
   39.8594  -35.4388  -18.5858 C   0  0  1  0  0  0  0  0  0  0  0  0
   39.6565  -36.4941  -19.6275 C   0  0  0  0  0  0  0  0  0  0  0  0
   38.5166  -37.0274  -19.6557 O   0  0  0  0  0  0  0  0  0  0  0  0
   40.6254  -36.8882  -20.5179 O   0  0  0  0  0  0  0  0  0  0  0  0
  2  3  1  0
  2  1  1  1
  3  4  1  0
  4  5  2  0
  4  8  1  0
  5  6  1  0
  6  7  1  0
  8  7  2  0
  9 11  1  0
  9  2  1  0
 10  9  2  0
 12 19  1  0
 12 11  1  0
 12 13  1  6
 14 13  1  0
 15 14  2  0
 16 17  1  0
 16 15  1  0
 17 18  2  0
 18 14  1  0
 19 21  1  0
 20 19  2  0
 21 25  1  0
 21 22  1  0
 22 23  1  0
 24 23  1  0
 25 24  1  0
 25 26  1  6
 26 27  2  0
 26 28  1  0
M  END
$$$$
