HHP.pdb
     RDKit          3D

 28 30  0  0  1  0  0  0  0  0999 V2000
   23.1613  -13.2225  -17.8705 N   0  0  0  0  0  0  0  0  0  0  0  0
   23.5716  -12.0873  -17.1126 C   0  0  1  0  0  0  0  0  0  0  0  0
   24.9109  -11.5634  -17.5737 C   0  0  0  0  0  0  0  0  0  0  0  0
   25.9550  -12.6328  -17.5083 C   0  0  0  0  0  0  0  0  0  0  0  0
   26.4029  -13.2766  -16.3959 C   0  0  0  0  0  0  0  0  0  0  0  0
   27.3422  -14.1647  -16.7634 N   0  0  0  0  0  0  0  0  0  0  0  0
   27.4893  -14.0853  -18.0970 C   0  0  0  0  0  0  0  0  0  0  0  0
   26.6337  -13.1420  -18.5468 N   0  0  0  0  0  0  0  0  0  0  0  0
   22.5970  -10.9829  -17.1147 C   0  0  0  0  0  0  0  0  0  0  0  0
   22.3974  -10.2258  -18.0958 O   0  0  0  0  0  0  0  0  0  0  0  0
   21.8380  -10.7622  -15.9357 N   0  0  0  0  0  0  0  0  0  0  0  0
   20.9080   -9.6451  -15.7892 C   0  0  1  0  0  0  0  0  0  0  0  0
   19.8316  -10.0556  -14.7638 C   0  0  0  0  0  0  0  0  0  0  0  0
   18.9756  -11.1293  -15.3258 C   0  0  0  0  0  0  0  0  0  0  0  0
   17.8392  -10.9363  -16.0823 C   0  0  0  0  0  0  0  0  0  0  0  0
   17.3285  -12.1549  -16.4132 N   0  0  0  0  0  0  0  0  0  0  0  0
   18.1364  -13.0999  -15.8697 C   0  0  0  0  0  0  0  0  0  0  0  0
   19.1185  -12.4635  -15.2215 N   0  0  0  0  0  0  0  0  0  0  0  0
   21.5710   -8.4099  -15.4047 C   0  0  0  0  0  0  0  0  0  0  0  0
   22.6058   -8.4854  -14.6943 O   0  0  0  0  0  0  0  0  0  0  0  0
   21.0908   -7.1505  -15.8040 N   0  0  0  0  0  0  0  0  0  0  0  0
   19.8868   -6.9742  -16.6388 C   0  0  0  0  0  0  0  0  0  0  0  0
   20.0227   -5.6584  -17.3297 C   0  0  0  0  0  0  0  0  0  0  0  0
   21.4720   -5.2653  -17.0122 C   0  0  0  0  0  0  0  0  0  0  0  0
   21.5546   -5.8160  -15.5813 C   0  0  1  0  0  0  0  0  0  0  0  0
   20.5780   -5.0071  -14.7864 C   0  0  0  0  0  0  0  0  0  0  0  0
   19.4094   -5.4699  -14.7153 O   0  0  0  0  0  0  0  0  0  0  0  0
   20.8930   -3.8275  -14.1571 O   0  0  0  0  0  0  0  0  0  0  0  0
  2  3  1  0
  2  1  1  6
  3  4  1  0
  4  5  2  0
  4  8  1  0
  5  6  1  0
  6  7  1  0
  8  7  2  0
  9 11  1  0
  9  2  1  0
 10  9  2  0
 12 19  1  0
 12 11  1  0
 12 13  1  1
 14 13  1  0
 15 14  2  0
 16 17  1  0
 16 15  1  0
 17 18  2  0
 18 14  1  0
 19 21  1  0
 20 19  2  0
 21 25  1  0
 21 22  1  0
 22 23  1  0
 24 23  1  0
 25 24  1  0
 25 26  1  1
 26 27  2  0
 26 28  1  0
M  END
$$$$
