HHP.pdb
     RDKit          3D

 28 30  0  0  1  0  0  0  0  0999 V2000
   26.5490  -18.8230  -18.7232 N   0  0  0  0  0  0  0  0  0  0  0  0
   26.8653  -19.6026  -17.5726 C   0  0  1  0  0  0  0  0  0  0  0  0
   28.3051  -19.4210  -17.1546 C   0  0  0  0  0  0  0  0  0  0  0  0
   29.2365  -19.9410  -18.2034 C   0  0  0  0  0  0  0  0  0  0  0  0
   29.6363  -21.2298  -18.3811 C   0  0  0  0  0  0  0  0  0  0  0  0
   30.4742  -21.2781  -19.4308 N   0  0  0  0  0  0  0  0  0  0  0  0
   30.6050  -20.0312  -19.9150 C   0  0  0  0  0  0  0  0  0  0  0  0
   29.8416  -19.2159  -19.1556 N   0  0  0  0  0  0  0  0  0  0  0  0
   25.9923  -19.3418  -16.4153 C   0  0  0  0  0  0  0  0  0  0  0  0
   25.9699  -18.2571  -15.7843 O   0  0  0  0  0  0  0  0  0  0  0  0
   25.1241  -20.3806  -15.9886 N   0  0  0  0  0  0  0  0  0  0  0  0
   24.1385  -20.2029  -14.9250 C   0  0  1  0  0  0  0  0  0  0  0  0
   22.7391  -20.1858  -15.5732 C   0  0  0  0  0  0  0  0  0  0  0  0
   22.5169  -18.8959  -16.2719 C   0  0  0  0  0  0  0  0  0  0  0  0
   22.4402  -18.7261  -17.6380 C   0  0  0  0  0  0  0  0  0  0  0  0
   22.2301  -17.4056  -17.8979 N   0  0  0  0  0  0  0  0  0  0  0  0
   22.1760  -16.7565  -16.7077 C   0  0  0  0  0  0  0  0  0  0  0  0
   22.3504  -17.6688  -15.7448 N   0  0  0  0  0  0  0  0  0  0  0  0
   24.2381  -21.2210  -13.8921 C   0  0  0  0  0  0  0  0  0  0  0  0
   24.4234  -22.4131  -14.2466 O   0  0  0  0  0  0  0  0  0  0  0  0
   24.1355  -20.9088  -12.5252 N   0  0  0  0  0  0  0  0  0  0  0  0
   23.9420  -19.5343  -12.0245 C   0  0  0  0  0  0  0  0  0  0  0  0
   24.4632  -19.5010  -10.6264 C   0  0  0  0  0  0  0  0  0  0  0  0
   25.1686  -20.8585  -10.5031 C   0  0  0  0  0  0  0  0  0  0  0  0
   24.1954  -21.7035  -11.3377 C   0  0  1  0  0  0  0  0  0  0  0  0
   22.9032  -21.6839  -10.5828 C   0  0  0  0  0  0  0  0  0  0  0  0
   22.8651  -22.3865   -9.5390 O   0  0  0  0  0  0  0  0  0  0  0  0
   21.8015  -20.9595  -10.9682 O   0  0  0  0  0  0  0  0  0  0  0  0
  2  3  1  0
  2  1  1  6
  3  4  1  0
  4  5  2  0
  4  8  1  0
  5  6  1  0
  6  7  1  0
  8  7  2  0
  9 11  1  0
  9  2  1  0
 10  9  2  0
 12 19  1  0
 12 11  1  0
 12 13  1  6
 14 13  1  0
 15 14  2  0
 16 17  1  0
 16 15  1  0
 17 18  2  0
 18 14  1  0
 19 21  1  0
 20 19  2  0
 21 25  1  0
 21 22  1  0
 22 23  1  0
 24 23  1  0
 25 24  1  0
 25 26  1  1
 26 27  2  0
 26 28  1  0
M  END
$$$$
