HHP.pdb
     RDKit          3D

 28 30  0  0  1  0  0  0  0  0999 V2000
   20.5697  -17.4526  -15.4778 N   0  0  0  0  0  0  0  0  0  0  0  0
   20.9467  -16.4820  -16.4512 C   0  0  1  0  0  0  0  0  0  0  0  0
   19.7483  -15.9468  -17.1982 C   0  0  0  0  0  0  0  0  0  0  0  0
   19.0055  -17.0520  -17.8800 C   0  0  0  0  0  0  0  0  0  0  0  0
   17.7664  -17.5222  -17.5702 C   0  0  0  0  0  0  0  0  0  0  0  0
   17.4610  -18.5180  -18.4195 N   0  0  0  0  0  0  0  0  0  0  0  0
   18.4968  -18.6783  -19.2607 C   0  0  0  0  0  0  0  0  0  0  0  0
   19.4414  -17.7740  -18.9226 N   0  0  0  0  0  0  0  0  0  0  0  0
   21.7148  -15.3515  -15.9019 C   0  0  0  0  0  0  0  0  0  0  0  0
   21.3583  -14.6816  -14.9021 O   0  0  0  0  0  0  0  0  0  0  0  0
   22.9314  -14.9991  -16.5425 N   0  0  0  0  0  0  0  0  0  0  0  0
   23.7254  -13.8367  -16.1514 C   0  0  1  0  0  0  0  0  0  0  0  0
   25.1347  -13.9999  -16.7563 C   0  0  0  0  0  0  0  0  0  0  0  0
   25.7837  -15.2192  -16.2146 C   0  0  0  0  0  0  0  0  0  0  0  0
   25.6883  -15.6690  -14.9148 C   0  0  0  0  0  0  0  0  0  0  0  0
   26.4176  -16.8136  -14.7992 N   0  0  0  0  0  0  0  0  0  0  0  0
   26.9633  -17.0770  -16.0133 C   0  0  0  0  0  0  0  0  0  0  0  0
   26.5706  -16.1084  -16.8484 N   0  0  0  0  0  0  0  0  0  0  0  0
   23.1135  -12.5797  -16.5498 C   0  0  0  0  0  0  0  0  0  0  0  0
   22.3200  -12.5862  -17.5251 O   0  0  0  0  0  0  0  0  0  0  0  0
   23.3826  -11.3740  -15.8789 N   0  0  0  0  0  0  0  0  0  0  0  0
   24.3721  -11.2606  -14.7900 C   0  0  0  0  0  0  0  0  0  0  0  0
   23.9764  -10.0847  -13.9606 C   0  0  0  0  0  0  0  0  0  0  0  0
   22.5901   -9.7362  -14.5194 C   0  0  0  0  0  0  0  0  0  0  0  0
   22.8492  -10.0525  -15.9993 C   0  0  1  0  0  0  0  0  0  0  0  0
   23.8849   -9.0667  -16.4417 C   0  0  0  0  0  0  0  0  0  0  0  0
   25.0655   -9.4991  -16.5025 O   0  0  0  0  0  0  0  0  0  0  0  0
   23.6096   -7.7618  -16.7706 O   0  0  0  0  0  0  0  0  0  0  0  0
  2  3  1  0
  2  1  1  1
  3  4  1  0
  4  5  2  0
  4  8  1  0
  5  6  1  0
  6  7  1  0
  8  7  2  0
  9 11  1  0
  9  2  1  0
 10  9  2  0
 12 19  1  0
 12 11  1  0
 12 13  1  6
 14 13  1  0
 15 14  2  0
 16 17  1  0
 16 15  1  0
 17 18  2  0
 18 14  1  0
 19 21  1  0
 20 19  2  0
 21 25  1  0
 21 22  1  0
 22 23  1  0
 24 23  1  0
 25 24  1  0
 25 26  1  1
 26 27  2  0
 26 28  1  0
M  END
$$$$
