HHP.pdb
     RDKit          3D

 28 30  0  0  1  0  0  0  0  0999 V2000
   19.9228  -21.5772    9.4058 N   0  0  0  0  0  0  0  0  0  0  0  0
   20.3795  -21.1440   10.6846 C   0  0  1  0  0  0  0  0  0  0  0  0
   19.2908  -21.2387   11.7270 C   0  0  0  0  0  0  0  0  0  0  0  0
   18.1211  -20.3821   11.3583 C   0  0  0  0  0  0  0  0  0  0  0  0
   18.0643  -19.0223   11.3647 C   0  0  0  0  0  0  0  0  0  0  0  0
   16.8373  -18.6424   10.9692 N   0  0  0  0  0  0  0  0  0  0  0  0
   16.1218  -19.7511   10.7140 C   0  0  0  0  0  0  0  0  0  0  0  0
   16.9176  -20.8154   10.9555 N   0  0  0  0  0  0  0  0  0  0  0  0
   21.5716  -21.8613   11.1682 C   0  0  0  0  0  0  0  0  0  0  0  0
   22.0496  -21.7292   12.3213 O   0  0  0  0  0  0  0  0  0  0  0  0
   22.2182  -22.7558   10.2758 N   0  0  0  0  0  0  0  0  0  0  0  0
   23.4872  -23.4086   10.5889 C   0  0  1  0  0  0  0  0  0  0  0  0
   23.7765  -24.4397    9.4790 C   0  0  0  0  0  0  0  0  0  0  0  0
   25.0625  -25.1297    9.7471 C   0  0  0  0  0  0  0  0  0  0  0  0
   26.3113  -24.6651    9.3930 C   0  0  0  0  0  0  0  0  0  0  0  0
   27.2419  -25.5700    9.8061 N   0  0  0  0  0  0  0  0  0  0  0  0
   26.5825  -26.5894   10.4120 C   0  0  0  0  0  0  0  0  0  0  0  0
   25.2759  -26.3056   10.3659 N   0  0  0  0  0  0  0  0  0  0  0  0
   24.5815  -22.4639   10.7410 C   0  0  0  0  0  0  0  0  0  0  0  0
   24.6614  -21.5087    9.9271 O   0  0  0  0  0  0  0  0  0  0  0  0
   25.5384  -22.5897   11.7631 N   0  0  0  0  0  0  0  0  0  0  0  0
   25.5544  -23.7142   12.7186 C   0  0  0  0  0  0  0  0  0  0  0  0
   26.2605  -23.2367   13.9436 C   0  0  0  0  0  0  0  0  0  0  0  0
   26.3942  -21.7301   13.6834 C   0  0  0  0  0  0  0  0  0  0  0  0
   26.6426  -21.7764   12.1689 C   0  0  1  0  0  0  0  0  0  0  0  0
   27.9517  -22.4824   12.0016 C   0  0  0  0  0  0  0  0  0  0  0  0
   28.9816  -21.7835   12.1899 O   0  0  0  0  0  0  0  0  0  0  0  0
   28.0694  -23.8087   11.6641 O   0  0  0  0  0  0  0  0  0  0  0  0
  2  3  1  0
  2  1  1  6
  3  4  1  0
  4  5  2  0
  4  8  1  0
  5  6  1  0
  6  7  1  0
  8  7  2  0
  9 11  1  0
  9  2  1  0
 10  9  2  0
 12 19  1  0
 12 11  1  0
 12 13  1  6
 14 13  1  0
 15 14  2  0
 16 17  1  0
 16 15  1  0
 17 18  2  0
 18 14  1  0
 19 21  1  0
 20 19  2  0
 21 25  1  0
 21 22  1  0
 22 23  1  0
 24 23  1  0
 25 24  1  0
 25 26  1  1
 26 27  2  0
 26 28  1  0
M  END
$$$$
