KMI.pdb
     RDKit          3D

 26 25  0  0  1  0  0  0  0  0999 V2000
    8.1754  -18.3435   21.4225 N   0  0  0  0  0  0  0  0  0  0  0  0
    9.4304  -17.7759   21.0408 C   0  0  1  0  0  0  0  0  0  0  0  0
    9.5673  -17.5645   19.5596 C   0  0  0  0  0  0  0  0  0  0  0  0
    9.9577  -18.8740   18.9248 C   0  0  0  0  0  0  0  0  0  0  0  0
   11.1995  -18.7849   18.0964 C   0  0  0  0  0  0  0  0  0  0  0  0
   11.5401  -20.0487   17.3730 C   0  0  0  0  0  0  0  0  0  0  0  0
   10.6450  -20.3589   16.2961 N   0  0  0  0  0  0  0  0  0  0  0  0
    9.6061  -16.4939   21.7922 C   0  0  0  0  0  0  0  0  0  0  0  0
   10.6595  -15.8398   21.5617 O   0  0  0  0  0  0  0  0  0  0  0  0
    5.5075  -14.0040   26.3633 C   0  0  0  0  0  0  0  0  0  0  0  0
    6.2747  -12.5866   25.5397 S   0  0  0  0  0  0  0  0  0  0  0  0
    7.9467  -13.0588   24.8987 C   0  0  0  0  0  0  0  0  0  0  0  0
    7.7484  -14.3158   24.1471 C   0  0  0  0  0  0  0  0  0  0  0  0
    9.0120  -14.8743   23.5567 C   0  0  2  0  0  0  0  0  0  0  0  0
    8.6601  -16.0173   22.7156 N   0  0  0  0  0  0  0  0  0  0  0  0
    9.9453  -15.2958   24.6288 C   0  0  0  0  0  0  0  0  0  0  0  0
   11.2008  -15.0241   24.5358 O   0  0  0  0  0  0  0  0  0  0  0  0
    9.7777  -13.3296   29.0847 C   0  0  0  0  0  0  0  0  0  0  0  0
   10.2554  -14.0993   27.8625 C   0  0  0  0  0  0  0  0  0  0  0  0
   10.1564  -15.5716   28.0508 C   0  0  2  0  0  0  0  0  0  0  0  0
   10.8643  -16.0995   29.2676 C   0  0  0  0  0  0  0  0  0  0  0  0
   10.5846  -16.3288   26.8344 C   0  0  2  0  0  0  0  0  0  0  0  0
    9.5728  -15.9950   25.8035 N   0  0  0  0  0  0  0  0  0  0  0  0
   10.6222  -17.7735   27.0826 C   0  0  0  0  0  0  0  0  0  0  0  0
   11.7469  -18.3361   27.6565 O   0  0  0  0  0  0  0  0  0  0  0  0
    9.6693  -18.5210   26.7926 O   0  0  0  0  0  0  0  0  0  0  0  0
  2  1  1  6
  3  2  1  0
  4  3  1  0
  5  4  1  0
  5  6  1  0
  7  6  1  0
  8  9  2  0
  8  2  1  0
 11 10  1  0
 11 12  1  0
 12 13  1  0
 14 13  1  1
 14 15  1  0
 15  8  1  0
 16 14  1  0
 17 16  2  0
 19 18  1  0
 19 20  1  0
 20 21  1  1
 20 22  1  0
 22 24  1  0
 22 23  1  6
 23 16  1  0
 24 25  1  0
 26 24  2  0
M  END
$$$$
