KMI.pdb
     RDKit          3D

 26 25  0  0  1  0  0  0  0  0999 V2000
    9.4384  -16.4374   19.9018 N   0  0  0  0  0  0  0  0  0  0  0  0
    9.0877  -17.2158   21.0479 C   0  0  1  0  0  0  0  0  0  0  0  0
    9.9285  -18.4498   21.2150 C   0  0  0  0  0  0  0  0  0  0  0  0
    9.5186  -19.4519   20.1673 C   0  0  0  0  0  0  0  0  0  0  0  0
    8.5917  -20.5055   20.6843 C   0  0  0  0  0  0  0  0  0  0  0  0
    8.2087  -21.5316   19.6661 C   0  0  0  0  0  0  0  0  0  0  0  0
    9.2970  -22.3671   19.2480 N   0  0  0  0  0  0  0  0  0  0  0  0
    9.1736  -16.3315   22.2519 C   0  0  0  0  0  0  0  0  0  0  0  0
   10.2703  -15.7394   22.4451 O   0  0  0  0  0  0  0  0  0  0  0  0
    6.3754  -11.2388   25.5360 C   0  0  0  0  0  0  0  0  0  0  0  0
    5.6550  -12.8449   25.9572 S   0  0  0  0  0  0  0  0  0  0  0  0
    6.9910  -14.1206   26.0878 C   0  0  0  0  0  0  0  0  0  0  0  0
    6.9420  -14.8842   24.8233 C   0  0  0  0  0  0  0  0  0  0  0  0
    8.2934  -15.2947   24.3109 C   0  0  2  0  0  0  0  0  0  0  0  0
    8.1008  -16.1504   23.1413 N   0  0  0  0  0  0  0  0  0  0  0  0
    9.0482  -16.0227   25.3591 C   0  0  0  0  0  0  0  0  0  0  0  0
    8.9775  -17.3066   25.4318 O   0  0  0  0  0  0  0  0  0  0  0  0
   10.5859  -13.1507   29.5585 C   0  0  0  0  0  0  0  0  0  0  0  0
   10.7630  -13.9809   28.2961 C   0  0  0  0  0  0  0  0  0  0  0  0
   10.6493  -15.4402   28.5620 C   0  0  2  0  0  0  0  0  0  0  0  0
   11.6736  -15.9876   29.5167 C   0  0  0  0  0  0  0  0  0  0  0  0
   10.6336  -16.2464   27.3025 C   0  0  2  0  0  0  0  0  0  0  0  0
    9.8838  -15.4163   26.3296 N   0  0  0  0  0  0  0  0  0  0  0  0
    9.9779  -17.5432   27.4992 C   0  0  0  0  0  0  0  0  0  0  0  0
    8.5976  -17.6088   27.5366 O   0  0  0  0  0  0  0  0  0  0  0  0
   10.6242  -18.5988   27.6358 O   0  0  0  0  0  0  0  0  0  0  0  0
  2  1  1  6
  3  2  1  0
  4  3  1  0
  5  4  1  0
  5  6  1  0
  7  6  1  0
  8  9  2  0
  8  2  1  0
 11 10  1  0
 11 12  1  0
 12 13  1  0
 14 13  1  1
 14 15  1  0
 15  8  1  0
 16 14  1  0
 17 16  2  0
 19 18  1  0
 19 20  1  0
 20 21  1  1
 20 22  1  0
 22 24  1  0
 22 23  1  6
 23 16  1  0
 24 25  1  0
 26 24  2  0
M  END
$$$$
