KMI.pdb
     RDKit          3D

 26 25  0  0  1  0  0  0  0  0999 V2000
    8.0799  -17.0538   20.3593 N   0  0  0  0  0  0  0  0  0  0  0  0
    9.2478  -16.2331   20.2882 C   0  0  1  0  0  0  0  0  0  0  0  0
    9.2654  -15.3167   19.0977 C   0  0  0  0  0  0  0  0  0  0  0  0
    7.8451  -15.0910   18.6483 C   0  0  0  0  0  0  0  0  0  0  0  0
    7.7330  -14.1688   17.4764 C   0  0  0  0  0  0  0  0  0  0  0  0
    7.6161  -14.8691   16.1603 C   0  0  0  0  0  0  0  0  0  0  0  0
    7.6335  -13.9857   15.0305 N   0  0  0  0  0  0  0  0  0  0  0  0
    9.3522  -15.4649   21.5680 C   0  0  0  0  0  0  0  0  0  0  0  0
   10.3489  -14.7024   21.6935 O   0  0  0  0  0  0  0  0  0  0  0  0
    5.3429  -11.5492   25.5227 C   0  0  0  0  0  0  0  0  0  0  0  0
    5.6293  -13.2371   26.1101 S   0  0  0  0  0  0  0  0  0  0  0  0
    7.3600  -13.7595   25.7083 C   0  0  0  0  0  0  0  0  0  0  0  0
    7.2860  -14.4088   24.3827 C   0  0  0  0  0  0  0  0  0  0  0  0
    8.6224  -14.8251   23.8368 C   0  0  2  0  0  0  0  0  0  0  0  0
    8.4010  -15.5682   22.5973 N   0  0  0  0  0  0  0  0  0  0  0  0
    9.3451  -15.6697   24.8178 C   0  0  0  0  0  0  0  0  0  0  0  0
    9.5134  -16.9258   24.5885 O   0  0  0  0  0  0  0  0  0  0  0  0
   11.7741  -15.3835   30.5062 C   0  0  0  0  0  0  0  0  0  0  0  0
   11.6809  -16.1145   29.1753 C   0  0  0  0  0  0  0  0  0  0  0  0
   10.9368  -15.3300   28.1535 C   0  0  2  0  0  0  0  0  0  0  0  0
    9.6874  -14.6635   28.6589 C   0  0  0  0  0  0  0  0  0  0  0  0
   10.6346  -16.1350   26.9300 C   0  0  2  0  0  0  0  0  0  0  0  0
    9.9004  -15.2072   26.0367 N   0  0  0  0  0  0  0  0  0  0  0  0
    9.8197  -17.3126   27.2456 C   0  0  0  0  0  0  0  0  0  0  0  0
   10.4420  -18.5101   27.5448 O   0  0  0  0  0  0  0  0  0  0  0  0
    8.5751  -17.2745   27.2539 O   0  0  0  0  0  0  0  0  0  0  0  0
  2  1  1  1
  3  2  1  0
  4  3  1  0
  5  4  1  0
  5  6  1  0
  7  6  1  0
  8  9  2  0
  8  2  1  0
 11 10  1  0
 11 12  1  0
 12 13  1  0
 14 13  1  1
 14 15  1  0
 15  8  1  0
 16 14  1  0
 17 16  2  0
 19 18  1  0
 19 20  1  0
 20 21  1  1
 20 22  1  0
 22 24  1  0
 22 23  1  6
 23 16  1  0
 24 25  1  0
 26 24  2  0
M  END
$$$$
