KMI.pdb
     RDKit          3D

 26 25  0  0  1  0  0  0  0  0999 V2000
    7.8600  -17.7759   20.6918 N   0  0  0  0  0  0  0  0  0  0  0  0
    9.0968  -17.0830   20.5112 C   0  0  1  0  0  0  0  0  0  0  0  0
    9.1974  -16.3690   19.1930 C   0  0  0  0  0  0  0  0  0  0  0  0
    8.6128  -17.2556   18.1243 C   0  0  0  0  0  0  0  0  0  0  0  0
    9.6343  -17.7878   17.1705 C   0  0  0  0  0  0  0  0  0  0  0  0
    9.0611  -18.6159   16.0650 C   0  0  0  0  0  0  0  0  0  0  0  0
   10.0459  -19.1405   15.1638 N   0  0  0  0  0  0  0  0  0  0  0  0
    9.2687  -16.1365   21.6574 C   0  0  0  0  0  0  0  0  0  0  0  0
   10.3096  -15.4244   21.6554 O   0  0  0  0  0  0  0  0  0  0  0  0
    5.4353  -11.5331   24.9861 C   0  0  0  0  0  0  0  0  0  0  0  0
    5.6898  -13.1021   25.8517 S   0  0  0  0  0  0  0  0  0  0  0  0
    7.3955  -13.7394   25.5137 C   0  0  0  0  0  0  0  0  0  0  0  0
    7.2780  -14.5789   24.3031 C   0  0  0  0  0  0  0  0  0  0  0  0
    8.5955  -15.0805   23.7837 C   0  0  2  0  0  0  0  0  0  0  0  0
    8.3322  -16.0251   22.6992 N   0  0  0  0  0  0  0  0  0  0  0  0
    9.3627  -15.7437   24.8652 C   0  0  0  0  0  0  0  0  0  0  0  0
    9.3025  -17.0222   25.0093 O   0  0  0  0  0  0  0  0  0  0  0  0
   11.6304  -14.3441   30.3712 C   0  0  0  0  0  0  0  0  0  0  0  0
   11.5954  -15.3528   29.2330 C   0  0  0  0  0  0  0  0  0  0  0  0
   11.0109  -14.7793   27.9910 C   0  0  2  0  0  0  0  0  0  0  0  0
    9.7553  -13.9787   28.1978 C   0  0  0  0  0  0  0  0  0  0  0  0
   10.7950  -15.8160   26.9349 C   0  0  2  0  0  0  0  0  0  0  0  0
   10.1999  -15.0785   25.7948 N   0  0  0  0  0  0  0  0  0  0  0  0
    9.8969  -16.8791   27.3968 C   0  0  0  0  0  0  0  0  0  0  0  0
   10.4265  -18.0935   27.7912 O   0  0  0  0  0  0  0  0  0  0  0  0
    8.6618  -16.7280   27.4474 O   0  0  0  0  0  0  0  0  0  0  0  0
  2  1  1  1
  3  2  1  0
  4  3  1  0
  5  4  1  0
  5  6  1  0
  7  6  1  0
  8  9  2  0
  8  2  1  0
 11 10  1  0
 11 12  1  0
 12 13  1  0
 14 13  1  1
 14 15  1  0
 15  8  1  0
 16 14  1  0
 17 16  2  0
 19 18  1  0
 19 20  1  0
 20 21  1  1
 20 22  1  0
 22 24  1  0
 22 23  1  6
 23 16  1  0
 24 25  1  0
 26 24  2  0
M  END
$$$$
