KMI.pdb
     RDKit          3D

 26 25  0  0  1  0  0  0  0  0999 V2000
    7.7914  -17.2245   20.4267 N   0  0  0  0  0  0  0  0  0  0  0  0
    9.0957  -16.6422   20.4744 C   0  0  1  0  0  0  0  0  0  0  0  0
    9.3846  -15.7228   19.3217 C   0  0  0  0  0  0  0  0  0  0  0  0
    8.2970  -14.6821   19.2572 C   0  0  0  0  0  0  0  0  0  0  0  0
    8.1780  -14.0304   17.9165 C   0  0  0  0  0  0  0  0  0  0  0  0
    8.7383  -12.6449   17.8618 C   0  0  0  0  0  0  0  0  0  0  0  0
    8.7343  -12.0700   16.5478 N   0  0  0  0  0  0  0  0  0  0  0  0
    9.2386  -15.9337   21.7847 C   0  0  0  0  0  0  0  0  0  0  0  0
   10.3310  -15.3392   21.9932 O   0  0  0  0  0  0  0  0  0  0  0  0
    5.4422  -11.5420   25.8733 C   0  0  0  0  0  0  0  0  0  0  0  0
    5.4603  -13.3382   26.0957 S   0  0  0  0  0  0  0  0  0  0  0  0
    7.1658  -13.9938   25.7944 C   0  0  0  0  0  0  0  0  0  0  0  0
    7.0951  -14.7219   24.5102 C   0  0  0  0  0  0  0  0  0  0  0  0
    8.4348  -15.1508   23.9825 C   0  0  2  0  0  0  0  0  0  0  0  0
    8.2217  -15.9150   22.7544 N   0  0  0  0  0  0  0  0  0  0  0  0
    9.1474  -15.9798   24.9841 C   0  0  0  0  0  0  0  0  0  0  0  0
    9.2219  -17.2564   24.8306 O   0  0  0  0  0  0  0  0  0  0  0  0
   10.7335  -13.4398   29.4770 C   0  0  0  0  0  0  0  0  0  0  0  0
   10.7761  -14.1937   28.1564 C   0  0  0  0  0  0  0  0  0  0  0  0
   10.6305  -15.6625   28.3422 C   0  0  2  0  0  0  0  0  0  0  0  0
   11.6753  -16.2924   29.2208 C   0  0  0  0  0  0  0  0  0  0  0  0
   10.5413  -16.3926   27.0401 C   0  0  2  0  0  0  0  0  0  0  0  0
    9.7902  -15.4810   26.1442 N   0  0  0  0  0  0  0  0  0  0  0  0
    9.8447  -17.6746   27.1860 C   0  0  0  0  0  0  0  0  0  0  0  0
   10.5804  -18.8363   27.3279 O   0  0  0  0  0  0  0  0  0  0  0  0
    8.6022  -17.7576   27.1865 O   0  0  0  0  0  0  0  0  0  0  0  0
  2  1  1  6
  3  2  1  0
  4  3  1  0
  5  4  1  0
  5  6  1  0
  7  6  1  0
  8  9  2  0
  8  2  1  0
 11 10  1  0
 11 12  1  0
 12 13  1  0
 14 13  1  1
 14 15  1  0
 15  8  1  0
 16 14  1  0
 17 16  2  0
 19 18  1  0
 19 20  1  0
 20 21  1  6
 20 22  1  0
 22 24  1  0
 22 23  1  6
 23 16  1  0
 24 25  1  0
 26 24  2  0
M  END
$$$$
