KMI.pdb
     RDKit          3D

 26 25  0  0  1  0  0  0  0  0999 V2000
    8.1916  -18.0118   20.9937 N   0  0  0  0  0  0  0  0  0  0  0  0
    9.5619  -17.6060   21.0013 C   0  0  1  0  0  0  0  0  0  0  0  0
   10.0499  -17.1165   19.6672 C   0  0  0  0  0  0  0  0  0  0  0  0
   10.2422  -18.3066   18.7635 C   0  0  0  0  0  0  0  0  0  0  0  0
   10.5787  -17.9337   17.3549 C   0  0  0  0  0  0  0  0  0  0  0  0
   11.9516  -17.3649   17.1877 C   0  0  0  0  0  0  0  0  0  0  0  0
   12.3653  -17.2429   15.8198 N   0  0  0  0  0  0  0  0  0  0  0  0
    9.7291  -16.5608   22.0590 C   0  0  0  0  0  0  0  0  0  0  0  0
   10.8673  -16.0261   22.1548 O   0  0  0  0  0  0  0  0  0  0  0  0
    5.0954  -13.0521   24.0281 C   0  0  0  0  0  0  0  0  0  0  0  0
    6.0571  -12.7525   25.5318 S   0  0  0  0  0  0  0  0  0  0  0  0
    7.7485  -13.4856   25.3551 C   0  0  0  0  0  0  0  0  0  0  0  0
    7.6352  -14.5051   24.2911 C   0  0  0  0  0  0  0  0  0  0  0  0
    8.9454  -15.1377   23.9163 C   0  0  2  0  0  0  0  0  0  0  0  0
    8.6864  -16.1738   22.9179 N   0  0  0  0  0  0  0  0  0  0  0  0
    9.5982  -15.7281   25.1094 C   0  0  0  0  0  0  0  0  0  0  0  0
    9.3912  -16.9621   25.4146 O   0  0  0  0  0  0  0  0  0  0  0  0
   10.8025  -14.5522   30.7847 C   0  0  0  0  0  0  0  0  0  0  0  0
   11.3503  -15.3159   29.5885 C   0  0  0  0  0  0  0  0  0  0  0  0
   10.8561  -14.7679   28.2969 C   0  0  2  0  0  0  0  0  0  0  0  0
    9.4337  -14.2815   28.3226 C   0  0  0  0  0  0  0  0  0  0  0  0
   11.0558  -15.7219   27.1627 C   0  0  2  0  0  0  0  0  0  0  0  0
   10.4737  -15.0374   25.9835 N   0  0  0  0  0  0  0  0  0  0  0  0
   10.3846  -17.0022   27.4090 C   0  0  0  0  0  0  0  0  0  0  0  0
    9.0768  -17.1752   26.9958 O   0  0  0  0  0  0  0  0  0  0  0  0
   10.9539  -17.9495   27.9828 O   0  0  0  0  0  0  0  0  0  0  0  0
  2  1  1  6
  3  2  1  0
  4  3  1  0
  5  4  1  0
  5  6  1  0
  7  6  1  0
  8  9  2  0
  8  2  1  0
 11 10  1  0
 11 12  1  0
 12 13  1  0
 14 13  1  1
 14 15  1  0
 15  8  1  0
 16 14  1  0
 17 16  2  0
 19 18  1  0
 19 20  1  0
 20 21  1  1
 20 22  1  0
 22 24  1  0
 22 23  1  6
 23 16  1  0
 24 25  1  0
 26 24  2  0
M  END
$$$$
