KMI.pdb
     RDKit          3D

 26 25  0  0  1  0  0  0  0  0999 V2000
   10.2396  -16.5363   19.7638 N   0  0  0  0  0  0  0  0  0  0  0  0
    9.1178  -16.7116   20.6319 C   0  0  1  0  0  0  0  0  0  0  0  0
    8.8177  -18.1510   20.9408 C   0  0  0  0  0  0  0  0  0  0  0  0
    8.3172  -18.8144   19.6841 C   0  0  0  0  0  0  0  0  0  0  0  0
    8.0242  -20.2705   19.8581 C   0  0  0  0  0  0  0  0  0  0  0  0
    7.3775  -20.9071   18.6694 C   0  0  0  0  0  0  0  0  0  0  0  0
    7.2001  -22.3247   18.7964 N   0  0  0  0  0  0  0  0  0  0  0  0
    9.3726  -15.9284   21.8812 C   0  0  0  0  0  0  0  0  0  0  0  0
   10.5751  -15.8092   22.2421 O   0  0  0  0  0  0  0  0  0  0  0  0
    4.9154  -12.9568   26.4348 C   0  0  0  0  0  0  0  0  0  0  0  0
    6.1510  -11.9156   25.6192 S   0  0  0  0  0  0  0  0  0  0  0  0
    7.7211  -12.8685   25.3819 C   0  0  0  0  0  0  0  0  0  0  0  0
    7.5122  -13.6921   24.1726 C   0  0  0  0  0  0  0  0  0  0  0  0
    8.6948  -14.5440   23.8082 C   0  0  2  0  0  0  0  0  0  0  0  0
    8.3417  -15.3429   22.6357 N   0  0  0  0  0  0  0  0  0  0  0  0
    9.0661  -15.4294   24.9380 C   0  0  0  0  0  0  0  0  0  0  0  0
    8.7682  -16.6820   24.9019 O   0  0  0  0  0  0  0  0  0  0  0  0
   11.6053  -15.3386   30.5434 C   0  0  0  0  0  0  0  0  0  0  0  0
   11.4785  -16.0793   29.2208 C   0  0  0  0  0  0  0  0  0  0  0  0
   10.9293  -15.2145   28.1421 C   0  0  2  0  0  0  0  0  0  0  0  0
    9.8962  -14.2212   28.5965 C   0  0  0  0  0  0  0  0  0  0  0  0
   10.4092  -16.0098   26.9874 C   0  0  2  0  0  0  0  0  0  0  0  0
    9.7545  -15.0145   26.1049 N   0  0  0  0  0  0  0  0  0  0  0  0
    9.4529  -17.0326   27.4227 C   0  0  0  0  0  0  0  0  0  0  0  0
    8.1082  -16.8675   27.1483 O   0  0  0  0  0  0  0  0  0  0  0  0
    9.8100  -18.0551   28.0374 O   0  0  0  0  0  0  0  0  0  0  0  0
  2  1  1  6
  3  2  1  0
  4  3  1  0
  5  4  1  0
  5  6  1  0
  7  6  1  0
  8  9  2  0
  8  2  1  0
 11 10  1  0
 11 12  1  0
 12 13  1  0
 14 13  1  1
 14 15  1  0
 15  8  1  0
 16 14  1  0
 17 16  2  0
 19 18  1  0
 19 20  1  0
 20 21  1  1
 20 22  1  0
 22 24  1  0
 22 23  1  6
 23 16  1  0
 24 25  1  0
 26 24  2  0
M  END
$$$$
