FLQ.pdb
     RDKit          3D

 29 29  0  0  1  0  0  0  0  0999 V2000
   10.4261  -15.8327   24.9488 N   0  0  0  0  0  0  0  0  0  0  0  0
    9.1757  -16.5051   24.7753 C   0  0  1  0  0  0  0  0  0  0  0  0
    8.1511  -15.8958   25.7187 C   0  0  0  0  0  0  0  0  0  0  0  0
    8.8933  -15.1619   26.7687 C   0  0  0  0  0  0  0  0  0  0  0  0
    9.6994  -15.8126   27.6689 C   0  0  0  0  0  0  0  0  0  0  0  0
   10.3962  -15.1292   28.6535 C   0  0  0  0  0  0  0  0  0  0  0  0
   10.2782  -13.7560   28.7335 C   0  0  0  0  0  0  0  0  0  0  0  0
    9.4775  -13.0808   27.8439 C   0  0  0  0  0  0  0  0  0  0  0  0
    8.7935  -13.7763   26.8733 C   0  0  0  0  0  0  0  0  0  0  0  0
    8.6600  -16.2990   23.3982 C   0  0  0  0  0  0  0  0  0  0  0  0
    7.6204  -16.9151   23.0321 O   0  0  0  0  0  0  0  0  0  0  0  0
    8.2192  -11.9812   20.0472 C   0  0  0  0  0  0  0  0  0  0  0  0
    8.0511  -13.2159   20.9565 C   0  0  1  0  0  0  0  0  0  0  0  0
    6.5605  -13.4747   20.9739 C   0  0  0  0  0  0  0  0  0  0  0  0
    8.8622  -14.2814   20.3207 C   0  0  0  0  0  0  0  0  0  0  0  0
    9.0917  -15.5326   21.0777 C   0  0  2  0  0  0  0  0  0  0  0  0
    9.2999  -15.4290   22.4768 N   0  0  0  0  0  0  0  0  0  0  0  0
   10.2037  -16.2902   20.3953 C   0  0  0  0  0  0  0  0  0  0  0  0
   10.0848  -16.6100   19.1858 O   0  0  0  0  0  0  0  0  0  0  0  0
   14.6230  -14.7548   17.5394 N   0  0  0  0  0  0  0  0  0  0  0  0
   14.6533  -14.3039   18.8923 C   0  0  0  0  0  0  0  0  0  0  0  0
   15.3548  -13.3307   19.2156 O   0  0  0  0  0  0  0  0  0  0  0  0
   13.8316  -15.0282   19.8812 C   0  0  0  0  0  0  0  0  0  0  0  0
   13.0246  -16.1554   19.3367 C   0  0  0  0  0  0  0  0  0  0  0  0
   12.5676  -17.1618   20.3532 C   0  0  2  0  0  0  0  0  0  0  0  0
   11.3851  -16.6554   21.0766 N   0  0  0  0  0  0  0  0  0  0  0  0
   13.5994  -17.4637   21.3646 C   0  0  0  0  0  0  0  0  0  0  0  0
   13.4432  -17.2143   22.5843 O   0  0  0  0  0  0  0  0  0  0  0  0
   14.7903  -18.0430   20.9751 O   0  0  0  0  0  0  0  0  0  0  0  0
  2  1  1  6
  3  4  1  0
  3  2  1  0
  4  5  2  0
  5  6  1  0
  7  6  2  0
  8  7  1  0
  9  4  1  0
  9  8  2  0
 10  2  1  0
 10 17  1  0
 11 10  2  0
 13 12  1  6
 14 13  1  0
 15 13  1  0
 16 15  1  6
 16 17  1  0
 18 16  1  0
 19 18  2  0
 20 21  1  0
 21 22  2  0
 21 23  1  0
 23 24  1  0
 25 24  1  6
 25 26  1  0
 25 27  1  0
 26 18  1  0
 27 29  1  0
 28 27  2  0
M  END
$$$$
