FLQ.pdb
     RDKit          3D

 29 29  0  0  1  0  0  0  0  0999 V2000
    6.0927  -17.9278   25.2224 N   0  0  0  0  0  0  0  0  0  0  0  0
    6.6550  -16.6306   25.0065 C   0  0  1  0  0  0  0  0  0  0  0  0
    7.4550  -16.2273   26.2347 C   0  0  0  0  0  0  0  0  0  0  0  0
    7.4727  -14.7479   26.2889 C   0  0  0  0  0  0  0  0  0  0  0  0
    6.3164  -14.0112   26.2250 C   0  0  0  0  0  0  0  0  0  0  0  0
    6.3285  -12.6259   26.2755 C   0  0  0  0  0  0  0  0  0  0  0  0
    7.5353  -11.9657   26.3932 C   0  0  0  0  0  0  0  0  0  0  0  0
    8.7073  -12.6803   26.4591 C   0  0  0  0  0  0  0  0  0  0  0  0
    8.6754  -14.0550   26.4075 C   0  0  0  0  0  0  0  0  0  0  0  0
    7.6091  -16.6590   23.8691 C   0  0  0  0  0  0  0  0  0  0  0  0
    8.1413  -17.7556   23.5400 O   0  0  0  0  0  0  0  0  0  0  0  0
    7.8721  -12.1755   20.2805 C   0  0  0  0  0  0  0  0  0  0  0  0
    7.4492  -13.4269   21.0771 C   0  0  1  0  0  0  0  0  0  0  0  0
    6.2427  -13.9594   20.3356 C   0  0  0  0  0  0  0  0  0  0  0  0
    8.6343  -14.3173   21.0620 C   0  0  0  0  0  0  0  0  0  0  0  0
    8.5931  -15.5517   21.8781 C   0  0  2  0  0  0  0  0  0  0  0  0
    7.9433  -15.4893   23.1372 N   0  0  0  0  0  0  0  0  0  0  0  0
   10.0022  -16.0779   21.9944 C   0  0  0  0  0  0  0  0  0  0  0  0
   10.6841  -16.2597   20.9546 O   0  0  0  0  0  0  0  0  0  0  0  0
   14.4830  -14.6206   20.7670 N   0  0  0  0  0  0  0  0  0  0  0  0
   15.1465  -15.1497   21.9136 C   0  0  0  0  0  0  0  0  0  0  0  0
   16.3875  -15.1642   21.9714 O   0  0  0  0  0  0  0  0  0  0  0  0
   14.3142  -15.6735   23.0138 C   0  0  0  0  0  0  0  0  0  0  0  0
   12.8433  -15.5461   22.8173 C   0  0  0  0  0  0  0  0  0  0  0  0
   12.0255  -16.6769   23.3717 C   0  0  2  0  0  0  0  0  0  0  0  0
   10.5863  -16.3758   23.2448 N   0  0  0  0  0  0  0  0  0  0  0  0
   12.2922  -16.9296   24.8012 C   0  0  0  0  0  0  0  0  0  0  0  0
   11.4886  -16.6007   25.7069 O   0  0  0  0  0  0  0  0  0  0  0  0
   13.4656  -17.5510   25.1788 O   0  0  0  0  0  0  0  0  0  0  0  0
  2  1  1  1
  3  4  1  0
  3  2  1  0
  4  5  2  0
  5  6  1  0
  7  6  2  0
  8  7  1  0
  9  4  1  0
  9  8  2  0
 10  2  1  0
 10 17  1  0
 11 10  2  0
 13 12  1  6
 14 13  1  0
 15 13  1  0
 16 15  1  1
 16 17  1  0
 18 16  1  0
 19 18  2  0
 20 21  1  0
 21 22  2  0
 21 23  1  0
 23 24  1  0
 25 24  1  1
 25 26  1  0
 25 27  1  0
 26 18  1  0
 27 29  1  0
 28 27  2  0
M  END
$$$$
