FLQ.pdb
     RDKit          3D

 29 29  0  0  1  0  0  0  0  0999 V2000
    6.4359  -16.8192   25.5342 N   0  0  0  0  0  0  0  0  0  0  0  0
    7.0704  -15.7034   24.9033 C   0  0  1  0  0  0  0  0  0  0  0  0
    8.2522  -15.2616   25.7514 C   0  0  0  0  0  0  0  0  0  0  0  0
    7.9948  -13.8691   26.1834 C   0  0  0  0  0  0  0  0  0  0  0  0
    8.3278  -13.4322   27.4411 C   0  0  0  0  0  0  0  0  0  0  0  0
    8.0886  -12.1292   27.8496 C   0  0  0  0  0  0  0  0  0  0  0  0
    7.4992  -11.2439   26.9693 C   0  0  0  0  0  0  0  0  0  0  0  0
    7.1562  -11.6565   25.7043 C   0  0  0  0  0  0  0  0  0  0  0  0
    7.4014  -12.9540   25.3167 C   0  0  0  0  0  0  0  0  0  0  0  0
    7.6201  -16.0957   23.5809 C   0  0  0  0  0  0  0  0  0  0  0  0
    7.5504  -17.3036   23.2197 O   0  0  0  0  0  0  0  0  0  0  0  0
    8.0699  -12.4238   19.3153 C   0  0  0  0  0  0  0  0  0  0  0  0
    7.6454  -13.4651   20.3712 C   0  0  1  0  0  0  0  0  0  0  0  0
    6.2994  -13.9639   19.8930 C   0  0  0  0  0  0  0  0  0  0  0  0
    8.7240  -14.4821   20.3710 C   0  0  0  0  0  0  0  0  0  0  0  0
    8.7065  -15.5215   21.4249 C   0  0  2  0  0  0  0  0  0  0  0  0
    8.2235  -15.1539   22.7068 N   0  0  0  0  0  0  0  0  0  0  0  0
   10.0831  -16.1349   21.4941 C   0  0  0  0  0  0  0  0  0  0  0  0
   10.5633  -16.6970   20.4777 O   0  0  0  0  0  0  0  0  0  0  0  0
   14.3551  -14.4826   19.4372 N   0  0  0  0  0  0  0  0  0  0  0  0
   14.2787  -14.1393   20.8196 C   0  0  0  0  0  0  0  0  0  0  0  0
   15.2340  -13.5785   21.3823 O   0  0  0  0  0  0  0  0  0  0  0  0
   13.0387  -14.4719   21.5472 C   0  0  0  0  0  0  0  0  0  0  0  0
   13.2023  -15.4147   22.6885 C   0  0  0  0  0  0  0  0  0  0  0  0
   12.2531  -16.5782   22.6957 C   0  0  2  0  0  0  0  0  0  0  0  0
   10.8576  -16.0985   22.6739 N   0  0  0  0  0  0  0  0  0  0  0  0
   12.4010  -17.4308   23.8914 C   0  0  0  0  0  0  0  0  0  0  0  0
   13.4590  -18.0537   24.1504 O   0  0  0  0  0  0  0  0  0  0  0  0
   11.3467  -17.5622   24.7726 O   0  0  0  0  0  0  0  0  0  0  0  0
  2  1  1  1
  3  4  1  0
  3  2  1  0
  4  5  2  0
  5  6  1  0
  7  6  2  0
  8  7  1  0
  9  4  1  0
  9  8  2  0
 10  2  1  0
 10 17  1  0
 11 10  2  0
 13 12  1  6
 14 13  1  0
 15 13  1  0
 16 15  1  6
 16 17  1  0
 18 16  1  0
 19 18  2  0
 20 21  1  0
 21 22  2  0
 21 23  1  0
 23 24  1  0
 25 24  1  1
 25 26  1  0
 25 27  1  0
 26 18  1  0
 27 29  1  0
 28 27  2  0
M  END
$$$$
