FLQ.pdb
     RDKit          3D

 29 29  0  0  1  0  0  0  0  0999 V2000
    7.2326  -17.9810   26.2679 N   0  0  0  0  0  0  0  0  0  0  0  0
    7.9314  -16.7822   25.9214 C   0  0  1  0  0  0  0  0  0  0  0  0
    9.3632  -16.8814   26.4226 C   0  0  0  0  0  0  0  0  0  0  0  0
    9.6162  -15.7043   27.2842 C   0  0  0  0  0  0  0  0  0  0  0  0
    9.4244  -15.7517   28.6424 C   0  0  0  0  0  0  0  0  0  0  0  0
    9.6602  -14.6520   29.4528 C   0  0  0  0  0  0  0  0  0  0  0  0
   10.1002  -13.4748   28.8811 C   0  0  0  0  0  0  0  0  0  0  0  0
   10.3000  -13.4014   27.5235 C   0  0  0  0  0  0  0  0  0  0  0  0
   10.0606  -14.5036   26.7352 C   0  0  0  0  0  0  0  0  0  0  0  0
    8.0076  -16.6315   24.4461 C   0  0  0  0  0  0  0  0  0  0  0  0
    8.0578  -17.6659   23.7240 O   0  0  0  0  0  0  0  0  0  0  0  0
    6.5630  -14.1558   19.9814 C   0  0  0  0  0  0  0  0  0  0  0  0
    7.9810  -13.6955   20.3773 C   0  0  1  0  0  0  0  0  0  0  0  0
    8.0702  -12.2695   19.8795 C   0  0  0  0  0  0  0  0  0  0  0  0
    8.0429  -13.8473   21.8506 C   0  0  0  0  0  0  0  0  0  0  0  0
    8.1160  -15.2155   22.4110 C   0  0  2  0  0  0  0  0  0  0  0  0
    8.0260  -15.3579   23.8193 N   0  0  0  0  0  0  0  0  0  0  0  0
    9.3505  -15.8796   21.8534 C   0  0  0  0  0  0  0  0  0  0  0  0
    9.3432  -16.3107   20.6729 O   0  0  0  0  0  0  0  0  0  0  0  0
   14.7248  -14.3809   20.1699 N   0  0  0  0  0  0  0  0  0  0  0  0
   13.5572  -14.6667   19.4021 C   0  0  0  0  0  0  0  0  0  0  0  0
   13.4954  -14.3388   18.2052 O   0  0  0  0  0  0  0  0  0  0  0  0
   12.4392  -15.3566   20.0742 C   0  0  0  0  0  0  0  0  0  0  0  0
   12.6721  -15.7058   21.5033 C   0  0  0  0  0  0  0  0  0  0  0  0
   11.7179  -16.7132   22.0773 C   0  0  2  0  0  0  0  0  0  0  0  0
   10.5254  -16.0346   22.6208 N   0  0  0  0  0  0  0  0  0  0  0  0
   12.3091  -17.5004   23.1771 C   0  0  0  0  0  0  0  0  0  0  0  0
   12.4926  -18.7392   23.0985 O   0  0  0  0  0  0  0  0  0  0  0  0
   12.6818  -16.8692   24.3467 O   0  0  0  0  0  0  0  0  0  0  0  0
  2  1  1  6
  3  4  1  0
  3  2  1  0
  4  5  2  0
  5  6  1  0
  7  6  2  0
  8  7  1  0
  9  4  1  0
  9  8  2  0
 10  2  1  0
 10 17  1  0
 11 10  2  0
 13 12  1  1
 14 13  1  0
 15 13  1  0
 16 15  1  1
 16 17  1  0
 18 16  1  0
 19 18  2  0
 20 21  1  0
 21 22  2  0
 21 23  1  0
 23 24  1  0
 25 24  1  1
 25 26  1  0
 25 27  1  0
 26 18  1  0
 27 29  1  0
 28 27  2  0
M  END
$$$$
