FLQ.pdb
     RDKit          3D

 29 29  0  0  1  0  0  0  0  0999 V2000
    7.5286  -16.5965   21.4088 N   0  0  0  0  0  0  0  0  0  0  0  0
    8.9099  -16.5069   21.7688 C   0  0  1  0  0  0  0  0  0  0  0  0
    9.6207  -15.5961   20.7806 C   0  0  0  0  0  0  0  0  0  0  0  0
    8.7097  -14.4687   20.4790 C   0  0  0  0  0  0  0  0  0  0  0  0
    8.9779  -13.1923   20.9061 C   0  0  0  0  0  0  0  0  0  0  0  0
    8.1276  -12.1338   20.6259 C   0  0  0  0  0  0  0  0  0  0  0  0
    6.9784  -12.3666   19.8971 C   0  0  0  0  0  0  0  0  0  0  0  0
    6.6870  -13.6356   19.4579 C   0  0  0  0  0  0  0  0  0  0  0  0
    7.5431  -14.6738   19.7459 C   0  0  0  0  0  0  0  0  0  0  0  0
    9.0601  -15.8808   23.1068 C   0  0  0  0  0  0  0  0  0  0  0  0
   10.2193  -15.6737   23.5623 O   0  0  0  0  0  0  0  0  0  0  0  0
    5.5531  -12.5199   26.1585 C   0  0  0  0  0  0  0  0  0  0  0  0
    6.8189  -13.0340   25.4424 C   0  0  1  0  0  0  0  0  0  0  0  0
    7.9091  -12.0719   25.8607 C   0  0  0  0  0  0  0  0  0  0  0  0
    6.9982  -14.4261   25.9193 C   0  0  0  0  0  0  0  0  0  0  0  0
    8.0484  -15.2540   25.2844 C   0  0  2  0  0  0  0  0  0  0  0  0
    7.9390  -15.5063   23.8930 N   0  0  0  0  0  0  0  0  0  0  0  0
    8.1794  -16.5281   26.0814 C   0  0  0  0  0  0  0  0  0  0  0  0
    7.1442  -17.1294   26.4641 O   0  0  0  0  0  0  0  0  0  0  0  0
   11.6408  -21.1411   24.5970 N   0  0  0  0  0  0  0  0  0  0  0  0
   12.2924  -19.9017   24.8686 C   0  0  0  0  0  0  0  0  0  0  0  0
   13.4103  -19.6591   24.3835 O   0  0  0  0  0  0  0  0  0  0  0  0
   11.5984  -18.9313   25.7370 C   0  0  0  0  0  0  0  0  0  0  0  0
   10.2650  -19.3647   26.2395 C   0  0  0  0  0  0  0  0  0  0  0  0
    9.5577  -18.3684   27.1124 C   0  0  2  0  0  0  0  0  0  0  0  0
    9.4383  -17.0732   26.4150 N   0  0  0  0  0  0  0  0  0  0  0  0
   10.2662  -18.1146   28.3822 C   0  0  0  0  0  0  0  0  0  0  0  0
   10.7635  -16.9984   28.6669 O   0  0  0  0  0  0  0  0  0  0  0  0
   10.3982  -19.1309   29.3069 O   0  0  0  0  0  0  0  0  0  0  0  0
  2  1  1  6
  3  4  1  0
  3  2  1  0
  4  5  2  0
  5  6  1  0
  7  6  2  0
  8  7  1  0
  9  4  1  0
  9  8  2  0
 10  2  1  0
 10 17  1  0
 11 10  2  0
 13 12  1  1
 14 13  1  0
 15 13  1  0
 16 15  1  1
 16 17  1  0
 18 16  1  0
 19 18  2  0
 20 21  1  0
 21 22  2  0
 21 23  1  0
 23 24  1  0
 25 24  1  6
 25 26  1  0
 25 27  1  0
 26 18  1  0
 27 29  1  0
 28 27  2  0
M  END
$$$$
