FLQ.pdb
     RDKit          3D

 29 29  0  0  1  0  0  0  0  0999 V2000
    8.2062  -17.9842   21.4757 N   0  0  0  0  0  0  0  0  0  0  0  0
    8.2536  -16.5721   21.6978 C   0  0  1  0  0  0  0  0  0  0  0  0
    7.0497  -15.9256   21.0315 C   0  0  0  0  0  0  0  0  0  0  0  0
    7.4053  -14.5188   20.7376 C   0  0  0  0  0  0  0  0  0  0  0  0
    6.8986  -13.4787   21.4761 C   0  0  0  0  0  0  0  0  0  0  0  0
    7.2290  -12.1601   21.2043 C   0  0  0  0  0  0  0  0  0  0  0  0
    8.0912  -11.8817   20.1626 C   0  0  0  0  0  0  0  0  0  0  0  0
    8.6122  -12.9052   19.4080 C   0  0  0  0  0  0  0  0  0  0  0  0
    8.2727  -14.2080   19.6928 C   0  0  0  0  0  0  0  0  0  0  0  0
    8.1499  -16.2689   23.1476 C   0  0  0  0  0  0  0  0  0  0  0  0
    7.2962  -16.8843   23.8452 O   0  0  0  0  0  0  0  0  0  0  0  0
    5.9403  -12.7488   25.9996 C   0  0  0  0  0  0  0  0  0  0  0  0
    7.2516  -13.0659   25.2518 C   0  0  1  0  0  0  0  0  0  0  0  0
    8.2202  -11.9998   25.7148 C   0  0  0  0  0  0  0  0  0  0  0  0
    7.6054  -14.4481   25.6546 C   0  0  0  0  0  0  0  0  0  0  0  0
    8.8803  -15.0164   25.1617 C   0  0  2  0  0  0  0  0  0  0  0  0
    8.9823  -15.3064   23.7771 N   0  0  0  0  0  0  0  0  0  0  0  0
    9.2153  -16.2137   26.0162 C   0  0  0  0  0  0  0  0  0  0  0  0
    8.9388  -16.1975   27.2421 O   0  0  0  0  0  0  0  0  0  0  0  0
   10.2047  -20.9515   22.2918 N   0  0  0  0  0  0  0  0  0  0  0  0
    9.9722  -21.2731   23.6619 C   0  0  0  0  0  0  0  0  0  0  0  0
   10.1189  -22.4381   24.0683 O   0  0  0  0  0  0  0  0  0  0  0  0
    9.5551  -20.1845   24.5666 C   0  0  0  0  0  0  0  0  0  0  0  0
   10.6125  -19.6785   25.4855 C   0  0  0  0  0  0  0  0  0  0  0  0
   10.2123  -18.5059   26.3339 C   0  0  2  0  0  0  0  0  0  0  0  0
    9.8353  -17.3631   25.4797 N   0  0  0  0  0  0  0  0  0  0  0  0
   11.2971  -18.0451   27.2225 C   0  0  0  0  0  0  0  0  0  0  0  0
   11.7108  -18.7252   28.1924 O   0  0  0  0  0  0  0  0  0  0  0  0
   11.8939  -16.8213   26.9956 O   0  0  0  0  0  0  0  0  0  0  0  0
  2  1  1  1
  3  4  1  0
  3  2  1  0
  4  5  2  0
  5  6  1  0
  7  6  2  0
  8  7  1  0
  9  4  1  0
  9  8  2  0
 10  2  1  0
 10 17  1  0
 11 10  2  0
 13 12  1  1
 14 13  1  0
 15 13  1  0
 16 15  1  6
 16 17  1  0
 18 16  1  0
 19 18  2  0
 20 21  1  0
 21 22  2  0
 21 23  1  0
 23 24  1  0
 25 24  1  6
 25 26  1  0
 25 27  1  0
 26 18  1  0
 27 29  1  0
 28 27  2  0
M  END
$$$$
