FLQ.pdb
     RDKit          3D

 29 29  0  0  1  0  0  0  0  0999 V2000
    6.0222  -18.2301   25.0576 N   0  0  0  0  0  0  0  0  0  0  0  0
    6.5830  -16.9262   24.8818 C   0  0  1  0  0  0  0  0  0  0  0  0
    7.3846  -16.5611   26.1209 C   0  0  0  0  0  0  0  0  0  0  0  0
    7.2653  -15.0980   26.3135 C   0  0  0  0  0  0  0  0  0  0  0  0
    8.1679  -14.3958   27.0725 C   0  0  0  0  0  0  0  0  0  0  0  0
    8.0599  -13.0259   27.2554 C   0  0  0  0  0  0  0  0  0  0  0  0
    7.0168  -12.3460   26.6590 C   0  0  0  0  0  0  0  0  0  0  0  0
    6.0997  -13.0259   25.8942 C   0  0  0  0  0  0  0  0  0  0  0  0
    6.2233  -14.3858   25.7240 C   0  0  0  0  0  0  0  0  0  0  0  0
    7.5354  -16.9180   23.7426 C   0  0  0  0  0  0  0  0  0  0  0  0
    8.1546  -17.9789   23.4508 O   0  0  0  0  0  0  0  0  0  0  0  0
    7.7968  -12.4978   20.1063 C   0  0  0  0  0  0  0  0  0  0  0  0
    7.4304  -13.7119   20.9845 C   0  0  1  0  0  0  0  0  0  0  0  0
    6.1865  -14.2845   20.3411 C   0  0  0  0  0  0  0  0  0  0  0  0
    8.6191  -14.5966   20.9417 C   0  0  0  0  0  0  0  0  0  0  0  0
    8.6656  -15.7520   21.8660 C   0  0  2  0  0  0  0  0  0  0  0  0
    7.7732  -15.7521   22.9683 N   0  0  0  0  0  0  0  0  0  0  0  0
   10.0983  -15.9423   22.2986 C   0  0  0  0  0  0  0  0  0  0  0  0
   10.9827  -16.1660   21.4341 O   0  0  0  0  0  0  0  0  0  0  0  0
   12.5018  -14.5206   28.0438 N   0  0  0  0  0  0  0  0  0  0  0  0
   11.6709  -15.6708   27.8980 C   0  0  0  0  0  0  0  0  0  0  0  0
   11.1662  -16.2130   28.8956 O   0  0  0  0  0  0  0  0  0  0  0  0
   11.4370  -16.1866   26.5353 C   0  0  0  0  0  0  0  0  0  0  0  0
   12.0840  -15.4116   25.4403 C   0  0  0  0  0  0  0  0  0  0  0  0
   11.8979  -15.9781   24.0621 C   0  0  2  0  0  0  0  0  0  0  0  0
   10.4828  -15.8769   23.6555 N   0  0  0  0  0  0  0  0  0  0  0  0
   12.2750  -17.4024   23.9724 C   0  0  0  0  0  0  0  0  0  0  0  0
   11.4308  -18.3156   23.8062 O   0  0  0  0  0  0  0  0  0  0  0  0
   13.6028  -17.7661   24.0728 O   0  0  0  0  0  0  0  0  0  0  0  0
  2  1  1  1
  3  4  1  0
  3  2  1  0
  4  5  2  0
  5  6  1  0
  7  6  2  0
  8  7  1  0
  9  4  1  0
  9  8  2  0
 10  2  1  0
 10 17  1  0
 11 10  2  0
 13 12  1  6
 14 13  1  0
 15 13  1  0
 16 15  1  1
 16 17  1  0
 18 16  1  0
 19 18  2  0
 20 21  1  0
 21 22  2  0
 21 23  1  0
 23 24  1  0
 25 24  1  1
 25 26  1  0
 25 27  1  0
 26 18  1  0
 27 29  1  0
 28 27  2  0
M  END
$$$$
