FLQ.pdb
     RDKit          3D

 29 29  0  0  1  0  0  0  0  0999 V2000
    6.0543  -17.7578   25.4011 N   0  0  0  0  0  0  0  0  0  0  0  0
    6.6375  -16.5150   24.9996 C   0  0  1  0  0  0  0  0  0  0  0  0
    7.6362  -16.0726   26.0570 C   0  0  0  0  0  0  0  0  0  0  0  0
    7.4504  -14.6185   26.2646 C   0  0  0  0  0  0  0  0  0  0  0  0
    8.5143  -13.7516   26.2790 C   0  0  0  0  0  0  0  0  0  0  0  0
    8.3448  -12.3895   26.4730 C   0  0  0  0  0  0  0  0  0  0  0  0
    7.0719  -11.8876   26.6570 C   0  0  0  0  0  0  0  0  0  0  0  0
    5.9899  -12.7347   26.6469 C   0  0  0  0  0  0  0  0  0  0  0  0
    6.1778  -14.0840   26.4529 C   0  0  0  0  0  0  0  0  0  0  0  0
    7.4016  -16.6817   23.7374 C   0  0  0  0  0  0  0  0  0  0  0  0
    7.9150  -17.8045   23.4730 O   0  0  0  0  0  0  0  0  0  0  0  0
    7.9924  -12.4987   19.6652 C   0  0  0  0  0  0  0  0  0  0  0  0
    8.4732  -13.4261   20.8002 C   0  0  1  0  0  0  0  0  0  0  0  0
    7.9811  -12.7621   22.0675 C   0  0  0  0  0  0  0  0  0  0  0  0
    7.8635  -14.7458   20.5097 C   0  0  0  0  0  0  0  0  0  0  0  0
    8.0469  -15.8342   21.4961 C   0  0  2  0  0  0  0  0  0  0  0  0
    7.5743  -15.6162   22.8154 N   0  0  0  0  0  0  0  0  0  0  0  0
    9.5003  -16.2383   21.4758 C   0  0  0  0  0  0  0  0  0  0  0  0
    9.9819  -16.7695   20.4437 O   0  0  0  0  0  0  0  0  0  0  0  0
   14.5312  -15.0786   20.0462 N   0  0  0  0  0  0  0  0  0  0  0  0
   13.1909  -14.6207   19.8774 C   0  0  0  0  0  0  0  0  0  0  0  0
   12.8755  -13.9524   18.8785 O   0  0  0  0  0  0  0  0  0  0  0  0
   12.2059  -14.9649   20.9208 C   0  0  0  0  0  0  0  0  0  0  0  0
   12.7108  -15.8496   22.0075 C   0  0  0  0  0  0  0  0  0  0  0  0
   11.6659  -16.6911   22.6819 C   0  0  2  0  0  0  0  0  0  0  0  0
   10.3459  -16.0377   22.5885 N   0  0  0  0  0  0  0  0  0  0  0  0
   11.9428  -16.9083   24.1154 C   0  0  0  0  0  0  0  0  0  0  0  0
   12.9728  -17.4978   24.5228 O   0  0  0  0  0  0  0  0  0  0  0  0
   11.0470  -16.4532   25.0618 O   0  0  0  0  0  0  0  0  0  0  0  0
  2  1  1  1
  3  4  1  0
  3  2  1  0
  4  5  2  0
  5  6  1  0
  7  6  2  0
  8  7  1  0
  9  4  1  0
  9  8  2  0
 10  2  1  0
 10 17  1  0
 11 10  2  0
 13 12  1  6
 14 13  1  0
 15 13  1  0
 16 15  1  6
 16 17  1  0
 18 16  1  0
 19 18  2  0
 20 21  1  0
 21 22  2  0
 21 23  1  0
 23 24  1  0
 25 24  1  1
 25 26  1  0
 25 27  1  0
 26 18  1  0
 27 29  1  0
 28 27  2  0
M  END
$$$$
