FLQ.pdb
     RDKit          3D

 29 29  0  0  1  0  0  0  0  0999 V2000
    7.6208  -16.8735   21.5069 N   0  0  0  0  0  0  0  0  0  0  0  0
    9.0052  -16.5791   21.7133 C   0  0  1  0  0  0  0  0  0  0  0  0
    9.4822  -15.6459   20.6120 C   0  0  0  0  0  0  0  0  0  0  0  0
    8.5520  -14.4949   20.5695 C   0  0  0  0  0  0  0  0  0  0  0  0
    8.9933  -13.2060   20.7360 C   0  0  0  0  0  0  0  0  0  0  0  0
    8.1257  -12.1254   20.6968 C   0  0  0  0  0  0  0  0  0  0  0  0
    6.7799  -12.3484   20.4845 C   0  0  0  0  0  0  0  0  0  0  0  0
    6.3127  -13.6295   20.3149 C   0  0  0  0  0  0  0  0  0  0  0  0
    7.1891  -14.6896   20.3570 C   0  0  0  0  0  0  0  0  0  0  0  0
    9.1985  -15.8560   22.9957 C   0  0  0  0  0  0  0  0  0  0  0  0
   10.3343  -15.3748   23.2653 O   0  0  0  0  0  0  0  0  0  0  0  0
    6.0040  -12.4992   26.2039 C   0  0  0  0  0  0  0  0  0  0  0  0
    7.2392  -13.0520   25.4637 C   0  0  1  0  0  0  0  0  0  0  0  0
    8.3649  -12.1196   25.8542 C   0  0  0  0  0  0  0  0  0  0  0  0
    7.3891  -14.4467   25.9433 C   0  0  0  0  0  0  0  0  0  0  0  0
    8.3882  -15.3126   25.2774 C   0  0  2  0  0  0  0  0  0  0  0  0
    8.1444  -15.6875   23.9315 N   0  0  0  0  0  0  0  0  0  0  0  0
    8.6278  -16.5100   26.1633 C   0  0  0  0  0  0  0  0  0  0  0  0
    7.6809  -16.9759   26.8457 O   0  0  0  0  0  0  0  0  0  0  0  0
   13.0386  -19.9281   24.2112 N   0  0  0  0  0  0  0  0  0  0  0  0
   13.4012  -19.8390   25.5879 C   0  0  0  0  0  0  0  0  0  0  0  0
   14.5740  -20.0431   25.9441 O   0  0  0  0  0  0  0  0  0  0  0  0
   12.3446  -19.5007   26.5609 C   0  0  0  0  0  0  0  0  0  0  0  0
   10.9869  -19.2978   25.9831 C   0  0  0  0  0  0  0  0  0  0  0  0
   10.0504  -18.4813   26.8265 C   0  0  2  0  0  0  0  0  0  0  0  0
    9.8927  -17.1309   26.2523 N   0  0  0  0  0  0  0  0  0  0  0  0
   10.5285  -18.3111   28.2125 C   0  0  0  0  0  0  0  0  0  0  0  0
   10.8524  -17.1939   28.6831 O   0  0  0  0  0  0  0  0  0  0  0  0
   10.6310  -19.4106   29.0407 O   0  0  0  0  0  0  0  0  0  0  0  0
  2  1  1  6
  3  4  1  0
  3  2  1  0
  4  5  2  0
  5  6  1  0
  7  6  2  0
  8  7  1  0
  9  4  1  0
  9  8  2  0
 10  2  1  0
 10 17  1  0
 11 10  2  0
 13 12  1  1
 14 13  1  0
 15 13  1  0
 16 15  1  1
 16 17  1  0
 18 16  1  0
 19 18  2  0
 20 21  1  0
 21 22  2  0
 21 23  1  0
 23 24  1  0
 25 24  1  6
 25 26  1  0
 25 27  1  0
 26 18  1  0
 27 29  1  0
 28 27  2  0
M  END
$$$$
