DKK.pdb
     RDKit          3D

 27 26  0  0  1  0  0  0  0  0999 V2000
   11.4397  -18.2241   17.8138 N   0  0  0  0  0  0  0  0  0  0  0  0
   10.3854  -18.6512   18.7518 C   0  0  1  0  0  0  0  0  0  0  0  0
   10.7751  -20.0146   19.2051 C   0  0  0  0  0  0  0  0  0  0  0  0
   10.7036  -21.0809   18.2108 C   0  0  0  0  0  0  0  0  0  0  0  0
   10.4553  -20.9476   17.0021 O   0  0  0  0  0  0  0  0  0  0  0  0
   10.3990  -17.6719   19.8724 C   0  0  0  0  0  0  0  0  0  0  0  0
   11.5207  -17.3513   20.3919 O   0  0  0  0  0  0  0  0  0  0  0  0
   10.9427  -22.3860   18.6871 O   0  0  0  0  0  0  0  0  0  0  0  0
    9.2111  -17.0859   20.3794 N   0  0  0  0  0  0  0  0  0  0  0  0
    9.3227  -16.1762   21.5130 C   0  0  1  0  0  0  0  0  0  0  0  0
    8.1331  -15.2511   21.4762 C   0  0  0  0  0  0  0  0  0  0  0  0
    8.3842  -13.9381   20.8226 C   0  0  0  0  0  0  0  0  0  0  0  0
    7.6293  -13.7874   19.5113 C   0  0  0  0  0  0  0  0  0  0  0  0
    7.9508  -12.5131   18.7930 C   0  0  0  0  0  0  0  0  0  0  0  0
    7.1928  -12.4613   17.5372 N   0  0  0  0  0  0  0  0  0  0  0  0
    9.3392  -16.9209   22.7886 C   0  0  0  0  0  0  0  0  0  0  0  0
    8.6360  -17.9266   23.0346 O   0  0  0  0  0  0  0  0  0  0  0  0
   10.1994  -16.5257   23.8804 N   0  0  0  0  0  0  0  0  0  0  0  0
   10.6847  -17.4380   24.8785 C   0  0  1  0  0  0  0  0  0  0  0  0
   11.5950  -18.4985   24.3050 C   0  0  0  0  0  0  0  0  0  0  0  0
   12.1226  -19.4380   25.3668 C   0  0  0  0  0  0  0  0  0  0  0  0
   13.0090  -20.4605   24.7451 C   0  0  0  0  0  0  0  0  0  0  0  0
   13.6838  -21.3635   25.7437 C   0  0  0  0  0  0  0  0  0  0  0  0
   14.5953  -22.2884   25.1579 N   0  0  0  0  0  0  0  0  0  0  0  0
   11.3880  -16.6468   25.9195 C   0  0  0  0  0  0  0  0  0  0  0  0
   11.9750  -15.5522   25.6411 O   0  0  0  0  0  0  0  0  0  0  0  0
   11.4386  -17.0598   27.2369 O   0  0  0  0  0  0  0  0  0  0  0  0
  2  1  1  6
  3  2  1  0
  4  8  1  0
  4  3  1  0
  5  4  2  0
  6  2  1  0
  7  6  2  0
  9  6  1  0
 10 11  1  1
 10  9  1  0
 11 12  1  0
 13 12  1  0
 13 14  1  0
 14 15  1  0
 16 10  1  0
 17 16  2  0
 18 16  1  0
 19 25  1  0
 19 18  1  0
 19 20  1  6
 21 20  1  0
 22 21  1  0
 23 24  1  0
 23 22  1  0
 25 27  1  0
 26 25  2  0
M  END
$$$$
