DKK.pdb
     RDKit          3D

 27 26  0  0  1  0  0  0  0  0999 V2000
   12.6644  -17.9227   15.6109 N   0  0  0  0  0  0  0  0  0  0  0  0
   12.3037  -19.0659   16.4693 C   0  0  1  0  0  0  0  0  0  0  0  0
   11.9272  -20.1665   15.5403 C   0  0  0  0  0  0  0  0  0  0  0  0
   10.8032  -19.9119   14.6445 C   0  0  0  0  0  0  0  0  0  0  0  0
   10.0527  -20.7629   14.1414 O   0  0  0  0  0  0  0  0  0  0  0  0
   13.5218  -19.4002   17.2564 C   0  0  0  0  0  0  0  0  0  0  0  0
   13.4229  -20.2460   18.2081 O   0  0  0  0  0  0  0  0  0  0  0  0
   10.5592  -18.5597   14.3293 O   0  0  0  0  0  0  0  0  0  0  0  0
   14.7833  -18.8119   16.9843 N   0  0  0  0  0  0  0  0  0  0  0  0
   15.9334  -19.2622   17.7587 C   0  0  1  0  0  0  0  0  0  0  0  0
   17.1457  -19.1819   16.8665 C   0  0  0  0  0  0  0  0  0  0  0  0
   17.1173  -20.0951   15.6921 C   0  0  0  0  0  0  0  0  0  0  0  0
   18.2819  -19.8591   14.7434 C   0  0  0  0  0  0  0  0  0  0  0  0
   18.2709  -20.7792   13.5617 C   0  0  0  0  0  0  0  0  0  0  0  0
   19.2982  -20.3500   12.6052 N   0  0  0  0  0  0  0  0  0  0  0  0
   16.1320  -18.4140   18.9517 C   0  0  0  0  0  0  0  0  0  0  0  0
   16.2807  -17.1716   18.9248 O   0  0  0  0  0  0  0  0  0  0  0  0
   16.1698  -18.9804   20.2806 N   0  0  0  0  0  0  0  0  0  0  0  0
   16.3352  -18.1962   21.4730 C   0  0  1  0  0  0  0  0  0  0  0  0
   15.1884  -18.3610   22.4424 C   0  0  0  0  0  0  0  0  0  0  0  0
   14.2289  -19.4506   22.0171 C   0  0  0  0  0  0  0  0  0  0  0  0
   13.1542  -19.6069   23.0362 C   0  0  0  0  0  0  0  0  0  0  0  0
   12.2314  -20.7666   22.7688 C   0  0  0  0  0  0  0  0  0  0  0  0
   11.1759  -20.8914   23.7172 N   0  0  0  0  0  0  0  0  0  0  0  0
   17.6200  -18.5886   22.1051 C   0  0  0  0  0  0  0  0  0  0  0  0
   18.2659  -19.6155   21.7196 O   0  0  0  0  0  0  0  0  0  0  0  0
   18.1745  -17.8597   23.1395 O   0  0  0  0  0  0  0  0  0  0  0  0
  2  1  1  6
  3  2  1  0
  4  8  1  0
  4  3  1  0
  5  4  2  0
  6  2  1  0
  7  6  2  0
  9  6  1  0
 10 11  1  6
 10  9  1  0
 11 12  1  0
 13 12  1  0
 13 14  1  0
 14 15  1  0
 16 10  1  0
 17 16  2  0
 18 16  1  0
 19 25  1  0
 19 18  1  0
 19 20  1  1
 21 20  1  0
 22 21  1  0
 23 24  1  0
 23 22  1  0
 25 27  1  0
 26 25  2  0
M  END
$$$$
