DKK.pdb
     RDKit          3D

 27 26  0  0  1  0  0  0  0  0999 V2000
   11.6744  -19.4938   17.6602 N   0  0  0  0  0  0  0  0  0  0  0  0
   10.6189  -18.4724   17.5310 C   0  0  1  0  0  0  0  0  0  0  0  0
    9.7335  -18.9424   16.4305 C   0  0  0  0  0  0  0  0  0  0  0  0
   10.2987  -18.9310   15.0847 C   0  0  0  0  0  0  0  0  0  0  0  0
   10.4827  -17.9332   14.3699 O   0  0  0  0  0  0  0  0  0  0  0  0
    9.9060  -18.4384   18.8369 C   0  0  0  0  0  0  0  0  0  0  0  0
    8.9165  -17.6428   18.9739 O   0  0  0  0  0  0  0  0  0  0  0  0
   10.6670  -20.1862   14.5593 O   0  0  0  0  0  0  0  0  0  0  0  0
   10.2889  -19.2579   19.9294 N   0  0  0  0  0  0  0  0  0  0  0  0
    9.4873  -19.2011   21.1457 C   0  0  1  0  0  0  0  0  0  0  0  0
    9.5042  -20.5733   21.7694 C   0  0  0  0  0  0  0  0  0  0  0  0
    8.3252  -21.4207   21.4440 C   0  0  0  0  0  0  0  0  0  0  0  0
    8.3790  -22.7788   22.1258 C   0  0  0  0  0  0  0  0  0  0  0  0
    7.3105  -23.7152   21.6522 C   0  0  0  0  0  0  0  0  0  0  0  0
    7.4024  -24.9732   22.4028 N   0  0  0  0  0  0  0  0  0  0  0  0
   10.0371  -18.2121   22.0953 C   0  0  0  0  0  0  0  0  0  0  0  0
   11.2528  -17.9389   22.2139 O   0  0  0  0  0  0  0  0  0  0  0  0
    9.1786  -17.4645   22.9853 N   0  0  0  0  0  0  0  0  0  0  0  0
    9.6671  -16.5202   23.9516 C   0  0  1  0  0  0  0  0  0  0  0  0
    8.5866  -15.5944   24.4592 C   0  0  0  0  0  0  0  0  0  0  0  0
    9.1065  -14.6143   25.4876 C   0  0  0  0  0  0  0  0  0  0  0  0
    8.0028  -13.7251   25.9449 C   0  0  0  0  0  0  0  0  0  0  0  0
    8.4236  -12.7294   26.9935 C   0  0  0  0  0  0  0  0  0  0  0  0
    7.3633  -11.8964   27.4531 N   0  0  0  0  0  0  0  0  0  0  0  0
   10.2759  -17.2829   25.0706 C   0  0  0  0  0  0  0  0  0  0  0  0
    9.7083  -18.3104   25.5630 O   0  0  0  0  0  0  0  0  0  0  0  0
   11.4845  -16.9146   25.6294 O   0  0  0  0  0  0  0  0  0  0  0  0
  2  1  1  1
  3  2  1  0
  4  8  1  0
  4  3  1  0
  5  4  2  0
  6  2  1  0
  7  6  2  0
  9  6  1  0
 10 11  1  1
 10  9  1  0
 11 12  1  0
 13 12  1  0
 13 14  1  0
 14 15  1  0
 16 10  1  0
 17 16  2  0
 18 16  1  0
 19 25  1  0
 19 18  1  0
 19 20  1  1
 21 20  1  0
 22 21  1  0
 23 24  1  0
 23 22  1  0
 25 27  1  0
 26 25  2  0
M  END
$$$$
