DKK.pdb
     RDKit          3D

 27 26  0  0  1  0  0  0  0  0999 V2000
   12.8133  -18.5700   19.7779 N   0  0  0  0  0  0  0  0  0  0  0  0
   12.9044  -17.2480   20.4242 C   0  0  1  0  0  0  0  0  0  0  0  0
   12.7045  -16.2513   19.3367 C   0  0  0  0  0  0  0  0  0  0  0  0
   13.7518  -16.1685   18.3232 C   0  0  0  0  0  0  0  0  0  0  0  0
   13.6411  -15.6862   17.1850 O   0  0  0  0  0  0  0  0  0  0  0  0
   11.8081  -17.1959   21.4293 C   0  0  0  0  0  0  0  0  0  0  0  0
   11.6478  -16.1247   22.1058 O   0  0  0  0  0  0  0  0  0  0  0  0
   15.0080  -16.6931   18.6896 O   0  0  0  0  0  0  0  0  0  0  0  0
   10.9394  -18.2933   21.6587 N   0  0  0  0  0  0  0  0  0  0  0  0
    9.8697  -18.1310   22.6358 C   0  0  1  0  0  0  0  0  0  0  0  0
    8.9690  -19.3354   22.5325 C   0  0  0  0  0  0  0  0  0  0  0  0
    7.9017  -19.4063   23.5669 C   0  0  0  0  0  0  0  0  0  0  0  0
    7.0900  -20.6890   23.4781 C   0  0  0  0  0  0  0  0  0  0  0  0
    6.0074  -20.7702   24.5098 C   0  0  0  0  0  0  0  0  0  0  0  0
    5.2905  -22.0421   24.3595 N   0  0  0  0  0  0  0  0  0  0  0  0
   10.4154  -18.0292   24.0047 C   0  0  0  0  0  0  0  0  0  0  0  0
   11.3648  -18.7155   24.4452 O   0  0  0  0  0  0  0  0  0  0  0  0
    9.8713  -17.0963   24.9648 N   0  0  0  0  0  0  0  0  0  0  0  0
   10.3465  -16.9803   26.3157 C   0  0  1  0  0  0  0  0  0  0  0  0
    9.8515  -15.7288   27.0019 C   0  0  0  0  0  0  0  0  0  0  0  0
   10.3445  -15.6226   28.4281 C   0  0  0  0  0  0  0  0  0  0  0  0
    9.9107  -14.3267   29.0200 C   0  0  0  0  0  0  0  0  0  0  0  0
   10.3713  -14.1261   30.4397 C   0  0  0  0  0  0  0  0  0  0  0  0
    9.9939  -12.8692   30.9940 N   0  0  0  0  0  0  0  0  0  0  0  0
    9.9182  -18.1928   27.0579 C   0  0  0  0  0  0  0  0  0  0  0  0
    8.7662  -18.7064   26.8867 O   0  0  0  0  0  0  0  0  0  0  0  0
   10.7476  -18.8198   27.9676 O   0  0  0  0  0  0  0  0  0  0  0  0
  2  1  1  6
  3  2  1  0
  4  8  1  0
  4  3  1  0
  5  4  2  0
  6  2  1  0
  7  6  2  0
  9  6  1  0
 10 11  1  1
 10  9  1  0
 11 12  1  0
 13 12  1  0
 13 14  1  0
 14 15  1  0
 16 10  1  0
 17 16  2  0
 18 16  1  0
 19 25  1  0
 19 18  1  0
 19 20  1  1
 21 20  1  0
 22 21  1  0
 23 24  1  0
 23 22  1  0
 25 27  1  0
 26 25  2  0
M  END
$$$$
