DKK.pdb
     RDKit          3D

 27 26  0  0  1  0  0  0  0  0999 V2000
   12.7388  -17.0485   19.1286 N   0  0  0  0  0  0  0  0  0  0  0  0
   12.7737  -15.8646   20.0068 C   0  0  1  0  0  0  0  0  0  0  0  0
   12.6574  -14.6871   19.1035 C   0  0  0  0  0  0  0  0  0  0  0  0
   13.7996  -14.4101   18.2379 C   0  0  0  0  0  0  0  0  0  0  0  0
   13.9329  -14.7638   17.0558 O   0  0  0  0  0  0  0  0  0  0  0  0
   11.6007  -15.9816   20.9153 C   0  0  0  0  0  0  0  0  0  0  0  0
   11.3335  -15.0091   21.6987 O   0  0  0  0  0  0  0  0  0  0  0  0
   14.8470  -13.6657   18.8177 O   0  0  0  0  0  0  0  0  0  0  0  0
   10.7739  -17.1337   20.9387 N   0  0  0  0  0  0  0  0  0  0  0  0
    9.7591  -17.2308   21.9807 C   0  0  1  0  0  0  0  0  0  0  0  0
    8.9684  -18.4902   21.7337 C   0  0  0  0  0  0  0  0  0  0  0  0
    7.9341  -18.7888   22.7609 C   0  0  0  0  0  0  0  0  0  0  0  0
    7.1764  -20.0739   22.4670 C   0  0  0  0  0  0  0  0  0  0  0  0
    6.0743  -20.3413   23.4452 C   0  0  0  0  0  0  0  0  0  0  0  0
    5.4022  -21.5956   23.0855 N   0  0  0  0  0  0  0  0  0  0  0  0
   10.3802  -17.2836   23.3200 C   0  0  0  0  0  0  0  0  0  0  0  0
   11.4072  -17.9408   23.6027 O   0  0  0  0  0  0  0  0  0  0  0  0
    9.8252  -16.5539   24.4369 N   0  0  0  0  0  0  0  0  0  0  0  0
   10.3889  -16.5762   25.7582 C   0  0  1  0  0  0  0  0  0  0  0  0
    9.8036  -15.5142   26.6592 C   0  0  0  0  0  0  0  0  0  0  0  0
   10.3702  -15.5739   28.0606 C   0  0  0  0  0  0  0  0  0  0  0  0
    9.7347  -14.5287   28.9101 C   0  0  0  0  0  0  0  0  0  0  0  0
   10.3034  -14.4531   30.3025 C   0  0  0  0  0  0  0  0  0  0  0  0
    9.6504  -13.5027   31.1390 N   0  0  0  0  0  0  0  0  0  0  0  0
   10.1692  -17.9297   26.3275 C   0  0  0  0  0  0  0  0  0  0  0  0
    9.0776  -18.5592   26.1470 O   0  0  0  0  0  0  0  0  0  0  0  0
   11.1367  -18.5690   27.0784 O   0  0  0  0  0  0  0  0  0  0  0  0
  2  1  1  6
  3  2  1  0
  4  8  1  0
  4  3  1  0
  5  4  2  0
  6  2  1  0
  7  6  2  0
  9  6  1  0
 10 11  1  6
 10  9  1  0
 11 12  1  0
 13 12  1  0
 13 14  1  0
 14 15  1  0
 16 10  1  0
 17 16  2  0
 18 16  1  0
 19 25  1  0
 19 18  1  0
 19 20  1  1
 21 20  1  0
 22 21  1  0
 23 24  1  0
 23 22  1  0
 25 27  1  0
 26 25  2  0
M  END
$$$$
