DKK.pdb
     RDKit          3D

 27 26  0  0  1  0  0  0  0  0999 V2000
   12.3131  -18.9396   18.7267 N   0  0  0  0  0  0  0  0  0  0  0  0
   12.9717  -17.7582   19.3136 C   0  0  1  0  0  0  0  0  0  0  0  0
   13.3638  -16.8998   18.1623 C   0  0  0  0  0  0  0  0  0  0  0  0
   14.5365  -17.3200   17.4014 C   0  0  0  0  0  0  0  0  0  0  0  0
   15.1890  -18.3627   17.5669 O   0  0  0  0  0  0  0  0  0  0  0  0
   11.9547  -17.0958   20.1751 C   0  0  0  0  0  0  0  0  0  0  0  0
   12.2605  -15.9967   20.7489 O   0  0  0  0  0  0  0  0  0  0  0  0
   14.9567  -16.4431   16.3808 O   0  0  0  0  0  0  0  0  0  0  0  0
   10.6626  -17.6441   20.3781 N   0  0  0  0  0  0  0  0  0  0  0  0
    9.7901  -17.0045   21.3553 C   0  0  1  0  0  0  0  0  0  0  0  0
    8.4489  -17.6895   21.2888 C   0  0  0  0  0  0  0  0  0  0  0  0
    8.5051  -19.1759   21.3299 C   0  0  0  0  0  0  0  0  0  0  0  0
    7.1430  -19.8157   21.1120 C   0  0  0  0  0  0  0  0  0  0  0  0
    7.2041  -21.3097   21.0272 C   0  0  0  0  0  0  0  0  0  0  0  0
    5.8606  -21.8339   20.7541 N   0  0  0  0  0  0  0  0  0  0  0  0
   10.3466  -17.1235   22.7185 C   0  0  0  0  0  0  0  0  0  0  0  0
   11.1439  -18.0154   23.0862 O   0  0  0  0  0  0  0  0  0  0  0  0
    9.9964  -16.1845   23.7595 N   0  0  0  0  0  0  0  0  0  0  0  0
   10.5089  -16.2580   25.0997 C   0  0  1  0  0  0  0  0  0  0  0  0
    9.9572  -15.1732   25.9946 C   0  0  0  0  0  0  0  0  0  0  0  0
   10.5021  -15.2584   27.4033 C   0  0  0  0  0  0  0  0  0  0  0  0
    9.9888  -14.1208   28.2158 C   0  0  0  0  0  0  0  0  0  0  0  0
   10.5695  -14.0587   29.6039 C   0  0  0  0  0  0  0  0  0  0  0  0
   10.0766  -12.9740   30.3849 N   0  0  0  0  0  0  0  0  0  0  0  0
   10.1860  -17.6024   25.6408 C   0  0  0  0  0  0  0  0  0  0  0  0
    9.0512  -18.1445   25.4444 O   0  0  0  0  0  0  0  0  0  0  0  0
   11.0995  -18.3273   26.3814 O   0  0  0  0  0  0  0  0  0  0  0  0
  2  1  1  6
  3  2  1  0
  4  8  1  0
  4  3  1  0
  5  4  2  0
  6  2  1  0
  7  6  2  0
  9  6  1  0
 10 11  1  1
 10  9  1  0
 11 12  1  0
 13 12  1  0
 13 14  1  0
 14 15  1  0
 16 10  1  0
 17 16  2  0
 18 16  1  0
 19 25  1  0
 19 18  1  0
 19 20  1  1
 21 20  1  0
 22 21  1  0
 23 24  1  0
 23 22  1  0
 25 27  1  0
 26 25  2  0
M  END
$$$$
