GHE.pdb
     RDKit          3D

 24 24  0  0  1  0  0  0  0  0999 V2000
    4.3223  -20.8689   22.0994 N   0  0  0  0  0  0  0  0  0  0  0  0
    4.4378  -19.5752   22.7039 C   0  0  0  0  0  0  0  0  0  0  0  0
    5.5332  -18.7735   22.1040 C   0  0  0  0  0  0  0  0  0  0  0  0
    6.3305  -19.3516   21.3171 O   0  0  0  0  0  0  0  0  0  0  0  0
    5.6435  -17.4110   22.4302 N   0  0  0  0  0  0  0  0  0  0  0  0
    6.7605  -16.5859   21.8349 C   0  0  1  0  0  0  0  0  0  0  0  0
    6.1912  -15.2192   21.6424 C   0  0  0  0  0  0  0  0  0  0  0  0
    7.0844  -14.1933   21.0965 C   0  0  0  0  0  0  0  0  0  0  0  0
    7.1474  -13.8454   19.7211 C   0  0  0  0  0  0  0  0  0  0  0  0
    8.0549  -12.8813   19.5488 N   0  0  0  0  0  0  0  0  0  0  0  0
    8.5820  -12.5896   20.7503 C   0  0  0  0  0  0  0  0  0  0  0  0
    7.9913  -13.3794   21.6499 N   0  0  0  0  0  0  0  0  0  0  0  0
    7.8205  -16.6975   22.8534 C   0  0  0  0  0  0  0  0  0  0  0  0
    7.4562  -16.8908   24.0777 O   0  0  0  0  0  0  0  0  0  0  0  0
    9.2156  -16.6259   22.6718 N   0  0  0  0  0  0  0  0  0  0  0  0
   10.1534  -16.8066   23.7869 C   0  0  1  0  0  0  0  0  0  0  0  0
   11.5265  -16.8475   23.1654 C   0  0  0  0  0  0  0  0  0  0  0  0
   12.6579  -16.9022   24.1304 C   0  0  0  0  0  0  0  0  0  0  0  0
   13.9279  -16.9408   23.3830 C   0  0  0  0  0  0  0  0  0  0  0  0
   14.1136  -17.7964   22.4996 O   0  0  0  0  0  0  0  0  0  0  0  0
   10.0097  -15.7550   24.7899 C   0  0  0  0  0  0  0  0  0  0  0  0
   10.2551  -15.9305   26.1466 O   0  0  0  0  0  0  0  0  0  0  0  0
   14.9170  -16.0252   23.6622 O   0  0  0  0  0  0  0  0  0  0  0  0
    9.6430  -14.6124   24.4305 O   0  0  0  0  0  0  0  0  0  0  0  0
  2  1  1  0
  3  2  1  0
  3  5  1  0
  4  3  2  0
  6  5  1  0
  6 13  1  0
  6  7  1  1
  8  7  1  0
  8 12  1  0
  9 10  1  0
  9  8  2  0
 10 11  1  0
 11 12  2  0
 13 14  2  0
 13 15  1  0
 15 16  1  0
 16 17  1  6
 16 21  1  0
 17 18  1  0
 18 19  1  0
 19 20  2  0
 21 22  1  0
 23 19  1  0
 24 21  2  0
M  END
$$$$
