GHE.pdb
     RDKit          3D

 24 24  0  0  1  0  0  0  0  0999 V2000
    8.8346  -20.2259   19.4155 N   0  0  0  0  0  0  0  0  0  0  0  0
    8.2517  -19.1581   20.1722 C   0  0  0  0  0  0  0  0  0  0  0  0
    9.1831  -18.0138   20.3333 C   0  0  0  0  0  0  0  0  0  0  0  0
   10.3370  -18.1121   19.8354 O   0  0  0  0  0  0  0  0  0  0  0  0
    8.7515  -16.8713   21.0285 N   0  0  0  0  0  0  0  0  0  0  0  0
    9.6490  -15.6582   21.1068 C   0  0  1  0  0  0  0  0  0  0  0  0
    8.7330  -14.4794   21.0855 C   0  0  0  0  0  0  0  0  0  0  0  0
    8.2033  -14.0675   19.7823 C   0  0  0  0  0  0  0  0  0  0  0  0
    8.5996  -14.6428   18.5461 C   0  0  0  0  0  0  0  0  0  0  0  0
    7.9368  -14.0516   17.5491 N   0  0  0  0  0  0  0  0  0  0  0  0
    7.1295  -13.1197   18.0843 C   0  0  0  0  0  0  0  0  0  0  0  0
    7.3055  -13.1486   19.4073 N   0  0  0  0  0  0  0  0  0  0  0  0
   10.3763  -15.8777   22.3702 C   0  0  0  0  0  0  0  0  0  0  0  0
    9.6836  -16.2023   23.4112 O   0  0  0  0  0  0  0  0  0  0  0  0
   11.7621  -15.7855   22.6062 N   0  0  0  0  0  0  0  0  0  0  0  0
   12.3641  -16.2202   23.8727 C   0  0  1  0  0  0  0  0  0  0  0  0
   12.0312  -17.6849   24.0036 C   0  0  0  0  0  0  0  0  0  0  0  0
   12.6747  -18.3814   25.1503 C   0  0  0  0  0  0  0  0  0  0  0  0
   12.4199  -19.8291   25.0399 C   0  0  0  0  0  0  0  0  0  0  0  0
   13.0799  -20.5268   24.2496 O   0  0  0  0  0  0  0  0  0  0  0  0
   13.7993  -15.9535   23.9088 C   0  0  0  0  0  0  0  0  0  0  0  0
   14.5333  -15.4789   22.8282 O   0  0  0  0  0  0  0  0  0  0  0  0
   11.4457  -20.4159   25.8153 O   0  0  0  0  0  0  0  0  0  0  0  0
   14.4332  -16.1572   24.9699 O   0  0  0  0  0  0  0  0  0  0  0  0
  2  1  1  0
  3  2  1  0
  3  5  1  0
  4  3  2  0
  6  5  1  0
  6 13  1  0
  6  7  1  1
  8  7  1  0
  8 12  1  0
  9 10  1  0
  9  8  2  0
 10 11  1  0
 11 12  2  0
 13 14  2  0
 13 15  1  0
 15 16  1  0
 16 17  1  6
 16 21  1  0
 17 18  1  0
 18 19  1  0
 19 20  2  0
 21 22  1  0
 23 19  1  0
 24 21  2  0
M  END
$$$$
