GHE.pdb
     RDKit          3D

 24 24  0  0  1  0  0  0  0  0999 V2000
   10.7665  -16.1668   12.3590 N   0  0  0  0  0  0  0  0  0  0  0  0
   10.1353  -16.5917   13.5729 C   0  0  0  0  0  0  0  0  0  0  0  0
   10.0933  -15.5109   14.5892 C   0  0  0  0  0  0  0  0  0  0  0  0
    9.4782  -14.4488   14.3020 O   0  0  0  0  0  0  0  0  0  0  0  0
   10.7340  -15.7063   15.8246 N   0  0  0  0  0  0  0  0  0  0  0  0
   10.4444  -14.7707   16.9752 C   0  0  1  0  0  0  0  0  0  0  0  0
    8.9675  -14.8363   17.1837 C   0  0  0  0  0  0  0  0  0  0  0  0
    8.4149  -14.0653   18.3012 C   0  0  0  0  0  0  0  0  0  0  0  0
    9.1939  -13.2551   19.1692 C   0  0  0  0  0  0  0  0  0  0  0  0
    8.3982  -12.6875   20.0788 N   0  0  0  0  0  0  0  0  0  0  0  0
    7.1397  -13.0936   19.8387 C   0  0  0  0  0  0  0  0  0  0  0  0
    7.1758  -13.9083   18.7818 N   0  0  0  0  0  0  0  0  0  0  0  0
   11.2674  -15.3329   18.0615 C   0  0  0  0  0  0  0  0  0  0  0  0
   11.2650  -16.6160   18.2115 O   0  0  0  0  0  0  0  0  0  0  0  0
   12.0837  -14.6467   18.9819 N   0  0  0  0  0  0  0  0  0  0  0  0
   13.0232  -15.3524   19.8622 C   0  0  1  0  0  0  0  0  0  0  0  0
   14.3479  -14.6522   19.6937 C   0  0  0  0  0  0  0  0  0  0  0  0
   15.4749  -15.2311   20.4740 C   0  0  0  0  0  0  0  0  0  0  0  0
   16.7155  -14.5097   20.1373 C   0  0  0  0  0  0  0  0  0  0  0  0
   16.6804  -13.5001   19.4117 O   0  0  0  0  0  0  0  0  0  0  0  0
   12.5573  -15.3713   21.2460 C   0  0  0  0  0  0  0  0  0  0  0  0
   13.0524  -16.2239   22.2255 O   0  0  0  0  0  0  0  0  0  0  0  0
   17.9226  -14.9538   20.6274 O   0  0  0  0  0  0  0  0  0  0  0  0
   11.6540  -14.5782   21.5986 O   0  0  0  0  0  0  0  0  0  0  0  0
  2  1  1  0
  3  2  1  0
  3  5  1  0
  4  3  2  0
  6  5  1  0
  6 13  1  0
  6  7  1  1
  8  7  1  0
  8 12  1  0
  9 10  1  0
  9  8  2  0
 10 11  1  0
 11 12  2  0
 13 14  2  0
 13 15  1  0
 15 16  1  0
 16 17  1  1
 16 21  1  0
 17 18  1  0
 18 19  1  0
 19 20  2  0
 21 22  1  0
 23 19  1  0
 24 21  2  0
M  END
$$$$
