GHE.pdb
     RDKit          3D

 24 24  0  0  1  0  0  0  0  0999 V2000
   14.5496  -14.6060   15.2158 N   0  0  0  0  0  0  0  0  0  0  0  0
   13.4685  -15.3543   15.7848 C   0  0  0  0  0  0  0  0  0  0  0  0
   13.1145  -14.8788   17.1454 C   0  0  0  0  0  0  0  0  0  0  0  0
   13.8563  -14.0136   17.6842 O   0  0  0  0  0  0  0  0  0  0  0  0
   11.9761  -15.4037   17.7805 N   0  0  0  0  0  0  0  0  0  0  0  0
   11.5840  -14.9019   19.1507 C   0  0  1  0  0  0  0  0  0  0  0  0
   10.1540  -15.2931   19.3273 C   0  0  0  0  0  0  0  0  0  0  0  0
    9.1488  -14.2360   19.1844 C   0  0  0  0  0  0  0  0  0  0  0  0
    9.4592  -12.8549   19.0711 C   0  0  0  0  0  0  0  0  0  0  0  0
    8.3285  -12.1544   18.9549 N   0  0  0  0  0  0  0  0  0  0  0  0
    7.3005  -13.0196   18.9879 C   0  0  0  0  0  0  0  0  0  0  0  0
    7.8119  -14.2452   19.1243 N   0  0  0  0  0  0  0  0  0  0  0  0
   12.5463  -15.5882   20.0318 C   0  0  0  0  0  0  0  0  0  0  0  0
   12.8313  -16.8192   19.7632 O   0  0  0  0  0  0  0  0  0  0  0  0
   13.2219  -15.0722   21.1551 N   0  0  0  0  0  0  0  0  0  0  0  0
   14.1891  -15.8742   21.9147 C   0  0  1  0  0  0  0  0  0  0  0  0
   15.5054  -15.1481   21.7979 C   0  0  0  0  0  0  0  0  0  0  0  0
   16.6253  -15.7355   22.5821 C   0  0  0  0  0  0  0  0  0  0  0  0
   17.8441  -14.9384   22.3538 C   0  0  0  0  0  0  0  0  0  0  0  0
   18.4923  -15.0657   21.2999 O   0  0  0  0  0  0  0  0  0  0  0  0
   13.7627  -16.0682   23.2978 C   0  0  0  0  0  0  0  0  0  0  0  0
   12.6298  -15.4870   23.8550 O   0  0  0  0  0  0  0  0  0  0  0  0
   18.2705  -14.0463   23.3113 O   0  0  0  0  0  0  0  0  0  0  0  0
   14.4442  -16.8009   24.0513 O   0  0  0  0  0  0  0  0  0  0  0  0
  2  1  1  0
  3  2  1  0
  3  5  1  0
  4  3  2  0
  6  5  1  0
  6 13  1  0
  6  7  1  1
  8  7  1  0
  8 12  1  0
  9 10  1  0
  9  8  2  0
 10 11  1  0
 11 12  2  0
 13 14  2  0
 13 15  1  0
 15 16  1  0
 16 17  1  1
 16 21  1  0
 17 18  1  0
 18 19  1  0
 19 20  2  0
 21 22  1  0
 23 19  1  0
 24 21  2  0
M  END
$$$$
