GHE.pdb
     RDKit          3D

 24 24  0  0  1  0  0  0  0  0999 V2000
   12.2622  -17.9802   16.9472 N   0  0  0  0  0  0  0  0  0  0  0  0
   11.3777  -18.2998   18.0279 C   0  0  0  0  0  0  0  0  0  0  0  0
   11.3426  -17.2304   19.0565 C   0  0  0  0  0  0  0  0  0  0  0  0
   12.3681  -16.5119   19.2020 O   0  0  0  0  0  0  0  0  0  0  0  0
   10.1793  -17.0568   19.8256 N   0  0  0  0  0  0  0  0  0  0  0  0
   10.1632  -16.0371   20.9405 C   0  0  1  0  0  0  0  0  0  0  0  0
    8.7318  -15.6464   21.1063 C   0  0  0  0  0  0  0  0  0  0  0  0
    8.2110  -14.6156   20.2037 C   0  0  0  0  0  0  0  0  0  0  0  0
    9.0126  -13.8814   19.2899 C   0  0  0  0  0  0  0  0  0  0  0  0
    8.2433  -13.0234   18.6155 N   0  0  0  0  0  0  0  0  0  0  0  0
    6.9803  -13.1691   19.0515 C   0  0  0  0  0  0  0  0  0  0  0  0
    6.9872  -14.1172   19.9913 N   0  0  0  0  0  0  0  0  0  0  0  0
   10.7552  -16.7825   22.0663 C   0  0  0  0  0  0  0  0  0  0  0  0
   10.8365  -18.0671   21.9568 O   0  0  0  0  0  0  0  0  0  0  0  0
   11.2642  -16.2740   23.2774 N   0  0  0  0  0  0  0  0  0  0  0  0
   12.1726  -17.0552   24.1260 C   0  0  1  0  0  0  0  0  0  0  0  0
   13.5375  -16.9187   23.4999 C   0  0  0  0  0  0  0  0  0  0  0  0
   14.6477  -17.5627   24.2529 C   0  0  0  0  0  0  0  0  0  0  0  0
   15.9265  -17.2461   23.5914 C   0  0  0  0  0  0  0  0  0  0  0  0
   16.3286  -16.0709   23.5266 O   0  0  0  0  0  0  0  0  0  0  0  0
   12.1325  -16.6084   25.5156 C   0  0  0  0  0  0  0  0  0  0  0  0
   12.6848  -17.3126   26.5790 O   0  0  0  0  0  0  0  0  0  0  0  0
   16.6830  -18.2555   23.0408 O   0  0  0  0  0  0  0  0  0  0  0  0
   11.5702  -15.5242   25.7939 O   0  0  0  0  0  0  0  0  0  0  0  0
  2  1  1  0
  3  2  1  0
  3  5  1  0
  4  3  2  0
  6  5  1  0
  6 13  1  0
  6  7  1  1
  8  7  1  0
  8 12  1  0
  9 10  1  0
  9  8  2  0
 10 11  1  0
 11 12  2  0
 13 14  2  0
 13 15  1  0
 15 16  1  0
 16 17  1  6
 16 21  1  0
 17 18  1  0
 18 19  1  0
 19 20  2  0
 21 22  1  0
 23 19  1  0
 24 21  2  0
M  END
$$$$
