GHE.pdb
     RDKit          3D

 24 24  0  0  1  0  0  0  0  0999 V2000
   10.5046  -17.2248   20.3629 N   0  0  0  0  0  0  0  0  0  0  0  0
    9.9056  -17.8713   21.4924 C   0  0  0  0  0  0  0  0  0  0  0  0
   10.4897  -17.4088   22.7761 C   0  0  0  0  0  0  0  0  0  0  0  0
   11.7072  -17.6503   22.9961 O   0  0  0  0  0  0  0  0  0  0  0  0
    9.6741  -16.7245   23.6933 N   0  0  0  0  0  0  0  0  0  0  0  0
   10.2577  -16.2434   25.0014 C   0  0  1  0  0  0  0  0  0  0  0  0
    9.3333  -15.1751   25.4844 C   0  0  0  0  0  0  0  0  0  0  0  0
    9.5591  -14.6563   26.8365 C   0  0  0  0  0  0  0  0  0  0  0  0
   10.5317  -15.1726   27.7331 C   0  0  0  0  0  0  0  0  0  0  0  0
   10.4877  -14.4868   28.8779 N   0  0  0  0  0  0  0  0  0  0  0  0
    9.5308  -13.5501   28.7626 C   0  0  0  0  0  0  0  0  0  0  0  0
    8.9958  -13.6708   27.5455 N   0  0  0  0  0  0  0  0  0  0  0  0
   10.2881  -17.4746   25.8118 C   0  0  0  0  0  0  0  0  0  0  0  0
    9.2179  -18.1977   25.8424 O   0  0  0  0  0  0  0  0  0  0  0  0
   11.3538  -17.9902   26.5752 N   0  0  0  0  0  0  0  0  0  0  0  0
   11.2027  -19.1903   27.4073 C   0  0  1  0  0  0  0  0  0  0  0  0
   12.3520  -20.0933   27.0373 C   0  0  0  0  0  0  0  0  0  0  0  0
   12.3845  -20.5277   25.6145 C   0  0  0  0  0  0  0  0  0  0  0  0
   13.5289  -21.4348   25.4130 C   0  0  0  0  0  0  0  0  0  0  0  0
   13.3466  -22.6564   25.2664 O   0  0  0  0  0  0  0  0  0  0  0  0
   11.1677  -18.8611   28.8296 C   0  0  0  0  0  0  0  0  0  0  0  0
   10.5523  -19.6452   29.7981 O   0  0  0  0  0  0  0  0  0  0  0  0
   14.8090  -20.9298   25.3866 O   0  0  0  0  0  0  0  0  0  0  0  0
   11.7205  -17.8101   29.2283 O   0  0  0  0  0  0  0  0  0  0  0  0
  2  1  1  0
  3  2  1  0
  3  5  1  0
  4  3  2  0
  6  5  1  0
  6 13  1  0
  6  7  1  1
  8  7  1  0
  8 12  1  0
  9 10  1  0
  9  8  2  0
 10 11  1  0
 11 12  2  0
 13 14  2  0
 13 15  1  0
 15 16  1  0
 16 17  1  1
 16 21  1  0
 17 18  1  0
 18 19  1  0
 19 20  2  0
 21 22  1  0
 23 19  1  0
 24 21  2  0
M  END
$$$$
