GHE.pdb
     RDKit          3D

 24 24  0  0  1  0  0  0  0  0999 V2000
    4.4645  -21.1950   20.1609 N   0  0  0  0  0  0  0  0  0  0  0  0
    5.2189  -20.0360   20.5352 C   0  0  0  0  0  0  0  0  0  0  0  0
    6.6395  -20.1345   20.1171 C   0  0  0  0  0  0  0  0  0  0  0  0
    7.0302  -21.2102   19.5886 O   0  0  0  0  0  0  0  0  0  0  0  0
    7.4922  -19.0365   20.3223 N   0  0  0  0  0  0  0  0  0  0  0  0
    8.9515  -19.1399   19.9441 C   0  0  1  0  0  0  0  0  0  0  0  0
    9.1025  -18.3264   18.7014 C   0  0  0  0  0  0  0  0  0  0  0  0
    8.6462  -18.9311   17.4465 C   0  0  0  0  0  0  0  0  0  0  0  0
    7.4664  -18.5405   16.7596 C   0  0  0  0  0  0  0  0  0  0  0  0
    7.3314  -19.2788   15.6552 N   0  0  0  0  0  0  0  0  0  0  0  0
    8.3703  -20.1293   15.5965 C   0  0  0  0  0  0  0  0  0  0  0  0
    9.1343  -19.9040   16.6678 N   0  0  0  0  0  0  0  0  0  0  0  0
    9.6317  -18.6098   21.1398 C   0  0  0  0  0  0  0  0  0  0  0  0
    9.1784  -17.5126   21.6493 O   0  0  0  0  0  0  0  0  0  0  0  0
   10.7356  -19.1513   21.8273 N   0  0  0  0  0  0  0  0  0  0  0  0
   11.3337  -18.4782   22.9868 C   0  0  1  0  0  0  0  0  0  0  0  0
   11.5445  -19.5541   24.0219 C   0  0  0  0  0  0  0  0  0  0  0  0
   12.2747  -19.1232   25.2447 C   0  0  0  0  0  0  0  0  0  0  0  0
   12.4364  -20.2807   26.1431 C   0  0  0  0  0  0  0  0  0  0  0  0
   13.0982  -21.2704   25.7830 O   0  0  0  0  0  0  0  0  0  0  0  0
   12.5643  -17.7777   22.6299 C   0  0  0  0  0  0  0  0  0  0  0  0
   13.1539  -16.7883   23.4078 O   0  0  0  0  0  0  0  0  0  0  0  0
   11.8525  -20.2695   27.3894 O   0  0  0  0  0  0  0  0  0  0  0  0
   13.1455  -18.0686   21.5590 O   0  0  0  0  0  0  0  0  0  0  0  0
  2  1  1  0
  3  2  1  0
  3  5  1  0
  4  3  2  0
  6  5  1  0
  6 13  1  0
  6  7  1  6
  8  7  1  0
  8 12  1  0
  9 10  1  0
  9  8  2  0
 10 11  1  0
 11 12  2  0
 13 14  2  0
 13 15  1  0
 15 16  1  0
 16 17  1  1
 16 21  1  0
 17 18  1  0
 18 19  1  0
 19 20  2  0
 21 22  1  0
 23 19  1  0
 24 21  2  0
M  END
$$$$
