HAA.pdb
     RDKit          3D

 21 21  0  0  1  0  0  0  0  0999 V2000
    6.3660  -15.7983   20.6952 N   0  0  0  0  0  0  0  0  0  0  0  0
    7.4388  -15.2235   21.4477 C   0  0  1  0  0  0  0  0  0  0  0  0
    7.6178  -13.7672   21.0407 C   0  0  0  0  0  0  0  0  0  0  0  0
    8.0412  -13.7530   19.6155 C   0  0  0  0  0  0  0  0  0  0  0  0
    7.4482  -12.9985   18.6356 C   0  0  0  0  0  0  0  0  0  0  0  0
    8.1084  -13.2569   17.4920 N   0  0  0  0  0  0  0  0  0  0  0  0
    9.0742  -14.1439   17.7752 C   0  0  0  0  0  0  0  0  0  0  0  0
    9.0462  -14.4583   19.0736 N   0  0  0  0  0  0  0  0  0  0  0  0
    7.2653  -15.3710   22.9123 C   0  0  0  0  0  0  0  0  0  0  0  0
    6.4512  -14.6032   23.4869 O   0  0  0  0  0  0  0  0  0  0  0  0
    7.4523  -17.9613   25.4524 C   0  0  0  0  0  0  0  0  0  0  0  0
    7.6753  -16.5035   25.1160 C   0  0  2  0  0  0  0  0  0  0  0  0
    7.9491  -16.3118   23.7060 N   0  0  0  0  0  0  0  0  0  0  0  0
    8.7681  -15.9147   25.9374 C   0  0  0  0  0  0  0  0  0  0  0  0
    9.9636  -15.9406   25.5127 O   0  0  0  0  0  0  0  0  0  0  0  0
    8.8402  -13.7217   28.9448 C   0  0  0  0  0  0  0  0  0  0  0  0
    9.5103  -14.6618   27.9659 C   0  0  2  0  0  0  0  0  0  0  0  0
    8.5058  -15.3252   27.1833 N   0  0  0  0  0  0  0  0  0  0  0  0
   10.2688  -15.6555   28.7801 C   0  0  0  0  0  0  0  0  0  0  0  0
   11.3898  -15.3253   29.5108 O   0  0  0  0  0  0  0  0  0  0  0  0
    9.8805  -16.8518   28.8112 O   0  0  0  0  0  0  0  0  0  0  0  0
  2  1  1  6
  2  3  1  0
  3  4  1  0
  4  8  1  0
  5  4  2  0
  5  6  1  0
  6  7  1  0
  8  7  2  0
  9 13  1  0
  9  2  1  0
 10  9  2  0
 12 13  1  0
 12 11  1  6
 14 12  1  0
 14 18  1  0
 15 14  2  0
 17 18  1  0
 17 16  1  1
 19 17  1  0
 20 19  1  0
 21 19  2  0
M  END
$$$$
