HAA.pdb
     RDKit          3D

 21 21  0  0  1  0  0  0  0  0999 V2000
   11.3379  -16.6413   19.8483 N   0  0  0  0  0  0  0  0  0  0  0  0
   11.7269  -15.9019   21.0100 C   0  0  1  0  0  0  0  0  0  0  0  0
   11.9506  -14.4445   20.6295 C   0  0  0  0  0  0  0  0  0  0  0  0
   13.1812  -14.3864   19.7973 C   0  0  0  0  0  0  0  0  0  0  0  0
   14.4561  -14.5253   20.2835 C   0  0  0  0  0  0  0  0  0  0  0  0
   15.2883  -14.4139   19.2321 N   0  0  0  0  0  0  0  0  0  0  0  0
   14.5347  -14.2129   18.1405 C   0  0  0  0  0  0  0  0  0  0  0  0
   13.2400  -14.1935   18.4704 N   0  0  0  0  0  0  0  0  0  0  0  0
   10.7702  -16.0396   22.1336 C   0  0  0  0  0  0  0  0  0  0  0  0
    9.5961  -15.6231   21.9588 O   0  0  0  0  0  0  0  0  0  0  0  0
    9.8808  -18.1571   24.8537 C   0  0  0  0  0  0  0  0  0  0  0  0
   10.1249  -16.7159   24.4645 C   0  0  2  0  0  0  0  0  0  0  0  0
   11.0844  -16.6046   23.3845 N   0  0  0  0  0  0  0  0  0  0  0  0
   10.5657  -15.9026   25.6307 C   0  0  0  0  0  0  0  0  0  0  0  0
   11.8006  -15.8099   25.9072 O   0  0  0  0  0  0  0  0  0  0  0  0
    8.8248  -13.5206   27.9255 C   0  0  0  0  0  0  0  0  0  0  0  0
   10.0221  -14.3461   27.5061 C   0  0  2  0  0  0  0  0  0  0  0  0
    9.6390  -15.2289   26.4404 N   0  0  0  0  0  0  0  0  0  0  0  0
   10.4378  -15.1334   28.7032 C   0  0  0  0  0  0  0  0  0  0  0  0
   11.1483  -14.5860   29.7497 O   0  0  0  0  0  0  0  0  0  0  0  0
   10.1339  -16.3521   28.7753 O   0  0  0  0  0  0  0  0  0  0  0  0
  2  1  1  6
  2  3  1  0
  3  4  1  0
  4  8  1  0
  5  4  2  0
  5  6  1  0
  6  7  1  0
  8  7  2  0
  9 13  1  0
  9  2  1  0
 10  9  2  0
 12 13  1  0
 12 11  1  1
 14 12  1  0
 14 18  1  0
 15 14  2  0
 17 18  1  0
 17 16  1  1
 19 17  1  0
 20 19  1  0
 21 19  2  0
M  END
$$$$
