HAA.pdb
     RDKit          3D

 21 21  0  0  1  0  0  0  0  0999 V2000
    7.2401  -18.5947   15.4434 N   0  0  0  0  0  0  0  0  0  0  0  0
    8.2669  -17.8528   16.1087 C   0  0  1  0  0  0  0  0  0  0  0  0
    8.3388  -16.4503   15.5201 C   0  0  0  0  0  0  0  0  0  0  0  0
    8.9019  -16.5719   14.1495 C   0  0  0  0  0  0  0  0  0  0  0  0
    8.3609  -15.9892   13.0319 C   0  0  0  0  0  0  0  0  0  0  0  0
    9.1491  -16.3283   11.9955 N   0  0  0  0  0  0  0  0  0  0  0  0
   10.1394  -17.0954   12.4757 C   0  0  0  0  0  0  0  0  0  0  0  0
   10.0020  -17.2543   13.7954 N   0  0  0  0  0  0  0  0  0  0  0  0
    8.1033  -17.8266   17.5816 C   0  0  0  0  0  0  0  0  0  0  0  0
    7.0130  -17.4015   18.0433 O   0  0  0  0  0  0  0  0  0  0  0  0
    9.2066  -19.6932   20.4772 C   0  0  0  0  0  0  0  0  0  0  0  0
    8.8445  -18.3312   19.9274 C   0  0  2  0  0  0  0  0  0  0  0  0
    9.0843  -18.2448   18.5010 N   0  0  0  0  0  0  0  0  0  0  0  0
    9.5718  -17.2445   20.6385 C   0  0  0  0  0  0  0  0  0  0  0  0
   10.7136  -16.8730   20.2281 O   0  0  0  0  0  0  0  0  0  0  0  0
    8.6947  -14.9424   23.4626 C   0  0  0  0  0  0  0  0  0  0  0  0
    9.6486  -15.5111   22.4343 C   0  0  2  0  0  0  0  0  0  0  0  0
    9.0198  -16.6141   21.7638 N   0  0  0  0  0  0  0  0  0  0  0  0
   10.8514  -15.9804   23.1818 C   0  0  0  0  0  0  0  0  0  0  0  0
   11.8354  -15.1255   23.6297 O   0  0  0  0  0  0  0  0  0  0  0  0
   10.9879  -17.2078   23.4216 O   0  0  0  0  0  0  0  0  0  0  0  0
  2  1  1  6
  2  3  1  0
  3  4  1  0
  4  8  1  0
  5  4  2  0
  5  6  1  0
  6  7  1  0
  8  7  2  0
  9 13  1  0
  9  2  1  0
 10  9  2  0
 12 13  1  0
 12 11  1  1
 14 12  1  0
 14 18  1  0
 15 14  2  0
 17 18  1  0
 17 16  1  1
 19 17  1  0
 20 19  1  0
 21 19  2  0
M  END
$$$$
