HAA.pdb
     RDKit          3D

 21 21  0  0  1  0  0  0  0  0999 V2000
   12.1639  -16.0478   18.0496 N   0  0  0  0  0  0  0  0  0  0  0  0
   12.4873  -15.7534   19.4120 C   0  0  1  0  0  0  0  0  0  0  0  0
   12.9390  -14.3034   19.5219 C   0  0  0  0  0  0  0  0  0  0  0  0
   14.3544  -14.2435   19.0708 C   0  0  0  0  0  0  0  0  0  0  0  0
   15.3933  -14.8993   19.6806 C   0  0  0  0  0  0  0  0  0  0  0  0
   16.5054  -14.5988   18.9853 N   0  0  0  0  0  0  0  0  0  0  0  0
   16.1463  -13.7831   17.9826 C   0  0  0  0  0  0  0  0  0  0  0  0
   14.8302  -13.5555   18.0213 N   0  0  0  0  0  0  0  0  0  0  0  0
   11.3825  -16.0611   20.3510 C   0  0  0  0  0  0  0  0  0  0  0  0
   10.2699  -15.5101   20.1484 O   0  0  0  0  0  0  0  0  0  0  0  0
   10.3923  -18.6883   22.7629 C   0  0  0  0  0  0  0  0  0  0  0  0
   10.3781  -17.2395   22.3282 C   0  0  2  0  0  0  0  0  0  0  0  0
   11.4918  -16.9281   21.4550 N   0  0  0  0  0  0  0  0  0  0  0  0
   10.3677  -16.3187   23.4976 C   0  0  0  0  0  0  0  0  0  0  0  0
   11.4629  -15.9230   24.0016 O   0  0  0  0  0  0  0  0  0  0  0  0
    7.6913  -14.4626   25.3396 C   0  0  0  0  0  0  0  0  0  0  0  0
    9.1050  -14.9812   25.1865 C   0  0  2  0  0  0  0  0  0  0  0  0
    9.1633  -15.8726   24.0624 N   0  0  0  0  0  0  0  0  0  0  0  0
    9.4284  -15.7158   26.4440 C   0  0  0  0  0  0  0  0  0  0  0  0
    9.6569  -17.0746   26.4798 O   0  0  0  0  0  0  0  0  0  0  0  0
    9.4993  -15.0811   27.5279 O   0  0  0  0  0  0  0  0  0  0  0  0
  2  1  1  6
  2  3  1  0
  3  4  1  0
  4  8  1  0
  5  4  2  0
  5  6  1  0
  6  7  1  0
  8  7  2  0
  9 13  1  0
  9  2  1  0
 10  9  2  0
 12 13  1  0
 12 11  1  1
 14 12  1  0
 14 18  1  0
 15 14  2  0
 17 18  1  0
 17 16  1  1
 19 17  1  0
 20 19  1  0
 21 19  2  0
M  END
$$$$
