HAA.pdb
     RDKit          3D

 21 21  0  0  1  0  0  0  0  0999 V2000
   10.8738  -16.5072   20.3055 N   0  0  0  0  0  0  0  0  0  0  0  0
   11.3128  -17.0102   21.5711 C   0  0  1  0  0  0  0  0  0  0  0  0
   12.7988  -16.7241   21.7404 C   0  0  0  0  0  0  0  0  0  0  0  0
   13.5353  -17.6556   20.8458 C   0  0  0  0  0  0  0  0  0  0  0  0
   14.2265  -17.2733   19.7245 C   0  0  0  0  0  0  0  0  0  0  0  0
   14.7507  -18.3913   19.1900 N   0  0  0  0  0  0  0  0  0  0  0  0
   14.3850  -19.4207   19.9687 C   0  0  0  0  0  0  0  0  0  0  0  0
   13.6392  -18.9860   20.9886 N   0  0  0  0  0  0  0  0  0  0  0  0
   10.5169  -16.4931   22.7095 C   0  0  0  0  0  0  0  0  0  0  0  0
   10.2609  -15.2617   22.7350 O   0  0  0  0  0  0  0  0  0  0  0  0
    8.2200  -17.8013   25.3425 C   0  0  0  0  0  0  0  0  0  0  0  0
    9.1861  -16.7600   24.8225 C   0  0  2  0  0  0  0  0  0  0  0  0
   10.0268  -17.2851   23.7655 N   0  0  0  0  0  0  0  0  0  0  0  0
   10.0250  -16.1989   25.9167 C   0  0  0  0  0  0  0  0  0  0  0  0
   11.1846  -16.6681   26.1295 O   0  0  0  0  0  0  0  0  0  0  0  0
    9.6847  -13.2869   28.2406 C   0  0  0  0  0  0  0  0  0  0  0  0
   10.3353  -14.5770   27.7899 C   0  0  2  0  0  0  0  0  0  0  0  0
    9.5597  -15.1525   26.7273 N   0  0  0  0  0  0  0  0  0  0  0  0
   10.3437  -15.4864   28.9725 C   0  0  0  0  0  0  0  0  0  0  0  0
   11.2106  -15.3285   30.0323 O   0  0  0  0  0  0  0  0  0  0  0  0
    9.5294  -16.4442   29.0194 O   0  0  0  0  0  0  0  0  0  0  0  0
  2  1  1  6
  2  3  1  0
  3  4  1  0
  4  8  1  0
  5  4  2  0
  5  6  1  0
  6  7  1  0
  8  7  2  0
  9 13  1  0
  9  2  1  0
 10  9  2  0
 12 13  1  0
 12 11  1  1
 14 12  1  0
 14 18  1  0
 15 14  2  0
 17 18  1  0
 17 16  1  1
 19 17  1  0
 20 19  1  0
 21 19  2  0
M  END
$$$$
