HAA.pdb
     RDKit          3D

 21 21  0  0  1  0  0  0  0  0999 V2000
   11.2437  -15.3241   16.3041 N   0  0  0  0  0  0  0  0  0  0  0  0
   10.0197  -15.5761   17.0011 C   0  0  1  0  0  0  0  0  0  0  0  0
    9.9116  -17.0632   17.3104 C   0  0  0  0  0  0  0  0  0  0  0  0
    9.7349  -17.7744   16.0169 C   0  0  0  0  0  0  0  0  0  0  0  0
    8.6594  -17.6129   15.1812 C   0  0  0  0  0  0  0  0  0  0  0  0
    8.8633  -18.4193   14.1236 N   0  0  0  0  0  0  0  0  0  0  0  0
   10.0312  -19.0505   14.3167 C   0  0  0  0  0  0  0  0  0  0  0  0
   10.5783  -18.6658   15.4735 N   0  0  0  0  0  0  0  0  0  0  0  0
    9.8626  -14.7452   18.2184 C   0  0  0  0  0  0  0  0  0  0  0  0
   10.8877  -14.5221   18.9127 O   0  0  0  0  0  0  0  0  0  0  0  0
    7.2085  -12.5888   19.8349 C   0  0  0  0  0  0  0  0  0  0  0  0
    8.5447  -13.2963   19.7902 C   0  0  2  0  0  0  0  0  0  0  0  0
    8.6446  -14.1878   18.6522 N   0  0  0  0  0  0  0  0  0  0  0  0
    8.8112  -14.0400   21.0518 C   0  0  0  0  0  0  0  0  0  0  0  0
    8.8114  -13.4246   22.1614 O   0  0  0  0  0  0  0  0  0  0  0  0
    9.5287  -17.6310   21.8694 C   0  0  0  0  0  0  0  0  0  0  0  0
    9.3749  -16.1688   22.2289 C   0  0  2  0  0  0  0  0  0  0  0  0
    9.0648  -15.4199   21.0438 N   0  0  0  0  0  0  0  0  0  0  0  0
   10.6851  -15.7273   22.7893 C   0  0  0  0  0  0  0  0  0  0  0  0
   11.2254  -16.2606   23.9397 O   0  0  0  0  0  0  0  0  0  0  0  0
   11.3376  -14.8293   22.1972 O   0  0  0  0  0  0  0  0  0  0  0  0
  2  1  1  1
  2  3  1  0
  3  4  1  0
  4  8  1  0
  5  4  2  0
  5  6  1  0
  6  7  1  0
  8  7  2  0
  9 13  1  0
  9  2  1  0
 10  9  2  0
 12 13  1  0
 12 11  1  1
 14 12  1  0
 14 18  1  0
 15 14  2  0
 17 18  1  0
 17 16  1  6
 19 17  1  0
 20 19  1  0
 21 19  2  0
M  END
$$$$
