EMC.pdb
     RDKit          3D

 24 23  0  0  1  0  0  0  0  0999 V2000
   17.7428  -11.4704  -16.1917 N   0  0  0  0  0  0  0  0  0  0  0  0
   16.6971  -11.0375  -15.3218 C   0  0  1  0  0  0  0  0  0  0  0  0
   15.7237  -12.0816  -14.9540 C   0  0  0  0  0  0  0  0  0  0  0  0
   14.9506  -12.5969  -16.1136 C   0  0  0  0  0  0  0  0  0  0  0  0
   14.0521  -13.7125  -15.9144 C   0  0  0  0  0  0  0  0  0  0  0  0
   12.8647  -13.7534  -16.2484 O   0  0  0  0  0  0  0  0  0  0  0  0
   17.3087  -10.3650  -14.1288 C   0  0  0  0  0  0  0  0  0  0  0  0
   17.3228  -10.9331  -13.0031 O   0  0  0  0  0  0  0  0  0  0  0  0
   14.5736  -14.8529  -15.2852 O   0  0  0  0  0  0  0  0  0  0  0  0
   23.1952   -5.5886  -11.9294 C   0  0  0  0  0  0  0  0  0  0  0  0
   22.2069   -6.3694  -13.2359 S   0  0  0  0  0  0  0  0  0  0  0  0
   20.6713   -7.0828  -12.5033 C   0  0  0  0  0  0  0  0  0  0  0  0
   19.9157   -7.7794  -13.6053 C   0  0  0  0  0  0  0  0  0  0  0  0
   18.6243   -8.4046  -13.1606 C   0  0  2  0  0  0  0  0  0  0  0  0
   17.8930   -9.0873  -14.1787 N   0  0  0  0  0  0  0  0  0  0  0  0
   17.7298   -7.3805  -12.5975 C   0  0  0  0  0  0  0  0  0  0  0  0
   16.9281   -6.8095  -13.3622 O   0  0  0  0  0  0  0  0  0  0  0  0
   17.7594   -7.0345  -11.2223 N   0  0  0  0  0  0  0  0  0  0  0  0
   16.8834   -6.0340  -10.6933 C   0  0  1  0  0  0  0  0  0  0  0  0
   15.4582   -6.4542  -10.9275 C   0  0  0  0  0  0  0  0  0  0  0  0
   14.2580   -5.4246  -10.0545 S   0  0  0  0  0  0  0  0  0  0  0  0
   17.1602   -5.7064   -9.2643 C   0  0  0  0  0  0  0  0  0  0  0  0
   16.6843   -4.6003   -8.6042 O   0  0  0  0  0  0  0  0  0  0  0  0
   17.8845   -6.5051   -8.6138 O   0  0  0  0  0  0  0  0  0  0  0  0
  2  1  1  1
  2  7  1  0
  3  4  1  0
  3  2  1  0
  4  5  1  0
  5  6  2  0
  7  8  2  0
  9  5  1  0
 10 11  1  0
 11 12  1  0
 12 13  1  0
 14 13  1  6
 14 16  1  0
 15  7  1  0
 15 14  1  0
 16 18  1  0
 16 17  2  0
 18 19  1  0
 19 22  1  0
 19 20  1  1
 21 20  1  0
 22 24  2  0
 22 23  1  0
M  END
$$$$
