EMC.pdb
     RDKit          3D

 24 23  0  0  1  0  0  0  0  0999 V2000
   25.3426  -13.6785  -18.4381 N   0  0  0  0  0  0  0  0  0  0  0  0
   24.5503  -12.5765  -18.8805 C   0  0  1  0  0  0  0  0  0  0  0  0
   23.1188  -12.6653  -18.5403 C   0  0  0  0  0  0  0  0  0  0  0  0
   22.4326  -13.8135  -19.1872 C   0  0  0  0  0  0  0  0  0  0  0  0
   22.1280  -13.7406  -20.5990 C   0  0  0  0  0  0  0  0  0  0  0  0
   21.5665  -12.8016  -21.1702 O   0  0  0  0  0  0  0  0  0  0  0  0
   25.1846  -11.3037  -18.4039 C   0  0  0  0  0  0  0  0  0  0  0  0
   24.5251  -10.4652  -17.7314 O   0  0  0  0  0  0  0  0  0  0  0  0
   22.5030  -14.8337  -21.3945 O   0  0  0  0  0  0  0  0  0  0  0  0
   31.7450  -10.6153  -17.9502 C   0  0  0  0  0  0  0  0  0  0  0  0
   31.0868   -9.4272  -16.7467 S   0  0  0  0  0  0  0  0  0  0  0  0
   29.4023   -8.8882  -17.2715 C   0  0  0  0  0  0  0  0  0  0  0  0
   28.6716  -10.0997  -17.7903 C   0  0  0  0  0  0  0  0  0  0  0  0
   27.2561   -9.8261  -18.2115 C   0  0  2  0  0  0  0  0  0  0  0  0
   26.5230  -10.9631  -18.6667 N   0  0  0  0  0  0  0  0  0  0  0  0
   27.2304   -8.8315  -19.2961 C   0  0  0  0  0  0  0  0  0  0  0  0
   27.4498   -9.2192  -20.4602 O   0  0  0  0  0  0  0  0  0  0  0  0
   26.9644   -7.4605  -19.0488 N   0  0  0  0  0  0  0  0  0  0  0  0
   27.0001   -6.4983  -20.1077 C   0  0  1  0  0  0  0  0  0  0  0  0
   25.7142   -5.7179  -20.1068 C   0  0  0  0  0  0  0  0  0  0  0  0
   24.2446   -6.7640  -20.2009 S   0  0  0  0  0  0  0  0  0  0  0  0
   28.2064   -5.6215  -20.0649 C   0  0  0  0  0  0  0  0  0  0  0  0
   28.6041   -4.7806  -21.0749 O   0  0  0  0  0  0  0  0  0  0  0  0
   28.9132   -5.6544  -19.0232 O   0  0  0  0  0  0  0  0  0  0  0  0
  2  1  1  1
  2  7  1  0
  3  4  1  0
  3  2  1  0
  4  5  1  0
  5  6  2  0
  7  8  2  0
  9  5  1  0
 10 11  1  0
 11 12  1  0
 12 13  1  0
 14 13  1  6
 14 16  1  0
 15  7  1  0
 15 14  1  0
 16 18  1  0
 16 17  2  0
 18 19  1  0
 19 22  1  0
 19 20  1  1
 21 20  1  0
 22 24  2  0
 22 23  1  0
M  END
$$$$
