EMC.pdb
     RDKit          3D

 24 23  0  0  1  0  0  0  0  0999 V2000
   18.1519  -10.4293  -13.3390 N   0  0  0  0  0  0  0  0  0  0  0  0
   18.3500   -9.3585  -12.4161 C   0  0  1  0  0  0  0  0  0  0  0  0
   19.1673   -8.2428  -12.9261 C   0  0  0  0  0  0  0  0  0  0  0  0
   20.5820   -8.6203  -13.1792 C   0  0  0  0  0  0  0  0  0  0  0  0
   21.5179   -7.5940  -13.5817 C   0  0  0  0  0  0  0  0  0  0  0  0
   22.0477   -7.4935  -14.6918 O   0  0  0  0  0  0  0  0  0  0  0  0
   17.0143   -8.9134  -11.8988 C   0  0  0  0  0  0  0  0  0  0  0  0
   16.0065   -8.8795  -12.6562 O   0  0  0  0  0  0  0  0  0  0  0  0
   21.8565   -6.6232  -12.6271 O   0  0  0  0  0  0  0  0  0  0  0  0
   11.3114   -8.5621   -6.6548 C   0  0  0  0  0  0  0  0  0  0  0  0
   12.7683   -9.3358   -7.4111 S   0  0  0  0  0  0  0  0  0  0  0  0
   13.6032   -8.1221   -8.5218 C   0  0  0  0  0  0  0  0  0  0  0  0
   14.8527   -8.7719   -9.0579 C   0  0  0  0  0  0  0  0  0  0  0  0
   15.6349   -7.9057  -10.0033 C   0  0  2  0  0  0  0  0  0  0  0  0
   16.7966   -8.5120  -10.5692 N   0  0  0  0  0  0  0  0  0  0  0  0
   16.0753   -6.6772   -9.3229 C   0  0  0  0  0  0  0  0  0  0  0  0
   17.2366   -6.6339   -8.8722 O   0  0  0  0  0  0  0  0  0  0  0  0
   15.2190   -5.5567   -9.1717 N   0  0  0  0  0  0  0  0  0  0  0  0
   15.7143   -4.3106   -8.6715 C   0  0  1  0  0  0  0  0  0  0  0  0
   16.8432   -3.8423   -9.5483 C   0  0  0  0  0  0  0  0  0  0  0  0
   17.4502   -2.1978   -9.1128 S   0  0  0  0  0  0  0  0  0  0  0  0
   14.6491   -3.2795   -8.5036 C   0  0  0  0  0  0  0  0  0  0  0  0
   13.3562   -3.4042   -8.9490 O   0  0  0  0  0  0  0  0  0  0  0  0
   14.9588   -2.2143   -7.9075 O   0  0  0  0  0  0  0  0  0  0  0  0
  2  1  1  6
  2  7  1  0
  3  4  1  0
  3  2  1  0
  4  5  1  0
  5  6  2  0
  7  8  2  0
  9  5  1  0
 10 11  1  0
 11 12  1  0
 12 13  1  0
 14 13  1  1
 14 16  1  0
 15  7  1  0
 15 14  1  0
 16 18  1  0
 16 17  2  0
 18 19  1  0
 19 22  1  0
 19 20  1  6
 21 20  1  0
 22 24  2  0
 22 23  1  0
M  END
$$$$
