EMC.pdb
     RDKit          3D

 24 23  0  0  1  0  0  0  0  0999 V2000
   26.3743  -31.7051   -8.3592 N   0  0  0  0  0  0  0  0  0  0  0  0
   25.8585  -33.0350   -8.3032 C   0  0  1  0  0  0  0  0  0  0  0  0
   25.6806  -33.6873   -9.6131 C   0  0  0  0  0  0  0  0  0  0  0  0
   24.6811  -33.0061  -10.4762 C   0  0  0  0  0  0  0  0  0  0  0  0
   23.9853  -33.7773  -11.4824 C   0  0  0  0  0  0  0  0  0  0  0  0
   23.2001  -33.3290  -12.3224 O   0  0  0  0  0  0  0  0  0  0  0  0
   26.7024  -33.8410   -7.3609 C   0  0  0  0  0  0  0  0  0  0  0  0
   26.4233  -35.0454   -7.1122 O   0  0  0  0  0  0  0  0  0  0  0  0
   24.2216  -35.1600  -11.5093 O   0  0  0  0  0  0  0  0  0  0  0  0
   32.8016  -32.1030   -6.1664 C   0  0  0  0  0  0  0  0  0  0  0  0
   32.8867  -33.8450   -5.6646 S   0  0  0  0  0  0  0  0  0  0  0  0
   31.1882  -34.4627   -5.2941 C   0  0  0  0  0  0  0  0  0  0  0  0
   30.2156  -33.6588   -6.1179 C   0  0  0  0  0  0  0  0  0  0  0  0
   28.7754  -34.0145   -5.8830 C   0  0  2  0  0  0  0  0  0  0  0  0
   27.8335  -33.3250   -6.7044 N   0  0  0  0  0  0  0  0  0  0  0  0
   28.4064  -33.7479   -4.4834 C   0  0  0  0  0  0  0  0  0  0  0  0
   28.3484  -32.5628   -4.1019 O   0  0  0  0  0  0  0  0  0  0  0  0
   28.1188  -34.7960   -3.5721 N   0  0  0  0  0  0  0  0  0  0  0  0
   27.7830  -34.5181   -2.2088 C   0  0  1  0  0  0  0  0  0  0  0  0
   26.2859  -34.4828   -2.0683 C   0  0  0  0  0  0  0  0  0  0  0  0
   25.7348  -34.2151   -0.3691 S   0  0  0  0  0  0  0  0  0  0  0  0
   28.4308  -35.4517   -1.2420 C   0  0  0  0  0  0  0  0  0  0  0  0
   28.7941  -36.7461   -1.5212 O   0  0  0  0  0  0  0  0  0  0  0  0
   28.6627  -35.0198   -0.0821 O   0  0  0  0  0  0  0  0  0  0  0  0
  2  1  1  6
  2  7  1  0
  3  4  1  0
  3  2  1  0
  4  5  1  0
  5  6  2  0
  7  8  2  0
  9  5  1  0
 10 11  1  0
 11 12  1  0
 12 13  1  0
 14 13  1  1
 14 16  1  0
 15  7  1  0
 15 14  1  0
 16 18  1  0
 16 17  2  0
 18 19  1  0
 19 22  1  0
 19 20  1  6
 21 20  1  0
 22 24  2  0
 22 23  1  0
M  END
$$$$
