EMC.pdb
     RDKit          3D

 24 23  0  0  1  0  0  0  0  0999 V2000
   26.1377  -18.0416  -16.1232 N   0  0  0  0  0  0  0  0  0  0  0  0
   25.8491  -19.2910  -16.7504 C   0  0  1  0  0  0  0  0  0  0  0  0
   26.9263  -19.8188  -17.6071 C   0  0  0  0  0  0  0  0  0  0  0  0
   28.2669  -19.7554  -16.9692 C   0  0  0  0  0  0  0  0  0  0  0  0
   29.4399  -19.6923  -17.8126 C   0  0  0  0  0  0  0  0  0  0  0  0
   29.8182  -18.7073  -18.4529 O   0  0  0  0  0  0  0  0  0  0  0  0
   25.4080  -20.2676  -15.7009 C   0  0  0  0  0  0  0  0  0  0  0  0
   25.0302  -21.4287  -16.0164 O   0  0  0  0  0  0  0  0  0  0  0  0
   30.2210  -20.8533  -17.9146 O   0  0  0  0  0  0  0  0  0  0  0  0
   27.5777  -21.0847   -9.4526 C   0  0  0  0  0  0  0  0  0  0  0  0
   25.8009  -20.7928   -9.2264 S   0  0  0  0  0  0  0  0  0  0  0  0
   24.9006  -21.2479  -10.7710 C   0  0  0  0  0  0  0  0  0  0  0  0
   25.5139  -20.4716  -11.9076 C   0  0  0  0  0  0  0  0  0  0  0  0
   24.9105  -20.7730  -13.2497 C   0  0  2  0  0  0  0  0  0  0  0  0
   25.3838  -19.9663  -14.3280 N   0  0  0  0  0  0  0  0  0  0  0  0
   23.4484  -20.6131  -13.1984 C   0  0  0  0  0  0  0  0  0  0  0  0
   22.9788  -19.4585  -13.1971 O   0  0  0  0  0  0  0  0  0  0  0  0
   22.5741  -21.7290  -13.1518 N   0  0  0  0  0  0  0  0  0  0  0  0
   21.1535  -21.5553  -13.1611 C   0  0  1  0  0  0  0  0  0  0  0  0
   20.5026  -22.8480  -13.5707 C   0  0  0  0  0  0  0  0  0  0  0  0
   18.7240  -22.8819  -13.2576 S   0  0  0  0  0  0  0  0  0  0  0  0
   20.6180  -21.0228  -11.8744 C   0  0  0  0  0  0  0  0  0  0  0  0
   19.5983  -20.1098  -11.7645 O   0  0  0  0  0  0  0  0  0  0  0  0
   21.1400  -21.4430  -10.8083 O   0  0  0  0  0  0  0  0  0  0  0  0
  2  1  1  1
  2  7  1  0
  3  4  1  0
  3  2  1  0
  4  5  1  0
  5  6  2  0
  7  8  2  0
  9  5  1  0
 10 11  1  0
 11 12  1  0
 12 13  1  0
 14 13  1  1
 14 16  1  0
 15  7  1  0
 15 14  1  0
 16 18  1  0
 16 17  2  0
 18 19  1  0
 19 22  1  0
 19 20  1  1
 21 20  1  0
 22 24  2  0
 22 23  1  0
M  END
$$$$
