EMC.pdb
     RDKit          3D

 24 23  0  0  1  0  0  0  0  0999 V2000
   20.8458  -21.9429  -14.1370 N   0  0  0  0  0  0  0  0  0  0  0  0
   22.1396  -22.5271  -14.2878 C   0  0  1  0  0  0  0  0  0  0  0  0
   22.4803  -22.9341  -15.6629 C   0  0  0  0  0  0  0  0  0  0  0  0
   21.6827  -24.0906  -16.1467 C   0  0  0  0  0  0  0  0  0  0  0  0
   20.2411  -23.9805  -16.1797 C   0  0  0  0  0  0  0  0  0  0  0  0
   19.4517  -24.6016  -15.4625 O   0  0  0  0  0  0  0  0  0  0  0  0
   23.1582  -21.6072  -13.6830 C   0  0  0  0  0  0  0  0  0  0  0  0
   23.0325  -20.3556  -13.7721 O   0  0  0  0  0  0  0  0  0  0  0  0
   19.6860  -23.0882  -17.1092 O   0  0  0  0  0  0  0  0  0  0  0  0
   26.8133  -19.3181   -8.0450 C   0  0  0  0  0  0  0  0  0  0  0  0
   25.9186  -20.5356   -9.0503 S   0  0  0  0  0  0  0  0  0  0  0  0
   26.9509  -21.0124  -10.5031 C   0  0  0  0  0  0  0  0  0  0  0  0
   26.1443  -21.9632  -11.3493 C   0  0  0  0  0  0  0  0  0  0  0  0
   25.3707  -21.2960  -12.4504 C   0  0  2  0  0  0  0  0  0  0  0  0
   24.2957  -22.0621  -12.9935 N   0  0  0  0  0  0  0  0  0  0  0  0
   26.2662  -20.9538  -13.5672 C   0  0  0  0  0  0  0  0  0  0  0  0
   27.0552  -21.8251  -13.9817 O   0  0  0  0  0  0  0  0  0  0  0  0
   26.2505  -19.6720  -14.1740 N   0  0  0  0  0  0  0  0  0  0  0  0
   27.2414  -19.2982  -15.1367 C   0  0  1  0  0  0  0  0  0  0  0  0
   26.8876  -19.9037  -16.4673 C   0  0  0  0  0  0  0  0  0  0  0  0
   25.5287  -21.0900  -16.3728 S   0  0  0  0  0  0  0  0  0  0  0  0
   27.4593  -17.8242  -15.2138 C   0  0  0  0  0  0  0  0  0  0  0  0
   28.3675  -17.2052  -16.0370 O   0  0  0  0  0  0  0  0  0  0  0  0
   26.7567  -17.0921  -14.4682 O   0  0  0  0  0  0  0  0  0  0  0  0
  2  1  1  6
  2  7  1  0
  3  4  1  0
  3  2  1  0
  4  5  1  0
  5  6  2  0
  7  8  2  0
  9  5  1  0
 10 11  1  0
 11 12  1  0
 12 13  1  0
 14 13  1  1
 14 16  1  0
 15  7  1  0
 15 14  1  0
 16 18  1  0
 16 17  2  0
 18 19  1  0
 19 22  1  0
 19 20  1  6
 21 20  1  0
 22 24  2  0
 22 23  1  0
M  END
$$$$
