EMC.pdb
     RDKit          3D

 24 23  0  0  1  0  0  0  0  0999 V2000
   27.5548  -21.7146  -16.1310 N   0  0  0  0  0  0  0  0  0  0  0  0
   27.3581  -20.7116  -15.1343 C   0  0  1  0  0  0  0  0  0  0  0  0
   26.9514  -19.3930  -15.6526 C   0  0  0  0  0  0  0  0  0  0  0  0
   27.1678  -19.2459  -17.1153 C   0  0  0  0  0  0  0  0  0  0  0  0
   28.3979  -18.6463  -17.5830 C   0  0  0  0  0  0  0  0  0  0  0  0
   28.6526  -17.4389  -17.6013 O   0  0  0  0  0  0  0  0  0  0  0  0
   26.4187  -21.2434  -14.0930 C   0  0  0  0  0  0  0  0  0  0  0  0
   25.5590  -22.1187  -14.3845 O   0  0  0  0  0  0  0  0  0  0  0  0
   29.3939  -19.5119  -18.0596 O   0  0  0  0  0  0  0  0  0  0  0  0
   26.9553  -19.3619   -7.9016 C   0  0  0  0  0  0  0  0  0  0  0  0
   25.6147  -20.5571   -7.6421 S   0  0  0  0  0  0  0  0  0  0  0  0
   24.8918  -21.0348   -9.2709 C   0  0  0  0  0  0  0  0  0  0  0  0
   25.8919  -20.6799  -10.3407 C   0  0  0  0  0  0  0  0  0  0  0  0
   25.4818  -21.0979  -11.7239 C   0  0  2  0  0  0  0  0  0  0  0  0
   26.4283  -20.8147  -12.7541 N   0  0  0  0  0  0  0  0  0  0  0  0
   24.2205  -20.4404  -12.1019 C   0  0  0  0  0  0  0  0  0  0  0  0
   24.2760  -19.3150  -12.6348 O   0  0  0  0  0  0  0  0  0  0  0  0
   22.9605  -21.0515  -11.8766 N   0  0  0  0  0  0  0  0  0  0  0  0
   21.7533  -20.4568  -12.3638 C   0  0  1  0  0  0  0  0  0  0  0  0
   21.7212  -20.5669  -13.8636 C   0  0  0  0  0  0  0  0  0  0  0  0
   20.1471  -20.0505  -14.5834 S   0  0  0  0  0  0  0  0  0  0  0  0
   20.5254  -21.0067  -11.7191 C   0  0  0  0  0  0  0  0  0  0  0  0
   19.3788  -20.2923  -11.4729 O   0  0  0  0  0  0  0  0  0  0  0  0
   20.5410  -22.2180  -11.3755 O   0  0  0  0  0  0  0  0  0  0  0  0
  2  1  1  6
  2  7  1  0
  3  4  1  0
  3  2  1  0
  4  5  1  0
  5  6  2  0
  7  8  2  0
  9  5  1  0
 10 11  1  0
 11 12  1  0
 12 13  1  0
 14 13  1  1
 14 16  1  0
 15  7  1  0
 15 14  1  0
 16 18  1  0
 16 17  2  0
 18 19  1  0
 19 22  1  0
 19 20  1  6
 21 20  1  0
 22 24  2  0
 22 23  1  0
M  END
$$$$
