FRT.pdb
     RDKit          3D

 30 30  0  0  1  0  0  0  0  0999 V2000
   25.6940  -10.9109  -18.3618 N   0  0  0  0  0  0  0  0  0  0  0  0
   25.0894  -10.9668  -17.0639 C   0  0  1  0  0  0  0  0  0  0  0  0
   26.1388  -10.4605  -16.0660 C   0  0  0  0  0  0  0  0  0  0  0  0
   27.3084  -11.3762  -16.0365 C   0  0  0  0  0  0  0  0  0  0  0  0
   27.1903  -12.6248  -15.4803 C   0  0  0  0  0  0  0  0  0  0  0  0
   28.2859  -13.4758  -15.4582 C   0  0  0  0  0  0  0  0  0  0  0  0
   29.4999  -13.0706  -15.9955 C   0  0  0  0  0  0  0  0  0  0  0  0
   29.5994  -11.8242  -16.5455 C   0  0  0  0  0  0  0  0  0  0  0  0
   28.5208  -10.9685  -16.5750 C   0  0  0  0  0  0  0  0  0  0  0  0
   23.8849  -10.1399  -16.9078 C   0  0  0  0  0  0  0  0  0  0  0  0
   23.7413   -9.0620  -17.5270 O   0  0  0  0  0  0  0  0  0  0  0  0
   15.9164  -12.7328  -17.0501 N   0  0  0  0  0  0  0  0  0  0  0  0
   16.7374  -12.7221  -15.8868 C   0  0  0  0  0  0  0  0  0  0  0  0
   16.2313  -13.1086  -14.7784 N   0  0  0  0  0  0  0  0  0  0  0  0
   18.0900  -12.2965  -15.9215 N   0  0  0  0  0  0  0  0  0  0  0  0
   18.6239  -11.4594  -16.9684 C   0  0  0  0  0  0  0  0  0  0  0  0
   19.1590  -10.2037  -16.3190 C   0  0  0  0  0  0  0  0  0  0  0  0
   20.4072  -10.4458  -15.5295 C   0  0  0  0  0  0  0  0  0  0  0  0
   21.6266   -9.7678  -15.9940 C   0  0  2  0  0  0  0  0  0  0  0  0
   22.8323  -10.5228  -16.0497 N   0  0  0  0  0  0  0  0  0  0  0  0
   21.8818   -8.6198  -15.0460 C   0  0  0  0  0  0  0  0  0  0  0  0
   22.4940   -8.7799  -13.9559 O   0  0  0  0  0  0  0  0  0  0  0  0
   16.7351  -13.1382  -13.8894 C   0  0  0  0  0  0  0  0  0  0  0  0
   22.0053   -4.6994  -16.4739 C   0  0  2  0  0  0  0  0  0  0  0  0
   22.7479   -5.2207  -15.2614 O   0  0  0  0  0  0  0  0  0  0  0  0
   22.9895   -4.1518  -14.3863 C   0  0  1  0  0  0  0  0  0  0  0  0
   21.8352   -6.1671  -14.4947 N   0  0  0  0  0  0  0  0  0  0  0  0
   21.4465   -7.2930  -15.3278 C   0  0  0  0  0  0  0  0  0  0  0  0
   20.6460   -5.5030  -13.9571 O   0  0  0  0  0  0  0  0  0  0  0  0
   19.4718   -5.7322  -14.3520 O   0  0  0  0  0  0  0  0  0  0  0  0
  2  1  1  6
  2 10  1  0
  3  2  1  0
  3  4  1  0
  4  9  2  0
  4  5  1  0
  5  6  2  0
  6  7  1  0
  8  7  2  0
  9  8  1  0
 10 20  1  0
 11 10  2  0
 13 12  1  0
 14 13  2  0
 15 13  1  0
 16 15  1  0
 17 16  1  0
 18 17  1  0
 19 18  1  1
 20 19  1  0
 21 19  1  0
 21 22  2  0
 24 23  1  6
 24 25  1  0
 26 27  1  6
 26 24  1  0
 27 21  1  0
 28 26  1  0
 29 28  2  0
 30 28  1  0
M  END
$$$$
