FRT.pdb
     RDKit          3D

 30 30  0  0  1  0  0  0  0  0999 V2000
   28.4725  -22.6228  -12.7289 N   0  0  0  0  0  0  0  0  0  0  0  0
   27.6690  -21.9102  -11.7803 C   0  0  1  0  0  0  0  0  0  0  0  0
   28.4975  -20.7049  -11.3172 C   0  0  0  0  0  0  0  0  0  0  0  0
   29.6575  -21.1559  -10.5059 C   0  0  0  0  0  0  0  0  0  0  0  0
   29.4972  -21.4340   -9.1720 C   0  0  0  0  0  0  0  0  0  0  0  0
   30.5842  -21.8571   -8.4208 C   0  0  0  0  0  0  0  0  0  0  0  0
   31.8322  -22.0002   -9.0115 C   0  0  0  0  0  0  0  0  0  0  0  0
   31.9735  -21.7192  -10.3407 C   0  0  0  0  0  0  0  0  0  0  0  0
   30.9040  -21.2986  -11.0994 C   0  0  0  0  0  0  0  0  0  0  0  0
   26.3946  -21.4037  -12.3078 C   0  0  0  0  0  0  0  0  0  0  0  0
   25.9891  -21.7056  -13.4526 O   0  0  0  0  0  0  0  0  0  0  0  0
   20.3890  -23.1189   -7.9722 N   0  0  0  0  0  0  0  0  0  0  0  0
   19.5949  -22.1426   -8.6383 C   0  0  0  0  0  0  0  0  0  0  0  0
   18.4525  -22.4916   -9.0937 N   0  0  0  0  0  0  0  0  0  0  0  0
   20.0320  -20.8044   -8.8115 N   0  0  0  0  0  0  0  0  0  0  0  0
   21.4226  -20.4212   -8.7776 C   0  0  0  0  0  0  0  0  0  0  0  0
   22.0314  -20.7985  -10.1088 C   0  0  0  0  0  0  0  0  0  0  0  0
   23.4882  -20.4664  -10.1953 C   0  0  0  0  0  0  0  0  0  0  0  0
   24.1651  -20.7809  -11.4623 C   0  0  2  0  0  0  0  0  0  0  0  0
   25.5673  -20.5504  -11.5472 N   0  0  0  0  0  0  0  0  0  0  0  0
   23.5235  -19.9259  -12.5296 C   0  0  0  0  0  0  0  0  0  0  0  0
   23.3096  -18.6957  -12.3579 O   0  0  0  0  0  0  0  0  0  0  0  0
   17.8088  -21.8683   -9.5857 C   0  0  0  0  0  0  0  0  0  0  0  0
   24.4188  -19.8558  -16.3635 C   0  0  2  0  0  0  0  0  0  0  0  0
   22.9310  -20.0863  -16.2006 O   0  0  0  0  0  0  0  0  0  0  0  0
   22.6829  -21.4664  -16.2234 C   0  0  2  0  0  0  0  0  0  0  0  0
   22.5110  -19.6271  -14.8116 N   0  0  0  0  0  0  0  0  0  0  0  0
   23.1238  -20.4587  -13.7888 C   0  0  0  0  0  0  0  0  0  0  0  0
   21.0577  -19.5987  -14.6348 O   0  0  0  0  0  0  0  0  0  0  0  0
   20.4290  -20.3532  -13.8456 O   0  0  0  0  0  0  0  0  0  0  0  0
  2  1  1  6
  2 10  1  0
  3  2  1  0
  3  4  1  0
  4  9  2  0
  4  5  1  0
  5  6  2  0
  6  7  1  0
  8  7  2  0
  9  8  1  0
 10 20  1  0
 11 10  2  0
 13 12  1  0
 14 13  2  0
 15 13  1  0
 16 15  1  0
 17 16  1  0
 18 17  1  0
 19 18  1  1
 20 19  1  0
 21 19  1  0
 21 22  2  0
 24 23  1  6
 24 25  1  0
 26 27  1  6
 26 24  1  0
 27 21  1  0
 28 26  1  0
 29 28  2  0
 30 28  1  0
M  END
$$$$
