FRT.pdb
     RDKit          3D

 30 30  0  0  1  0  0  0  0  0999 V2000
   26.5901  -22.3743  -13.0846 N   0  0  0  0  0  0  0  0  0  0  0  0
   25.9277  -21.6678  -12.0285 C   0  0  1  0  0  0  0  0  0  0  0  0
   26.7203  -20.3748  -11.7973 C   0  0  0  0  0  0  0  0  0  0  0  0
   28.0963  -20.6880  -11.3328 C   0  0  0  0  0  0  0  0  0  0  0  0
   28.2908  -21.2898  -10.1153 C   0  0  0  0  0  0  0  0  0  0  0  0
   29.5783  -21.5817   -9.6887 C   0  0  0  0  0  0  0  0  0  0  0  0
   30.6698  -21.2679  -10.4867 C   0  0  0  0  0  0  0  0  0  0  0  0
   30.4577  -20.6692  -11.6960 C   0  0  0  0  0  0  0  0  0  0  0  0
   29.1857  -20.3736  -12.1331 C   0  0  0  0  0  0  0  0  0  0  0  0
   24.5348  -21.2964  -12.3131 C   0  0  0  0  0  0  0  0  0  0  0  0
   24.0609  -21.3547  -13.4698 O   0  0  0  0  0  0  0  0  0  0  0  0
   18.6458  -22.3724   -7.9399 N   0  0  0  0  0  0  0  0  0  0  0  0
   19.8247  -23.1030   -7.6172 C   0  0  0  0  0  0  0  0  0  0  0  0
   19.7292  -24.3635   -7.4271 N   0  0  0  0  0  0  0  0  0  0  0  0
   21.0921  -22.4772   -7.4998 N   0  0  0  0  0  0  0  0  0  0  0  0
   21.2903  -21.0611   -7.6932 C   0  0  0  0  0  0  0  0  0  0  0  0
   22.1844  -20.8870   -8.8996 C   0  0  0  0  0  0  0  0  0  0  0  0
   21.4486  -21.0412  -10.1938 C   0  0  0  0  0  0  0  0  0  0  0  0
   22.2554  -21.0050  -11.4226 C   0  0  2  0  0  0  0  0  0  0  0  0
   23.6652  -20.8545  -11.2936 N   0  0  0  0  0  0  0  0  0  0  0  0
   21.7700  -19.8275  -12.2349 C   0  0  0  0  0  0  0  0  0  0  0  0
   21.7336  -18.6606  -11.7597 O   0  0  0  0  0  0  0  0  0  0  0  0
   20.5038  -24.9681   -7.1451 C   0  0  0  0  0  0  0  0  0  0  0  0
   23.1509  -18.3397  -15.2455 C   0  0  2  0  0  0  0  0  0  0  0  0
   21.7296  -18.6919  -15.6318 O   0  0  0  0  0  0  0  0  0  0  0  0
   21.7229  -19.9688  -16.2116 C   0  0  2  0  0  0  0  0  0  0  0  0
   20.8937  -18.8226  -14.3666 N   0  0  0  0  0  0  0  0  0  0  0  0
   21.3262  -19.9668  -13.5813 C   0  0  0  0  0  0  0  0  0  0  0  0
   19.4574  -18.9107  -14.6378 O   0  0  0  0  0  0  0  0  0  0  0  0
   18.7436  -19.9049  -14.3390 O   0  0  0  0  0  0  0  0  0  0  0  0
  2  1  1  6
  2 10  1  0
  3  2  1  0
  3  4  1  0
  4  9  2  0
  4  5  1  0
  5  6  2  0
  6  7  1  0
  8  7  2  0
  9  8  1  0
 10 20  1  0
 11 10  2  0
 13 12  1  0
 14 13  2  0
 15 13  1  0
 16 15  1  0
 17 16  1  0
 18 17  1  0
 19 18  1  1
 20 19  1  0
 21 19  1  0
 21 22  2  0
 24 23  1  6
 24 25  1  0
 26 27  1  6
 26 24  1  0
 27 21  1  0
 28 26  1  0
 29 28  2  0
 30 28  1  0
M  END
$$$$
