FRT.pdb
     RDKit          3D

 30 30  0  0  1  0  0  0  0  0999 V2000
   28.7969  -20.6978   -9.0857 N   0  0  0  0  0  0  0  0  0  0  0  0
   27.3678  -20.6135   -9.0242 C   0  0  1  0  0  0  0  0  0  0  0  0
   27.0344  -19.3779   -8.1783 C   0  0  0  0  0  0  0  0  0  0  0  0
   27.4759  -19.5783   -6.7739 C   0  0  0  0  0  0  0  0  0  0  0  0
   28.6175  -18.9688   -6.3184 C   0  0  0  0  0  0  0  0  0  0  0  0
   29.0227  -19.1583   -5.0051 C   0  0  0  0  0  0  0  0  0  0  0  0
   28.2796  -19.9609   -4.1504 C   0  0  0  0  0  0  0  0  0  0  0  0
   27.1456  -20.5597   -4.6207 C   0  0  0  0  0  0  0  0  0  0  0  0
   26.7305  -20.3809   -5.9216 C   0  0  0  0  0  0  0  0  0  0  0  0
   26.7018  -20.4608  -10.3250 C   0  0  0  0  0  0  0  0  0  0  0  0
   27.2625  -19.8935  -11.2893 O   0  0  0  0  0  0  0  0  0  0  0  0
   22.5486  -25.5117  -17.0415 N   0  0  0  0  0  0  0  0  0  0  0  0
   22.8979  -24.9091  -15.7996 C   0  0  0  0  0  0  0  0  0  0  0  0
   22.0381  -24.9169  -14.8536 N   0  0  0  0  0  0  0  0  0  0  0  0
   24.1621  -24.3032  -15.5837 N   0  0  0  0  0  0  0  0  0  0  0  0
   24.7655  -24.1875  -14.2782 C   0  0  0  0  0  0  0  0  0  0  0  0
   24.5668  -22.7643  -13.8093 C   0  0  0  0  0  0  0  0  0  0  0  0
   25.1676  -22.5081  -12.4626 C   0  0  0  0  0  0  0  0  0  0  0  0
   24.9230  -21.1852  -11.8691 C   0  0  2  0  0  0  0  0  0  0  0  0
   25.3959  -20.9465  -10.5477 N   0  0  0  0  0  0  0  0  0  0  0  0
   23.4257  -20.9881  -11.8319 C   0  0  0  0  0  0  0  0  0  0  0  0
   22.7253  -21.3889  -10.8636 O   0  0  0  0  0  0  0  0  0  0  0  0
   22.1940  -24.5202  -13.9244 C   0  0  0  0  0  0  0  0  0  0  0  0
   21.5209  -17.7264  -13.6046 C   0  0  2  0  0  0  0  0  0  0  0  0
   20.8765  -19.0696  -13.8761 O   0  0  0  0  0  0  0  0  0  0  0  0
   21.4042  -19.5910  -15.0662 C   0  0  2  0  0  0  0  0  0  0  0  0
   21.2996  -20.0471  -12.7889 N   0  0  0  0  0  0  0  0  0  0  0  0
   22.7201  -20.3398  -12.8859 C   0  0  0  0  0  0  0  0  0  0  0  0
   20.5260  -21.2903  -12.8063 O   0  0  0  0  0  0  0  0  0  0  0  0
   20.9807  -22.3978  -13.1988 O   0  0  0  0  0  0  0  0  0  0  0  0
  2  1  1  6
  2 10  1  0
  3  2  1  0
  3  4  1  0
  4  9  2  0
  4  5  1  0
  5  6  2  0
  6  7  1  0
  8  7  2  0
  9  8  1  0
 10 20  1  0
 11 10  2  0
 13 12  1  0
 14 13  2  0
 15 13  1  0
 16 15  1  0
 17 16  1  0
 18 17  1  0
 19 18  1  1
 20 19  1  0
 21 19  1  0
 21 22  2  0
 24 23  1  6
 24 25  1  0
 26 27  1  1
 26 24  1  0
 27 21  1  0
 28 26  1  0
 29 28  2  0
 30 28  1  0
M  END
$$$$
