FRT.pdb
     RDKit          3D

 30 30  0  0  1  0  0  0  0  0999 V2000
   28.8625  -21.8524  -10.6019 N   0  0  0  0  0  0  0  0  0  0  0  0
   27.6153  -21.1955  -10.3447 C   0  0  1  0  0  0  0  0  0  0  0  0
   27.9514  -19.7586   -9.9253 C   0  0  0  0  0  0  0  0  0  0  0  0
   28.0661  -19.6650   -8.4471 C   0  0  0  0  0  0  0  0  0  0  0  0
   26.9758  -19.3098   -7.6938 C   0  0  0  0  0  0  0  0  0  0  0  0
   27.0894  -19.2266   -6.3135 C   0  0  0  0  0  0  0  0  0  0  0  0
   28.2996  -19.5005   -5.6914 C   0  0  0  0  0  0  0  0  0  0  0  0
   29.3747  -19.8527   -6.4569 C   0  0  0  0  0  0  0  0  0  0  0  0
   29.2774  -19.9399   -7.8277 C   0  0  0  0  0  0  0  0  0  0  0  0
   26.7049  -21.1265  -11.4960 C   0  0  0  0  0  0  0  0  0  0  0  0
   27.0994  -21.3522  -12.6619 O   0  0  0  0  0  0  0  0  0  0  0  0
   18.8870  -20.3279  -14.7393 N   0  0  0  0  0  0  0  0  0  0  0  0
   19.1364  -21.7289  -14.7880 C   0  0  0  0  0  0  0  0  0  0  0  0
   18.5732  -22.4182  -15.7055 N   0  0  0  0  0  0  0  0  0  0  0  0
   19.9840  -22.3776  -13.8538 N   0  0  0  0  0  0  0  0  0  0  0  0
   20.6503  -21.6801  -12.7808 C   0  0  0  0  0  0  0  0  0  0  0  0
   22.0686  -21.4070  -13.2268 C   0  0  0  0  0  0  0  0  0  0  0  0
   23.0271  -21.3048  -12.0819 C   0  0  0  0  0  0  0  0  0  0  0  0
   24.4223  -20.9795  -12.4134 C   0  0  2  0  0  0  0  0  0  0  0  0
   25.3409  -20.8005  -11.3406 N   0  0  0  0  0  0  0  0  0  0  0  0
   24.4017  -19.6798  -13.1829 C   0  0  0  0  0  0  0  0  0  0  0  0
   23.9508  -18.6155  -12.6803 O   0  0  0  0  0  0  0  0  0  0  0  0
   18.6776  -23.4287  -15.8190 C   0  0  0  0  0  0  0  0  0  0  0  0
   27.2764  -17.8660  -14.7456 C   0  0  2  0  0  0  0  0  0  0  0  0
   26.2657  -18.0627  -15.8561 O   0  0  0  0  0  0  0  0  0  0  0  0
   26.5821  -19.2389  -16.5511 C   0  0  2  0  0  0  0  0  0  0  0  0
   24.8987  -18.3187  -15.2377 N   0  0  0  0  0  0  0  0  0  0  0  0
   24.8892  -19.5815  -14.5178 C   0  0  0  0  0  0  0  0  0  0  0  0
   23.8133  -18.2899  -16.2202 O   0  0  0  0  0  0  0  0  0  0  0  0
   23.1843  -19.3113  -16.6055 O   0  0  0  0  0  0  0  0  0  0  0  0
  2  1  1  6
  2 10  1  0
  3  2  1  0
  3  4  1  0
  4  9  2  0
  4  5  1  0
  5  6  2  0
  6  7  1  0
  8  7  2  0
  9  8  1  0
 10 20  1  0
 11 10  2  0
 13 12  1  0
 14 13  2  0
 15 13  1  0
 16 15  1  0
 17 16  1  0
 18 17  1  0
 19 18  1  1
 20 19  1  0
 21 19  1  0
 21 22  2  0
 24 23  1  6
 24 25  1  0
 26 27  1  6
 26 24  1  0
 27 21  1  0
 28 26  1  0
 29 28  2  0
 30 28  1  0
M  END
$$$$
