FRT.pdb
     RDKit          3D

 30 30  0  0  1  0  0  0  0  0999 V2000
   27.8917  -21.4606  -12.2641 N   0  0  0  0  0  0  0  0  0  0  0  0
   26.5943  -21.2530  -11.6924 C   0  0  1  0  0  0  0  0  0  0  0  0
   26.6644  -19.9389  -10.9041 C   0  0  0  0  0  0  0  0  0  0  0  0
   27.2514  -20.1732   -9.5595 C   0  0  0  0  0  0  0  0  0  0  0  0
   26.4343  -20.2971   -8.4645 C   0  0  0  0  0  0  0  0  0  0  0  0
   26.9890  -20.5183   -7.2122 C   0  0  0  0  0  0  0  0  0  0  0  0
   28.3655  -20.6145   -7.0617 C   0  0  0  0  0  0  0  0  0  0  0  0
   29.1640  -20.4888   -8.1628 C   0  0  0  0  0  0  0  0  0  0  0  0
   28.6281  -20.2695   -9.4122 C   0  0  0  0  0  0  0  0  0  0  0  0
   25.5017  -21.1345  -12.6677 C   0  0  0  0  0  0  0  0  0  0  0  0
   25.5605  -20.3349  -13.6285 O   0  0  0  0  0  0  0  0  0  0  0  0
   24.4590  -25.7095  -17.7754 N   0  0  0  0  0  0  0  0  0  0  0  0
   25.7192  -25.6414  -17.1160 C   0  0  0  0  0  0  0  0  0  0  0  0
   26.7817  -25.7797  -17.8132 N   0  0  0  0  0  0  0  0  0  0  0  0
   25.8290  -25.4280  -15.7181 N   0  0  0  0  0  0  0  0  0  0  0  0
   24.6937  -25.1401  -14.8755 C   0  0  0  0  0  0  0  0  0  0  0  0
   24.2135  -23.7483  -15.2183 C   0  0  0  0  0  0  0  0  0  0  0  0
   23.1496  -23.2563  -14.2877 C   0  0  0  0  0  0  0  0  0  0  0  0
   23.3902  -21.9623  -13.6318 C   0  0  2  0  0  0  0  0  0  0  0  0
   24.3322  -21.9173  -12.5654 N   0  0  0  0  0  0  0  0  0  0  0  0
   22.0694  -21.5059  -13.0581 C   0  0  0  0  0  0  0  0  0  0  0  0
   21.6588  -21.9028  -11.9345 O   0  0  0  0  0  0  0  0  0  0  0  0
   27.7292  -25.6174  -17.4655 C   0  0  0  0  0  0  0  0  0  0  0  0
   20.6387  -17.8600  -12.8504 C   0  0  2  0  0  0  0  0  0  0  0  0
   19.6312  -18.7455  -13.5534 O   0  0  0  0  0  0  0  0  0  0  0  0
   19.8322  -18.6470  -14.9378 C   0  0  2  0  0  0  0  0  0  0  0  0
   19.9273  -20.1980  -13.2084 N   0  0  0  0  0  0  0  0  0  0  0  0
   21.2133  -20.6029  -13.7516 C   0  0  0  0  0  0  0  0  0  0  0  0
   18.8786  -21.1165  -13.6565 O   0  0  0  0  0  0  0  0  0  0  0  0
   17.7236  -21.1656  -13.1554 O   0  0  0  0  0  0  0  0  0  0  0  0
  2  1  1  6
  2 10  1  0
  3  2  1  0
  3  4  1  0
  4  9  2  0
  4  5  1  0
  5  6  2  0
  6  7  1  0
  8  7  2  0
  9  8  1  0
 10 20  1  0
 11 10  2  0
 13 12  1  0
 14 13  2  0
 15 13  1  0
 16 15  1  0
 17 16  1  0
 18 17  1  0
 19 18  1  1
 20 19  1  0
 21 19  1  0
 21 22  2  0
 24 23  1  6
 24 25  1  0
 26 27  1  1
 26 24  1  0
 27 21  1  0
 28 26  1  0
 29 28  2  0
 30 28  1  0
M  END
$$$$
