SGG.pdb
     RDKit          3D

 15 14  0  0  1  0  0  0  0  0999 V2000
   -0.5053  -25.8403   27.5239 O   0  0  0  0  0  0  0  0  0  0  0  0
   -1.2472  -24.7308   27.1672 C   0  0  0  0  0  0  0  0  0  0  0  0
   -2.6071  -25.1334   26.6147 C   0  0  2  0  0  0  0  0  0  0  0  0
   -2.4541  -25.7163   25.3033 N   0  0  0  0  0  0  0  0  0  0  0  0
   -3.5572  -24.0071   26.6301 C   0  0  0  0  0  0  0  0  0  0  0  0
   -3.6762  -23.2832   25.6095 O   0  0  0  0  0  0  0  0  0  0  0  0
   -4.3733  -23.6725   27.7535 N   0  0  0  0  0  0  0  0  0  0  0  0
   -5.2180  -22.4995   27.7495 C   0  0  0  0  0  0  0  0  0  0  0  0
   -5.9645  -22.3912   29.0404 C   0  0  0  0  0  0  0  0  0  0  0  0
   -5.3989  -22.3452   30.1574 O   0  0  0  0  0  0  0  0  0  0  0  0
   -7.3818  -22.3371   29.0114 N   0  0  0  0  0  0  0  0  0  0  0  0
   -8.1178  -22.2861   30.2543 C   0  0  0  0  0  0  0  0  0  0  0  0
   -9.5781  -22.3262   30.0043 C   0  0  0  0  0  0  0  0  0  0  0  0
  -10.5308  -22.4184   31.0035 O   0  0  0  0  0  0  0  0  0  0  0  0
   -9.9757  -22.2734   28.8157 O   0  0  0  0  0  0  0  0  0  0  0  0
  2  1  1  0
  3  4  1  6
  3  2  1  0
  5  3  1  0
  6  5  2  0
  7  5  1  0
  8  7  1  0
  9 11  1  0
  9  8  1  0
 10  9  2  0
 12 13  1  0
 12 11  1  0
 13 14  1  0
 15 13  2  0
M  END
$$$$
