SGG.pdb
     RDKit          3D

 15 14  0  0  1  0  0  0  0  0999 V2000
    1.3080  -19.4526   20.0726 O   0  0  0  0  0  0  0  0  0  0  0  0
    2.1803  -18.6082   20.7321 C   0  0  0  0  0  0  0  0  0  0  0  0
    3.4167  -19.3577   21.2078 C   0  0  2  0  0  0  0  0  0  0  0  0
    3.0531  -20.6866   21.6377 N   0  0  0  0  0  0  0  0  0  0  0  0
    4.1470  -18.6041   22.2422 C   0  0  0  0  0  0  0  0  0  0  0  0
    3.7360  -18.6251   23.4299 O   0  0  0  0  0  0  0  0  0  0  0  0
    5.3197  -17.8314   21.9820 N   0  0  0  0  0  0  0  0  0  0  0  0
    5.9499  -17.0447   23.0180 C   0  0  0  0  0  0  0  0  0  0  0  0
    7.1458  -16.3307   22.4746 C   0  0  0  0  0  0  0  0  0  0  0  0
    7.0936  -15.5567   21.4908 O   0  0  0  0  0  0  0  0  0  0  0  0
    8.4058  -16.5316   23.0948 N   0  0  0  0  0  0  0  0  0  0  0  0
    9.5691  -15.8436   22.5826 C   0  0  0  0  0  0  0  0  0  0  0  0
   10.7350  -16.0423   23.4758 C   0  0  0  0  0  0  0  0  0  0  0  0
   11.9966  -15.5328   23.2244 O   0  0  0  0  0  0  0  0  0  0  0  0
   10.5694  -16.7126   24.5231 O   0  0  0  0  0  0  0  0  0  0  0  0
  2  1  1  0
  3  4  1  1
  3  2  1  0
  5  3  1  0
  6  5  2  0
  7  5  1  0
  8  7  1  0
  9 11  1  0
  9  8  1  0
 10  9  2  0
 12 13  1  0
 12 11  1  0
 13 14  1  0
 15 13  2  0
M  END
$$$$
