SGG.pdb
     RDKit          3D

 15 14  0  0  1  0  0  0  0  0999 V2000
    8.4665  -13.0709   17.6994 O   0  0  0  0  0  0  0  0  0  0  0  0
    8.4833  -12.9139   19.0719 C   0  0  0  0  0  0  0  0  0  0  0  0
    8.1909  -14.2296   19.7792 C   0  0  2  0  0  0  0  0  0  0  0  0
    6.8982  -14.7295   19.3766 N   0  0  0  0  0  0  0  0  0  0  0  0
    8.3230  -14.1039   21.2414 C   0  0  0  0  0  0  0  0  0  0  0  0
    9.4538  -13.8841   21.7444 O   0  0  0  0  0  0  0  0  0  0  0  0
    7.2270  -14.2175   22.1501 N   0  0  0  0  0  0  0  0  0  0  0  0
    7.4069  -14.0464   23.5741 C   0  0  0  0  0  0  0  0  0  0  0  0
    7.2761  -15.3596   24.2768 C   0  0  0  0  0  0  0  0  0  0  0  0
    6.2420  -15.7073   24.8929 O   0  0  0  0  0  0  0  0  0  0  0  0
    8.3690  -16.2637   24.2514 N   0  0  0  0  0  0  0  0  0  0  0  0
    8.2316  -17.5643   24.8668 C   0  0  0  0  0  0  0  0  0  0  0  0
    9.0643  -17.6598   26.0891 C   0  0  0  0  0  0  0  0  0  0  0  0
    9.2151  -18.8169   26.8327 O   0  0  0  0  0  0  0  0  0  0  0  0
    9.6693  -16.6305   26.4737 O   0  0  0  0  0  0  0  0  0  0  0  0
  2  1  1  0
  3  4  1  1
  3  2  1  0
  5  3  1  0
  6  5  2  0
  7  5  1  0
  8  7  1  0
  9 11  1  0
  9  8  1  0
 10  9  2  0
 12 13  1  0
 12 11  1  0
 13 14  1  0
 15 13  2  0
M  END
$$$$
