SGG.pdb
     RDKit          3D

 15 14  0  0  1  0  0  0  0  0999 V2000
    7.9294  -16.9349   16.1899 O   0  0  0  0  0  0  0  0  0  0  0  0
    8.6236  -15.7488   16.3311 C   0  0  0  0  0  0  0  0  0  0  0  0
    7.7120  -14.5493   16.1144 C   0  0  2  0  0  0  0  0  0  0  0  0
    7.7551  -14.1403   14.7311 N   0  0  0  0  0  0  0  0  0  0  0  0
    8.0270  -13.4500   17.0437 C   0  0  0  0  0  0  0  0  0  0  0  0
    8.2737  -12.3050   16.5875 O   0  0  0  0  0  0  0  0  0  0  0  0
    8.0728  -13.5992   18.4634 N   0  0  0  0  0  0  0  0  0  0  0  0
    8.2333  -12.4588   19.3370 C   0  0  0  0  0  0  0  0  0  0  0  0
    8.1553  -12.8844   20.7681 C   0  0  0  0  0  0  0  0  0  0  0  0
    8.3568  -12.1038   21.7272 O   0  0  0  0  0  0  0  0  0  0  0  0
    7.8386  -14.2346   21.0665 N   0  0  0  0  0  0  0  0  0  0  0  0
    7.6945  -14.6441   22.4452 C   0  0  0  0  0  0  0  0  0  0  0  0
    9.0189  -14.8880   23.0640 C   0  0  0  0  0  0  0  0  0  0  0  0
    9.1967  -15.2835   24.3779 O   0  0  0  0  0  0  0  0  0  0  0  0
   10.0410  -14.7265   22.3550 O   0  0  0  0  0  0  0  0  0  0  0  0
  2  1  1  0
  3  4  1  6
  3  2  1  0
  5  3  1  0
  6  5  2  0
  7  5  1  0
  8  7  1  0
  9 11  1  0
  9  8  1  0
 10  9  2  0
 12 13  1  0
 12 11  1  0
 13 14  1  0
 15 13  2  0
M  END
$$$$
