SGG.pdb
     RDKit          3D

 15 14  0  0  1  0  0  0  0  0999 V2000
    7.6053  -14.8316   17.3921 O   0  0  0  0  0  0  0  0  0  0  0  0
    7.8203  -15.0616   18.7373 C   0  0  0  0  0  0  0  0  0  0  0  0
    7.8055  -13.7602   19.5266 C   0  0  2  0  0  0  0  0  0  0  0  0
    8.3704  -12.6954   18.7329 N   0  0  0  0  0  0  0  0  0  0  0  0
    8.4672  -13.9082   20.8348 C   0  0  0  0  0  0  0  0  0  0  0  0
    9.6857  -13.6215   20.9485 O   0  0  0  0  0  0  0  0  0  0  0  0
    7.8027  -14.3669   22.0130 N   0  0  0  0  0  0  0  0  0  0  0  0
    8.4778  -14.4127   23.2904 C   0  0  0  0  0  0  0  0  0  0  0  0
    8.9332  -15.8051   23.5888 C   0  0  0  0  0  0  0  0  0  0  0  0
    8.2555  -16.8220   23.3123 O   0  0  0  0  0  0  0  0  0  0  0  0
   10.1916  -15.9964   24.2152 N   0  0  0  0  0  0  0  0  0  0  0  0
   10.6445  -17.3374   24.5082 C   0  0  0  0  0  0  0  0  0  0  0  0
   11.9530  -17.3118   25.2037 C   0  0  0  0  0  0  0  0  0  0  0  0
   12.5584  -18.4286   25.7521 O   0  0  0  0  0  0  0  0  0  0  0  0
   12.5485  -16.2122   25.3017 O   0  0  0  0  0  0  0  0  0  0  0  0
  2  1  1  0
  3  4  1  6
  3  2  1  0
  5  3  1  0
  6  5  2  0
  7  5  1  0
  8  7  1  0
  9 11  1  0
  9  8  1  0
 10  9  2  0
 12 13  1  0
 12 11  1  0
 13 14  1  0
 15 13  2  0
M  END
$$$$
