SGG.pdb
     RDKit          3D

 15 14  0  0  1  0  0  0  0  0999 V2000
   -5.7516  -21.2440   22.4756 O   0  0  0  0  0  0  0  0  0  0  0  0
   -5.8996  -20.9001   23.8055 C   0  0  0  0  0  0  0  0  0  0  0  0
   -5.5559  -22.0696   24.7171 C   0  0  2  0  0  0  0  0  0  0  0  0
   -6.5257  -23.1256   24.5518 N   0  0  0  0  0  0  0  0  0  0  0  0
   -5.4114  -21.6433   26.1202 C   0  0  0  0  0  0  0  0  0  0  0  0
   -4.5993  -20.7283   26.4089 O   0  0  0  0  0  0  0  0  0  0  0  0
   -6.1491  -22.2124   27.2027 N   0  0  0  0  0  0  0  0  0  0  0  0
   -5.9443  -21.7777   28.5660 C   0  0  0  0  0  0  0  0  0  0  0  0
   -6.8468  -22.5276   29.4926 C   0  0  0  0  0  0  0  0  0  0  0  0
   -6.8543  -22.3523   30.7331 O   0  0  0  0  0  0  0  0  0  0  0  0
   -7.7421  -23.4863   28.9523 N   0  0  0  0  0  0  0  0  0  0  0  0
   -8.5625  -24.2755   29.8430 C   0  0  0  0  0  0  0  0  0  0  0  0
   -9.8496  -23.5939   30.1170 C   0  0  0  0  0  0  0  0  0  0  0  0
  -11.0834  -24.0904   29.7353 O   0  0  0  0  0  0  0  0  0  0  0  0
   -9.8202  -22.5010   30.7321 O   0  0  0  0  0  0  0  0  0  0  0  0
  2  1  1  0
  3  4  1  1
  3  2  1  0
  5  3  1  0
  6  5  2  0
  7  5  1  0
  8  7  1  0
  9 11  1  0
  9  8  1  0
 10  9  2  0
 12 13  1  0
 12 11  1  0
 13 14  1  0
 15 13  2  0
M  END
$$$$
