HPL.pdb
     RDKit          3D

 26 27  0  0  1  0  0  0  0  0999 V2000
   12.1626  -17.1595   20.2223 N   0  0  0  0  0  0  0  0  0  0  0  0
   10.9077  -17.5317   20.7836 C   0  0  1  0  0  0  0  0  0  0  0  0
   10.9878  -18.7990   21.6187 C   0  0  0  0  0  0  0  0  0  0  0  0
   11.2033  -19.9503   20.7108 C   0  0  0  0  0  0  0  0  0  0  0  0
   10.3800  -20.4972   19.7762 C   0  0  0  0  0  0  0  0  0  0  0  0
   11.0159  -21.5126   19.1855 N   0  0  0  0  0  0  0  0  0  0  0  0
   12.2623  -21.6401   19.7261 C   0  0  0  0  0  0  0  0  0  0  0  0
   12.3632  -20.6761   20.6598 N   0  0  0  0  0  0  0  0  0  0  0  0
   10.2561  -16.4427   21.5657 C   0  0  0  0  0  0  0  0  0  0  0  0
   10.9708  -15.7658   22.3715 O   0  0  0  0  0  0  0  0  0  0  0  0
    8.8815  -16.1928   21.3943 N   0  0  0  0  0  0  0  0  0  0  0  0
    7.9467  -16.8979   20.5917 C   0  0  0  0  0  0  0  0  0  0  0  0
    6.6544  -16.1099   20.6112 C   0  0  0  0  0  0  0  0  0  0  0  0
    6.9176  -14.8445   21.3414 C   0  0  0  0  0  0  0  0  0  0  0  0
    8.2151  -15.0931   22.0769 C   0  0  1  0  0  0  0  0  0  0  0  0
    7.9768  -15.4198   23.5119 C   0  0  0  0  0  0  0  0  0  0  0  0
    8.1992  -16.6166   23.9361 O   0  0  0  0  0  0  0  0  0  0  0  0
    8.1083  -12.1564   27.0937 C   0  0  0  0  0  0  0  0  0  0  0  0
    6.8514  -12.4674   26.2446 C   0  0  2  0  0  0  0  0  0  0  0  0
    5.8480  -11.3906   26.5637 C   0  0  0  0  0  0  0  0  0  0  0  0
    6.4026  -13.8582   26.5578 C   0  0  0  0  0  0  0  0  0  0  0  0
    7.2610  -14.8796   25.8948 C   0  0  2  0  0  0  0  0  0  0  0  0
    7.5137  -14.5279   24.4929 N   0  0  0  0  0  0  0  0  0  0  0  0
    6.6885  -16.2157   26.0078 C   0  0  0  0  0  0  0  0  0  0  0  0
    7.0457  -16.9433   27.1750 O   0  0  0  0  0  0  0  0  0  0  0  0
    5.9318  -16.7720   25.1942 O   0  0  0  0  0  0  0  0  0  0  0  0
  2  1  1  1
  3  2  1  0
  4  3  1  0
  5  4  2  0
  6  7  1  0
  6  5  1  0
  7  8  2  0
  8  4  1  0
  9  2  1  0
  9 11  1  0
 10  9  2  0
 11 12  1  0
 12 13  1  0
 14 13  1  0
 15 11  1  0
 15 14  1  0
 15 16  1  1
 16 17  2  0
 19 18  1  1
 19 20  1  0
 19 21  1  0
 22 21  1  6
 22 23  1  0
 22 24  1  0
 23 16  1  0
 24 26  2  0
 24 25  1  0
M  END
$$$$
