HPL.pdb
     RDKit          3D

 26 27  0  0  1  0  0  0  0  0999 V2000
   11.6276  -13.4099   19.7579 N   0  0  0  0  0  0  0  0  0  0  0  0
   10.6493  -14.3943   20.0772 C   0  0  1  0  0  0  0  0  0  0  0  0
   11.1166  -15.8091   19.7777 C   0  0  0  0  0  0  0  0  0  0  0  0
   11.3452  -15.9324   18.3187 C   0  0  0  0  0  0  0  0  0  0  0  0
   10.6237  -15.4460   17.2731 C   0  0  0  0  0  0  0  0  0  0  0  0
   11.2302  -15.7933   16.1347 N   0  0  0  0  0  0  0  0  0  0  0  0
   12.3554  -16.5093   16.4231 C   0  0  0  0  0  0  0  0  0  0  0  0
   12.4131  -16.5868   17.7655 N   0  0  0  0  0  0  0  0  0  0  0  0
   10.1475  -14.3060   21.4781 C   0  0  0  0  0  0  0  0  0  0  0  0
   10.9012  -13.7817   22.3586 O   0  0  0  0  0  0  0  0  0  0  0  0
    8.8659  -14.7987   21.7881 N   0  0  0  0  0  0  0  0  0  0  0  0
    7.9438  -15.4644   20.9384 C   0  0  0  0  0  0  0  0  0  0  0  0
    6.6484  -15.6088   21.7080 C   0  0  0  0  0  0  0  0  0  0  0  0
    6.8086  -14.8740   22.9879 C   0  0  0  0  0  0  0  0  0  0  0  0
    8.3004  -14.6673   23.1231 C   0  0  1  0  0  0  0  0  0  0  0  0
    8.9069  -15.6550   24.0609 C   0  0  0  0  0  0  0  0  0  0  0  0
    9.4574  -16.7218   23.5908 O   0  0  0  0  0  0  0  0  0  0  0  0
   11.2002  -14.0556   27.1617 C   0  0  0  0  0  0  0  0  0  0  0  0
    9.8144  -14.4554   27.7248 C   0  0  2  0  0  0  0  0  0  0  0  0
    9.7031  -13.8032   29.0777 C   0  0  0  0  0  0  0  0  0  0  0  0
    9.7222  -15.9471   27.7362 C   0  0  0  0  0  0  0  0  0  0  0  0
    9.5943  -16.5045   26.3604 C   0  0  2  0  0  0  0  0  0  0  0  0
    8.9426  -15.5463   25.4605 N   0  0  0  0  0  0  0  0  0  0  0  0
    8.8949  -17.7838   26.3635 C   0  0  0  0  0  0  0  0  0  0  0  0
    7.6033  -17.7824   25.7707 O   0  0  0  0  0  0  0  0  0  0  0  0
    9.3113  -18.8582   26.8286 O   0  0  0  0  0  0  0  0  0  0  0  0
  2  1  1  1
  3  2  1  0
  4  3  1  0
  5  4  2  0
  6  7  1  0
  6  5  1  0
  7  8  2  0
  8  4  1  0
  9  2  1  0
  9 11  1  0
 10  9  2  0
 11 12  1  0
 12 13  1  0
 14 13  1  0
 15 11  1  0
 15 14  1  0
 15 16  1  1
 16 17  2  0
 19 18  1  1
 19 20  1  0
 19 21  1  0
 22 21  1  1
 22 23  1  0
 22 24  1  0
 23 16  1  0
 24 26  2  0
 24 25  1  0
M  END
$$$$
