HPL.pdb
     RDKit          3D

 26 27  0  0  1  0  0  0  0  0999 V2000
   12.1205  -17.0980   20.1024 N   0  0  0  0  0  0  0  0  0  0  0  0
   10.8725  -17.4613   20.6843 C   0  0  1  0  0  0  0  0  0  0  0  0
   10.9554  -18.7340   21.5109 C   0  0  0  0  0  0  0  0  0  0  0  0
   10.9988  -19.8939   20.5896 C   0  0  0  0  0  0  0  0  0  0  0  0
   10.0882  -20.3224   19.6744 C   0  0  0  0  0  0  0  0  0  0  0  0
   10.5742  -21.4041   19.0594 N   0  0  0  0  0  0  0  0  0  0  0  0
   11.8081  -21.6941   19.5645 C   0  0  0  0  0  0  0  0  0  0  0  0
   12.0554  -20.7603   20.5016 N   0  0  0  0  0  0  0  0  0  0  0  0
   10.2456  -16.3706   21.4840 C   0  0  0  0  0  0  0  0  0  0  0  0
   10.9976  -15.6401   22.2045 O   0  0  0  0  0  0  0  0  0  0  0  0
    8.8527  -16.1777   21.4217 N   0  0  0  0  0  0  0  0  0  0  0  0
    7.8910  -16.9032   20.6706 C   0  0  0  0  0  0  0  0  0  0  0  0
    6.5716  -16.1740   20.8079 C   0  0  0  0  0  0  0  0  0  0  0  0
    6.8349  -14.9170   21.5525 C   0  0  0  0  0  0  0  0  0  0  0  0
    8.1933  -15.1263   22.1827 C   0  0  1  0  0  0  0  0  0  0  0  0
    8.0774  -15.4994   23.6215 C   0  0  0  0  0  0  0  0  0  0  0  0
    8.3377  -16.7079   23.9871 O   0  0  0  0  0  0  0  0  0  0  0  0
    8.5530  -12.1056   26.9969 C   0  0  0  0  0  0  0  0  0  0  0  0
    7.2284  -12.5995   26.3651 C   0  0  2  0  0  0  0  0  0  0  0  0
    6.1880  -11.5631   26.6990 C   0  0  0  0  0  0  0  0  0  0  0  0
    6.9400  -13.9706   26.8852 C   0  0  0  0  0  0  0  0  0  0  0  0
    7.6222  -15.0229   26.0808 C   0  0  2  0  0  0  0  0  0  0  0  0
    7.6962  -14.6415   24.6659 N   0  0  0  0  0  0  0  0  0  0  0  0
    6.9804  -16.3219   26.2433 C   0  0  0  0  0  0  0  0  0  0  0  0
    6.0909  -16.7051   25.2033 O   0  0  0  0  0  0  0  0  0  0  0  0
    7.1319  -17.1134   27.1891 O   0  0  0  0  0  0  0  0  0  0  0  0
  2  1  1  1
  3  2  1  0
  4  3  1  0
  5  4  2  0
  6  7  1  0
  6  5  1  0
  7  8  2  0
  8  4  1  0
  9  2  1  0
  9 11  1  0
 10  9  2  0
 11 12  1  0
 12 13  1  0
 14 13  1  0
 15 11  1  0
 15 14  1  0
 15 16  1  1
 16 17  2  0
 19 18  1  1
 19 20  1  0
 19 21  1  0
 22 21  1  1
 22 23  1  0
 22 24  1  0
 23 16  1  0
 24 26  2  0
 24 25  1  0
M  END
$$$$
