HPL.pdb
     RDKit          3D

 26 27  0  0  1  0  0  0  0  0999 V2000
    6.8091  -19.1232   20.5873 N   0  0  0  0  0  0  0  0  0  0  0  0
    6.5664  -17.9931   21.4191 C   0  0  1  0  0  0  0  0  0  0  0  0
    5.5643  -18.2794   22.5254 C   0  0  0  0  0  0  0  0  0  0  0  0
    4.2632  -18.6260   21.9063 C   0  0  0  0  0  0  0  0  0  0  0  0
    3.6123  -18.0584   20.8553 C   0  0  0  0  0  0  0  0  0  0  0  0
    2.4751  -18.7264   20.6434 N   0  0  0  0  0  0  0  0  0  0  0  0
    2.3704  -19.7388   21.5522 C   0  0  0  0  0  0  0  0  0  0  0  0
    3.4733  -19.6652   22.3199 N   0  0  0  0  0  0  0  0  0  0  0  0
    7.8059  -17.3955   21.9924 C   0  0  0  0  0  0  0  0  0  0  0  0
    8.7987  -18.1592   22.2148 O   0  0  0  0  0  0  0  0  0  0  0  0
    7.8468  -16.0160   22.2694 N   0  0  0  0  0  0  0  0  0  0  0  0
    6.8763  -15.0238   21.9710 C   0  0  0  0  0  0  0  0  0  0  0  0
    7.4900  -13.6812   22.3056 C   0  0  0  0  0  0  0  0  0  0  0  0
    8.9072  -13.9214   22.6765 C   0  0  0  0  0  0  0  0  0  0  0  0
    8.9826  -15.4072   22.9466 C   0  0  1  0  0  0  0  0  0  0  0  0
    8.9538  -15.6998   24.4082 C   0  0  0  0  0  0  0  0  0  0  0  0
    7.8216  -15.8824   24.9971 O   0  0  0  0  0  0  0  0  0  0  0  0
   10.7455  -13.7664   28.4044 C   0  0  0  0  0  0  0  0  0  0  0  0
    9.5249  -13.8432   27.4548 C   0  0  2  0  0  0  0  0  0  0  0  0
    8.5128  -12.8628   27.9863 C   0  0  0  0  0  0  0  0  0  0  0  0
    9.0579  -15.2620   27.4005 C   0  0  0  0  0  0  0  0  0  0  0  0
   10.0239  -16.1356   26.6770 C   0  0  2  0  0  0  0  0  0  0  0  0
   10.0737  -15.7995   25.2496 N   0  0  0  0  0  0  0  0  0  0  0  0
    9.7216  -17.5480   26.8753 C   0  0  0  0  0  0  0  0  0  0  0  0
   10.0427  -18.0739   28.1559 O   0  0  0  0  0  0  0  0  0  0  0  0
    9.2198  -18.3250   26.0456 O   0  0  0  0  0  0  0  0  0  0  0  0
  2  1  1  1
  3  2  1  0
  4  3  1  0
  5  4  2  0
  6  7  1  0
  6  5  1  0
  7  8  2  0
  8  4  1  0
  9  2  1  0
  9 11  1  0
 10  9  2  0
 11 12  1  0
 12 13  1  0
 14 13  1  0
 15 11  1  0
 15 14  1  0
 15 16  1  1
 16 17  2  0
 19 18  1  1
 19 20  1  0
 19 21  1  0
 22 21  1  1
 22 23  1  0
 22 24  1  0
 23 16  1  0
 24 26  2  0
 24 25  1  0
M  END
$$$$
