HPD.pdb
     RDKit          3D

 26 27  0  0  1  0  0  0  0  0999 V2000
    5.8978  -16.0306   25.8055 N   0  0  0  0  0  0  0  0  0  0  0  0
    6.6525  -15.2251   24.8300 C   0  0  1  0  0  0  0  0  0  0  0  0
    7.5915  -14.3062   25.5189 C   0  0  0  0  0  0  0  0  0  0  0  0
    6.9891  -13.2231   26.2989 C   0  0  0  0  0  0  0  0  0  0  0  0
    5.6813  -12.8470   26.3903 C   0  0  0  0  0  0  0  0  0  0  0  0
    5.5498  -11.7822   27.2207 N   0  0  0  0  0  0  0  0  0  0  0  0
    6.7986  -11.5149   27.6343 C   0  0  0  0  0  0  0  0  0  0  0  0
    7.6772  -12.3730   27.0888 N   0  0  0  0  0  0  0  0  0  0  0  0
    7.1917  -16.0418   23.7486 C   0  0  0  0  0  0  0  0  0  0  0  0
    7.0839  -17.3120   23.8726 O   0  0  0  0  0  0  0  0  0  0  0  0
    7.8163  -15.5675   22.5851 N   0  0  0  0  0  0  0  0  0  0  0  0
    8.1146  -14.2005   22.2502 C   0  0  0  0  0  0  0  0  0  0  0  0
    8.0136  -14.1028   20.7372 C   0  0  0  0  0  0  0  0  0  0  0  0
    7.9088  -15.5189   20.2654 C   0  0  0  0  0  0  0  0  0  0  0  0
    8.2716  -16.3729   21.4746 C   0  0  1  0  0  0  0  0  0  0  0  0
    9.7588  -16.4912   21.5991 C   0  0  0  0  0  0  0  0  0  0  0  0
   10.4846  -15.4999   21.9420 O   0  0  0  0  0  0  0  0  0  0  0  0
   10.4603  -17.7009   21.3475 N   0  0  0  0  0  0  0  0  0  0  0  0
   11.8864  -17.8435   21.6657 C   0  0  1  0  0  0  0  0  0  0  0  0
   12.1738  -19.1685   22.2822 C   0  0  0  0  0  0  0  0  0  0  0  0
   11.5576  -19.2643   23.6116 C   0  0  0  0  0  0  0  0  0  0  0  0
   11.8862  -18.4629   24.5200 O   0  0  0  0  0  0  0  0  0  0  0  0
   12.6375  -17.6870   20.4165 C   0  0  0  0  0  0  0  0  0  0  0  0
   12.0381  -17.5364   19.3350 O   0  0  0  0  0  0  0  0  0  0  0  0
   10.5985  -20.2231   23.9347 O   0  0  0  0  0  0  0  0  0  0  0  0
   14.0157  -17.7045   20.4223 O   0  0  0  0  0  0  0  0  0  0  0  0
  2  1  1  1
  3  2  1  0
  4  3  1  0
  5  4  2  0
  6  5  1  0
  7  6  1  0
  7  8  2  0
  8  4  1  0
  9  2  1  0
  9 11  1  0
 10  9  2  0
 11 15  1  0
 12 11  1  0
 12 13  1  0
 13 14  1  0
 15 16  1  1
 15 14  1  0
 16 17  2  0
 18 19  1  0
 18 16  1  0
 20 21  1  0
 19 20  1  6
 21 25  1  0
 22 21  2  0
 23 19  1  0
 24 23  2  0
 26 23  1  0
M  END
$$$$
