HPD.pdb
     RDKit          3D

 26 27  0  0  1  0  0  0  0  0999 V2000
   10.7656  -14.9261   15.5541 N   0  0  0  0  0  0  0  0  0  0  0  0
    9.5633  -14.9322   16.4053 C   0  0  1  0  0  0  0  0  0  0  0  0
    8.6470  -16.0319   16.0157 C   0  0  0  0  0  0  0  0  0  0  0  0
    8.3614  -16.1667   14.5858 C   0  0  0  0  0  0  0  0  0  0  0  0
    7.5512  -15.4107   13.7907 C   0  0  0  0  0  0  0  0  0  0  0  0
    7.5604  -15.8815   12.5183 N   0  0  0  0  0  0  0  0  0  0  0  0
    8.3893  -16.9370   12.5503 C   0  0  0  0  0  0  0  0  0  0  0  0
    8.8801  -17.1225   13.7875 N   0  0  0  0  0  0  0  0  0  0  0  0
    9.8957  -14.8109   17.8202 C   0  0  0  0  0  0  0  0  0  0  0  0
   11.0910  -15.1175   18.1630 O   0  0  0  0  0  0  0  0  0  0  0  0
    9.0301  -14.3892   18.8409 N   0  0  0  0  0  0  0  0  0  0  0  0
    7.6430  -14.0289   18.7153 C   0  0  0  0  0  0  0  0  0  0  0  0
    7.3858  -12.9596   19.7637 C   0  0  0  0  0  0  0  0  0  0  0  0
    8.6138  -12.9546   20.6187 C   0  0  0  0  0  0  0  0  0  0  0  0
    9.3764  -14.2168   20.2336 C   0  0  1  0  0  0  0  0  0  0  0  0
    8.8294  -15.3991   20.9713 C   0  0  0  0  0  0  0  0  0  0  0  0
    8.0863  -16.2629   20.3980 O   0  0  0  0  0  0  0  0  0  0  0  0
    9.0950  -15.6413   22.3459 N   0  0  0  0  0  0  0  0  0  0  0  0
   10.1574  -16.5599   22.7738 C   0  0  1  0  0  0  0  0  0  0  0  0
   11.4839  -16.1381   22.2438 C   0  0  0  0  0  0  0  0  0  0  0  0
   12.5459  -17.0158   22.7516 C   0  0  0  0  0  0  0  0  0  0  0  0
   12.2612  -17.9931   23.4861 O   0  0  0  0  0  0  0  0  0  0  0  0
   10.1718  -16.5694   24.2397 C   0  0  0  0  0  0  0  0  0  0  0  0
   10.3062  -17.6401   24.8619 O   0  0  0  0  0  0  0  0  0  0  0  0
   13.8945  -16.8218   22.4569 O   0  0  0  0  0  0  0  0  0  0  0  0
   10.0370  -15.3948   24.9480 O   0  0  0  0  0  0  0  0  0  0  0  0
  2  1  1  6
  3  2  1  0
  4  3  1  0
  5  4  2  0
  6  5  1  0
  7  6  1  0
  7  8  2  0
  8  4  1  0
  9  2  1  0
  9 11  1  0
 10  9  2  0
 11 15  1  0
 12 11  1  0
 12 13  1  0
 13 14  1  0
 15 16  1  1
 15 14  1  0
 16 17  2  0
 18 19  1  0
 18 16  1  0
 20 21  1  0
 19 20  1  6
 21 25  1  0
 22 21  2  0
 23 19  1  0
 24 23  2  0
 26 23  1  0
M  END
$$$$
