HPD.pdb
     RDKit          3D

 26 27  0  0  1  0  0  0  0  0999 V2000
    6.1592  -15.7530   25.8939 N   0  0  0  0  0  0  0  0  0  0  0  0
    6.7840  -14.9422   24.8345 C   0  0  1  0  0  0  0  0  0  0  0  0
    7.6303  -13.8730   25.4188 C   0  0  0  0  0  0  0  0  0  0  0  0
    6.9976  -13.0175   26.4248 C   0  0  0  0  0  0  0  0  0  0  0  0
    6.0415  -12.0578   26.2662 C   0  0  0  0  0  0  0  0  0  0  0  0
    5.7351  -11.4903   27.4598 N   0  0  0  0  0  0  0  0  0  0  0  0
    6.5198  -12.1192   28.3489 C   0  0  0  0  0  0  0  0  0  0  0  0
    7.2861  -13.0416   27.7424 N   0  0  0  0  0  0  0  0  0  0  0  0
    7.3809  -15.7710   23.7934 C   0  0  0  0  0  0  0  0  0  0  0  0
    7.3542  -17.0384   23.9752 O   0  0  0  0  0  0  0  0  0  0  0  0
    7.9807  -15.3109   22.6112 N   0  0  0  0  0  0  0  0  0  0  0  0
    8.1252  -13.9461   22.1799 C   0  0  0  0  0  0  0  0  0  0  0  0
    8.0604  -13.9718   20.6620 C   0  0  0  0  0  0  0  0  0  0  0  0
    8.1389  -15.4208   20.2972 C   0  0  0  0  0  0  0  0  0  0  0  0
    8.5626  -16.1344   21.5756 C   0  0  1  0  0  0  0  0  0  0  0  0
   10.0488  -16.0632   21.7416 C   0  0  0  0  0  0  0  0  0  0  0  0
   10.6161  -15.0580   22.2844 O   0  0  0  0  0  0  0  0  0  0  0  0
   10.9235  -17.0971   21.3120 N   0  0  0  0  0  0  0  0  0  0  0  0
   12.0145  -17.5853   22.1645 C   0  0  1  0  0  0  0  0  0  0  0  0
   11.8663  -19.0387   22.4544 C   0  0  0  0  0  0  0  0  0  0  0  0
   13.0177  -19.5329   23.2199 C   0  0  0  0  0  0  0  0  0  0  0  0
   13.5746  -20.6110   22.8989 O   0  0  0  0  0  0  0  0  0  0  0  0
   13.2753  -17.3302   21.4612 C   0  0  0  0  0  0  0  0  0  0  0  0
   14.3144  -17.0794   22.1006 O   0  0  0  0  0  0  0  0  0  0  0  0
   13.5459  -18.8540   24.3169 O   0  0  0  0  0  0  0  0  0  0  0  0
   13.3272  -17.3643   20.0843 O   0  0  0  0  0  0  0  0  0  0  0  0
  2  1  1  1
  3  2  1  0
  4  3  1  0
  5  4  2  0
  6  5  1  0
  7  6  1  0
  7  8  2  0
  8  4  1  0
  9  2  1  0
  9 11  1  0
 10  9  2  0
 11 15  1  0
 12 11  1  0
 12 13  1  0
 13 14  1  0
 15 16  1  1
 15 14  1  0
 16 17  2  0
 18 19  1  0
 18 16  1  0
 20 21  1  0
 19 20  1  6
 21 25  1  0
 22 21  2  0
 23 19  1  0
 24 23  2  0
 26 23  1  0
M  END
$$$$
