HPD.pdb
     RDKit          3D

 26 27  0  0  1  0  0  0  0  0999 V2000
   10.2181  -15.5700   15.3264 N   0  0  0  0  0  0  0  0  0  0  0  0
    9.1395  -15.5011   16.3275 C   0  0  1  0  0  0  0  0  0  0  0  0
    8.2963  -16.7207   16.2788 C   0  0  0  0  0  0  0  0  0  0  0  0
    7.8269  -17.1362   14.9555 C   0  0  0  0  0  0  0  0  0  0  0  0
    7.2131  -16.4002   13.9851 C   0  0  0  0  0  0  0  0  0  0  0  0
    6.9334  -17.1744   12.9067 N   0  0  0  0  0  0  0  0  0  0  0  0
    7.3863  -18.3946   13.2351 C   0  0  0  0  0  0  0  0  0  0  0  0
    7.9272  -18.3891   14.4653 N   0  0  0  0  0  0  0  0  0  0  0  0
    9.6341  -15.0840   17.6346 C   0  0  0  0  0  0  0  0  0  0  0  0
   10.8774  -15.2784   17.8729 O   0  0  0  0  0  0  0  0  0  0  0  0
    8.8767  -14.4891   18.6552 N   0  0  0  0  0  0  0  0  0  0  0  0
    7.4685  -14.1955   18.6387 C   0  0  0  0  0  0  0  0  0  0  0  0
    7.2859  -12.9456   19.4832 C   0  0  0  0  0  0  0  0  0  0  0  0
    8.6054  -12.7402   20.1582 C   0  0  0  0  0  0  0  0  0  0  0  0
    9.3778  -14.0345   19.9324 C   0  0  1  0  0  0  0  0  0  0  0  0
    8.9817  -15.0595   20.9492 C   0  0  0  0  0  0  0  0  0  0  0  0
    8.0843  -15.9331   20.7071 O   0  0  0  0  0  0  0  0  0  0  0  0
    9.5691  -15.1322   22.2408 N   0  0  0  0  0  0  0  0  0  0  0  0
   10.4950  -16.2119   22.6050 C   0  0  1  0  0  0  0  0  0  0  0  0
   11.9064  -15.8364   22.3128 C   0  0  0  0  0  0  0  0  0  0  0  0
   12.8253  -16.8875   22.7675 C   0  0  0  0  0  0  0  0  0  0  0  0
   13.1922  -16.9310   23.9671 O   0  0  0  0  0  0  0  0  0  0  0  0
   10.3229  -16.4800   24.0360 C   0  0  0  0  0  0  0  0  0  0  0  0
   10.9073  -17.4404   24.5723 O   0  0  0  0  0  0  0  0  0  0  0  0
   13.3304  -17.8714   21.9189 O   0  0  0  0  0  0  0  0  0  0  0  0
    9.5130  -15.6734   24.8061 O   0  0  0  0  0  0  0  0  0  0  0  0
  2  1  1  6
  3  2  1  0
  4  3  1  0
  5  4  2  0
  6  5  1  0
  7  6  1  0
  7  8  2  0
  8  4  1  0
  9  2  1  0
  9 11  1  0
 10  9  2  0
 11 15  1  0
 12 11  1  0
 12 13  1  0
 13 14  1  0
 15 16  1  1
 15 14  1  0
 16 17  2  0
 18 19  1  0
 18 16  1  0
 20 21  1  0
 19 20  1  1
 21 25  1  0
 22 21  2  0
 23 19  1  0
 24 23  2  0
 26 23  1  0
M  END
$$$$
