HPD.pdb
     RDKit          3D

 26 27  0  0  1  0  0  0  0  0999 V2000
   10.2764  -14.2534   21.0528 N   0  0  0  0  0  0  0  0  0  0  0  0
    8.9828  -14.1159   21.7442 C   0  0  1  0  0  0  0  0  0  0  0  0
    7.8875  -14.7052   20.9356 C   0  0  0  0  0  0  0  0  0  0  0  0
    7.7518  -14.2115   19.5637 C   0  0  0  0  0  0  0  0  0  0  0  0
    8.4593  -13.2388   18.9207 C   0  0  0  0  0  0  0  0  0  0  0  0
    8.0071  -13.0827   17.6511 N   0  0  0  0  0  0  0  0  0  0  0  0
    7.0123  -13.9758   17.5303 C   0  0  0  0  0  0  0  0  0  0  0  0
    6.8455  -14.6637   18.6726 N   0  0  0  0  0  0  0  0  0  0  0  0
    9.0673  -14.5155   23.1444 C   0  0  0  0  0  0  0  0  0  0  0  0
   10.1601  -15.0637   23.5257 O   0  0  0  0  0  0  0  0  0  0  0  0
    8.0648  -14.3551   24.1131 N   0  0  0  0  0  0  0  0  0  0  0  0
    6.6808  -14.0314   23.8912 C   0  0  0  0  0  0  0  0  0  0  0  0
    6.2362  -13.2206   25.0969 C   0  0  0  0  0  0  0  0  0  0  0  0
    7.3553  -13.3491   26.0819 C   0  0  0  0  0  0  0  0  0  0  0  0
    8.2374  -14.4694   25.5435 C   0  0  1  0  0  0  0  0  0  0  0  0
    7.6875  -15.8023   25.9468 C   0  0  0  0  0  0  0  0  0  0  0  0
    6.8698  -16.4427   25.2064 O   0  0  0  0  0  0  0  0  0  0  0  0
    8.0325  -16.4419   27.1676 N   0  0  0  0  0  0  0  0  0  0  0  0
    8.7602  -17.7169   27.1891 C   0  0  1  0  0  0  0  0  0  0  0  0
    9.5473  -17.8700   28.4443 C   0  0  0  0  0  0  0  0  0  0  0  0
   10.1522  -19.2061   28.5150 C   0  0  0  0  0  0  0  0  0  0  0  0
   10.6913  -19.7105   27.4999 O   0  0  0  0  0  0  0  0  0  0  0  0
    7.7724  -18.7936   27.0703 C   0  0  0  0  0  0  0  0  0  0  0  0
    8.1149  -19.9221   26.6696 O   0  0  0  0  0  0  0  0  0  0  0  0
   10.1637  -19.9718   29.6798 O   0  0  0  0  0  0  0  0  0  0  0  0
    6.4527  -18.5714   27.4002 O   0  0  0  0  0  0  0  0  0  0  0  0
  2  1  1  6
  3  2  1  0
  4  3  1  0
  5  4  2  0
  6  5  1  0
  7  6  1  0
  7  8  2  0
  8  4  1  0
  9  2  1  0
  9 11  1  0
 10  9  2  0
 11 15  1  0
 12 11  1  0
 12 13  1  0
 13 14  1  0
 15 16  1  1
 15 14  1  0
 16 17  2  0
 18 19  1  0
 18 16  1  0
 20 21  1  0
 19 20  1  1
 21 25  1  0
 22 21  2  0
 23 19  1  0
 24 23  2  0
 26 23  1  0
M  END
$$$$
