HPD.pdb
     RDKit          3D

 26 27  0  0  1  0  0  0  0  0999 V2000
    8.3989  -14.0740   20.8773 N   0  0  0  0  0  0  0  0  0  0  0  0
    7.5356  -13.8061   22.0406 C   0  0  1  0  0  0  0  0  0  0  0  0
    6.2766  -14.5859   21.9536 C   0  0  0  0  0  0  0  0  0  0  0  0
    6.4078  -16.0435   22.0045 C   0  0  0  0  0  0  0  0  0  0  0  0
    6.4505  -16.8706   23.0881 C   0  0  0  0  0  0  0  0  0  0  0  0
    6.5889  -18.1618   22.6953 N   0  0  0  0  0  0  0  0  0  0  0  0
    6.6301  -18.1088   21.3546 C   0  0  0  0  0  0  0  0  0  0  0  0
    6.5224  -16.8409   20.9224 N   0  0  0  0  0  0  0  0  0  0  0  0
    8.2753  -13.8719   23.2958 C   0  0  0  0  0  0  0  0  0  0  0  0
    9.4989  -14.2443   23.2285 O   0  0  0  0  0  0  0  0  0  0  0  0
    7.7734  -13.5648   24.5697 N   0  0  0  0  0  0  0  0  0  0  0  0
    6.4699  -13.0494   24.8930 C   0  0  0  0  0  0  0  0  0  0  0  0
    6.6521  -12.1763   26.1232 C   0  0  0  0  0  0  0  0  0  0  0  0
    8.0453  -12.4563   26.5918 C   0  0  0  0  0  0  0  0  0  0  0  0
    8.4876  -13.6937   25.8197 C   0  0  1  0  0  0  0  0  0  0  0  0
    7.9796  -14.9325   26.4896 C   0  0  0  0  0  0  0  0  0  0  0  0
    6.8494  -15.4422   26.1899 O   0  0  0  0  0  0  0  0  0  0  0  0
    8.7105  -15.6212   27.4947 N   0  0  0  0  0  0  0  0  0  0  0  0
    9.4940  -16.8243   27.1880 C   0  0  1  0  0  0  0  0  0  0  0  0
   10.4651  -16.5721   26.0872 C   0  0  0  0  0  0  0  0  0  0  0  0
   11.2824  -17.7657   25.8357 C   0  0  0  0  0  0  0  0  0  0  0  0
   11.1427  -18.7893   26.5486 O   0  0  0  0  0  0  0  0  0  0  0  0
   10.1988  -17.2185   28.4115 C   0  0  0  0  0  0  0  0  0  0  0  0
   10.0459  -18.3594   28.8875 O   0  0  0  0  0  0  0  0  0  0  0  0
   12.2345  -17.8316   24.8196 O   0  0  0  0  0  0  0  0  0  0  0  0
   11.0393  -16.3327   29.0506 O   0  0  0  0  0  0  0  0  0  0  0  0
  2  1  1  6
  3  2  1  0
  4  3  1  0
  5  4  2  0
  6  5  1  0
  7  6  1  0
  7  8  2  0
  8  4  1  0
  9  2  1  0
  9 11  1  0
 10  9  2  0
 11 15  1  0
 12 11  1  0
 12 13  1  0
 13 14  1  0
 15 16  1  1
 15 14  1  0
 16 17  2  0
 18 19  1  0
 18 16  1  0
 20 21  1  0
 19 20  1  6
 21 25  1  0
 22 21  2  0
 23 19  1  0
 24 23  2  0
 26 23  1  0
M  END
$$$$
