HPD.pdb
     RDKit          3D

 26 27  0  0  1  0  0  0  0  0999 V2000
    6.9428  -14.6588   21.7897 N   0  0  0  0  0  0  0  0  0  0  0  0
    7.8253  -15.6944   21.2248 C   0  0  1  0  0  0  0  0  0  0  0  0
    8.8984  -15.0820   20.4037 C   0  0  0  0  0  0  0  0  0  0  0  0
    8.4651  -14.2808   19.2572 C   0  0  0  0  0  0  0  0  0  0  0  0
    8.0247  -12.9905   19.2208 C   0  0  0  0  0  0  0  0  0  0  0  0
    7.7129  -12.6303   17.9505 N   0  0  0  0  0  0  0  0  0  0  0  0
    7.9701  -13.7218   17.2127 C   0  0  0  0  0  0  0  0  0  0  0  0
    8.4237  -14.7246   17.9839 N   0  0  0  0  0  0  0  0  0  0  0  0
    8.2294  -16.6734   22.2276 C   0  0  0  0  0  0  0  0  0  0  0  0
    8.1884  -16.2996   23.4519 O   0  0  0  0  0  0  0  0  0  0  0  0
    8.6577  -17.9860   21.9776 N   0  0  0  0  0  0  0  0  0  0  0  0
    8.7801  -18.6356   20.6999 C   0  0  0  0  0  0  0  0  0  0  0  0
    8.4848  -20.1064   20.9417 C   0  0  0  0  0  0  0  0  0  0  0  0
    8.4591  -20.2548   22.4304 C   0  0  0  0  0  0  0  0  0  0  0  0
    9.0481  -18.9582   22.9735 C   0  0  1  0  0  0  0  0  0  0  0  0
   10.5438  -19.0224   22.9614 C   0  0  0  0  0  0  0  0  0  0  0  0
   11.2137  -18.8635   21.8876 O   0  0  0  0  0  0  0  0  0  0  0  0
   11.3152  -19.2618   24.1302 N   0  0  0  0  0  0  0  0  0  0  0  0
   12.7818  -19.1975   24.1104 C   0  0  1  0  0  0  0  0  0  0  0  0
   13.3309  -18.9371   25.4702 C   0  0  0  0  0  0  0  0  0  0  0  0
   14.7989  -18.9326   25.4425 C   0  0  0  0  0  0  0  0  0  0  0  0
   15.4103  -18.7024   24.3707 O   0  0  0  0  0  0  0  0  0  0  0  0
   13.2752  -20.4787   23.5963 C   0  0  0  0  0  0  0  0  0  0  0  0
   12.5525  -21.4926   23.6317 O   0  0  0  0  0  0  0  0  0  0  0  0
   15.5788  -19.1764   26.5720 O   0  0  0  0  0  0  0  0  0  0  0  0
   14.5441  -20.5781   23.0676 O   0  0  0  0  0  0  0  0  0  0  0  0
  2  1  1  1
  3  2  1  0
  4  3  1  0
  5  4  2  0
  6  5  1  0
  7  6  1  0
  7  8  2  0
  8  4  1  0
  9  2  1  0
  9 11  1  0
 10  9  2  0
 11 15  1  0
 12 11  1  0
 12 13  1  0
 13 14  1  0
 15 16  1  6
 15 14  1  0
 16 17  2  0
 18 19  1  0
 18 16  1  0
 20 21  1  0
 19 20  1  1
 21 25  1  0
 22 21  2  0
 23 19  1  0
 24 23  2  0
 26 23  1  0
M  END
$$$$
