ENQ.pdb
     RDKit          3D

 27 26  0  0  1  0  0  0  0  0999 V2000
   10.6207  -15.1892   18.4786 N   0  0  0  0  0  0  0  0  0  0  0  0
    9.3108  -14.7187   18.7451 C   0  0  1  0  0  0  0  0  0  0  0  0
    8.3122  -14.8103   17.6573 C   0  0  0  0  0  0  0  0  0  0  0  0
    8.2309  -13.7184   16.6730 C   0  0  0  0  0  0  0  0  0  0  0  0
    8.0371  -14.0452   15.2768 C   0  0  0  0  0  0  0  0  0  0  0  0
    7.2731  -14.9100   14.8081 O   0  0  0  0  0  0  0  0  0  0  0  0
    8.7565  -15.5119   19.9152 C   0  0  0  0  0  0  0  0  0  0  0  0
    7.5965  -15.9328   19.7909 O   0  0  0  0  0  0  0  0  0  0  0  0
    8.7800  -13.3223   14.3216 O   0  0  0  0  0  0  0  0  0  0  0  0
   11.5043  -18.8275   21.0335 N   0  0  0  0  0  0  0  0  0  0  0  0
   10.9449  -18.1485   22.1384 C   0  0  0  0  0  0  0  0  0  0  0  0
   11.7842  -17.7213   23.0062 O   0  0  0  0  0  0  0  0  0  0  0  0
    9.4936  -17.9265   22.3162 C   0  0  0  0  0  0  0  0  0  0  0  0
    9.1376  -16.4714   22.1954 C   0  0  2  0  0  0  0  0  0  0  0  0
    9.4921  -15.7577   21.0563 N   0  0  0  0  0  0  0  0  0  0  0  0
    9.3168  -15.6901   23.4292 C   0  0  0  0  0  0  0  0  0  0  0  0
   10.4032  -15.0463   23.5389 O   0  0  0  0  0  0  0  0  0  0  0  0
    5.2189  -12.4473   26.8148 N   0  0  0  0  0  0  0  0  0  0  0  0
    6.3724  -11.7955   26.3095 C   0  0  0  0  0  0  0  0  0  0  0  0
    6.3321  -10.5344   26.2043 O   0  0  0  0  0  0  0  0  0  0  0  0
    7.5660  -12.5627   25.9329 C   0  0  0  0  0  0  0  0  0  0  0  0
    7.4973  -14.0337   26.0583 C   0  0  0  0  0  0  0  0  0  0  0  0
    8.7202  -14.7663   25.6523 C   0  0  2  0  0  0  0  0  0  0  0  0
    8.3843  -15.6118   24.4704 N   0  0  0  0  0  0  0  0  0  0  0  0
    9.2748  -15.6431   26.6715 C   0  0  0  0  0  0  0  0  0  0  0  0
    9.3388  -17.0316   26.5087 O   0  0  0  0  0  0  0  0  0  0  0  0
    9.7225  -15.1731   27.7764 O   0  0  0  0  0  0  0  0  0  0  0  0
  2  7  1  0
  2  1  1  6
  3  2  1  0
  4  3  1  0
  5  6  2  0
  5  4  1  0
  7  8  2  0
  9  5  1  0
 11 10  1  0
 11 13  1  0
 12 11  2  0
 14 13  1  1
 15 14  1  0
 15  7  1  0
 16 17  2  0
 16 14  1  0
 18 19  1  0
 19 20  2  0
 19 21  1  0
 21 22  1  0
 23 22  1  1
 23 24  1  0
 24 16  1  0
 25 23  1  0
 25 26  1  0
 27 25  2  0
M  END
$$$$
