ENQ.pdb
     RDKit          3D

 27 26  0  0  1  0  0  0  0  0999 V2000
   13.0345  -17.2915   19.4879 N   0  0  0  0  0  0  0  0  0  0  0  0
   13.3382  -16.2147   20.3577 C   0  0  1  0  0  0  0  0  0  0  0  0
   13.3335  -14.8488   19.7892 C   0  0  0  0  0  0  0  0  0  0  0  0
   14.0211  -14.6089   18.5096 C   0  0  0  0  0  0  0  0  0  0  0  0
   15.3451  -14.0253   18.5231 C   0  0  0  0  0  0  0  0  0  0  0  0
   15.8384  -13.3056   19.4119 O   0  0  0  0  0  0  0  0  0  0  0  0
   12.3220  -16.2221   21.4858 C   0  0  0  0  0  0  0  0  0  0  0  0
   12.2728  -15.1990   22.1852 O   0  0  0  0  0  0  0  0  0  0  0  0
   16.1899  -14.2829   17.4245 O   0  0  0  0  0  0  0  0  0  0  0  0
    8.5404  -19.0309   20.3271 N   0  0  0  0  0  0  0  0  0  0  0  0
    8.5846  -18.2783   21.5215 C   0  0  0  0  0  0  0  0  0  0  0  0
    7.7466  -17.3128   21.5967 O   0  0  0  0  0  0  0  0  0  0  0  0
    9.5208  -18.5558   22.6321 C   0  0  0  0  0  0  0  0  0  0  0  0
   10.5711  -17.4873   22.7503 C   0  0  2  0  0  0  0  0  0  0  0  0
   11.4944  -17.2992   21.7283 N   0  0  0  0  0  0  0  0  0  0  0  0
   11.1753  -17.3642   24.0862 C   0  0  0  0  0  0  0  0  0  0  0  0
   12.3300  -17.8659   24.2338 O   0  0  0  0  0  0  0  0  0  0  0  0
   10.9961  -12.9042   28.4897 N   0  0  0  0  0  0  0  0  0  0  0  0
    9.8364  -13.5245   27.9596 C   0  0  0  0  0  0  0  0  0  0  0  0
    8.7402  -12.8993   28.0625 O   0  0  0  0  0  0  0  0  0  0  0  0
    9.9162  -14.8389   27.3106 C   0  0  0  0  0  0  0  0  0  0  0  0
   11.2629  -15.3912   27.0548 C   0  0  0  0  0  0  0  0  0  0  0  0
   11.2937  -16.7609   26.4891 C   0  0  2  0  0  0  0  0  0  0  0  0
   10.5710  -16.7410   25.1845 N   0  0  0  0  0  0  0  0  0  0  0  0
   10.6683  -17.7793   27.3178 C   0  0  0  0  0  0  0  0  0  0  0  0
   11.2630  -18.2572   28.4911 O   0  0  0  0  0  0  0  0  0  0  0  0
    9.5390  -18.2925   26.9961 O   0  0  0  0  0  0  0  0  0  0  0  0
  2  7  1  0
  2  1  1  6
  3  2  1  0
  4  3  1  0
  5  6  2  0
  5  4  1  0
  7  8  2  0
  9  5  1  0
 11 10  1  0
 11 13  1  0
 12 11  2  0
 14 13  1  6
 15 14  1  0
 15  7  1  0
 16 17  2  0
 16 14  1  0
 18 19  1  0
 19 20  2  0
 19 21  1  0
 21 22  1  0
 23 22  1  1
 23 24  1  0
 24 16  1  0
 25 23  1  0
 25 26  1  0
 27 25  2  0
M  END
$$$$
