ENQ.pdb
     RDKit          3D

 27 26  0  0  1  0  0  0  0  0999 V2000
    9.5011  -13.6634   18.0988 N   0  0  0  0  0  0  0  0  0  0  0  0
    9.7298  -15.0521   17.9344 C   0  0  1  0  0  0  0  0  0  0  0  0
   11.0445  -15.4747   17.4032 C   0  0  0  0  0  0  0  0  0  0  0  0
   12.2677  -14.9552   18.0369 C   0  0  0  0  0  0  0  0  0  0  0  0
   13.5545  -15.3384   17.4973 C   0  0  0  0  0  0  0  0  0  0  0  0
   14.4465  -15.9879   18.0749 O   0  0  0  0  0  0  0  0  0  0  0  0
    9.5721  -15.7171   19.2903 C   0  0  0  0  0  0  0  0  0  0  0  0
    9.9108  -15.0420   20.2740 O   0  0  0  0  0  0  0  0  0  0  0  0
   13.8580  -14.9482   16.1772 O   0  0  0  0  0  0  0  0  0  0  0  0
    6.9022  -19.6799   22.6849 N   0  0  0  0  0  0  0  0  0  0  0  0
    8.0689  -19.6666   21.8890 C   0  0  0  0  0  0  0  0  0  0  0  0
    9.0915  -20.2447   22.3991 O   0  0  0  0  0  0  0  0  0  0  0  0
    8.1434  -19.0378   20.5525 C   0  0  0  0  0  0  0  0  0  0  0  0
    8.9445  -17.7665   20.5832 C   0  0  2  0  0  0  0  0  0  0  0  0
    9.0803  -16.9984   19.4325 N   0  0  0  0  0  0  0  0  0  0  0  0
   10.1915  -17.8442   21.3601 C   0  0  0  0  0  0  0  0  0  0  0  0
   11.1030  -18.5921   20.8944 O   0  0  0  0  0  0  0  0  0  0  0  0
   14.2915  -14.2881   21.1107 N   0  0  0  0  0  0  0  0  0  0  0  0
   14.8410  -15.5314   21.5143 C   0  0  0  0  0  0  0  0  0  0  0  0
   16.0710  -15.7282   21.2870 O   0  0  0  0  0  0  0  0  0  0  0  0
   14.0084  -16.5425   22.1773 C   0  0  0  0  0  0  0  0  0  0  0  0
   12.6248  -16.1605   22.5294 C   0  0  0  0  0  0  0  0  0  0  0  0
   11.8037  -17.2315   23.1425 C   0  0  2  0  0  0  0  0  0  0  0  0
   10.4339  -17.1595   22.5568 N   0  0  0  0  0  0  0  0  0  0  0  0
   11.6646  -17.1444   24.5875 C   0  0  0  0  0  0  0  0  0  0  0  0
   12.7188  -17.4403   25.4592 O   0  0  0  0  0  0  0  0  0  0  0  0
   10.5541  -16.7988   25.1257 O   0  0  0  0  0  0  0  0  0  0  0  0
  2  7  1  0
  2  1  1  1
  3  2  1  0
  4  3  1  0
  5  6  2  0
  5  4  1  0
  7  8  2  0
  9  5  1  0
 11 10  1  0
 11 13  1  0
 12 11  2  0
 14 13  1  6
 15 14  1  0
 15  7  1  0
 16 17  2  0
 16 14  1  0
 18 19  1  0
 19 20  2  0
 19 21  1  0
 21 22  1  0
 23 22  1  6
 23 24  1  0
 24 16  1  0
 25 23  1  0
 25 26  1  0
 27 25  2  0
M  END
$$$$
