ENQ.pdb
     RDKit          3D

 27 26  0  0  1  0  0  0  0  0999 V2000
    8.4633  -12.5974   19.5126 N   0  0  0  0  0  0  0  0  0  0  0  0
    7.5812  -13.4395   20.2343 C   0  0  1  0  0  0  0  0  0  0  0  0
    7.4372  -14.8390   19.7762 C   0  0  0  0  0  0  0  0  0  0  0  0
    8.6262  -15.7071   19.7584 C   0  0  0  0  0  0  0  0  0  0  0  0
    8.5086  -17.0472   19.2255 C   0  0  0  0  0  0  0  0  0  0  0  0
    9.0273  -18.0837   19.6813 O   0  0  0  0  0  0  0  0  0  0  0  0
    8.0610  -13.4979   21.6737 C   0  0  0  0  0  0  0  0  0  0  0  0
    9.2896  -13.5277   21.8405 O   0  0  0  0  0  0  0  0  0  0  0  0
    7.7282  -17.2289   18.0658 O   0  0  0  0  0  0  0  0  0  0  0  0
    8.3322  -13.2991   26.7890 N   0  0  0  0  0  0  0  0  0  0  0  0
    7.0846  -12.7449   26.4263 C   0  0  0  0  0  0  0  0  0  0  0  0
    6.4094  -12.2309   27.3854 O   0  0  0  0  0  0  0  0  0  0  0  0
    6.5599  -12.7398   25.0436 C   0  0  0  0  0  0  0  0  0  0  0  0
    7.4667  -13.4852   24.1051 C   0  0  2  0  0  0  0  0  0  0  0  0
    7.1895  -13.5162   22.7432 N   0  0  0  0  0  0  0  0  0  0  0  0
    7.9467  -14.7801   24.6128 C   0  0  0  0  0  0  0  0  0  0  0  0
    7.2819  -15.8038   24.2710 O   0  0  0  0  0  0  0  0  0  0  0  0
   11.8821  -18.8386   23.2604 N   0  0  0  0  0  0  0  0  0  0  0  0
   12.5522  -18.1314   24.2908 C   0  0  0  0  0  0  0  0  0  0  0  0
   13.7342  -18.4882   24.5713 O   0  0  0  0  0  0  0  0  0  0  0  0
   11.8940  -17.0236   24.9941 C   0  0  0  0  0  0  0  0  0  0  0  0
   10.5316  -16.6534   24.5568 C   0  0  0  0  0  0  0  0  0  0  0  0
    9.5756  -16.3396   25.6453 C   0  0  2  0  0  0  0  0  0  0  0  0
    9.0682  -14.9533   25.4325 N   0  0  0  0  0  0  0  0  0  0  0  0
   10.1350  -16.3976   26.9865 C   0  0  0  0  0  0  0  0  0  0  0  0
   10.2085  -17.5903   27.7148 O   0  0  0  0  0  0  0  0  0  0  0  0
   10.5784  -15.3433   27.5646 O   0  0  0  0  0  0  0  0  0  0  0  0
  2  7  1  0
  2  1  1  6
  3  2  1  0
  4  3  1  0
  5  6  2  0
  5  4  1  0
  7  8  2  0
  9  5  1  0
 11 10  1  0
 11 13  1  0
 12 11  2  0
 14 13  1  1
 15 14  1  0
 15  7  1  0
 16 17  2  0
 16 14  1  0
 18 19  1  0
 19 20  2  0
 19 21  1  0
 21 22  1  0
 23 22  1  6
 23 24  1  0
 24 16  1  0
 25 23  1  0
 25 26  1  0
 27 25  2  0
M  END
$$$$
