ENQ.pdb
     RDKit          3D

 27 26  0  0  1  0  0  0  0  0999 V2000
   10.0908  -15.7208   14.1158 N   0  0  0  0  0  0  0  0  0  0  0  0
   10.3844  -16.6118   15.1779 C   0  0  1  0  0  0  0  0  0  0  0  0
   11.6793  -17.3266   15.1382 C   0  0  0  0  0  0  0  0  0  0  0  0
   12.7768  -16.7654   14.3331 C   0  0  0  0  0  0  0  0  0  0  0  0
   13.8680  -17.6287   13.9358 C   0  0  0  0  0  0  0  0  0  0  0  0
   14.9290  -17.8300   14.5563 O   0  0  0  0  0  0  0  0  0  0  0  0
   10.3613  -15.8208   16.4737 C   0  0  0  0  0  0  0  0  0  0  0  0
   11.4409  -15.3277   16.8336 O   0  0  0  0  0  0  0  0  0  0  0  0
   13.7437  -18.3306   12.7197 O   0  0  0  0  0  0  0  0  0  0  0  0
    7.9016  -12.1117   19.8838 N   0  0  0  0  0  0  0  0  0  0  0  0
    7.6482  -13.5012   19.8825 C   0  0  0  0  0  0  0  0  0  0  0  0
    7.4186  -14.0213   21.0300 O   0  0  0  0  0  0  0  0  0  0  0  0
    7.6401  -14.3327   18.6595 C   0  0  0  0  0  0  0  0  0  0  0  0
    9.0044  -14.8866   18.3582 C   0  0  2  0  0  0  0  0  0  0  0  0
    9.2109  -15.6525   17.2166 N   0  0  0  0  0  0  0  0  0  0  0  0
    9.7272  -15.4106   19.5276 C   0  0  0  0  0  0  0  0  0  0  0  0
    9.7368  -16.6702   19.6695 O   0  0  0  0  0  0  0  0  0  0  0  0
   15.6901  -16.8798   21.1811 N   0  0  0  0  0  0  0  0  0  0  0  0
   14.7776  -15.8740   20.7732 C   0  0  0  0  0  0  0  0  0  0  0  0
   15.2612  -14.7928   20.3257 O   0  0  0  0  0  0  0  0  0  0  0  0
   13.3286  -16.0913   20.8631 C   0  0  0  0  0  0  0  0  0  0  0  0
   12.5224  -15.0416   21.5207 C   0  0  0  0  0  0  0  0  0  0  0  0
   11.0687  -15.3169   21.6117 C   0  0  2  0  0  0  0  0  0  0  0  0
   10.3930  -14.6252   20.4761 N   0  0  0  0  0  0  0  0  0  0  0  0
   10.4352  -14.8604   22.8386 C   0  0  0  0  0  0  0  0  0  0  0  0
   10.7156  -15.4355   24.0833 O   0  0  0  0  0  0  0  0  0  0  0  0
    9.5771  -13.9087   22.8258 O   0  0  0  0  0  0  0  0  0  0  0  0
  2  7  1  0
  2  1  1  6
  3  2  1  0
  4  3  1  0
  5  6  2  0
  5  4  1  0
  7  8  2  0
  9  5  1  0
 11 10  1  0
 11 13  1  0
 12 11  2  0
 14 13  1  1
 15 14  1  0
 15  7  1  0
 16 17  2  0
 16 14  1  0
 18 19  1  0
 19 20  2  0
 19 21  1  0
 21 22  1  0
 23 22  1  1
 23 24  1  0
 24 16  1  0
 25 23  1  0
 25 26  1  0
 27 25  2  0
M  END
$$$$
