ENQ.pdb
     RDKit          3D

 27 26  0  0  1  0  0  0  0  0999 V2000
   14.9111  -19.9967   21.3801 N   0  0  0  0  0  0  0  0  0  0  0  0
   15.0433  -18.6028   21.1617 C   0  0  1  0  0  0  0  0  0  0  0  0
   15.1058  -18.1286   19.7617 C   0  0  0  0  0  0  0  0  0  0  0  0
   14.5932  -19.0009   18.6920 C   0  0  0  0  0  0  0  0  0  0  0  0
   14.6694  -18.5476   17.3200 C   0  0  0  0  0  0  0  0  0  0  0  0
   15.1273  -17.4632   16.9128 O   0  0  0  0  0  0  0  0  0  0  0  0
   13.8533  -17.9125   21.8043 C   0  0  0  0  0  0  0  0  0  0  0  0
   13.8403  -16.6738   21.7433 O   0  0  0  0  0  0  0  0  0  0  0  0
   14.1805  -19.4059   16.3144 O   0  0  0  0  0  0  0  0  0  0  0  0
    9.3995  -17.7914   20.8126 N   0  0  0  0  0  0  0  0  0  0  0  0
    9.9671  -18.8855   21.5023 C   0  0  0  0  0  0  0  0  0  0  0  0
   10.1022  -19.9593   20.8176 O   0  0  0  0  0  0  0  0  0  0  0  0
   10.3890  -18.8331   22.9187 C   0  0  0  0  0  0  0  0  0  0  0  0
   11.7093  -18.1325   23.0771 C   0  0  2  0  0  0  0  0  0  0  0  0
   12.8378  -18.6127   22.4226 N   0  0  0  0  0  0  0  0  0  0  0  0
   12.0020  -17.6743   24.4442 C   0  0  0  0  0  0  0  0  0  0  0  0
   12.9728  -18.2367   25.0342 O   0  0  0  0  0  0  0  0  0  0  0  0
    9.7541  -12.6452   27.7069 N   0  0  0  0  0  0  0  0  0  0  0  0
    9.7404  -13.7641   28.5780 C   0  0  0  0  0  0  0  0  0  0  0  0
    9.1544  -13.6300   29.6924 O   0  0  0  0  0  0  0  0  0  0  0  0
   10.3776  -15.0282   28.1893 C   0  0  0  0  0  0  0  0  0  0  0  0
   11.0948  -15.0599   26.8975 C   0  0  0  0  0  0  0  0  0  0  0  0
   11.6872  -16.3677   26.5288 C   0  0  2  0  0  0  0  0  0  0  0  0
   11.2932  -16.6765   25.1238 N   0  0  0  0  0  0  0  0  0  0  0  0
   11.2632  -17.4863   27.3558 C   0  0  0  0  0  0  0  0  0  0  0  0
   10.2314  -18.3506   26.9723 O   0  0  0  0  0  0  0  0  0  0  0  0
   11.8180  -17.7207   28.4869 O   0  0  0  0  0  0  0  0  0  0  0  0
  2  7  1  0
  2  1  1  6
  3  2  1  0
  4  3  1  0
  5  6  2  0
  5  4  1  0
  7  8  2  0
  9  5  1  0
 11 10  1  0
 11 13  1  0
 12 11  2  0
 14 13  1  1
 15 14  1  0
 15  7  1  0
 16 17  2  0
 16 14  1  0
 18 19  1  0
 19 20  2  0
 19 21  1  0
 21 22  1  0
 23 22  1  1
 23 24  1  0
 24 16  1  0
 25 23  1  0
 25 26  1  0
 27 25  2  0
M  END
$$$$
