FFW.pdb
     RDKit          3D

 37 40  0  0  1  0  0  0  0  0999 V2000
    9.4787  -18.0908   18.8687 N   0  0  0  0  0  0  0  0  0  0  0  0
    9.4988  -16.6529   18.9088 C   0  0  1  0  0  0  0  0  0  0  0  0
    8.2613  -16.0999   18.2328 C   0  0  0  0  0  0  0  0  0  0  0  0
    8.1060  -14.6845   18.6460 C   0  0  0  0  0  0  0  0  0  0  0  0
    7.0918  -14.4032   19.5379 C   0  0  0  0  0  0  0  0  0  0  0  0
    6.9332  -13.0942   19.9371 C   0  0  0  0  0  0  0  0  0  0  0  0
    7.7692  -12.0995   19.4538 C   0  0  0  0  0  0  0  0  0  0  0  0
    8.7796  -12.3884   18.5637 C   0  0  0  0  0  0  0  0  0  0  0  0
    8.9540  -13.6896   18.1530 C   0  0  0  0  0  0  0  0  0  0  0  0
    9.5947  -16.2136   20.3190 C   0  0  0  0  0  0  0  0  0  0  0  0
   10.3814  -15.2718   20.6684 O   0  0  0  0  0  0  0  0  0  0  0  0
    8.8099  -16.8303   21.3264 N   0  0  0  0  0  0  0  0  0  0  0  0
    8.7804  -16.2605   22.6978 C   0  0  1  0  0  0  0  0  0  0  0  0
    7.3415  -15.9363   22.9554 C   0  0  0  0  0  0  0  0  0  0  0  0
    7.0265  -15.2526   24.1999 C   0  0  0  0  0  0  0  0  0  0  0  0
    6.7633  -16.0110   25.3523 C   0  0  0  0  0  0  0  0  0  0  0  0
    6.4949  -15.4034   26.5547 C   0  0  0  0  0  0  0  0  0  0  0  0
    6.4703  -14.0354   26.6903 C   0  0  0  0  0  0  0  0  0  0  0  0
    6.7216  -13.2796   25.5902 C   0  0  0  0  0  0  0  0  0  0  0  0
    6.9913  -13.8850   24.3815 C   0  0  0  0  0  0  0  0  0  0  0  0
    9.2954  -17.3003   23.6070 C   0  0  0  0  0  0  0  0  0  0  0  0
    9.2219  -18.5199   23.2156 O   0  0  0  0  0  0  0  0  0  0  0  0
    9.8689  -17.0496   24.8737 N   0  0  0  0  0  0  0  0  0  0  0  0
   10.9784  -17.8695   25.3287 C   0  0  1  0  0  0  0  0  0  0  0  0
   11.9742  -17.0318   26.0724 C   0  0  0  0  0  0  0  0  0  0  0  0
   11.4312  -16.5079   27.3230 C   0  0  0  0  0  0  0  0  0  0  0  0
   11.2764  -17.2318   28.5048 C   0  0  0  0  0  0  0  0  0  0  0  0
   10.7127  -16.4554   29.4400 N   0  0  0  0  0  0  0  0  0  0  0  0
   10.4807  -15.2367   28.9417 C   0  0  0  0  0  0  0  0  0  0  0  0
    9.9394  -14.1237   29.5424 C   0  0  0  0  0  0  0  0  0  0  0  0
    9.8316  -12.9575   28.7926 C   0  0  0  0  0  0  0  0  0  0  0  0
   10.2723  -12.9663   27.4778 C   0  0  0  0  0  0  0  0  0  0  0  0
   10.8098  -14.0944   26.8997 C   0  0  0  0  0  0  0  0  0  0  0  0
   10.9240  -15.2496   27.6174 C   0  0  0  0  0  0  0  0  0  0  0  0
   10.6070  -19.0754   26.0521 C   0  0  0  0  0  0  0  0  0  0  0  0
   11.4705  -19.9525   26.3534 O   0  0  0  0  0  0  0  0  0  0  0  0
    9.2719  -19.2709   26.4232 O   0  0  0  0  0  0  0  0  0  0  0  0
  2  1  1  1
  2  3  1  0
  4  3  1  0
  4  5  2  0
  6  5  1  0
  7  6  2  0
  8  9  2  0
  8  7  1  0
  9  4  1  0
 10 11  2  0
 10  2  1  0
 12 10  1  0
 13 21  1  0
 13 12  1  0
 13 14  1  1
 15 14  1  0
 15 16  2  0
 17 16  1  0
 18 17  2  0
 19 20  2  0
 19 18  1  0
 20 15  1  0
 21 22  2  0
 23 24  1  0
 23 21  1  0
 24 25  1  1
 25 26  1  0
 26 34  1  0
 26 27  2  0
 27 28  1  0
 29 28  1  0
 29 30  2  0
 31 30  1  0
 32 31  2  0
 33 32  1  0
 33 34  2  0
 34 29  1  0
 35 24  1  0
 36 35  2  0
 37 35  1  0
M  END
$$$$
