FFW.pdb
     RDKit          3D

 37 40  0  0  1  0  0  0  0  0999 V2000
    8.3719  -17.3291   18.9396 N   0  0  0  0  0  0  0  0  0  0  0  0
    9.6638  -16.7158   19.0958 C   0  0  1  0  0  0  0  0  0  0  0  0
    9.8094  -15.5633   18.1238 C   0  0  0  0  0  0  0  0  0  0  0  0
    8.9617  -14.4464   18.6054 C   0  0  0  0  0  0  0  0  0  0  0  0
    7.6523  -14.4255   18.1714 C   0  0  0  0  0  0  0  0  0  0  0  0
    6.8470  -13.3976   18.6106 C   0  0  0  0  0  0  0  0  0  0  0  0
    7.3441  -12.4213   19.4601 C   0  0  0  0  0  0  0  0  0  0  0  0
    8.6524  -12.4491   19.8892 C   0  0  0  0  0  0  0  0  0  0  0  0
    9.4724  -13.4675   19.4616 C   0  0  0  0  0  0  0  0  0  0  0  0
    9.8171  -16.2709   20.4991 C   0  0  0  0  0  0  0  0  0  0  0  0
   10.9152  -15.7783   20.9227 O   0  0  0  0  0  0  0  0  0  0  0  0
    8.7414  -16.3798   21.4168 N   0  0  0  0  0  0  0  0  0  0  0  0
    8.8809  -15.8374   22.7926 C   0  0  1  0  0  0  0  0  0  0  0  0
    7.5205  -15.3247   23.1503 C   0  0  0  0  0  0  0  0  0  0  0  0
    7.3888  -14.6131   24.4121 C   0  0  0  0  0  0  0  0  0  0  0  0
    7.0221  -15.3241   25.5663 C   0  0  0  0  0  0  0  0  0  0  0  0
    6.9197  -14.6956   26.7834 C   0  0  0  0  0  0  0  0  0  0  0  0
    7.1683  -13.3515   26.9326 C   0  0  0  0  0  0  0  0  0  0  0  0
    7.5246  -12.6416   25.8309 C   0  0  0  0  0  0  0  0  0  0  0  0
    7.6285  -13.2681   24.6074 C   0  0  0  0  0  0  0  0  0  0  0  0
    9.3068  -16.9550   23.6545 C   0  0  0  0  0  0  0  0  0  0  0  0
    9.0494  -18.1457   23.2522 O   0  0  0  0  0  0  0  0  0  0  0  0
    9.9824  -16.8088   24.8867 N   0  0  0  0  0  0  0  0  0  0  0  0
   10.8137  -17.8945   25.3770 C   0  0  1  0  0  0  0  0  0  0  0  0
   11.7931  -17.3837   26.3901 C   0  0  0  0  0  0  0  0  0  0  0  0
   11.1513  -17.0454   27.6576 C   0  0  0  0  0  0  0  0  0  0  0  0
   11.0947  -17.8686   28.7818 C   0  0  0  0  0  0  0  0  0  0  0  0
   10.3972  -17.2621   29.7517 N   0  0  0  0  0  0  0  0  0  0  0  0
    9.9803  -16.0631   29.3320 C   0  0  0  0  0  0  0  0  0  0  0  0
    9.2563  -15.0973   29.9922 C   0  0  0  0  0  0  0  0  0  0  0  0
    8.9750  -13.9119   29.3217 C   0  0  0  0  0  0  0  0  0  0  0  0
    9.4339  -13.7549   28.0226 C   0  0  0  0  0  0  0  0  0  0  0  0
   10.1562  -14.7377   27.3839 C   0  0  0  0  0  0  0  0  0  0  0  0
   10.4427  -15.9088   28.0234 C   0  0  0  0  0  0  0  0  0  0  0  0
   10.0943  -19.0726   25.8354 C   0  0  0  0  0  0  0  0  0  0  0  0
   10.6988  -20.1614   26.0690 O   0  0  0  0  0  0  0  0  0  0  0  0
    8.7092  -19.0027   26.0226 O   0  0  0  0  0  0  0  0  0  0  0  0
  2  1  1  1
  2  3  1  0
  4  3  1  0
  4  5  2  0
  6  5  1  0
  7  6  2  0
  8  9  2  0
  8  7  1  0
  9  4  1  0
 10 11  2  0
 10  2  1  0
 12 10  1  0
 13 21  1  0
 13 12  1  0
 13 14  1  1
 15 14  1  0
 15 16  2  0
 17 16  1  0
 18 17  2  0
 19 20  2  0
 19 18  1  0
 20 15  1  0
 21 22  2  0
 23 24  1  0
 23 21  1  0
 24 25  1  1
 25 26  1  0
 26 34  1  0
 26 27  2  0
 27 28  1  0
 29 28  1  0
 29 30  2  0
 31 30  1  0
 32 31  2  0
 33 32  1  0
 33 34  2  0
 34 29  1  0
 35 24  1  0
 36 35  2  0
 37 35  1  0
M  END
$$$$
