FFW.pdb
     RDKit          3D

 37 40  0  0  1  0  0  0  0  0999 V2000
    8.0624  -21.3827   21.3379 N   0  0  0  0  0  0  0  0  0  0  0  0
    7.1126  -20.3059   21.4263 C   0  0  1  0  0  0  0  0  0  0  0  0
    6.2603  -20.4695   22.6677 C   0  0  0  0  0  0  0  0  0  0  0  0
    5.1619  -19.4756   22.6049 C   0  0  0  0  0  0  0  0  0  0  0  0
    5.1915  -18.4544   23.5320 C   0  0  0  0  0  0  0  0  0  0  0  0
    4.1815  -17.5185   23.4880 C   0  0  0  0  0  0  0  0  0  0  0  0
    3.1733  -17.6076   22.5406 C   0  0  0  0  0  0  0  0  0  0  0  0
    3.1508  -18.6301   21.6183 C   0  0  0  0  0  0  0  0  0  0  0  0
    4.1505  -19.5746   21.6460 C   0  0  0  0  0  0  0  0  0  0  0  0
    7.8447  -19.0196   21.4307 C   0  0  0  0  0  0  0  0  0  0  0  0
    9.0625  -18.9506   21.8050 O   0  0  0  0  0  0  0  0  0  0  0  0
    7.2095  -17.8214   21.0159 N   0  0  0  0  0  0  0  0  0  0  0  0
    7.9999  -16.5713   20.8770 C   0  0  1  0  0  0  0  0  0  0  0  0
    7.0965  -15.6153   20.1619 C   0  0  0  0  0  0  0  0  0  0  0  0
    7.6299  -14.2962   19.8596 C   0  0  0  0  0  0  0  0  0  0  0  0
    7.1038  -13.1748   20.5214 C   0  0  0  0  0  0  0  0  0  0  0  0
    7.6026  -11.9161   20.2892 C   0  0  0  0  0  0  0  0  0  0  0  0
    8.6321  -11.6919   19.4058 C   0  0  0  0  0  0  0  0  0  0  0  0
    9.1580  -12.7605   18.7529 C   0  0  0  0  0  0  0  0  0  0  0  0
    8.6605  -14.0254   18.9827 C   0  0  0  0  0  0  0  0  0  0  0  0
    8.3332  -16.1195   22.2401 C   0  0  0  0  0  0  0  0  0  0  0  0
    8.2154  -14.8678   22.4955 O   0  0  0  0  0  0  0  0  0  0  0  0
    8.7663  -16.9660   23.2851 N   0  0  0  0  0  0  0  0  0  0  0  0
    9.9469  -16.6061   24.0511 C   0  0  1  0  0  0  0  0  0  0  0  0
    9.7714  -15.2541   24.6738 C   0  0  0  0  0  0  0  0  0  0  0  0
    8.4432  -15.0824   25.2566 C   0  0  0  0  0  0  0  0  0  0  0  0
    7.5185  -16.1022   25.4791 C   0  0  0  0  0  0  0  0  0  0  0  0
    6.3912  -15.5871   25.9881 N   0  0  0  0  0  0  0  0  0  0  0  0
    6.5142  -14.2625   26.1206 C   0  0  0  0  0  0  0  0  0  0  0  0
    5.6246  -13.3363   26.6139 C   0  0  0  0  0  0  0  0  0  0  0  0
    6.0208  -12.0043   26.6642 C   0  0  0  0  0  0  0  0  0  0  0  0
    7.2897  -11.6682   26.2172 C   0  0  0  0  0  0  0  0  0  0  0  0
    8.1613  -12.6146   25.7271 C   0  0  0  0  0  0  0  0  0  0  0  0
    7.7922  -13.9272   25.6682 C   0  0  0  0  0  0  0  0  0  0  0  0
   10.4025  -17.6078   25.0022 C   0  0  0  0  0  0  0  0  0  0  0  0
   11.5076  -17.4821   25.6094 O   0  0  0  0  0  0  0  0  0  0  0  0
    9.6059  -18.7310   25.2522 O   0  0  0  0  0  0  0  0  0  0  0  0
  2  1  1  1
  2  3  1  0
  4  3  1  0
  4  5  2  0
  6  5  1  0
  7  6  2  0
  8  9  2  0
  8  7  1  0
  9  4  1  0
 10 11  2  0
 10  2  1  0
 12 10  1  0
 13 21  1  0
 13 12  1  0
 13 14  1  1
 15 14  1  0
 15 16  2  0
 17 16  1  0
 18 17  2  0
 19 20  2  0
 19 18  1  0
 20 15  1  0
 21 22  2  0
 23 24  1  0
 23 21  1  0
 24 25  1  1
 25 26  1  0
 26 34  1  0
 26 27  2  0
 27 28  1  0
 29 28  1  0
 29 30  2  0
 31 30  1  0
 32 31  2  0
 33 32  1  0
 33 34  2  0
 34 29  1  0
 35 24  1  0
 36 35  2  0
 37 35  1  0
M  END
$$$$
