FFW.pdb
     RDKit          3D

 37 40  0  0  1  0  0  0  0  0999 V2000
    8.8878  -18.1684   19.3889 N   0  0  0  0  0  0  0  0  0  0  0  0
    9.0054  -16.7576   19.1327 C   0  0  1  0  0  0  0  0  0  0  0  0
    7.7982  -16.2709   18.3580 C   0  0  0  0  0  0  0  0  0  0  0  0
    7.6432  -14.8188   18.6138 C   0  0  0  0  0  0  0  0  0  0  0  0
    8.4457  -13.9679   17.8824 C   0  0  0  0  0  0  0  0  0  0  0  0
    8.3144  -12.6143   18.1028 C   0  0  0  0  0  0  0  0  0  0  0  0
    7.4038  -12.1323   19.0304 C   0  0  0  0  0  0  0  0  0  0  0  0
    6.6060  -12.9882   19.7567 C   0  0  0  0  0  0  0  0  0  0  0  0
    6.7224  -14.3435   19.5510 C   0  0  0  0  0  0  0  0  0  0  0  0
    9.1512  -16.0464   20.4225 C   0  0  0  0  0  0  0  0  0  0  0  0
    9.4445  -14.8054   20.4662 O   0  0  0  0  0  0  0  0  0  0  0  0
    8.9670  -16.7281   21.6523 N   0  0  0  0  0  0  0  0  0  0  0  0
    9.0544  -15.9835   22.9347 C   0  0  1  0  0  0  0  0  0  0  0  0
    7.6350  -15.7148   23.3280 C   0  0  0  0  0  0  0  0  0  0  0  0
    7.4162  -14.9298   24.5328 C   0  0  0  0  0  0  0  0  0  0  0  0
    6.9083  -15.5604   25.6803 C   0  0  0  0  0  0  0  0  0  0  0  0
    6.7190  -14.8619   26.8479 C   0  0  0  0  0  0  0  0  0  0  0  0
    7.0142  -13.5230   26.9520 C   0  0  0  0  0  0  0  0  0  0  0  0
    7.5067  -12.8902   25.8558 C   0  0  0  0  0  0  0  0  0  0  0  0
    7.6981  -13.5871   24.6819 C   0  0  0  0  0  0  0  0  0  0  0  0
    9.7491  -16.8604   23.8948 C   0  0  0  0  0  0  0  0  0  0  0  0
    9.1971  -17.9829   24.1798 O   0  0  0  0  0  0  0  0  0  0  0  0
   10.9802  -16.5560   24.5175 N   0  0  0  0  0  0  0  0  0  0  0  0
   11.7186  -17.6107   25.1904 C   0  0  1  0  0  0  0  0  0  0  0  0
   12.3605  -17.0827   26.4377 C   0  0  0  0  0  0  0  0  0  0  0  0
   11.3759  -16.6283   27.4160 C   0  0  0  0  0  0  0  0  0  0  0  0
   10.5219  -17.4524   28.1483 C   0  0  0  0  0  0  0  0  0  0  0  0
    9.7237  -16.7035   28.9211 N   0  0  0  0  0  0  0  0  0  0  0  0
   10.0020  -15.4080   28.7438 C   0  0  0  0  0  0  0  0  0  0  0  0
    9.4519  -14.2956   29.3377 C   0  0  0  0  0  0  0  0  0  0  0  0
    9.9509  -13.0463   28.9854 C   0  0  0  0  0  0  0  0  0  0  0  0
   10.9767  -12.9756   28.0550 C   0  0  0  0  0  0  0  0  0  0  0  0
   11.5096  -14.1045   27.4744 C   0  0  0  0  0  0  0  0  0  0  0  0
   11.0341  -15.3402   27.8054 C   0  0  0  0  0  0  0  0  0  0  0  0
   10.9793  -18.8425   25.4172 C   0  0  0  0  0  0  0  0  0  0  0  0
   11.5611  -19.8920   25.8244 O   0  0  0  0  0  0  0  0  0  0  0  0
    9.5999  -18.8697   25.1823 O   0  0  0  0  0  0  0  0  0  0  0  0
  2  1  1  1
  2  3  1  0
  4  3  1  0
  4  5  2  0
  6  5  1  0
  7  6  2  0
  8  9  2  0
  8  7  1  0
  9  4  1  0
 10 11  2  0
 10  2  1  0
 12 10  1  0
 13 21  1  0
 13 12  1  0
 13 14  1  1
 15 14  1  0
 15 16  2  0
 17 16  1  0
 18 17  2  0
 19 20  2  0
 19 18  1  0
 20 15  1  0
 21 22  2  0
 23 24  1  0
 23 21  1  0
 24 25  1  1
 25 26  1  0
 26 34  1  0
 26 27  2  0
 27 28  1  0
 29 28  1  0
 29 30  2  0
 31 30  1  0
 32 31  2  0
 33 32  1  0
 33 34  2  0
 34 29  1  0
 35 24  1  0
 36 35  2  0
 37 35  1  0
M  END
$$$$
