FFW.pdb
     RDKit          3D

 37 40  0  0  1  0  0  0  0  0999 V2000
    9.9123  -20.9439   20.0421 N   0  0  0  0  0  0  0  0  0  0  0  0
    9.3439  -20.3261   21.2104 C   0  0  1  0  0  0  0  0  0  0  0  0
   10.0548  -20.8197   22.4535 C   0  0  0  0  0  0  0  0  0  0  0  0
    9.8570  -22.2863   22.5438 C   0  0  0  0  0  0  0  0  0  0  0  0
    9.1963  -22.8920   21.4951 C   0  0  0  0  0  0  0  0  0  0  0  0
    9.0056  -24.2549   21.5584 C   0  0  0  0  0  0  0  0  0  0  0  0
    9.4656  -24.9853   22.6432 C   0  0  0  0  0  0  0  0  0  0  0  0
   10.1245  -24.3734   23.6862 C   0  0  0  0  0  0  0  0  0  0  0  0
   10.3246  -23.0131   23.6416 C   0  0  0  0  0  0  0  0  0  0  0  0
    9.4417  -18.8558   21.0713 C   0  0  0  0  0  0  0  0  0  0  0  0
   10.3092  -18.3182   20.3056 O   0  0  0  0  0  0  0  0  0  0  0  0
    8.5685  -17.9991   21.7888 N   0  0  0  0  0  0  0  0  0  0  0  0
    8.7261  -16.5254   21.6891 C   0  0  1  0  0  0  0  0  0  0  0  0
    7.3382  -15.9957   21.5031 C   0  0  0  0  0  0  0  0  0  0  0  0
    7.1885  -14.5549   21.3719 C   0  0  0  0  0  0  0  0  0  0  0  0
    6.8934  -13.7887   22.5112 C   0  0  0  0  0  0  0  0  0  0  0  0
    6.7772  -12.4220   22.4358 C   0  0  0  0  0  0  0  0  0  0  0  0
    6.9423  -11.7409   21.2529 C   0  0  0  0  0  0  0  0  0  0  0  0
    7.2282  -12.4595   20.1364 C   0  0  0  0  0  0  0  0  0  0  0  0
    7.3455  -13.8312   20.2073 C   0  0  0  0  0  0  0  0  0  0  0  0
    9.3382  -16.0718   22.9511 C   0  0  0  0  0  0  0  0  0  0  0  0
    9.7874  -14.8709   22.9946 O   0  0  0  0  0  0  0  0  0  0  0  0
    9.4595  -16.8619   24.1162 N   0  0  0  0  0  0  0  0  0  0  0  0
   10.3184  -16.4104   25.1973 C   0  0  1  0  0  0  0  0  0  0  0  0
    9.4976  -16.0510   26.3989 C   0  0  0  0  0  0  0  0  0  0  0  0
    8.3630  -15.1969   26.0577 C   0  0  0  0  0  0  0  0  0  0  0  0
    7.0784  -15.6423   25.7480 C   0  0  0  0  0  0  0  0  0  0  0  0
    6.2977  -14.5961   25.4459 N   0  0  0  0  0  0  0  0  0  0  0  0
    6.9991  -13.4618   25.5391 C   0  0  0  0  0  0  0  0  0  0  0  0
    6.6048  -12.1589   25.3399 C   0  0  0  0  0  0  0  0  0  0  0  0
    7.5430  -11.1504   25.5306 C   0  0  0  0  0  0  0  0  0  0  0  0
    8.8299  -11.4995   25.9116 C   0  0  0  0  0  0  0  0  0  0  0  0
    9.1995  -12.8117   26.1038 C   0  0  0  0  0  0  0  0  0  0  0  0
    8.2945  -13.8170   25.9213 C   0  0  0  0  0  0  0  0  0  0  0  0
   11.4304  -17.2908   25.5195 C   0  0  0  0  0  0  0  0  0  0  0  0
   12.2809  -16.9772   26.4048 O   0  0  0  0  0  0  0  0  0  0  0  0
   11.5636  -18.5070   24.8401 O   0  0  0  0  0  0  0  0  0  0  0  0
  2  1  1  6
  2  3  1  0
  4  3  1  0
  4  5  2  0
  6  5  1  0
  7  6  2  0
  8  9  2  0
  8  7  1  0
  9  4  1  0
 10 11  2  0
 10  2  1  0
 12 10  1  0
 13 21  1  0
 13 12  1  0
 13 14  1  1
 15 14  1  0
 15 16  2  0
 17 16  1  0
 18 17  2  0
 19 20  2  0
 19 18  1  0
 20 15  1  0
 21 22  2  0
 23 24  1  0
 23 21  1  0
 24 25  1  1
 25 26  1  0
 26 34  1  0
 26 27  2  0
 27 28  1  0
 29 28  1  0
 29 30  2  0
 31 30  1  0
 32 31  2  0
 33 32  1  0
 33 34  2  0
 34 29  1  0
 35 24  1  0
 36 35  2  0
 37 35  1  0
M  END
$$$$
