FFW.pdb
     RDKit          3D

 37 40  0  0  1  0  0  0  0  0999 V2000
    9.4551  -17.9705   19.8192 N   0  0  0  0  0  0  0  0  0  0  0  0
    9.1162  -16.5724   19.8261 C   0  0  1  0  0  0  0  0  0  0  0  0
    8.6221  -16.1540   18.4568 C   0  0  0  0  0  0  0  0  0  0  0  0
    8.3056  -14.7063   18.5053 C   0  0  0  0  0  0  0  0  0  0  0  0
    6.9772  -14.3631   18.6497 C   0  0  0  0  0  0  0  0  0  0  0  0
    6.6627  -13.0228   18.7006 C   0  0  0  0  0  0  0  0  0  0  0  0
    7.6542  -12.0582   18.6090 C   0  0  0  0  0  0  0  0  0  0  0  0
    8.9781  -12.4087   18.4652 C   0  0  0  0  0  0  0  0  0  0  0  0
    9.3124  -13.7421   18.4122 C   0  0  0  0  0  0  0  0  0  0  0  0
    8.0980  -16.3307   20.8728 C   0  0  0  0  0  0  0  0  0  0  0  0
    6.9717  -15.8007   20.5928 O   0  0  0  0  0  0  0  0  0  0  0  0
    8.3473  -16.6842   22.2234 N   0  0  0  0  0  0  0  0  0  0  0  0
    8.3551  -15.6362   23.2761 C   0  0  1  0  0  0  0  0  0  0  0  0
    6.9343  -15.5354   23.7376 C   0  0  0  0  0  0  0  0  0  0  0  0
    6.6629  -14.6616   24.8682 C   0  0  0  0  0  0  0  0  0  0  0  0
    6.3433  -15.2284   26.1128 C   0  0  0  0  0  0  0  0  0  0  0  0
    6.1132  -14.4389   27.2131 C   0  0  0  0  0  0  0  0  0  0  0  0
    6.1834  -13.0671   27.1531 C   0  0  0  0  0  0  0  0  0  0  0  0
    6.4908  -12.4946   25.9605 C   0  0  0  0  0  0  0  0  0  0  0  0
    6.7223  -13.2829   24.8535 C   0  0  0  0  0  0  0  0  0  0  0  0
    9.2618  -16.1027   24.3408 C   0  0  0  0  0  0  0  0  0  0  0  0
    9.9452  -15.2167   24.9683 O   0  0  0  0  0  0  0  0  0  0  0  0
    9.4268  -17.4529   24.7229 N   0  0  0  0  0  0  0  0  0  0  0  0
   10.4745  -17.8038   25.6660 C   0  0  1  0  0  0  0  0  0  0  0  0
    9.9016  -17.9765   27.0402 C   0  0  0  0  0  0  0  0  0  0  0  0
   10.5438  -17.1044   28.0202 C   0  0  0  0  0  0  0  0  0  0  0  0
   11.0726  -17.5130   29.2441 C   0  0  0  0  0  0  0  0  0  0  0  0
   11.5476  -16.4508   29.9085 N   0  0  0  0  0  0  0  0  0  0  0  0
   11.3638  -15.3412   29.1857 C   0  0  0  0  0  0  0  0  0  0  0  0
   11.7091  -14.0384   29.4616 C   0  0  0  0  0  0  0  0  0  0  0  0
   11.4200  -13.0652   28.5113 C   0  0  0  0  0  0  0  0  0  0  0  0
   10.7989  -13.4478   27.3319 C   0  0  0  0  0  0  0  0  0  0  0  0
   10.4629  -14.7590   27.0804 C   0  0  0  0  0  0  0  0  0  0  0  0
   10.7369  -15.7297   27.9998 C   0  0  0  0  0  0  0  0  0  0  0  0
   11.3251  -18.9146   25.2683 C   0  0  0  0  0  0  0  0  0  0  0  0
   10.9569  -19.7375   24.3779 O   0  0  0  0  0  0  0  0  0  0  0  0
   12.5735  -19.0776   25.8794 O   0  0  0  0  0  0  0  0  0  0  0  0
  2  1  1  6
  2  3  1  0
  4  3  1  0
  4  5  2  0
  6  5  1  0
  7  6  2  0
  8  9  2  0
  8  7  1  0
  9  4  1  0
 10 11  2  0
 10  2  1  0
 12 10  1  0
 13 21  1  0
 13 12  1  0
 13 14  1  1
 15 14  1  0
 15 16  2  0
 17 16  1  0
 18 17  2  0
 19 20  2  0
 19 18  1  0
 20 15  1  0
 21 22  2  0
 23 24  1  0
 23 21  1  0
 24 25  1  1
 25 26  1  0
 26 34  1  0
 26 27  2  0
 27 28  1  0
 29 28  1  0
 29 30  2  0
 31 30  1  0
 32 31  2  0
 33 32  1  0
 33 34  2  0
 34 29  1  0
 35 24  1  0
 36 35  2  0
 37 35  1  0
M  END
$$$$
