NHI.pdb
     RDKit          3D

 27 27  0  0  1  0  0  0  0  0999 V2000
    3.7942  -19.1012   19.6427 N   0  0  0  0  0  0  0  0  0  0  0  0
    3.0989  -18.9206   20.8630 C   0  0  0  0  0  0  0  0  0  0  0  0
    1.9719  -19.4902   20.9714 O   0  0  0  0  0  0  0  0  0  0  0  0
    3.5647  -18.1360   22.0091 C   0  0  0  0  0  0  0  0  0  0  0  0
    4.8047  -17.3431   21.7256 C   0  0  2  0  0  0  0  0  0  0  0  0
    5.6111  -17.8536   20.6725 N   0  0  0  0  0  0  0  0  0  0  0  0
    5.6190  -17.3169   22.9959 C   0  0  0  0  0  0  0  0  0  0  0  0
    5.0159  -16.9964   24.0718 O   0  0  0  0  0  0  0  0  0  0  0  0
    6.9784  -17.6452   22.9087 N   0  0  0  0  0  0  0  0  0  0  0  0
    7.9248  -17.6796   23.9757 C   0  0  1  0  0  0  0  0  0  0  0  0
    9.0657  -18.6643   23.8095 C   0  0  0  0  0  0  0  0  0  0  0  0
    8.6078  -20.0725   23.8564 C   0  0  0  0  0  0  0  0  0  0  0  0
    7.3723  -20.5436   24.1754 C   0  0  0  0  0  0  0  0  0  0  0  0
    7.3620  -21.8898   24.0988 N   0  0  0  0  0  0  0  0  0  0  0  0
    8.5982  -22.2518   23.7303 C   0  0  0  0  0  0  0  0  0  0  0  0
    9.3686  -21.1477   23.5791 N   0  0  0  0  0  0  0  0  0  0  0  0
    8.3088  -16.3442   24.4021 C   0  0  0  0  0  0  0  0  0  0  0  0
    9.0135  -15.5801   23.6593 O   0  0  0  0  0  0  0  0  0  0  0  0
    5.7644  -12.0632   25.8437 C   0  0  0  0  0  0  0  0  0  0  0  0
    6.8663  -13.0093   25.4618 C   0  0  0  0  0  0  0  0  0  0  0  0
    7.6409  -13.5486   26.6435 C   0  0  2  0  0  0  0  0  0  0  0  0
    8.2775  -12.3811   27.3287 C   0  0  0  0  0  0  0  0  0  0  0  0
    8.6222  -14.6172   26.2301 C   0  0  2  0  0  0  0  0  0  0  0  0
    7.9438  -15.7705   25.6634 N   0  0  0  0  0  0  0  0  0  0  0  0
    9.5491  -14.9916   27.3118 C   0  0  0  0  0  0  0  0  0  0  0  0
   10.3894  -14.2192   27.8222 O   0  0  0  0  0  0  0  0  0  0  0  0
    9.5295  -16.2960   27.8444 O   0  0  0  0  0  0  0  0  0  0  0  0
  1  2  1  0
  2  3  2  0
  4  2  1  0
  5  4  1  0
  5  6  1  6
  7  5  1  0
  7  8  2  0
  9  7  1  0
 10 11  1  6
 10  9  1  0
 12 13  2  0
 12 11  1  0
 14 13  1  0
 15 16  2  0
 15 14  1  0
 16 12  1  0
 17 10  1  0
 18 17  2  0
 20 19  1  0
 21 23  1  0
 21 20  1  0
 21 22  1  6
 23 24  1  1
 24 17  1  0
 25 27  1  0
 25 23  1  0
 26 25  2  0
M  END
$$$$
