NHI.pdb
     RDKit          3D

 27 27  0  0  1  0  0  0  0  0999 V2000
    5.8114  -19.4841   18.9612 N   0  0  0  0  0  0  0  0  0  0  0  0
    4.9461  -19.2726   20.0621 C   0  0  0  0  0  0  0  0  0  0  0  0
    3.7553  -18.9281   19.7984 O   0  0  0  0  0  0  0  0  0  0  0  0
    5.3035  -19.4162   21.4755 C   0  0  0  0  0  0  0  0  0  0  0  0
    5.4176  -18.1082   22.1985 C   0  0  2  0  0  0  0  0  0  0  0  0
    4.9155  -16.9865   21.4845 N   0  0  0  0  0  0  0  0  0  0  0  0
    6.8811  -17.8855   22.4917 C   0  0  0  0  0  0  0  0  0  0  0  0
    7.5020  -18.8106   23.1104 O   0  0  0  0  0  0  0  0  0  0  0  0
    7.4580  -16.6815   22.0663 N   0  0  0  0  0  0  0  0  0  0  0  0
    8.8152  -16.2733   22.2297 C   0  0  1  0  0  0  0  0  0  0  0  0
    9.5429  -15.8893   20.9563 C   0  0  0  0  0  0  0  0  0  0  0  0
    8.8237  -14.8472   20.1870 C   0  0  0  0  0  0  0  0  0  0  0  0
    7.7203  -14.1425   20.5560 C   0  0  0  0  0  0  0  0  0  0  0  0
    7.3747  -13.2860   19.5736 N   0  0  0  0  0  0  0  0  0  0  0  0
    8.2698  -13.4630   18.5924 C   0  0  0  0  0  0  0  0  0  0  0  0
    9.1610  -14.4159   18.9574 N   0  0  0  0  0  0  0  0  0  0  0  0
    8.9732  -15.3514   23.3422 C   0  0  0  0  0  0  0  0  0  0  0  0
    9.1524  -14.1003   23.1557 O   0  0  0  0  0  0  0  0  0  0  0  0
    5.7846  -13.2981   26.8645 C   0  0  0  0  0  0  0  0  0  0  0  0
    6.7719  -14.3453   26.4356 C   0  0  0  0  0  0  0  0  0  0  0  0
    8.0520  -13.7764   25.8658 C   0  0  2  0  0  0  0  0  0  0  0  0
    7.7207  -13.1815   24.5339 C   0  0  0  0  0  0  0  0  0  0  0  0
    9.1495  -14.8100   25.8117 C   0  0  2  0  0  0  0  0  0  0  0  0
    8.9439  -15.7461   24.7195 N   0  0  0  0  0  0  0  0  0  0  0  0
    9.3554  -15.4933   27.1001 C   0  0  0  0  0  0  0  0  0  0  0  0
    9.1947  -16.7195   27.2841 O   0  0  0  0  0  0  0  0  0  0  0  0
    9.7615  -14.7629   28.2347 O   0  0  0  0  0  0  0  0  0  0  0  0
  1  2  1  0
  2  3  2  0
  4  2  1  0
  5  4  1  0
  5  6  1  6
  7  5  1  0
  7  8  2  0
  9  7  1  0
 10 11  1  6
 10  9  1  0
 12 13  2  0
 12 11  1  0
 14 13  1  0
 15 16  2  0
 15 14  1  0
 16 12  1  0
 17 10  1  0
 18 17  2  0
 20 19  1  0
 21 23  1  0
 21 20  1  0
 21 22  1  6
 23 24  1  6
 24 17  1  0
 25 27  1  0
 25 23  1  0
 26 25  2  0
M  END
$$$$
