NHI.pdb
     RDKit          3D

 27 27  0  0  1  0  0  0  0  0999 V2000
    8.8507  -14.0043   16.1340 N   0  0  0  0  0  0  0  0  0  0  0  0
    7.6832  -13.5079   16.7631 C   0  0  0  0  0  0  0  0  0  0  0  0
    6.7661  -13.0684   16.0066 O   0  0  0  0  0  0  0  0  0  0  0  0
    7.4410  -13.4571   18.2070 C   0  0  0  0  0  0  0  0  0  0  0  0
    8.6069  -13.9242   19.0249 C   0  0  2  0  0  0  0  0  0  0  0  0
    9.2920  -15.0519   18.4968 N   0  0  0  0  0  0  0  0  0  0  0  0
    8.0810  -14.2703   20.3964 C   0  0  0  0  0  0  0  0  0  0  0  0
    7.4558  -13.3591   21.0312 O   0  0  0  0  0  0  0  0  0  0  0  0
    8.3140  -15.5649   20.8792 N   0  0  0  0  0  0  0  0  0  0  0  0
    7.9046  -16.1004   22.1365 C   0  0  1  0  0  0  0  0  0  0  0  0
    7.7277  -17.6055   22.1827 C   0  0  0  0  0  0  0  0  0  0  0  0
    8.9857  -18.3313   21.8902 C   0  0  0  0  0  0  0  0  0  0  0  0
   10.2260  -17.8125   21.6837 C   0  0  0  0  0  0  0  0  0  0  0  0
   11.1050  -18.8076   21.4485 N   0  0  0  0  0  0  0  0  0  0  0  0
   10.4034  -19.9473   21.5102 C   0  0  0  0  0  0  0  0  0  0  0  0
    9.1055  -19.6675   21.7800 N   0  0  0  0  0  0  0  0  0  0  0  0
    8.6551  -15.5251   23.2403 C   0  0  0  0  0  0  0  0  0  0  0  0
    9.5916  -14.6783   23.0449 O   0  0  0  0  0  0  0  0  0  0  0  0
    7.4866  -11.3894   26.6145 C   0  0  0  0  0  0  0  0  0  0  0  0
    8.2993  -12.6515   26.6574 C   0  0  0  0  0  0  0  0  0  0  0  0
    7.9415  -13.6419   25.5718 C   0  0  2  0  0  0  0  0  0  0  0  0
    6.4593  -13.8381   25.6194 C   0  0  0  0  0  0  0  0  0  0  0  0
    8.7268  -14.9233   25.7010 C   0  0  2  0  0  0  0  0  0  0  0  0
    8.4235  -15.8435   24.6181 N   0  0  0  0  0  0  0  0  0  0  0  0
    8.5804  -15.5526   27.0247 C   0  0  0  0  0  0  0  0  0  0  0  0
    7.8494  -16.5388   27.2621 O   0  0  0  0  0  0  0  0  0  0  0  0
    9.2899  -15.0490   28.1330 O   0  0  0  0  0  0  0  0  0  0  0  0
  1  2  1  0
  2  3  2  0
  4  2  1  0
  5  4  1  0
  5  6  1  6
  7  5  1  0
  7  8  2  0
  9  7  1  0
 10 11  1  6
 10  9  1  0
 12 13  2  0
 12 11  1  0
 14 13  1  0
 15 16  2  0
 15 14  1  0
 16 12  1  0
 17 10  1  0
 18 17  2  0
 20 19  1  0
 21 23  1  0
 21 20  1  0
 21 22  1  1
 23 24  1  6
 24 17  1  0
 25 27  1  0
 25 23  1  0
 26 25  2  0
M  END
$$$$
