NHI.pdb
     RDKit          3D

 27 27  0  0  1  0  0  0  0  0999 V2000
    7.2328  -14.3323   15.8441 N   0  0  0  0  0  0  0  0  0  0  0  0
    8.1894  -13.8296   16.7592 C   0  0  0  0  0  0  0  0  0  0  0  0
    9.3423  -13.5712   16.3005 O   0  0  0  0  0  0  0  0  0  0  0  0
    7.9661  -13.5818   18.1857 C   0  0  0  0  0  0  0  0  0  0  0  0
    9.0325  -14.1597   19.0663 C   0  0  2  0  0  0  0  0  0  0  0  0
    9.6203  -15.3597   18.5819 N   0  0  0  0  0  0  0  0  0  0  0  0
    8.4034  -14.4319   20.4108 C   0  0  0  0  0  0  0  0  0  0  0  0
    7.6501  -13.5273   20.8989 O   0  0  0  0  0  0  0  0  0  0  0  0
    8.6881  -15.6557   21.0308 N   0  0  0  0  0  0  0  0  0  0  0  0
    8.1113  -16.1659   22.2318 C   0  0  1  0  0  0  0  0  0  0  0  0
    8.0599  -17.6770   22.3449 C   0  0  0  0  0  0  0  0  0  0  0  0
    7.2628  -18.2977   21.2613 C   0  0  0  0  0  0  0  0  0  0  0  0
    5.9112  -18.2988   21.1081 C   0  0  0  0  0  0  0  0  0  0  0  0
    5.5781  -18.9726   19.9886 N   0  0  0  0  0  0  0  0  0  0  0  0
    6.7307  -19.3899   19.4476 C   0  0  0  0  0  0  0  0  0  0  0  0
    7.7678  -18.9823   20.2182 N   0  0  0  0  0  0  0  0  0  0  0  0
    8.6030  -15.4674   23.4078 C   0  0  0  0  0  0  0  0  0  0  0  0
    9.8513  -15.2765   23.6009 O   0  0  0  0  0  0  0  0  0  0  0  0
    5.3798  -12.0983   26.9438 C   0  0  0  0  0  0  0  0  0  0  0  0
    6.0352  -13.2056   26.1694 C   0  0  0  0  0  0  0  0  0  0  0  0
    7.4547  -12.8960   25.7495 C   0  0  2  0  0  0  0  0  0  0  0  0
    7.3798  -12.0267   24.5344 C   0  0  0  0  0  0  0  0  0  0  0  0
    8.2660  -14.1515   25.5472 C   0  0  2  0  0  0  0  0  0  0  0  0
    7.7575  -14.9393   24.4372 N   0  0  0  0  0  0  0  0  0  0  0  0
    8.4040  -14.9477   26.7787 C   0  0  0  0  0  0  0  0  0  0  0  0
    8.9138  -14.5266   27.8398 O   0  0  0  0  0  0  0  0  0  0  0  0
    7.9466  -16.2799   26.8184 O   0  0  0  0  0  0  0  0  0  0  0  0
  1  2  1  0
  2  3  2  0
  4  2  1  0
  5  4  1  0
  5  6  1  6
  7  5  1  0
  7  8  2  0
  9  7  1  0
 10 11  1  1
 10  9  1  0
 12 13  2  0
 12 11  1  0
 14 13  1  0
 15 16  2  0
 15 14  1  0
 16 12  1  0
 17 10  1  0
 18 17  2  0
 20 19  1  0
 21 23  1  0
 21 20  1  0
 21 22  1  6
 23 24  1  6
 24 17  1  0
 25 27  1  0
 25 23  1  0
 26 25  2  0
M  END
$$$$
