NHI.pdb
     RDKit          3D

 27 27  0  0  1  0  0  0  0  0999 V2000
    9.4835  -14.4503   16.3633 N   0  0  0  0  0  0  0  0  0  0  0  0
    8.1719  -14.1331   16.7926 C   0  0  0  0  0  0  0  0  0  0  0  0
    7.3463  -13.7757   15.8999 O   0  0  0  0  0  0  0  0  0  0  0  0
    7.6848  -14.1811   18.1734 C   0  0  0  0  0  0  0  0  0  0  0  0
    8.7352  -14.5852   19.1634 C   0  0  2  0  0  0  0  0  0  0  0  0
    9.3702  -15.8261   18.8860 N   0  0  0  0  0  0  0  0  0  0  0  0
    8.0678  -14.6691   20.5144 C   0  0  0  0  0  0  0  0  0  0  0  0
    7.4981  -13.6168   20.9527 O   0  0  0  0  0  0  0  0  0  0  0  0
    8.1185  -15.8932   21.1943 N   0  0  0  0  0  0  0  0  0  0  0  0
    7.5276  -16.2012   22.4558 C   0  0  1  0  0  0  0  0  0  0  0  0
    7.1828  -17.6604   22.6804 C   0  0  0  0  0  0  0  0  0  0  0  0
    6.1950  -18.1650   21.6984 C   0  0  0  0  0  0  0  0  0  0  0  0
    5.5433  -17.4682   20.7290 C   0  0  0  0  0  0  0  0  0  0  0  0
    4.7270  -18.2932   20.0425 N   0  0  0  0  0  0  0  0  0  0  0  0
    4.8756  -19.5064   20.5913 C   0  0  0  0  0  0  0  0  0  0  0  0
    5.7716  -19.4394   21.6053 N   0  0  0  0  0  0  0  0  0  0  0  0
    8.2211  -15.5467   23.5528 C   0  0  0  0  0  0  0  0  0  0  0  0
    9.4957  -15.4653   23.5865 O   0  0  0  0  0  0  0  0  0  0  0  0
    6.0666  -11.8038   27.5030 C   0  0  0  0  0  0  0  0  0  0  0  0
    6.3674  -12.9320   26.5585 C   0  0  0  0  0  0  0  0  0  0  0  0
    7.7963  -12.9451   26.0631 C   0  0  2  0  0  0  0  0  0  0  0  0
    7.8638  -12.0384   24.8752 C   0  0  0  0  0  0  0  0  0  0  0  0
    8.2800  -14.3464   25.7840 C   0  0  2  0  0  0  0  0  0  0  0  0
    7.5601  -14.9453   24.6729 N   0  0  0  0  0  0  0  0  0  0  0  0
    8.2700  -15.2039   26.9816 C   0  0  0  0  0  0  0  0  0  0  0  0
    7.5725  -16.2337   27.1084 O   0  0  0  0  0  0  0  0  0  0  0  0
    9.0832  -14.8880   28.0882 O   0  0  0  0  0  0  0  0  0  0  0  0
  1  2  1  0
  2  3  2  0
  4  2  1  0
  5  4  1  0
  5  6  1  6
  7  5  1  0
  7  8  2  0
  9  7  1  0
 10 11  1  1
 10  9  1  0
 12 13  2  0
 12 11  1  0
 14 13  1  0
 15 16  2  0
 15 14  1  0
 16 12  1  0
 17 10  1  0
 18 17  2  0
 20 19  1  0
 21 23  1  0
 21 20  1  0
 21 22  1  6
 23 24  1  6
 24 17  1  0
 25 27  1  0
 25 23  1  0
 26 25  2  0
M  END
$$$$
