NHI.pdb
     RDKit          3D

 27 27  0  0  1  0  0  0  0  0999 V2000
    6.8970  -14.7362   16.5084 N   0  0  0  0  0  0  0  0  0  0  0  0
    7.9105  -13.9506   17.1093 C   0  0  0  0  0  0  0  0  0  0  0  0
    8.9547  -13.7382   16.4232 O   0  0  0  0  0  0  0  0  0  0  0  0
    7.8599  -13.3625   18.4500 C   0  0  0  0  0  0  0  0  0  0  0  0
    8.9811  -13.8072   19.3398 C   0  0  2  0  0  0  0  0  0  0  0  0
    9.7779  -14.8601   18.8141 N   0  0  0  0  0  0  0  0  0  0  0  0
    8.3662  -14.2625   20.6406 C   0  0  0  0  0  0  0  0  0  0  0  0
    7.5504  -13.4681   21.2127 O   0  0  0  0  0  0  0  0  0  0  0  0
    8.7315  -15.5232   21.1312 N   0  0  0  0  0  0  0  0  0  0  0  0
    8.2405  -16.1632   22.3079 C   0  0  1  0  0  0  0  0  0  0  0  0
    8.3077  -17.6779   22.3079 C   0  0  0  0  0  0  0  0  0  0  0  0
    7.5495  -18.2768   21.1847 C   0  0  0  0  0  0  0  0  0  0  0  0
    6.3487  -17.8861   20.6792 C   0  0  0  0  0  0  0  0  0  0  0  0
    5.9991  -18.6915   19.6558 N   0  0  0  0  0  0  0  0  0  0  0  0
    6.9900  -19.5844   19.5286 C   0  0  0  0  0  0  0  0  0  0  0  0
    7.9438  -19.3398   20.4591 N   0  0  0  0  0  0  0  0  0  0  0  0
    8.7221  -15.5162   23.5171 C   0  0  0  0  0  0  0  0  0  0  0  0
    9.9461  -15.1766   23.6537 O   0  0  0  0  0  0  0  0  0  0  0  0
    5.9595  -11.6201   25.6765 C   0  0  0  0  0  0  0  0  0  0  0  0
    7.1442  -12.4775   25.3349 C   0  0  0  0  0  0  0  0  0  0  0  0
    7.4510  -13.5322   26.3744 C   0  0  2  0  0  0  0  0  0  0  0  0
    7.9484  -12.8235   27.5942 C   0  0  0  0  0  0  0  0  0  0  0  0
    8.4048  -14.5763   25.8491 C   0  0  2  0  0  0  0  0  0  0  0  0
    7.8926  -15.2049   24.6433 N   0  0  0  0  0  0  0  0  0  0  0  0
    8.7911  -15.5637   26.8715 C   0  0  0  0  0  0  0  0  0  0  0  0
    9.5688  -15.3302   27.8222 O   0  0  0  0  0  0  0  0  0  0  0  0
    8.2781  -16.8752   26.8221 O   0  0  0  0  0  0  0  0  0  0  0  0
  1  2  1  0
  2  3  2  0
  4  2  1  0
  5  4  1  0
  5  6  1  6
  7  5  1  0
  7  8  2  0
  9  7  1  0
 10 11  1  1
 10  9  1  0
 12 13  2  0
 12 11  1  0
 14 13  1  0
 15 16  2  0
 15 14  1  0
 16 12  1  0
 17 10  1  0
 18 17  2  0
 20 19  1  0
 21 23  1  0
 21 20  1  0
 21 22  1  1
 23 24  1  6
 24 17  1  0
 25 27  1  0
 25 23  1  0
 26 25  2  0
M  END
$$$$
