NHI.pdb
     RDKit          3D

 27 27  0  0  1  0  0  0  0  0999 V2000
    9.0593  -13.0703   16.3601 N   0  0  0  0  0  0  0  0  0  0  0  0
    7.8496  -13.7107   16.7232 C   0  0  0  0  0  0  0  0  0  0  0  0
    6.9587  -13.8055   15.8268 O   0  0  0  0  0  0  0  0  0  0  0  0
    7.5366  -14.2726   18.0394 C   0  0  0  0  0  0  0  0  0  0  0  0
    8.5923  -14.0051   19.0693 C   0  0  2  0  0  0  0  0  0  0  0  0
    9.8589  -14.5859   18.7896 N   0  0  0  0  0  0  0  0  0  0  0  0
    8.0844  -14.5494   20.3821 C   0  0  0  0  0  0  0  0  0  0  0  0
    6.9920  -14.0710   20.8312 O   0  0  0  0  0  0  0  0  0  0  0  0
    8.8444  -15.5403   21.0175 N   0  0  0  0  0  0  0  0  0  0  0  0
    8.5229  -16.2283   22.2253 C   0  0  1  0  0  0  0  0  0  0  0  0
    8.8845  -17.7003   22.2585 C   0  0  0  0  0  0  0  0  0  0  0  0
    8.0662  -18.5042   21.3210 C   0  0  0  0  0  0  0  0  0  0  0  0
    7.0347  -18.0885   20.5378 C   0  0  0  0  0  0  0  0  0  0  0  0
    6.5529  -19.1275   19.8261 N   0  0  0  0  0  0  0  0  0  0  0  0
    7.2912  -20.1908   20.1719 C   0  0  0  0  0  0  0  0  0  0  0  0
    8.2201  -19.8206   21.0859 N   0  0  0  0  0  0  0  0  0  0  0  0
    8.9042  -15.4643   23.4015 C   0  0  0  0  0  0  0  0  0  0  0  0
   10.0965  -15.0353   23.5647 O   0  0  0  0  0  0  0  0  0  0  0  0
    5.7048  -11.7328   25.5071 C   0  0  0  0  0  0  0  0  0  0  0  0
    6.8934  -12.5576   25.1046 C   0  0  0  0  0  0  0  0  0  0  0  0
    7.3690  -13.5051   26.1831 C   0  0  2  0  0  0  0  0  0  0  0  0
    7.8103  -12.6719   27.3445 C   0  0  0  0  0  0  0  0  0  0  0  0
    8.4324  -14.4460   25.6737 C   0  0  2  0  0  0  0  0  0  0  0  0
    8.0036  -15.1271   24.4639 N   0  0  0  0  0  0  0  0  0  0  0  0
    8.9056  -15.3858   26.7045 C   0  0  0  0  0  0  0  0  0  0  0  0
    8.4325  -16.5280   26.8911 O   0  0  0  0  0  0  0  0  0  0  0  0
    9.9606  -15.0237   27.5654 O   0  0  0  0  0  0  0  0  0  0  0  0
  1  2  1  0
  2  3  2  0
  4  2  1  0
  5  4  1  0
  5  6  1  6
  7  5  1  0
  7  8  2  0
  9  7  1  0
 10 11  1  6
 10  9  1  0
 12 13  2  0
 12 11  1  0
 14 13  1  0
 15 16  2  0
 15 14  1  0
 16 12  1  0
 17 10  1  0
 18 17  2  0
 20 19  1  0
 21 23  1  0
 21 20  1  0
 21 22  1  1
 23 24  1  6
 24 17  1  0
 25 27  1  0
 25 23  1  0
 26 25  2  0
M  END
$$$$
