NHI.pdb
     RDKit          3D

 27 27  0  0  1  0  0  0  0  0999 V2000
   10.2826  -17.7102   17.2966 N   0  0  0  0  0  0  0  0  0  0  0  0
    9.8598  -18.2209   18.5479 C   0  0  0  0  0  0  0  0  0  0  0  0
   10.2671  -19.3791   18.8625 O   0  0  0  0  0  0  0  0  0  0  0  0
    8.9956  -17.5318   19.5094 C   0  0  0  0  0  0  0  0  0  0  0  0
    9.5298  -17.5463   20.9097 C   0  0  2  0  0  0  0  0  0  0  0  0
    9.5771  -18.8306   21.5166 N   0  0  0  0  0  0  0  0  0  0  0  0
    8.6426  -16.6478   21.7362 C   0  0  0  0  0  0  0  0  0  0  0  0
    8.5582  -15.4253   21.3862 O   0  0  0  0  0  0  0  0  0  0  0  0
    7.9733  -17.2146   22.8289 N   0  0  0  0  0  0  0  0  0  0  0  0
    7.1276  -16.5436   23.7616 C   0  0  1  0  0  0  0  0  0  0  0  0
    6.1590  -17.4272   24.5231 C   0  0  0  0  0  0  0  0  0  0  0  0
    6.4857  -18.8664   24.3932 C   0  0  0  0  0  0  0  0  0  0  0  0
    7.5436  -19.4330   23.7528 C   0  0  0  0  0  0  0  0  0  0  0  0
    7.4817  -20.7752   23.8659 N   0  0  0  0  0  0  0  0  0  0  0  0
    6.3793  -21.0388   24.5803 C   0  0  0  0  0  0  0  0  0  0  0  0
    5.7623  -19.8780   24.9082 N   0  0  0  0  0  0  0  0  0  0  0  0
    7.8642  -15.5840   24.5674 C   0  0  0  0  0  0  0  0  0  0  0  0
    7.9733  -14.3598   24.2188 O   0  0  0  0  0  0  0  0  0  0  0  0
    6.4655  -12.1143   26.4653 C   0  0  0  0  0  0  0  0  0  0  0  0
    7.5494  -13.0602   26.0341 C   0  0  0  0  0  0  0  0  0  0  0  0
    8.0870  -13.9203   27.1558 C   0  0  2  0  0  0  0  0  0  0  0  0
    8.5965  -12.9987   28.2183 C   0  0  0  0  0  0  0  0  0  0  0  0
    9.1179  -14.9050   26.6625 C   0  0  2  0  0  0  0  0  0  0  0  0
    8.5218  -15.9095   25.7982 N   0  0  0  0  0  0  0  0  0  0  0  0
    9.9042  -15.5046   27.7542 C   0  0  0  0  0  0  0  0  0  0  0  0
    9.6966  -16.6401   28.2344 O   0  0  0  0  0  0  0  0  0  0  0  0
   10.9744  -14.7934   28.3324 O   0  0  0  0  0  0  0  0  0  0  0  0
  1  2  1  0
  2  3  2  0
  4  2  1  0
  5  4  1  0
  5  6  1  1
  7  5  1  0
  7  8  2  0
  9  7  1  0
 10 11  1  1
 10  9  1  0
 12 13  2  0
 12 11  1  0
 14 13  1  0
 15 16  2  0
 15 14  1  0
 16 12  1  0
 17 10  1  0
 18 17  2  0
 20 19  1  0
 21 23  1  0
 21 20  1  0
 21 22  1  1
 23 24  1  1
 24 17  1  0
 25 27  1  0
 25 23  1  0
 26 25  2  0
M  END
$$$$
