NHI.pdb
     RDKit          3D

 27 27  0  0  1  0  0  0  0  0999 V2000
    9.5574  -15.0580   16.6385 N   0  0  0  0  0  0  0  0  0  0  0  0
    8.1639  -15.0479   16.8899 C   0  0  0  0  0  0  0  0  0  0  0  0
    7.4018  -14.8726   15.8925 O   0  0  0  0  0  0  0  0  0  0  0  0
    7.5256  -15.2215   18.1970 C   0  0  0  0  0  0  0  0  0  0  0  0
    8.4930  -15.5424   19.2960 C   0  0  2  0  0  0  0  0  0  0  0  0
    9.1580  -16.7910   19.1593 N   0  0  0  0  0  0  0  0  0  0  0  0
    7.7162  -15.5416   20.5899 C   0  0  0  0  0  0  0  0  0  0  0  0
    7.0276  -14.5037   20.8591 O   0  0  0  0  0  0  0  0  0  0  0  0
    7.8032  -16.6772   21.4061 N   0  0  0  0  0  0  0  0  0  0  0  0
    7.2176  -16.8570   22.6946 C   0  0  1  0  0  0  0  0  0  0  0  0
    6.7415  -18.2617   23.0089 C   0  0  0  0  0  0  0  0  0  0  0  0
    5.6709  -18.7141   22.0901 C   0  0  0  0  0  0  0  0  0  0  0  0
    4.9614  -17.9724   21.1975 C   0  0  0  0  0  0  0  0  0  0  0  0
    4.0778  -18.7582   20.5495 N   0  0  0  0  0  0  0  0  0  0  0  0
    4.2427  -19.9922   21.0449 C   0  0  0  0  0  0  0  0  0  0  0  0
    5.2151  -19.9765   21.9882 N   0  0  0  0  0  0  0  0  0  0  0  0
    7.9976  -16.2132   23.7385 C   0  0  0  0  0  0  0  0  0  0  0  0
    9.2612  -16.3781   23.8294 O   0  0  0  0  0  0  0  0  0  0  0  0
    6.1333  -11.5776   26.0504 C   0  0  0  0  0  0  0  0  0  0  0  0
    7.0810  -12.5976   25.4877 C   0  0  0  0  0  0  0  0  0  0  0  0
    7.5122  -13.6446   26.4902 C   0  0  2  0  0  0  0  0  0  0  0  0
    8.3296  -12.9515   27.5339 C   0  0  0  0  0  0  0  0  0  0  0  0
    8.2266  -14.7956   25.8266 C   0  0  2  0  0  0  0  0  0  0  0  0
    7.4395  -15.3537   24.7402 N   0  0  0  0  0  0  0  0  0  0  0  0
    8.6639  -15.8257   26.7844 C   0  0  0  0  0  0  0  0  0  0  0  0
    9.7043  -15.7540   27.4742 O   0  0  0  0  0  0  0  0  0  0  0  0
    7.8947  -16.9907   26.9753 O   0  0  0  0  0  0  0  0  0  0  0  0
  1  2  1  0
  2  3  2  0
  4  2  1  0
  5  4  1  0
  5  6  1  6
  7  5  1  0
  7  8  2  0
  9  7  1  0
 10 11  1  1
 10  9  1  0
 12 13  2  0
 12 11  1  0
 14 13  1  0
 15 16  2  0
 15 14  1  0
 16 12  1  0
 17 10  1  0
 18 17  2  0
 20 19  1  0
 21 23  1  0
 21 20  1  0
 21 22  1  1
 23 24  1  6
 24 17  1  0
 25 27  1  0
 25 23  1  0
 26 25  2  0
M  END
$$$$
