NHI.pdb
     RDKit          3D

 27 27  0  0  1  0  0  0  0  0999 V2000
   15.5757  -15.1482   19.5082 N   0  0  0  0  0  0  0  0  0  0  0  0
   14.5491  -14.4067   18.8745 C   0  0  0  0  0  0  0  0  0  0  0  0
   14.7581  -14.0432   17.6785 O   0  0  0  0  0  0  0  0  0  0  0  0
   13.2697  -14.0232   19.4763 C   0  0  0  0  0  0  0  0  0  0  0  0
   12.7170  -15.0551   20.4125 C   0  0  2  0  0  0  0  0  0  0  0  0
   12.3547  -16.2844   19.7982 N   0  0  0  0  0  0  0  0  0  0  0  0
   11.4955  -14.4571   21.0665 C   0  0  0  0  0  0  0  0  0  0  0  0
   11.6340  -13.3313   21.6476 O   0  0  0  0  0  0  0  0  0  0  0  0
   10.2951  -15.1760   20.9920 N   0  0  0  0  0  0  0  0  0  0  0  0
    9.0342  -14.8040   21.5460 C   0  0  1  0  0  0  0  0  0  0  0  0
    7.8214  -15.1362   20.6990 C   0  0  0  0  0  0  0  0  0  0  0  0
    7.8478  -14.4557   19.3833 C   0  0  0  0  0  0  0  0  0  0  0  0
    8.7829  -13.5925   18.9028 C   0  0  0  0  0  0  0  0  0  0  0  0
    8.4428  -13.1944   17.6603 N   0  0  0  0  0  0  0  0  0  0  0  0
    7.2911  -13.8155   17.3719 C   0  0  0  0  0  0  0  0  0  0  0  0
    6.9181  -14.5898   18.4191 N   0  0  0  0  0  0  0  0  0  0  0  0
    8.9328  -15.1631   22.9508 C   0  0  0  0  0  0  0  0  0  0  0  0
    9.7506  -15.9805   23.4944 O   0  0  0  0  0  0  0  0  0  0  0  0
    7.1094  -12.1261   28.0366 C   0  0  0  0  0  0  0  0  0  0  0  0
    7.5900  -13.3988   27.4005 C   0  0  0  0  0  0  0  0  0  0  0  0
    7.4257  -13.4266   25.8973 C   0  0  2  0  0  0  0  0  0  0  0  0
    5.9605  -13.3403   25.6081 C   0  0  0  0  0  0  0  0  0  0  0  0
    8.0948  -14.6307   25.2824 C   0  0  2  0  0  0  0  0  0  0  0  0
    7.9325  -14.6489   23.8386 N   0  0  0  0  0  0  0  0  0  0  0  0
    7.6768  -15.8978   25.9063 C   0  0  0  0  0  0  0  0  0  0  0  0
    7.8685  -16.1925   27.1062 O   0  0  0  0  0  0  0  0  0  0  0  0
    7.0118  -16.8792   25.1447 O   0  0  0  0  0  0  0  0  0  0  0  0
  1  2  1  0
  2  3  2  0
  4  2  1  0
  5  4  1  0
  5  6  1  6
  7  5  1  0
  7  8  2  0
  9  7  1  0
 10 11  1  6
 10  9  1  0
 12 13  2  0
 12 11  1  0
 14 13  1  0
 15 16  2  0
 15 14  1  0
 16 12  1  0
 17 10  1  0
 18 17  2  0
 20 19  1  0
 21 23  1  0
 21 20  1  0
 21 22  1  1
 23 24  1  6
 24 17  1  0
 25 27  1  0
 25 23  1  0
 26 25  2  0
M  END
$$$$
