NHI.pdb
     RDKit          3D

 27 27  0  0  1  0  0  0  0  0999 V2000
    6.0821  -20.7414   20.9002 N   0  0  0  0  0  0  0  0  0  0  0  0
    6.9976  -20.1802   19.9771 C   0  0  0  0  0  0  0  0  0  0  0  0
    7.0385  -20.6992   18.8215 O   0  0  0  0  0  0  0  0  0  0  0  0
    7.8997  -19.0558   20.2376 C   0  0  0  0  0  0  0  0  0  0  0  0
    7.7779  -18.5015   21.6249 C   0  0  2  0  0  0  0  0  0  0  0  0
    6.4613  -18.1212   22.0015 N   0  0  0  0  0  0  0  0  0  0  0  0
    8.6772  -17.2922   21.7039 C   0  0  0  0  0  0  0  0  0  0  0  0
    9.9292  -17.4829   21.5611 O   0  0  0  0  0  0  0  0  0  0  0  0
    8.0789  -16.0452   21.9282 N   0  0  0  0  0  0  0  0  0  0  0  0
    8.7385  -14.7885   22.0726 C   0  0  1  0  0  0  0  0  0  0  0  0
    8.1201  -13.6315   21.3126 C   0  0  0  0  0  0  0  0  0  0  0  0
    8.2409  -13.7910   19.8446 C   0  0  0  0  0  0  0  0  0  0  0  0
    9.3758  -13.8709   19.0992 C   0  0  0  0  0  0  0  0  0  0  0  0
    9.0586  -14.0144   17.7965 N   0  0  0  0  0  0  0  0  0  0  0  0
    7.7200  -14.0232   17.7374 C   0  0  0  0  0  0  0  0  0  0  0  0
    7.2096  -13.8872   18.9850 N   0  0  0  0  0  0  0  0  0  0  0  0
    9.0829  -14.5137   23.4577 C   0  0  0  0  0  0  0  0  0  0  0  0
   10.0662  -13.7588   23.7668 O   0  0  0  0  0  0  0  0  0  0  0  0
    5.4846  -12.7498   26.9408 C   0  0  0  0  0  0  0  0  0  0  0  0
    6.3533  -13.8247   26.3532 C   0  0  0  0  0  0  0  0  0  0  0  0
    7.8309  -13.5068   26.4028 C   0  0  2  0  0  0  0  0  0  0  0  0
    8.0465  -12.2659   25.5956 C   0  0  0  0  0  0  0  0  0  0  0  0
    8.6714  -14.6759   25.9530 C   0  0  2  0  0  0  0  0  0  0  0  0
    8.3718  -15.0485   24.5808 N   0  0  0  0  0  0  0  0  0  0  0  0
    8.5925  -15.8240   26.8723 C   0  0  0  0  0  0  0  0  0  0  0  0
    8.2345  -16.9744   26.5381 O   0  0  0  0  0  0  0  0  0  0  0  0
    8.9327  -15.6708   28.2310 O   0  0  0  0  0  0  0  0  0  0  0  0
  1  2  1  0
  2  3  2  0
  4  2  1  0
  5  4  1  0
  5  6  1  6
  7  5  1  0
  7  8  2  0
  9  7  1  0
 10 11  1  1
 10  9  1  0
 12 13  2  0
 12 11  1  0
 14 13  1  0
 15 16  2  0
 15 14  1  0
 16 12  1  0
 17 10  1  0
 18 17  2  0
 20 19  1  0
 21 23  1  0
 21 20  1  0
 21 22  1  6
 23 24  1  6
 24 17  1  0
 25 27  1  0
 25 23  1  0
 26 25  2  0
M  END
$$$$
