NHI.pdb
     RDKit          3D

 27 27  0  0  1  0  0  0  0  0999 V2000
    9.3218  -17.2354   16.5562 N   0  0  0  0  0  0  0  0  0  0  0  0
    7.9951  -17.2148   17.0508 C   0  0  0  0  0  0  0  0  0  0  0  0
    7.0807  -17.5900   16.2574 O   0  0  0  0  0  0  0  0  0  0  0  0
    7.5857  -16.7996   18.3947 C   0  0  0  0  0  0  0  0  0  0  0  0
    8.6938  -16.1810   19.1921 C   0  0  2  0  0  0  0  0  0  0  0  0
    9.9874  -16.7034   18.9205 N   0  0  0  0  0  0  0  0  0  0  0  0
    8.3736  -16.4030   20.6501 C   0  0  0  0  0  0  0  0  0  0  0  0
    7.2221  -16.0406   21.0587 O   0  0  0  0  0  0  0  0  0  0  0  0
    9.3591  -16.9902   21.4546 N   0  0  0  0  0  0  0  0  0  0  0  0
    9.2749  -17.2703   22.8509 C   0  0  1  0  0  0  0  0  0  0  0  0
   10.0540  -18.4813   23.3256 C   0  0  0  0  0  0  0  0  0  0  0  0
    9.5563  -19.7426   22.7288 C   0  0  0  0  0  0  0  0  0  0  0  0
    8.2813  -20.2162   22.7082 C   0  0  0  0  0  0  0  0  0  0  0  0
    8.2435  -21.4010   22.0655 N   0  0  0  0  0  0  0  0  0  0  0  0
    9.5024  -21.6603   21.6871 C   0  0  0  0  0  0  0  0  0  0  0  0
   10.3138  -20.6521   22.0878 N   0  0  0  0  0  0  0  0  0  0  0  0
    9.4347  -16.0698   23.6546 C   0  0  0  0  0  0  0  0  0  0  0  0
   10.4411  -15.2959   23.5107 O   0  0  0  0  0  0  0  0  0  0  0  0
    6.8125  -11.2447   26.2080 C   0  0  0  0  0  0  0  0  0  0  0  0
    7.8701  -12.3045   26.3245 C   0  0  0  0  0  0  0  0  0  0  0  0
    7.5947  -13.5327   25.4862 C   0  0  2  0  0  0  0  0  0  0  0  0
    6.2977  -14.1109   25.9565 C   0  0  0  0  0  0  0  0  0  0  0  0
    8.7439  -14.5091   25.5278 C   0  0  2  0  0  0  0  0  0  0  0  0
    8.5038  -15.6491   24.6594 N   0  0  0  0  0  0  0  0  0  0  0  0
    9.0981  -14.9170   26.8981 C   0  0  0  0  0  0  0  0  0  0  0  0
    9.5445  -14.1437   27.7733 O   0  0  0  0  0  0  0  0  0  0  0  0
    8.9424  -16.2577   27.3028 O   0  0  0  0  0  0  0  0  0  0  0  0
  1  2  1  0
  2  3  2  0
  4  2  1  0
  5  4  1  0
  5  6  1  6
  7  5  1  0
  7  8  2  0
  9  7  1  0
 10 11  1  1
 10  9  1  0
 12 13  2  0
 12 11  1  0
 14 13  1  0
 15 16  2  0
 15 14  1  0
 16 12  1  0
 17 10  1  0
 18 17  2  0
 20 19  1  0
 21 23  1  0
 21 20  1  0
 21 22  1  1
 23 24  1  6
 24 17  1  0
 25 27  1  0
 25 23  1  0
 26 25  2  0
M  END
$$$$
