NHI.pdb
     RDKit          3D

 27 27  0  0  1  0  0  0  0  0999 V2000
    9.5602  -17.2039   16.9086 N   0  0  0  0  0  0  0  0  0  0  0  0
    8.1458  -17.2138   16.9770 C   0  0  0  0  0  0  0  0  0  0  0  0
    7.5200  -17.4153   15.8935 O   0  0  0  0  0  0  0  0  0  0  0  0
    7.3429  -17.0126   18.1857 C   0  0  0  0  0  0  0  0  0  0  0  0
    8.1646  -16.7510   19.4118 C   0  0  2  0  0  0  0  0  0  0  0  0
    9.1322  -17.7498   19.7053 N   0  0  0  0  0  0  0  0  0  0  0  0
    7.2094  -16.6393   20.5748 C   0  0  0  0  0  0  0  0  0  0  0  0
    5.9829  -16.9049   20.3531 O   0  0  0  0  0  0  0  0  0  0  0  0
    7.7321  -16.2526   21.8160 N   0  0  0  0  0  0  0  0  0  0  0  0
    7.4162  -16.8065   23.0923 C   0  0  1  0  0  0  0  0  0  0  0  0
    7.3673  -18.3204   23.1568 C   0  0  0  0  0  0  0  0  0  0  0  0
    7.1756  -18.8210   24.5380 C   0  0  0  0  0  0  0  0  0  0  0  0
    7.0643  -18.0986   25.6852 C   0  0  0  0  0  0  0  0  0  0  0  0
    6.8981  -18.9289   26.7345 N   0  0  0  0  0  0  0  0  0  0  0  0
    6.9067  -20.1710   26.2323 C   0  0  0  0  0  0  0  0  0  0  0  0
    7.0758  -20.1166   24.8892 N   0  0  0  0  0  0  0  0  0  0  0  0
    8.1570  -16.1588   24.1620 C   0  0  0  0  0  0  0  0  0  0  0  0
    9.4324  -16.2067   24.2185 O   0  0  0  0  0  0  0  0  0  0  0  0
    5.7579  -11.5762   25.8639 C   0  0  0  0  0  0  0  0  0  0  0  0
    6.7879  -12.5763   25.4234 C   0  0  0  0  0  0  0  0  0  0  0  0
    7.3834  -13.3763   26.5603 C   0  0  2  0  0  0  0  0  0  0  0  0
    8.0745  -12.4106   27.4699 C   0  0  0  0  0  0  0  0  0  0  0  0
    8.2778  -14.4828   26.0591 C   0  0  2  0  0  0  0  0  0  0  0  0
    7.5448  -15.4232   25.2285 N   0  0  0  0  0  0  0  0  0  0  0  0
    9.0180  -15.1542   27.1412 C   0  0  0  0  0  0  0  0  0  0  0  0
    8.6040  -16.1547   27.7663 O   0  0  0  0  0  0  0  0  0  0  0  0
   10.2832  -14.6777   27.5384 O   0  0  0  0  0  0  0  0  0  0  0  0
  1  2  1  0
  2  3  2  0
  4  2  1  0
  5  4  1  0
  5  6  1  1
  7  5  1  0
  7  8  2  0
  9  7  1  0
 10 11  1  6
 10  9  1  0
 12 13  2  0
 12 11  1  0
 14 13  1  0
 15 16  2  0
 15 14  1  0
 16 12  1  0
 17 10  1  0
 18 17  2  0
 20 19  1  0
 21 23  1  0
 21 20  1  0
 21 22  1  1
 23 24  1  1
 24 17  1  0
 25 27  1  0
 25 23  1  0
 26 25  2  0
M  END
$$$$
