VES.pdb
     RDKit          3D

 23 22  0  0  1  0  0  0  0  0999 V2000
   17.0055  -11.8867  -18.1400 C   0  0  0  0  0  0  0  0  0  0  0  0
   16.8875  -10.8792  -17.0232 C   0  0  2  0  0  0  0  0  0  0  0  0
   16.6966   -9.5197  -17.6876 C   0  0  0  0  0  0  0  0  0  0  0  0
   18.2240  -10.8383  -16.2987 C   0  0  2  0  0  0  0  0  0  0  0  0
   18.4145  -12.1245  -15.6698 N   0  0  0  0  0  0  0  0  0  0  0  0
   18.3013   -9.7042  -15.3436 C   0  0  0  0  0  0  0  0  0  0  0  0
   17.6167   -9.7567  -14.2651 O   0  0  0  0  0  0  0  0  0  0  0  0
   19.1261   -8.5969  -15.6459 N   0  0  0  0  0  0  0  0  0  0  0  0
   19.1517   -7.4151  -14.8448 C   0  0  1  0  0  0  0  0  0  0  0  0
   20.5781   -6.9501  -14.6231 C   0  0  0  0  0  0  0  0  0  0  0  0
   20.6190   -5.7282  -13.7533 C   0  0  0  0  0  0  0  0  0  0  0  0
   22.0143   -5.3238  -13.5537 C   0  0  0  0  0  0  0  0  0  0  0  0
   22.9478   -5.9821  -14.0489 O   0  0  0  0  0  0  0  0  0  0  0  0
   18.4140   -6.2820  -15.4730 C   0  0  0  0  0  0  0  0  0  0  0  0
   18.6482   -6.0053  -16.6781 O   0  0  0  0  0  0  0  0  0  0  0  0
   22.3403   -4.1988  -12.8096 O   0  0  0  0  0  0  0  0  0  0  0  0
   14.6272   -5.4740  -14.6270 O   0  0  0  0  0  0  0  0  0  0  0  0
   15.3316   -4.2879  -14.7536 C   0  0  0  0  0  0  0  0  0  0  0  0
   16.6901   -4.4685  -15.3636 C   0  0  2  0  0  0  0  0  0  0  0  0
   17.4624   -5.5112  -14.7586 N   0  0  0  0  0  0  0  0  0  0  0  0
   17.3800   -3.1558  -15.3527 C   0  0  0  0  0  0  0  0  0  0  0  0
   16.7404   -2.0958  -15.9810 O   0  0  0  0  0  0  0  0  0  0  0  0
   18.4932   -2.9536  -14.8147 O   0  0  0  0  0  0  0  0  0  0  0  0
  2  1  1  6
  2  3  1  0
  4  2  1  0
  4  6  1  0
  4  5  1  1
  6  8  1  0
  6  7  2  0
  8  9  1  0
  9 14  1  0
 10 11  1  0
  9 10  1  6
 12 11  1  0
 13 12  2  0
 14 20  1  0
 14 15  2  0
 16 12  1  0
 17 18  1  0
 19 18  1  1
 19 21  1  0
 20 19  1  0
 21 22  1  0
 23 21  2  0
M  END
$$$$
