VES.pdb
     RDKit          3D

 23 22  0  0  1  0  0  0  0  0999 V2000
   24.7809  -26.7844  -17.7925 C   0  0  0  0  0  0  0  0  0  0  0  0
   23.7772  -26.5734  -18.8988 C   0  0  2  0  0  0  0  0  0  0  0  0
   24.0150  -25.1651  -19.4338 C   0  0  0  0  0  0  0  0  0  0  0  0
   22.3922  -26.5844  -18.2706 C   0  0  2  0  0  0  0  0  0  0  0  0
   21.4318  -26.4310  -19.3384 N   0  0  0  0  0  0  0  0  0  0  0  0
   22.2569  -25.5530  -17.2112 C   0  0  0  0  0  0  0  0  0  0  0  0
   22.9966  -25.6341  -16.1716 O   0  0  0  0  0  0  0  0  0  0  0  0
   21.3180  -24.5091  -17.3745 N   0  0  0  0  0  0  0  0  0  0  0  0
   21.1566  -23.4626  -16.4165 C   0  0  1  0  0  0  0  0  0  0  0  0
   21.3385  -22.1063  -17.0702 C   0  0  0  0  0  0  0  0  0  0  0  0
   22.7927  -21.7609  -17.2021 C   0  0  0  0  0  0  0  0  0  0  0  0
   22.9214  -20.4526  -17.8518 C   0  0  0  0  0  0  0  0  0  0  0  0
   22.6289  -19.4058  -17.2446 O   0  0  0  0  0  0  0  0  0  0  0  0
   19.8056  -23.4675  -15.7860 C   0  0  0  0  0  0  0  0  0  0  0  0
   18.7945  -23.5628  -16.5293 O   0  0  0  0  0  0  0  0  0  0  0  0
   23.3714  -20.3373  -19.1594 O   0  0  0  0  0  0  0  0  0  0  0  0
   17.0992  -23.6491  -11.7208 O   0  0  0  0  0  0  0  0  0  0  0  0
   18.3614  -23.6009  -12.2894 C   0  0  0  0  0  0  0  0  0  0  0  0
   18.3364  -23.3209  -13.7630 C   0  0  2  0  0  0  0  0  0  0  0  0
   19.6259  -23.3687  -14.3831 N   0  0  0  0  0  0  0  0  0  0  0  0
   17.6384  -22.0300  -13.9765 C   0  0  0  0  0  0  0  0  0  0  0  0
   16.2643  -22.0742  -14.1695 O   0  0  0  0  0  0  0  0  0  0  0  0
   18.2129  -20.9168  -13.9920 O   0  0  0  0  0  0  0  0  0  0  0  0
  2  1  1  1
  2  3  1  0
  4  2  1  0
  4  6  1  0
  4  5  1  6
  6  8  1  0
  6  7  2  0
  8  9  1  0
  9 14  1  0
 10 11  1  0
  9 10  1  6
 12 11  1  0
 13 12  2  0
 14 20  1  0
 14 15  2  0
 16 12  1  0
 17 18  1  0
 19 18  1  1
 19 21  1  0
 20 19  1  0
 21 22  1  0
 23 21  2  0
M  END
$$$$
