VES.pdb
     RDKit          3D

 23 22  0  0  1  0  0  0  0  0999 V2000
   24.4655  -11.2715  -15.2666 C   0  0  0  0  0  0  0  0  0  0  0  0
   23.8046  -12.2662  -16.1885 C   0  0  2  0  0  0  0  0  0  0  0  0
   24.0188  -11.7478  -17.6068 C   0  0  0  0  0  0  0  0  0  0  0  0
   22.3088  -12.2201  -15.9174 C   0  0  2  0  0  0  0  0  0  0  0  0
   21.7075  -13.3288  -16.6213 N   0  0  0  0  0  0  0  0  0  0  0  0
   21.7202  -10.9074  -16.2842 C   0  0  0  0  0  0  0  0  0  0  0  0
   21.8009  -10.5109  -17.4970 O   0  0  0  0  0  0  0  0  0  0  0  0
   21.0863  -10.1285  -15.2894 N   0  0  0  0  0  0  0  0  0  0  0  0
   20.5522   -8.8307  -15.5525 C   0  0  1  0  0  0  0  0  0  0  0  0
   19.1198   -8.7327  -15.0640 C   0  0  0  0  0  0  0  0  0  0  0  0
   18.1889   -9.4907  -15.9641 C   0  0  0  0  0  0  0  0  0  0  0  0
   16.8085   -9.2871  -15.5131 C   0  0  0  0  0  0  0  0  0  0  0  0
   16.1945   -8.2392  -15.7868 O   0  0  0  0  0  0  0  0  0  0  0  0
   21.3212   -7.7475  -14.8757 C   0  0  0  0  0  0  0  0  0  0  0  0
   21.8614   -7.9954  -13.7664 O   0  0  0  0  0  0  0  0  0  0  0  0
   16.1426  -10.2509  -14.7693 O   0  0  0  0  0  0  0  0  0  0  0  0
   23.1613   -3.2103  -15.0658 O   0  0  0  0  0  0  0  0  0  0  0  0
   22.3863   -4.1894  -15.6655 C   0  0  0  0  0  0  0  0  0  0  0  0
   22.1861   -5.3984  -14.8002 C   0  0  2  0  0  0  0  0  0  0  0  0
   21.4616   -6.4545  -15.4400 N   0  0  0  0  0  0  0  0  0  0  0  0
   21.5652   -4.9581  -13.5274 C   0  0  0  0  0  0  0  0  0  0  0  0
   22.4177   -4.5324  -12.5177 O   0  0  0  0  0  0  0  0  0  0  0  0
   20.3304   -4.9494  -13.3162 O   0  0  0  0  0  0  0  0  0  0  0  0
  2  1  1  1
  2  3  1  0
  4  2  1  0
  4  6  1  0
  4  5  1  6
  6  8  1  0
  6  7  2  0
  8  9  1  0
  9 14  1  0
 10 11  1  0
  9 10  1  1
 12 11  1  0
 13 12  2  0
 14 20  1  0
 14 15  2  0
 16 12  1  0
 17 18  1  0
 19 18  1  6
 19 21  1  0
 20 19  1  0
 21 22  1  0
 23 21  2  0
M  END
$$$$
