VES.pdb
     RDKit          3D

 23 22  0  0  1  0  0  0  0  0999 V2000
   17.6242  -13.4038  -15.7059 C   0  0  0  0  0  0  0  0  0  0  0  0
   16.1615  -13.0716  -15.5435 C   0  0  2  0  0  0  0  0  0  0  0  0
   15.4006  -14.0095  -16.4749 C   0  0  0  0  0  0  0  0  0  0  0  0
   15.9511  -11.6582  -16.0639 C   0  0  2  0  0  0  0  0  0  0  0  0
   16.0560  -11.7074  -17.5036 N   0  0  0  0  0  0  0  0  0  0  0  0
   16.8933  -10.6936  -15.4425 C   0  0  0  0  0  0  0  0  0  0  0  0
   16.8753  -10.5424  -14.1731 O   0  0  0  0  0  0  0  0  0  0  0  0
   17.7853   -9.9672  -16.2639 N   0  0  0  0  0  0  0  0  0  0  0  0
   18.6252   -8.9292  -15.7579 C   0  0  1  0  0  0  0  0  0  0  0  0
   20.0694   -9.1688  -16.1542 C   0  0  0  0  0  0  0  0  0  0  0  0
   20.9715   -8.1239  -15.5663 C   0  0  0  0  0  0  0  0  0  0  0  0
   22.3608   -8.4295  -15.9222 C   0  0  0  0  0  0  0  0  0  0  0  0
   22.6386   -9.4242  -16.6174 O   0  0  0  0  0  0  0  0  0  0  0  0
   18.2463   -7.5834  -16.2754 C   0  0  0  0  0  0  0  0  0  0  0  0
   18.0850   -7.4383  -17.5151 O   0  0  0  0  0  0  0  0  0  0  0  0
   23.4083   -7.6241  -15.4984 O   0  0  0  0  0  0  0  0  0  0  0  0
   16.2729   -3.2698  -15.7721 O   0  0  0  0  0  0  0  0  0  0  0  0
   16.5477   -4.5389  -15.2896 C   0  0  0  0  0  0  0  0  0  0  0  0
   17.7719   -5.1527  -15.9022 C   0  0  2  0  0  0  0  0  0  0  0  0
   18.0632   -6.4684  -15.4189 N   0  0  0  0  0  0  0  0  0  0  0  0
   18.9008   -4.2074  -15.7255 C   0  0  0  0  0  0  0  0  0  0  0  0
   18.7878   -2.9618  -16.3281 O   0  0  0  0  0  0  0  0  0  0  0  0
   19.9368   -4.4676  -15.0710 O   0  0  0  0  0  0  0  0  0  0  0  0
  2  1  1  6
  2  3  1  0
  4  2  1  0
  4  6  1  0
  4  5  1  6
  6  8  1  0
  6  7  2  0
  8  9  1  0
  9 14  1  0
 10 11  1  0
  9 10  1  6
 12 11  1  0
 13 12  2  0
 14 20  1  0
 14 15  2  0
 16 12  1  0
 17 18  1  0
 19 18  1  1
 19 21  1  0
 20 19  1  0
 21 22  1  0
 23 21  2  0
M  END
$$$$
