VES.pdb
     RDKit          3D

 23 22  0  0  1  0  0  0  0  0999 V2000
   18.3959  -11.1204  -16.1913 C   0  0  0  0  0  0  0  0  0  0  0  0
   18.8901  -11.6437  -17.5173 C   0  0  2  0  0  0  0  0  0  0  0  0
   18.0498  -12.8764  -17.8343 C   0  0  0  0  0  0  0  0  0  0  0  0
   20.3214  -12.1181  -17.3191 C   0  0  2  0  0  0  0  0  0  0  0  0
   20.2788  -13.2681  -16.4463 N   0  0  0  0  0  0  0  0  0  0  0  0
   21.1990  -11.0329  -16.8127 C   0  0  0  0  0  0  0  0  0  0  0  0
   21.4089  -10.9442  -15.5547 O   0  0  0  0  0  0  0  0  0  0  0  0
   21.7805  -10.1262  -17.7280 N   0  0  0  0  0  0  0  0  0  0  0  0
   22.5482   -8.9972  -17.3100 C   0  0  1  0  0  0  0  0  0  0  0  0
   23.3590   -8.4440  -18.4661 C   0  0  0  0  0  0  0  0  0  0  0  0
   24.1892   -7.2720  -18.0319 C   0  0  0  0  0  0  0  0  0  0  0  0
   24.9596   -6.7753  -19.1765 C   0  0  0  0  0  0  0  0  0  0  0  0
   24.9944   -5.5600  -19.4447 O   0  0  0  0  0  0  0  0  0  0  0  0
   21.6977   -7.8844  -16.7992 C   0  0  0  0  0  0  0  0  0  0  0  0
   20.7035   -7.5242  -17.4816 O   0  0  0  0  0  0  0  0  0  0  0  0
   25.6728   -7.6388  -19.9958 O   0  0  0  0  0  0  0  0  0  0  0  0
   19.5616   -5.6427  -13.2859 O   0  0  0  0  0  0  0  0  0  0  0  0
   20.4408   -6.6038  -13.7573 C   0  0  0  0  0  0  0  0  0  0  0  0
   21.1262   -6.2054  -15.0309 C   0  0  2  0  0  0  0  0  0  0  0  0
   21.9728   -7.2233  -15.5755 N   0  0  0  0  0  0  0  0  0  0  0  0
   21.8378   -4.9263  -14.7922 C   0  0  0  0  0  0  0  0  0  0  0  0
   21.1624   -3.7546  -15.1055 O   0  0  0  0  0  0  0  0  0  0  0  0
   22.9993   -4.8463  -14.3296 O   0  0  0  0  0  0  0  0  0  0  0  0
  2  1  1  1
  2  3  1  0
  4  2  1  0
  4  6  1  0
  4  5  1  1
  6  8  1  0
  6  7  2  0
  8  9  1  0
  9 14  1  0
 10 11  1  0
  9 10  1  6
 12 11  1  0
 13 12  2  0
 14 20  1  0
 14 15  2  0
 16 12  1  0
 17 18  1  0
 19 18  1  1
 19 21  1  0
 20 19  1  0
 21 22  1  0
 23 21  2  0
M  END
$$$$
