VES.pdb
     RDKit          3D

 23 22  0  0  1  0  0  0  0  0999 V2000
   17.7239  -12.5800  -18.0490 C   0  0  0  0  0  0  0  0  0  0  0  0
   18.9099  -13.2919  -17.4469 C   0  0  2  0  0  0  0  0  0  0  0  0
   18.3537  -14.4990  -16.6987 C   0  0  0  0  0  0  0  0  0  0  0  0
   19.5223  -12.3658  -16.4075 C   0  0  2  0  0  0  0  0  0  0  0  0
   18.6766  -12.4098  -15.2375 N   0  0  0  0  0  0  0  0  0  0  0  0
   19.7166  -10.9922  -16.9362 C   0  0  0  0  0  0  0  0  0  0  0  0
   20.4563  -10.8248  -17.9654 O   0  0  0  0  0  0  0  0  0  0  0  0
   19.0824   -9.9047  -16.2933 N   0  0  0  0  0  0  0  0  0  0  0  0
   19.2855   -8.5493  -16.6939 C   0  0  1  0  0  0  0  0  0  0  0  0
   17.9570   -7.8520  -16.9146 C   0  0  0  0  0  0  0  0  0  0  0  0
   17.3589   -8.2349  -18.2364 C   0  0  0  0  0  0  0  0  0  0  0  0
   15.9000   -8.3037  -18.1047 C   0  0  0  0  0  0  0  0  0  0  0  0
   15.3657   -9.1227  -17.3341 O   0  0  0  0  0  0  0  0  0  0  0  0
   20.0321   -7.7574  -15.6750 C   0  0  0  0  0  0  0  0  0  0  0  0
   19.8909   -8.0537  -14.4600 O   0  0  0  0  0  0  0  0  0  0  0  0
   15.0693   -7.4623  -18.8309 O   0  0  0  0  0  0  0  0  0  0  0  0
   23.5838   -4.5020  -14.7910 O   0  0  0  0  0  0  0  0  0  0  0  0
   22.7722   -5.1379  -15.7160 C   0  0  0  0  0  0  0  0  0  0  0  0
   21.7273   -6.0105  -15.0857 C   0  0  2  0  0  0  0  0  0  0  0  0
   20.8912   -6.6870  -16.0306 N   0  0  0  0  0  0  0  0  0  0  0  0
   20.9607   -5.1884  -14.1183 C   0  0  0  0  0  0  0  0  0  0  0  0
   21.5739   -4.8930  -12.9082 O   0  0  0  0  0  0  0  0  0  0  0  0
   19.8058   -4.7516  -14.3303 O   0  0  0  0  0  0  0  0  0  0  0  0
  2  1  1  1
  2  3  1  0
  4  2  1  0
  4  6  1  0
  4  5  1  1
  6  8  1  0
  6  7  2  0
  8  9  1  0
  9 14  1  0
 10 11  1  0
  9 10  1  1
 12 11  1  0
 13 12  2  0
 14 20  1  0
 14 15  2  0
 16 12  1  0
 17 18  1  0
 19 18  1  6
 19 21  1  0
 20 19  1  0
 21 22  1  0
 23 21  2  0
M  END
$$$$
