VES.pdb
     RDKit          3D

 23 22  0  0  1  0  0  0  0  0999 V2000
   20.5962  -12.1389  -15.7536 C   0  0  0  0  0  0  0  0  0  0  0  0
   19.1666  -12.5431  -16.0164 C   0  0  2  0  0  0  0  0  0  0  0  0
   19.2111  -13.5858  -17.1285 C   0  0  0  0  0  0  0  0  0  0  0  0
   18.4406  -11.3279  -16.5725 C   0  0  2  0  0  0  0  0  0  0  0  0
   18.9984  -11.0500  -17.8755 N   0  0  0  0  0  0  0  0  0  0  0  0
   18.5124  -10.1689  -15.6474 C   0  0  0  0  0  0  0  0  0  0  0  0
   17.9508  -10.2564  -14.5023 O   0  0  0  0  0  0  0  0  0  0  0  0
   19.1971   -9.0000  -16.0509 N   0  0  0  0  0  0  0  0  0  0  0  0
   19.2405   -7.8186  -15.2501 C   0  0  1  0  0  0  0  0  0  0  0  0
   20.6446   -7.2463  -15.2169 C   0  0  0  0  0  0  0  0  0  0  0  0
   20.7280   -6.0733  -14.2848 C   0  0  0  0  0  0  0  0  0  0  0  0
   22.1156   -5.6031  -14.2232 C   0  0  0  0  0  0  0  0  0  0  0  0
   23.0148   -6.1792  -14.8631 O   0  0  0  0  0  0  0  0  0  0  0  0
   18.3420   -6.7457  -15.7641 C   0  0  0  0  0  0  0  0  0  0  0  0
   18.0638   -6.7297  -16.9914 O   0  0  0  0  0  0  0  0  0  0  0  0
   22.4720   -4.5050  -13.4533 O   0  0  0  0  0  0  0  0  0  0  0  0
   14.4224   -4.7753  -16.0324 O   0  0  0  0  0  0  0  0  0  0  0  0
   15.4568   -5.6191  -15.6625 C   0  0  0  0  0  0  0  0  0  0  0  0
   16.7211   -4.8895  -15.3169 C   0  0  2  0  0  0  0  0  0  0  0  0
   17.7945   -5.7486  -14.9177 N   0  0  0  0  0  0  0  0  0  0  0  0
   16.3969   -3.8577  -14.3022 C   0  0  0  0  0  0  0  0  0  0  0  0
   16.9904   -3.9848  -13.0536 O   0  0  0  0  0  0  0  0  0  0  0  0
   15.6272   -2.8908  -14.5071 O   0  0  0  0  0  0  0  0  0  0  0  0
  2  1  1  6
  2  3  1  0
  4  2  1  0
  4  6  1  0
  4  5  1  6
  6  8  1  0
  6  7  2  0
  8  9  1  0
  9 14  1  0
 10 11  1  0
  9 10  1  6
 12 11  1  0
 13 12  2  0
 14 20  1  0
 14 15  2  0
 16 12  1  0
 17 18  1  0
 19 18  1  1
 19 21  1  0
 20 19  1  0
 21 22  1  0
 23 21  2  0
M  END
$$$$
