VES.pdb
     RDKit          3D

 23 22  0  0  1  0  0  0  0  0999 V2000
   23.5111  -11.3659  -14.8682 C   0  0  0  0  0  0  0  0  0  0  0  0
   22.5312  -12.2438  -15.6067 C   0  0  2  0  0  0  0  0  0  0  0  0
   23.3502  -13.0662  -16.5961 C   0  0  0  0  0  0  0  0  0  0  0  0
   21.6257  -11.3351  -16.4235 C   0  0  2  0  0  0  0  0  0  0  0  0
   22.4406  -10.7151  -17.4422 N   0  0  0  0  0  0  0  0  0  0  0  0
   20.9113  -10.3530  -15.5695 C   0  0  0  0  0  0  0  0  0  0  0  0
   20.0869  -10.7818  -14.6914 O   0  0  0  0  0  0  0  0  0  0  0  0
   21.1571   -8.9721  -15.7449 N   0  0  0  0  0  0  0  0  0  0  0  0
   20.5005   -7.9691  -14.9693 C   0  0  1  0  0  0  0  0  0  0  0  0
   21.4951   -6.9325  -14.4832 C   0  0  0  0  0  0  0  0  0  0  0  0
   20.8187   -5.8833  -13.6507 C   0  0  0  0  0  0  0  0  0  0  0  0
   21.8258   -4.9468  -13.1420 C   0  0  0  0  0  0  0  0  0  0  0  0
   22.3648   -5.1272  -12.0343 O   0  0  0  0  0  0  0  0  0  0  0  0
   19.4530   -7.2426  -15.7423 C   0  0  0  0  0  0  0  0  0  0  0  0
   19.7585   -6.7589  -16.8633 O   0  0  0  0  0  0  0  0  0  0  0  0
   22.2107   -3.8328  -13.8745 O   0  0  0  0  0  0  0  0  0  0  0  0
   14.7519   -6.0347  -16.2785 O   0  0  0  0  0  0  0  0  0  0  0  0
   15.7215   -6.6915  -15.5388 C   0  0  0  0  0  0  0  0  0  0  0  0
   17.1199   -6.3608  -15.9697 C   0  0  2  0  0  0  0  0  0  0  0  0
   18.1309   -7.0809  -15.2563 N   0  0  0  0  0  0  0  0  0  0  0  0
   17.2920   -4.8899  -15.8916 C   0  0  0  0  0  0  0  0  0  0  0  0
   17.3655   -4.1936  -17.0904 O   0  0  0  0  0  0  0  0  0  0  0  0
   17.3735   -4.2499  -14.8178 O   0  0  0  0  0  0  0  0  0  0  0  0
  2  1  1  6
  2  3  1  0
  4  2  1  0
  4  6  1  0
  4  5  1  6
  6  8  1  0
  6  7  2  0
  8  9  1  0
  9 14  1  0
 10 11  1  0
  9 10  1  6
 12 11  1  0
 13 12  2  0
 14 20  1  0
 14 15  2  0
 16 12  1  0
 17 18  1  0
 19 18  1  1
 19 21  1  0
 20 19  1  0
 21 22  1  0
 23 21  2  0
M  END
$$$$
