VES.pdb
     RDKit          3D

 23 22  0  0  1  0  0  0  0  0999 V2000
   18.1080  -12.1392  -16.2239 C   0  0  0  0  0  0  0  0  0  0  0  0
   16.9608  -11.7320  -15.3327 C   0  0  2  0  0  0  0  0  0  0  0  0
   15.6831  -12.0576  -16.0993 C   0  0  0  0  0  0  0  0  0  0  0  0
   17.0148  -10.2202  -15.1767 C   0  0  2  0  0  0  0  0  0  0  0  0
   16.4050   -9.6422  -16.3515 N   0  0  0  0  0  0  0  0  0  0  0  0
   18.3986   -9.7373  -14.9396 C   0  0  0  0  0  0  0  0  0  0  0  0
   19.0216  -10.1345  -13.8962 O   0  0  0  0  0  0  0  0  0  0  0  0
   18.9941   -8.8535  -15.8682 N   0  0  0  0  0  0  0  0  0  0  0  0
   20.3094   -8.3258  -15.6937 C   0  0  1  0  0  0  0  0  0  0  0  0
   21.1820   -8.6585  -16.8887 C   0  0  0  0  0  0  0  0  0  0  0  0
   21.6542  -10.0816  -16.8333 C   0  0  0  0  0  0  0  0  0  0  0  0
   22.5739  -10.3290  -17.9484 C   0  0  0  0  0  0  0  0  0  0  0  0
   23.8021  -10.1799  -17.8092 O   0  0  0  0  0  0  0  0  0  0  0  0
   20.3157   -6.8423  -15.5458 C   0  0  0  0  0  0  0  0  0  0  0  0
   19.6894   -6.1503  -16.3900 O   0  0  0  0  0  0  0  0  0  0  0  0
   22.1088  -10.7360  -19.1908 O   0  0  0  0  0  0  0  0  0  0  0  0
   19.7243   -2.9159  -13.3955 O   0  0  0  0  0  0  0  0  0  0  0  0
   19.7118   -4.2786  -13.6439 C   0  0  0  0  0  0  0  0  0  0  0  0
   20.9693   -4.7730  -14.2956 C   0  0  2  0  0  0  0  0  0  0  0  0
   21.0017   -6.1911  -14.4897 N   0  0  0  0  0  0  0  0  0  0  0  0
   22.1242   -4.2688  -13.5137 C   0  0  0  0  0  0  0  0  0  0  0  0
   22.3127   -2.8940  -13.4722 O   0  0  0  0  0  0  0  0  0  0  0  0
   22.9281   -5.0054  -12.8968 O   0  0  0  0  0  0  0  0  0  0  0  0
  2  1  1  6
  2  3  1  0
  4  2  1  0
  4  6  1  0
  4  5  1  6
  6  8  1  0
  6  7  2  0
  8  9  1  0
  9 14  1  0
 10 11  1  0
  9 10  1  6
 12 11  1  0
 13 12  2  0
 14 20  1  0
 14 15  2  0
 16 12  1  0
 17 18  1  0
 19 18  1  1
 19 21  1  0
 20 19  1  0
 21 22  1  0
 23 21  2  0
M  END
$$$$
