VES.pdb
     RDKit          3D

 23 22  0  0  1  0  0  0  0  0999 V2000
   36.5117   -5.2188   -6.6196 C   0  0  0  0  0  0  0  0  0  0  0  0
   37.6689   -5.5092   -7.5431 C   0  0  2  0  0  0  0  0  0  0  0  0
   37.0616   -5.8650   -8.8962 C   0  0  0  0  0  0  0  0  0  0  0  0
   38.3676   -6.7569   -7.0254 C   0  0  2  0  0  0  0  0  0  0  0  0
   38.5785   -6.5776   -5.6079 N   0  0  0  0  0  0  0  0  0  0  0  0
   39.6200   -7.0394   -7.7709 C   0  0  0  0  0  0  0  0  0  0  0  0
   39.5416   -7.5529   -8.9391 O   0  0  0  0  0  0  0  0  0  0  0  0
   40.8657   -6.7358   -7.1757 N   0  0  0  0  0  0  0  0  0  0  0  0
   42.1121   -7.0241   -7.8100 C   0  0  1  0  0  0  0  0  0  0  0  0
   42.8941   -5.7484   -8.0573 C   0  0  0  0  0  0  0  0  0  0  0  0
   42.3323   -4.9876   -9.2222 C   0  0  0  0  0  0  0  0  0  0  0  0
   43.0483   -3.7152   -9.3587 C   0  0  0  0  0  0  0  0  0  0  0  0
   43.1478   -3.1532  -10.4651 O   0  0  0  0  0  0  0  0  0  0  0  0
   42.9788   -7.9172   -6.9890 C   0  0  0  0  0  0  0  0  0  0  0  0
   43.4076   -7.4914   -5.8850 O   0  0  0  0  0  0  0  0  0  0  0  0
   43.6365   -3.0971   -8.2644 O   0  0  0  0  0  0  0  0  0  0  0  0
   44.5046  -12.3560   -5.8769 O   0  0  0  0  0  0  0  0  0  0  0  0
   43.7859  -11.5424   -6.7373 C   0  0  0  0  0  0  0  0  0  0  0  0
   44.1657  -10.0945   -6.6385 C   0  0  2  0  0  0  0  0  0  0  0  0
   43.3327   -9.2235   -7.4112 N   0  0  0  0  0  0  0  0  0  0  0  0
   45.6045   -9.9699   -6.9757 C   0  0  0  0  0  0  0  0  0  0  0  0
   46.4969   -9.8449   -5.9196 O   0  0  0  0  0  0  0  0  0  0  0  0
   46.0527   -9.9714   -8.1456 O   0  0  0  0  0  0  0  0  0  0  0  0
  2  1  1  1
  2  3  1  0
  4  2  1  0
  4  6  1  0
  4  5  1  1
  6  8  1  0
  6  7  2  0
  8  9  1  0
  9 14  1  0
 10 11  1  0
  9 10  1  1
 12 11  1  0
 13 12  2  0
 14 20  1  0
 14 15  2  0
 16 12  1  0
 17 18  1  0
 19 18  1  6
 19 21  1  0
 20 19  1  0
 21 22  1  0
 23 21  2  0
M  END
$$$$
