VES.pdb
     RDKit          3D

 23 22  0  0  1  0  0  0  0  0999 V2000
   17.6911  -11.6584  -18.0251 C   0  0  0  0  0  0  0  0  0  0  0  0
   18.2796  -12.2900  -16.7878 C   0  0  2  0  0  0  0  0  0  0  0  0
   17.2512  -13.2996  -16.2886 C   0  0  0  0  0  0  0  0  0  0  0  0
   18.3915  -11.2054  -15.7275 C   0  0  2  0  0  0  0  0  0  0  0  0
   17.0499  -10.8601  -15.3190 N   0  0  0  0  0  0  0  0  0  0  0  0
   19.1735  -10.0390  -16.2094 C   0  0  0  0  0  0  0  0  0  0  0  0
   20.4122  -10.1961  -16.4842 O   0  0  0  0  0  0  0  0  0  0  0  0
   18.5345   -8.7864  -16.3533 N   0  0  0  0  0  0  0  0  0  0  0  0
   19.2256   -7.6157  -16.7898 C   0  0  1  0  0  0  0  0  0  0  0  0
   18.3444   -6.7826  -17.7006 C   0  0  0  0  0  0  0  0  0  0  0  0
   19.1162   -5.6500  -18.3112 C   0  0  0  0  0  0  0  0  0  0  0  0
   18.2361   -4.8935  -19.2075 C   0  0  0  0  0  0  0  0  0  0  0  0
   18.6746   -3.9434  -19.8820 O   0  0  0  0  0  0  0  0  0  0  0  0
   19.6377   -6.7387  -15.6568 C   0  0  0  0  0  0  0  0  0  0  0  0
   18.7958   -6.4813  -14.7574 O   0  0  0  0  0  0  0  0  0  0  0  0
   16.8908   -5.2094  -19.3339 O   0  0  0  0  0  0  0  0  0  0  0  0
   22.8507   -5.4650  -12.4986 O   0  0  0  0  0  0  0  0  0  0  0  0
   22.3540   -6.2151  -13.5519 C   0  0  0  0  0  0  0  0  0  0  0  0
   21.3970   -5.4540  -14.4210 C   0  0  2  0  0  0  0  0  0  0  0  0
   20.9412   -6.1890  -15.5619 N   0  0  0  0  0  0  0  0  0  0  0  0
   22.0268   -4.1600  -14.7793 C   0  0  0  0  0  0  0  0  0  0  0  0
   22.0479   -3.1714  -13.8048 O   0  0  0  0  0  0  0  0  0  0  0  0
   22.5340   -3.9135  -15.8980 O   0  0  0  0  0  0  0  0  0  0  0  0
  2  1  1  6
  2  3  1  0
  4  2  1  0
  4  6  1  0
  4  5  1  6
  6  8  1  0
  6  7  2  0
  8  9  1  0
  9 14  1  0
 10 11  1  0
  9 10  1  6
 12 11  1  0
 13 12  2  0
 14 20  1  0
 14 15  2  0
 16 12  1  0
 17 18  1  0
 19 18  1  6
 19 21  1  0
 20 19  1  0
 21 22  1  0
 23 21  2  0
M  END
$$$$
