CML.pdb
     RDKit          3D

 23 22  0  0  1  0  0  0  0  0999 V2000
   10.7037  -16.2038   19.4577 N   0  0  0  0  0  0  0  0  0  0  0  0
    9.6160  -16.6629   20.2867 C   0  0  1  0  0  0  0  0  0  0  0  0
    9.6315  -18.1463   20.4804 C   0  0  0  0  0  0  0  0  0  0  0  0
   11.0704  -18.6630   21.4628 S   0  0  0  0  0  0  0  0  0  0  0  0
    9.6902  -15.9899   21.6185 C   0  0  0  0  0  0  0  0  0  0  0  0
   10.7530  -15.3979   21.9680 O   0  0  0  0  0  0  0  0  0  0  0  0
    5.9259  -12.9362   26.3297 C   0  0  0  0  0  0  0  0  0  0  0  0
    6.8169  -12.1612   24.9642 S   0  0  0  0  0  0  0  0  0  0  0  0
    7.1285  -13.3755   23.6509 C   0  0  0  0  0  0  0  0  0  0  0  0
    7.3888  -14.7360   24.2537 C   0  0  0  0  0  0  0  0  0  0  0  0
    8.7003  -15.2366   23.7446 C   0  0  2  0  0  0  0  0  0  0  0  0
    8.6018  -15.9859   22.5249 N   0  0  0  0  0  0  0  0  0  0  0  0
    9.4122  -16.0615   24.7656 C   0  0  0  0  0  0  0  0  0  0  0  0
    9.6662  -17.2545   24.4657 O   0  0  0  0  0  0  0  0  0  0  0  0
    9.4084  -13.8237   28.4194 C   0  0  0  0  0  0  0  0  0  0  0  0
   10.3889  -14.8008   28.9037 C   0  0  2  0  0  0  0  0  0  0  0  0
   11.4442  -14.0043   29.7185 C   0  0  0  0  0  0  0  0  0  0  0  0
   11.1412  -15.6751   28.0197 C   0  0  0  0  0  0  0  0  0  0  0  0
   10.5701  -16.4488   26.9240 C   0  0  2  0  0  0  0  0  0  0  0  0
    9.7967  -15.5646   26.0137 N   0  0  0  0  0  0  0  0  0  0  0  0
    9.7450  -17.6079   27.2196 C   0  0  0  0  0  0  0  0  0  0  0  0
    8.4711  -17.6173   26.9742 O   0  0  0  0  0  0  0  0  0  0  0  0
   10.2919  -18.7529   27.7709 O   0  0  0  0  0  0  0  0  0  0  0  0
  2  1  1  6
  2  3  1  0
  2  5  1  0
  4  3  1  0
  5  6  2  0
  5 12  1  0
  7  8  1  0
  9 10  1  0
  9  8  1  0
 11 10  1  1
 11 13  1  0
 12 11  1  0
 13 20  1  0
 13 14  2  0
 16 17  1  6
 16 15  1  0
 16 18  1  0
 19 18  1  1
 19 21  1  0
 20 19  1  0
 21 23  1  0
 22 21  2  0
M  END
$$$$
