CML.pdb
     RDKit          3D

 23 22  0  0  1  0  0  0  0  0999 V2000
    9.6813  -16.7183   19.3293 N   0  0  0  0  0  0  0  0  0  0  0  0
   10.3186  -17.3397   20.4646 C   0  0  1  0  0  0  0  0  0  0  0  0
   11.8113  -17.3043   20.3726 C   0  0  0  0  0  0  0  0  0  0  0  0
   12.5641  -18.5454   21.4660 S   0  0  0  0  0  0  0  0  0  0  0  0
    9.8842  -16.6485   21.7159 C   0  0  0  0  0  0  0  0  0  0  0  0
   10.1168  -15.4136   21.8680 O   0  0  0  0  0  0  0  0  0  0  0  0
    6.6825  -13.0465   26.1967 C   0  0  0  0  0  0  0  0  0  0  0  0
    6.9725  -14.1561   24.8026 S   0  0  0  0  0  0  0  0  0  0  0  0
    6.9306  -15.8839   25.3586 C   0  0  0  0  0  0  0  0  0  0  0  0
    7.3106  -16.8038   24.2221 C   0  0  0  0  0  0  0  0  0  0  0  0
    8.7542  -16.5924   23.9040 C   0  0  2  0  0  0  0  0  0  0  0  0
    9.2104  -17.3285   22.7599 N   0  0  0  0  0  0  0  0  0  0  0  0
    9.6307  -16.9134   25.0695 C   0  0  0  0  0  0  0  0  0  0  0  0
   10.2295  -18.0174   25.0520 O   0  0  0  0  0  0  0  0  0  0  0  0
   10.4038  -13.1168   27.4199 C   0  0  0  0  0  0  0  0  0  0  0  0
    9.9841  -14.2152   28.2963 C   0  0  2  0  0  0  0  0  0  0  0  0
   10.0118  -13.6610   29.7469 C   0  0  0  0  0  0  0  0  0  0  0  0
   10.6661  -15.4975   28.3438 C   0  0  0  0  0  0  0  0  0  0  0  0
   10.7309  -16.4516   27.2435 C   0  0  2  0  0  0  0  0  0  0  0  0
    9.8042  -16.0489   26.1536 N   0  0  0  0  0  0  0  0  0  0  0  0
   10.5150  -17.8643   27.5068 C   0  0  0  0  0  0  0  0  0  0  0  0
    9.4371  -18.4725   27.1180 O   0  0  0  0  0  0  0  0  0  0  0  0
   11.4594  -18.6184   28.1802 O   0  0  0  0  0  0  0  0  0  0  0  0
  2  1  1  6
  2  3  1  0
  2  5  1  0
  4  3  1  0
  5  6  2  0
  5 12  1  0
  7  8  1  0
  9 10  1  0
  9  8  1  0
 11 10  1  1
 11 13  1  0
 12 11  1  0
 13 20  1  0
 13 14  2  0
 16 17  1  1
 16 15  1  0
 16 18  1  0
 19 18  1  1
 19 21  1  0
 20 19  1  0
 21 23  1  0
 22 21  2  0
M  END
$$$$
