CML.pdb
     RDKit          3D

 23 22  0  0  1  0  0  0  0  0999 V2000
   10.2442  -16.3362   19.3779 N   0  0  0  0  0  0  0  0  0  0  0  0
    9.2886  -16.8136   20.3475 C   0  0  1  0  0  0  0  0  0  0  0  0
    9.4169  -18.2823   20.6015 C   0  0  0  0  0  0  0  0  0  0  0  0
    8.6272  -19.2466   19.2790 S   0  0  0  0  0  0  0  0  0  0  0  0
    9.4736  -16.0722   21.6314 C   0  0  0  0  0  0  0  0  0  0  0  0
   10.6288  -15.6874   21.9771 O   0  0  0  0  0  0  0  0  0  0  0  0
    5.9777  -12.3277   26.0538 C   0  0  0  0  0  0  0  0  0  0  0  0
    5.8742  -12.2355   24.2538 S   0  0  0  0  0  0  0  0  0  0  0  0
    7.1942  -13.2276   23.4993 C   0  0  0  0  0  0  0  0  0  0  0  0
    7.4725  -14.4487   24.3442 C   0  0  0  0  0  0  0  0  0  0  0  0
    8.6492  -15.1652   23.7681 C   0  0  2  0  0  0  0  0  0  0  0  0
    8.3912  -15.7759   22.4956 N   0  0  0  0  0  0  0  0  0  0  0  0
    9.1806  -16.1995   24.7048 C   0  0  0  0  0  0  0  0  0  0  0  0
    9.8690  -17.1255   24.2085 O   0  0  0  0  0  0  0  0  0  0  0  0
   10.5253  -14.5414   30.4970 C   0  0  0  0  0  0  0  0  0  0  0  0
   10.8416  -15.2801   29.2702 C   0  0  2  0  0  0  0  0  0  0  0  0
   12.1306  -14.6397   28.6865 C   0  0  0  0  0  0  0  0  0  0  0  0
    9.9157  -15.4037   28.1571 C   0  0  0  0  0  0  0  0  0  0  0  0
   10.1049  -16.2762   27.0047 C   0  0  2  0  0  0  0  0  0  0  0  0
    8.9445  -16.1742   26.0818 N   0  0  0  0  0  0  0  0  0  0  0  0
   10.3807  -17.6876   27.2126 C   0  0  0  0  0  0  0  0  0  0  0  0
    9.4300  -18.5414   27.4371 O   0  0  0  0  0  0  0  0  0  0  0  0
   11.6742  -18.1768   27.1723 O   0  0  0  0  0  0  0  0  0  0  0  0
  2  1  1  6
  2  3  1  0
  2  5  1  0
  4  3  1  0
  5  6  2  0
  5 12  1  0
  7  8  1  0
  9 10  1  0
  9  8  1  0
 11 10  1  1
 11 13  1  0
 12 11  1  0
 13 20  1  0
 13 14  2  0
 16 17  1  6
 16 15  1  0
 16 18  1  0
 19 18  1  1
 19 21  1  0
 20 19  1  0
 21 23  1  0
 22 21  2  0
M  END
$$$$
