CML.pdb
     RDKit          3D

 23 22  0  0  1  0  0  0  0  0999 V2000
    9.2121  -16.7428   19.4218 N   0  0  0  0  0  0  0  0  0  0  0  0
    8.2640  -16.7639   20.5089 C   0  0  1  0  0  0  0  0  0  0  0  0
    7.8050  -18.1486   20.8404 C   0  0  0  0  0  0  0  0  0  0  0  0
    9.1850  -19.1710   21.4343 S   0  0  0  0  0  0  0  0  0  0  0  0
    8.8847  -16.1461   21.7193 C   0  0  0  0  0  0  0  0  0  0  0  0
   10.1395  -15.9892   21.7746 O   0  0  0  0  0  0  0  0  0  0  0  0
    5.8443  -12.7337   26.3620 C   0  0  0  0  0  0  0  0  0  0  0  0
    6.5501  -11.9108   24.9185 S   0  0  0  0  0  0  0  0  0  0  0  0
    7.5308  -13.0878   23.9443 C   0  0  0  0  0  0  0  0  0  0  0  0
    7.9215  -14.2701   24.7997 C   0  0  0  0  0  0  0  0  0  0  0  0
    8.7764  -15.1831   23.9840 C   0  0  2  0  0  0  0  0  0  0  0  0
    8.1151  -15.7204   22.8295 N   0  0  0  0  0  0  0  0  0  0  0  0
    9.3204  -16.3089   24.8004 C   0  0  0  0  0  0  0  0  0  0  0  0
    8.5792  -17.3092   24.9666 O   0  0  0  0  0  0  0  0  0  0  0  0
    9.3068  -14.0961   29.5962 C   0  0  0  0  0  0  0  0  0  0  0  0
   10.2369  -14.9305   28.8285 C   0  0  2  0  0  0  0  0  0  0  0  0
   11.4872  -14.0545   28.5432 C   0  0  0  0  0  0  0  0  0  0  0  0
    9.8857  -15.5525   27.5630 C   0  0  0  0  0  0  0  0  0  0  0  0
   10.7206  -16.5025   26.8379 C   0  0  2  0  0  0  0  0  0  0  0  0
   10.5951  -16.2890   25.3726 N   0  0  0  0  0  0  0  0  0  0  0  0
   10.5715  -17.9256   27.0909 C   0  0  0  0  0  0  0  0  0  0  0  0
   11.5196  -18.6233   27.6363 O   0  0  0  0  0  0  0  0  0  0  0  0
    9.4038  -18.5915   26.7633 O   0  0  0  0  0  0  0  0  0  0  0  0
  2  1  1  6
  2  3  1  0
  2  5  1  0
  4  3  1  0
  5  6  2  0
  5 12  1  0
  7  8  1  0
  9 10  1  0
  9  8  1  0
 11 10  1  1
 11 13  1  0
 12 11  1  0
 13 20  1  0
 13 14  2  0
 16 17  1  6
 16 15  1  0
 16 18  1  0
 19 18  1  1
 19 21  1  0
 20 19  1  0
 21 23  1  0
 22 21  2  0
M  END
$$$$
