CML.pdb
     RDKit          3D

 23 22  0  0  1  0  0  0  0  0999 V2000
    7.8432  -18.5438   19.9354 N   0  0  0  0  0  0  0  0  0  0  0  0
    8.9618  -17.8929   20.5727 C   0  0  1  0  0  0  0  0  0  0  0  0
    9.2609  -16.5545   19.9750 C   0  0  0  0  0  0  0  0  0  0  0  0
    7.9111  -15.3797   20.2922 S   0  0  0  0  0  0  0  0  0  0  0  0
    8.6755  -17.7304   22.0301 C   0  0  0  0  0  0  0  0  0  0  0  0
    7.4811  -17.5973   22.4275 O   0  0  0  0  0  0  0  0  0  0  0  0
   10.0355  -20.6156   28.3888 C   0  0  0  0  0  0  0  0  0  0  0  0
   10.8411  -19.0834   27.8766 S   0  0  0  0  0  0  0  0  0  0  0  0
    9.7746  -18.1699   26.7258 C   0  0  0  0  0  0  0  0  0  0  0  0
   10.2560  -18.3644   25.3072 C   0  0  0  0  0  0  0  0  0  0  0  0
    9.3586  -17.5970   24.3930 C   0  0  2  0  0  0  0  0  0  0  0  0
    9.7026  -17.7182   23.0052 N   0  0  0  0  0  0  0  0  0  0  0  0
    9.3052  -16.1496   24.7559 C   0  0  0  0  0  0  0  0  0  0  0  0
   10.2147  -15.4098   24.3051 O   0  0  0  0  0  0  0  0  0  0  0  0
    5.5208  -11.7981   27.0904 C   0  0  0  0  0  0  0  0  0  0  0  0
    6.8531  -12.2586   26.6858 C   0  0  2  0  0  0  0  0  0  0  0  0
    7.3590  -11.2615   25.6078 C   0  0  0  0  0  0  0  0  0  0  0  0
    7.1060  -13.5870   26.1536 C   0  0  0  0  0  0  0  0  0  0  0  0
    8.4257  -14.1826   25.9834 C   0  0  2  0  0  0  0  0  0  0  0  0
    8.3026  -15.6019   25.5606 N   0  0  0  0  0  0  0  0  0  0  0  0
    9.3819  -14.1290   27.0763 C   0  0  0  0  0  0  0  0  0  0  0  0
   10.2861  -13.2013   27.1451 O   0  0  0  0  0  0  0  0  0  0  0  0
    9.3590  -15.0672   28.0929 O   0  0  0  0  0  0  0  0  0  0  0  0
  2  1  1  6
  2  3  1  0
  2  5  1  0
  4  3  1  0
  5  6  2  0
  5 12  1  0
  7  8  1  0
  9 10  1  0
  9  8  1  0
 11 10  1  1
 11 13  1  0
 12 11  1  0
 13 20  1  0
 13 14  2  0
 16 17  1  6
 16 15  1  0
 16 18  1  0
 19 18  1  1
 19 21  1  0
 20 19  1  0
 21 23  1  0
 22 21  2  0
M  END
$$$$
