CML.pdb
     RDKit          3D

 23 22  0  0  1  0  0  0  0  0999 V2000
    7.4399  -15.4243   19.0718 N   0  0  0  0  0  0  0  0  0  0  0  0
    8.3247  -14.7373   19.9808 C   0  0  1  0  0  0  0  0  0  0  0  0
    7.9690  -13.2933   20.1431 C   0  0  0  0  0  0  0  0  0  0  0  0
    8.3136  -12.3595   18.6226 S   0  0  0  0  0  0  0  0  0  0  0  0
    8.2834  -15.4092   21.3146 C   0  0  0  0  0  0  0  0  0  0  0  0
    7.1730  -15.7622   21.8092 O   0  0  0  0  0  0  0  0  0  0  0  0
   11.5416  -20.3164   23.9512 C   0  0  0  0  0  0  0  0  0  0  0  0
   11.1535  -19.9040   22.2370 S   0  0  0  0  0  0  0  0  0  0  0  0
   10.0510  -18.4630   22.1741 C   0  0  0  0  0  0  0  0  0  0  0  0
   10.2898  -17.5747   23.3725 C   0  0  0  0  0  0  0  0  0  0  0  0
    9.3589  -16.4099   23.2919 C   0  0  2  0  0  0  0  0  0  0  0  0
    9.4557  -15.6733   22.0643 N   0  0  0  0  0  0  0  0  0  0  0  0
    9.5459  -15.4713   24.4380 C   0  0  0  0  0  0  0  0  0  0  0  0
   10.5898  -14.7726   24.4447 O   0  0  0  0  0  0  0  0  0  0  0  0
    7.5167  -11.6144   25.4134 C   0  0  0  0  0  0  0  0  0  0  0  0
    7.0171  -12.8442   26.0368 C   0  0  2  0  0  0  0  0  0  0  0  0
    5.7096  -12.4637   26.7837 C   0  0  0  0  0  0  0  0  0  0  0  0
    7.7990  -13.6334   26.9736 C   0  0  0  0  0  0  0  0  0  0  0  0
    8.9523  -14.4515   26.6192 C   0  0  2  0  0  0  0  0  0  0  0  0
    8.6222  -15.3457   25.4789 N   0  0  0  0  0  0  0  0  0  0  0  0
    9.5988  -15.2586   27.6400 C   0  0  0  0  0  0  0  0  0  0  0  0
   10.0874  -14.7287   28.7188 O   0  0  0  0  0  0  0  0  0  0  0  0
    9.7122  -16.6305   27.5013 O   0  0  0  0  0  0  0  0  0  0  0  0
  2  1  1  6
  2  3  1  0
  2  5  1  0
  4  3  1  0
  5  6  2  0
  5 12  1  0
  7  8  1  0
  9 10  1  0
  9  8  1  0
 11 10  1  6
 11 13  1  0
 12 11  1  0
 13 20  1  0
 13 14  2  0
 16 17  1  1
 16 15  1  0
 16 18  1  0
 19 18  1  1
 19 21  1  0
 20 19  1  0
 21 23  1  0
 22 21  2  0
M  END
$$$$
