CML.pdb
     RDKit          3D

 23 22  0  0  1  0  0  0  0  0999 V2000
    8.1173  -16.9820   19.4228 N   0  0  0  0  0  0  0  0  0  0  0  0
    9.3264  -17.2757   20.1527 C   0  0  1  0  0  0  0  0  0  0  0  0
   10.5503  -17.1661   19.2994 C   0  0  0  0  0  0  0  0  0  0  0  0
   10.7101  -18.6019   18.1968 S   0  0  0  0  0  0  0  0  0  0  0  0
    9.4458  -16.3389   21.3105 C   0  0  0  0  0  0  0  0  0  0  0  0
   10.3057  -15.4104   21.2848 O   0  0  0  0  0  0  0  0  0  0  0  0
    6.6234  -11.7280   26.7551 C   0  0  0  0  0  0  0  0  0  0  0  0
    6.2672  -12.9472   25.4722 S   0  0  0  0  0  0  0  0  0  0  0  0
    7.7896  -13.8106   24.9894 C   0  0  0  0  0  0  0  0  0  0  0  0
    7.5074  -14.7610   23.8495 C   0  0  0  0  0  0  0  0  0  0  0  0
    8.7657  -15.4957   23.5227 C   0  0  2  0  0  0  0  0  0  0  0  0
    8.6227  -16.4470   22.4580 N   0  0  0  0  0  0  0  0  0  0  0  0
    9.3299  -16.1873   24.7198 C   0  0  0  0  0  0  0  0  0  0  0  0
    8.5859  -17.0060   25.3148 O   0  0  0  0  0  0  0  0  0  0  0  0
    9.2234  -13.6668   29.3650 C   0  0  0  0  0  0  0  0  0  0  0  0
   10.0148  -14.7373   28.7498 C   0  0  2  0  0  0  0  0  0  0  0  0
   11.4664  -14.5757   29.2779 C   0  0  0  0  0  0  0  0  0  0  0  0
   10.1285  -14.9141   27.3119 C   0  0  0  0  0  0  0  0  0  0  0  0
   10.8652  -15.9882   26.6570 C   0  0  2  0  0  0  0  0  0  0  0  0
   10.6259  -15.9610   25.1905 N   0  0  0  0  0  0  0  0  0  0  0  0
   10.6863  -17.3579   27.1080 C   0  0  0  0  0  0  0  0  0  0  0  0
   11.6934  -18.0956   27.4612 O   0  0  0  0  0  0  0  0  0  0  0  0
    9.4275  -17.9270   27.1837 O   0  0  0  0  0  0  0  0  0  0  0  0
  2  1  1  6
  2  3  1  0
  2  5  1  0
  4  3  1  0
  5  6  2  0
  5 12  1  0
  7  8  1  0
  9 10  1  0
  9  8  1  0
 11 10  1  1
 11 13  1  0
 12 11  1  0
 13 20  1  0
 13 14  2  0
 16 17  1  6
 16 15  1  0
 16 18  1  0
 19 18  1  1
 19 21  1  0
 20 19  1  0
 21 23  1  0
 22 21  2  0
M  END
$$$$
