KYF.pdb
     RDKit          3D

 33 34  0  0  1  0  0  0  0  0999 V2000
    6.8425  -17.4477   20.2772 N   0  0  0  0  0  0  0  0  0  0  0  0
    7.9855  -16.6263   20.7195 C   0  0  1  0  0  0  0  0  0  0  0  0
    7.4615  -15.2317   20.8695 C   0  0  0  0  0  0  0  0  0  0  0  0
    7.2939  -14.5636   19.5456 C   0  0  0  0  0  0  0  0  0  0  0  0
    8.3145  -13.4751   19.3913 C   0  0  0  0  0  0  0  0  0  0  0  0
    8.0467  -12.6610   18.1569 C   0  0  0  0  0  0  0  0  0  0  0  0
    9.0252  -11.5696   18.1737 N   0  0  0  0  0  0  0  0  0  0  0  0
    8.4901  -17.1179   22.0118 C   0  0  0  0  0  0  0  0  0  0  0  0
    7.6756  -17.5190   22.8747 O   0  0  0  0  0  0  0  0  0  0  0  0
   10.0081  -23.3246   20.6557 O   0  0  0  0  0  0  0  0  0  0  0  0
   10.3460  -22.1941   21.3763 C   0  0  0  0  0  0  0  0  0  0  0  0
   10.7956  -21.0797   20.7188 C   0  0  0  0  0  0  0  0  0  0  0  0
   11.1432  -19.9353   21.3806 C   0  0  0  0  0  0  0  0  0  0  0  0
   11.0510  -19.8602   22.7715 C   0  0  0  0  0  0  0  0  0  0  0  0
   11.4402  -18.6243   23.4520 C   0  0  0  0  0  0  0  0  0  0  0  0
   10.2961  -17.6353   23.6362 C   0  0  2  0  0  0  0  0  0  0  0  0
    9.8782  -17.1606   22.3337 N   0  0  0  0  0  0  0  0  0  0  0  0
   10.7541  -16.4876   24.4470 C   0  0  0  0  0  0  0  0  0  0  0  0
   11.5587  -15.6170   24.0407 O   0  0  0  0  0  0  0  0  0  0  0  0
   10.5965  -20.9892   23.4305 C   0  0  0  0  0  0  0  0  0  0  0  0
   10.2503  -22.1332   22.7509 C   0  0  0  0  0  0  0  0  0  0  0  0
   10.2618  -16.3475   25.7706 N   0  0  0  0  0  0  0  0  0  0  0  0
   10.7576  -15.2540   26.6136 C   0  0  1  0  0  0  0  0  0  0  0  0
   10.2076  -13.9806   25.9990 C   0  0  0  0  0  0  0  0  0  0  0  0
    8.8146  -13.7497   26.4300 C   0  0  0  0  0  0  0  0  0  0  0  0
    8.5118  -12.9070   27.4713 C   0  0  0  0  0  0  0  0  0  0  0  0
    7.1869  -12.6934   27.8660 C   0  0  0  0  0  0  0  0  0  0  0  0
    6.1706  -13.3551   27.1801 C   0  0  0  0  0  0  0  0  0  0  0  0
    6.4626  -14.2009   26.1366 C   0  0  0  0  0  0  0  0  0  0  0  0
    7.7836  -14.3818   25.7813 C   0  0  0  0  0  0  0  0  0  0  0  0
   10.2878  -15.4976   27.9860 C   0  0  0  0  0  0  0  0  0  0  0  0
   10.5994  -14.6996   28.8974 O   0  0  0  0  0  0  0  0  0  0  0  0
    9.5059  -16.5899   28.3037 O   0  0  0  0  0  0  0  0  0  0  0  0
  2  3  1  0
  2  1  1  1
  4  3  1  0
  5  4  1  0
  6  5  1  0
  7  6  1  0
  8  2  1  0
  9  8  2  0
 10 11  1  0
 11 12  2  0
 11 21  1  0
 12 13  1  0
 13 14  2  0
 14 15  1  0
 16 15  1  6
 16 17  1  0
 17  8  1  0
 18 16  1  0
 18 22  1  0
 19 18  2  0
 20 14  1  0
 21 20  2  0
 23 22  1  0
 23 31  1  0
 23 24  1  6
 24 25  1  0
 25 30  1  0
 25 26  2  0
 26 27  1  0
 27 28  2  0
 29 28  1  0
 30 29  2  0
 31 33  1  0
 32 31  2  0
M  END
$$$$
