KYF.pdb
     RDKit          3D

 33 34  0  0  1  0  0  0  0  0999 V2000
    7.4636  -20.3368   19.9730 N   0  0  0  0  0  0  0  0  0  0  0  0
    7.2684  -19.2429   20.9435 C   0  0  1  0  0  0  0  0  0  0  0  0
    6.6184  -19.8619   22.1420 C   0  0  0  0  0  0  0  0  0  0  0  0
    5.5150  -20.7874   21.7505 C   0  0  0  0  0  0  0  0  0  0  0  0
    4.8267  -21.3075   22.9777 C   0  0  0  0  0  0  0  0  0  0  0  0
    3.6319  -22.1410   22.6089 C   0  0  0  0  0  0  0  0  0  0  0  0
    3.1222  -22.6940   23.8672 N   0  0  0  0  0  0  0  0  0  0  0  0
    8.5681  -18.6621   21.3174 C   0  0  0  0  0  0  0  0  0  0  0  0
    9.5348  -19.4236   21.5503 O   0  0  0  0  0  0  0  0  0  0  0  0
    6.6050  -12.4788   18.6442 O   0  0  0  0  0  0  0  0  0  0  0  0
    7.6164  -13.2813   19.1388 C   0  0  0  0  0  0  0  0  0  0  0  0
    7.3244  -14.2471   20.0653 C   0  0  0  0  0  0  0  0  0  0  0  0
    8.2845  -15.0681   20.5875 C   0  0  0  0  0  0  0  0  0  0  0  0
    9.6172  -14.9499   20.1892 C   0  0  0  0  0  0  0  0  0  0  0  0
   10.6236  -15.8370   20.7741 C   0  0  0  0  0  0  0  0  0  0  0  0
   10.0768  -16.7634   21.8529 C   0  0  2  0  0  0  0  0  0  0  0  0
    8.7834  -17.2573   21.4290 N   0  0  0  0  0  0  0  0  0  0  0  0
    9.9202  -16.0174   23.1190 C   0  0  0  0  0  0  0  0  0  0  0  0
   10.4174  -14.8874   23.3349 O   0  0  0  0  0  0  0  0  0  0  0  0
    9.9064  -13.9722   19.2533 C   0  0  0  0  0  0  0  0  0  0  0  0
    8.9296  -13.1538   18.7369 C   0  0  0  0  0  0  0  0  0  0  0  0
    9.1624  -16.6025   24.1666 N   0  0  0  0  0  0  0  0  0  0  0  0
    8.8380  -15.8061   25.3551 C   0  0  1  0  0  0  0  0  0  0  0  0
    8.1327  -14.5664   24.8382 C   0  0  0  0  0  0  0  0  0  0  0  0
    7.7088  -13.7000   25.9558 C   0  0  0  0  0  0  0  0  0  0  0  0
    6.3840  -13.5309   26.2754 C   0  0  0  0  0  0  0  0  0  0  0  0
    5.9966  -12.7108   27.3403 C   0  0  0  0  0  0  0  0  0  0  0  0
    6.9849  -12.0625   28.0780 C   0  0  0  0  0  0  0  0  0  0  0  0
    8.3139  -12.2245   27.7665 C   0  0  0  0  0  0  0  0  0  0  0  0
    8.6503  -13.0431   26.7078 C   0  0  0  0  0  0  0  0  0  0  0  0
    8.0024  -16.6361   26.2364 C   0  0  0  0  0  0  0  0  0  0  0  0
    7.0678  -17.3094   25.7488 O   0  0  0  0  0  0  0  0  0  0  0  0
    8.2189  -16.6965   27.5983 O   0  0  0  0  0  0  0  0  0  0  0  0
  2  3  1  0
  2  1  1  6
  4  3  1  0
  5  4  1  0
  6  5  1  0
  7  6  1  0
  8  2  1  0
  9  8  2  0
 10 11  1  0
 11 12  2  0
 11 21  1  0
 12 13  1  0
 13 14  2  0
 14 15  1  0
 16 15  1  6
 16 17  1  0
 17  8  1  0
 18 16  1  0
 18 22  1  0
 19 18  2  0
 20 14  1  0
 21 20  2  0
 23 22  1  0
 23 31  1  0
 23 24  1  6
 24 25  1  0
 25 30  1  0
 25 26  2  0
 26 27  1  0
 27 28  2  0
 29 28  1  0
 30 29  2  0
 31 33  1  0
 32 31  2  0
M  END
$$$$
