KYF.pdb
     RDKit          3D

 33 34  0  0  1  0  0  0  0  0999 V2000
    6.0953  -20.0174   22.9180 N   0  0  0  0  0  0  0  0  0  0  0  0
    7.5067  -20.2576   22.5615 C   0  0  1  0  0  0  0  0  0  0  0  0
    7.4858  -21.1733   21.3769 C   0  0  0  0  0  0  0  0  0  0  0  0
    6.3060  -22.0866   21.4106 C   0  0  0  0  0  0  0  0  0  0  0  0
    6.7658  -23.5082   21.5444 C   0  0  0  0  0  0  0  0  0  0  0  0
    5.5983  -24.4539   21.5120 C   0  0  0  0  0  0  0  0  0  0  0  0
    6.1539  -25.7885   21.7549 N   0  0  0  0  0  0  0  0  0  0  0  0
    8.1608  -18.9878   22.2068 C   0  0  0  0  0  0  0  0  0  0  0  0
    9.3070  -19.0094   21.7024 O   0  0  0  0  0  0  0  0  0  0  0  0
    8.4143  -11.8941   17.5907 O   0  0  0  0  0  0  0  0  0  0  0  0
    8.1352  -12.7145   18.6681 C   0  0  0  0  0  0  0  0  0  0  0  0
    7.8468  -14.0369   18.4570 C   0  0  0  0  0  0  0  0  0  0  0  0
    7.5639  -14.8927   19.4846 C   0  0  0  0  0  0  0  0  0  0  0  0
    7.5587  -14.4428   20.8061 C   0  0  0  0  0  0  0  0  0  0  0  0
    7.2420  -15.3812   21.8836 C   0  0  0  0  0  0  0  0  0  0  0  0
    8.2520  -16.5120   22.0331 C   0  0  2  0  0  0  0  0  0  0  0  0
    7.5460  -17.7181   22.4119 N   0  0  0  0  0  0  0  0  0  0  0  0
    9.2305  -16.1712   23.0870 C   0  0  0  0  0  0  0  0  0  0  0  0
   10.3368  -15.6245   22.8683 O   0  0  0  0  0  0  0  0  0  0  0  0
    7.8504  -13.1058   21.0133 C   0  0  0  0  0  0  0  0  0  0  0  0
    8.1333  -12.2570   19.9692 C   0  0  0  0  0  0  0  0  0  0  0  0
    8.9135  -16.4751   24.4365 N   0  0  0  0  0  0  0  0  0  0  0  0
    9.8223  -16.0474   25.5057 C   0  0  1  0  0  0  0  0  0  0  0  0
    9.7960  -14.5307   25.4841 C   0  0  0  0  0  0  0  0  0  0  0  0
    8.5353  -14.0200   26.0579 C   0  0  0  0  0  0  0  0  0  0  0  0
    7.3159  -14.3194   25.5017 C   0  0  0  0  0  0  0  0  0  0  0  0
    6.1286  -13.8329   26.0588 C   0  0  0  0  0  0  0  0  0  0  0  0
    6.2036  -13.0324   27.1967 C   0  0  0  0  0  0  0  0  0  0  0  0
    7.4189  -12.7264   27.7614 C   0  0  0  0  0  0  0  0  0  0  0  0
    8.5644  -13.2282   27.1784 C   0  0  0  0  0  0  0  0  0  0  0  0
    9.3356  -16.6281   26.7666 C   0  0  0  0  0  0  0  0  0  0  0  0
    9.8947  -16.3250   27.8437 O   0  0  0  0  0  0  0  0  0  0  0  0
    8.2708  -17.5058   26.7996 O   0  0  0  0  0  0  0  0  0  0  0  0
  2  3  1  0
  2  1  1  6
  4  3  1  0
  5  4  1  0
  6  5  1  0
  7  6  1  0
  8  2  1  0
  9  8  2  0
 10 11  1  0
 11 12  2  0
 11 21  1  0
 12 13  1  0
 13 14  2  0
 14 15  1  0
 16 15  1  1
 16 17  1  0
 17  8  1  0
 18 16  1  0
 18 22  1  0
 19 18  2  0
 20 14  1  0
 21 20  2  0
 23 22  1  0
 23 31  1  0
 23 24  1  1
 24 25  1  0
 25 30  1  0
 25 26  2  0
 26 27  1  0
 27 28  2  0
 29 28  1  0
 30 29  2  0
 31 33  1  0
 32 31  2  0
M  END
$$$$
