KYF.pdb
     RDKit          3D

 33 34  0  0  1  0  0  0  0  0999 V2000
    7.3820  -18.9676   20.1777 N   0  0  0  0  0  0  0  0  0  0  0  0
    6.9591  -18.3639   21.4557 C   0  0  1  0  0  0  0  0  0  0  0  0
    6.9962  -19.4663   22.4683 C   0  0  0  0  0  0  0  0  0  0  0  0
    5.9361  -20.4844   22.2095 C   0  0  0  0  0  0  0  0  0  0  0  0
    5.9776  -21.5442   23.2703 C   0  0  0  0  0  0  0  0  0  0  0  0
    4.9425  -22.6023   23.0109 C   0  0  0  0  0  0  0  0  0  0  0  0
    5.0909  -23.5842   24.0892 N   0  0  0  0  0  0  0  0  0  0  0  0
    7.8919  -17.2927   21.8409 C   0  0  0  0  0  0  0  0  0  0  0  0
    9.0992  -17.3877   21.5212 O   0  0  0  0  0  0  0  0  0  0  0  0
    7.7069  -13.6458   16.7316 O   0  0  0  0  0  0  0  0  0  0  0  0
    7.8319  -13.6785   18.1082 C   0  0  0  0  0  0  0  0  0  0  0  0
    6.7208  -13.8711   18.8859 C   0  0  0  0  0  0  0  0  0  0  0  0
    6.7864  -13.9123   20.2506 C   0  0  0  0  0  0  0  0  0  0  0  0
    8.0066  -13.7572   20.9106 C   0  0  0  0  0  0  0  0  0  0  0  0
    8.0428  -13.7961   22.3732 C   0  0  0  0  0  0  0  0  0  0  0  0
    8.4675  -15.1432   22.9440 C   0  0  2  0  0  0  0  0  0  0  0  0
    7.4836  -16.1373   22.5694 N   0  0  0  0  0  0  0  0  0  0  0  0
    8.5377  -15.0611   24.4179 C   0  0  0  0  0  0  0  0  0  0  0  0
    8.2760  -14.0280   25.0773 O   0  0  0  0  0  0  0  0  0  0  0  0
    9.1257  -13.5625   20.1199 C   0  0  0  0  0  0  0  0  0  0  0  0
    9.0439  -13.5236   18.7479 C   0  0  0  0  0  0  0  0  0  0  0  0
    8.9238  -16.2153   25.1480 N   0  0  0  0  0  0  0  0  0  0  0  0
    8.9950  -16.1534   26.6120 C   0  0  1  0  0  0  0  0  0  0  0  0
    7.6351  -15.6593   27.0683 C   0  0  0  0  0  0  0  0  0  0  0  0
    7.5739  -14.1847   27.0323 C   0  0  0  0  0  0  0  0  0  0  0  0
    6.5229  -13.5201   26.4495 C   0  0  0  0  0  0  0  0  0  0  0  0
    6.4752  -12.1223   26.4269 C   0  0  0  0  0  0  0  0  0  0  0  0
    7.5203  -11.4088   27.0100 C   0  0  0  0  0  0  0  0  0  0  0  0
    8.5771  -12.0639   27.5958 C   0  0  0  0  0  0  0  0  0  0  0  0
    8.5827  -13.4438   27.5951 C   0  0  0  0  0  0  0  0  0  0  0  0
    9.3286  -17.4997   27.1018 C   0  0  0  0  0  0  0  0  0  0  0  0
    9.5060  -17.6863   28.3258 O   0  0  0  0  0  0  0  0  0  0  0  0
    9.4533  -18.5748   26.2451 O   0  0  0  0  0  0  0  0  0  0  0  0
  2  3  1  0
  2  1  1  6
  4  3  1  0
  5  4  1  0
  6  5  1  0
  7  6  1  0
  8  2  1  0
  9  8  2  0
 10 11  1  0
 11 12  2  0
 11 21  1  0
 12 13  1  0
 13 14  2  0
 14 15  1  0
 16 15  1  6
 16 17  1  0
 17  8  1  0
 18 16  1  0
 18 22  1  0
 19 18  2  0
 20 14  1  0
 21 20  2  0
 23 22  1  0
 23 31  1  0
 23 24  1  1
 24 25  1  0
 25 30  1  0
 25 26  2  0
 26 27  1  0
 27 28  2  0
 29 28  1  0
 30 29  2  0
 31 33  1  0
 32 31  2  0
M  END
$$$$
