KYF.pdb
     RDKit          3D

 33 34  0  0  1  0  0  0  0  0999 V2000
    8.0207  -18.6259   21.0731 N   0  0  0  0  0  0  0  0  0  0  0  0
    9.4159  -18.2494   20.7760 C   0  0  1  0  0  0  0  0  0  0  0  0
    9.4924  -18.0770   19.2906 C   0  0  0  0  0  0  0  0  0  0  0  0
    9.1317  -19.3350   18.5733 C   0  0  0  0  0  0  0  0  0  0  0  0
    9.3838  -19.1737   17.1034 C   0  0  0  0  0  0  0  0  0  0  0  0
    8.8231  -20.3359   16.3332 C   0  0  0  0  0  0  0  0  0  0  0  0
    9.0331  -20.0200   14.9173 N   0  0  0  0  0  0  0  0  0  0  0  0
    9.7515  -16.9844   21.4493 C   0  0  0  0  0  0  0  0  0  0  0  0
   10.9043  -16.5111   21.3239 O   0  0  0  0  0  0  0  0  0  0  0  0
    7.4483  -13.2831   16.8991 O   0  0  0  0  0  0  0  0  0  0  0  0
    7.6603  -13.4175   18.2588 C   0  0  0  0  0  0  0  0  0  0  0  0
    6.8828  -14.2808   18.9845 C   0  0  0  0  0  0  0  0  0  0  0  0
    7.0487  -14.4530   20.3304 C   0  0  0  0  0  0  0  0  0  0  0  0
    8.0314  -13.7445   21.0239 C   0  0  0  0  0  0  0  0  0  0  0  0
    8.1778  -13.9433   22.4665 C   0  0  0  0  0  0  0  0  0  0  0  0
    9.2081  -15.0010   22.8418 C   0  0  2  0  0  0  0  0  0  0  0  0
    8.8169  -16.2620   22.2473 N   0  0  0  0  0  0  0  0  0  0  0  0
    9.2564  -15.1515   24.3112 C   0  0  0  0  0  0  0  0  0  0  0  0
    9.7402  -14.2967   25.0895 O   0  0  0  0  0  0  0  0  0  0  0  0
    8.8137  -12.8736   20.2856 C   0  0  0  0  0  0  0  0  0  0  0  0
    8.6349  -12.7111   18.9320 C   0  0  0  0  0  0  0  0  0  0  0  0
    8.7261  -16.3318   24.8940 N   0  0  0  0  0  0  0  0  0  0  0  0
    8.7656  -16.4985   26.3510 C   0  0  1  0  0  0  0  0  0  0  0  0
    7.3763  -16.1386   26.8428 C   0  0  0  0  0  0  0  0  0  0  0  0
    7.2400  -14.6777   27.0061 C   0  0  0  0  0  0  0  0  0  0  0  0
    8.2311  -13.9204   27.5807 C   0  0  0  0  0  0  0  0  0  0  0  0
    8.0909  -12.5360   27.7247 C   0  0  0  0  0  0  0  0  0  0  0  0
    6.9195  -11.9326   27.2721 C   0  0  0  0  0  0  0  0  0  0  0  0
    5.9211  -12.6813   26.6957 C   0  0  0  0  0  0  0  0  0  0  0  0
    6.1022  -14.0438   26.5739 C   0  0  0  0  0  0  0  0  0  0  0  0
    9.1492  -17.8903   26.6327 C   0  0  0  0  0  0  0  0  0  0  0  0
    9.1998  -18.7194   25.6976 O   0  0  0  0  0  0  0  0  0  0  0  0
    9.4583  -18.3151   27.9091 O   0  0  0  0  0  0  0  0  0  0  0  0
  2  3  1  0
  2  1  1  6
  4  3  1  0
  5  4  1  0
  6  5  1  0
  7  6  1  0
  8  2  1  0
  9  8  2  0
 10 11  1  0
 11 12  2  0
 11 21  1  0
 12 13  1  0
 13 14  2  0
 14 15  1  0
 16 15  1  1
 16 17  1  0
 17  8  1  0
 18 16  1  0
 18 22  1  0
 19 18  2  0
 20 14  1  0
 21 20  2  0
 23 22  1  0
 23 31  1  0
 23 24  1  6
 24 25  1  0
 25 30  1  0
 25 26  2  0
 26 27  1  0
 27 28  2  0
 29 28  1  0
 30 29  2  0
 31 33  1  0
 32 31  2  0
M  END
$$$$
