KYF.pdb
     RDKit          3D

 33 34  0  0  1  0  0  0  0  0999 V2000
    5.7162  -19.7242   17.3059 N   0  0  0  0  0  0  0  0  0  0  0  0
    7.0732  -19.3634   17.7586 C   0  0  1  0  0  0  0  0  0  0  0  0
    7.6024  -18.3905   16.7507 C   0  0  0  0  0  0  0  0  0  0  0  0
    8.9484  -18.7970   16.2506 C   0  0  0  0  0  0  0  0  0  0  0  0
    8.8085  -19.5297   14.9492 C   0  0  0  0  0  0  0  0  0  0  0  0
   10.1520  -19.9540   14.4263 C   0  0  0  0  0  0  0  0  0  0  0  0
    9.8936  -20.6275   13.1503 N   0  0  0  0  0  0  0  0  0  0  0  0
    7.0109  -18.7313   19.0863 C   0  0  0  0  0  0  0  0  0  0  0  0
    6.3163  -17.7007   19.2419 O   0  0  0  0  0  0  0  0  0  0  0  0
    8.0528  -17.3631   27.7858 O   0  0  0  0  0  0  0  0  0  0  0  0
    7.8813  -17.8884   26.5185 C   0  0  0  0  0  0  0  0  0  0  0  0
    8.9156  -18.5525   25.9137 C   0  0  0  0  0  0  0  0  0  0  0  0
    8.8014  -19.0915   24.6627 C   0  0  0  0  0  0  0  0  0  0  0  0
    7.6085  -18.9830   23.9459 C   0  0  0  0  0  0  0  0  0  0  0  0
    7.5207  -19.5620   22.6046 C   0  0  0  0  0  0  0  0  0  0  0  0
    7.6357  -18.5382   21.4822 C   0  0  2  0  0  0  0  0  0  0  0  0
    7.7112  -19.2410   20.2185 N   0  0  0  0  0  0  0  0  0  0  0  0
    8.8620  -17.7337   21.6642 C   0  0  0  0  0  0  0  0  0  0  0  0
   10.0131  -18.1306   21.3677 O   0  0  0  0  0  0  0  0  0  0  0  0
    6.5671  -18.3108   24.5617 C   0  0  0  0  0  0  0  0  0  0  0  0
    6.6970  -17.7739   25.8208 C   0  0  0  0  0  0  0  0  0  0  0  0
    8.7470  -16.4277   22.2075 N   0  0  0  0  0  0  0  0  0  0  0  0
    9.9572  -15.6293   22.4311 C   0  0  1  0  0  0  0  0  0  0  0  0
    9.4921  -14.1864   22.4874 C   0  0  0  0  0  0  0  0  0  0  0  0
    8.8483  -13.7931   21.2185 C   0  0  0  0  0  0  0  0  0  0  0  0
    9.5821  -13.3661   20.1391 C   0  0  0  0  0  0  0  0  0  0  0  0
    8.9594  -13.0012   18.9408 C   0  0  0  0  0  0  0  0  0  0  0  0
    7.5706  -13.0785   18.8593 C   0  0  0  0  0  0  0  0  0  0  0  0
    6.8265  -13.5044   19.9336 C   0  0  0  0  0  0  0  0  0  0  0  0
    7.4828  -13.8544   21.0959 C   0  0  0  0  0  0  0  0  0  0  0  0
   10.5792  -16.0980   23.6789 C   0  0  0  0  0  0  0  0  0  0  0  0
    9.9469  -16.8695   24.4336 O   0  0  0  0  0  0  0  0  0  0  0  0
   11.8515  -15.7097   24.0476 O   0  0  0  0  0  0  0  0  0  0  0  0
  2  3  1  0
  2  1  1  6
  4  3  1  0
  5  4  1  0
  6  5  1  0
  7  6  1  0
  8  2  1  0
  9  8  2  0
 10 11  1  0
 11 12  2  0
 11 21  1  0
 12 13  1  0
 13 14  2  0
 14 15  1  0
 16 15  1  1
 16 17  1  0
 17  8  1  0
 18 16  1  0
 18 22  1  0
 19 18  2  0
 20 14  1  0
 21 20  2  0
 23 22  1  0
 23 31  1  0
 23 24  1  1
 24 25  1  0
 25 30  1  0
 25 26  2  0
 26 27  1  0
 27 28  2  0
 29 28  1  0
 30 29  2  0
 31 33  1  0
 32 31  2  0
M  END
$$$$
