KYF.pdb
     RDKit          3D

 33 34  0  0  1  0  0  0  0  0999 V2000
   10.5352  -17.5038   19.7526 N   0  0  0  0  0  0  0  0  0  0  0  0
   10.7213  -16.3303   20.6271 C   0  0  1  0  0  0  0  0  0  0  0  0
    9.6444  -15.3591   20.2537 C   0  0  0  0  0  0  0  0  0  0  0  0
    9.7348  -14.9659   18.8169 C   0  0  0  0  0  0  0  0  0  0  0  0
    8.7244  -13.8987   18.5161 C   0  0  0  0  0  0  0  0  0  0  0  0
    8.7320  -13.5509   17.0542 C   0  0  0  0  0  0  0  0  0  0  0  0
    7.7275  -12.4966   16.8855 N   0  0  0  0  0  0  0  0  0  0  0  0
   10.5789  -16.7245   22.0379 C   0  0  0  0  0  0  0  0  0  0  0  0
    9.9147  -17.7472   22.3238 O   0  0  0  0  0  0  0  0  0  0  0  0
   11.5460  -17.0813   30.8420 O   0  0  0  0  0  0  0  0  0  0  0  0
   11.6817  -16.8093   29.4932 C   0  0  0  0  0  0  0  0  0  0  0  0
   11.3643  -15.5648   29.0168 C   0  0  0  0  0  0  0  0  0  0  0  0
   11.4794  -15.2411   27.6938 C   0  0  0  0  0  0  0  0  0  0  0  0
   11.9315  -16.1816   26.7666 C   0  0  0  0  0  0  0  0  0  0  0  0
   12.0345  -15.8077   25.3553 C   0  0  0  0  0  0  0  0  0  0  0  0
   10.9541  -16.4221   24.4743 C   0  0  2  0  0  0  0  0  0  0  0  0
   11.1672  -15.9902   23.1087 N   0  0  0  0  0  0  0  0  0  0  0  0
    9.6228  -15.9656   24.9254 C   0  0  0  0  0  0  0  0  0  0  0  0
    9.3910  -14.8244   25.3886 O   0  0  0  0  0  0  0  0  0  0  0  0
   12.2504  -17.4373   27.2534 C   0  0  0  0  0  0  0  0  0  0  0  0
   12.1295  -17.7480   28.5874 C   0  0  0  0  0  0  0  0  0  0  0  0
    8.5271  -16.8630   24.8354 N   0  0  0  0  0  0  0  0  0  0  0  0
    7.4930  -16.8470   25.8758 C   0  0  1  0  0  0  0  0  0  0  0  0
    6.3749  -15.9793   25.3295 C   0  0  0  0  0  0  0  0  0  0  0  0
    6.4708  -14.6050   25.8600 C   0  0  0  0  0  0  0  0  0  0  0  0
    5.7260  -14.1940   26.9380 C   0  0  0  0  0  0  0  0  0  0  0  0
    5.8305  -12.8901   27.4336 C   0  0  0  0  0  0  0  0  0  0  0  0
    6.7100  -12.0072   26.8105 C   0  0  0  0  0  0  0  0  0  0  0  0
    7.4601  -12.4081   25.7306 C   0  0  0  0  0  0  0  0  0  0  0  0
    7.3249  -13.7037   25.2755 C   0  0  0  0  0  0  0  0  0  0  0  0
    7.0900  -18.2389   26.1287 C   0  0  0  0  0  0  0  0  0  0  0  0
    7.4254  -19.1360   25.3242 O   0  0  0  0  0  0  0  0  0  0  0  0
    6.3460  -18.5904   27.2369 O   0  0  0  0  0  0  0  0  0  0  0  0
  2  3  1  0
  2  1  1  6
  4  3  1  0
  5  4  1  0
  6  5  1  0
  7  6  1  0
  8  2  1  0
  9  8  2  0
 10 11  1  0
 11 12  2  0
 11 21  1  0
 12 13  1  0
 13 14  2  0
 14 15  1  0
 16 15  1  1
 16 17  1  0
 17  8  1  0
 18 16  1  0
 18 22  1  0
 19 18  2  0
 20 14  1  0
 21 20  2  0
 23 22  1  0
 23 31  1  0
 23 24  1  6
 24 25  1  0
 25 30  1  0
 25 26  2  0
 26 27  1  0
 27 28  2  0
 29 28  1  0
 30 29  2  0
 31 33  1  0
 32 31  2  0
M  END
$$$$
