KYF.pdb
     RDKit          3D

 33 34  0  0  1  0  0  0  0  0999 V2000
   10.7325  -17.3479   18.2362 N   0  0  0  0  0  0  0  0  0  0  0  0
   10.9446  -18.0994   19.4879 C   0  0  1  0  0  0  0  0  0  0  0  0
   12.3602  -18.5855   19.4459 C   0  0  0  0  0  0  0  0  0  0  0  0
   12.7302  -19.0795   18.0871 C   0  0  0  0  0  0  0  0  0  0  0  0
   14.0316  -19.8225   18.1519 C   0  0  0  0  0  0  0  0  0  0  0  0
   14.5352  -20.1420   16.7725 C   0  0  0  0  0  0  0  0  0  0  0  0
   15.8512  -20.7609   16.9571 N   0  0  0  0  0  0  0  0  0  0  0  0
   10.7487  -17.2144   20.6474 C   0  0  0  0  0  0  0  0  0  0  0  0
   11.6262  -16.3646   20.9242 O   0  0  0  0  0  0  0  0  0  0  0  0
    7.7223  -12.5771   17.6213 O   0  0  0  0  0  0  0  0  0  0  0  0
    7.7910  -13.3531   18.7635 C   0  0  0  0  0  0  0  0  0  0  0  0
    8.3182  -12.8245   19.9120 C   0  0  0  0  0  0  0  0  0  0  0  0
    8.4103  -13.5460   21.0694 C   0  0  0  0  0  0  0  0  0  0  0  0
    7.9636  -14.8674   21.1230 C   0  0  0  0  0  0  0  0  0  0  0  0
    8.0850  -15.6170   22.3742 C   0  0  0  0  0  0  0  0  0  0  0  0
    9.4292  -16.3125   22.5484 C   0  0  2  0  0  0  0  0  0  0  0  0
    9.5944  -17.2776   21.4816 N   0  0  0  0  0  0  0  0  0  0  0  0
    9.4628  -17.0154   23.8481 C   0  0  0  0  0  0  0  0  0  0  0  0
   10.5027  -17.4854   24.3660 O   0  0  0  0  0  0  0  0  0  0  0  0
    7.4322  -15.3963   19.9597 C   0  0  0  0  0  0  0  0  0  0  0  0
    7.3460  -14.6579   18.8030 C   0  0  0  0  0  0  0  0  0  0  0  0
    8.2505  -17.1769   24.5680 N   0  0  0  0  0  0  0  0  0  0  0  0
    7.9068  -16.2216   25.6270 C   0  0  1  0  0  0  0  0  0  0  0  0
    7.8660  -14.8619   24.9555 C   0  0  0  0  0  0  0  0  0  0  0  0
    7.4867  -13.8115   25.9210 C   0  0  0  0  0  0  0  0  0  0  0  0
    6.2588  -13.1982   25.8746 C   0  0  0  0  0  0  0  0  0  0  0  0
    5.9105  -12.2078   26.7990 C   0  0  0  0  0  0  0  0  0  0  0  0
    6.8373  -11.8502   27.7759 C   0  0  0  0  0  0  0  0  0  0  0  0
    8.0692  -12.4575   27.8313 C   0  0  0  0  0  0  0  0  0  0  0  0
    8.3701  -13.4295   26.8993 C   0  0  0  0  0  0  0  0  0  0  0  0
    6.6174  -16.6347   26.2020 C   0  0  0  0  0  0  0  0  0  0  0  0
    6.5608  -16.9967   27.3979 O   0  0  0  0  0  0  0  0  0  0  0  0
    5.4558  -16.6357   25.4563 O   0  0  0  0  0  0  0  0  0  0  0  0
  2  3  1  0
  2  1  1  6
  4  3  1  0
  5  4  1  0
  6  5  1  0
  7  6  1  0
  8  2  1  0
  9  8  2  0
 10 11  1  0
 11 12  2  0
 11 21  1  0
 12 13  1  0
 13 14  2  0
 14 15  1  0
 16 15  1  6
 16 17  1  0
 17  8  1  0
 18 16  1  0
 18 22  1  0
 19 18  2  0
 20 14  1  0
 21 20  2  0
 23 22  1  0
 23 31  1  0
 23 24  1  6
 24 25  1  0
 25 30  1  0
 25 26  2  0
 26 27  1  0
 27 28  2  0
 29 28  1  0
 30 29  2  0
 31 33  1  0
 32 31  2  0
M  END
$$$$
