KYF.pdb
     RDKit          3D

 33 34  0  0  1  0  0  0  0  0999 V2000
    6.9724  -21.5005   21.7631 N   0  0  0  0  0  0  0  0  0  0  0  0
    6.9369  -20.4566   22.8050 C   0  0  1  0  0  0  0  0  0  0  0  0
    7.7021  -21.0054   23.9692 C   0  0  0  0  0  0  0  0  0  0  0  0
    6.8024  -21.3192   25.1178 C   0  0  0  0  0  0  0  0  0  0  0  0
    7.6045  -21.8785   26.2553 C   0  0  0  0  0  0  0  0  0  0  0  0
    6.7116  -22.2685   27.3994 C   0  0  0  0  0  0  0  0  0  0  0  0
    7.2861  -21.6387   28.5919 N   0  0  0  0  0  0  0  0  0  0  0  0
    7.5805  -19.2286   22.3112 C   0  0  0  0  0  0  0  0  0  0  0  0
    8.6480  -19.3154   21.6618 O   0  0  0  0  0  0  0  0  0  0  0  0
    8.8947  -11.3073   18.8665 O   0  0  0  0  0  0  0  0  0  0  0  0
    8.3698  -12.3505   19.6065 C   0  0  0  0  0  0  0  0  0  0  0  0
    8.0804  -13.5401   18.9919 C   0  0  0  0  0  0  0  0  0  0  0  0
    7.5605  -14.6040   19.6746 C   0  0  0  0  0  0  0  0  0  0  0  0
    7.3019  -14.5151   21.0434 C   0  0  0  0  0  0  0  0  0  0  0  0
    6.7357  -15.6684   21.7444 C   0  0  0  0  0  0  0  0  0  0  0  0
    7.7493  -16.7649   22.0466 C   0  0  2  0  0  0  0  0  0  0  0  0
    7.0419  -17.9285   22.5388 N   0  0  0  0  0  0  0  0  0  0  0  0
    8.6955  -16.2985   23.0817 C   0  0  0  0  0  0  0  0  0  0  0  0
    9.6622  -15.5334   22.8564 O   0  0  0  0  0  0  0  0  0  0  0  0
    7.5959  -13.3110   21.6591 C   0  0  0  0  0  0  0  0  0  0  0  0
    8.1188  -12.2494   20.9589 C   0  0  0  0  0  0  0  0  0  0  0  0
    8.5125  -16.7346   24.4197 N   0  0  0  0  0  0  0  0  0  0  0  0
    9.2688  -16.0903   25.4991 C   0  0  1  0  0  0  0  0  0  0  0  0
    8.2914  -15.9357   26.6491 C   0  0  0  0  0  0  0  0  0  0  0  0
    7.5771  -14.6468   26.5602 C   0  0  0  0  0  0  0  0  0  0  0  0
    6.2108  -14.5696   26.6754 C   0  0  0  0  0  0  0  0  0  0  0  0
    5.5471  -13.3409   26.5942 C   0  0  0  0  0  0  0  0  0  0  0  0
    6.3009  -12.1866   26.3928 C   0  0  0  0  0  0  0  0  0  0  0  0
    7.6689  -12.2525   26.2760 C   0  0  0  0  0  0  0  0  0  0  0  0
    8.2817  -13.4859   26.3623 C   0  0  0  0  0  0  0  0  0  0  0  0
   10.4201  -16.9499   25.8147 C   0  0  0  0  0  0  0  0  0  0  0  0
   11.2240  -16.6037   26.7082 O   0  0  0  0  0  0  0  0  0  0  0  0
   10.6439  -18.1385   25.1495 O   0  0  0  0  0  0  0  0  0  0  0  0
  2  3  1  0
  2  1  1  6
  4  3  1  0
  5  4  1  0
  6  5  1  0
  7  6  1  0
  8  2  1  0
  9  8  2  0
 10 11  1  0
 11 12  2  0
 11 21  1  0
 12 13  1  0
 13 14  2  0
 14 15  1  0
 16 15  1  1
 16 17  1  0
 17  8  1  0
 18 16  1  0
 18 22  1  0
 19 18  2  0
 20 14  1  0
 21 20  2  0
 23 22  1  0
 23 31  1  0
 23 24  1  1
 24 25  1  0
 25 30  1  0
 25 26  2  0
 26 27  1  0
 27 28  2  0
 29 28  1  0
 30 29  2  0
 31 33  1  0
 32 31  2  0
M  END
$$$$
