KYF.pdb
     RDKit          3D

 33 34  0  0  1  0  0  0  0  0999 V2000
    7.4397  -18.2215   18.3800 N   0  0  0  0  0  0  0  0  0  0  0  0
    8.3211  -17.2253   19.0182 C   0  0  1  0  0  0  0  0  0  0  0  0
    7.6145  -15.9103   18.9016 C   0  0  0  0  0  0  0  0  0  0  0  0
    7.5300  -15.4573   17.4821 C   0  0  0  0  0  0  0  0  0  0  0  0
    8.2286  -14.1391   17.3255 C   0  0  0  0  0  0  0  0  0  0  0  0
    7.9633  -13.5503   15.9685 C   0  0  0  0  0  0  0  0  0  0  0  0
    8.7714  -12.3296   15.8938 N   0  0  0  0  0  0  0  0  0  0  0  0
    8.5241  -17.5656   20.4357 C   0  0  0  0  0  0  0  0  0  0  0  0
    7.5370  -17.8905   21.1349 O   0  0  0  0  0  0  0  0  0  0  0  0
   12.0675  -19.6745   28.2283 O   0  0  0  0  0  0  0  0  0  0  0  0
   11.8972  -19.3057   26.9067 C   0  0  0  0  0  0  0  0  0  0  0  0
   11.2456  -20.1487   26.0457 C   0  0  0  0  0  0  0  0  0  0  0  0
   11.0492  -19.8350   24.7298 C   0  0  0  0  0  0  0  0  0  0  0  0
   11.5127  -18.6258   24.2084 C   0  0  0  0  0  0  0  0  0  0  0  0
   11.2957  -18.3231   22.7930 C   0  0  0  0  0  0  0  0  0  0  0  0
    9.9103  -17.7686   22.4864 C   0  0  2  0  0  0  0  0  0  0  0  0
    9.8055  -17.5433   21.0599 N   0  0  0  0  0  0  0  0  0  0  0  0
    9.7176  -16.4864   23.1957 C   0  0  0  0  0  0  0  0  0  0  0  0
   10.3543  -15.4382   22.9378 O   0  0  0  0  0  0  0  0  0  0  0  0
   12.1705  -17.7783   25.0828 C   0  0  0  0  0  0  0  0  0  0  0  0
   12.3604  -18.1078   26.4041 C   0  0  0  0  0  0  0  0  0  0  0  0
    8.7554  -16.4203   24.2367 N   0  0  0  0  0  0  0  0  0  0  0  0
    8.5820  -15.1685   24.9816 C   0  0  1  0  0  0  0  0  0  0  0  0
    7.1346  -14.7645   24.7735 C   0  0  0  0  0  0  0  0  0  0  0  0
    6.7846  -13.6109   25.6257 C   0  0  0  0  0  0  0  0  0  0  0  0
    5.9599  -13.7429   26.7158 C   0  0  0  0  0  0  0  0  0  0  0  0
    5.6405  -12.6422   27.5178 C   0  0  0  0  0  0  0  0  0  0  0  0
    6.1771  -11.3988   27.1899 C   0  0  0  0  0  0  0  0  0  0  0  0
    7.0035  -11.2555   26.1009 C   0  0  0  0  0  0  0  0  0  0  0  0
    7.2916  -12.3685   25.3380 C   0  0  0  0  0  0  0  0  0  0  0  0
    8.9249  -15.4323   26.3875 C   0  0  0  0  0  0  0  0  0  0  0  0
    9.6716  -14.6387   27.0016 O   0  0  0  0  0  0  0  0  0  0  0  0
    8.4439  -16.5390   27.0577 O   0  0  0  0  0  0  0  0  0  0  0  0
  2  3  1  0
  2  1  1  1
  4  3  1  0
  5  4  1  0
  6  5  1  0
  7  6  1  0
  8  2  1  0
  9  8  2  0
 10 11  1  0
 11 12  2  0
 11 21  1  0
 12 13  1  0
 13 14  2  0
 14 15  1  0
 16 15  1  6
 16 17  1  0
 17  8  1  0
 18 16  1  0
 18 22  1  0
 19 18  2  0
 20 14  1  0
 21 20  2  0
 23 22  1  0
 23 31  1  0
 23 24  1  1
 24 25  1  0
 25 30  1  0
 25 26  2  0
 26 27  1  0
 27 28  2  0
 29 28  1  0
 30 29  2  0
 31 33  1  0
 32 31  2  0
M  END
$$$$
