QEN.pdb
     RDKit          3D

 27 26  0  0  1  0  0  0  0  0999 V2000
    7.2454  -12.6038   17.9881 N   0  0  0  0  0  0  0  0  0  0  0  0
    7.6256  -13.9694   18.1499 C   0  0  0  0  0  0  0  0  0  0  0  0
    7.6388  -14.7023   17.1377 O   0  0  0  0  0  0  0  0  0  0  0  0
    8.0039  -14.5321   19.4541 C   0  0  0  0  0  0  0  0  0  0  0  0
    7.8025  -13.7159   20.6543 C   0  0  0  0  0  0  0  0  0  0  0  0
    8.7717  -13.7808   21.7670 C   0  0  2  0  0  0  0  0  0  0  0  0
   10.1166  -13.5553   21.1306 N   0  0  0  0  0  0  0  0  0  0  0  0
    8.8375  -15.0669   22.4566 C   0  0  0  0  0  0  0  0  0  0  0  0
    7.8073  -15.5997   23.0062 O   0  0  0  0  0  0  0  0  0  0  0  0
   10.0520  -15.8516   22.5720 N   0  0  0  0  0  0  0  0  0  0  0  0
   10.0089  -17.0832   23.2656 C   0  0  1  0  0  0  0  0  0  0  0  0
   10.9136  -18.1422   22.6982 C   0  0  0  0  0  0  0  0  0  0  0  0
   10.8119  -19.4853   23.2934 C   0  0  0  0  0  0  0  0  0  0  0  0
   11.7429  -20.5018   22.7994 C   0  0  0  0  0  0  0  0  0  0  0  0
   12.9626  -20.4353   22.9730 O   0  0  0  0  0  0  0  0  0  0  0  0
   10.3393  -16.9516   24.7129 C   0  0  0  0  0  0  0  0  0  0  0  0
   10.2345  -17.9045   25.4985 O   0  0  0  0  0  0  0  0  0  0  0  0
   11.2715  -21.6252   22.0887 O   0  0  0  0  0  0  0  0  0  0  0  0
    9.6590  -13.1553   29.0691 N   0  0  0  0  0  0  0  0  0  0  0  0
    9.8933  -14.4980   28.6091 C   0  0  0  0  0  0  0  0  0  0  0  0
   10.0564  -15.3832   29.4574 O   0  0  0  0  0  0  0  0  0  0  0  0
    9.9168  -14.6921   27.1581 C   0  0  0  0  0  0  0  0  0  0  0  0
   11.0570  -15.5278   26.6495 C   0  0  2  0  0  0  0  0  0  0  0  0
   10.7834  -15.7173   25.2073 N   0  0  0  0  0  0  0  0  0  0  0  0
   11.1527  -16.8593   27.2661 C   0  0  0  0  0  0  0  0  0  0  0  0
   10.4401  -17.8288   26.9449 O   0  0  0  0  0  0  0  0  0  0  0  0
   12.0974  -17.0634   28.2760 O   0  0  0  0  0  0  0  0  0  0  0  0
  2  1  1  0
  3  2  2  0
  4  2  1  0
  5  4  1  0
  5  6  1  0
  6  7  1  6
  6  8  1  0
  8  9  2  0
 10  8  1  0
 10 11  1  0
 11 12  1  6
 12 13  1  0
 13 14  1  0
 14 15  2  0
 14 18  1  0
 16 11  1  0
 16 17  2  0
 19 20  1  0
 20 22  1  0
 20 21  2  0
 23 22  1  1
 23 24  1  0
 24 16  1  0
 25 23  1  0
 25 27  1  0
 26 25  2  0
M  END
$$$$
