QEN.pdb
     RDKit          3D

 27 26  0  0  1  0  0  0  0  0999 V2000
    6.3429  -14.7834   18.1933 N   0  0  0  0  0  0  0  0  0  0  0  0
    7.6221  -14.5222   17.6178 C   0  0  0  0  0  0  0  0  0  0  0  0
    7.9510  -15.1617   16.5956 O   0  0  0  0  0  0  0  0  0  0  0  0
    8.5509  -13.5314   18.1801 C   0  0  0  0  0  0  0  0  0  0  0  0
    8.2200  -12.9115   19.4658 C   0  0  0  0  0  0  0  0  0  0  0  0
    9.2247  -12.8650   20.5476 C   0  0  2  0  0  0  0  0  0  0  0  0
   10.5568  -12.9081   19.8490 N   0  0  0  0  0  0  0  0  0  0  0  0
    9.1920  -13.9956   21.4719 C   0  0  0  0  0  0  0  0  0  0  0  0
    8.1393  -14.3006   22.1397 O   0  0  0  0  0  0  0  0  0  0  0  0
   10.3257  -14.8694   21.7075 N   0  0  0  0  0  0  0  0  0  0  0  0
   10.1572  -16.0021   22.5371 C   0  0  1  0  0  0  0  0  0  0  0  0
   10.7980  -17.2552   22.0072 C   0  0  0  0  0  0  0  0  0  0  0  0
   10.3583  -17.7097   20.6773 C   0  0  0  0  0  0  0  0  0  0  0  0
   10.9599  -18.9427   20.1655 C   0  0  0  0  0  0  0  0  0  0  0  0
   10.3438  -19.7482   19.4627 O   0  0  0  0  0  0  0  0  0  0  0  0
   10.6720  -15.7959   23.9205 C   0  0  0  0  0  0  0  0  0  0  0  0
   11.7163  -15.1669   24.1442 O   0  0  0  0  0  0  0  0  0  0  0  0
   12.3002  -19.2668   20.4618 O   0  0  0  0  0  0  0  0  0  0  0  0
    9.3012  -13.4805   28.8551 N   0  0  0  0  0  0  0  0  0  0  0  0
    9.9970  -14.6184   28.3163 C   0  0  0  0  0  0  0  0  0  0  0  0
   10.7940  -15.2142   29.0511 O   0  0  0  0  0  0  0  0  0  0  0  0
    9.6909  -14.9688   26.9281 C   0  0  0  0  0  0  0  0  0  0  0  0
   10.4448  -16.1531   26.3931 C   0  0  2  0  0  0  0  0  0  0  0  0
    9.9592  -16.3250   25.0054 N   0  0  0  0  0  0  0  0  0  0  0  0
   10.1904  -17.4083   27.1154 C   0  0  0  0  0  0  0  0  0  0  0  0
    9.4038  -18.2908   26.7235 O   0  0  0  0  0  0  0  0  0  0  0  0
   10.8663  -17.6383   28.3172 O   0  0  0  0  0  0  0  0  0  0  0  0
  2  1  1  0
  3  2  2  0
  4  2  1  0
  5  4  1  0
  5  6  1  0
  6  7  1  6
  6  8  1  0
  8  9  2  0
 10  8  1  0
 10 11  1  0
 11 12  1  6
 12 13  1  0
 13 14  1  0
 14 15  2  0
 14 18  1  0
 16 11  1  0
 16 17  2  0
 19 20  1  0
 20 22  1  0
 20 21  2  0
 23 22  1  1
 23 24  1  0
 24 16  1  0
 25 23  1  0
 25 27  1  0
 26 25  2  0
M  END
$$$$
