QEN.pdb
     RDKit          3D

 27 26  0  0  1  0  0  0  0  0999 V2000
    5.8289  -13.5459   15.4942 N   0  0  0  0  0  0  0  0  0  0  0  0
    7.1409  -13.9159   15.0728 C   0  0  0  0  0  0  0  0  0  0  0  0
    7.4052  -13.8645   13.8524 O   0  0  0  0  0  0  0  0  0  0  0  0
    8.1803  -14.3445   16.0197 C   0  0  0  0  0  0  0  0  0  0  0  0
    7.8105  -14.5427   17.4236 C   0  0  0  0  0  0  0  0  0  0  0  0
    8.6016  -13.9061   18.4963 C   0  0  2  0  0  0  0  0  0  0  0  0
    8.9748  -12.5512   17.9583 N   0  0  0  0  0  0  0  0  0  0  0  0
    9.8485  -14.5881   18.8341 C   0  0  0  0  0  0  0  0  0  0  0  0
    9.8742  -15.8135   19.2146 O   0  0  0  0  0  0  0  0  0  0  0  0
   11.1516  -13.9552   18.7611 N   0  0  0  0  0  0  0  0  0  0  0  0
   12.2989  -14.7074   19.1044 C   0  0  1  0  0  0  0  0  0  0  0  0
   13.5628  -14.2448   18.4333 C   0  0  0  0  0  0  0  0  0  0  0  0
   14.7534  -15.0928   18.6121 C   0  0  0  0  0  0  0  0  0  0  0  0
   16.0021  -14.6173   18.0131 C   0  0  0  0  0  0  0  0  0  0  0  0
   17.0353  -14.4436   18.6648 O   0  0  0  0  0  0  0  0  0  0  0  0
   12.5638  -14.7340   20.5708 C   0  0  0  0  0  0  0  0  0  0  0  0
   12.6040  -13.6971   21.2486 O   0  0  0  0  0  0  0  0  0  0  0  0
   16.0762  -14.3326   16.6337 O   0  0  0  0  0  0  0  0  0  0  0  0
   11.3043  -17.0035   25.5015 N   0  0  0  0  0  0  0  0  0  0  0  0
   12.3063  -17.4693   24.5806 C   0  0  0  0  0  0  0  0  0  0  0  0
   13.2479  -18.1324   25.0320 O   0  0  0  0  0  0  0  0  0  0  0  0
   12.1136  -17.1088   23.1747 C   0  0  0  0  0  0  0  0  0  0  0  0
   13.0303  -16.0331   22.6655 C   0  0  2  0  0  0  0  0  0  0  0  0
   12.7735  -15.9642   21.2095 N   0  0  0  0  0  0  0  0  0  0  0  0
   14.4604  -16.3177   22.8552 C   0  0  0  0  0  0  0  0  0  0  0  0
   15.1466  -15.8511   23.7839 O   0  0  0  0  0  0  0  0  0  0  0  0
   15.1018  -17.1623   21.9446 O   0  0  0  0  0  0  0  0  0  0  0  0
  2  1  1  0
  3  2  2  0
  4  2  1  0
  5  4  1  0
  5  6  1  0
  6  7  1  6
  6  8  1  0
  8  9  2  0
 10  8  1  0
 10 11  1  0
 11 12  1  6
 12 13  1  0
 13 14  1  0
 14 15  2  0
 14 18  1  0
 16 11  1  0
 16 17  2  0
 19 20  1  0
 20 22  1  0
 20 21  2  0
 23 22  1  6
 23 24  1  0
 24 16  1  0
 25 23  1  0
 25 27  1  0
 26 25  2  0
M  END
$$$$
