QEN.pdb
     RDKit          3D

 27 26  0  0  1  0  0  0  0  0999 V2000
    8.2009  -12.3622   18.2106 N   0  0  0  0  0  0  0  0  0  0  0  0
    7.8192  -13.6489   17.7265 C   0  0  0  0  0  0  0  0  0  0  0  0
    7.6904  -13.8009   16.4927 O   0  0  0  0  0  0  0  0  0  0  0  0
    7.5816  -14.7889   18.6234 C   0  0  0  0  0  0  0  0  0  0  0  0
    7.5564  -14.5498   20.0688 C   0  0  0  0  0  0  0  0  0  0  0  0
    8.8207  -14.4311   20.8235 C   0  0  2  0  0  0  0  0  0  0  0  0
    9.8815  -14.9656   19.8997 N   0  0  0  0  0  0  0  0  0  0  0  0
    8.8863  -15.2222   22.0498 C   0  0  0  0  0  0  0  0  0  0  0  0
    7.9677  -15.1709   22.9446 O   0  0  0  0  0  0  0  0  0  0  0  0
    9.9736  -16.1315   22.3580 N   0  0  0  0  0  0  0  0  0  0  0  0
    9.8707  -16.9612   23.4986 C   0  0  1  0  0  0  0  0  0  0  0  0
   10.6698  -18.2321   23.4104 C   0  0  0  0  0  0  0  0  0  0  0  0
   12.0525  -18.1096   22.9190 C   0  0  0  0  0  0  0  0  0  0  0  0
   12.8046  -19.3529   22.7379 C   0  0  0  0  0  0  0  0  0  0  0  0
   13.2894  -19.6920   21.6553 O   0  0  0  0  0  0  0  0  0  0  0  0
   10.2725  -16.2754   24.7592 C   0  0  0  0  0  0  0  0  0  0  0  0
   11.3504  -15.6722   24.8624 O   0  0  0  0  0  0  0  0  0  0  0  0
   13.0106  -20.2338   23.8200 O   0  0  0  0  0  0  0  0  0  0  0  0
    8.0596  -12.3323   26.9730 N   0  0  0  0  0  0  0  0  0  0  0  0
    9.0587  -13.2708   27.4093 C   0  0  0  0  0  0  0  0  0  0  0  0
   10.1646  -12.8292   27.7442 O   0  0  0  0  0  0  0  0  0  0  0  0
    8.6657  -14.6811   27.4156 C   0  0  0  0  0  0  0  0  0  0  0  0
    9.7798  -15.6500   27.1381 C   0  0  2  0  0  0  0  0  0  0  0  0
    9.4110  -16.3080   25.8646 N   0  0  0  0  0  0  0  0  0  0  0  0
    9.9356  -16.6997   28.1560 C   0  0  0  0  0  0  0  0  0  0  0  0
   10.2111  -16.4771   29.3500 O   0  0  0  0  0  0  0  0  0  0  0  0
    9.7669  -18.0337   27.7738 O   0  0  0  0  0  0  0  0  0  0  0  0
  2  1  1  0
  3  2  2  0
  4  2  1  0
  5  4  1  0
  5  6  1  0
  6  7  1  6
  6  8  1  0
  8  9  2  0
 10  8  1  0
 10 11  1  0
 11 12  1  6
 12 13  1  0
 13 14  1  0
 14 15  2  0
 14 18  1  0
 16 11  1  0
 16 17  2  0
 19 20  1  0
 20 22  1  0
 20 21  2  0
 23 22  1  1
 23 24  1  0
 24 16  1  0
 25 23  1  0
 25 27  1  0
 26 25  2  0
M  END
$$$$
