YQA.pdb
     RDKit          3D

 27 27  0  0  1  0  0  0  0  0999 V2000
   32.6354  -31.7864  -17.4691 O   0  0  0  0  0  0  0  0  0  0  0  0
   31.3794  -31.7943  -16.8424 C   0  0  0  0  0  0  0  0  0  0  0  0
   31.0545  -32.9026  -16.1174 C   0  0  0  0  0  0  0  0  0  0  0  0
   29.8124  -32.9415  -15.4818 C   0  0  0  0  0  0  0  0  0  0  0  0
   28.9218  -31.9032  -15.5686 C   0  0  0  0  0  0  0  0  0  0  0  0
   27.6299  -31.9921  -14.8827 C   0  0  0  0  0  0  0  0  0  0  0  0
   26.7378  -33.0823  -15.4916 C   0  0  2  0  0  0  0  0  0  0  0  0
   26.3278  -32.7456  -16.8169 N   0  0  0  0  0  0  0  0  0  0  0  0
   25.5963  -33.2299  -14.5537 C   0  0  0  0  0  0  0  0  0  0  0  0
   24.5132  -32.6954  -14.8925 O   0  0  0  0  0  0  0  0  0  0  0  0
   29.2672  -30.7977  -16.3024 C   0  0  0  0  0  0  0  0  0  0  0  0
   30.5096  -30.7401  -16.9477 C   0  0  0  0  0  0  0  0  0  0  0  0
   23.6141  -36.9788  -14.6041 N   0  0  0  0  0  0  0  0  0  0  0  0
   24.4909  -37.3948  -13.5660 C   0  0  0  0  0  0  0  0  0  0  0  0
   25.1385  -38.4402  -13.7191 O   0  0  0  0  0  0  0  0  0  0  0  0
   24.6037  -36.5866  -12.3514 C   0  0  0  0  0  0  0  0  0  0  0  0
   23.8723  -35.3078  -12.2991 C   0  0  0  0  0  0  0  0  0  0  0  0
   24.6357  -34.0403  -12.3693 C   0  0  2  0  0  0  0  0  0  0  0  0
   25.6841  -33.9342  -13.3222 N   0  0  0  0  0  0  0  0  0  0  0  0
   25.2086  -33.7907  -11.0068 C   0  0  0  0  0  0  0  0  0  0  0  0
   26.4303  -34.0506  -10.8650 O   0  0  0  0  0  0  0  0  0  0  0  0
   25.2133  -31.5501   -8.3583 C   0  0  0  0  0  0  0  0  0  0  0  0
   25.1149  -33.0290   -8.6569 C   0  0  2  0  0  0  0  0  0  0  0  0
   24.4852  -33.2996   -9.9148 N   0  0  0  0  0  0  0  0  0  0  0  0
   24.3612  -33.6489   -7.5361 C   0  0  0  0  0  0  0  0  0  0  0  0
   23.1579  -34.2760   -7.7074 O   0  0  0  0  0  0  0  0  0  0  0  0
   24.8483  -33.5952   -6.3845 O   0  0  0  0  0  0  0  0  0  0  0  0
  2  3  2  0
  2  1  1  0
  4  3  1  0
  5  4  2  0
  6  5  1  0
  7  9  1  0
  7  6  1  0
  7  8  1  6
  9 10  2  0
 11  5  1  0
 11 12  2  0
 12  2  1  0
 14 15  2  0
 14 13  1  0
 16 14  1  0
 17 16  1  0
 18 17  1  1
 19  9  1  0
 19 18  1  0
 20 24  1  0
 20 18  1  0
 21 20  2  0
 23 22  1  1
 23 24  1  0
 25 23  1  0
 25 26  1  0
 27 25  2  0
M  END
$$$$
