YQA.pdb
     RDKit          3D

 27 27  0  0  1  0  0  0  0  0999 V2000
   28.3655  -12.6555  -16.9626 O   0  0  0  0  0  0  0  0  0  0  0  0
   27.2946  -11.7780  -16.7312 C   0  0  0  0  0  0  0  0  0  0  0  0
   26.4671  -11.5177  -17.7833 C   0  0  0  0  0  0  0  0  0  0  0  0
   25.3925  -10.6489  -17.5858 C   0  0  0  0  0  0  0  0  0  0  0  0
   25.1527  -10.0582  -16.3723 C   0  0  0  0  0  0  0  0  0  0  0  0
   24.0109   -9.1533  -16.2156 C   0  0  0  0  0  0  0  0  0  0  0  0
   22.7938   -9.8730  -15.6193 C   0  0  2  0  0  0  0  0  0  0  0  0
   22.3677  -10.9564  -16.4457 N   0  0  0  0  0  0  0  0  0  0  0  0
   21.7537   -8.8258  -15.4580 C   0  0  0  0  0  0  0  0  0  0  0  0
   20.8514   -8.7861  -16.3285 O   0  0  0  0  0  0  0  0  0  0  0  0
   25.9962  -10.3328  -15.3270 C   0  0  0  0  0  0  0  0  0  0  0  0
   27.0804  -11.2024  -15.5058 C   0  0  0  0  0  0  0  0  0  0  0  0
   18.7497   -7.0341  -10.2571 N   0  0  0  0  0  0  0  0  0  0  0  0
   18.2728   -6.1209  -11.2360 C   0  0  0  0  0  0  0  0  0  0  0  0
   17.3044   -5.4008  -10.9545 O   0  0  0  0  0  0  0  0  0  0  0  0
   18.9300   -6.0567  -12.5419 C   0  0  0  0  0  0  0  0  0  0  0  0
   20.0511   -6.9785  -12.7999 C   0  0  0  0  0  0  0  0  0  0  0  0
   20.7058   -6.9590  -14.1285 C   0  0  2  0  0  0  0  0  0  0  0  0
   21.7440   -7.8943  -14.3845 N   0  0  0  0  0  0  0  0  0  0  0  0
   21.2521   -5.5784  -14.3344 C   0  0  0  0  0  0  0  0  0  0  0  0
   22.1983   -5.2403  -13.5790 O   0  0  0  0  0  0  0  0  0  0  0  0
   20.8533   -2.6288  -16.6476 C   0  0  0  0  0  0  0  0  0  0  0  0
   21.3522   -3.3610  -15.4225 C   0  0  2  0  0  0  0  0  0  0  0  0
   20.7850   -4.6698  -15.2899 N   0  0  0  0  0  0  0  0  0  0  0  0
   21.0243   -2.5134  -14.2466 C   0  0  0  0  0  0  0  0  0  0  0  0
   21.7775   -1.4335  -13.8764 O   0  0  0  0  0  0  0  0  0  0  0  0
   20.0147   -2.7997  -13.5647 O   0  0  0  0  0  0  0  0  0  0  0  0
  2  3  2  0
  2  1  1  0
  4  3  1  0
  5  4  2  0
  6  5  1  0
  7  9  1  0
  7  6  1  0
  7  8  1  6
  9 10  2  0
 11  5  1  0
 11 12  2  0
 12  2  1  0
 14 15  2  0
 14 13  1  0
 16 14  1  0
 17 16  1  0
 18 17  1  1
 19  9  1  0
 19 18  1  0
 20 24  1  0
 20 18  1  0
 21 20  2  0
 23 22  1  6
 23 24  1  0
 25 23  1  0
 25 26  1  0
 27 25  2  0
M  END
$$$$
