YQA.pdb
     RDKit          3D

 27 27  0  0  1  0  0  0  0  0999 V2000
   32.2038   -9.8358  -18.6625 O   0  0  0  0  0  0  0  0  0  0  0  0
   30.8748   -9.3979  -18.7734 C   0  0  0  0  0  0  0  0  0  0  0  0
   30.2072   -9.1407  -17.6125 C   0  0  0  0  0  0  0  0  0  0  0  0
   28.8838   -8.7036  -17.6886 C   0  0  0  0  0  0  0  0  0  0  0  0
   28.2470   -8.5289  -18.8898 C   0  0  0  0  0  0  0  0  0  0  0  0
   26.8564   -8.0678  -18.9168 C   0  0  0  0  0  0  0  0  0  0  0  0
   25.8713   -9.2209  -18.6826 C   0  0  2  0  0  0  0  0  0  0  0  0
   25.9799  -10.2185  -19.6980 N   0  0  0  0  0  0  0  0  0  0  0  0
   24.5278   -8.5907  -18.6333 C   0  0  0  0  0  0  0  0  0  0  0  0
   23.8415   -8.6392  -19.6822 O   0  0  0  0  0  0  0  0  0  0  0  0
   28.9354   -8.7928  -20.0457 C   0  0  0  0  0  0  0  0  0  0  0  0
   30.2647   -9.2325  -19.9896 C   0  0  0  0  0  0  0  0  0  0  0  0
   20.3349   -8.3397  -13.8517 N   0  0  0  0  0  0  0  0  0  0  0  0
   20.5353   -9.3600  -14.8204 C   0  0  0  0  0  0  0  0  0  0  0  0
   20.0301  -10.4742  -14.6225 O   0  0  0  0  0  0  0  0  0  0  0  0
   21.3290   -9.0726  -16.0156 C   0  0  0  0  0  0  0  0  0  0  0  0
   21.9015   -7.7218  -16.1594 C   0  0  0  0  0  0  0  0  0  0  0  0
   22.7008   -7.4051  -17.3656 C   0  0  2  0  0  0  0  0  0  0  0  0
   24.0069   -7.9534  -17.4745 N   0  0  0  0  0  0  0  0  0  0  0  0
   22.8067   -5.9121  -17.4490 C   0  0  0  0  0  0  0  0  0  0  0  0
   23.6111   -5.3698  -16.6496 O   0  0  0  0  0  0  0  0  0  0  0  0
   21.7585   -3.0960  -19.6996 C   0  0  0  0  0  0  0  0  0  0  0  0
   22.3057   -3.6967  -18.4247 C   0  0  2  0  0  0  0  0  0  0  0  0
   22.0843   -5.1094  -18.3381 N   0  0  0  0  0  0  0  0  0  0  0  0
   21.6564   -2.9825  -17.2946 C   0  0  0  0  0  0  0  0  0  0  0  0
   20.8779   -3.6154  -16.3653 O   0  0  0  0  0  0  0  0  0  0  0  0
   21.8293   -1.7476  -17.1881 O   0  0  0  0  0  0  0  0  0  0  0  0
  2  3  2  0
  2  1  1  0
  4  3  1  0
  5  4  2  0
  6  5  1  0
  7  9  1  0
  7  6  1  0
  7  8  1  6
  9 10  2  0
 11  5  1  0
 11 12  2  0
 12  2  1  0
 14 15  2  0
 14 13  1  0
 16 14  1  0
 17 16  1  0
 18 17  1  1
 19  9  1  0
 19 18  1  0
 20 24  1  0
 20 18  1  0
 21 20  2  0
 23 22  1  6
 23 24  1  0
 25 23  1  0
 25 26  1  0
 27 25  2  0
M  END
$$$$
