YQA.pdb
     RDKit          3D

 27 27  0  0  1  0  0  0  0  0999 V2000
   24.9009  -12.8199  -21.2394 O   0  0  0  0  0  0  0  0  0  0  0  0
   26.0240  -12.0862  -20.8264 C   0  0  0  0  0  0  0  0  0  0  0  0
   26.8841  -12.7004  -19.9647 C   0  0  0  0  0  0  0  0  0  0  0  0
   28.0109  -11.9974  -19.5350 C   0  0  0  0  0  0  0  0  0  0  0  0
   28.2698  -10.7185  -19.9546 C   0  0  0  0  0  0  0  0  0  0  0  0
   29.4668  -10.0226  -19.4747 C   0  0  0  0  0  0  0  0  0  0  0  0
   29.1837   -9.2216  -18.1967 C   0  0  2  0  0  0  0  0  0  0  0  0
   28.2040   -8.2074  -18.4190 N   0  0  0  0  0  0  0  0  0  0  0  0
   30.4970   -8.6734  -17.7735 C   0  0  0  0  0  0  0  0  0  0  0  0
   30.4984   -7.5129  -17.2972 O   0  0  0  0  0  0  0  0  0  0  0  0
   27.3929  -10.1184  -20.8210 C   0  0  0  0  0  0  0  0  0  0  0  0
   26.2562  -10.8080  -21.2635 C   0  0  0  0  0  0  0  0  0  0  0  0
   33.4372   -6.0516  -15.2063 N   0  0  0  0  0  0  0  0  0  0  0  0
   34.5469   -6.9273  -15.0603 C   0  0  0  0  0  0  0  0  0  0  0  0
   35.6362   -6.4520  -14.7091 O   0  0  0  0  0  0  0  0  0  0  0  0
   34.3775   -8.3557  -15.3290 C   0  0  0  0  0  0  0  0  0  0  0  0
   33.0914   -8.8078  -15.8900 C   0  0  0  0  0  0  0  0  0  0  0  0
   32.9648   -8.9692  -17.3570 C   0  0  2  0  0  0  0  0  0  0  0  0
   31.7166   -9.3949  -17.8853 N   0  0  0  0  0  0  0  0  0  0  0  0
   34.0180   -9.9444  -17.7892 C   0  0  0  0  0  0  0  0  0  0  0  0
   33.7918  -11.1533  -17.5291 O   0  0  0  0  0  0  0  0  0  0  0  0
   37.3060  -10.0065  -19.6412 C   0  0  0  0  0  0  0  0  0  0  0  0
   36.1414  -10.5931  -18.8761 C   0  0  2  0  0  0  0  0  0  0  0  0
   35.2038   -9.5991  -18.4461 N   0  0  0  0  0  0  0  0  0  0  0  0
   36.7101  -11.3300  -17.7176 C   0  0  0  0  0  0  0  0  0  0  0  0
   37.2958  -12.5603  -17.8349 O   0  0  0  0  0  0  0  0  0  0  0  0
   36.6509  -10.8020  -16.5844 O   0  0  0  0  0  0  0  0  0  0  0  0
  2  3  2  0
  2  1  1  0
  4  3  1  0
  5  4  2  0
  6  5  1  0
  7  9  1  0
  7  6  1  0
  7  8  1  6
  9 10  2  0
 11  5  1  0
 11 12  2  0
 12  2  1  0
 14 15  2  0
 14 13  1  0
 16 14  1  0
 17 16  1  0
 18 17  1  1
 19  9  1  0
 19 18  1  0
 20 24  1  0
 20 18  1  0
 21 20  2  0
 23 22  1  1
 23 24  1  0
 25 23  1  0
 25 26  1  0
 27 25  2  0
M  END
$$$$
