YQA.pdb
     RDKit          3D

 27 27  0  0  1  0  0  0  0  0999 V2000
   15.4434  -14.4257  -17.6415 O   0  0  0  0  0  0  0  0  0  0  0  0
   15.9076  -13.4325  -16.7649 C   0  0  0  0  0  0  0  0  0  0  0  0
   16.6944  -13.8385  -15.7277 C   0  0  0  0  0  0  0  0  0  0  0  0
   17.1723  -12.8749  -14.8380 C   0  0  0  0  0  0  0  0  0  0  0  0
   16.8722  -11.5452  -14.9811 C   0  0  0  0  0  0  0  0  0  0  0  0
   17.3985  -10.5720  -14.0203 C   0  0  0  0  0  0  0  0  0  0  0  0
   18.6020   -9.8077  -14.5879 C   0  0  2  0  0  0  0  0  0  0  0  0
   19.7293  -10.6643  -14.7706 N   0  0  0  0  0  0  0  0  0  0  0  0
   18.8625   -8.7074  -13.6256 C   0  0  0  0  0  0  0  0  0  0  0  0
   19.5089   -9.0017  -12.5915 O   0  0  0  0  0  0  0  0  0  0  0  0
   16.0796  -11.1572  -16.0304 C   0  0  0  0  0  0  0  0  0  0  0  0
   15.5904  -12.1098  -16.9341 C   0  0  0  0  0  0  0  0  0  0  0  0
   22.0494   -3.8754  -12.5671 N   0  0  0  0  0  0  0  0  0  0  0  0
   21.5622   -4.9908  -13.3006 C   0  0  0  0  0  0  0  0  0  0  0  0
   22.1573   -6.0731  -13.2004 O   0  0  0  0  0  0  0  0  0  0  0  0
   20.3818   -4.8336  -14.1511 C   0  0  0  0  0  0  0  0  0  0  0  0
   19.0539   -4.9800  -13.5280 C   0  0  0  0  0  0  0  0  0  0  0  0
   18.6739   -6.2880  -12.9460 C   0  0  2  0  0  0  0  0  0  0  0  0
   18.4190   -7.3722  -13.8279 N   0  0  0  0  0  0  0  0  0  0  0  0
   17.4514   -6.0632  -12.1081 C   0  0  0  0  0  0  0  0  0  0  0  0
   16.3685   -5.9364  -12.7337 O   0  0  0  0  0  0  0  0  0  0  0  0
   16.4067   -5.8787   -8.4920 C   0  0  0  0  0  0  0  0  0  0  0  0
   16.2521   -5.6734   -9.9819 C   0  0  2  0  0  0  0  0  0  0  0  0
   17.4443   -5.9881  -10.7113 N   0  0  0  0  0  0  0  0  0  0  0  0
   15.8578   -4.2551  -10.1861 C   0  0  0  0  0  0  0  0  0  0  0  0
   16.6749   -3.3359  -10.7843 O   0  0  0  0  0  0  0  0  0  0  0  0
   14.7286   -3.8849   -9.7936 O   0  0  0  0  0  0  0  0  0  0  0  0
  2  3  2  0
  2  1  1  0
  4  3  1  0
  5  4  2  0
  6  5  1  0
  7  9  1  0
  7  6  1  0
  7  8  1  1
  9 10  2  0
 11  5  1  0
 11 12  2  0
 12  2  1  0
 14 15  2  0
 14 13  1  0
 16 14  1  0
 17 16  1  0
 18 17  1  6
 19  9  1  0
 19 18  1  0
 20 24  1  0
 20 18  1  0
 21 20  2  0
 23 22  1  1
 23 24  1  0
 25 23  1  0
 25 26  1  0
 27 25  2  0
M  END
$$$$
