YQA.pdb
     RDKit          3D

 27 27  0  0  1  0  0  0  0  0999 V2000
   29.0535  -11.3249  -16.5357 O   0  0  0  0  0  0  0  0  0  0  0  0
   27.8022  -10.6957  -16.6291 C   0  0  0  0  0  0  0  0  0  0  0  0
   26.9594  -10.8295  -15.5654 C   0  0  0  0  0  0  0  0  0  0  0  0
   25.7072  -10.2157  -15.6271 C   0  0  0  0  0  0  0  0  0  0  0  0
   25.3099   -9.4897  -16.7198 C   0  0  0  0  0  0  0  0  0  0  0  0
   23.9849   -8.8642  -16.7363 C   0  0  0  0  0  0  0  0  0  0  0  0
   22.8749   -9.8922  -16.9933 C   0  0  2  0  0  0  0  0  0  0  0  0
   23.1383  -10.6680  -18.1624 N   0  0  0  0  0  0  0  0  0  0  0  0
   21.6204   -9.1044  -17.0933 C   0  0  0  0  0  0  0  0  0  0  0  0
   21.1917   -8.8677  -18.2482 O   0  0  0  0  0  0  0  0  0  0  0  0
   26.1718   -9.3670  -17.7790 C   0  0  0  0  0  0  0  0  0  0  0  0
   27.4330   -9.9761  -17.7356 C   0  0  0  0  0  0  0  0  0  0  0  0
   16.2793  -10.0763  -14.2400 N   0  0  0  0  0  0  0  0  0  0  0  0
   16.9176  -10.6580  -15.3686 C   0  0  0  0  0  0  0  0  0  0  0  0
   16.4875  -11.7356  -15.8041 O   0  0  0  0  0  0  0  0  0  0  0  0
   18.0589   -9.9771  -15.9810 C   0  0  0  0  0  0  0  0  0  0  0  0
   18.4762   -8.6802  -15.4180 C   0  0  0  0  0  0  0  0  0  0  0  0
   19.6417   -7.9824  -16.0086 C   0  0  2  0  0  0  0  0  0  0  0  0
   20.9088   -8.6229  -15.9609 N   0  0  0  0  0  0  0  0  0  0  0  0
   19.7577   -6.6539  -15.3240 C   0  0  0  0  0  0  0  0  0  0  0  0
   18.7227   -5.9406  -15.3229 O   0  0  0  0  0  0  0  0  0  0  0  0
   21.8727   -4.7989  -12.9132 C   0  0  0  0  0  0  0  0  0  0  0  0
   20.9721   -4.8648  -14.1257 C   0  0  2  0  0  0  0  0  0  0  0  0
   20.9164   -6.1743  -14.7040 N   0  0  0  0  0  0  0  0  0  0  0  0
   21.4852   -3.8692  -15.1025 C   0  0  0  0  0  0  0  0  0  0  0  0
   21.5528   -2.5303  -14.8321 O   0  0  0  0  0  0  0  0  0  0  0  0
   21.8728   -4.2730  -16.2218 O   0  0  0  0  0  0  0  0  0  0  0  0
  2  3  2  0
  2  1  1  0
  4  3  1  0
  5  4  2  0
  6  5  1  0
  7  9  1  0
  7  6  1  0
  7  8  1  6
  9 10  2  0
 11  5  1  0
 11 12  2  0
 12  2  1  0
 14 15  2  0
 14 13  1  0
 16 14  1  0
 17 16  1  0
 18 17  1  1
 19  9  1  0
 19 18  1  0
 20 24  1  0
 20 18  1  0
 21 20  2  0
 23 22  1  1
 23 24  1  0
 25 23  1  0
 25 26  1  0
 27 25  2  0
M  END
$$$$
