YQA.pdb
     RDKit          3D

 27 27  0  0  1  0  0  0  0  0999 V2000
   28.2634  -19.5834   -4.1872 O   0  0  0  0  0  0  0  0  0  0  0  0
   27.6943  -19.7471   -5.4599 C   0  0  0  0  0  0  0  0  0  0  0  0
   27.5752  -18.6312   -6.2346 C   0  0  0  0  0  0  0  0  0  0  0  0
   27.0132  -18.7604   -7.5058 C   0  0  0  0  0  0  0  0  0  0  0  0
   26.5831  -19.9694   -7.9878 C   0  0  0  0  0  0  0  0  0  0  0  0
   25.9999  -20.0530   -9.3294 C   0  0  0  0  0  0  0  0  0  0  0  0
   26.7293  -21.0831  -10.2023 C   0  0  2  0  0  0  0  0  0  0  0  0
   28.1168  -20.7729  -10.3318 N   0  0  0  0  0  0  0  0  0  0  0  0
   26.0127  -21.0791  -11.5026 C   0  0  0  0  0  0  0  0  0  0  0  0
   26.4431  -20.2963  -12.3832 O   0  0  0  0  0  0  0  0  0  0  0  0
   26.7115  -21.0794   -7.1934 C   0  0  0  0  0  0  0  0  0  0  0  0
   27.2733  -20.9697   -5.9144 C   0  0  0  0  0  0  0  0  0  0  0  0
   25.6352  -24.9570  -15.3397 N   0  0  0  0  0  0  0  0  0  0  0  0
   24.3163  -24.5800  -15.7111 C   0  0  0  0  0  0  0  0  0  0  0  0
   23.9154  -24.8649  -16.8486 O   0  0  0  0  0  0  0  0  0  0  0  0
   23.4731  -23.8681  -14.7502 C   0  0  0  0  0  0  0  0  0  0  0  0
   24.0338  -23.5765  -13.4184 C   0  0  0  0  0  0  0  0  0  0  0  0
   24.3772  -22.1773  -13.0743 C   0  0  2  0  0  0  0  0  0  0  0  0
   24.8897  -21.9061  -11.7774 N   0  0  0  0  0  0  0  0  0  0  0  0
   23.1407  -21.3541  -13.2754 C   0  0  0  0  0  0  0  0  0  0  0  0
   22.3256  -21.3385  -12.3186 O   0  0  0  0  0  0  0  0  0  0  0  0
   21.7604  -18.7539  -15.5878 C   0  0  0  0  0  0  0  0  0  0  0  0
   21.6520  -19.8429  -14.5447 C   0  0  2  0  0  0  0  0  0  0  0  0
   22.8482  -20.6229  -14.4316 N   0  0  0  0  0  0  0  0  0  0  0  0
   20.4924  -20.6922  -14.9226 C   0  0  0  0  0  0  0  0  0  0  0  0
   20.6097  -21.7970  -15.7201 O   0  0  0  0  0  0  0  0  0  0  0  0
   19.3584  -20.3834  -14.4926 O   0  0  0  0  0  0  0  0  0  0  0  0
  2  3  2  0
  2  1  1  0
  4  3  1  0
  5  4  2  0
  6  5  1  0
  7  9  1  0
  7  6  1  0
  7  8  1  6
  9 10  2  0
 11  5  1  0
 11 12  2  0
 12  2  1  0
 14 15  2  0
 14 13  1  0
 16 14  1  0
 17 16  1  0
 18 17  1  1
 19  9  1  0
 19 18  1  0
 20 24  1  0
 20 18  1  0
 21 20  2  0
 23 22  1  6
 23 24  1  0
 25 23  1  0
 25 26  1  0
 27 25  2  0
M  END
$$$$
