HTM.pdb
     RDKit          3D

 26 26  0  0  1  0  0  0  0  0999 V2000
   25.6727  -18.6585  -16.6089 N   0  0  0  0  0  0  0  0  0  0  0  0
   25.9269  -18.1287  -15.3138 C   0  0  1  0  0  0  0  0  0  0  0  0
   25.7725  -16.6322  -15.3093 C   0  0  0  0  0  0  0  0  0  0  0  0
   26.9611  -16.0457  -15.9959 C   0  0  0  0  0  0  0  0  0  0  0  0
   28.0264  -16.6619  -16.5907 C   0  0  0  0  0  0  0  0  0  0  0  0
   28.8234  -15.6885  -17.0615 N   0  0  0  0  0  0  0  0  0  0  0  0
   28.2788  -14.4960  -16.7732 C   0  0  0  0  0  0  0  0  0  0  0  0
   27.1111  -14.6957  -16.1054 N   0  0  0  0  0  0  0  0  0  0  0  0
   25.1345  -18.7846  -14.2436 C   0  0  0  0  0  0  0  0  0  0  0  0
   23.8895  -18.6212  -14.2354 O   0  0  0  0  0  0  0  0  0  0  0  0
   23.9173  -21.7337  -14.1105 C   0  0  0  0  0  0  0  0  0  0  0  0
   24.7277  -21.7448  -12.8470 C   0  0  1  0  0  0  0  0  0  0  0  0
   25.9948  -22.2393  -13.1292 O   0  0  0  0  0  0  0  0  0  0  0  0
   24.9128  -20.3406  -12.2725 C   0  0  2  0  0  0  0  0  0  0  0  0
   25.7252  -19.5871  -13.2315 N   0  0  0  0  0  0  0  0  0  0  0  0
   25.6302  -20.4883  -10.9834 C   0  0  0  0  0  0  0  0  0  0  0  0
   26.8682  -20.1692  -10.9439 O   0  0  0  0  0  0  0  0  0  0  0  0
   28.7204  -18.3425   -4.8650 C   0  0  0  0  0  0  0  0  0  0  0  0
   27.7744  -18.2215   -6.4078 S   0  0  0  0  0  0  0  0  0  0  0  0
   27.1347  -19.8790   -6.7840 C   0  0  0  0  0  0  0  0  0  0  0  0
   26.4787  -19.8049   -8.1393 C   0  0  0  0  0  0  0  0  0  0  0  0
   25.8483  -21.1251   -8.5543 C   0  0  2  0  0  0  0  0  0  0  0  0
   25.0761  -20.9506   -9.7796 N   0  0  0  0  0  0  0  0  0  0  0  0
   24.9189  -21.6533   -7.5271 C   0  0  0  0  0  0  0  0  0  0  0  0
   25.3555  -22.1281   -6.2864 O   0  0  0  0  0  0  0  0  0  0  0  0
   23.6623  -21.7085   -7.7086 O   0  0  0  0  0  0  0  0  0  0  0  0
  2  9  1  0
  2  1  1  6
  3  2  1  0
  4  8  1  0
  4  3  1  0
  5  4  2  0
  6  5  1  0
  6  7  1  0
  7  8  2  0
  9 10  2  0
 12 11  1  6
 12 14  1  0
 13 12  1  0
 14 15  1  6
 15  9  1  0
 16 14  1  0
 16 17  2  0
 19 18  1  0
 19 20  1  0
 20 21  1  0
 22 21  1  1
 22 23  1  0
 22 24  1  0
 23 16  1  0
 24 26  2  0
 24 25  1  0
M  END
$$$$
