HTM.pdb
     RDKit          3D

 26 26  0  0  1  0  0  0  0  0999 V2000
   19.7348  -13.4254  -19.4612 N   0  0  0  0  0  0  0  0  0  0  0  0
   19.3141  -12.6494  -18.3461 C   0  0  1  0  0  0  0  0  0  0  0  0
   19.4053  -13.4484  -17.0746 C   0  0  0  0  0  0  0  0  0  0  0  0
   18.4571  -14.5960  -17.1841 C   0  0  0  0  0  0  0  0  0  0  0  0
   17.1399  -14.6857  -16.8300 C   0  0  0  0  0  0  0  0  0  0  0  0
   16.7415  -15.9323  -17.1333 N   0  0  0  0  0  0  0  0  0  0  0  0
   17.7740  -16.6078  -17.6618 C   0  0  0  0  0  0  0  0  0  0  0  0
   18.8596  -15.7900  -17.7033 N   0  0  0  0  0  0  0  0  0  0  0  0
   20.0066  -11.3404  -18.2450 C   0  0  0  0  0  0  0  0  0  0  0  0
   21.2618  -11.3235  -18.2772 O   0  0  0  0  0  0  0  0  0  0  0  0
   19.3067   -8.2452  -20.3490 C   0  0  0  0  0  0  0  0  0  0  0  0
   19.2760   -7.8357  -18.9051 C   0  0  1  0  0  0  0  0  0  0  0  0
   17.9559   -7.8055  -18.4736 O   0  0  0  0  0  0  0  0  0  0  0  0
   20.0166   -8.8302  -18.0115 C   0  0  2  0  0  0  0  0  0  0  0  0
   19.3097  -10.1098  -18.1140 N   0  0  0  0  0  0  0  0  0  0  0  0
   19.9484   -8.3059  -16.6263 C   0  0  0  0  0  0  0  0  0  0  0  0
   18.9066   -8.5714  -15.9332 O   0  0  0  0  0  0  0  0  0  0  0  0
   22.5599   -9.9989  -12.1081 C   0  0  0  0  0  0  0  0  0  0  0  0
   22.3318   -8.4706  -11.1583 S   0  0  0  0  0  0  0  0  0  0  0  0
   21.5368   -7.2622  -12.2565 C   0  0  0  0  0  0  0  0  0  0  0  0
   21.5020   -7.8708  -13.6353 C   0  0  0  0  0  0  0  0  0  0  0  0
   20.7778   -6.9909  -14.6423 C   0  0  2  0  0  0  0  0  0  0  0  0
   20.9313   -7.5343  -15.9873 N   0  0  0  0  0  0  0  0  0  0  0  0
   21.3119   -5.6081  -14.6692 C   0  0  0  0  0  0  0  0  0  0  0  0
   20.9836   -4.6529  -13.7022 O   0  0  0  0  0  0  0  0  0  0  0  0
   22.1046   -5.2011  -15.5753 O   0  0  0  0  0  0  0  0  0  0  0  0
  2  9  1  0
  2  1  1  6
  3  2  1  0
  4  8  1  0
  4  3  1  0
  5  4  2  0
  6  5  1  0
  6  7  1  0
  7  8  2  0
  9 10  2  0
 12 11  1  6
 12 14  1  0
 13 12  1  0
 14 15  1  1
 15  9  1  0
 16 14  1  0
 16 17  2  0
 19 18  1  0
 19 20  1  0
 20 21  1  0
 22 21  1  1
 22 23  1  0
 22 24  1  0
 23 16  1  0
 24 26  2  0
 24 25  1  0
M  END
$$$$
