HTM.pdb
     RDKit          3D

 26 26  0  0  1  0  0  0  0  0999 V2000
   22.0287  -12.2126  -21.1178 N   0  0  0  0  0  0  0  0  0  0  0  0
   21.4231  -11.6150  -19.9783 C   0  0  1  0  0  0  0  0  0  0  0  0
   21.0625  -12.6584  -18.9562 C   0  0  0  0  0  0  0  0  0  0  0  0
   19.8734  -13.4055  -19.4620 C   0  0  0  0  0  0  0  0  0  0  0  0
   18.7525  -12.9488  -20.0974 C   0  0  0  0  0  0  0  0  0  0  0  0
   17.9830  -14.0219  -20.3442 N   0  0  0  0  0  0  0  0  0  0  0  0
   18.5983  -15.1206  -19.8797 C   0  0  0  0  0  0  0  0  0  0  0  0
   19.7848  -14.7582  -19.3227 N   0  0  0  0  0  0  0  0  0  0  0  0
   22.2229  -10.5063  -19.4001 C   0  0  0  0  0  0  0  0  0  0  0  0
   23.3888  -10.7528  -19.0042 O   0  0  0  0  0  0  0  0  0  0  0  0
   23.3129   -7.3603  -20.9424 C   0  0  0  0  0  0  0  0  0  0  0  0
   22.5776   -6.9688  -19.6936 C   0  0  1  0  0  0  0  0  0  0  0  0
   21.2649   -6.6563  -20.0233 O   0  0  0  0  0  0  0  0  0  0  0  0
   22.5248   -8.1098  -18.6780 C   0  0  2  0  0  0  0  0  0  0  0  0
   21.7250   -9.1819  -19.2767 N   0  0  0  0  0  0  0  0  0  0  0  0
   21.8615   -7.5805  -17.4622 C   0  0  0  0  0  0  0  0  0  0  0  0
   20.7739   -8.1351  -17.0805 O   0  0  0  0  0  0  0  0  0  0  0  0
   20.4660   -7.9637  -10.4502 C   0  0  0  0  0  0  0  0  0  0  0  0
   21.2894   -8.3596  -12.0171 S   0  0  0  0  0  0  0  0  0  0  0  0
   21.1862   -6.8853  -13.0725 C   0  0  0  0  0  0  0  0  0  0  0  0
   21.7147   -7.2731  -14.4301 C   0  0  0  0  0  0  0  0  0  0  0  0
   21.6884   -6.1168  -15.4174 C   0  0  2  0  0  0  0  0  0  0  0  0
   22.3167   -6.5129  -16.6730 N   0  0  0  0  0  0  0  0  0  0  0  0
   22.4264   -4.9321  -14.9176 C   0  0  0  0  0  0  0  0  0  0  0  0
   21.8900   -4.0515  -13.9731 O   0  0  0  0  0  0  0  0  0  0  0  0
   23.5972   -4.6401  -15.3165 O   0  0  0  0  0  0  0  0  0  0  0  0
  2  9  1  0
  2  1  1  6
  3  2  1  0
  4  8  1  0
  4  3  1  0
  5  4  2  0
  6  5  1  0
  6  7  1  0
  7  8  2  0
  9 10  2  0
 12 11  1  6
 12 14  1  0
 13 12  1  0
 14 15  1  6
 15  9  1  0
 16 14  1  0
 16 17  2  0
 19 18  1  0
 19 20  1  0
 20 21  1  0
 22 21  1  1
 22 23  1  0
 22 24  1  0
 23 16  1  0
 24 26  2  0
 24 25  1  0
M  END
$$$$
