HTM.pdb
     RDKit          3D

 26 26  0  0  1  0  0  0  0  0999 V2000
   23.2091  -13.8797  -17.3476 N   0  0  0  0  0  0  0  0  0  0  0  0
   23.7143  -12.6811  -16.7725 C   0  0  1  0  0  0  0  0  0  0  0  0
   25.1779  -12.5171  -17.0794 C   0  0  0  0  0  0  0  0  0  0  0  0
   25.8928  -13.7229  -16.5666 C   0  0  0  0  0  0  0  0  0  0  0  0
   26.3366  -14.0131  -15.3067 C   0  0  0  0  0  0  0  0  0  0  0  0
   26.9160  -15.2234  -15.3694 N   0  0  0  0  0  0  0  0  0  0  0  0
   26.8404  -15.6826  -16.6285 C   0  0  0  0  0  0  0  0  0  0  0  0
   26.2031  -14.7586  -17.3962 N   0  0  0  0  0  0  0  0  0  0  0  0
   22.9212  -11.4778  -17.1280 C   0  0  0  0  0  0  0  0  0  0  0  0
   22.7018  -11.2430  -18.3420 O   0  0  0  0  0  0  0  0  0  0  0  0
   19.4469  -10.7584  -16.6427 C   0  0  0  0  0  0  0  0  0  0  0  0
   20.1879   -9.6628  -15.9327 C   0  0  1  0  0  0  0  0  0  0  0  0
   20.3694  -10.0290  -14.6050 O   0  0  0  0  0  0  0  0  0  0  0  0
   21.5768   -9.4315  -16.5273 C   0  0  2  0  0  0  0  0  0  0  0  0
   22.4017  -10.5838  -16.1543 N   0  0  0  0  0  0  0  0  0  0  0  0
   22.1100   -8.1891  -15.9186 C   0  0  0  0  0  0  0  0  0  0  0  0
   22.9472   -8.3011  -14.9581 O   0  0  0  0  0  0  0  0  0  0  0  0
   23.0219   -0.3435  -16.4903 C   0  0  0  0  0  0  0  0  0  0  0  0
   22.2499   -1.8547  -17.1308 S   0  0  0  0  0  0  0  0  0  0  0  0
   22.6618   -3.2024  -15.9854 C   0  0  0  0  0  0  0  0  0  0  0  0
   22.1288   -4.4769  -16.5890 C   0  0  0  0  0  0  0  0  0  0  0  0
   22.4091   -5.6940  -15.7216 C   0  0  2  0  0  0  0  0  0  0  0  0
   21.7827   -6.8783  -16.2989 N   0  0  0  0  0  0  0  0  0  0  0  0
   21.8703   -5.5437  -14.3486 C   0  0  0  0  0  0  0  0  0  0  0  0
   22.6025   -4.9604  -13.3099 O   0  0  0  0  0  0  0  0  0  0  0  0
   20.7053   -5.9364  -14.0268 O   0  0  0  0  0  0  0  0  0  0  0  0
  2  9  1  0
  2  1  1  6
  3  2  1  0
  4  8  1  0
  4  3  1  0
  5  4  2  0
  6  5  1  0
  6  7  1  0
  7  8  2  0
  9 10  2  0
 12 11  1  6
 12 14  1  0
 13 12  1  0
 14 15  1  1
 15  9  1  0
 16 14  1  0
 16 17  2  0
 19 18  1  0
 19 20  1  0
 20 21  1  0
 22 21  1  6
 22 23  1  0
 22 24  1  0
 23 16  1  0
 24 26  2  0
 24 25  1  0
M  END
$$$$
