HTM.pdb
     RDKit          3D

 26 26  0  0  1  0  0  0  0  0999 V2000
   28.8935  -22.2507  -18.8791 N   0  0  0  0  0  0  0  0  0  0  0  0
   28.0927  -22.6128  -17.7610 C   0  0  1  0  0  0  0  0  0  0  0  0
   28.8688  -23.4786  -16.8063 C   0  0  0  0  0  0  0  0  0  0  0  0
   28.3384  -24.8698  -16.9128 C   0  0  0  0  0  0  0  0  0  0  0  0
   27.3318  -25.3704  -17.6905 C   0  0  0  0  0  0  0  0  0  0  0  0
   27.2460  -26.6824  -17.4154 N   0  0  0  0  0  0  0  0  0  0  0  0
   28.1688  -26.9999  -16.4938 C   0  0  0  0  0  0  0  0  0  0  0  0
   28.8651  -25.8793  -16.1642 N   0  0  0  0  0  0  0  0  0  0  0  0
   27.4613  -21.4501  -17.0881 C   0  0  0  0  0  0  0  0  0  0  0  0
   28.1926  -20.4906  -16.7397 O   0  0  0  0  0  0  0  0  0  0  0  0
   24.8838  -19.0222  -18.2187 C   0  0  0  0  0  0  0  0  0  0  0  0
   24.3540  -19.6949  -16.9857 C   0  0  1  0  0  0  0  0  0  0  0  0
   23.5668  -20.7748  -17.3649 O   0  0  0  0  0  0  0  0  0  0  0  0
   25.4761  -20.2456  -16.1062 C   0  0  2  0  0  0  0  0  0  0  0  0
   26.0678  -21.3786  -16.8230 N   0  0  0  0  0  0  0  0  0  0  0  0
   24.8541  -20.6976  -14.8384 C   0  0  0  0  0  0  0  0  0  0  0  0
   24.4865  -21.9196  -14.7508 O   0  0  0  0  0  0  0  0  0  0  0  0
   24.3250  -21.3538   -7.4758 C   0  0  0  0  0  0  0  0  0  0  0  0
   25.1275  -20.7403   -8.9824 S   0  0  0  0  0  0  0  0  0  0  0  0
   23.8470  -19.9424   -9.9933 C   0  0  0  0  0  0  0  0  0  0  0  0
   24.4961  -19.5348  -11.2915 C   0  0  0  0  0  0  0  0  0  0  0  0
   24.0865  -20.4272  -12.4528 C   0  0  2  0  0  0  0  0  0  0  0  0
   24.6253  -19.9042  -13.7035 N   0  0  0  0  0  0  0  0  0  0  0  0
   22.6146  -20.5039  -12.6127 C   0  0  0  0  0  0  0  0  0  0  0  0
   21.9162  -19.7388  -13.5520 O   0  0  0  0  0  0  0  0  0  0  0  0
   21.8911  -21.2721  -11.9044 O   0  0  0  0  0  0  0  0  0  0  0  0
  2  9  1  0
  2  1  1  6
  3  2  1  0
  4  8  1  0
  4  3  1  0
  5  4  2  0
  6  5  1  0
  6  7  1  0
  7  8  2  0
  9 10  2  0
 12 11  1  6
 12 14  1  0
 13 12  1  0
 14 15  1  6
 15  9  1  0
 16 14  1  0
 16 17  2  0
 19 18  1  0
 19 20  1  0
 20 21  1  0
 22 21  1  1
 22 23  1  0
 22 24  1  0
 23 16  1  0
 24 26  2  0
 24 25  1  0
M  END
$$$$
