HTM.pdb
     RDKit          3D

 26 26  0  0  1  0  0  0  0  0999 V2000
   20.1861  -12.2775  -19.6320 N   0  0  0  0  0  0  0  0  0  0  0  0
   21.2988  -11.5255  -19.1643 C   0  0  1  0  0  0  0  0  0  0  0  0
   22.4517  -11.6233  -20.1259 C   0  0  0  0  0  0  0  0  0  0  0  0
   22.8493  -13.0588  -20.2219 C   0  0  0  0  0  0  0  0  0  0  0  0
   22.2293  -14.1033  -20.8489 C   0  0  0  0  0  0  0  0  0  0  0  0
   22.9919  -15.1890  -20.6385 N   0  0  0  0  0  0  0  0  0  0  0  0
   24.0590  -14.8410  -19.9024 C   0  0  0  0  0  0  0  0  0  0  0  0
   23.9904  -13.5106  -19.6296 N   0  0  0  0  0  0  0  0  0  0  0  0
   20.9593  -10.1207  -18.8258 C   0  0  0  0  0  0  0  0  0  0  0  0
   20.6961   -9.3264  -19.7621 O   0  0  0  0  0  0  0  0  0  0  0  0
   18.0898   -8.7958  -17.0325 C   0  0  0  0  0  0  0  0  0  0  0  0
   19.3026   -8.3257  -16.2831 C   0  0  1  0  0  0  0  0  0  0  0  0
   19.5835   -9.2311  -15.2677 O   0  0  0  0  0  0  0  0  0  0  0  0
   20.5395   -8.2590  -17.1785 C   0  0  2  0  0  0  0  0  0  0  0  0
   20.9199   -9.6395  -17.4901 N   0  0  0  0  0  0  0  0  0  0  0  0
   21.6064   -7.5871  -16.3983 C   0  0  0  0  0  0  0  0  0  0  0  0
   22.7517   -8.1532  -16.3338 O   0  0  0  0  0  0  0  0  0  0  0  0
   26.9252   -2.9263  -17.3834 C   0  0  0  0  0  0  0  0  0  0  0  0
   25.5375   -4.0304  -17.7644 S   0  0  0  0  0  0  0  0  0  0  0  0
   24.6114   -4.2902  -16.2240 C   0  0  0  0  0  0  0  0  0  0  0  0
   23.5054   -5.2678  -16.5302 C   0  0  0  0  0  0  0  0  0  0  0  0
   22.6242   -5.5473  -15.3227 C   0  0  2  0  0  0  0  0  0  0  0  0
   21.4834   -6.3691  -15.7119 N   0  0  0  0  0  0  0  0  0  0  0  0
   22.0800   -4.3057  -14.7226 C   0  0  0  0  0  0  0  0  0  0  0  0
   20.7391   -3.9303  -14.8500 O   0  0  0  0  0  0  0  0  0  0  0  0
   22.7993   -3.5006  -14.0521 O   0  0  0  0  0  0  0  0  0  0  0  0
  2  9  1  0
  2  1  1  6
  3  2  1  0
  4  8  1  0
  4  3  1  0
  5  4  2  0
  6  5  1  0
  6  7  1  0
  7  8  2  0
  9 10  2  0
 12 11  1  6
 12 14  1  0
 13 12  1  0
 14 15  1  1
 15  9  1  0
 16 14  1  0
 16 17  2  0
 19 18  1  0
 19 20  1  0
 20 21  1  0
 22 21  1  6
 22 23  1  0
 22 24  1  0
 23 16  1  0
 24 26  2  0
 24 25  1  0
M  END
$$$$
