HTM.pdb
     RDKit          3D

 26 26  0  0  1  0  0  0  0  0999 V2000
   16.5319  -13.5597  -16.0765 N   0  0  0  0  0  0  0  0  0  0  0  0
   16.5025  -12.1730  -15.7624 C   0  0  1  0  0  0  0  0  0  0  0  0
   15.5513  -11.9023  -14.6287 C   0  0  0  0  0  0  0  0  0  0  0  0
   14.1786  -12.2741  -15.0821 C   0  0  0  0  0  0  0  0  0  0  0  0
   13.3798  -11.6996  -16.0310 C   0  0  0  0  0  0  0  0  0  0  0  0
   12.2400  -12.4100  -16.0594 N   0  0  0  0  0  0  0  0  0  0  0  0
   12.3168  -13.4011  -15.1574 C   0  0  0  0  0  0  0  0  0  0  0  0
   13.5231  -13.3352  -14.5330 N   0  0  0  0  0  0  0  0  0  0  0  0
   17.8487  -11.5947  -15.5245 C   0  0  0  0  0  0  0  0  0  0  0  0
   18.6569  -12.2351  -14.8078 O   0  0  0  0  0  0  0  0  0  0  0  0
   20.4792  -10.7195  -17.9762 C   0  0  0  0  0  0  0  0  0  0  0  0
   20.2145   -9.4784  -17.1744 C   0  0  1  0  0  0  0  0  0  0  0  0
   19.3074   -8.6827  -17.8627 O   0  0  0  0  0  0  0  0  0  0  0  0
   19.5909   -9.7959  -15.8157 C   0  0  2  0  0  0  0  0  0  0  0  0
   18.2589  -10.3504  -16.0727 N   0  0  0  0  0  0  0  0  0  0  0  0
   19.4892   -8.5165  -15.0732 C   0  0  0  0  0  0  0  0  0  0  0  0
   18.4324   -7.8129  -15.2291 O   0  0  0  0  0  0  0  0  0  0  0  0
   20.7902   -4.2884   -8.6858 C   0  0  0  0  0  0  0  0  0  0  0  0
   20.7149   -5.8809   -9.5508 S   0  0  0  0  0  0  0  0  0  0  0  0
   20.6099   -5.5284  -11.3292 C   0  0  0  0  0  0  0  0  0  0  0  0
   20.4792   -6.8528  -12.0375 C   0  0  0  0  0  0  0  0  0  0  0  0
   20.3218   -6.6957  -13.5419 C   0  0  2  0  0  0  0  0  0  0  0  0
   20.4538   -7.9912  -14.1995 N   0  0  0  0  0  0  0  0  0  0  0  0
   21.3530   -5.8053  -14.1264 C   0  0  0  0  0  0  0  0  0  0  0  0
   21.2193   -4.4137  -14.1575 O   0  0  0  0  0  0  0  0  0  0  0  0
   22.4276   -6.2507  -14.6382 O   0  0  0  0  0  0  0  0  0  0  0  0
  2  9  1  0
  2  1  1  1
  3  2  1  0
  4  8  1  0
  4  3  1  0
  5  4  2  0
  6  5  1  0
  6  7  1  0
  7  8  2  0
  9 10  2  0
 12 11  1  6
 12 14  1  0
 13 12  1  0
 14 15  1  6
 15  9  1  0
 16 14  1  0
 16 17  2  0
 19 18  1  0
 19 20  1  0
 20 21  1  0
 22 21  1  1
 22 23  1  0
 22 24  1  0
 23 16  1  0
 24 26  2  0
 24 25  1  0
M  END
$$$$
