KLH.pdb
     RDKit          3D

 28 28  0  0  1  0  0  0  0  0999 V2000
    7.9046  -14.4034   19.9092 N   0  0  0  0  0  0  0  0  0  0  0  0
    7.3396  -15.0941   21.0230 C   0  0  1  0  0  0  0  0  0  0  0  0
    7.3449  -16.5909   20.8042 C   0  0  0  0  0  0  0  0  0  0  0  0
    6.6527  -16.9819   19.5378 C   0  0  0  0  0  0  0  0  0  0  0  0
    6.6542  -18.4555   19.2717 C   0  0  0  0  0  0  0  0  0  0  0  0
    5.9874  -18.8136   17.9645 C   0  0  0  0  0  0  0  0  0  0  0  0
    6.0522  -20.2570   17.8208 N   0  0  0  0  0  0  0  0  0  0  0  0
    8.0251  -14.7308   22.2962 C   0  0  0  0  0  0  0  0  0  0  0  0
    9.2747  -14.6848   22.2643 O   0  0  0  0  0  0  0  0  0  0  0  0
    5.4520  -12.1089   26.6583 C   0  0  0  0  0  0  0  0  0  0  0  0
    6.4807  -12.4604   25.5731 C   0  0  1  0  0  0  0  0  0  0  0  0
    7.5995  -11.4343   25.7840 C   0  0  0  0  0  0  0  0  0  0  0  0
    6.9489  -13.8417   25.8623 C   0  0  0  0  0  0  0  0  0  0  0  0
    7.8691  -14.4307   24.8080 C   0  0  2  0  0  0  0  0  0  0  0  0
    7.3471  -14.4489   23.4856 N   0  0  0  0  0  0  0  0  0  0  0  0
    8.4141  -15.7008   25.2936 C   0  0  0  0  0  0  0  0  0  0  0  0
    7.6589  -16.7433   25.3119 O   0  0  0  0  0  0  0  0  0  0  0  0
    9.7247  -15.8747   25.7502 N   0  0  0  0  0  0  0  0  0  0  0  0
   10.2496  -17.2526   25.9746 C   0  0  1  0  0  0  0  0  0  0  0  0
   11.5638  -17.2832   25.2534 C   0  0  0  0  0  0  0  0  0  0  0  0
   12.3113  -18.5331   25.4528 C   0  0  0  0  0  0  0  0  0  0  0  0
   12.0620  -19.6655   26.1643 C   0  0  0  0  0  0  0  0  0  0  0  0
   13.0538  -20.5557   25.9627 N   0  0  0  0  0  0  0  0  0  0  0  0
   13.9047  -19.9760   25.1332 C   0  0  0  0  0  0  0  0  0  0  0  0
   13.4837  -18.7662   24.8130 N   0  0  0  0  0  0  0  0  0  0  0  0
   10.5535  -17.3130   27.4469 C   0  0  0  0  0  0  0  0  0  0  0  0
   11.0896  -18.3791   27.8802 O   0  0  0  0  0  0  0  0  0  0  0  0
   10.2971  -16.3157   28.3454 O   0  0  0  0  0  0  0  0  0  0  0  0
  2  1  1  6
  3  2  1  0
  3  4  1  0
  5  4  1  0
  5  6  1  0
  7  6  1  0
  8  9  2  0
  8  2  1  0
 11 10  1  1
 11 12  1  0
 11 13  1  0
 14 13  1  1
 14 15  1  0
 15  8  1  0
 16 18  1  0
 16 14  1  0
 17 16  2  0
 19 18  1  0
 19 26  1  0
 19 20  1  6
 20 21  1  0
 21 22  2  0
 22 23  1  0
 24 23  1  0
 25 21  1  0
 25 24  2  0
 26 28  1  0
 27 26  2  0
M  END
$$$$
