KLH.pdb
     RDKit          3D

 28 28  0  0  1  0  0  0  0  0999 V2000
    7.5650  -16.2836   21.7301 N   0  0  0  0  0  0  0  0  0  0  0  0
    8.5655  -15.2702   21.6353 C   0  0  1  0  0  0  0  0  0  0  0  0
    8.1126  -14.1289   20.7519 C   0  0  0  0  0  0  0  0  0  0  0  0
    7.6776  -14.5958   19.3997 C   0  0  0  0  0  0  0  0  0  0  0  0
    7.7815  -13.5517   18.3313 C   0  0  0  0  0  0  0  0  0  0  0  0
    7.1697  -13.9925   17.0224 C   0  0  0  0  0  0  0  0  0  0  0  0
    7.3541  -12.9143   16.0676 N   0  0  0  0  0  0  0  0  0  0  0  0
    8.9778  -14.7815   22.9823 C   0  0  0  0  0  0  0  0  0  0  0  0
   10.0707  -14.1765   23.0464 O   0  0  0  0  0  0  0  0  0  0  0  0
    5.5266  -12.8257   26.7942 C   0  0  0  0  0  0  0  0  0  0  0  0
    6.6878  -13.0799   25.8213 C   0  0  1  0  0  0  0  0  0  0  0  0
    7.4821  -11.7695   25.8498 C   0  0  0  0  0  0  0  0  0  0  0  0
    7.4772  -14.2061   26.3863 C   0  0  0  0  0  0  0  0  0  0  0  0
    8.5901  -14.7120   25.4858 C   0  0  2  0  0  0  0  0  0  0  0  0
    8.2147  -14.9673   24.1385 N   0  0  0  0  0  0  0  0  0  0  0  0
    9.3073  -15.7958   26.1620 C   0  0  0  0  0  0  0  0  0  0  0  0
    9.5993  -15.6740   27.4099 O   0  0  0  0  0  0  0  0  0  0  0  0
    9.7094  -16.9836   25.5425 N   0  0  0  0  0  0  0  0  0  0  0  0
   10.4303  -18.0205   26.3361 C   0  0  1  0  0  0  0  0  0  0  0  0
    9.8907  -19.3274   25.8370 C   0  0  0  0  0  0  0  0  0  0  0  0
    8.4828  -19.5533   26.1940 C   0  0  0  0  0  0  0  0  0  0  0  0
    7.8071  -19.5449   27.3746 C   0  0  0  0  0  0  0  0  0  0  0  0
    6.4950  -19.7546   27.1482 N   0  0  0  0  0  0  0  0  0  0  0  0
    6.3651  -19.8893   25.8393 C   0  0  0  0  0  0  0  0  0  0  0  0
    7.5388  -19.7728   25.2457 N   0  0  0  0  0  0  0  0  0  0  0  0
   11.8603  -17.9303   25.8773 C   0  0  0  0  0  0  0  0  0  0  0  0
   12.1058  -17.1447   24.9108 O   0  0  0  0  0  0  0  0  0  0  0  0
   12.9058  -18.6254   26.4173 O   0  0  0  0  0  0  0  0  0  0  0  0
  2  1  1  1
  3  2  1  0
  3  4  1  0
  5  4  1  0
  5  6  1  0
  7  6  1  0
  8  9  2  0
  8  2  1  0
 11 10  1  1
 11 12  1  0
 11 13  1  0
 14 13  1  1
 14 15  1  0
 15  8  1  0
 16 18  1  0
 16 14  1  0
 17 16  2  0
 19 18  1  0
 19 26  1  0
 19 20  1  6
 20 21  1  0
 21 22  2  0
 22 23  1  0
 24 23  1  0
 25 21  1  0
 25 24  2  0
 26 28  1  0
 27 26  2  0
M  END
$$$$
