KLH.pdb
     RDKit          3D

 28 28  0  0  1  0  0  0  0  0999 V2000
    9.6796  -15.4889   20.9139 N   0  0  0  0  0  0  0  0  0  0  0  0
    8.5317  -15.5583   21.7591 C   0  0  1  0  0  0  0  0  0  0  0  0
    7.8276  -16.8904   21.6248 C   0  0  0  0  0  0  0  0  0  0  0  0
    8.7829  -18.0407   21.6320 C   0  0  0  0  0  0  0  0  0  0  0  0
    8.1495  -19.3616   21.3220 C   0  0  0  0  0  0  0  0  0  0  0  0
    8.9058  -20.1398   20.2712 C   0  0  0  0  0  0  0  0  0  0  0  0
    8.1551  -21.3526   19.9993 N   0  0  0  0  0  0  0  0  0  0  0  0
    8.8810  -15.2716   23.1800 C   0  0  0  0  0  0  0  0  0  0  0  0
   10.0728  -15.4581   23.5106 O   0  0  0  0  0  0  0  0  0  0  0  0
    5.3189  -12.1318   26.3992 C   0  0  0  0  0  0  0  0  0  0  0  0
    6.5513  -12.5769   25.5975 C   0  0  1  0  0  0  0  0  0  0  0  0
    7.5569  -11.4402   25.8120 C   0  0  0  0  0  0  0  0  0  0  0  0
    7.0247  -13.8445   26.2138 C   0  0  0  0  0  0  0  0  0  0  0  0
    8.1882  -14.5016   25.4931 C   0  0  2  0  0  0  0  0  0  0  0  0
    7.9578  -14.8172   24.1260 N   0  0  0  0  0  0  0  0  0  0  0  0
    8.7167  -15.5917   26.3167 C   0  0  0  0  0  0  0  0  0  0  0  0
    8.9144  -15.3918   27.5730 O   0  0  0  0  0  0  0  0  0  0  0  0
    9.0307  -16.8661   25.8331 N   0  0  0  0  0  0  0  0  0  0  0  0
    9.6067  -17.8838   26.7590 C   0  0  1  0  0  0  0  0  0  0  0  0
    9.7575  -19.1193   25.9229 C   0  0  0  0  0  0  0  0  0  0  0  0
   10.4484  -20.2149   26.6179 C   0  0  0  0  0  0  0  0  0  0  0  0
   11.0508  -20.3151   27.8335 C   0  0  0  0  0  0  0  0  0  0  0  0
   11.4861  -21.5769   28.0216 N   0  0  0  0  0  0  0  0  0  0  0  0
   11.1529  -22.2468   26.9314 C   0  0  0  0  0  0  0  0  0  0  0  0
   10.5311  -21.4553   26.0768 N   0  0  0  0  0  0  0  0  0  0  0  0
   10.9933  -17.3856   27.0631 C   0  0  0  0  0  0  0  0  0  0  0  0
   11.5680  -17.8723   28.0852 O   0  0  0  0  0  0  0  0  0  0  0  0
   11.6746  -16.4557   26.3289 O   0  0  0  0  0  0  0  0  0  0  0  0
  2  1  1  6
  3  2  1  0
  3  4  1  0
  5  4  1  0
  5  6  1  0
  7  6  1  0
  8  9  2  0
  8  2  1  0
 11 10  1  1
 11 12  1  0
 11 13  1  0
 14 13  1  1
 14 15  1  0
 15  8  1  0
 16 18  1  0
 16 14  1  0
 17 16  2  0
 19 18  1  0
 19 26  1  0
 19 20  1  6
 20 21  1  0
 21 22  2  0
 22 23  1  0
 24 23  1  0
 25 21  1  0
 25 24  2  0
 26 28  1  0
 27 26  2  0
M  END
$$$$
