KLH.pdb
     RDKit          3D

 28 28  0  0  1  0  0  0  0  0999 V2000
    7.3292  -15.9099   21.4893 N   0  0  0  0  0  0  0  0  0  0  0  0
    8.5607  -15.1886   21.4966 C   0  0  1  0  0  0  0  0  0  0  0  0
    8.5072  -13.9968   20.5666 C   0  0  0  0  0  0  0  0  0  0  0  0
    8.0918  -14.3761   19.1812 C   0  0  0  0  0  0  0  0  0  0  0  0
    8.3366  -13.3107   18.1578 C   0  0  0  0  0  0  0  0  0  0  0  0
    7.9598  -13.7450   16.7609 C   0  0  0  0  0  0  0  0  0  0  0  0
    8.2000  -12.6215   15.8731 N   0  0  0  0  0  0  0  0  0  0  0  0
    8.9468  -14.7805   22.8777 C   0  0  0  0  0  0  0  0  0  0  0  0
   10.0744  -14.2555   23.0102 O   0  0  0  0  0  0  0  0  0  0  0  0
    5.4369  -12.6700   26.6162 C   0  0  0  0  0  0  0  0  0  0  0  0
    6.5974  -12.9868   25.6609 C   0  0  1  0  0  0  0  0  0  0  0  0
    7.4965  -11.7491   25.7549 C   0  0  0  0  0  0  0  0  0  0  0  0
    7.2763  -14.1939   26.2020 C   0  0  0  0  0  0  0  0  0  0  0  0
    8.4323  -14.7004   25.3580 C   0  0  2  0  0  0  0  0  0  0  0  0
    8.1240  -14.9563   23.9938 N   0  0  0  0  0  0  0  0  0  0  0  0
    9.1149  -15.7839   26.0694 C   0  0  0  0  0  0  0  0  0  0  0  0
    9.3972  -15.6373   27.3168 O   0  0  0  0  0  0  0  0  0  0  0  0
    9.4933  -16.9970   25.4848 N   0  0  0  0  0  0  0  0  0  0  0  0
   10.1954  -18.0238   26.3079 C   0  0  1  0  0  0  0  0  0  0  0  0
    9.5802  -19.3283   25.8981 C   0  0  0  0  0  0  0  0  0  0  0  0
    8.2821  -19.5887   26.5367 C   0  0  0  0  0  0  0  0  0  0  0  0
    7.6448  -19.0466   27.6093 C   0  0  0  0  0  0  0  0  0  0  0  0
    6.4263  -19.6067   27.7441 N   0  0  0  0  0  0  0  0  0  0  0  0
    6.3149  -20.4848   26.7619 C   0  0  0  0  0  0  0  0  0  0  0  0
    7.4108  -20.4932   26.0254 N   0  0  0  0  0  0  0  0  0  0  0  0
   11.6104  -18.0241   25.7969 C   0  0  0  0  0  0  0  0  0  0  0  0
   11.8561  -17.2999   24.7836 O   0  0  0  0  0  0  0  0  0  0  0  0
   12.6421  -18.7403   26.3360 O   0  0  0  0  0  0  0  0  0  0  0  0
  2  1  1  1
  3  2  1  0
  3  4  1  0
  5  4  1  0
  5  6  1  0
  7  6  1  0
  8  9  2  0
  8  2  1  0
 11 10  1  1
 11 12  1  0
 11 13  1  0
 14 13  1  1
 14 15  1  0
 15  8  1  0
 16 18  1  0
 16 14  1  0
 17 16  2  0
 19 18  1  0
 19 26  1  0
 19 20  1  6
 20 21  1  0
 21 22  2  0
 22 23  1  0
 24 23  1  0
 25 21  1  0
 25 24  2  0
 26 28  1  0
 27 26  2  0
M  END
$$$$
