KLH.pdb
     RDKit          3D

 28 28  0  0  1  0  0  0  0  0999 V2000
   11.2941  -17.8187   16.9698 N   0  0  0  0  0  0  0  0  0  0  0  0
   10.1317  -17.5244   17.7439 C   0  0  1  0  0  0  0  0  0  0  0  0
    9.4825  -18.7869   18.2659 C   0  0  0  0  0  0  0  0  0  0  0  0
   10.2649  -20.0129   17.9187 C   0  0  0  0  0  0  0  0  0  0  0  0
    9.5947  -21.2945   18.3067 C   0  0  0  0  0  0  0  0  0  0  0  0
   10.4472  -22.5088   18.0227 C   0  0  0  0  0  0  0  0  0  0  0  0
    9.7387  -23.6699   18.5307 N   0  0  0  0  0  0  0  0  0  0  0  0
   10.4391  -16.5757   18.8523 C   0  0  0  0  0  0  0  0  0  0  0  0
   11.6480  -16.3267   19.0552 O   0  0  0  0  0  0  0  0  0  0  0  0
    6.4522  -12.9854   20.3578 C   0  0  0  0  0  0  0  0  0  0  0  0
    7.7484  -13.6327   19.8475 C   0  0  1  0  0  0  0  0  0  0  0  0
    8.5235  -12.4626   19.2319 C   0  0  0  0  0  0  0  0  0  0  0  0
    8.4481  -14.1806   21.0396 C   0  0  0  0  0  0  0  0  0  0  0  0
    9.6442  -15.0600   20.7215 C   0  0  2  0  0  0  0  0  0  0  0  0
    9.4601  -15.9734   19.6475 N   0  0  0  0  0  0  0  0  0  0  0  0
   10.1677  -15.6356   21.9627 C   0  0  0  0  0  0  0  0  0  0  0  0
   10.4653  -14.8544   22.9417 O   0  0  0  0  0  0  0  0  0  0  0  0
   10.3743  -17.0029   22.1736 N   0  0  0  0  0  0  0  0  0  0  0  0
   10.8452  -17.4796   23.5061 C   0  0  1  0  0  0  0  0  0  0  0  0
   10.0215  -18.7003   23.7883 C   0  0  0  0  0  0  0  0  0  0  0  0
    8.5886  -18.4144   23.9490 C   0  0  0  0  0  0  0  0  0  0  0  0
    7.8954  -17.5127   24.6953 C   0  0  0  0  0  0  0  0  0  0  0  0
    6.5781  -17.6224   24.4317 N   0  0  0  0  0  0  0  0  0  0  0  0
    6.4627  -18.5825   23.5299 C   0  0  0  0  0  0  0  0  0  0  0  0
    7.6503  -19.0721   23.2242 N   0  0  0  0  0  0  0  0  0  0  0  0
   12.2564  -17.9451   23.2710 C   0  0  0  0  0  0  0  0  0  0  0  0
   12.7078  -17.8387   22.0892 O   0  0  0  0  0  0  0  0  0  0  0  0
   13.0816  -18.4704   24.2254 O   0  0  0  0  0  0  0  0  0  0  0  0
  2  1  1  1
  3  2  1  0
  3  4  1  0
  5  4  1  0
  5  6  1  0
  7  6  1  0
  8  9  2  0
  8  2  1  0
 11 10  1  1
 11 12  1  0
 11 13  1  0
 14 13  1  1
 14 15  1  0
 15  8  1  0
 16 18  1  0
 16 14  1  0
 17 16  2  0
 19 18  1  0
 19 26  1  0
 19 20  1  6
 20 21  1  0
 21 22  2  0
 22 23  1  0
 24 23  1  0
 25 21  1  0
 25 24  2  0
 26 28  1  0
 27 26  2  0
M  END
$$$$
