TIR.pdb
     RDKit          3D

 27 26  0  0  1  0  0  0  0  0999 V2000
    5.3303  -15.4617   19.5884 C   0  0  0  0  0  0  0  0  0  0  0  0
    6.7711  -15.2434   20.0040 C   0  0  1  0  0  0  0  0  0  0  0  0
    7.6570  -15.5424   18.9734 O   0  0  0  0  0  0  0  0  0  0  0  0
    7.0192  -13.7734   20.3645 C   0  0  2  0  0  0  0  0  0  0  0  0
    7.6635  -13.0922   19.2848 N   0  0  0  0  0  0  0  0  0  0  0  0
    7.7940  -13.7001   21.6290 C   0  0  0  0  0  0  0  0  0  0  0  0
    9.0634  -13.7301   21.5107 O   0  0  0  0  0  0  0  0  0  0  0  0
    7.1408  -11.6819   27.3682 C   0  0  0  0  0  0  0  0  0  0  0  0
    8.0062  -12.5780   26.4500 C   0  0  0  0  0  0  0  0  0  0  0  0
    7.2312  -12.7672   25.1862 C   0  0  2  0  0  0  0  0  0  0  0  0
    5.8199  -13.2426   25.4292 C   0  0  0  0  0  0  0  0  0  0  0  0
    7.9789  -13.5268   24.1475 C   0  0  2  0  0  0  0  0  0  0  0  0
    7.2044  -13.6022   22.9079 N   0  0  0  0  0  0  0  0  0  0  0  0
    8.4014  -14.8776   24.4754 C   0  0  0  0  0  0  0  0  0  0  0  0
    7.6162  -15.8462   24.2740 O   0  0  0  0  0  0  0  0  0  0  0  0
   15.8473  -18.9365   24.0926 N   0  0  0  0  0  0  0  0  0  0  0  0
   14.9217  -20.0106   23.9614 C   0  0  0  0  0  0  0  0  0  0  0  0
   15.4033  -21.2038   24.0877 N   0  0  0  0  0  0  0  0  0  0  0  0
   13.5511  -19.8009   23.7077 N   0  0  0  0  0  0  0  0  0  0  0  0
   13.0589  -18.4555   23.6067 C   0  0  0  0  0  0  0  0  0  0  0  0
   11.8260  -18.2758   24.5022 C   0  0  0  0  0  0  0  0  0  0  0  0
   11.2893  -16.8911   24.3074 C   0  0  0  0  0  0  0  0  0  0  0  0
   10.0563  -16.6514   25.1444 C   0  0  2  0  0  0  0  0  0  0  0  0
    9.6623  -15.2379   25.0185 N   0  0  0  0  0  0  0  0  0  0  0  0
   10.2218  -16.9886   26.5663 C   0  0  0  0  0  0  0  0  0  0  0  0
   10.3750  -18.3331   26.9294 O   0  0  0  0  0  0  0  0  0  0  0  0
   10.2379  -16.1517   27.5100 O   0  0  0  0  0  0  0  0  0  0  0  0
  2  1  1  6
  2  4  1  0
  3  2  1  0
  4  6  1  0
  4  5  1  6
  6  7  2  0
  9  8  1  0
 10  9  1  0
 10 11  1  1
 12 10  1  0
 12 13  1  6
 13  6  1  0
 14 15  2  0
 14 12  1  0
 16 17  1  0
 17 18  2  0
 19 17  1  0
 19 20  1  0
 21 20  1  0
 21 22  1  0
 23 22  1  6
 23 24  1  0
 24 14  1  0
 25 23  1  0
 25 26  1  0
 27 25  2  0
M  END
$$$$
