TIR.pdb
     RDKit          3D

 27 26  0  0  1  0  0  0  0  0999 V2000
    5.8522  -16.1844   19.7483 C   0  0  0  0  0  0  0  0  0  0  0  0
    6.6977  -16.0165   20.9946 C   0  0  1  0  0  0  0  0  0  0  0  0
    7.7979  -16.8685   20.9911 O   0  0  0  0  0  0  0  0  0  0  0  0
    7.2626  -14.5934   21.0842 C   0  0  2  0  0  0  0  0  0  0  0  0
    8.0667  -14.2981   19.9391 N   0  0  0  0  0  0  0  0  0  0  0  0
    8.0067  -14.4379   22.3595 C   0  0  0  0  0  0  0  0  0  0  0  0
    9.2681  -14.6150   22.2974 O   0  0  0  0  0  0  0  0  0  0  0  0
    6.2141  -11.0016   26.2146 C   0  0  0  0  0  0  0  0  0  0  0  0
    7.1203  -11.7356   25.1973 C   0  0  0  0  0  0  0  0  0  0  0  0
    7.4209  -13.0766   25.7846 C   0  0  2  0  0  0  0  0  0  0  0  0
    8.0186  -12.9908   27.1674 C   0  0  0  0  0  0  0  0  0  0  0  0
    8.1393  -13.9807   24.8457 C   0  0  2  0  0  0  0  0  0  0  0  0
    7.3973  -14.1143   23.5911 N   0  0  0  0  0  0  0  0  0  0  0  0
    8.4499  -15.3223   25.3085 C   0  0  0  0  0  0  0  0  0  0  0  0
    7.5325  -16.1872   25.3845 O   0  0  0  0  0  0  0  0  0  0  0  0
   15.1545  -20.5899   23.5766 N   0  0  0  0  0  0  0  0  0  0  0  0
   14.2042  -21.3918   24.2705 C   0  0  0  0  0  0  0  0  0  0  0  0
   14.3995  -22.6696   24.2423 N   0  0  0  0  0  0  0  0  0  0  0  0
   13.1043  -20.8376   24.9560 N   0  0  0  0  0  0  0  0  0  0  0  0
   12.9034  -19.4161   24.9176 C   0  0  0  0  0  0  0  0  0  0  0  0
   11.6117  -19.0453   25.6581 C   0  0  0  0  0  0  0  0  0  0  0  0
   11.2134  -17.6568   25.2622 C   0  0  0  0  0  0  0  0  0  0  0  0
    9.9711  -17.2068   25.9918 C   0  0  2  0  0  0  0  0  0  0  0  0
    9.7347  -15.7833   25.6973 N   0  0  0  0  0  0  0  0  0  0  0  0
   10.0270  -17.4026   27.4483 C   0  0  0  0  0  0  0  0  0  0  0  0
    9.9198  -18.7021   27.9610 O   0  0  0  0  0  0  0  0  0  0  0  0
   10.1663  -16.4792   28.2964 O   0  0  0  0  0  0  0  0  0  0  0  0
  2  1  1  6
  2  4  1  0
  3  2  1  0
  4  6  1  0
  4  5  1  6
  6  7  2  0
  9  8  1  0
 10  9  1  0
 10 11  1  1
 12 10  1  0
 12 13  1  6
 13  6  1  0
 14 15  2  0
 14 12  1  0
 16 17  1  0
 17 18  2  0
 19 17  1  0
 19 20  1  0
 21 20  1  0
 21 22  1  0
 23 22  1  6
 23 24  1  0
 24 14  1  0
 25 23  1  0
 25 26  1  0
 27 25  2  0
M  END
$$$$
