TIR.pdb
     RDKit          3D

 27 26  0  0  1  0  0  0  0  0999 V2000
    6.0300  -16.0176   19.5008 C   0  0  0  0  0  0  0  0  0  0  0  0
    6.8203  -15.7650   20.7688 C   0  0  1  0  0  0  0  0  0  0  0  0
    8.0689  -16.3781   20.7300 O   0  0  0  0  0  0  0  0  0  0  0  0
    7.0884  -14.2666   20.9563 C   0  0  2  0  0  0  0  0  0  0  0  0
    7.8169  -13.7424   19.8430 N   0  0  0  0  0  0  0  0  0  0  0  0
    7.7864  -14.0487   22.2486 C   0  0  0  0  0  0  0  0  0  0  0  0
    9.0548  -13.9322   22.1876 O   0  0  0  0  0  0  0  0  0  0  0  0
    5.3861  -11.3006   26.2607 C   0  0  0  0  0  0  0  0  0  0  0  0
    6.4723  -11.7652   25.2611 C   0  0  0  0  0  0  0  0  0  0  0  0
    6.9630  -13.0894   25.7503 C   0  0  2  0  0  0  0  0  0  0  0  0
    7.5132  -13.0289   27.1541 C   0  0  0  0  0  0  0  0  0  0  0  0
    7.8297  -13.7939   24.7666 C   0  0  2  0  0  0  0  0  0  0  0  0
    7.1273  -13.9685   23.4944 N   0  0  0  0  0  0  0  0  0  0  0  0
    8.3628  -15.0907   25.1469 C   0  0  0  0  0  0  0  0  0  0  0  0
    7.5993  -16.0963   25.1822 O   0  0  0  0  0  0  0  0  0  0  0  0
   15.3909  -19.5966   22.8372 N   0  0  0  0  0  0  0  0  0  0  0  0
   14.6492  -20.4739   23.6786 C   0  0  0  0  0  0  0  0  0  0  0  0
   15.0609  -21.6981   23.7389 N   0  0  0  0  0  0  0  0  0  0  0  0
   13.5245  -20.0462   24.4126 N   0  0  0  0  0  0  0  0  0  0  0  0
   13.0335  -18.7103   24.2204 C   0  0  0  0  0  0  0  0  0  0  0  0
   11.8374  -18.4492   25.1451 C   0  0  0  0  0  0  0  0  0  0  0  0
   11.3536  -17.0496   24.9204 C   0  0  0  0  0  0  0  0  0  0  0  0
   10.1621  -16.7284   25.7895 C   0  0  2  0  0  0  0  0  0  0  0  0
    9.7129  -15.3572   25.4944 N   0  0  0  0  0  0  0  0  0  0  0  0
   10.4188  -16.8597   27.2316 C   0  0  0  0  0  0  0  0  0  0  0  0
   10.4060  -18.1368   27.8076 O   0  0  0  0  0  0  0  0  0  0  0  0
   10.6551  -15.8985   28.0136 O   0  0  0  0  0  0  0  0  0  0  0  0
  2  1  1  6
  2  4  1  0
  3  2  1  0
  4  6  1  0
  4  5  1  6
  6  7  2  0
  9  8  1  0
 10  9  1  0
 10 11  1  1
 12 10  1  0
 12 13  1  6
 13  6  1  0
 14 15  2  0
 14 12  1  0
 16 17  1  0
 17 18  2  0
 19 17  1  0
 19 20  1  0
 21 20  1  0
 21 22  1  0
 23 22  1  6
 23 24  1  0
 24 14  1  0
 25 23  1  0
 25 26  1  0
 27 25  2  0
M  END
$$$$
