TIR.pdb
     RDKit          3D

 27 26  0  0  1  0  0  0  0  0999 V2000
    6.8153  -14.6633   18.4931 C   0  0  0  0  0  0  0  0  0  0  0  0
    7.4788  -14.6589   19.8555 C   0  0  1  0  0  0  0  0  0  0  0  0
    8.8311  -14.9764   19.7724 O   0  0  0  0  0  0  0  0  0  0  0  0
    7.4078  -13.2660   20.4934 C   0  0  2  0  0  0  0  0  0  0  0  0
    8.0569  -12.2987   19.6639 N   0  0  0  0  0  0  0  0  0  0  0  0
    7.9812  -13.3209   21.8619 C   0  0  0  0  0  0  0  0  0  0  0  0
    9.2165  -13.0215   21.9642 O   0  0  0  0  0  0  0  0  0  0  0  0
    5.2973  -11.7848   26.3474 C   0  0  0  0  0  0  0  0  0  0  0  0
    6.3905  -11.9876   25.2709 C   0  0  0  0  0  0  0  0  0  0  0  0
    6.8472  -13.4057   25.3893 C   0  0  2  0  0  0  0  0  0  0  0  0
    7.2328  -13.7820   26.7987 C   0  0  0  0  0  0  0  0  0  0  0  0
    7.8333  -13.7937   24.3443 C   0  0  2  0  0  0  0  0  0  0  0  0
    7.2419  -13.6778   23.0104 N   0  0  0  0  0  0  0  0  0  0  0  0
    8.4291  -15.1153   24.4389 C   0  0  0  0  0  0  0  0  0  0  0  0
    7.6914  -16.1397   24.3993 O   0  0  0  0  0  0  0  0  0  0  0  0
   13.4816  -15.0524   18.2668 N   0  0  0  0  0  0  0  0  0  0  0  0
   13.5293  -15.1906   19.6832 C   0  0  0  0  0  0  0  0  0  0  0  0
   14.5416  -14.6515   20.2802 N   0  0  0  0  0  0  0  0  0  0  0  0
   12.5344  -15.8753   20.4099 N   0  0  0  0  0  0  0  0  0  0  0  0
   12.5988  -15.8811   21.8446 C   0  0  0  0  0  0  0  0  0  0  0  0
   11.4769  -16.7554   22.4200 C   0  0  0  0  0  0  0  0  0  0  0  0
   11.6446  -16.8345   23.9062 C   0  0  0  0  0  0  0  0  0  0  0  0
   10.3154  -16.7712   24.6186 C   0  0  2  0  0  0  0  0  0  0  0  0
    9.8158  -15.3865   24.5732 N   0  0  0  0  0  0  0  0  0  0  0  0
   10.3610  -17.2296   26.0152 C   0  0  0  0  0  0  0  0  0  0  0  0
   10.4996  -16.2790   27.0352 O   0  0  0  0  0  0  0  0  0  0  0  0
   10.2845  -18.4338   26.3831 O   0  0  0  0  0  0  0  0  0  0  0  0
  2  1  1  6
  2  4  1  0
  3  2  1  0
  4  6  1  0
  4  5  1  6
  6  7  2  0
  9  8  1  0
 10  9  1  0
 10 11  1  1
 12 10  1  0
 12 13  1  6
 13  6  1  0
 14 15  2  0
 14 12  1  0
 16 17  1  0
 17 18  2  0
 19 17  1  0
 19 20  1  0
 21 20  1  0
 21 22  1  0
 23 22  1  1
 23 24  1  0
 24 14  1  0
 25 23  1  0
 25 26  1  0
 27 25  2  0
M  END
$$$$
