TIR.pdb
     RDKit          3D

 27 26  0  0  1  0  0  0  0  0999 V2000
    5.9556  -17.1325   20.3933 C   0  0  0  0  0  0  0  0  0  0  0  0
    6.7020  -16.5970   21.5985 C   0  0  1  0  0  0  0  0  0  0  0  0
    7.8190  -17.3702   21.8997 O   0  0  0  0  0  0  0  0  0  0  0  0
    7.2252  -15.1801   21.3321 C   0  0  2  0  0  0  0  0  0  0  0  0
    8.0050  -15.1485   20.1339 N   0  0  0  0  0  0  0  0  0  0  0  0
    7.9810  -14.7029   22.5177 C   0  0  0  0  0  0  0  0  0  0  0  0
    9.2379  -14.5573   22.3594 O   0  0  0  0  0  0  0  0  0  0  0  0
    5.8486  -11.0915   25.9842 C   0  0  0  0  0  0  0  0  0  0  0  0
    6.8022  -11.8394   25.0217 C   0  0  0  0  0  0  0  0  0  0  0  0
    7.3004  -13.0383   25.7619 C   0  0  2  0  0  0  0  0  0  0  0  0
    7.8842  -12.6944   27.1102 C   0  0  0  0  0  0  0  0  0  0  0  0
    8.1411  -13.9371   24.9250 C   0  0  2  0  0  0  0  0  0  0  0  0
    7.3866  -14.4149   23.7654 N   0  0  0  0  0  0  0  0  0  0  0  0
    8.7280  -15.1005   25.5674 C   0  0  0  0  0  0  0  0  0  0  0  0
    9.5359  -14.9464   26.5259 O   0  0  0  0  0  0  0  0  0  0  0  0
   13.6772  -20.2173   22.4333 N   0  0  0  0  0  0  0  0  0  0  0  0
   14.0124  -19.5750   23.6592 C   0  0  0  0  0  0  0  0  0  0  0  0
   15.2659  -19.3248   23.8537 N   0  0  0  0  0  0  0  0  0  0  0  0
   13.0416  -19.2244   24.6191 N   0  0  0  0  0  0  0  0  0  0  0  0
   11.8190  -19.9754   24.6805 C   0  0  0  0  0  0  0  0  0  0  0  0
   10.8550  -19.3334   25.6867 C   0  0  0  0  0  0  0  0  0  0  0  0
   10.1218  -18.2193   25.0051 C   0  0  0  0  0  0  0  0  0  0  0  0
    9.1322  -17.5572   25.9328 C   0  0  2  0  0  0  0  0  0  0  0  0
    8.4732  -16.4520   25.2165 N   0  0  0  0  0  0  0  0  0  0  0  0
    9.7258  -17.0483   27.1784 C   0  0  0  0  0  0  0  0  0  0  0  0
    9.4436  -17.7085   28.3816 O   0  0  0  0  0  0  0  0  0  0  0  0
   10.4852  -16.0443   27.2591 O   0  0  0  0  0  0  0  0  0  0  0  0
  2  1  1  6
  2  4  1  0
  3  2  1  0
  4  6  1  0
  4  5  1  6
  6  7  2  0
  9  8  1  0
 10  9  1  0
 10 11  1  1
 12 10  1  0
 12 13  1  6
 13  6  1  0
 14 15  2  0
 14 12  1  0
 16 17  1  0
 17 18  2  0
 19 17  1  0
 19 20  1  0
 21 20  1  0
 21 22  1  0
 23 22  1  6
 23 24  1  0
 24 14  1  0
 25 23  1  0
 25 26  1  0
 27 25  2  0
M  END
$$$$
