TIR.pdb
     RDKit          3D

 27 26  0  0  1  0  0  0  0  0999 V2000
    5.7198  -15.6113   19.9317 C   0  0  0  0  0  0  0  0  0  0  0  0
    6.4033  -15.6047   21.2842 C   0  0  1  0  0  0  0  0  0  0  0  0
    7.2471  -16.7000   21.4418 O   0  0  0  0  0  0  0  0  0  0  0  0
    7.2866  -14.3612   21.4441 C   0  0  2  0  0  0  0  0  0  0  0  0
    8.2849  -14.3180   20.4212 N   0  0  0  0  0  0  0  0  0  0  0  0
    7.8680  -14.3421   22.8102 C   0  0  0  0  0  0  0  0  0  0  0  0
    9.0494  -14.8090   22.9228 O   0  0  0  0  0  0  0  0  0  0  0  0
    6.7216  -10.4022   26.3740 C   0  0  0  0  0  0  0  0  0  0  0  0
    7.4846  -11.4348   25.5100 C   0  0  0  0  0  0  0  0  0  0  0  0
    7.2295  -12.7741   26.1222 C   0  0  2  0  0  0  0  0  0  0  0  0
    7.6002  -12.8311   27.5838 C   0  0  0  0  0  0  0  0  0  0  0  0
    7.7443  -13.9028   25.3000 C   0  0  2  0  0  0  0  0  0  0  0  0
    7.1914  -13.8468   23.9459 N   0  0  0  0  0  0  0  0  0  0  0  0
    7.5304  -15.2506   25.7982 C   0  0  0  0  0  0  0  0  0  0  0  0
    6.4375  -15.8391   25.5645 O   0  0  0  0  0  0  0  0  0  0  0  0
    8.9052  -21.1330   22.0708 N   0  0  0  0  0  0  0  0  0  0  0  0
    8.0452  -21.8111   22.9809 C   0  0  0  0  0  0  0  0  0  0  0  0
    8.1242  -23.1016   22.9944 N   0  0  0  0  0  0  0  0  0  0  0  0
    7.1504  -21.1267   23.8281 N   0  0  0  0  0  0  0  0  0  0  0  0
    7.2747  -19.7029   23.9689 C   0  0  0  0  0  0  0  0  0  0  0  0
    8.4949  -19.3625   24.8346 C   0  0  0  0  0  0  0  0  0  0  0  0
    8.5638  -17.8758   25.0033 C   0  0  0  0  0  0  0  0  0  0  0  0
    8.4955  -17.4790   26.4579 C   0  0  2  0  0  0  0  0  0  0  0  0
    8.4650  -16.0094   26.5501 N   0  0  0  0  0  0  0  0  0  0  0  0
    9.6038  -17.9976   27.2738 C   0  0  0  0  0  0  0  0  0  0  0  0
   10.9201  -17.7261   26.8780 O   0  0  0  0  0  0  0  0  0  0  0  0
    9.4684  -18.6824   28.3244 O   0  0  0  0  0  0  0  0  0  0  0  0
  2  1  1  6
  2  4  1  0
  3  2  1  0
  4  6  1  0
  4  5  1  6
  6  7  2  0
  9  8  1  0
 10  9  1  0
 10 11  1  1
 12 10  1  0
 12 13  1  6
 13  6  1  0
 14 15  2  0
 14 12  1  0
 16 17  1  0
 17 18  2  0
 19 17  1  0
 19 20  1  0
 21 20  1  0
 21 22  1  0
 23 22  1  6
 23 24  1  0
 24 14  1  0
 25 23  1  0
 25 26  1  0
 27 25  2  0
M  END
$$$$
