TIR.pdb
     RDKit          3D

 27 26  0  0  1  0  0  0  0  0999 V2000
    5.9824  -16.8929   20.0172 C   0  0  0  0  0  0  0  0  0  0  0  0
    6.7952  -16.5094   21.2373 C   0  0  1  0  0  0  0  0  0  0  0  0
    8.0213  -17.1668   21.2686 O   0  0  0  0  0  0  0  0  0  0  0  0
    7.1171  -15.0099   21.2302 C   0  0  2  0  0  0  0  0  0  0  0  0
    7.8617  -14.6603   20.0605 N   0  0  0  0  0  0  0  0  0  0  0  0
    7.8249  -14.6519   22.4854 C   0  0  0  0  0  0  0  0  0  0  0  0
    9.0951  -14.5693   22.4084 O   0  0  0  0  0  0  0  0  0  0  0  0
    5.6431  -11.2620   26.1595 C   0  0  0  0  0  0  0  0  0  0  0  0
    6.6010  -11.9665   25.1690 C   0  0  0  0  0  0  0  0  0  0  0  0
    7.0446  -13.2306   25.8314 C   0  0  2  0  0  0  0  0  0  0  0  0
    7.5988  -13.0037   27.2164 C   0  0  0  0  0  0  0  0  0  0  0  0
    7.8839  -14.0901   24.9529 C   0  0  2  0  0  0  0  0  0  0  0  0
    7.1729  -14.4086   23.7137 N   0  0  0  0  0  0  0  0  0  0  0  0
    8.3721  -15.3423   25.5045 C   0  0  0  0  0  0  0  0  0  0  0  0
    7.5559  -16.2652   25.7827 O   0  0  0  0  0  0  0  0  0  0  0  0
   11.2452  -21.9000   25.7148 N   0  0  0  0  0  0  0  0  0  0  0  0
   12.6574  -21.7371   25.6340 C   0  0  0  0  0  0  0  0  0  0  0  0
   13.3761  -22.6942   26.1232 N   0  0  0  0  0  0  0  0  0  0  0  0
   13.2553  -20.5996   25.0549 N   0  0  0  0  0  0  0  0  0  0  0  0
   12.4173  -19.5202   24.6132 C   0  0  0  0  0  0  0  0  0  0  0  0
   11.8550  -18.7598   25.8215 C   0  0  0  0  0  0  0  0  0  0  0  0
   11.3053  -17.4488   25.3499 C   0  0  0  0  0  0  0  0  0  0  0  0
   10.1323  -17.0050   26.1898 C   0  0  2  0  0  0  0  0  0  0  0  0
    9.7316  -15.6510   25.7711 N   0  0  0  0  0  0  0  0  0  0  0  0
   10.3939  -17.0125   27.6370 C   0  0  0  0  0  0  0  0  0  0  0  0
   10.3596  -15.7994   28.3371 O   0  0  0  0  0  0  0  0  0  0  0  0
   10.6529  -18.0417   28.3188 O   0  0  0  0  0  0  0  0  0  0  0  0
  2  1  1  6
  2  4  1  0
  3  2  1  0
  4  6  1  0
  4  5  1  6
  6  7  2  0
  9  8  1  0
 10  9  1  0
 10 11  1  1
 12 10  1  0
 12 13  1  6
 13  6  1  0
 14 15  2  0
 14 12  1  0
 16 17  1  0
 17 18  2  0
 19 17  1  0
 19 20  1  0
 21 20  1  0
 21 22  1  0
 23 22  1  6
 23 24  1  0
 24 14  1  0
 25 23  1  0
 25 26  1  0
 27 25  2  0
M  END
$$$$
