TIR.pdb
     RDKit          3D

 27 26  0  0  1  0  0  0  0  0999 V2000
    6.0717  -15.2470   18.9432 C   0  0  0  0  0  0  0  0  0  0  0  0
    6.8270  -15.2283   20.2569 C   0  0  1  0  0  0  0  0  0  0  0  0
    8.0510  -15.8828   20.1582 O   0  0  0  0  0  0  0  0  0  0  0  0
    7.1471  -13.7902   20.6828 C   0  0  2  0  0  0  0  0  0  0  0  0
    7.9028  -13.1215   19.6696 N   0  0  0  0  0  0  0  0  0  0  0  0
    7.8421  -13.8080   21.9948 C   0  0  0  0  0  0  0  0  0  0  0  0
    9.1161  -13.7703   21.9545 O   0  0  0  0  0  0  0  0  0  0  0  0
    5.3751  -11.4089   26.1918 C   0  0  0  0  0  0  0  0  0  0  0  0
    6.4606  -11.7902   25.1567 C   0  0  0  0  0  0  0  0  0  0  0  0
    6.9634  -13.1429   25.5453 C   0  0  2  0  0  0  0  0  0  0  0  0
    7.4845  -13.1907   26.9606 C   0  0  0  0  0  0  0  0  0  0  0  0
    7.8609  -13.7505   24.5254 C   0  0  2  0  0  0  0  0  0  0  0  0
    7.1745  -13.8629   23.2375 N   0  0  0  0  0  0  0  0  0  0  0  0
    8.4348  -15.0514   24.8236 C   0  0  0  0  0  0  0  0  0  0  0  0
    7.6845  -16.0644   24.9017 O   0  0  0  0  0  0  0  0  0  0  0  0
   16.3397  -18.1121   23.2538 N   0  0  0  0  0  0  0  0  0  0  0  0
   15.6643  -17.0084   23.8482 C   0  0  0  0  0  0  0  0  0  0  0  0
   16.3354  -15.9074   23.9448 N   0  0  0  0  0  0  0  0  0  0  0  0
   14.3359  -17.0953   24.3113 N   0  0  0  0  0  0  0  0  0  0  0  0
   13.5653  -18.2672   24.0025 C   0  0  0  0  0  0  0  0  0  0  0  0
   12.2046  -18.2057   24.7087 C   0  0  0  0  0  0  0  0  0  0  0  0
   11.6234  -16.8393   24.5123 C   0  0  0  0  0  0  0  0  0  0  0  0
   10.3009  -16.6914   25.2244 C   0  0  2  0  0  0  0  0  0  0  0  0
    9.8125  -15.3141   25.0417 N   0  0  0  0  0  0  0  0  0  0  0  0
   10.3544  -17.0054   26.6602 C   0  0  0  0  0  0  0  0  0  0  0  0
   10.4480  -18.3459   27.0567 O   0  0  0  0  0  0  0  0  0  0  0  0
   10.3224  -16.1513   27.5879 O   0  0  0  0  0  0  0  0  0  0  0  0
  2  1  1  6
  2  4  1  0
  3  2  1  0
  4  6  1  0
  4  5  1  6
  6  7  2  0
  9  8  1  0
 10  9  1  0
 10 11  1  1
 12 10  1  0
 12 13  1  6
 13  6  1  0
 14 15  2  0
 14 12  1  0
 16 17  1  0
 17 18  2  0
 19 17  1  0
 19 20  1  0
 21 20  1  0
 21 22  1  0
 23 22  1  1
 23 24  1  0
 24 14  1  0
 25 23  1  0
 25 26  1  0
 27 25  2  0
M  END
$$$$
