TIR.pdb
     RDKit          3D

 27 26  0  0  1  0  0  0  0  0999 V2000
    6.0592  -16.8111   20.0455 C   0  0  0  0  0  0  0  0  0  0  0  0
    6.8819  -16.4916   21.2774 C   0  0  1  0  0  0  0  0  0  0  0  0
    8.0767  -17.2046   21.2997 O   0  0  0  0  0  0  0  0  0  0  0  0
    7.2715  -15.0085   21.3048 C   0  0  2  0  0  0  0  0  0  0  0  0
    8.0330  -14.6665   20.1438 N   0  0  0  0  0  0  0  0  0  0  0  0
    7.9930  -14.7118   22.5682 C   0  0  0  0  0  0  0  0  0  0  0  0
    9.2655  -14.6786   22.4922 O   0  0  0  0  0  0  0  0  0  0  0  0
    5.7800  -11.3964   26.2479 C   0  0  0  0  0  0  0  0  0  0  0  0
    6.8227  -12.0360   25.2999 C   0  0  0  0  0  0  0  0  0  0  0  0
    7.2447  -13.3211   25.9355 C   0  0  2  0  0  0  0  0  0  0  0  0
    7.7983  -13.1334   27.3266 C   0  0  0  0  0  0  0  0  0  0  0  0
    8.0730  -14.1742   25.0405 C   0  0  2  0  0  0  0  0  0  0  0  0
    7.3512  -14.4742   23.8030 N   0  0  0  0  0  0  0  0  0  0  0  0
    8.5590  -15.4353   25.5733 C   0  0  0  0  0  0  0  0  0  0  0  0
    7.7443  -16.3707   25.8113 O   0  0  0  0  0  0  0  0  0  0  0  0
   15.8241  -20.2191   24.4411 N   0  0  0  0  0  0  0  0  0  0  0  0
   15.0557  -20.9352   25.4026 C   0  0  0  0  0  0  0  0  0  0  0  0
   15.4622  -22.1283   25.6910 N   0  0  0  0  0  0  0  0  0  0  0  0
   13.9111  -20.3870   26.0159 N   0  0  0  0  0  0  0  0  0  0  0  0
   13.4548  -19.0886   25.6056 C   0  0  0  0  0  0  0  0  0  0  0  0
   12.1240  -18.7552   26.2926 C   0  0  0  0  0  0  0  0  0  0  0  0
   11.5684  -17.5057   25.6815 C   0  0  0  0  0  0  0  0  0  0  0  0
   10.3001  -17.0670   26.3723 C   0  0  2  0  0  0  0  0  0  0  0  0
    9.9146  -15.7400   25.8632 N   0  0  0  0  0  0  0  0  0  0  0  0
   10.4019  -17.0181   27.8387 C   0  0  0  0  0  0  0  0  0  0  0  0
   10.4081  -18.2210   28.5571 O   0  0  0  0  0  0  0  0  0  0  0  0
   10.4861  -15.9610   28.5219 O   0  0  0  0  0  0  0  0  0  0  0  0
  2  1  1  6
  2  4  1  0
  3  2  1  0
  4  6  1  0
  4  5  1  6
  6  7  2  0
  9  8  1  0
 10  9  1  0
 10 11  1  1
 12 10  1  0
 12 13  1  6
 13  6  1  0
 14 15  2  0
 14 12  1  0
 16 17  1  0
 17 18  2  0
 19 17  1  0
 19 20  1  0
 21 20  1  0
 21 22  1  0
 23 22  1  6
 23 24  1  0
 24 14  1  0
 25 23  1  0
 25 26  1  0
 27 25  2  0
M  END
$$$$
