LGS.pdb
     RDKit          3D

 19 18  0  0  1  0  0  0  0  0999 V2000
   23.6839  -18.0073  -20.0048 C   0  0  0  0  0  0  0  0  0  0  0  0
   24.7011  -17.6684  -18.9678 C   0  0  2  0  0  0  0  0  0  0  0  0
   26.1213  -17.9459  -19.4642 C   0  0  0  0  0  0  0  0  0  0  0  0
   24.4465  -18.2914  -17.6531 C   0  0  0  0  0  0  0  0  0  0  0  0
   23.0924  -18.1595  -17.1267 C   0  0  2  0  0  0  0  0  0  0  0  0
   22.8083  -16.7369  -16.7952 N   0  0  0  0  0  0  0  0  0  0  0  0
   22.7003  -18.9248  -15.9463 C   0  0  0  0  0  0  0  0  0  0  0  0
   22.7270  -20.1530  -16.1215 O   0  0  0  0  0  0  0  0  0  0  0  0
   22.3260  -18.3265  -14.6967 N   0  0  0  0  0  0  0  0  0  0  0  0
   21.9363  -19.2579  -13.7208 C   0  0  0  0  0  0  0  0  0  0  0  0
   20.6976  -19.8435  -13.3313 C   0  0  0  0  0  0  0  0  0  0  0  0
   20.8341  -20.8308  -12.5201 O   0  0  0  0  0  0  0  0  0  0  0  0
   17.4380  -18.5886  -11.8894 O   0  0  0  0  0  0  0  0  0  0  0  0
   17.0792  -19.4515  -12.9279 C   0  0  0  0  0  0  0  0  0  0  0  0
   18.2364  -20.3715  -13.1706 C   0  0  2  0  0  0  0  0  0  0  0  0
   19.3839  -19.5904  -13.6281 N   0  0  0  0  0  0  0  0  0  0  0  0
   17.9640  -21.4308  -14.1310 C   0  0  0  0  0  0  0  0  0  0  0  0
   17.2043  -22.5298  -13.8033 O   0  0  0  0  0  0  0  0  0  0  0  0
   18.4448  -21.3370  -15.3127 O   0  0  0  0  0  0  0  0  0  0  0  0
  2  1  1  6
  2  3  1  0
  4  2  1  0
  5  4  1  0
  5  6  1  1
  7  5  1  0
  8  7  2  0
  9  7  1  0
 10  9  1  0
 11 10  1  0
 11 16  1  0
 12 11  2  0
 14 13  1  0
 15 17  1  0
 15 16  1  0
 15 14  1  6
 17 18  1  0
 19 17  2  0
M  END
$$$$
