LGS.pdb
     RDKit          3D

 19 18  0  0  1  0  0  0  0  0999 V2000
   25.1007  -16.0247  -15.8286 C   0  0  0  0  0  0  0  0  0  0  0  0
   26.1342  -14.9649  -16.0117 C   0  0  2  0  0  0  0  0  0  0  0  0
   27.4797  -15.3856  -15.4177 C   0  0  0  0  0  0  0  0  0  0  0  0
   25.7153  -13.6312  -15.5348 C   0  0  0  0  0  0  0  0  0  0  0  0
   24.4666  -13.1119  -16.0818 C   0  0  2  0  0  0  0  0  0  0  0  0
   24.5294  -13.0887  -17.5683 N   0  0  0  0  0  0  0  0  0  0  0  0
   24.0035  -11.7846  -15.6863 C   0  0  0  0  0  0  0  0  0  0  0  0
   23.8530  -11.6576  -14.4611 O   0  0  0  0  0  0  0  0  0  0  0  0
   23.7510  -10.7194  -16.6144 N   0  0  0  0  0  0  0  0  0  0  0  0
   23.2348   -9.5598  -16.0138 C   0  0  0  0  0  0  0  0  0  0  0  0
   21.9738   -8.8976  -16.0312 C   0  0  0  0  0  0  0  0  0  0  0  0
   21.3134   -9.0890  -17.1170 O   0  0  0  0  0  0  0  0  0  0  0  0
   18.8808   -9.4124  -14.3227 O   0  0  0  0  0  0  0  0  0  0  0  0
   19.0959   -8.0407  -14.1678 C   0  0  0  0  0  0  0  0  0  0  0  0
   19.9428   -7.5840  -15.3161 C   0  0  2  0  0  0  0  0  0  0  0  0
   21.3008   -8.0969  -15.1459 N   0  0  0  0  0  0  0  0  0  0  0  0
   19.9934   -6.1387  -15.4812 C   0  0  0  0  0  0  0  0  0  0  0  0
   18.9484   -5.4340  -16.0323 O   0  0  0  0  0  0  0  0  0  0  0  0
   21.0391   -5.5063  -15.1031 O   0  0  0  0  0  0  0  0  0  0  0  0
  2  1  1  1
  2  3  1  0
  4  2  1  0
  5  4  1  0
  5  6  1  6
  7  5  1  0
  8  7  2  0
  9  7  1  0
 10  9  1  0
 11 10  1  0
 11 16  1  0
 12 11  2  0
 14 13  1  0
 15 17  1  0
 15 16  1  0
 15 14  1  1
 17 18  1  0
 19 17  2  0
M  END
$$$$
