LGS.pdb
     RDKit          3D

 19 18  0  0  1  0  0  0  0  0999 V2000
   18.1622  -10.3951  -21.4023 C   0  0  0  0  0  0  0  0  0  0  0  0
   18.3446  -11.4058  -20.3205 C   0  0  2  0  0  0  0  0  0  0  0  0
   17.4286  -12.6142  -20.5224 C   0  0  0  0  0  0  0  0  0  0  0  0
   18.2300  -10.8505  -18.9567 C   0  0  0  0  0  0  0  0  0  0  0  0
   19.1314   -9.7515  -18.6283 C   0  0  2  0  0  0  0  0  0  0  0  0
   20.5434  -10.2200  -18.6624 N   0  0  0  0  0  0  0  0  0  0  0  0
   18.9795   -9.0504  -17.3563 C   0  0  0  0  0  0  0  0  0  0  0  0
   19.5542   -9.6114  -16.4103 O   0  0  0  0  0  0  0  0  0  0  0  0
   18.2461   -7.8263  -17.2036 N   0  0  0  0  0  0  0  0  0  0  0  0
   18.1433   -7.3938  -15.8716 C   0  0  0  0  0  0  0  0  0  0  0  0
   18.9927   -6.6751  -14.9821 C   0  0  0  0  0  0  0  0  0  0  0  0
   18.5390   -5.5132  -14.6728 O   0  0  0  0  0  0  0  0  0  0  0  0
   20.5830   -7.5039  -11.6138 O   0  0  0  0  0  0  0  0  0  0  0  0
   21.5754   -6.9141  -12.4005 C   0  0  0  0  0  0  0  0  0  0  0  0
   20.8913   -6.0732  -13.4347 C   0  0  2  0  0  0  0  0  0  0  0  0
   20.1925   -6.9444  -14.3774 N   0  0  0  0  0  0  0  0  0  0  0  0
   21.7842   -5.1896  -14.1699 C   0  0  0  0  0  0  0  0  0  0  0  0
   22.2473   -4.0123  -13.6296 O   0  0  0  0  0  0  0  0  0  0  0  0
   22.1483   -5.5171  -15.3516 O   0  0  0  0  0  0  0  0  0  0  0  0
  2  1  1  6
  2  3  1  0
  4  2  1  0
  5  4  1  0
  5  6  1  1
  7  5  1  0
  8  7  2  0
  9  7  1  0
 10  9  1  0
 11 10  1  0
 11 16  1  0
 12 11  2  0
 14 13  1  0
 15 17  1  0
 15 16  1  0
 15 14  1  1
 17 18  1  0
 19 17  2  0
M  END
$$$$
