LGS.pdb
     RDKit          3D

 19 18  0  0  1  0  0  0  0  0999 V2000
   23.9386  -31.0491   -8.2016 C   0  0  0  0  0  0  0  0  0  0  0  0
   23.8343  -32.5242   -8.3969 C   0  0  2  0  0  0  0  0  0  0  0  0
   22.4421  -33.0411   -8.0296 C   0  0  0  0  0  0  0  0  0  0  0  0
   24.9015  -33.2941   -7.7261 C   0  0  0  0  0  0  0  0  0  0  0  0
   26.2552  -32.7642   -7.8481 C   0  0  2  0  0  0  0  0  0  0  0  0
   26.7796  -33.0106   -9.2187 N   0  0  0  0  0  0  0  0  0  0  0  0
   27.2969  -33.2318   -6.9378 C   0  0  0  0  0  0  0  0  0  0  0  0
   27.1110  -32.8949   -5.7580 O   0  0  0  0  0  0  0  0  0  0  0  0
   28.4269  -34.0128   -7.3535 N   0  0  0  0  0  0  0  0  0  0  0  0
   29.2578  -34.4097   -6.2935 C   0  0  0  0  0  0  0  0  0  0  0  0
   29.1036  -35.2638   -5.1639 C   0  0  0  0  0  0  0  0  0  0  0  0
   27.8881  -35.6308   -4.9656 O   0  0  0  0  0  0  0  0  0  0  0  0
   31.5816  -37.9022   -3.7015 O   0  0  0  0  0  0  0  0  0  0  0  0
   30.8719  -37.3470   -2.6339 C   0  0  0  0  0  0  0  0  0  0  0  0
   29.6165  -36.7472   -3.1895 C   0  0  2  0  0  0  0  0  0  0  0  0
   29.9643  -35.7862   -4.2343 N   0  0  0  0  0  0  0  0  0  0  0  0
   28.7785  -36.0925   -2.1957 C   0  0  0  0  0  0  0  0  0  0  0  0
   28.5654  -34.7334   -2.2077 O   0  0  0  0  0  0  0  0  0  0  0  0
   28.2247  -36.8008   -1.2858 O   0  0  0  0  0  0  0  0  0  0  0  0
  2  1  1  1
  2  3  1  0
  4  2  1  0
  5  4  1  0
  5  6  1  6
  7  5  1  0
  8  7  2  0
  9  7  1  0
 10  9  1  0
 11 10  1  0
 11 16  1  0
 12 11  2  0
 14 13  1  0
 15 17  1  0
 15 16  1  0
 15 14  1  1
 17 18  1  0
 19 17  2  0
M  END
$$$$
