LGS.pdb
     RDKit          3D

 19 18  0  0  1  0  0  0  0  0999 V2000
   20.0200  -17.2977  -14.3131 C   0  0  0  0  0  0  0  0  0  0  0  0
   20.5065  -17.2938  -15.7231 C   0  0  2  0  0  0  0  0  0  0  0  0
   21.6377  -18.3031  -15.9283 C   0  0  0  0  0  0  0  0  0  0  0  0
   20.8668  -15.9536  -16.2285 C   0  0  0  0  0  0  0  0  0  0  0  0
   19.8248  -14.9350  -16.1595 C   0  0  2  0  0  0  0  0  0  0  0  0
   18.6880  -15.3048  -17.0456 N   0  0  0  0  0  0  0  0  0  0  0  0
   20.1479  -13.5499  -16.4906 C   0  0  0  0  0  0  0  0  0  0  0  0
   21.0498  -13.0700  -15.7862 O   0  0  0  0  0  0  0  0  0  0  0  0
   19.4982  -12.8072  -17.5328 N   0  0  0  0  0  0  0  0  0  0  0  0
   19.9423  -11.4794  -17.6389 C   0  0  0  0  0  0  0  0  0  0  0  0
   19.3759  -10.2059  -17.3447 C   0  0  0  0  0  0  0  0  0  0  0  0
   20.1060   -9.2222  -17.7330 O   0  0  0  0  0  0  0  0  0  0  0  0
   15.6318   -8.9332  -17.2451 O   0  0  0  0  0  0  0  0  0  0  0  0
   16.3483   -8.3707  -16.1859 C   0  0  0  0  0  0  0  0  0  0  0  0
   17.7997   -8.4016  -16.5559 C   0  0  2  0  0  0  0  0  0  0  0  0
   18.2204   -9.7896  -16.7370 N   0  0  0  0  0  0  0  0  0  0  0  0
   18.6753   -7.7577  -15.5877 C   0  0  0  0  0  0  0  0  0  0  0  0
   19.0375   -6.4357  -15.7032 O   0  0  0  0  0  0  0  0  0  0  0  0
   19.1202   -8.4405  -14.6017 O   0  0  0  0  0  0  0  0  0  0  0  0
  2  1  1  1
  2  3  1  0
  4  2  1  0
  5  4  1  0
  5  6  1  6
  7  5  1  0
  8  7  2  0
  9  7  1  0
 10  9  1  0
 11 10  1  0
 11 16  1  0
 12 11  2  0
 14 13  1  0
 15 17  1  0
 15 16  1  0
 15 14  1  1
 17 18  1  0
 19 17  2  0
M  END
$$$$
