LGS.pdb
     RDKit          3D

 19 18  0  0  1  0  0  0  0  0999 V2000
   25.1159  -22.2575  -14.8772 C   0  0  0  0  0  0  0  0  0  0  0  0
   26.0605  -21.4195  -14.0832 C   0  0  2  0  0  0  0  0  0  0  0  0
   27.4643  -21.4284  -14.6911 C   0  0  0  0  0  0  0  0  0  0  0  0
   26.0830  -21.7441  -12.6425 C   0  0  0  0  0  0  0  0  0  0  0  0
   25.1912  -20.9653  -11.7903 C   0  0  2  0  0  0  0  0  0  0  0  0
   25.1357  -19.5548  -12.2614 N   0  0  0  0  0  0  0  0  0  0  0  0
   25.4487  -20.8913  -10.3548 C   0  0  0  0  0  0  0  0  0  0  0  0
   25.4642  -21.9997   -9.7970 O   0  0  0  0  0  0  0  0  0  0  0  0
   25.6717  -19.6627   -9.6474 N   0  0  0  0  0  0  0  0  0  0  0  0
   25.9277  -19.8397   -8.2781 C   0  0  0  0  0  0  0  0  0  0  0  0
   27.1051  -19.9514   -7.4842 C   0  0  0  0  0  0  0  0  0  0  0  0
   27.6408  -21.1187   -7.5297 O   0  0  0  0  0  0  0  0  0  0  0  0
   29.5223  -17.3626   -6.0027 O   0  0  0  0  0  0  0  0  0  0  0  0
   29.2500  -18.2362   -4.9472 C   0  0  0  0  0  0  0  0  0  0  0  0
   28.6235  -19.4663   -5.5293 C   0  0  2  0  0  0  0  0  0  0  0  0
   27.8007  -19.0896   -6.6771 N   0  0  0  0  0  0  0  0  0  0  0  0
   27.8137  -20.2253   -4.5876 C   0  0  0  0  0  0  0  0  0  0  0  0
   26.4560  -20.3734   -4.7525 O   0  0  0  0  0  0  0  0  0  0  0  0
   28.3807  -20.7697   -3.5784 O   0  0  0  0  0  0  0  0  0  0  0  0
  2  1  1  6
  2  3  1  0
  4  2  1  0
  5  4  1  0
  5  6  1  6
  7  5  1  0
  8  7  2  0
  9  7  1  0
 10  9  1  0
 11 10  1  0
 11 16  1  0
 12 11  2  0
 14 13  1  0
 15 17  1  0
 15 16  1  0
 15 14  1  1
 17 18  1  0
 19 17  2  0
M  END
$$$$
