LGS.pdb
     RDKit          3D

 19 18  0  0  1  0  0  0  0  0999 V2000
   18.8048  -14.4801  -15.9073 C   0  0  0  0  0  0  0  0  0  0  0  0
   17.6580  -13.7163  -16.4785 C   0  0  2  0  0  0  0  0  0  0  0  0
   17.1208  -14.3784  -17.7487 C   0  0  0  0  0  0  0  0  0  0  0  0
   17.9371  -12.2804  -16.6826 C   0  0  0  0  0  0  0  0  0  0  0  0
   18.2763  -11.5118  -15.4900 C   0  0  2  0  0  0  0  0  0  0  0  0
   17.1061  -11.4467  -14.5730 N   0  0  0  0  0  0  0  0  0  0  0  0
   18.7453  -10.1358  -15.6285 C   0  0  0  0  0  0  0  0  0  0  0  0
   19.7380  -10.0231  -16.3646 O   0  0  0  0  0  0  0  0  0  0  0  0
   18.1224   -9.0132  -14.9872 N   0  0  0  0  0  0  0  0  0  0  0  0
   18.8012   -7.8008  -15.1901 C   0  0  0  0  0  0  0  0  0  0  0  0
   20.0350   -7.2537  -14.7344 C   0  0  0  0  0  0  0  0  0  0  0  0
   20.5945   -7.9562  -13.8153 O   0  0  0  0  0  0  0  0  0  0  0  0
   23.1303   -6.2982  -16.5596 O   0  0  0  0  0  0  0  0  0  0  0  0
   22.9357   -5.2633  -15.6416 C   0  0  0  0  0  0  0  0  0  0  0  0
   22.0855   -5.7992  -14.5305 C   0  0  2  0  0  0  0  0  0  0  0  0
   20.7652   -6.1398  -15.0568 N   0  0  0  0  0  0  0  0  0  0  0  0
   21.9327   -4.8890  -13.4050 C   0  0  0  0  0  0  0  0  0  0  0  0
   22.6911   -5.0121  -12.2639 O   0  0  0  0  0  0  0  0  0  0  0  0
   21.0691   -3.9483  -13.4793 O   0  0  0  0  0  0  0  0  0  0  0  0
  2  1  1  6
  2  3  1  0
  4  2  1  0
  5  4  1  0
  5  6  1  1
  7  5  1  0
  8  7  2  0
  9  7  1  0
 10  9  1  0
 11 10  1  0
 11 16  1  0
 12 11  2  0
 14 13  1  0
 15 17  1  0
 15 16  1  0
 15 14  1  6
 17 18  1  0
 19 17  2  0
M  END
$$$$
