LGS.pdb
     RDKit          3D

 19 18  0  0  1  0  0  0  0  0999 V2000
   24.1297  -21.2539  -18.0536 C   0  0  0  0  0  0  0  0  0  0  0  0
   23.3630  -19.9750  -18.0923 C   0  0  2  0  0  0  0  0  0  0  0  0
   24.2928  -18.7681  -18.2312 C   0  0  0  0  0  0  0  0  0  0  0  0
   22.4135  -19.8119  -16.9727 C   0  0  0  0  0  0  0  0  0  0  0  0
   22.9715  -19.3181  -15.7186 C   0  0  2  0  0  0  0  0  0  0  0  0
   24.2563  -20.0085  -15.4231 N   0  0  0  0  0  0  0  0  0  0  0  0
   22.1832  -19.4114  -14.4928 C   0  0  0  0  0  0  0  0  0  0  0  0
   21.0591  -18.8943  -14.5868 O   0  0  0  0  0  0  0  0  0  0  0  0
   22.6490  -20.0443  -13.2919 N   0  0  0  0  0  0  0  0  0  0  0  0
   21.7136  -20.0230  -12.2449 C   0  0  0  0  0  0  0  0  0  0  0  0
   20.7232  -20.9281  -11.7663 C   0  0  0  0  0  0  0  0  0  0  0  0
   20.3121  -21.7529  -12.6620 O   0  0  0  0  0  0  0  0  0  0  0  0
   19.2024  -21.2006   -8.1228 O   0  0  0  0  0  0  0  0  0  0  0  0
   19.1688  -22.4390   -8.7684 C   0  0  0  0  0  0  0  0  0  0  0  0
   19.1486  -22.1787  -10.2437 C   0  0  2  0  0  0  0  0  0  0  0  0
   20.1053  -21.1195  -10.5582 N   0  0  0  0  0  0  0  0  0  0  0  0
   17.8401  -21.8135  -10.7663 C   0  0  0  0  0  0  0  0  0  0  0  0
   16.8288  -22.7363  -10.9007 O   0  0  0  0  0  0  0  0  0  0  0  0
   17.6248  -20.6004  -11.1103 O   0  0  0  0  0  0  0  0  0  0  0  0
  2  1  1  1
  2  3  1  0
  4  2  1  0
  5  4  1  0
  5  6  1  1
  7  5  1  0
  8  7  2  0
  9  7  1  0
 10  9  1  0
 11 10  1  0
 11 16  1  0
 12 11  2  0
 14 13  1  0
 15 17  1  0
 15 16  1  0
 15 14  1  1
 17 18  1  0
 19 17  2  0
M  END
$$$$
