VQK.pdb
     RDKit          3D

 26 25  0  0  1  0  0  0  0  0999 V2000
    8.7238  -13.0029   20.7764 C   0  0  0  0  0  0  0  0  0  0  0  0
    7.7120  -13.7267   19.9469 C   0  0  1  0  0  0  0  0  0  0  0  0
    7.3475  -12.8953   18.7175 C   0  0  0  0  0  0  0  0  0  0  0  0
    8.2555  -15.0634   19.5263 C   0  0  2  0  0  0  0  0  0  0  0  0
    7.3239  -15.7251   18.6726 N   0  0  0  0  0  0  0  0  0  0  0  0
    8.6135  -15.9132   20.6894 C   0  0  0  0  0  0  0  0  0  0  0  0
    7.7338  -16.5439   21.3207 O   0  0  0  0  0  0  0  0  0  0  0  0
   14.1223  -18.5293   21.6388 N   0  0  0  0  0  0  0  0  0  0  0  0
   13.0866  -19.0202   20.8059 C   0  0  0  0  0  0  0  0  0  0  0  0
   13.3603  -19.8694   19.9342 O   0  0  0  0  0  0  0  0  0  0  0  0
   11.6639  -18.5353   20.9549 C   0  0  0  0  0  0  0  0  0  0  0  0
   11.6203  -17.4913   22.0215 C   0  0  0  0  0  0  0  0  0  0  0  0
   10.2916  -16.8593   22.2703 C   0  0  2  0  0  0  0  0  0  0  0  0
    9.9489  -16.0192   21.0955 N   0  0  0  0  0  0  0  0  0  0  0  0
   10.2107  -16.0295   23.4881 C   0  0  0  0  0  0  0  0  0  0  0  0
   10.7610  -14.8664   23.5116 O   0  0  0  0  0  0  0  0  0  0  0  0
    9.5539  -16.4195   24.6533 N   0  0  0  0  0  0  0  0  0  0  0  0
    9.4762  -15.4829   25.8461 C   0  0  1  0  0  0  0  0  0  0  0  0
    8.1756  -14.7880   25.5546 C   0  0  0  0  0  0  0  0  0  0  0  0
    7.9401  -13.4765   26.1057 C   0  0  0  0  0  0  0  0  0  0  0  0
    6.5946  -12.8823   25.9789 C   0  0  0  0  0  0  0  0  0  0  0  0
    6.7184  -11.4711   26.6601 C   0  0  0  0  0  0  0  0  0  0  0  0
    5.4268  -10.8532   26.4705 N   0  0  0  0  0  0  0  0  0  0  0  0
    9.4670  -16.4183   26.9716 C   0  0  0  0  0  0  0  0  0  0  0  0
    9.5711  -17.8027   26.7426 O   0  0  0  0  0  0  0  0  0  0  0  0
    9.3686  -16.0789   28.1570 O   0  0  0  0  0  0  0  0  0  0  0  0
  2  1  1  6
  2  4  1  0
  3  2  1  0
  4  5  1  1
  4  6  1  0
  6 14  1  0
  6  7  2  0
  8  9  1  0
  9 10  2  0
 11  9  1  0
 11 12  1  0
 13 12  1  6
 13 15  1  0
 14 13  1  0
 15 16  2  0
 17 18  1  0
 17 15  1  0
 18 24  1  0
 18 19  1  6
 20 19  1  0
 21 20  1  0
 22 21  1  0
 23 22  1  0
 24 25  1  0
 26 24  2  0
M  END
$$$$
