VQK.pdb
     RDKit          3D

 26 25  0  0  1  0  0  0  0  0999 V2000
    8.1170  -12.3019   18.1484 C   0  0  0  0  0  0  0  0  0  0  0  0
    7.8310  -13.3900   19.1332 C   0  0  1  0  0  0  0  0  0  0  0  0
    7.3330  -14.6392   18.4074 C   0  0  0  0  0  0  0  0  0  0  0  0
    9.0713  -13.7077   19.9206 C   0  0  2  0  0  0  0  0  0  0  0  0
   10.1047  -14.1588   19.0471 N   0  0  0  0  0  0  0  0  0  0  0  0
    8.8125  -14.6944   20.9987 C   0  0  0  0  0  0  0  0  0  0  0  0
    7.8582  -14.5410   21.7963 O   0  0  0  0  0  0  0  0  0  0  0  0
   11.7634  -20.1744   21.3939 N   0  0  0  0  0  0  0  0  0  0  0  0
   11.0596  -20.1989   22.6234 C   0  0  0  0  0  0  0  0  0  0  0  0
   11.2011  -21.1775   23.3838 O   0  0  0  0  0  0  0  0  0  0  0  0
   10.1455  -19.0661   23.0267 C   0  0  0  0  0  0  0  0  0  0  0  0
   10.2027  -18.0047   21.9780 C   0  0  0  0  0  0  0  0  0  0  0  0
    9.3817  -16.7845   22.2308 C   0  0  2  0  0  0  0  0  0  0  0  0
    9.6390  -15.8159   21.1359 N   0  0  0  0  0  0  0  0  0  0  0  0
    9.6316  -16.1182   23.5237 C   0  0  0  0  0  0  0  0  0  0  0  0
   10.7728  -15.5701   23.7549 O   0  0  0  0  0  0  0  0  0  0  0  0
    8.6903  -16.0267   24.5468 N   0  0  0  0  0  0  0  0  0  0  0  0
    9.0184  -15.2911   25.8342 C   0  0  1  0  0  0  0  0  0  0  0  0
    7.6671  -14.7238   26.1684 C   0  0  0  0  0  0  0  0  0  0  0  0
    7.5459  -13.3147   26.4490 C   0  0  0  0  0  0  0  0  0  0  0  0
    6.2228  -12.7737   26.8181 C   0  0  0  0  0  0  0  0  0  0  0  0
    6.4644  -11.2325   27.0115 C   0  0  0  0  0  0  0  0  0  0  0  0
    5.1790  -10.7018   27.4017 N   0  0  0  0  0  0  0  0  0  0  0  0
    9.4913  -16.3754   26.6960 C   0  0  0  0  0  0  0  0  0  0  0  0
   10.2796  -16.0893   27.8259 O   0  0  0  0  0  0  0  0  0  0  0  0
    9.2475  -17.5728   26.5040 O   0  0  0  0  0  0  0  0  0  0  0  0
  2  1  1  6
  2  4  1  0
  3  2  1  0
  4  5  1  6
  4  6  1  0
  6 14  1  0
  6  7  2  0
  8  9  1  0
  9 10  2  0
 11  9  1  0
 11 12  1  0
 13 12  1  6
 13 15  1  0
 14 13  1  0
 15 16  2  0
 17 18  1  0
 17 15  1  0
 18 24  1  0
 18 19  1  1
 20 19  1  0
 21 20  1  0
 22 21  1  0
 23 22  1  0
 24 25  1  0
 26 24  2  0
M  END
$$$$
