VQK.pdb
     RDKit          3D

 26 25  0  0  1  0  0  0  0  0999 V2000
   11.7047  -22.7914   22.4674 C   0  0  0  0  0  0  0  0  0  0  0  0
   11.8321  -22.4827   23.9248 C   0  0  1  0  0  0  0  0  0  0  0  0
   12.8332  -21.3477   24.1368 C   0  0  0  0  0  0  0  0  0  0  0  0
   10.4910  -22.1030   24.4875 C   0  0  2  0  0  0  0  0  0  0  0  0
    9.9008  -21.0734   23.6963 N   0  0  0  0  0  0  0  0  0  0  0  0
   10.5759  -21.7006   25.9136 C   0  0  0  0  0  0  0  0  0  0  0  0
   10.8226  -20.5146   26.2342 O   0  0  0  0  0  0  0  0  0  0  0  0
    8.5148  -25.0433   30.7001 N   0  0  0  0  0  0  0  0  0  0  0  0
    9.2832  -24.0874   31.4097 C   0  0  0  0  0  0  0  0  0  0  0  0
    9.2984  -24.1260   32.6564 O   0  0  0  0  0  0  0  0  0  0  0  0
   10.0802  -23.0280   30.6859 C   0  0  0  0  0  0  0  0  0  0  0  0
    9.8489  -23.1706   29.2177 C   0  0  0  0  0  0  0  0  0  0  0  0
   10.6656  -22.2884   28.3337 C   0  0  2  0  0  0  0  0  0  0  0  0
   10.3794  -22.6505   26.9229 N   0  0  0  0  0  0  0  0  0  0  0  0
   12.1230  -22.3557   28.5556 C   0  0  0  0  0  0  0  0  0  0  0  0
   12.8022  -23.3377   28.0754 O   0  0  0  0  0  0  0  0  0  0  0  0
   12.8474  -21.3990   29.2637 N   0  0  0  0  0  0  0  0  0  0  0  0
   14.3581  -21.5029   29.3777 C   0  0  1  0  0  0  0  0  0  0  0  0
   14.7731  -20.5585   28.2843 C   0  0  0  0  0  0  0  0  0  0  0  0
   16.0475  -20.7487   27.6371 C   0  0  0  0  0  0  0  0  0  0  0  0
   16.4175  -19.8589   26.5186 C   0  0  0  0  0  0  0  0  0  0  0  0
   17.8264  -20.3753   26.0504 C   0  0  0  0  0  0  0  0  0  0  0  0
   18.1860  -19.5196   24.9438 N   0  0  0  0  0  0  0  0  0  0  0  0
   14.5955  -21.0446   30.7471 C   0  0  0  0  0  0  0  0  0  0  0  0
   15.8984  -21.0458   31.2784 O   0  0  0  0  0  0  0  0  0  0  0  0
   13.7083  -20.6418   31.5092 O   0  0  0  0  0  0  0  0  0  0  0  0
  2  1  1  6
  2  4  1  0
  3  2  1  0
  4  5  1  6
  4  6  1  0
  6 14  1  0
  6  7  2  0
  8  9  1  0
  9 10  2  0
 11  9  1  0
 11 12  1  0
 13 12  1  1
 13 15  1  0
 14 13  1  0
 15 16  2  0
 17 18  1  0
 17 15  1  0
 18 24  1  0
 18 19  1  6
 20 19  1  0
 21 20  1  0
 22 21  1  0
 23 22  1  0
 24 25  1  0
 26 24  2  0
M  END
$$$$
