VQK.pdb
     RDKit          3D

 26 25  0  0  1  0  0  0  0  0999 V2000
    7.3577  -12.1688   19.3123 C   0  0  0  0  0  0  0  0  0  0  0  0
    8.5691  -12.9513   19.7069 C   0  0  1  0  0  0  0  0  0  0  0  0
    8.2734  -13.7871   20.9516 C   0  0  0  0  0  0  0  0  0  0  0  0
    8.9956  -13.8419   18.5736 C   0  0  2  0  0  0  0  0  0  0  0  0
    7.9276  -14.7128   18.2056 N   0  0  0  0  0  0  0  0  0  0  0  0
   10.2249  -14.6085   18.8962 C   0  0  0  0  0  0  0  0  0  0  0  0
   10.1636  -15.8184   19.2166 O   0  0  0  0  0  0  0  0  0  0  0  0
   15.7181  -13.1253   16.6350 N   0  0  0  0  0  0  0  0  0  0  0  0
   16.1349  -14.1286   17.5445 C   0  0  0  0  0  0  0  0  0  0  0  0
   17.3483  -14.4058   17.6274 O   0  0  0  0  0  0  0  0  0  0  0  0
   15.1402  -14.8645   18.4108 C   0  0  0  0  0  0  0  0  0  0  0  0
   13.7952  -14.2400   18.2362 C   0  0  0  0  0  0  0  0  0  0  0  0
   12.7030  -14.7766   19.0998 C   0  0  2  0  0  0  0  0  0  0  0  0
   11.4756  -13.9817   18.8450 N   0  0  0  0  0  0  0  0  0  0  0  0
   12.9859  -14.7635   20.5481 C   0  0  0  0  0  0  0  0  0  0  0  0
   13.0855  -13.6434   21.1740 O   0  0  0  0  0  0  0  0  0  0  0  0
   13.1514  -15.9121   21.3192 N   0  0  0  0  0  0  0  0  0  0  0  0
   13.3969  -15.8096   22.8143 C   0  0  1  0  0  0  0  0  0  0  0  0
   12.5923  -16.9839   23.2972 C   0  0  0  0  0  0  0  0  0  0  0  0
   12.7538  -17.4353   24.6571 C   0  0  0  0  0  0  0  0  0  0  0  0
   11.9266  -18.5602   25.1366 C   0  0  0  0  0  0  0  0  0  0  0  0
   12.3910  -18.7897   26.6207 C   0  0  0  0  0  0  0  0  0  0  0  0
   11.5435  -19.8497   27.1148 N   0  0  0  0  0  0  0  0  0  0  0  0
   14.8513  -15.9492   22.8975 C   0  0  0  0  0  0  0  0  0  0  0  0
   15.5488  -16.6865   21.9229 O   0  0  0  0  0  0  0  0  0  0  0  0
   15.5473  -15.4545   23.7925 O   0  0  0  0  0  0  0  0  0  0  0  0
  2  1  1  6
  2  4  1  0
  3  2  1  0
  4  5  1  1
  4  6  1  0
  6 14  1  0
  6  7  2  0
  8  9  1  0
  9 10  2  0
 11  9  1  0
 11 12  1  0
 13 12  1  6
 13 15  1  0
 14 13  1  0
 15 16  2  0
 17 18  1  0
 17 15  1  0
 18 24  1  0
 18 19  1  1
 20 19  1  0
 21 20  1  0
 22 21  1  0
 23 22  1  0
 24 25  1  0
 26 24  2  0
M  END
$$$$
