VQK.pdb
     RDKit          3D

 26 25  0  0  1  0  0  0  0  0999 V2000
    6.6852  -17.6793   19.2147 C   0  0  0  0  0  0  0  0  0  0  0  0
    7.3783  -17.3060   20.4859 C   0  0  1  0  0  0  0  0  0  0  0  0
    8.5205  -18.2812   20.7684 C   0  0  0  0  0  0  0  0  0  0  0  0
    7.9070  -15.9024   20.3883 C   0  0  2  0  0  0  0  0  0  0  0  0
    8.8150  -15.7952   19.2936 N   0  0  0  0  0  0  0  0  0  0  0  0
    8.5385  -15.4529   21.6540 C   0  0  0  0  0  0  0  0  0  0  0  0
    9.7846  -15.4521   21.7869 O   0  0  0  0  0  0  0  0  0  0  0  0
    5.4141  -12.5088   26.1914 N   0  0  0  0  0  0  0  0  0  0  0  0
    6.7263  -12.4939   26.7257 C   0  0  0  0  0  0  0  0  0  0  0  0
    6.9664  -11.7867   27.7248 O   0  0  0  0  0  0  0  0  0  0  0  0
    7.8336  -13.3156   26.1093 C   0  0  0  0  0  0  0  0  0  0  0  0
    7.3846  -13.8015   24.7707 C   0  0  0  0  0  0  0  0  0  0  0  0
    8.3851  -14.5798   23.9832 C   0  0  2  0  0  0  0  0  0  0  0  0
    7.7412  -15.0216   22.7208 N   0  0  0  0  0  0  0  0  0  0  0  0
    8.9427  -15.7603   24.6712 C   0  0  0  0  0  0  0  0  0  0  0  0
    8.2924  -16.8708   24.6725 O   0  0  0  0  0  0  0  0  0  0  0  0
   10.1669  -15.7672   25.3364 N   0  0  0  0  0  0  0  0  0  0  0  0
   10.7174  -17.0534   25.9269 C   0  0  1  0  0  0  0  0  0  0  0  0
   11.9977  -17.1768   25.1491 C   0  0  0  0  0  0  0  0  0  0  0  0
   12.9324  -18.2191   25.4940 C   0  0  0  0  0  0  0  0  0  0  0  0
   14.1630  -18.3657   24.6919 C   0  0  0  0  0  0  0  0  0  0  0  0
   14.9691  -19.5098   25.4076 C   0  0  0  0  0  0  0  0  0  0  0  0
   16.1155  -19.7416   24.5602 N   0  0  0  0  0  0  0  0  0  0  0  0
   10.8560  -16.7074   27.3422 C   0  0  0  0  0  0  0  0  0  0  0  0
   11.6304  -15.5975   27.7272 O   0  0  0  0  0  0  0  0  0  0  0  0
   10.3291  -17.3378   28.2669 O   0  0  0  0  0  0  0  0  0  0  0  0
  2  1  1  6
  2  4  1  0
  3  2  1  0
  4  5  1  6
  4  6  1  0
  6 14  1  0
  6  7  2  0
  8  9  1  0
  9 10  2  0
 11  9  1  0
 11 12  1  0
 13 12  1  1
 13 15  1  0
 14 13  1  0
 15 16  2  0
 17 18  1  0
 17 15  1  0
 18 24  1  0
 18 19  1  6
 20 19  1  0
 21 20  1  0
 22 21  1  0
 23 22  1  0
 24 25  1  0
 26 24  2  0
M  END
$$$$
