VQK.pdb
     RDKit          3D

 26 25  0  0  1  0  0  0  0  0999 V2000
    8.6165  -12.8502   17.8054 C   0  0  0  0  0  0  0  0  0  0  0  0
    8.6560  -13.5114   19.1459 C   0  0  1  0  0  0  0  0  0  0  0  0
    7.4498  -13.0821   19.9802 C   0  0  0  0  0  0  0  0  0  0  0  0
    8.6668  -15.0053   18.9805 C   0  0  2  0  0  0  0  0  0  0  0  0
    7.6111  -15.4101   18.1110 N   0  0  0  0  0  0  0  0  0  0  0  0
    8.5897  -15.7132   20.2826 C   0  0  0  0  0  0  0  0  0  0  0  0
    7.4870  -16.0799   20.7517 O   0  0  0  0  0  0  0  0  0  0  0  0
   12.5812  -19.7783   22.0911 N   0  0  0  0  0  0  0  0  0  0  0  0
   11.8492  -19.6972   23.3015 C   0  0  0  0  0  0  0  0  0  0  0  0
   12.0987  -20.5072   24.2167 O   0  0  0  0  0  0  0  0  0  0  0  0
   10.7773  -18.6519   23.5015 C   0  0  0  0  0  0  0  0  0  0  0  0
   10.7077  -17.7942   22.2812 C   0  0  0  0  0  0  0  0  0  0  0  0
    9.6709  -16.7210   22.2891 C   0  0  2  0  0  0  0  0  0  0  0  0
    9.7583  -15.9807   21.0055 N   0  0  0  0  0  0  0  0  0  0  0  0
    9.7752  -15.7574   23.4020 C   0  0  0  0  0  0  0  0  0  0  0  0
   10.7767  -14.9516   23.4634 O   0  0  0  0  0  0  0  0  0  0  0  0
    8.8346  -15.6436   24.4235 N   0  0  0  0  0  0  0  0  0  0  0  0
    8.9824  -14.5763   25.4936 C   0  0  1  0  0  0  0  0  0  0  0  0
    7.5756  -14.0488   25.5397 C   0  0  0  0  0  0  0  0  0  0  0  0
    7.2721  -12.9292   26.3960 C   0  0  0  0  0  0  0  0  0  0  0  0
    5.8921  -12.4052   26.4203 C   0  0  0  0  0  0  0  0  0  0  0  0
    5.9603  -11.1517   27.3663 C   0  0  0  0  0  0  0  0  0  0  0  0
    4.6257  -10.6001   27.3478 N   0  0  0  0  0  0  0  0  0  0  0  0
    9.4133  -15.3599   26.6521 C   0  0  0  0  0  0  0  0  0  0  0  0
    9.4718  -16.7637   26.5753 O   0  0  0  0  0  0  0  0  0  0  0  0
    9.7414  -14.8703   27.7397 O   0  0  0  0  0  0  0  0  0  0  0  0
  2  1  1  6
  2  4  1  0
  3  2  1  0
  4  5  1  6
  4  6  1  0
  6 14  1  0
  6  7  2  0
  8  9  1  0
  9 10  2  0
 11  9  1  0
 11 12  1  0
 13 12  1  1
 13 15  1  0
 14 13  1  0
 15 16  2  0
 17 18  1  0
 17 15  1  0
 18 24  1  0
 18 19  1  1
 20 19  1  0
 21 20  1  0
 22 21  1  0
 23 22  1  0
 24 25  1  0
 26 24  2  0
M  END
$$$$
