VQK.pdb
     RDKit          3D

 26 25  0  0  1  0  0  0  0  0999 V2000
    4.2767  -18.3735   23.0551 C   0  0  0  0  0  0  0  0  0  0  0  0
    4.0551  -19.1249   21.7816 C   0  0  1  0  0  0  0  0  0  0  0  0
    2.7128  -19.8540   21.8273 C   0  0  0  0  0  0  0  0  0  0  0  0
    4.0914  -18.1780   20.6148 C   0  0  2  0  0  0  0  0  0  0  0  0
    3.8024  -18.8778   19.4060 N   0  0  0  0  0  0  0  0  0  0  0  0
    5.3846  -17.4561   20.5198 C   0  0  0  0  0  0  0  0  0  0  0  0
    6.4414  -18.0640   20.2299 O   0  0  0  0  0  0  0  0  0  0  0  0
    7.9322  -13.8679   18.2250 N   0  0  0  0  0  0  0  0  0  0  0  0
    8.4780  -13.1919   19.3443 C   0  0  0  0  0  0  0  0  0  0  0  0
    9.6320  -12.7246   19.2671 O   0  0  0  0  0  0  0  0  0  0  0  0
    7.6904  -13.0285   20.6226 C   0  0  0  0  0  0  0  0  0  0  0  0
    6.4908  -13.9159   20.5659 C   0  0  0  0  0  0  0  0  0  0  0  0
    6.7457  -15.3781   20.7199 C   0  0  2  0  0  0  0  0  0  0  0  0
    5.4366  -16.0771   20.7549 N   0  0  0  0  0  0  0  0  0  0  0  0
    7.5189  -15.7563   21.9186 C   0  0  0  0  0  0  0  0  0  0  0  0
    7.0158  -15.5817   23.0902 O   0  0  0  0  0  0  0  0  0  0  0  0
    8.7944  -16.3155   21.8775 N   0  0  0  0  0  0  0  0  0  0  0  0
    9.5534  -16.6023   23.1612 C   0  0  1  0  0  0  0  0  0  0  0  0
    9.8554  -18.0625   22.9712 C   0  0  0  0  0  0  0  0  0  0  0  0
   10.7427  -18.7231   23.8960 C   0  0  0  0  0  0  0  0  0  0  0  0
   10.9751  -20.1734   23.7468 C   0  0  0  0  0  0  0  0  0  0  0  0
   12.0515  -20.5171   24.8395 C   0  0  0  0  0  0  0  0  0  0  0  0
   12.3272  -21.9233   24.6591 N   0  0  0  0  0  0  0  0  0  0  0  0
   10.6935  -15.6910   23.0545 C   0  0  0  0  0  0  0  0  0  0  0  0
   11.2351  -15.3790   21.7939 O   0  0  0  0  0  0  0  0  0  0  0  0
   11.2455  -15.1518   24.0213 O   0  0  0  0  0  0  0  0  0  0  0  0
  2  1  1  1
  2  4  1  0
  3  2  1  0
  4  5  1  6
  4  6  1  0
  6 14  1  0
  6  7  2  0
  8  9  1  0
  9 10  2  0
 11  9  1  0
 11 12  1  0
 13 12  1  1
 13 15  1  0
 14 13  1  0
 15 16  2  0
 17 18  1  0
 17 15  1  0
 18 24  1  0
 18 19  1  6
 20 19  1  0
 21 20  1  0
 22 21  1  0
 23 22  1  0
 24 25  1  0
 26 24  2  0
M  END
$$$$
