VQK.pdb
     RDKit          3D

 26 25  0  0  1  0  0  0  0  0999 V2000
    8.6534  -12.9002   20.5026 C   0  0  0  0  0  0  0  0  0  0  0  0
    7.8960  -13.6302   19.4401 C   0  0  1  0  0  0  0  0  0  0  0  0
    7.8392  -12.7917   18.1638 C   0  0  0  0  0  0  0  0  0  0  0  0
    8.5508  -14.9543   19.1618 C   0  0  2  0  0  0  0  0  0  0  0  0
    7.8516  -15.6388   18.1241 N   0  0  0  0  0  0  0  0  0  0  0  0
    8.6560  -15.7940   20.3811 C   0  0  0  0  0  0  0  0  0  0  0  0
    7.6387  -16.3191   20.8908 O   0  0  0  0  0  0  0  0  0  0  0  0
   13.2782  -19.4441   21.7059 N   0  0  0  0  0  0  0  0  0  0  0  0
   12.6694  -19.4414   22.9853 C   0  0  0  0  0  0  0  0  0  0  0  0
   13.1791  -20.1180   23.9009 O   0  0  0  0  0  0  0  0  0  0  0  0
   11.4201  -18.6374   23.2579 C   0  0  0  0  0  0  0  0  0  0  0  0
   11.1866  -17.7077   22.1131 C   0  0  0  0  0  0  0  0  0  0  0  0
    9.9904  -16.8217   22.2178 C   0  0  2  0  0  0  0  0  0  0  0  0
    9.9035  -16.0093   20.9786 N   0  0  0  0  0  0  0  0  0  0  0  0
    9.9824  -15.9152   23.3823 C   0  0  0  0  0  0  0  0  0  0  0  0
   10.8664  -14.9849   23.4794 O   0  0  0  0  0  0  0  0  0  0  0  0
    9.0530  -15.9866   24.4178 N   0  0  0  0  0  0  0  0  0  0  0  0
    9.1247  -15.0209   25.5876 C   0  0  1  0  0  0  0  0  0  0  0  0
    7.8092  -14.3114   25.4280 C   0  0  0  0  0  0  0  0  0  0  0  0
    7.5138  -13.1797   26.2712 C   0  0  0  0  0  0  0  0  0  0  0  0
    6.2416  -12.4573   26.0732 C   0  0  0  0  0  0  0  0  0  0  0  0
    6.3198  -11.2379   27.0620 C   0  0  0  0  0  0  0  0  0  0  0  0
    5.1375  -10.4570   26.7820 N   0  0  0  0  0  0  0  0  0  0  0  0
    9.2306  -15.9292   26.7302 C   0  0  0  0  0  0  0  0  0  0  0  0
    8.7712  -17.2550   26.6258 O   0  0  0  0  0  0  0  0  0  0  0  0
    9.7080  -15.6141   27.8270 O   0  0  0  0  0  0  0  0  0  0  0  0
  2  1  1  1
  2  4  1  0
  3  2  1  0
  4  5  1  6
  4  6  1  0
  6 14  1  0
  6  7  2  0
  8  9  1  0
  9 10  2  0
 11  9  1  0
 11 12  1  0
 13 12  1  6
 13 15  1  0
 14 13  1  0
 15 16  2  0
 17 18  1  0
 17 15  1  0
 18 24  1  0
 18 19  1  1
 20 19  1  0
 21 20  1  0
 22 21  1  0
 23 22  1  0
 24 25  1  0
 26 24  2  0
M  END
$$$$
