VQK.pdb
     RDKit          3D

 26 25  0  0  1  0  0  0  0  0999 V2000
    8.5694  -12.8511   20.3993 C   0  0  0  0  0  0  0  0  0  0  0  0
    7.8687  -13.4866   19.2413 C   0  0  1  0  0  0  0  0  0  0  0  0
    7.9577  -12.5832   18.0120 C   0  0  0  0  0  0  0  0  0  0  0  0
    8.4806  -14.8272   18.9450 C   0  0  2  0  0  0  0  0  0  0  0  0
    7.7874  -15.4556   17.8684 N   0  0  0  0  0  0  0  0  0  0  0  0
    8.5168  -15.7030   20.1426 C   0  0  0  0  0  0  0  0  0  0  0  0
    7.4758  -16.2565   20.5671 O   0  0  0  0  0  0  0  0  0  0  0  0
   12.8315  -19.5678   21.6238 N   0  0  0  0  0  0  0  0  0  0  0  0
   12.2225  -19.5064   22.9017 C   0  0  0  0  0  0  0  0  0  0  0  0
   12.6371  -20.2567   23.8078 O   0  0  0  0  0  0  0  0  0  0  0  0
   11.0857  -18.5527   23.1839 C   0  0  0  0  0  0  0  0  0  0  0  0
   10.8353  -17.7279   21.9646 C   0  0  0  0  0  0  0  0  0  0  0  0
    9.7328  -16.7270   22.0619 C   0  0  2  0  0  0  0  0  0  0  0  0
    9.7250  -15.9213   20.8153 N   0  0  0  0  0  0  0  0  0  0  0  0
    9.8161  -15.8136   23.2180 C   0  0  0  0  0  0  0  0  0  0  0  0
   10.7287  -14.9072   23.2572 O   0  0  0  0  0  0  0  0  0  0  0  0
    8.9463  -15.8536   24.3057 N   0  0  0  0  0  0  0  0  0  0  0  0
    9.0787  -14.8498   25.4374 C   0  0  1  0  0  0  0  0  0  0  0  0
    7.7481  -14.1579   25.3365 C   0  0  0  0  0  0  0  0  0  0  0  0
    7.4645  -13.0479   26.2122 C   0  0  0  0  0  0  0  0  0  0  0  0
    6.1641  -12.3597   26.0907 C   0  0  0  0  0  0  0  0  0  0  0  0
    6.2527  -11.1623   27.1053 C   0  0  0  0  0  0  0  0  0  0  0  0
    5.0058  -10.4506   26.9487 N   0  0  0  0  0  0  0  0  0  0  0  0
    9.2644  -15.7195   26.5998 C   0  0  0  0  0  0  0  0  0  0  0  0
    9.6746  -17.0543   26.4270 O   0  0  0  0  0  0  0  0  0  0  0  0
    9.0803  -15.3644   27.7703 O   0  0  0  0  0  0  0  0  0  0  0  0
  2  1  1  1
  2  4  1  0
  3  2  1  0
  4  5  1  6
  4  6  1  0
  6 14  1  0
  6  7  2  0
  8  9  1  0
  9 10  2  0
 11  9  1  0
 11 12  1  0
 13 12  1  6
 13 15  1  0
 14 13  1  0
 15 16  2  0
 17 18  1  0
 17 15  1  0
 18 24  1  0
 18 19  1  1
 20 19  1  0
 21 20  1  0
 22 21  1  0
 23 22  1  0
 24 25  1  0
 26 24  2  0
M  END
$$$$
