VQK.pdb
     RDKit          3D

 26 25  0  0  1  0  0  0  0  0999 V2000
    8.1006  -12.1164   18.4513 C   0  0  0  0  0  0  0  0  0  0  0  0
    7.8255  -13.2588   19.3759 C   0  0  1  0  0  0  0  0  0  0  0  0
    7.1889  -14.4163   18.6076 C   0  0  0  0  0  0  0  0  0  0  0  0
    9.1027  -13.7096   20.0279 C   0  0  2  0  0  0  0  0  0  0  0  0
   10.0327  -14.1431   19.0371 N   0  0  0  0  0  0  0  0  0  0  0  0
    8.8700  -14.7667   21.0434 C   0  0  0  0  0  0  0  0  0  0  0  0
    7.9385  -14.6661   21.8755 O   0  0  0  0  0  0  0  0  0  0  0  0
   10.8555  -20.4999   20.6617 N   0  0  0  0  0  0  0  0  0  0  0  0
   10.5506  -20.5099   22.0453 C   0  0  0  0  0  0  0  0  0  0  0  0
   10.5009  -21.6011   22.6476 O   0  0  0  0  0  0  0  0  0  0  0  0
   10.2860  -19.2282   22.7995 C   0  0  0  0  0  0  0  0  0  0  0  0
   10.3701  -18.0823   21.8459 C   0  0  0  0  0  0  0  0  0  0  0  0
    9.5074  -16.9045   22.1543 C   0  0  2  0  0  0  0  0  0  0  0  0
    9.6961  -15.8962   21.0815 N   0  0  0  0  0  0  0  0  0  0  0  0
    9.7641  -16.2644   23.4590 C   0  0  0  0  0  0  0  0  0  0  0  0
   10.8978  -15.6994   23.6863 O   0  0  0  0  0  0  0  0  0  0  0  0
    8.8371  -16.2161   24.4980 N   0  0  0  0  0  0  0  0  0  0  0  0
    9.2018  -15.5831   25.8293 C   0  0  1  0  0  0  0  0  0  0  0  0
    7.8862  -14.9545   26.1945 C   0  0  0  0  0  0  0  0  0  0  0  0
    7.8308  -13.5361   26.4478 C   0  0  0  0  0  0  0  0  0  0  0  0
    6.5367  -12.9288   26.8164 C   0  0  0  0  0  0  0  0  0  0  0  0
    6.8346  -11.3886   26.9139 C   0  0  0  0  0  0  0  0  0  0  0  0
    5.5803  -10.7926   27.3107 N   0  0  0  0  0  0  0  0  0  0  0  0
    9.6011  -16.7457   26.6235 C   0  0  0  0  0  0  0  0  0  0  0  0
   10.3234  -16.5725   27.8186 O   0  0  0  0  0  0  0  0  0  0  0  0
    9.3482  -17.9171   26.3172 O   0  0  0  0  0  0  0  0  0  0  0  0
  2  1  1  6
  2  4  1  0
  3  2  1  0
  4  5  1  6
  4  6  1  0
  6 14  1  0
  6  7  2  0
  8  9  1  0
  9 10  2  0
 11  9  1  0
 11 12  1  0
 13 12  1  6
 13 15  1  0
 14 13  1  0
 15 16  2  0
 17 18  1  0
 17 15  1  0
 18 24  1  0
 18 19  1  1
 20 19  1  0
 21 20  1  0
 22 21  1  0
 23 22  1  0
 24 25  1  0
 26 24  2  0
M  END
$$$$
