QSC.pdb
     RDKit          3D

 22 21  0  0  1  0  0  0  0  0999 V2000
   11.1614  -16.5668   15.4471 N   0  0  0  0  0  0  0  0  0  0  0  0
   10.1905  -16.1461   14.5161 C   0  0  0  0  0  0  0  0  0  0  0  0
   10.3160  -16.3977   13.2973 O   0  0  0  0  0  0  0  0  0  0  0  0
    9.0121  -15.4028   14.9654 C   0  0  0  0  0  0  0  0  0  0  0  0
    9.0285  -15.1330   16.4584 C   0  0  0  0  0  0  0  0  0  0  0  0
    7.6931  -14.5097   16.8511 C   0  0  2  0  0  0  0  0  0  0  0  0
    7.6182  -13.1884   16.2970 N   0  0  0  0  0  0  0  0  0  0  0  0
    7.6370  -14.4439   18.3445 C   0  0  0  0  0  0  0  0  0  0  0  0
    8.1738  -13.4904   18.9628 O   0  0  0  0  0  0  0  0  0  0  0  0
    5.8067  -17.6019   20.4787 O   0  0  0  0  0  0  0  0  0  0  0  0
    5.7712  -16.3309   21.0051 C   0  0  0  0  0  0  0  0  0  0  0  0
    6.9245  -15.4741   20.4983 C   0  0  2  0  0  0  0  0  0  0  0  0
    6.9736  -15.4654   19.0597 N   0  0  0  0  0  0  0  0  0  0  0  0
    8.1983  -16.0158   21.0321 C   0  0  0  0  0  0  0  0  0  0  0  0
    9.0211  -16.5807   20.2471 O   0  0  0  0  0  0  0  0  0  0  0  0
    8.4806  -15.8970   22.4064 N   0  0  0  0  0  0  0  0  0  0  0  0
    9.6840  -16.4833   22.9572 C   0  0  1  0  0  0  0  0  0  0  0  0
   10.1887  -15.5164   24.0176 C   0  0  0  0  0  0  0  0  0  0  0  0
   11.6397  -16.1789   24.8569 S   0  0  0  0  0  0  0  0  0  0  0  0
    9.3621  -17.8026   23.5298 C   0  0  0  0  0  0  0  0  0  0  0  0
    8.2161  -18.0305   23.9976 O   0  0  0  0  0  0  0  0  0  0  0  0
   10.2751  -18.8466   23.5881 O   0  0  0  0  0  0  0  0  0  0  0  0
  2  1  1  0
  2  3  2  0
  4  5  1  0
  4  2  1  0
  6  8  1  0
  6  5  1  0
  6  7  1  6
  8 13  1  0
  9  8  2  0
 10 11  1  0
 12 11  1  6
 12 14  1  0
 13 12  1  0
 14 15  2  0
 14 16  1  0
 16 17  1  0
 17 18  1  1
 17 20  1  0
 19 18  1  0
 20 22  1  0
 21 20  2  0
M  END
$$$$
