QSC.pdb
     RDKit          3D

 22 21  0  0  1  0  0  0  0  0999 V2000
    8.1769  -12.6649   18.0033 N   0  0  0  0  0  0  0  0  0  0  0  0
    8.1235  -13.9523   17.4323 C   0  0  0  0  0  0  0  0  0  0  0  0
    7.9347  -14.1047   16.2052 O   0  0  0  0  0  0  0  0  0  0  0  0
    8.2895  -15.1389   18.2733 C   0  0  0  0  0  0  0  0  0  0  0  0
    8.4460  -14.7938   19.7425 C   0  0  0  0  0  0  0  0  0  0  0  0
    8.5880  -16.0916   20.5309 C   0  0  2  0  0  0  0  0  0  0  0  0
    8.1030  -17.1767   19.7273 N   0  0  0  0  0  0  0  0  0  0  0  0
    7.7664  -15.9669   21.7748 C   0  0  0  0  0  0  0  0  0  0  0  0
    6.5868  -15.5366   21.7211 O   0  0  0  0  0  0  0  0  0  0  0  0
    8.7491  -18.1236   25.1557 O   0  0  0  0  0  0  0  0  0  0  0  0
    7.5049  -17.5678   24.9638 C   0  0  0  0  0  0  0  0  0  0  0  0
    7.5869  -16.2263   24.2463 C   0  0  2  0  0  0  0  0  0  0  0  0
    8.3274  -16.3378   23.0169 N   0  0  0  0  0  0  0  0  0  0  0  0
    8.2530  -15.2437   25.1360 C   0  0  0  0  0  0  0  0  0  0  0  0
    9.5158  -15.1154   25.1000 O   0  0  0  0  0  0  0  0  0  0  0  0
    7.4752  -14.4629   26.0123 N   0  0  0  0  0  0  0  0  0  0  0  0
    8.1136  -13.6374   27.0155 C   0  0  1  0  0  0  0  0  0  0  0  0
    7.0409  -12.7006   27.5499 C   0  0  0  0  0  0  0  0  0  0  0  0
    6.2657  -11.7763   26.2106 S   0  0  0  0  0  0  0  0  0  0  0  0
    8.6624  -14.5010   28.0762 C   0  0  0  0  0  0  0  0  0  0  0  0
    8.4396  -15.7397   28.0666 O   0  0  0  0  0  0  0  0  0  0  0  0
    9.4366  -14.0178   29.1220 O   0  0  0  0  0  0  0  0  0  0  0  0
  2  1  1  0
  2  3  2  0
  4  5  1  0
  4  2  1  0
  6  8  1  0
  6  5  1  0
  6  7  1  6
  8 13  1  0
  9  8  2  0
 10 11  1  0
 12 11  1  1
 12 14  1  0
 13 12  1  0
 14 15  2  0
 14 16  1  0
 16 17  1  0
 17 18  1  1
 17 20  1  0
 19 18  1  0
 20 22  1  0
 21 20  2  0
M  END
$$$$
