QSC.pdb
     RDKit          3D

 22 21  0  0  1  0  0  0  0  0999 V2000
   13.3807  -20.8358   23.5579 N   0  0  0  0  0  0  0  0  0  0  0  0
   14.1666  -20.2665   22.5359 C   0  0  0  0  0  0  0  0  0  0  0  0
   15.3631  -20.5978   22.3841 O   0  0  0  0  0  0  0  0  0  0  0  0
   13.5896  -19.2716   21.6303 C   0  0  0  0  0  0  0  0  0  0  0  0
   12.1181  -19.0210   21.9023 C   0  0  0  0  0  0  0  0  0  0  0  0
   11.6788  -17.8029   21.0967 C   0  0  2  0  0  0  0  0  0  0  0  0
   12.7710  -17.3763   20.2698 N   0  0  0  0  0  0  0  0  0  0  0  0
   11.3122  -16.7202   22.0617 C   0  0  0  0  0  0  0  0  0  0  0  0
   12.1366  -15.8171   22.3521 O   0  0  0  0  0  0  0  0  0  0  0  0
    7.5211  -16.8282   23.8985 O   0  0  0  0  0  0  0  0  0  0  0  0
    8.1062  -15.6036   23.6705 C   0  0  0  0  0  0  0  0  0  0  0  0
    9.6241  -15.7063   23.5881 C   0  0  2  0  0  0  0  0  0  0  0  0
   10.0271  -16.7190   22.6478 N   0  0  0  0  0  0  0  0  0  0  0  0
   10.1583  -16.0396   24.9312 C   0  0  0  0  0  0  0  0  0  0  0  0
   10.6216  -17.2005   25.1552 O   0  0  0  0  0  0  0  0  0  0  0  0
   10.1454  -15.0623   25.9448 N   0  0  0  0  0  0  0  0  0  0  0  0
   10.6048  -15.3882   27.2783 C   0  0  1  0  0  0  0  0  0  0  0  0
   10.4600  -14.1204   28.1064 C   0  0  0  0  0  0  0  0  0  0  0  0
   11.1653  -14.3396   29.7506 S   0  0  0  0  0  0  0  0  0  0  0  0
    9.7865  -16.4891   27.8172 C   0  0  0  0  0  0  0  0  0  0  0  0
    8.5711  -16.5894   27.5061 O   0  0  0  0  0  0  0  0  0  0  0  0
   10.2891  -17.4565   28.6765 O   0  0  0  0  0  0  0  0  0  0  0  0
  2  1  1  0
  2  3  2  0
  4  5  1  0
  4  2  1  0
  6  8  1  0
  6  5  1  0
  6  7  1  6
  8 13  1  0
  9  8  2  0
 10 11  1  0
 12 11  1  1
 12 14  1  0
 13 12  1  0
 14 15  2  0
 14 16  1  0
 16 17  1  0
 17 18  1  1
 17 20  1  0
 19 18  1  0
 20 22  1  0
 21 20  2  0
M  END
$$$$
