QSC.pdb
     RDKit          3D

 22 21  0  0  1  0  0  0  0  0999 V2000
   12.8065  -23.0174   15.5082 N   0  0  0  0  0  0  0  0  0  0  0  0
   13.2900  -21.7046   15.3381 C   0  0  0  0  0  0  0  0  0  0  0  0
   14.4593  -21.4952   14.9464 O   0  0  0  0  0  0  0  0  0  0  0  0
   12.4242  -20.5582   15.6194 C   0  0  0  0  0  0  0  0  0  0  0  0
   11.0344  -20.9738   16.0643 C   0  0  0  0  0  0  0  0  0  0  0  0
   10.2134  -19.7147   16.3225 C   0  0  2  0  0  0  0  0  0  0  0  0
   10.6818  -18.6711   15.4565 N   0  0  0  0  0  0  0  0  0  0  0  0
   10.4099  -19.3220   17.7525 C   0  0  0  0  0  0  0  0  0  0  0  0
   11.4091  -18.6420   18.0969 O   0  0  0  0  0  0  0  0  0  0  0  0
    7.5863  -20.5943   20.5709 O   0  0  0  0  0  0  0  0  0  0  0  0
    8.1597  -19.3572   20.7569 C   0  0  0  0  0  0  0  0  0  0  0  0
    9.5201  -19.2543   20.0787 C   0  0  2  0  0  0  0  0  0  0  0  0
    9.4605  -19.7221   18.7187 N   0  0  0  0  0  0  0  0  0  0  0  0
   10.5002  -20.0687   20.8381 C   0  0  0  0  0  0  0  0  0  0  0  0
   10.7630  -21.2524   20.4610 O   0  0  0  0  0  0  0  0  0  0  0  0
   11.1292  -19.5183   21.9713 N   0  0  0  0  0  0  0  0  0  0  0  0
   12.1133  -20.2861   22.7044 C   0  0  1  0  0  0  0  0  0  0  0  0
   13.1674  -19.2967   23.1776 C   0  0  0  0  0  0  0  0  0  0  0  0
   14.3927  -20.1088   24.2206 S   0  0  0  0  0  0  0  0  0  0  0  0
   11.4546  -20.9648   23.8347 C   0  0  0  0  0  0  0  0  0  0  0  0
   10.4121  -20.4805   24.3472 O   0  0  0  0  0  0  0  0  0  0  0  0
   11.9280  -22.1458   24.3895 O   0  0  0  0  0  0  0  0  0  0  0  0
  2  1  1  0
  2  3  2  0
  4  5  1  0
  4  2  1  0
  6  8  1  0
  6  5  1  0
  6  7  1  6
  8 13  1  0
  9  8  2  0
 10 11  1  0
 12 11  1  1
 12 14  1  0
 13 12  1  0
 14 15  2  0
 14 16  1  0
 16 17  1  0
 17 18  1  1
 17 20  1  0
 19 18  1  0
 20 22  1  0
 21 20  2  0
M  END
$$$$
