QSC.pdb
     RDKit          3D

 22 21  0  0  1  0  0  0  0  0999 V2000
   11.4188  -21.5049   18.6698 N   0  0  0  0  0  0  0  0  0  0  0  0
   10.9659  -20.2396   18.2453 C   0  0  0  0  0  0  0  0  0  0  0  0
   11.7447  -19.4272   17.6995 O   0  0  0  0  0  0  0  0  0  0  0  0
    9.5668  -19.8548   18.4385 C   0  0  0  0  0  0  0  0  0  0  0  0
    8.7297  -20.9775   19.0226 C   0  0  0  0  0  0  0  0  0  0  0  0
    7.3107  -20.4610   19.2360 C   0  0  2  0  0  0  0  0  0  0  0  0
    7.1525  -19.2308   18.5147 N   0  0  0  0  0  0  0  0  0  0  0  0
    7.1220  -20.2248   20.7011 C   0  0  0  0  0  0  0  0  0  0  0  0
    7.2985  -19.0814   21.1920 O   0  0  0  0  0  0  0  0  0  0  0  0
    6.1454  -23.4491   23.3750 O   0  0  0  0  0  0  0  0  0  0  0  0
    5.5133  -22.2281   23.4337 C   0  0  0  0  0  0  0  0  0  0  0  0
    6.4025  -21.1032   22.9188 C   0  0  2  0  0  0  0  0  0  0  0  0
    6.7423  -21.3004   21.5340 N   0  0  0  0  0  0  0  0  0  0  0  0
    7.6437  -21.0601   23.7301 C   0  0  0  0  0  0  0  0  0  0  0  0
    8.7278  -21.5126   23.2481 O   0  0  0  0  0  0  0  0  0  0  0  0
    7.6050  -20.5168   25.0286 N   0  0  0  0  0  0  0  0  0  0  0  0
    8.8170  -20.4162   25.8136 C   0  0  1  0  0  0  0  0  0  0  0  0
    9.0463  -18.9336   26.0651 C   0  0  0  0  0  0  0  0  0  0  0  0
    7.7733  -18.2583   27.1479 S   0  0  0  0  0  0  0  0  0  0  0  0
    8.6428  -21.1632   27.0720 C   0  0  0  0  0  0  0  0  0  0  0  0
    7.5094  -21.6015   27.3998 O   0  0  0  0  0  0  0  0  0  0  0  0
    9.6863  -21.4232   27.9496 O   0  0  0  0  0  0  0  0  0  0  0  0
  2  1  1  0
  2  3  2  0
  4  5  1  0
  4  2  1  0
  6  8  1  0
  6  5  1  0
  6  7  1  6
  8 13  1  0
  9  8  2  0
 10 11  1  0
 12 11  1  1
 12 14  1  0
 13 12  1  0
 14 15  2  0
 14 16  1  0
 16 17  1  0
 17 18  1  1
 17 20  1  0
 19 18  1  0
 20 22  1  0
 21 20  2  0
M  END
$$$$
