QSC.pdb
     RDKit          3D

 22 21  0  0  1  0  0  0  0  0999 V2000
   13.0742  -22.8401   16.1858 N   0  0  0  0  0  0  0  0  0  0  0  0
   13.3218  -21.6361   16.8752 C   0  0  0  0  0  0  0  0  0  0  0  0
   14.4774  -21.1635   16.9503 O   0  0  0  0  0  0  0  0  0  0  0  0
   12.2218  -20.9155   17.5183 C   0  0  0  0  0  0  0  0  0  0  0  0
   12.7043  -19.7542   18.3673 C   0  0  0  0  0  0  0  0  0  0  0  0
   11.4985  -19.1298   19.0616 C   0  0  2  0  0  0  0  0  0  0  0  0
   10.5918  -18.6402   18.0632 N   0  0  0  0  0  0  0  0  0  0  0  0
   11.9893  -17.9984   19.9082 C   0  0  0  0  0  0  0  0  0  0  0  0
   12.5120  -16.9849   19.3798 O   0  0  0  0  0  0  0  0  0  0  0  0
   11.0367  -17.9403   23.9702 O   0  0  0  0  0  0  0  0  0  0  0  0
   11.4039  -16.7770   23.3332 C   0  0  0  0  0  0  0  0  0  0  0  0
   12.3616  -17.0404   22.1779 C   0  0  2  0  0  0  0  0  0  0  0  0
   11.8612  -18.0763   21.3126 N   0  0  0  0  0  0  0  0  0  0  0  0
   13.6779  -17.4488   22.7265 C   0  0  0  0  0  0  0  0  0  0  0  0
   13.9860  -18.6797   22.7755 O   0  0  0  0  0  0  0  0  0  0  0  0
   14.5727  -16.4643   23.1878 N   0  0  0  0  0  0  0  0  0  0  0  0
   15.8464  -16.8466   23.7594 C   0  0  1  0  0  0  0  0  0  0  0  0
   16.7726  -15.6522   23.5869 C   0  0  0  0  0  0  0  0  0  0  0  0
   16.9344  -15.2069   21.8479 S   0  0  0  0  0  0  0  0  0  0  0  0
   15.6566  -17.1898   25.1801 C   0  0  0  0  0  0  0  0  0  0  0  0
   14.5215  -17.0850   25.7135 O   0  0  0  0  0  0  0  0  0  0  0  0
   16.6868  -17.6372   25.9957 O   0  0  0  0  0  0  0  0  0  0  0  0
  2  1  1  0
  2  3  2  0
  4  5  1  0
  4  2  1  0
  6  8  1  0
  6  5  1  0
  6  7  1  6
  8 13  1  0
  9  8  2  0
 10 11  1  0
 12 11  1  1
 12 14  1  0
 13 12  1  0
 14 15  2  0
 14 16  1  0
 16 17  1  0
 17 18  1  1
 17 20  1  0
 19 18  1  0
 20 22  1  0
 21 20  2  0
M  END
$$$$
