QSC.pdb
     RDKit          3D

 22 21  0  0  1  0  0  0  0  0999 V2000
   18.1677  -11.9116   15.2210 N   0  0  0  0  0  0  0  0  0  0  0  0
   18.4022  -13.3012   15.2080 C   0  0  0  0  0  0  0  0  0  0  0  0
   19.3742  -13.7840   14.5861 O   0  0  0  0  0  0  0  0  0  0  0  0
   17.5049  -14.2068   15.9275 C   0  0  0  0  0  0  0  0  0  0  0  0
   16.2614  -13.5063   16.4423 C   0  0  0  0  0  0  0  0  0  0  0  0
   15.1408  -14.5345   16.5576 C   0  0  2  0  0  0  0  0  0  0  0  0
   14.2038  -14.3193   15.4926 N   0  0  0  0  0  0  0  0  0  0  0  0
   14.4693  -14.3375   17.8797 C   0  0  0  0  0  0  0  0  0  0  0  0
   14.8818  -13.4622   18.6818 O   0  0  0  0  0  0  0  0  0  0  0  0
   10.5326  -14.6514   18.4616 O   0  0  0  0  0  0  0  0  0  0  0  0
   11.2210  -15.4226   19.3701 C   0  0  0  0  0  0  0  0  0  0  0  0
   12.6806  -15.0004   19.4824 C   0  0  2  0  0  0  0  0  0  0  0  0
   13.3628  -15.1453   18.2232 N   0  0  0  0  0  0  0  0  0  0  0  0
   13.3485  -15.8422   20.5051 C   0  0  0  0  0  0  0  0  0  0  0  0
   13.7427  -17.0103   20.2007 O   0  0  0  0  0  0  0  0  0  0  0  0
   13.5379  -15.3349   21.8049 N   0  0  0  0  0  0  0  0  0  0  0  0
   14.1991  -16.1375   22.8119 C   0  0  1  0  0  0  0  0  0  0  0  0
   14.9181  -15.1652   23.7349 C   0  0  0  0  0  0  0  0  0  0  0  0
   16.1922  -14.2526   22.8446 S   0  0  0  0  0  0  0  0  0  0  0  0
   13.1918  -16.9338   23.5353 C   0  0  0  0  0  0  0  0  0  0  0  0
   11.9648  -16.7546   23.3197 O   0  0  0  0  0  0  0  0  0  0  0  0
   13.5222  -17.9030   24.4724 O   0  0  0  0  0  0  0  0  0  0  0  0
  2  1  1  0
  2  3  2  0
  4  5  1  0
  4  2  1  0
  6  8  1  0
  6  5  1  0
  6  7  1  6
  8 13  1  0
  9  8  2  0
 10 11  1  0
 12 11  1  6
 12 14  1  0
 13 12  1  0
 14 15  2  0
 14 16  1  0
 16 17  1  0
 17 18  1  1
 17 20  1  0
 19 18  1  0
 20 22  1  0
 21 20  2  0
M  END
$$$$
