EFT.pdb
     RDKit          3D

 28 28  0  0  1  0  0  0  0  0999 V2000
    8.4414  -16.6482   19.6069 N   0  0  0  0  0  0  0  0  0  0  0  0
    9.5411  -17.1396   20.3685 C   0  0  1  0  0  0  0  0  0  0  0  0
   10.7957  -17.1232   19.5373 C   0  0  0  0  0  0  0  0  0  0  0  0
   11.3711  -18.5459   19.6163 C   0  0  0  0  0  0  0  0  0  0  0  0
   12.6313  -18.6555   18.8862 C   0  0  0  0  0  0  0  0  0  0  0  0
   13.7016  -18.7811   19.5690 O   0  0  0  0  0  0  0  0  0  0  0  0
    9.6786  -16.2999   21.5959 C   0  0  0  0  0  0  0  0  0  0  0  0
   10.8162  -15.8804   21.9545 O   0  0  0  0  0  0  0  0  0  0  0  0
   12.6301  -18.6191   17.4969 O   0  0  0  0  0  0  0  0  0  0  0  0
    8.5897  -15.9322   22.4074 N   0  0  0  0  0  0  0  0  0  0  0  0
    8.7336  -15.1193   23.6422 C   0  0  1  0  0  0  0  0  0  0  0  0
    7.5032  -14.2979   23.7461 C   0  0  0  0  0  0  0  0  0  0  0  0
    7.2988  -13.4752   24.9177 C   0  0  0  0  0  0  0  0  0  0  0  0
    6.1779  -13.7587   25.7137 C   0  0  0  0  0  0  0  0  0  0  0  0
    5.8805  -13.0852   26.8574 C   0  0  0  0  0  0  0  0  0  0  0  0
    6.7052  -12.0712   27.2751 C   0  0  0  0  0  0  0  0  0  0  0  0
    7.8055  -11.7648   26.5281 C   0  0  0  0  0  0  0  0  0  0  0  0
    8.0942  -12.4625   25.3637 C   0  0  0  0  0  0  0  0  0  0  0  0
    8.8660  -16.0869   24.7440 C   0  0  0  0  0  0  0  0  0  0  0  0
    7.9386  -16.9610   24.8993 O   0  0  0  0  0  0  0  0  0  0  0  0
   10.8742  -18.8680   24.9970 C   0  0  0  0  0  0  0  0  0  0  0  0
   11.0673  -18.2263   26.3425 C   0  0  1  0  0  0  0  0  0  0  0  0
   12.2638  -17.5076   26.3190 O   0  0  0  0  0  0  0  0  0  0  0  0
    9.9610  -17.2168   26.6467 C   0  0  2  0  0  0  0  0  0  0  0  0
    9.9387  -16.1640   25.6714 N   0  0  0  0  0  0  0  0  0  0  0  0
   10.0337  -16.7373   28.0200 C   0  0  0  0  0  0  0  0  0  0  0  0
   10.1005  -15.4873   28.2774 O   0  0  0  0  0  0  0  0  0  0  0  0
   10.0331  -17.6199   29.0806 O   0  0  0  0  0  0  0  0  0  0  0  0
  2  1  1  6
  2  3  1  0
  2  7  1  0
  4  5  1  0
  4  3  1  0
  5  6  2  0
  7  8  2  0
  9  5  1  0
 10  7  1  0
 10 11  1  0
 11 12  1  1
 12 13  1  0
 13 14  2  0
 14 15  1  0
 16 15  2  0
 17 16  1  0
 18 13  1  0
 18 17  2  0
 19 11  1  0
 19 20  2  0
 22 21  1  6
 22 24  1  0
 23 22  1  0
 24 25  1  6
 24 26  1  0
 25 19  1  0
 26 28  1  0
 27 26  2  0
M  END
$$$$
