EFT.pdb
     RDKit          3D

 28 28  0  0  1  0  0  0  0  0999 V2000
    9.9690  -16.2240   19.1379 N   0  0  0  0  0  0  0  0  0  0  0  0
    8.9387  -16.5940   20.0502 C   0  0  1  0  0  0  0  0  0  0  0  0
    8.8518  -18.0930   20.1536 C   0  0  0  0  0  0  0  0  0  0  0  0
   10.2617  -18.5708   20.5346 C   0  0  0  0  0  0  0  0  0  0  0  0
   10.3530  -20.0285   20.5302 C   0  0  0  0  0  0  0  0  0  0  0  0
    9.3813  -20.6805   20.0220 O   0  0  0  0  0  0  0  0  0  0  0  0
    9.2294  -15.9633   21.3725 C   0  0  0  0  0  0  0  0  0  0  0  0
   10.4235  -15.7259   21.7143 O   0  0  0  0  0  0  0  0  0  0  0  0
   11.4715  -20.6522   21.0698 O   0  0  0  0  0  0  0  0  0  0  0  0
    8.2294  -15.6036   22.2943 N   0  0  0  0  0  0  0  0  0  0  0  0
    8.5130  -14.8839   23.5623 C   0  0  1  0  0  0  0  0  0  0  0  0
    7.2998  -14.0886   23.8704 C   0  0  0  0  0  0  0  0  0  0  0  0
    7.2650  -13.2892   25.0751 C   0  0  0  0  0  0  0  0  0  0  0  0
    6.1260  -13.4020   25.8876 C   0  0  0  0  0  0  0  0  0  0  0  0
    5.9728  -12.7320   27.0615 C   0  0  0  0  0  0  0  0  0  0  0  0
    6.9712  -11.8962   27.4946 C   0  0  0  0  0  0  0  0  0  0  0  0
    8.0949  -11.7594   26.7323 C   0  0  0  0  0  0  0  0  0  0  0  0
    8.2348  -12.4508   25.5372 C   0  0  0  0  0  0  0  0  0  0  0  0
    8.7768  -15.9298   24.5645 C   0  0  0  0  0  0  0  0  0  0  0  0
    7.8615  -16.8020   24.7874 O   0  0  0  0  0  0  0  0  0  0  0  0
   11.1178  -18.6422   24.5242 C   0  0  0  0  0  0  0  0  0  0  0  0
   11.2476  -18.0830   25.9134 C   0  0  1  0  0  0  0  0  0  0  0  0
   12.3963  -17.2912   25.9629 O   0  0  0  0  0  0  0  0  0  0  0  0
   10.0745  -17.1674   26.2616 C   0  0  2  0  0  0  0  0  0  0  0  0
    9.9664  -16.0859   25.3243 N   0  0  0  0  0  0  0  0  0  0  0  0
   10.1267  -16.7318   27.6504 C   0  0  0  0  0  0  0  0  0  0  0  0
   10.0889  -15.4904   27.9520 O   0  0  0  0  0  0  0  0  0  0  0  0
   10.2188  -17.6477   28.6783 O   0  0  0  0  0  0  0  0  0  0  0  0
  2  1  1  6
  2  3  1  0
  2  7  1  0
  4  5  1  0
  4  3  1  0
  5  6  2  0
  7  8  2  0
  9  5  1  0
 10  7  1  0
 10 11  1  0
 11 12  1  1
 12 13  1  0
 13 14  2  0
 14 15  1  0
 16 15  2  0
 17 16  1  0
 18 13  1  0
 18 17  2  0
 19 11  1  0
 19 20  2  0
 22 21  1  6
 22 24  1  0
 23 22  1  0
 24 25  1  6
 24 26  1  0
 25 19  1  0
 26 28  1  0
 27 26  2  0
M  END
$$$$
