EFT.pdb
     RDKit          3D

 28 28  0  0  1  0  0  0  0  0999 V2000
    9.9721  -15.9867   19.2148 N   0  0  0  0  0  0  0  0  0  0  0  0
    9.3188  -16.7775   20.2041 C   0  0  1  0  0  0  0  0  0  0  0  0
    9.8579  -18.1826   20.1835 C   0  0  0  0  0  0  0  0  0  0  0  0
    8.6511  -19.0920   19.9043 C   0  0  0  0  0  0  0  0  0  0  0  0
    8.5845  -20.2003   20.8532 C   0  0  0  0  0  0  0  0  0  0  0  0
    9.5978  -20.9711   20.9346 O   0  0  0  0  0  0  0  0  0  0  0  0
    9.5158  -16.1278   21.5343 C   0  0  0  0  0  0  0  0  0  0  0  0
   10.6831  -15.9389   21.9824 O   0  0  0  0  0  0  0  0  0  0  0  0
    7.4424  -20.3821   21.6239 O   0  0  0  0  0  0  0  0  0  0  0  0
    8.4533  -15.6973   22.3497 N   0  0  0  0  0  0  0  0  0  0  0  0
    8.6529  -14.9623   23.6250 C   0  0  1  0  0  0  0  0  0  0  0  0
    7.4605  -14.0979   23.7988 C   0  0  0  0  0  0  0  0  0  0  0  0
    7.3157  -13.3285   25.0147 C   0  0  0  0  0  0  0  0  0  0  0  0
    6.0470  -13.3089   25.6148 C   0  0  0  0  0  0  0  0  0  0  0  0
    5.7758  -12.6514   26.7743 C   0  0  0  0  0  0  0  0  0  0  0  0
    6.7797  -11.9641   27.4088 C   0  0  0  0  0  0  0  0  0  0  0  0
    8.0277  -11.9590   26.8567 C   0  0  0  0  0  0  0  0  0  0  0  0
    8.2870  -12.6355   25.6730 C   0  0  0  0  0  0  0  0  0  0  0  0
    8.7631  -15.9955   24.6682 C   0  0  0  0  0  0  0  0  0  0  0  0
    7.7778  -16.8024   24.8302 O   0  0  0  0  0  0  0  0  0  0  0  0
   10.3694  -18.9885   24.7713 C   0  0  0  0  0  0  0  0  0  0  0  0
   10.7472  -18.4138   26.1079 C   0  0  1  0  0  0  0  0  0  0  0  0
   12.0327  -17.8785   26.0086 O   0  0  0  0  0  0  0  0  0  0  0  0
    9.8264  -17.2599   26.5030 C   0  0  2  0  0  0  0  0  0  0  0  0
    9.8718  -16.2053   25.5304 N   0  0  0  0  0  0  0  0  0  0  0  0
   10.0835  -16.8089   27.8638 C   0  0  0  0  0  0  0  0  0  0  0  0
   10.3516  -15.5840   28.1110 O   0  0  0  0  0  0  0  0  0  0  0  0
   10.0451  -17.6922   28.9231 O   0  0  0  0  0  0  0  0  0  0  0  0
  2  1  1  6
  2  3  1  0
  2  7  1  0
  4  5  1  0
  4  3  1  0
  5  6  2  0
  7  8  2  0
  9  5  1  0
 10  7  1  0
 10 11  1  0
 11 12  1  1
 12 13  1  0
 13 14  2  0
 14 15  1  0
 16 15  2  0
 17 16  1  0
 18 13  1  0
 18 17  2  0
 19 11  1  0
 19 20  2  0
 22 21  1  6
 22 24  1  0
 23 22  1  0
 24 25  1  6
 24 26  1  0
 25 19  1  0
 26 28  1  0
 27 26  2  0
M  END
$$$$
