EFT.pdb
     RDKit          3D

 28 28  0  0  1  0  0  0  0  0999 V2000
   10.0188  -16.9504   19.7977 N   0  0  0  0  0  0  0  0  0  0  0  0
    9.5055  -17.5393   20.9896 C   0  0  1  0  0  0  0  0  0  0  0  0
   10.2531  -18.8070   21.3047 C   0  0  0  0  0  0  0  0  0  0  0  0
   11.2714  -18.9884   20.1682 C   0  0  0  0  0  0  0  0  0  0  0  0
   12.0183  -20.2352   20.3119 C   0  0  0  0  0  0  0  0  0  0  0  0
   12.8425  -20.5410   19.3873 O   0  0  0  0  0  0  0  0  0  0  0  0
    9.6160  -16.5414   22.0953 C   0  0  0  0  0  0  0  0  0  0  0  0
   10.6734  -15.8622   22.2347 O   0  0  0  0  0  0  0  0  0  0  0  0
   11.8139  -21.0382   21.4276 O   0  0  0  0  0  0  0  0  0  0  0  0
    8.5871  -16.2985   23.0235 N   0  0  0  0  0  0  0  0  0  0  0  0
    8.6949  -15.2948   24.1131 C   0  0  1  0  0  0  0  0  0  0  0  0
    7.3432  -14.7057   24.2723 C   0  0  0  0  0  0  0  0  0  0  0  0
    7.1047  -13.7611   25.3410 C   0  0  0  0  0  0  0  0  0  0  0  0
    7.0124  -12.4051   24.9905 C   0  0  0  0  0  0  0  0  0  0  0  0
    6.7622  -11.4138   25.8878 C   0  0  0  0  0  0  0  0  0  0  0  0
    6.5873  -11.7323   27.2110 C   0  0  0  0  0  0  0  0  0  0  0  0
    6.6698  -13.0401   27.5919 C   0  0  0  0  0  0  0  0  0  0  0  0
    6.9254  -14.0390   26.6630 C   0  0  0  0  0  0  0  0  0  0  0  0
    9.1328  -16.0430   25.3032 C   0  0  0  0  0  0  0  0  0  0  0  0
    8.5599  -17.1626   25.5613 O   0  0  0  0  0  0  0  0  0  0  0  0
   12.9699  -15.7901   27.0790 C   0  0  0  0  0  0  0  0  0  0  0  0
   12.0516  -16.9772   26.9957 C   0  0  1  0  0  0  0  0  0  0  0  0
   12.3820  -17.8615   28.0242 O   0  0  0  0  0  0  0  0  0  0  0  0
   10.5941  -16.5760   27.2205 C   0  0  2  0  0  0  0  0  0  0  0  0
   10.1503  -15.6538   26.2142 N   0  0  0  0  0  0  0  0  0  0  0  0
   10.3696  -16.1064   28.5807 C   0  0  0  0  0  0  0  0  0  0  0  0
    9.8867  -14.9444   28.8039 O   0  0  0  0  0  0  0  0  0  0  0  0
   10.6729  -16.9033   29.6655 O   0  0  0  0  0  0  0  0  0  0  0  0
  2  1  1  6
  2  3  1  0
  2  7  1  0
  4  5  1  0
  4  3  1  0
  5  6  2  0
  7  8  2  0
  9  5  1  0
 10  7  1  0
 10 11  1  0
 11 12  1  1
 12 13  1  0
 13 14  2  0
 14 15  1  0
 16 15  2  0
 17 16  1  0
 18 13  1  0
 18 17  2  0
 19 11  1  0
 19 20  2  0
 22 21  1  1
 22 24  1  0
 23 22  1  0
 24 25  1  6
 24 26  1  0
 25 19  1  0
 26 28  1  0
 27 26  2  0
M  END
$$$$
