EFT.pdb
     RDKit          3D

 28 28  0  0  1  0  0  0  0  0999 V2000
   10.1608  -16.7654   19.8513 N   0  0  0  0  0  0  0  0  0  0  0  0
    9.5512  -17.3540   20.9971 C   0  0  1  0  0  0  0  0  0  0  0  0
   10.2019  -18.6747   21.3095 C   0  0  0  0  0  0  0  0  0  0  0  0
    9.7496  -19.6389   20.2016 C   0  0  0  0  0  0  0  0  0  0  0  0
   10.3041  -20.9760   20.3958 C   0  0  0  0  0  0  0  0  0  0  0  0
    9.6869  -21.7631   21.1879 O   0  0  0  0  0  0  0  0  0  0  0  0
    9.6654  -16.3964   22.1375 C   0  0  0  0  0  0  0  0  0  0  0  0
   10.7726  -15.8416   22.3927 O   0  0  0  0  0  0  0  0  0  0  0  0
   11.4652  -21.3461   19.7278 O   0  0  0  0  0  0  0  0  0  0  0  0
    8.5866  -16.0591   22.9751 N   0  0  0  0  0  0  0  0  0  0  0  0
    8.7003  -15.0950   24.0993 C   0  0  1  0  0  0  0  0  0  0  0  0
    7.4090  -14.3679   24.1569 C   0  0  0  0  0  0  0  0  0  0  0  0
    7.1814  -13.4134   25.2193 C   0  0  0  0  0  0  0  0  0  0  0  0
    6.0405  -13.5990   26.0155 C   0  0  0  0  0  0  0  0  0  0  0  0
    5.7198  -12.7958   27.0654 C   0  0  0  0  0  0  0  0  0  0  0  0
    6.5400  -11.7422   27.3817 C   0  0  0  0  0  0  0  0  0  0  0  0
    7.6594  -11.5282   26.6310 C   0  0  0  0  0  0  0  0  0  0  0  0
    7.9717  -12.3579   25.5632 C   0  0  0  0  0  0  0  0  0  0  0  0
    8.9482  -15.9097   25.3004 C   0  0  0  0  0  0  0  0  0  0  0  0
    8.1155  -16.8455   25.5818 O   0  0  0  0  0  0  0  0  0  0  0  0
   11.1105  -18.5039   25.9088 C   0  0  0  0  0  0  0  0  0  0  0  0
   11.3119  -17.6441   27.1252 C   0  0  1  0  0  0  0  0  0  0  0  0
   12.4576  -16.8704   26.9317 O   0  0  0  0  0  0  0  0  0  0  0  0
   10.1547  -16.6647   27.3179 C   0  0  2  0  0  0  0  0  0  0  0  0
   10.0395  -15.7733   26.1988 N   0  0  0  0  0  0  0  0  0  0  0  0
   10.2373  -15.9810   28.6012 C   0  0  0  0  0  0  0  0  0  0  0  0
   10.2364  -14.7047   28.6675 O   0  0  0  0  0  0  0  0  0  0  0  0
   10.3193  -16.6928   29.7803 O   0  0  0  0  0  0  0  0  0  0  0  0
  2  1  1  6
  2  3  1  0
  2  7  1  0
  4  5  1  0
  4  3  1  0
  5  6  2  0
  7  8  2  0
  9  5  1  0
 10  7  1  0
 10 11  1  0
 11 12  1  1
 12 13  1  0
 13 14  2  0
 14 15  1  0
 16 15  2  0
 17 16  1  0
 18 13  1  0
 18 17  2  0
 19 11  1  0
 19 20  2  0
 22 21  1  6
 22 24  1  0
 23 22  1  0
 24 25  1  6
 24 26  1  0
 25 19  1  0
 26 28  1  0
 27 26  2  0
M  END
$$$$
