EFT.pdb
     RDKit          3D

 28 28  0  0  1  0  0  0  0  0999 V2000
    7.7336  -14.7346   19.7604 N   0  0  0  0  0  0  0  0  0  0  0  0
    7.4464  -15.7978   20.6648 C   0  0  1  0  0  0  0  0  0  0  0  0
    8.0573  -17.0803   20.1676 C   0  0  0  0  0  0  0  0  0  0  0  0
    7.2714  -17.4576   18.9021 C   0  0  0  0  0  0  0  0  0  0  0  0
    7.7479  -18.7142   18.3302 C   0  0  0  0  0  0  0  0  0  0  0  0
    8.7168  -19.3014   18.9169 O   0  0  0  0  0  0  0  0  0  0  0  0
    7.9653  -15.4234   22.0142 C   0  0  0  0  0  0  0  0  0  0  0  0
    9.0679  -14.8142   22.1243 O   0  0  0  0  0  0  0  0  0  0  0  0
    7.1466  -19.2242   17.1858 O   0  0  0  0  0  0  0  0  0  0  0  0
    7.2861  -15.7131   23.2117 N   0  0  0  0  0  0  0  0  0  0  0  0
    7.8141  -15.3555   24.5532 C   0  0  1  0  0  0  0  0  0  0  0  0
    6.6807  -14.7608   25.3022 C   0  0  0  0  0  0  0  0  0  0  0  0
    6.8258  -13.4403   25.8739 C   0  0  0  0  0  0  0  0  0  0  0  0
    5.6857  -12.8636   26.4551 C   0  0  0  0  0  0  0  0  0  0  0  0
    5.6855  -11.6422   27.0540 C   0  0  0  0  0  0  0  0  0  0  0  0
    6.8495  -10.9175   27.1049 C   0  0  0  0  0  0  0  0  0  0  0  0
    7.9800  -11.4440   26.5507 C   0  0  0  0  0  0  0  0  0  0  0  0
    7.9625  -12.6919   25.9437 C   0  0  0  0  0  0  0  0  0  0  0  0
    8.2871  -16.6178   25.1455 C   0  0  0  0  0  0  0  0  0  0  0  0
    7.4499  -17.5838   25.2647 O   0  0  0  0  0  0  0  0  0  0  0  0
   10.4444  -19.1734   23.9505 C   0  0  0  0  0  0  0  0  0  0  0  0
   10.9386  -18.9228   25.3478 C   0  0  1  0  0  0  0  0  0  0  0  0
   12.0638  -18.0996   25.2751 O   0  0  0  0  0  0  0  0  0  0  0  0
    9.9035  -18.1695   26.1824 C   0  0  2  0  0  0  0  0  0  0  0  0
    9.6033  -16.8910   25.6035 N   0  0  0  0  0  0  0  0  0  0  0  0
   10.2926  -18.0974   27.5841 C   0  0  0  0  0  0  0  0  0  0  0  0
   10.4428  -16.9704   28.1677 O   0  0  0  0  0  0  0  0  0  0  0  0
   10.5103  -19.2442   28.3198 O   0  0  0  0  0  0  0  0  0  0  0  0
  2  1  1  6
  2  3  1  0
  2  7  1  0
  4  5  1  0
  4  3  1  0
  5  6  2  0
  7  8  2  0
  9  5  1  0
 10  7  1  0
 10 11  1  0
 11 12  1  1
 12 13  1  0
 13 14  2  0
 14 15  1  0
 16 15  2  0
 17 16  1  0
 18 13  1  0
 18 17  2  0
 19 11  1  0
 19 20  2  0
 22 21  1  6
 22 24  1  0
 23 22  1  0
 24 25  1  6
 24 26  1  0
 25 19  1  0
 26 28  1  0
 27 26  2  0
M  END
$$$$
