EFT.pdb
     RDKit          3D

 28 28  0  0  1  0  0  0  0  0999 V2000
    8.2452  -15.8616   18.8923 N   0  0  0  0  0  0  0  0  0  0  0  0
    8.7755  -16.7832   19.8411 C   0  0  1  0  0  0  0  0  0  0  0  0
   10.0056  -17.4489   19.2855 C   0  0  0  0  0  0  0  0  0  0  0  0
    9.5549  -18.8412   18.8166 C   0  0  0  0  0  0  0  0  0  0  0  0
    9.9018  -19.0735   17.4170 C   0  0  0  0  0  0  0  0  0  0  0  0
    9.5511  -20.1846   16.8972 O   0  0  0  0  0  0  0  0  0  0  0  0
    9.0686  -16.0437   21.1052 C   0  0  0  0  0  0  0  0  0  0  0  0
   10.2547  -15.7037   21.3818 O   0  0  0  0  0  0  0  0  0  0  0  0
   10.5914  -18.0992   16.7054 O   0  0  0  0  0  0  0  0  0  0  0  0
    8.0795  -15.6881   22.0403 N   0  0  0  0  0  0  0  0  0  0  0  0
    8.3715  -14.9330   23.2856 C   0  0  1  0  0  0  0  0  0  0  0  0
    7.1719  -14.1061   23.5625 C   0  0  0  0  0  0  0  0  0  0  0  0
    7.1128  -13.3317   24.7824 C   0  0  0  0  0  0  0  0  0  0  0  0
    6.2273  -13.7705   25.7792 C   0  0  0  0  0  0  0  0  0  0  0  0
    6.0911  -13.1559   26.9850 C   0  0  0  0  0  0  0  0  0  0  0  0
    6.8492  -12.0468   27.2644 C   0  0  0  0  0  0  0  0  0  0  0  0
    7.7221  -11.5888   26.3208 C   0  0  0  0  0  0  0  0  0  0  0  0
    7.8486  -12.2282   25.0955 C   0  0  0  0  0  0  0  0  0  0  0  0
    8.6124  -15.9505   24.3223 C   0  0  0  0  0  0  0  0  0  0  0  0
    7.7580  -16.9000   24.4512 O   0  0  0  0  0  0  0  0  0  0  0  0
   10.8137  -18.5529   24.2597 C   0  0  0  0  0  0  0  0  0  0  0  0
   11.0320  -18.0155   25.6464 C   0  0  1  0  0  0  0  0  0  0  0  0
   12.1706  -17.2079   25.6306 O   0  0  0  0  0  0  0  0  0  0  0  0
    9.8737  -17.1233   26.0912 C   0  0  2  0  0  0  0  0  0  0  0  0
    9.7185  -15.9999   25.2115 N   0  0  0  0  0  0  0  0  0  0  0  0
    9.9895  -16.7524   27.4949 C   0  0  0  0  0  0  0  0  0  0  0  0
   10.0650  -17.6447   28.4067 O   0  0  0  0  0  0  0  0  0  0  0  0
   10.0200  -15.4273   27.8784 O   0  0  0  0  0  0  0  0  0  0  0  0
  2  1  1  6
  2  3  1  0
  2  7  1  0
  4  5  1  0
  4  3  1  0
  5  6  2  0
  7  8  2  0
  9  5  1  0
 10  7  1  0
 10 11  1  0
 11 12  1  1
 12 13  1  0
 13 14  2  0
 14 15  1  0
 16 15  2  0
 17 16  1  0
 18 13  1  0
 18 17  2  0
 19 11  1  0
 19 20  2  0
 22 21  1  6
 22 24  1  0
 23 22  1  0
 24 25  1  6
 24 26  1  0
 25 19  1  0
 26 28  1  0
 27 26  2  0
M  END
$$$$
