EFT.pdb
     RDKit          3D

 28 28  0  0  1  0  0  0  0  0999 V2000
    8.5368  -13.6270   18.3859 N   0  0  0  0  0  0  0  0  0  0  0  0
    8.5568  -14.8410   19.1318 C   0  0  1  0  0  0  0  0  0  0  0  0
    9.5120  -15.8198   18.5033 C   0  0  0  0  0  0  0  0  0  0  0  0
    8.9823  -16.0713   17.0829 C   0  0  0  0  0  0  0  0  0  0  0  0
    7.9640  -17.1181   17.0683 C   0  0  0  0  0  0  0  0  0  0  0  0
    8.0599  -18.0489   17.9355 O   0  0  0  0  0  0  0  0  0  0  0  0
    8.9362  -14.5236   20.5410 C   0  0  0  0  0  0  0  0  0  0  0  0
   10.0748  -14.0372   20.7982 O   0  0  0  0  0  0  0  0  0  0  0  0
    6.9408  -17.0735   16.1288 O   0  0  0  0  0  0  0  0  0  0  0  0
    8.0824  -14.7368   21.6386 N   0  0  0  0  0  0  0  0  0  0  0  0
    8.4202  -14.3224   23.0244 C   0  0  1  0  0  0  0  0  0  0  0  0
    7.2764  -13.5112   23.5072 C   0  0  0  0  0  0  0  0  0  0  0  0
    7.2900  -13.0054   24.8620 C   0  0  0  0  0  0  0  0  0  0  0  0
    6.2940  -13.4749   25.7326 C   0  0  0  0  0  0  0  0  0  0  0  0
    6.2051  -13.1064   27.0389 C   0  0  0  0  0  0  0  0  0  0  0  0
    7.1267  -12.2306   27.5553 C   0  0  0  0  0  0  0  0  0  0  0  0
    8.1108  -11.7512   26.7405 C   0  0  0  0  0  0  0  0  0  0  0  0
    8.1869  -12.1379   25.4098 C   0  0  0  0  0  0  0  0  0  0  0  0
    8.5919  -15.5719   23.7840 C   0  0  0  0  0  0  0  0  0  0  0  0
    7.6157  -16.4053   23.8109 O   0  0  0  0  0  0  0  0  0  0  0  0
   10.3796  -18.5199   23.1841 C   0  0  0  0  0  0  0  0  0  0  0  0
   10.7343  -18.2036   24.6101 C   0  0  1  0  0  0  0  0  0  0  0  0
   11.9862  -17.5861   24.6250 O   0  0  0  0  0  0  0  0  0  0  0  0
    9.7520  -17.2071   25.2249 C   0  0  2  0  0  0  0  0  0  0  0  0
    9.7519  -15.9675   24.5015 N   0  0  0  0  0  0  0  0  0  0  0  0
    9.9737  -17.0469   26.6554 C   0  0  0  0  0  0  0  0  0  0  0  0
    9.9471  -18.0541   27.4417 O   0  0  0  0  0  0  0  0  0  0  0  0
   10.2179  -15.8032   27.2006 O   0  0  0  0  0  0  0  0  0  0  0  0
  2  1  1  6
  2  3  1  0
  2  7  1  0
  4  5  1  0
  4  3  1  0
  5  6  2  0
  7  8  2  0
  9  5  1  0
 10  7  1  0
 10 11  1  0
 11 12  1  1
 12 13  1  0
 13 14  2  0
 14 15  1  0
 16 15  2  0
 17 16  1  0
 18 13  1  0
 18 17  2  0
 19 11  1  0
 19 20  2  0
 22 21  1  6
 22 24  1  0
 23 22  1  0
 24 25  1  6
 24 26  1  0
 25 19  1  0
 26 28  1  0
 27 26  2  0
M  END
$$$$
