EFT.pdb
     RDKit          3D

 28 28  0  0  1  0  0  0  0  0999 V2000
   10.5668  -16.3698   19.6122 N   0  0  0  0  0  0  0  0  0  0  0  0
    9.5236  -16.8375   20.4629 C   0  0  1  0  0  0  0  0  0  0  0  0
    9.5784  -18.3375   20.5737 C   0  0  0  0  0  0  0  0  0  0  0  0
    9.3688  -18.8724   19.1484 C   0  0  0  0  0  0  0  0  0  0  0  0
    9.2694  -20.3295   19.1322 C   0  0  0  0  0  0  0  0  0  0  0  0
   10.3114  -20.9899   18.8072 O   0  0  0  0  0  0  0  0  0  0  0  0
    9.6686  -16.1778   21.7949 C   0  0  0  0  0  0  0  0  0  0  0  0
   10.8143  -16.0287   22.3087 O   0  0  0  0  0  0  0  0  0  0  0  0
    8.0672  -20.9435   19.4626 O   0  0  0  0  0  0  0  0  0  0  0  0
    8.5784  -15.6947   22.5415 N   0  0  0  0  0  0  0  0  0  0  0  0
    8.7294  -15.0033   23.8474 C   0  0  1  0  0  0  0  0  0  0  0  0
    7.5191  -14.1631   24.0165 C   0  0  0  0  0  0  0  0  0  0  0  0
    7.3634  -13.3816   25.2233 C   0  0  0  0  0  0  0  0  0  0  0  0
    6.1610  -13.5281   25.9324 C   0  0  0  0  0  0  0  0  0  0  0  0
    5.8927  -12.8777   27.0966 C   0  0  0  0  0  0  0  0  0  0  0  0
    6.8323  -12.0287   27.6250 C   0  0  0  0  0  0  0  0  0  0  0  0
    8.0147  -11.8591   26.9650 C   0  0  0  0  0  0  0  0  0  0  0  0
    8.2720  -12.5309   25.7782 C   0  0  0  0  0  0  0  0  0  0  0  0
    8.8255  -16.0716   24.8560 C   0  0  0  0  0  0  0  0  0  0  0  0
    7.7968  -16.8136   25.0544 O   0  0  0  0  0  0  0  0  0  0  0  0
   10.2552  -19.2176   24.8799 C   0  0  0  0  0  0  0  0  0  0  0  0
   10.7392  -18.6382   26.1796 C   0  0  1  0  0  0  0  0  0  0  0  0
   12.0358  -18.1565   25.9904 O   0  0  0  0  0  0  0  0  0  0  0  0
    9.8911  -17.4424   26.6113 C   0  0  2  0  0  0  0  0  0  0  0  0
    9.9634  -16.3818   25.6469 N   0  0  0  0  0  0  0  0  0  0  0  0
   10.2101  -17.0191   27.9679 C   0  0  0  0  0  0  0  0  0  0  0  0
   10.5783  -15.8201   28.2131 O   0  0  0  0  0  0  0  0  0  0  0  0
   10.1239  -17.9014   29.0252 O   0  0  0  0  0  0  0  0  0  0  0  0
  2  1  1  6
  2  3  1  0
  2  7  1  0
  4  5  1  0
  4  3  1  0
  5  6  2  0
  7  8  2  0
  9  5  1  0
 10  7  1  0
 10 11  1  0
 11 12  1  1
 12 13  1  0
 13 14  2  0
 14 15  1  0
 16 15  2  0
 17 16  1  0
 18 13  1  0
 18 17  2  0
 19 11  1  0
 19 20  2  0
 22 21  1  6
 22 24  1  0
 23 22  1  0
 24 25  1  6
 24 26  1  0
 25 19  1  0
 26 28  1  0
 27 26  2  0
M  END
$$$$
