YQM.pdb
     RDKit          3D

 30 30  0  0  1  0  0  0  0  0999 V2000
    9.5852  -20.6217   28.7234 O   0  0  0  0  0  0  0  0  0  0  0  0
    8.7042  -19.9864   27.8295 C   0  0  0  0  0  0  0  0  0  0  0  0
    9.1638  -18.9993   26.9896 C   0  0  0  0  0  0  0  0  0  0  0  0
    8.2697  -18.3806   26.1081 C   0  0  0  0  0  0  0  0  0  0  0  0
    6.9408  -18.7474   26.0724 C   0  0  0  0  0  0  0  0  0  0  0  0
    6.0125  -18.0809   25.1356 C   0  0  0  0  0  0  0  0  0  0  0  0
    5.9519  -18.7918   23.7973 C   0  0  2  0  0  0  0  0  0  0  0  0
    6.5335  -20.1436   23.9335 N   0  0  0  0  0  0  0  0  0  0  0  0
    6.6305  -18.0280   22.7540 C   0  0  0  0  0  0  0  0  0  0  0  0
    6.4557  -18.1834   21.5075 O   0  0  0  0  0  0  0  0  0  0  0  0
    6.5122  -19.7358   26.9227 C   0  0  0  0  0  0  0  0  0  0  0  0
    7.3854  -20.3698   27.8132 C   0  0  0  0  0  0  0  0  0  0  0  0
    7.1566  -15.7728   19.1085 N   0  0  0  0  0  0  0  0  0  0  0  0
    7.6811  -14.5221   19.5512 C   0  0  0  0  0  0  0  0  0  0  0  0
    8.5303  -13.9599   18.8476 O   0  0  0  0  0  0  0  0  0  0  0  0
    7.1956  -13.9776   20.8037 C   0  0  0  0  0  0  0  0  0  0  0  0
    6.8128  -15.0192   21.8071 C   0  0  0  0  0  0  0  0  0  0  0  0
    7.9223  -15.9343   22.2534 C   0  0  2  0  0  0  0  0  0  0  0  0
    7.5748  -17.0097   23.0909 N   0  0  0  0  0  0  0  0  0  0  0  0
    8.9787  -15.0422   22.8197 C   0  0  0  0  0  0  0  0  0  0  0  0
    9.2691  -14.0173   22.1603 O   0  0  0  0  0  0  0  0  0  0  0  0
    6.6503  -10.3817   27.1484 C   0  0  0  0  0  0  0  0  0  0  0  0
    6.4623  -12.1334   26.6508 S   0  0  0  0  0  0  0  0  0  0  0  0
    8.0383  -12.9533   26.5375 C   0  0  0  0  0  0  0  0  0  0  0  0
    8.2359  -13.9166   25.4376 C   0  0  0  0  0  0  0  0  0  0  0  0
    9.6092  -14.3901   25.2042 C   0  0  2  0  0  0  0  0  0  0  0  0
    9.6548  -15.2748   24.0228 N   0  0  0  0  0  0  0  0  0  0  0  0
   10.3801  -14.9870   26.2728 C   0  0  0  0  0  0  0  0  0  0  0  0
   10.4355  -16.3147   26.6391 O   0  0  0  0  0  0  0  0  0  0  0  0
   11.1124  -14.2164   26.9967 O   0  0  0  0  0  0  0  0  0  0  0  0
  2  1  1  0
  3  2  2  0
  4  3  1  0
  5  4  2  0
  5 11  1  0
  6  5  1  0
  7  6  1  0
  7  9  1  0
  7  8  1  1
  9 10  2  0
 11 12  2  0
 12  2  1  0
 13 14  1  0
 14 15  2  0
 16 17  1  0
 16 14  1  0
 18 17  1  1
 19 18  1  0
 19  9  1  0
 20 18  1  0
 20 21  2  0
 23 22  1  0
 23 24  1  0
 24 25  1  0
 26 25  1  1
 26 27  1  0
 26 28  1  0
 27 20  1  0
 28 30  2  0
 28 29  1  0
M  END
$$$$
