YQM.pdb
     RDKit          3D

 30 30  0  0  1  0  0  0  0  0999 V2000
    7.5784  -12.1553   16.9423 O   0  0  0  0  0  0  0  0  0  0  0  0
    7.7504  -12.8934   18.1274 C   0  0  0  0  0  0  0  0  0  0  0  0
    8.9736  -13.4459   18.4269 C   0  0  0  0  0  0  0  0  0  0  0  0
    9.1221  -14.1764   19.6115 C   0  0  0  0  0  0  0  0  0  0  0  0
    8.0620  -14.3477   20.4769 C   0  0  0  0  0  0  0  0  0  0  0  0
    8.2390  -15.1239   21.7218 C   0  0  0  0  0  0  0  0  0  0  0  0
    8.4396  -16.6013   21.4437 C   0  0  2  0  0  0  0  0  0  0  0  0
    7.1657  -17.1904   20.9810 N   0  0  0  0  0  0  0  0  0  0  0  0
    8.9496  -17.3029   22.6186 C   0  0  0  0  0  0  0  0  0  0  0  0
    8.2357  -17.7470   23.5681 O   0  0  0  0  0  0  0  0  0  0  0  0
    6.8540  -13.7843   20.1505 C   0  0  0  0  0  0  0  0  0  0  0  0
    6.6791  -13.0496   18.9727 C   0  0  0  0  0  0  0  0  0  0  0  0
   14.6621  -20.0301   23.1538 N   0  0  0  0  0  0  0  0  0  0  0  0
   13.5397  -20.5751   22.4620 C   0  0  0  0  0  0  0  0  0  0  0  0
   13.7318  -21.5172   21.6824 O   0  0  0  0  0  0  0  0  0  0  0  0
   12.2341  -19.9941   22.7047 C   0  0  0  0  0  0  0  0  0  0  0  0
   12.2479  -18.8676   23.6892 C   0  0  0  0  0  0  0  0  0  0  0  0
   10.9322  -18.1647   23.8949 C   0  0  2  0  0  0  0  0  0  0  0  0
   10.3492  -17.5448   22.7749 N   0  0  0  0  0  0  0  0  0  0  0  0
   11.1416  -17.2466   25.0549 C   0  0  0  0  0  0  0  0  0  0  0  0
   11.9432  -16.2979   24.8900 O   0  0  0  0  0  0  0  0  0  0  0  0
    7.8365  -12.4140   27.2950 C   0  0  0  0  0  0  0  0  0  0  0  0
    9.4296  -12.7296   28.1398 S   0  0  0  0  0  0  0  0  0  0  0  0
    9.6292  -14.4536   28.5355 C   0  0  0  0  0  0  0  0  0  0  0  0
    9.6316  -15.4203   27.4209 C   0  0  0  0  0  0  0  0  0  0  0  0
   10.6803  -16.4521   27.4349 C   0  0  2  0  0  0  0  0  0  0  0  0
   10.5084  -17.3762   26.2962 N   0  0  0  0  0  0  0  0  0  0  0  0
   10.9504  -17.2195   28.6311 C   0  0  0  0  0  0  0  0  0  0  0  0
   10.9475  -18.5901   28.7779 O   0  0  0  0  0  0  0  0  0  0  0  0
   11.2259  -16.5807   29.7128 O   0  0  0  0  0  0  0  0  0  0  0  0
  2  1  1  0
  3  2  2  0
  4  3  1  0
  5  4  2  0
  5 11  1  0
  6  5  1  0
  7  6  1  0
  7  9  1  0
  7  8  1  1
  9 10  2  0
 11 12  2  0
 12  2  1  0
 13 14  1  0
 14 15  2  0
 16 17  1  0
 16 14  1  0
 18 17  1  6
 19 18  1  0
 19  9  1  0
 20 18  1  0
 20 21  2  0
 23 22  1  0
 23 24  1  0
 24 25  1  0
 26 25  1  1
 26 27  1  0
 26 28  1  0
 27 20  1  0
 28 30  2  0
 28 29  1  0
M  END
$$$$
