YQM.pdb
     RDKit          3D

 30 30  0  0  1  0  0  0  0  0999 V2000
    9.9478  -12.0565   19.2732 O   0  0  0  0  0  0  0  0  0  0  0  0
    8.9738  -12.9478   19.7588 C   0  0  0  0  0  0  0  0  0  0  0  0
    8.2694  -12.6474   20.9010 C   0  0  0  0  0  0  0  0  0  0  0  0
    7.3048  -13.5487   21.3662 C   0  0  0  0  0  0  0  0  0  0  0  0
    7.0542  -14.7279   20.6962 C   0  0  0  0  0  0  0  0  0  0  0  0
    6.0328  -15.6669   21.2047 C   0  0  0  0  0  0  0  0  0  0  0  0
    6.5807  -17.0735   21.3516 C   0  0  2  0  0  0  0  0  0  0  0  0
    5.4579  -18.0311   21.4318 N   0  0  0  0  0  0  0  0  0  0  0  0
    7.4564  -17.1884   22.5146 C   0  0  0  0  0  0  0  0  0  0  0  0
    7.0844  -17.0663   23.7209 O   0  0  0  0  0  0  0  0  0  0  0  0
    7.7733  -14.9994   19.5593 C   0  0  0  0  0  0  0  0  0  0  0  0
    8.7428  -14.1155   19.0734 C   0  0  0  0  0  0  0  0  0  0  0  0
   14.5971  -17.5274   24.2471 N   0  0  0  0  0  0  0  0  0  0  0  0
   13.4920  -18.3368   23.8483 C   0  0  0  0  0  0  0  0  0  0  0  0
   13.7225  -19.3684   23.2041 O   0  0  0  0  0  0  0  0  0  0  0  0
   12.1571  -17.9063   24.2140 C   0  0  0  0  0  0  0  0  0  0  0  0
   11.2040  -17.8495   23.0623 C   0  0  0  0  0  0  0  0  0  0  0  0
    9.7819  -17.4962   23.4091 C   0  0  2  0  0  0  0  0  0  0  0  0
    8.8502  -17.4606   22.3558 N   0  0  0  0  0  0  0  0  0  0  0  0
    9.8604  -16.2258   24.1916 C   0  0  0  0  0  0  0  0  0  0  0  0
   10.4229  -15.2526   23.6384 O   0  0  0  0  0  0  0  0  0  0  0  0
    5.6458  -11.8568   26.5134 C   0  0  0  0  0  0  0  0  0  0  0  0
    7.3870  -11.3143   26.3557 S   0  0  0  0  0  0  0  0  0  0  0  0
    8.5191  -12.6106   26.8107 C   0  0  0  0  0  0  0  0  0  0  0  0
    8.5283  -13.8364   25.9898 C   0  0  0  0  0  0  0  0  0  0  0  0
    9.5426  -14.8508   26.3169 C   0  0  2  0  0  0  0  0  0  0  0  0
    9.3526  -16.0556   25.4846 N   0  0  0  0  0  0  0  0  0  0  0  0
    9.7747  -15.2533   27.6868 C   0  0  0  0  0  0  0  0  0  0  0  0
    9.6857  -16.5190   28.2254 O   0  0  0  0  0  0  0  0  0  0  0  0
   10.1009  -14.3468   28.5388 O   0  0  0  0  0  0  0  0  0  0  0  0
  2  1  1  0
  3  2  2  0
  4  3  1  0
  5  4  2  0
  5 11  1  0
  6  5  1  0
  7  6  1  0
  7  9  1  0
  7  8  1  1
  9 10  2  0
 11 12  2  0
 12  2  1  0
 13 14  1  0
 14 15  2  0
 16 17  1  0
 16 14  1  0
 18 17  1  6
 19 18  1  0
 19  9  1  0
 20 18  1  0
 20 21  2  0
 23 22  1  0
 23 24  1  0
 24 25  1  0
 26 25  1  1
 26 27  1  0
 26 28  1  0
 27 20  1  0
 28 30  2  0
 28 29  1  0
M  END
$$$$
