YQM.pdb
     RDKit          3D

 30 30  0  0  1  0  0  0  0  0999 V2000
    7.9680  -12.6625   16.5500 O   0  0  0  0  0  0  0  0  0  0  0  0
    7.9465  -13.2437   17.8309 C   0  0  0  0  0  0  0  0  0  0  0  0
    6.8349  -13.1152   18.6302 C   0  0  0  0  0  0  0  0  0  0  0  0
    6.8353  -13.7016   19.9011 C   0  0  0  0  0  0  0  0  0  0  0  0
    7.9313  -14.4028   20.3584 C   0  0  0  0  0  0  0  0  0  0  0  0
    7.9124  -15.0131   21.7040 C   0  0  0  0  0  0  0  0  0  0  0  0
    8.4757  -16.4213   21.6946 C   0  0  2  0  0  0  0  0  0  0  0  0
    7.6055  -17.2919   20.8768 N   0  0  0  0  0  0  0  0  0  0  0  0
    8.6256  -16.9471   23.0487 C   0  0  0  0  0  0  0  0  0  0  0  0
    7.7723  -17.6692   23.6479 O   0  0  0  0  0  0  0  0  0  0  0  0
    9.0255  -14.5138   19.5376 C   0  0  0  0  0  0  0  0  0  0  0  0
    9.0506  -13.9370   18.2631 C   0  0  0  0  0  0  0  0  0  0  0  0
    9.5731  -20.6452   23.3698 N   0  0  0  0  0  0  0  0  0  0  0  0
   10.9470  -20.3968   23.6631 C   0  0  0  0  0  0  0  0  0  0  0  0
   11.7454  -21.3387   23.5751 O   0  0  0  0  0  0  0  0  0  0  0  0
   11.3352  -19.0559   24.0533 C   0  0  0  0  0  0  0  0  0  0  0  0
   10.5998  -18.5380   25.2487 C   0  0  0  0  0  0  0  0  0  0  0  0
   10.0356  -17.1481   25.1161 C   0  0  2  0  0  0  0  0  0  0  0  0
    9.7992  -16.6687   23.8149 N   0  0  0  0  0  0  0  0  0  0  0  0
   10.9277  -16.2704   25.9323 C   0  0  0  0  0  0  0  0  0  0  0  0
   12.1019  -16.6675   26.1147 O   0  0  0  0  0  0  0  0  0  0  0  0
    6.2216  -11.7487   26.4176 C   0  0  0  0  0  0  0  0  0  0  0  0
    6.9769  -12.6817   27.7997 S   0  0  0  0  0  0  0  0  0  0  0  0
    8.5733  -13.3312   27.3545 C   0  0  0  0  0  0  0  0  0  0  0  0
    9.2952  -14.1339   28.3602 C   0  0  0  0  0  0  0  0  0  0  0  0
   10.5689  -14.7395   27.9413 C   0  0  2  0  0  0  0  0  0  0  0  0
   10.5412  -15.0500   26.4980 N   0  0  0  0  0  0  0  0  0  0  0  0
   11.1260  -15.8661   28.6576 C   0  0  0  0  0  0  0  0  0  0  0  0
   12.1315  -15.8583   29.6005 O   0  0  0  0  0  0  0  0  0  0  0  0
   10.6556  -17.0368   28.4079 O   0  0  0  0  0  0  0  0  0  0  0  0
  2  1  1  0
  3  2  2  0
  4  3  1  0
  5  4  2  0
  5 11  1  0
  6  5  1  0
  7  6  1  0
  7  9  1  0
  7  8  1  6
  9 10  2  0
 11 12  2  0
 12  2  1  0
 13 14  1  0
 14 15  2  0
 16 17  1  0
 16 14  1  0
 18 17  1  6
 19 18  1  0
 19  9  1  0
 20 18  1  0
 20 21  2  0
 23 22  1  0
 23 24  1  0
 24 25  1  0
 26 25  1  1
 26 27  1  0
 26 28  1  0
 27 20  1  0
 28 30  2  0
 28 29  1  0
M  END
$$$$
