YQM.pdb
     RDKit          3D

 30 30  0  0  1  0  0  0  0  0999 V2000
    7.7054  -12.1796   16.8893 O   0  0  0  0  0  0  0  0  0  0  0  0
    7.8484  -12.9452   18.0608 C   0  0  0  0  0  0  0  0  0  0  0  0
    6.8259  -13.7625   18.4821 C   0  0  0  0  0  0  0  0  0  0  0  0
    6.9899  -14.5155   19.6505 C   0  0  0  0  0  0  0  0  0  0  0  0
    8.1583  -14.4476   20.3801 C   0  0  0  0  0  0  0  0  0  0  0  0
    8.3110  -15.2493   21.6119 C   0  0  0  0  0  0  0  0  0  0  0  0
    9.1870  -16.4672   21.3893 C   0  0  2  0  0  0  0  0  0  0  0  0
    8.5895  -17.3151   20.3367 N   0  0  0  0  0  0  0  0  0  0  0  0
    9.3821  -17.2196   22.6256 C   0  0  0  0  0  0  0  0  0  0  0  0
    9.1817  -18.4648   22.7594 O   0  0  0  0  0  0  0  0  0  0  0  0
    9.1605  -13.6230   19.9340 C   0  0  0  0  0  0  0  0  0  0  0  0
    9.0219  -12.8600   18.7695 C   0  0  0  0  0  0  0  0  0  0  0  0
   13.7693  -19.9301   25.3036 N   0  0  0  0  0  0  0  0  0  0  0  0
   12.4924  -20.1775   25.8898 C   0  0  0  0  0  0  0  0  0  0  0  0
   12.1973  -21.3434   26.1829 O   0  0  0  0  0  0  0  0  0  0  0  0
   11.6059  -19.0515   26.1072 C   0  0  0  0  0  0  0  0  0  0  0  0
   11.3236  -18.2577   24.8710 C   0  0  0  0  0  0  0  0  0  0  0  0
   10.2266  -17.2331   24.9898 C   0  0  2  0  0  0  0  0  0  0  0  0
    9.8342  -16.5678   23.8141 N   0  0  0  0  0  0  0  0  0  0  0  0
   10.6470  -16.3170   26.0927 C   0  0  0  0  0  0  0  0  0  0  0  0
   11.7808  -15.7932   25.9940 O   0  0  0  0  0  0  0  0  0  0  0  0
    6.6699  -11.8072   25.6174 C   0  0  0  0  0  0  0  0  0  0  0  0
    7.2857  -12.3096   27.2665 S   0  0  0  0  0  0  0  0  0  0  0  0
    8.5927  -13.5112   27.1378 C   0  0  0  0  0  0  0  0  0  0  0  0
    9.2038  -14.0007   28.3883 C   0  0  0  0  0  0  0  0  0  0  0  0
   10.2366  -15.0411   28.2635 C   0  0  2  0  0  0  0  0  0  0  0  0
    9.8663  -16.0105   27.2131 N   0  0  0  0  0  0  0  0  0  0  0  0
   10.7099  -15.7601   29.4260 C   0  0  0  0  0  0  0  0  0  0  0  0
   11.4660  -15.2768   30.4723 O   0  0  0  0  0  0  0  0  0  0  0  0
   10.4143  -17.0075   29.5302 O   0  0  0  0  0  0  0  0  0  0  0  0
  2  1  1  0
  3  2  2  0
  4  3  1  0
  5  4  2  0
  5 11  1  0
  6  5  1  0
  7  6  1  0
  7  9  1  0
  7  8  1  6
  9 10  2  0
 11 12  2  0
 12  2  1  0
 13 14  1  0
 14 15  2  0
 16 17  1  0
 16 14  1  0
 18 17  1  6
 19 18  1  0
 19  9  1  0
 20 18  1  0
 20 21  2  0
 23 22  1  0
 23 24  1  0
 24 25  1  0
 26 25  1  1
 26 27  1  0
 26 28  1  0
 27 20  1  0
 28 30  2  0
 28 29  1  0
M  END
$$$$
