YQM.pdb
     RDKit          3D

 30 30  0  0  1  0  0  0  0  0999 V2000
    7.4263  -13.0892   15.3125 O   0  0  0  0  0  0  0  0  0  0  0  0
    7.4836  -13.5372   16.6448 C   0  0  0  0  0  0  0  0  0  0  0  0
    7.8863  -12.6837   17.6449 C   0  0  0  0  0  0  0  0  0  0  0  0
    7.9359  -13.1507   18.9634 C   0  0  0  0  0  0  0  0  0  0  0  0
    7.5875  -14.4495   19.2695 C   0  0  0  0  0  0  0  0  0  0  0  0
    7.6482  -14.9237   20.6677 C   0  0  0  0  0  0  0  0  0  0  0  0
    9.0546  -14.8480   21.2303 C   0  0  2  0  0  0  0  0  0  0  0  0
   10.0134  -15.3455   20.2218 N   0  0  0  0  0  0  0  0  0  0  0  0
    9.1714  -15.5916   22.4817 C   0  0  0  0  0  0  0  0  0  0  0  0
    8.3406  -15.5415   23.4386 O   0  0  0  0  0  0  0  0  0  0  0  0
    7.1896  -15.2773   18.2497 C   0  0  0  0  0  0  0  0  0  0  0  0
    7.1315  -14.8353   16.9236 C   0  0  0  0  0  0  0  0  0  0  0  0
   13.3071  -20.3315   23.6975 N   0  0  0  0  0  0  0  0  0  0  0  0
   12.2117  -20.3889   22.7853 C   0  0  0  0  0  0  0  0  0  0  0  0
   12.1787  -21.3159   21.9656 O   0  0  0  0  0  0  0  0  0  0  0  0
   11.1975  -19.3563   22.8630 C   0  0  0  0  0  0  0  0  0  0  0  0
   11.4895  -18.2982   23.8796 C   0  0  0  0  0  0  0  0  0  0  0  0
   10.5207  -17.1461   23.9190 C   0  0  2  0  0  0  0  0  0  0  0  0
   10.2797  -16.4635   22.7128 N   0  0  0  0  0  0  0  0  0  0  0  0
   10.9867  -16.2642   25.0314 C   0  0  0  0  0  0  0  0  0  0  0  0
   11.6495  -15.2502   24.7119 O   0  0  0  0  0  0  0  0  0  0  0  0
    5.9871  -12.7918   27.4035 C   0  0  0  0  0  0  0  0  0  0  0  0
    7.7445  -12.3137   27.2191 S   0  0  0  0  0  0  0  0  0  0  0  0
    8.8337  -13.5706   27.8534 C   0  0  0  0  0  0  0  0  0  0  0  0
    9.3559  -14.5724   26.9044 C   0  0  0  0  0  0  0  0  0  0  0  0
   10.4382  -15.4457   27.3847 C   0  0  2  0  0  0  0  0  0  0  0  0
   10.7335  -16.4948   26.3884 N   0  0  0  0  0  0  0  0  0  0  0  0
   10.3800  -16.0447   28.7001 C   0  0  0  0  0  0  0  0  0  0  0  0
   10.6474  -15.4508   29.9149 O   0  0  0  0  0  0  0  0  0  0  0  0
   10.0468  -17.2838   28.7886 O   0  0  0  0  0  0  0  0  0  0  0  0
  2  1  1  0
  3  2  2  0
  4  3  1  0
  5  4  2  0
  5 11  1  0
  6  5  1  0
  7  6  1  0
  7  9  1  0
  7  8  1  6
  9 10  2  0
 11 12  2  0
 12  2  1  0
 13 14  1  0
 14 15  2  0
 16 17  1  0
 16 14  1  0
 18 17  1  6
 19 18  1  0
 19  9  1  0
 20 18  1  0
 20 21  2  0
 23 22  1  0
 23 24  1  0
 24 25  1  0
 26 25  1  6
 26 27  1  0
 26 28  1  0
 27 20  1  0
 28 30  2  0
 28 29  1  0
M  END
$$$$
