YQM.pdb
     RDKit          3D

 30 30  0  0  1  0  0  0  0  0999 V2000
   11.5168  -19.2247   29.6228 O   0  0  0  0  0  0  0  0  0  0  0  0
   10.5706  -19.3720   28.5922 C   0  0  0  0  0  0  0  0  0  0  0  0
   10.0292  -20.6067   28.3216 C   0  0  0  0  0  0  0  0  0  0  0  0
    9.0894  -20.7302   27.2917 C   0  0  0  0  0  0  0  0  0  0  0  0
    8.7023  -19.6342   26.5495 C   0  0  0  0  0  0  0  0  0  0  0  0
    7.7098  -19.7859   25.4653 C   0  0  0  0  0  0  0  0  0  0  0  0
    8.3194  -20.4064   24.2229 C   0  0  2  0  0  0  0  0  0  0  0  0
    9.1026  -21.6000   24.6050 N   0  0  0  0  0  0  0  0  0  0  0  0
    9.1429  -19.4460   23.4936 C   0  0  0  0  0  0  0  0  0  0  0  0
   10.4105  -19.4568   23.4530 O   0  0  0  0  0  0  0  0  0  0  0  0
    9.2603  -18.4154   26.8435 C   0  0  0  0  0  0  0  0  0  0  0  0
   10.2017  -18.2650   27.8676 C   0  0  0  0  0  0  0  0  0  0  0  0
    9.0706  -18.2407   18.7289 N   0  0  0  0  0  0  0  0  0  0  0  0
    7.7320  -18.0986   19.2016 C   0  0  0  0  0  0  0  0  0  0  0  0
    6.8263  -18.6680   18.5790 O   0  0  0  0  0  0  0  0  0  0  0  0
    7.5024  -17.2912   20.3833 C   0  0  0  0  0  0  0  0  0  0  0  0
    8.7454  -16.6792   20.9476 C   0  0  0  0  0  0  0  0  0  0  0  0
    9.2339  -17.2709   22.2433 C   0  0  2  0  0  0  0  0  0  0  0  0
    8.5415  -18.3881   22.7446 N   0  0  0  0  0  0  0  0  0  0  0  0
    9.3168  -16.1289   23.2032 C   0  0  0  0  0  0  0  0  0  0  0  0
    9.8410  -15.0714   22.7829 O   0  0  0  0  0  0  0  0  0  0  0  0
    6.5881  -10.3233   26.7461 C   0  0  0  0  0  0  0  0  0  0  0  0
    6.8867  -11.6275   25.4967 S   0  0  0  0  0  0  0  0  0  0  0  0
    7.2951  -13.1828   26.2603 C   0  0  0  0  0  0  0  0  0  0  0  0
    7.4997  -14.3494   25.3805 C   0  0  0  0  0  0  0  0  0  0  0  0
    8.8150  -15.0061   25.4384 C   0  0  2  0  0  0  0  0  0  0  0  0
    8.8527  -16.1642   24.5230 N   0  0  0  0  0  0  0  0  0  0  0  0
    9.4001  -15.3850   26.7059 C   0  0  0  0  0  0  0  0  0  0  0  0
    9.7943  -14.5608   27.7380 O   0  0  0  0  0  0  0  0  0  0  0  0
    9.5978  -16.6353   26.9336 O   0  0  0  0  0  0  0  0  0  0  0  0
  2  1  1  0
  3  2  2  0
  4  3  1  0
  5  4  2  0
  5 11  1  0
  6  5  1  0
  7  6  1  0
  7  9  1  0
  7  8  1  1
  9 10  2  0
 11 12  2  0
 12  2  1  0
 13 14  1  0
 14 15  2  0
 16 17  1  0
 16 14  1  0
 18 17  1  6
 19 18  1  0
 19  9  1  0
 20 18  1  0
 20 21  2  0
 23 22  1  0
 23 24  1  0
 24 25  1  0
 26 25  1  1
 26 27  1  0
 26 28  1  0
 27 20  1  0
 28 30  2  0
 28 29  1  0
M  END
$$$$
