YQM.pdb
     RDKit          3D

 30 30  0  0  1  0  0  0  0  0999 V2000
    7.8393  -12.0625   27.2594 O   0  0  0  0  0  0  0  0  0  0  0  0
    7.2664  -12.9612   26.3413 C   0  0  0  0  0  0  0  0  0  0  0  0
    5.9481  -12.8277   25.9735 C   0  0  0  0  0  0  0  0  0  0  0  0
    5.3986  -13.7332   25.0584 C   0  0  0  0  0  0  0  0  0  0  0  0
    6.1596  -14.7518   24.5244 C   0  0  0  0  0  0  0  0  0  0  0  0
    5.5603  -15.6984   23.5609 C   0  0  0  0  0  0  0  0  0  0  0  0
    6.2193  -17.0629   23.6239 C   0  0  2  0  0  0  0  0  0  0  0  0
    6.1079  -17.5983   24.9969 N   0  0  0  0  0  0  0  0  0  0  0  0
    7.6129  -17.0050   23.1913 C   0  0  0  0  0  0  0  0  0  0  0  0
    8.5484  -17.7277   23.6508 O   0  0  0  0  0  0  0  0  0  0  0  0
    7.4721  -14.8589   24.9107 C   0  0  0  0  0  0  0  0  0  0  0  0
    8.0454  -13.9671   25.8237 C   0  0  0  0  0  0  0  0  0  0  0  0
    8.3107  -15.4884   18.2080 N   0  0  0  0  0  0  0  0  0  0  0  0
    8.2816  -14.1916   18.8020 C   0  0  0  0  0  0  0  0  0  0  0  0
    8.1238  -13.2111   18.0631 O   0  0  0  0  0  0  0  0  0  0  0  0
    8.4429  -14.0899   20.2389 C   0  0  0  0  0  0  0  0  0  0  0  0
    9.6369  -14.8212   20.7659 C   0  0  0  0  0  0  0  0  0  0  0  0
    9.3414  -15.9701   21.6934 C   0  0  2  0  0  0  0  0  0  0  0  0
    8.0250  -16.0893   22.1747 N   0  0  0  0  0  0  0  0  0  0  0  0
   10.3755  -15.8970   22.7694 C   0  0  0  0  0  0  0  0  0  0  0  0
   11.5583  -15.6993   22.4070 O   0  0  0  0  0  0  0  0  0  0  0  0
   11.8588  -14.6339   30.4955 C   0  0  0  0  0  0  0  0  0  0  0  0
   10.6550  -14.6397   29.1164 S   0  0  0  0  0  0  0  0  0  0  0  0
   11.3817  -15.2671   27.6173 C   0  0  0  0  0  0  0  0  0  0  0  0
   10.5353  -15.3165   26.4099 C   0  0  0  0  0  0  0  0  0  0  0  0
   11.1217  -15.9314   25.2088 C   0  0  2  0  0  0  0  0  0  0  0  0
   10.1111  -16.0331   24.1370 N   0  0  0  0  0  0  0  0  0  0  0  0
   11.8492  -17.1789   25.2936 C   0  0  0  0  0  0  0  0  0  0  0  0
   13.1248  -17.3856   25.7733 O   0  0  0  0  0  0  0  0  0  0  0  0
   11.2708  -18.2486   24.8749 O   0  0  0  0  0  0  0  0  0  0  0  0
  2  1  1  0
  3  2  2  0
  4  3  1  0
  5  4  2  0
  5 11  1  0
  6  5  1  0
  7  6  1  0
  7  9  1  0
  7  8  1  1
  9 10  2  0
 11 12  2  0
 12  2  1  0
 13 14  1  0
 14 15  2  0
 16 17  1  0
 16 14  1  0
 18 17  1  1
 19 18  1  0
 19  9  1  0
 20 18  1  0
 20 21  2  0
 23 22  1  0
 23 24  1  0
 24 25  1  0
 26 25  1  1
 26 27  1  0
 26 28  1  0
 27 20  1  0
 28 30  2  0
 28 29  1  0
M  END
$$$$
