YQM.pdb
     RDKit          3D

 30 30  0  0  1  0  0  0  0  0999 V2000
    7.4281  -12.5165   17.1271 O   0  0  0  0  0  0  0  0  0  0  0  0
    7.6256  -13.1492   18.3679 C   0  0  0  0  0  0  0  0  0  0  0  0
    6.5912  -13.8236   18.9730 C   0  0  0  0  0  0  0  0  0  0  0  0
    6.8101  -14.4458   20.2075 C   0  0  0  0  0  0  0  0  0  0  0  0
    8.0442  -14.3907   20.8206 C   0  0  0  0  0  0  0  0  0  0  0  0
    8.2545  -15.0529   22.1247 C   0  0  0  0  0  0  0  0  0  0  0  0
    8.6658  -16.5038   21.9628 C   0  0  2  0  0  0  0  0  0  0  0  0
    7.5941  -17.2418   21.2622 N   0  0  0  0  0  0  0  0  0  0  0  0
    8.9758  -17.1193   23.2503 C   0  0  0  0  0  0  0  0  0  0  0  0
    8.1691  -17.8167   23.9368 O   0  0  0  0  0  0  0  0  0  0  0  0
    9.0568  -13.7103   20.1920 C   0  0  0  0  0  0  0  0  0  0  0  0
    8.8641  -13.0798   18.9580 C   0  0  0  0  0  0  0  0  0  0  0  0
   11.1013  -21.3539   25.3009 N   0  0  0  0  0  0  0  0  0  0  0  0
   11.6554  -20.6987   26.4407 C   0  0  0  0  0  0  0  0  0  0  0  0
   11.8164  -21.3580   27.4759 O   0  0  0  0  0  0  0  0  0  0  0  0
   11.9962  -19.2943   26.3282 C   0  0  0  0  0  0  0  0  0  0  0  0
   11.6336  -18.6886   25.0092 C   0  0  0  0  0  0  0  0  0  0  0  0
   10.6599  -17.5412   25.0637 C   0  0  2  0  0  0  0  0  0  0  0  0
   10.2684  -16.9678   23.8403 N   0  0  0  0  0  0  0  0  0  0  0  0
   11.2413  -16.5635   26.0324 C   0  0  0  0  0  0  0  0  0  0  0  0
   12.0906  -17.0033   26.8416 O   0  0  0  0  0  0  0  0  0  0  0  0
    6.6862  -11.6009   26.5701 C   0  0  0  0  0  0  0  0  0  0  0  0
    6.7084  -12.7684   27.9800 S   0  0  0  0  0  0  0  0  0  0  0  0
    8.3334  -13.4465   28.2414 C   0  0  0  0  0  0  0  0  0  0  0  0
    9.0178  -14.0594   27.0870 C   0  0  0  0  0  0  0  0  0  0  0  0
   10.4022  -14.5118   27.2954 C   0  0  2  0  0  0  0  0  0  0  0  0
   10.9031  -15.2068   26.0927 N   0  0  0  0  0  0  0  0  0  0  0  0
   10.7646  -15.2757   28.4691 C   0  0  0  0  0  0  0  0  0  0  0  0
   10.5445  -16.6149   28.7106 O   0  0  0  0  0  0  0  0  0  0  0  0
   11.3625  -14.6649   29.4302 O   0  0  0  0  0  0  0  0  0  0  0  0
  2  1  1  0
  3  2  2  0
  4  3  1  0
  5  4  2  0
  5 11  1  0
  6  5  1  0
  7  6  1  0
  7  9  1  0
  7  8  1  1
  9 10  2  0
 11 12  2  0
 12  2  1  0
 13 14  1  0
 14 15  2  0
 16 17  1  0
 16 14  1  0
 18 17  1  6
 19 18  1  0
 19  9  1  0
 20 18  1  0
 20 21  2  0
 23 22  1  0
 23 24  1  0
 24 25  1  0
 26 25  1  6
 26 27  1  0
 26 28  1  0
 27 20  1  0
 28 30  2  0
 28 29  1  0
M  END
$$$$
