DPH.pdb
     RDKit          3D

 26 27  0  0  1  0  0  0  0  0999 V2000
    9.8233  -18.3643   19.5214 N   0  0  0  0  0  0  0  0  0  0  0  0
    8.7803  -17.8181   20.2930 C   0  0  1  0  0  0  0  0  0  0  0  0
    8.0746  -19.0235   20.9543 C   0  0  0  0  0  0  0  0  0  0  0  0
    7.4975  -19.8960   19.8700 C   0  0  0  0  0  0  0  0  0  0  0  0
    8.1942  -20.8279   19.3963 O   0  0  0  0  0  0  0  0  0  0  0  0
    9.1170  -16.8241   21.3154 C   0  0  0  0  0  0  0  0  0  0  0  0
    9.9712  -17.2350   22.1848 O   0  0  0  0  0  0  0  0  0  0  0  0
    6.2354  -19.7124   19.3769 O   0  0  0  0  0  0  0  0  0  0  0  0
    8.6325  -15.5276   21.4460 N   0  0  0  0  0  0  0  0  0  0  0  0
    8.1264  -14.6837   20.3765 C   0  0  0  0  0  0  0  0  0  0  0  0
    6.7538  -14.3175   20.9620 C   0  0  0  0  0  0  0  0  0  0  0  0
    6.8893  -14.5455   22.4845 C   0  0  0  0  0  0  0  0  0  0  0  0
    8.3853  -14.6566   22.5736 C   0  0  1  0  0  0  0  0  0  0  0  0
    8.9172  -14.9490   23.8601 C   0  0  0  0  0  0  0  0  0  0  0  0
    9.8885  -14.2027   24.2763 O   0  0  0  0  0  0  0  0  0  0  0  0
    8.5690  -15.9437   24.7969 N   0  0  0  0  0  0  0  0  0  0  0  0
    9.0241  -15.9711   26.1699 C   0  0  1  0  0  0  0  0  0  0  0  0
    7.9859  -15.5786   27.1686 C   0  0  0  0  0  0  0  0  0  0  0  0
    7.3665  -14.2608   26.8915 C   0  0  0  0  0  0  0  0  0  0  0  0
    7.9897  -13.0734   27.2199 C   0  0  0  0  0  0  0  0  0  0  0  0
    7.2188  -12.0559   26.8627 N   0  0  0  0  0  0  0  0  0  0  0  0
    6.1197  -12.5951   26.3143 C   0  0  0  0  0  0  0  0  0  0  0  0
    6.2059  -13.9369   26.3300 N   0  0  0  0  0  0  0  0  0  0  0  0
    9.4707  -17.3545   26.4883 C   0  0  0  0  0  0  0  0  0  0  0  0
   10.0061  -17.6729   27.7343 O   0  0  0  0  0  0  0  0  0  0  0  0
    9.3899  -18.2989   25.6604 O   0  0  0  0  0  0  0  0  0  0  0  0
  2  1  1  1
  2  3  1  0
  3  4  1  0
  4  8  1  0
  4  5  2  0
  6  2  1  0
  7  6  2  0
  9  6  1  0
  9 13  1  0
 10 11  1  0
 10  9  1  0
 11 12  1  0
 12 13  1  0
 13 14  1  1
 14 15  2  0
 16 14  1  0
 17 16  1  0
 17 24  1  0
 17 18  1  1
 19 23  1  0
 19 18  1  0
 20 19  2  0
 21 20  1  0
 21 22  1  0
 22 23  2  0
 24 25  1  0
 26 24  2  0
M  END
$$$$
