DPH.pdb
     RDKit          3D

 26 27  0  0  1  0  0  0  0  0999 V2000
   10.1387  -15.2383   15.1435 N   0  0  0  0  0  0  0  0  0  0  0  0
    9.1670  -15.2416   16.1619 C   0  0  1  0  0  0  0  0  0  0  0  0
    8.4240  -16.5899   16.0259 C   0  0  0  0  0  0  0  0  0  0  0  0
    7.9807  -16.7516   14.5951 C   0  0  0  0  0  0  0  0  0  0  0  0
    8.2950  -15.8744   13.7524 O   0  0  0  0  0  0  0  0  0  0  0  0
    9.6090  -15.0614   17.5472 C   0  0  0  0  0  0  0  0  0  0  0  0
   10.5813  -15.8300   17.8913 O   0  0  0  0  0  0  0  0  0  0  0  0
    7.2439  -17.8236   14.1737 O   0  0  0  0  0  0  0  0  0  0  0  0
    9.1115  -14.1801   18.5003 N   0  0  0  0  0  0  0  0  0  0  0  0
    8.7280  -12.7959   18.2788 C   0  0  0  0  0  0  0  0  0  0  0  0
    7.2978  -12.8297   18.8395 C   0  0  0  0  0  0  0  0  0  0  0  0
    7.2614  -14.0537   19.7821 C   0  0  0  0  0  0  0  0  0  0  0  0
    8.7380  -14.3108   19.8912 C   0  0  1  0  0  0  0  0  0  0  0  0
    9.1221  -15.4493   20.6527 C   0  0  0  0  0  0  0  0  0  0  0  0
    8.7957  -16.6083   20.1793 O   0  0  0  0  0  0  0  0  0  0  0  0
    9.8149  -15.5483   21.8768 N   0  0  0  0  0  0  0  0  0  0  0  0
   10.5231  -16.7279   22.3240 C   0  0  1  0  0  0  0  0  0  0  0  0
   11.6514  -17.1396   21.4370 C   0  0  0  0  0  0  0  0  0  0  0  0
   12.3364  -18.3751   21.8857 C   0  0  0  0  0  0  0  0  0  0  0  0
   11.6785  -19.3654   22.5876 C   0  0  0  0  0  0  0  0  0  0  0  0
   12.5232  -20.3498   22.8603 N   0  0  0  0  0  0  0  0  0  0  0  0
   13.7029  -19.9851   22.3360 C   0  0  0  0  0  0  0  0  0  0  0  0
   13.5932  -18.7837   21.7420 N   0  0  0  0  0  0  0  0  0  0  0  0
   11.0766  -16.4570   23.6787 C   0  0  0  0  0  0  0  0  0  0  0  0
   11.1421  -17.4569   24.6464 O   0  0  0  0  0  0  0  0  0  0  0  0
   11.5097  -15.3252   24.0186 O   0  0  0  0  0  0  0  0  0  0  0  0
  2  1  1  6
  2  3  1  0
  3  4  1  0
  4  8  1  0
  4  5  2  0
  6  2  1  0
  7  6  2  0
  9  6  1  0
  9 13  1  0
 10 11  1  0
 10  9  1  0
 11 12  1  0
 12 13  1  0
 13 14  1  6
 14 15  2  0
 16 14  1  0
 17 16  1  0
 17 24  1  0
 17 18  1  6
 19 23  1  0
 19 18  1  0
 20 19  2  0
 21 20  1  0
 21 22  1  0
 22 23  2  0
 24 25  1  0
 26 24  2  0
M  END
$$$$
