DPH.pdb
     RDKit          3D

 26 27  0  0  1  0  0  0  0  0999 V2000
   12.5235  -14.9416   17.3364 N   0  0  0  0  0  0  0  0  0  0  0  0
   11.1944  -15.0418   17.7889 C   0  0  1  0  0  0  0  0  0  0  0  0
   10.8598  -16.5505   17.7714 C   0  0  0  0  0  0  0  0  0  0  0  0
   11.1982  -17.1015   16.4106 C   0  0  0  0  0  0  0  0  0  0  0  0
   10.7176  -16.5510   15.3887 O   0  0  0  0  0  0  0  0  0  0  0  0
   10.8606  -14.4794   19.1001 C   0  0  0  0  0  0  0  0  0  0  0  0
   11.7118  -14.7597   20.0228 O   0  0  0  0  0  0  0  0  0  0  0  0
   12.0143  -18.1856   16.2421 O   0  0  0  0  0  0  0  0  0  0  0  0
    9.7623  -13.7009   19.4470 N   0  0  0  0  0  0  0  0  0  0  0  0
    9.1950  -12.6132   18.6676 C   0  0  0  0  0  0  0  0  0  0  0  0
    7.7331  -13.0809   18.5949 C   0  0  0  0  0  0  0  0  0  0  0  0
    7.5616  -14.0588   19.7791 C   0  0  0  0  0  0  0  0  0  0  0  0
    8.8154  -13.7299   20.5394 C   0  0  1  0  0  0  0  0  0  0  0  0
    9.0622  -14.5040   21.7071 C   0  0  0  0  0  0  0  0  0  0  0  0
    8.1215  -14.5426   22.5944 O   0  0  0  0  0  0  0  0  0  0  0  0
   10.1887  -15.2608   22.0900 N   0  0  0  0  0  0  0  0  0  0  0  0
   10.2861  -16.0210   23.3169 C   0  0  1  0  0  0  0  0  0  0  0  0
    9.3421  -17.1748   23.4007 C   0  0  0  0  0  0  0  0  0  0  0  0
    9.5625  -18.1972   22.3503 C   0  0  0  0  0  0  0  0  0  0  0  0
   10.5702  -18.0816   21.4137 C   0  0  0  0  0  0  0  0  0  0  0  0
   10.5399  -19.1278   20.6003 N   0  0  0  0  0  0  0  0  0  0  0  0
    9.5234  -19.8965   21.0188 C   0  0  0  0  0  0  0  0  0  0  0  0
    8.9260  -19.3334   22.0839 N   0  0  0  0  0  0  0  0  0  0  0  0
   11.6723  -16.5502   23.4319 C   0  0  0  0  0  0  0  0  0  0  0  0
   12.6181  -16.3231   22.4347 O   0  0  0  0  0  0  0  0  0  0  0  0
   12.0599  -17.2224   24.4228 O   0  0  0  0  0  0  0  0  0  0  0  0
  2  1  1  1
  2  3  1  0
  3  4  1  0
  4  8  1  0
  4  5  2  0
  6  2  1  0
  7  6  2  0
  9  6  1  0
  9 13  1  0
 10 11  1  0
 10  9  1  0
 11 12  1  0
 12 13  1  0
 13 14  1  1
 14 15  2  0
 16 14  1  0
 17 16  1  0
 17 24  1  0
 17 18  1  6
 19 23  1  0
 19 18  1  0
 20 19  2  0
 21 20  1  0
 21 22  1  0
 22 23  2  0
 24 25  1  0
 26 24  2  0
M  END
$$$$
