DPH.pdb
     RDKit          3D

 26 27  0  0  1  0  0  0  0  0999 V2000
    9.3625  -15.6719   21.0132 N   0  0  0  0  0  0  0  0  0  0  0  0
    8.3547  -15.6797   21.9958 C   0  0  1  0  0  0  0  0  0  0  0  0
    7.6057  -17.0195   21.8154 C   0  0  0  0  0  0  0  0  0  0  0  0
    7.3132  -17.2124   20.3501 C   0  0  0  0  0  0  0  0  0  0  0  0
    7.0655  -16.2086   19.6364 O   0  0  0  0  0  0  0  0  0  0  0  0
    8.7479  -15.5213   23.3983 C   0  0  0  0  0  0  0  0  0  0  0  0
    9.5589  -16.4259   23.8207 O   0  0  0  0  0  0  0  0  0  0  0  0
    7.3065  -18.4465   19.7613 O   0  0  0  0  0  0  0  0  0  0  0  0
    8.3556  -14.5336   24.2946 N   0  0  0  0  0  0  0  0  0  0  0  0
    8.1372  -13.1294   23.9901 C   0  0  0  0  0  0  0  0  0  0  0  0
    6.7121  -12.9631   24.5399 C   0  0  0  0  0  0  0  0  0  0  0  0
    6.5313  -14.1172   25.5516 C   0  0  0  0  0  0  0  0  0  0  0  0
    7.9675  -14.5381   25.6876 C   0  0  1  0  0  0  0  0  0  0  0  0
    8.2144  -15.6672   26.5170 C   0  0  0  0  0  0  0  0  0  0  0  0
    7.1938  -16.1872   27.1183 O   0  0  0  0  0  0  0  0  0  0  0  0
    9.4138  -16.3448   26.8179 N   0  0  0  0  0  0  0  0  0  0  0  0
    9.4986  -17.5368   27.6334 C   0  0  1  0  0  0  0  0  0  0  0  0
    9.8463  -18.7754   26.8756 C   0  0  0  0  0  0  0  0  0  0  0  0
    8.8332  -19.1525   25.8613 C   0  0  0  0  0  0  0  0  0  0  0  0
    7.4928  -18.8618   26.0195 C   0  0  0  0  0  0  0  0  0  0  0  0
    6.8166  -19.3091   24.9708 N   0  0  0  0  0  0  0  0  0  0  0  0
    7.7207  -19.8766   24.1583 C   0  0  0  0  0  0  0  0  0  0  0  0
    8.9493  -19.7833   24.6969 N   0  0  0  0  0  0  0  0  0  0  0  0
   10.5442  -17.3220   28.6704 C   0  0  0  0  0  0  0  0  0  0  0  0
   11.3059  -16.1561   28.6989 O   0  0  0  0  0  0  0  0  0  0  0  0
   10.7934  -18.1707   29.5658 O   0  0  0  0  0  0  0  0  0  0  0  0
  2  1  1  6
  2  3  1  0
  3  4  1  0
  4  8  1  0
  4  5  2  0
  6  2  1  0
  7  6  2  0
  9  6  1  0
  9 13  1  0
 10 11  1  0
 10  9  1  0
 11 12  1  0
 12 13  1  0
 13 14  1  6
 14 15  2  0
 16 14  1  0
 17 16  1  0
 17 24  1  0
 17 18  1  6
 19 23  1  0
 19 18  1  0
 20 19  2  0
 21 20  1  0
 21 22  1  0
 22 23  2  0
 24 25  1  0
 26 24  2  0
M  END
$$$$
