DPH.pdb
     RDKit          3D

 26 27  0  0  1  0  0  0  0  0999 V2000
   11.8972  -16.4860   19.7882 N   0  0  0  0  0  0  0  0  0  0  0  0
   10.5461  -16.7173   20.1085 C   0  0  1  0  0  0  0  0  0  0  0  0
   10.4283  -18.2396   20.3478 C   0  0  0  0  0  0  0  0  0  0  0  0
   11.0983  -18.9583   19.2057 C   0  0  0  0  0  0  0  0  0  0  0  0
   11.3273  -18.3359   18.1387 O   0  0  0  0  0  0  0  0  0  0  0  0
    9.9656  -15.9949   21.2433 C   0  0  0  0  0  0  0  0  0  0  0  0
   10.7863  -15.7969   22.2138 O   0  0  0  0  0  0  0  0  0  0  0  0
   11.4702  -20.2718   19.2848 O   0  0  0  0  0  0  0  0  0  0  0  0
    8.6687  -15.5142   21.3835 N   0  0  0  0  0  0  0  0  0  0  0  0
    7.8937  -14.8147   20.3724 C   0  0  0  0  0  0  0  0  0  0  0  0
    6.6305  -15.6896   20.3621 C   0  0  0  0  0  0  0  0  0  0  0  0
    6.6324  -16.4193   21.7243 C   0  0  0  0  0  0  0  0  0  0  0  0
    7.6742  -15.5977   22.4300 C   0  0  1  0  0  0  0  0  0  0  0  0
    8.0215  -16.0189   23.7437 C   0  0  0  0  0  0  0  0  0  0  0  0
    8.7229  -17.1011   23.8460 O   0  0  0  0  0  0  0  0  0  0  0  0
    7.7256  -15.4535   25.0011 N   0  0  0  0  0  0  0  0  0  0  0  0
    8.1181  -16.0272   26.2698 C   0  0  1  0  0  0  0  0  0  0  0  0
    7.7864  -15.1814   27.4548 C   0  0  0  0  0  0  0  0  0  0  0  0
    7.5682  -13.7539   27.1204 C   0  0  0  0  0  0  0  0  0  0  0  0
    6.3083  -13.2385   26.8896 C   0  0  0  0  0  0  0  0  0  0  0  0
    6.4033  -11.9454   26.6140 N   0  0  0  0  0  0  0  0  0  0  0  0
    7.7099  -11.6470   26.6701 C   0  0  0  0  0  0  0  0  0  0  0  0
    8.4222  -12.7452   26.9781 N   0  0  0  0  0  0  0  0  0  0  0  0
    7.4248  -17.3345   26.4278 C   0  0  0  0  0  0  0  0  0  0  0  0
    7.7726  -18.2192   27.4460 O   0  0  0  0  0  0  0  0  0  0  0  0
    6.4992  -17.7065   25.6604 O   0  0  0  0  0  0  0  0  0  0  0  0
  2  1  1  1
  2  3  1  0
  3  4  1  0
  4  8  1  0
  4  5  2  0
  6  2  1  0
  7  6  2  0
  9  6  1  0
  9 13  1  0
 10 11  1  0
 10  9  1  0
 11 12  1  0
 12 13  1  0
 13 14  1  1
 14 15  2  0
 16 14  1  0
 17 16  1  0
 17 24  1  0
 17 18  1  1
 19 23  1  0
 19 18  1  0
 20 19  2  0
 21 20  1  0
 21 22  1  0
 22 23  2  0
 24 25  1  0
 26 24  2  0
M  END
$$$$
