DPH.pdb
     RDKit          3D

 26 27  0  0  1  0  0  0  0  0999 V2000
   11.4594  -14.7032   15.9814 N   0  0  0  0  0  0  0  0  0  0  0  0
   10.2893  -14.8901   16.7412 C   0  0  1  0  0  0  0  0  0  0  0  0
    9.8583  -16.3531   16.4916 C   0  0  0  0  0  0  0  0  0  0  0  0
    9.6682  -16.5514   15.0102 C   0  0  0  0  0  0  0  0  0  0  0  0
    9.6133  -15.5462   14.2585 O   0  0  0  0  0  0  0  0  0  0  0  0
   10.3462  -14.6336   18.1826 C   0  0  0  0  0  0  0  0  0  0  0  0
   11.4250  -15.0491   18.7468 O   0  0  0  0  0  0  0  0  0  0  0  0
    9.5522  -17.7918   14.4466 O   0  0  0  0  0  0  0  0  0  0  0  0
    9.3955  -14.0104   18.9829 N   0  0  0  0  0  0  0  0  0  0  0  0
    8.5714  -12.8710   18.6156 C   0  0  0  0  0  0  0  0  0  0  0  0
    7.1808  -13.4443   18.9297 C   0  0  0  0  0  0  0  0  0  0  0  0
    7.4343  -14.5978   19.9264 C   0  0  0  0  0  0  0  0  0  0  0  0
    8.8557  -14.2806   20.2970 C   0  0  1  0  0  0  0  0  0  0  0  0
    9.4928  -15.1955   21.1806 C   0  0  0  0  0  0  0  0  0  0  0  0
    9.3611  -16.4548   20.9153 O   0  0  0  0  0  0  0  0  0  0  0  0
   10.2661  -14.9718   22.3383 N   0  0  0  0  0  0  0  0  0  0  0  0
   10.8856  -16.0166   23.1240 C   0  0  1  0  0  0  0  0  0  0  0  0
   12.3080  -15.7479   23.4900 C   0  0  0  0  0  0  0  0  0  0  0  0
   13.2123  -15.6525   22.3195 C   0  0  0  0  0  0  0  0  0  0  0  0
   12.8196  -16.0431   21.0549 C   0  0  0  0  0  0  0  0  0  0  0  0
   13.8170  -15.8514   20.2031 N   0  0  0  0  0  0  0  0  0  0  0  0
   14.8296  -15.3447   20.9224 C   0  0  0  0  0  0  0  0  0  0  0  0
   14.4654  -15.2221   22.2111 N   0  0  0  0  0  0  0  0  0  0  0  0
   10.1085  -16.1802   24.3826 C   0  0  0  0  0  0  0  0  0  0  0  0
   10.4097  -17.1912   25.2923 O   0  0  0  0  0  0  0  0  0  0  0  0
    9.1502  -15.4241   24.6891 O   0  0  0  0  0  0  0  0  0  0  0  0
  2  1  1  1
  2  3  1  0
  3  4  1  0
  4  8  1  0
  4  5  2  0
  6  2  1  0
  7  6  2  0
  9  6  1  0
  9 13  1  0
 10 11  1  0
 10  9  1  0
 11 12  1  0
 12 13  1  0
 13 14  1  6
 14 15  2  0
 16 14  1  0
 17 16  1  0
 17 24  1  0
 17 18  1  1
 19 23  1  0
 19 18  1  0
 20 19  2  0
 21 20  1  0
 21 22  1  0
 22 23  2  0
 24 25  1  0
 26 24  2  0
M  END
$$$$
