DPH.pdb
     RDKit          3D

 26 27  0  0  1  0  0  0  0  0999 V2000
    9.2242  -14.3305   15.3167 N   0  0  0  0  0  0  0  0  0  0  0  0
    8.7739  -14.9853   16.4786 C   0  0  1  0  0  0  0  0  0  0  0  0
    8.9866  -16.4935   16.2171 C   0  0  0  0  0  0  0  0  0  0  0  0
    8.3491  -16.8467   14.8985 C   0  0  0  0  0  0  0  0  0  0  0  0
    7.0963  -16.8838   14.8129 O   0  0  0  0  0  0  0  0  0  0  0  0
    9.3770  -14.6192   17.7627 C   0  0  0  0  0  0  0  0  0  0  0  0
   10.6232  -14.9223   17.8620 O   0  0  0  0  0  0  0  0  0  0  0  0
    9.0858  -17.1307   13.7820 O   0  0  0  0  0  0  0  0  0  0  0  0
    8.7726  -13.9997   18.8506 N   0  0  0  0  0  0  0  0  0  0  0  0
    7.8785  -12.8548   18.8046 C   0  0  0  0  0  0  0  0  0  0  0  0
    6.6843  -13.4265   19.5845 C   0  0  0  0  0  0  0  0  0  0  0  0
    7.2659  -14.5889   20.4204 C   0  0  0  0  0  0  0  0  0  0  0  0
    8.7285  -14.2791   20.2687 C   0  0  1  0  0  0  0  0  0  0  0  0
    9.6306  -15.2032   20.8653 C   0  0  0  0  0  0  0  0  0  0  0  0
    9.4439  -16.4564   20.6042 O   0  0  0  0  0  0  0  0  0  0  0  0
   10.7288  -14.9948   21.7250 N   0  0  0  0  0  0  0  0  0  0  0  0
   11.5948  -16.0442   22.2166 C   0  0  1  0  0  0  0  0  0  0  0  0
   13.0483  -15.8052   21.9725 C   0  0  0  0  0  0  0  0  0  0  0  0
   13.4033  -15.7362   20.5350 C   0  0  0  0  0  0  0  0  0  0  0  0
   13.4319  -14.5420   19.8427 C   0  0  0  0  0  0  0  0  0  0  0  0
   13.7782  -14.7691   18.5835 N   0  0  0  0  0  0  0  0  0  0  0  0
   13.9666  -16.0934   18.4814 C   0  0  0  0  0  0  0  0  0  0  0  0
   13.7394  -16.6854   19.6672 N   0  0  0  0  0  0  0  0  0  0  0  0
   11.3888  -16.1727   23.6849 C   0  0  0  0  0  0  0  0  0  0  0  0
   10.4590  -15.3824   24.3567 O   0  0  0  0  0  0  0  0  0  0  0  0
   12.0349  -16.9913   24.3896 O   0  0  0  0  0  0  0  0  0  0  0  0
  2  1  1  6
  2  3  1  0
  3  4  1  0
  4  8  1  0
  4  5  2  0
  6  2  1  0
  7  6  2  0
  9  6  1  0
  9 13  1  0
 10 11  1  0
 10  9  1  0
 11 12  1  0
 12 13  1  0
 13 14  1  6
 14 15  2  0
 16 14  1  0
 17 16  1  0
 17 24  1  0
 17 18  1  1
 19 23  1  0
 19 18  1  0
 20 19  2  0
 21 20  1  0
 21 22  1  0
 22 23  2  0
 24 25  1  0
 26 24  2  0
M  END
$$$$
