DPH.pdb
     RDKit          3D

 26 27  0  0  1  0  0  0  0  0999 V2000
    8.4834  -14.9396   15.3242 N   0  0  0  0  0  0  0  0  0  0  0  0
    9.2904  -15.8362   16.0497 C   0  0  1  0  0  0  0  0  0  0  0  0
   10.6491  -15.8647   15.3138 C   0  0  0  0  0  0  0  0  0  0  0  0
   10.4470  -16.4873   13.9568 C   0  0  0  0  0  0  0  0  0  0  0  0
    9.2828  -16.5905   13.4961 O   0  0  0  0  0  0  0  0  0  0  0  0
    9.5089  -15.5794   17.4756 C   0  0  0  0  0  0  0  0  0  0  0  0
   10.1607  -16.5082   18.0816 O   0  0  0  0  0  0  0  0  0  0  0  0
   11.4887  -16.9484   13.2005 O   0  0  0  0  0  0  0  0  0  0  0  0
    9.1045  -14.4789   18.2226 N   0  0  0  0  0  0  0  0  0  0  0  0
    8.6841  -13.1893   17.7008 C   0  0  0  0  0  0  0  0  0  0  0  0
    7.3213  -13.0586   18.3984 C   0  0  0  0  0  0  0  0  0  0  0  0
    7.3982  -14.0052   19.6175 C   0  0  0  0  0  0  0  0  0  0  0  0
    8.8809  -14.2494   19.6327 C   0  0  1  0  0  0  0  0  0  0  0  0
    9.3558  -15.1654   20.6119 C   0  0  0  0  0  0  0  0  0  0  0  0
    8.7844  -16.3253   20.6556 O   0  0  0  0  0  0  0  0  0  0  0  0
   10.3700  -15.0330   21.5826 N   0  0  0  0  0  0  0  0  0  0  0  0
   10.7944  -16.0911   22.4733 C   0  0  1  0  0  0  0  0  0  0  0  0
   11.9378  -15.7245   23.3609 C   0  0  0  0  0  0  0  0  0  0  0  0
   12.4216  -16.8486   24.1972 C   0  0  0  0  0  0  0  0  0  0  0  0
   12.1048  -18.1625   23.9152 C   0  0  0  0  0  0  0  0  0  0  0  0
   12.6649  -18.9558   24.8174 N   0  0  0  0  0  0  0  0  0  0  0  0
   13.3289  -18.1512   25.6608 C   0  0  0  0  0  0  0  0  0  0  0  0
   13.1832  -16.8679   25.2866 N   0  0  0  0  0  0  0  0  0  0  0  0
    9.6423  -16.4671   23.3371 C   0  0  0  0  0  0  0  0  0  0  0  0
    8.5345  -15.6329   23.4688 O   0  0  0  0  0  0  0  0  0  0  0  0
    9.6071  -17.5446   23.9866 O   0  0  0  0  0  0  0  0  0  0  0  0
  2  1  1  6
  2  3  1  0
  3  4  1  0
  4  8  1  0
  4  5  2  0
  6  2  1  0
  7  6  2  0
  9  6  1  0
  9 13  1  0
 10 11  1  0
 10  9  1  0
 11 12  1  0
 12 13  1  0
 13 14  1  1
 14 15  2  0
 16 14  1  0
 17 16  1  0
 17 24  1  0
 17 18  1  1
 19 23  1  0
 19 18  1  0
 20 19  2  0
 21 20  1  0
 21 22  1  0
 22 23  2  0
 24 25  1  0
 26 24  2  0
M  END
$$$$
