DPH.pdb
     RDKit          3D

 26 27  0  0  1  0  0  0  0  0999 V2000
    9.4706  -14.8244   15.1122 N   0  0  0  0  0  0  0  0  0  0  0  0
    8.8713  -15.5871   16.1324 C   0  0  1  0  0  0  0  0  0  0  0  0
    9.0951  -17.0640   15.7359 C   0  0  0  0  0  0  0  0  0  0  0  0
    8.4118  -17.9425   16.7514 C   0  0  0  0  0  0  0  0  0  0  0  0
    7.2597  -17.6384   17.1497 O   0  0  0  0  0  0  0  0  0  0  0  0
    9.3155  -15.3759   17.5125 C   0  0  0  0  0  0  0  0  0  0  0  0
   10.1647  -16.2477   17.9291 O   0  0  0  0  0  0  0  0  0  0  0  0
    9.0002  -19.0667   17.2610 O   0  0  0  0  0  0  0  0  0  0  0  0
    8.9345  -14.3703   18.3936 N   0  0  0  0  0  0  0  0  0  0  0  0
    8.4591  -13.0443   18.0361 C   0  0  0  0  0  0  0  0  0  0  0  0
    7.1377  -13.0222   18.8198 C   0  0  0  0  0  0  0  0  0  0  0  0
    7.3048  -14.0889   19.9254 C   0  0  0  0  0  0  0  0  0  0  0  0
    8.7903  -14.2954   19.8305 C   0  0  1  0  0  0  0  0  0  0  0  0
    9.3400  -15.2964   20.6787 C   0  0  0  0  0  0  0  0  0  0  0  0
    8.8797  -16.4978   20.5422 O   0  0  0  0  0  0  0  0  0  0  0  0
   10.3280  -15.2139   21.6813 N   0  0  0  0  0  0  0  0  0  0  0  0
   10.8793  -16.3522   22.3836 C   0  0  1  0  0  0  0  0  0  0  0  0
   12.3578  -16.2930   22.5834 C   0  0  0  0  0  0  0  0  0  0  0  0
   12.9001  -17.4493   23.3357 C   0  0  0  0  0  0  0  0  0  0  0  0
   12.3644  -18.7165   23.2201 C   0  0  0  0  0  0  0  0  0  0  0  0
   13.0368  -19.5535   23.9975 N   0  0  0  0  0  0  0  0  0  0  0  0
   13.9877  -18.8224   24.5982 C   0  0  0  0  0  0  0  0  0  0  0  0
   13.9077  -17.5411   24.1980 N   0  0  0  0  0  0  0  0  0  0  0  0
   10.2359  -16.4335   23.7230 C   0  0  0  0  0  0  0  0  0  0  0  0
   10.3712  -17.5659   24.5229 O   0  0  0  0  0  0  0  0  0  0  0  0
    9.5440  -15.4962   24.1992 O   0  0  0  0  0  0  0  0  0  0  0  0
  2  1  1  6
  2  3  1  0
  3  4  1  0
  4  8  1  0
  4  5  2  0
  6  2  1  0
  7  6  2  0
  9  6  1  0
  9 13  1  0
 10 11  1  0
 10  9  1  0
 11 12  1  0
 12 13  1  0
 13 14  1  1
 14 15  2  0
 16 14  1  0
 17 16  1  0
 17 24  1  0
 17 18  1  1
 19 23  1  0
 19 18  1  0
 20 19  2  0
 21 20  1  0
 21 22  1  0
 22 23  2  0
 24 25  1  0
 26 24  2  0
M  END
$$$$
