DPH.pdb
     RDKit          3D

 26 27  0  0  1  0  0  0  0  0999 V2000
    9.3931  -17.3100   17.0499 N   0  0  0  0  0  0  0  0  0  0  0  0
    8.5340  -16.9371   18.1008 C   0  0  1  0  0  0  0  0  0  0  0  0
    7.8050  -18.2325   18.5240 C   0  0  0  0  0  0  0  0  0  0  0  0
    7.1131  -18.8102   17.3168 C   0  0  0  0  0  0  0  0  0  0  0  0
    7.7506  -19.5770   16.5526 O   0  0  0  0  0  0  0  0  0  0  0  0
    9.1158  -16.2925   19.2809 C   0  0  0  0  0  0  0  0  0  0  0  0
   10.0879  -16.9477   19.8104 O   0  0  0  0  0  0  0  0  0  0  0  0
    5.8085  -18.5311   17.0174 O   0  0  0  0  0  0  0  0  0  0  0  0
    8.7471  -15.0898   19.8728 N   0  0  0  0  0  0  0  0  0  0  0  0
    8.4148  -13.8547   19.1828 C   0  0  0  0  0  0  0  0  0  0  0  0
    7.0388  -13.5716   19.8052 C   0  0  0  0  0  0  0  0  0  0  0  0
    7.0238  -14.3641   21.1318 C   0  0  0  0  0  0  0  0  0  0  0  0
    8.4898  -14.6781   21.2349 C   0  0  1  0  0  0  0  0  0  0  0  0
    8.8817  -15.4894   22.3357 C   0  0  0  0  0  0  0  0  0  0  0  0
    8.0323  -16.3769   22.7414 O   0  0  0  0  0  0  0  0  0  0  0  0
   10.0690  -15.4998   23.0963 N   0  0  0  0  0  0  0  0  0  0  0  0
   10.3058  -16.3624   24.2332 C   0  0  1  0  0  0  0  0  0  0  0  0
   11.7477  -16.6436   24.5006 C   0  0  0  0  0  0  0  0  0  0  0  0
   12.4091  -17.4180   23.4236 C   0  0  0  0  0  0  0  0  0  0  0  0
   11.6960  -18.0038   22.3968 C   0  0  0  0  0  0  0  0  0  0  0  0
   12.5310  -18.6295   21.5793 N   0  0  0  0  0  0  0  0  0  0  0  0
   13.7593  -18.4409   22.0846 C   0  0  0  0  0  0  0  0  0  0  0  0
   13.6892  -17.7039   23.2072 N   0  0  0  0  0  0  0  0  0  0  0  0
    9.7307  -15.7130   25.4425 C   0  0  0  0  0  0  0  0  0  0  0  0
    9.7322  -16.3556   26.6784 O   0  0  0  0  0  0  0  0  0  0  0  0
    9.2187  -14.5636   25.4143 O   0  0  0  0  0  0  0  0  0  0  0  0
  2  1  1  6
  2  3  1  0
  3  4  1  0
  4  8  1  0
  4  5  2  0
  6  2  1  0
  7  6  2  0
  9  6  1  0
  9 13  1  0
 10 11  1  0
 10  9  1  0
 11 12  1  0
 12 13  1  0
 13 14  1  1
 14 15  2  0
 16 14  1  0
 17 16  1  0
 17 24  1  0
 17 18  1  1
 19 23  1  0
 19 18  1  0
 20 19  2  0
 21 20  1  0
 21 22  1  0
 22 23  2  0
 24 25  1  0
 26 24  2  0
M  END
$$$$
