DPH.pdb
     RDKit          3D

 26 27  0  0  1  0  0  0  0  0999 V2000
    9.0143  -16.9687   17.2984 N   0  0  0  0  0  0  0  0  0  0  0  0
    8.3345  -17.2343   18.5021 C   0  0  1  0  0  0  0  0  0  0  0  0
    8.3443  -18.7720   18.6567 C   0  0  0  0  0  0  0  0  0  0  0  0
    7.7434  -19.3829   17.4175 C   0  0  0  0  0  0  0  0  0  0  0  0
    6.9773  -18.6909   16.7016 O   0  0  0  0  0  0  0  0  0  0  0  0
    8.8292  -16.6133   19.7334 C   0  0  0  0  0  0  0  0  0  0  0  0
    9.4423  -17.4254   20.5204 O   0  0  0  0  0  0  0  0  0  0  0  0
    8.0008  -20.6711   17.0377 O   0  0  0  0  0  0  0  0  0  0  0  0
    8.7147  -15.2867   20.1330 N   0  0  0  0  0  0  0  0  0  0  0  0
    8.5684  -14.1327   19.2618 C   0  0  0  0  0  0  0  0  0  0  0  0
    7.3025  -13.5080   19.8687 C   0  0  0  0  0  0  0  0  0  0  0  0
    7.2229  -14.0701   21.3060 C   0  0  0  0  0  0  0  0  0  0  0  0
    8.6131  -14.6297   21.4172 C   0  0  1  0  0  0  0  0  0  0  0  0
    8.9168  -15.3201   22.6233 C   0  0  0  0  0  0  0  0  0  0  0  0
    8.0061  -16.1107   23.0915 O   0  0  0  0  0  0  0  0  0  0  0  0
   10.0703  -15.2952   23.4340 N   0  0  0  0  0  0  0  0  0  0  0  0
   10.3952  -16.2958   24.4271 C   0  0  1  0  0  0  0  0  0  0  0  0
   10.5891  -17.6691   23.8742 C   0  0  0  0  0  0  0  0  0  0  0  0
   10.9002  -18.6847   24.9080 C   0  0  0  0  0  0  0  0  0  0  0  0
   10.5902  -18.4950   26.2399 C   0  0  0  0  0  0  0  0  0  0  0  0
   10.9766  -19.5529   26.9389 N   0  0  0  0  0  0  0  0  0  0  0  0
   11.5253  -20.4023   26.0575 C   0  0  0  0  0  0  0  0  0  0  0  0
   11.4806  -19.8775   24.8203 N   0  0  0  0  0  0  0  0  0  0  0  0
   11.6556  -15.8901   25.1066 C   0  0  0  0  0  0  0  0  0  0  0  0
   12.6617  -15.2137   24.4206 O   0  0  0  0  0  0  0  0  0  0  0  0
   11.8776  -16.1328   26.3214 O   0  0  0  0  0  0  0  0  0  0  0  0
  2  1  1  6
  2  3  1  0
  3  4  1  0
  4  8  1  0
  4  5  2  0
  6  2  1  0
  7  6  2  0
  9  6  1  0
  9 13  1  0
 10 11  1  0
 10  9  1  0
 11 12  1  0
 12 13  1  0
 13 14  1  1
 14 15  2  0
 16 14  1  0
 17 16  1  0
 17 24  1  0
 17 18  1  6
 19 23  1  0
 19 18  1  0
 20 19  2  0
 21 20  1  0
 21 22  1  0
 22 23  2  0
 24 25  1  0
 26 24  2  0
M  END
$$$$
