TPH.pdb
     RDKit          3D

 25 26  0  0  1  0  0  0  0  0999 V2000
    7.0763  -17.5145   18.0588 C   0  0  0  0  0  0  0  0  0  0  0  0
    8.1763  -17.3960   17.0477 C   0  0  1  0  0  0  0  0  0  0  0  0
    7.7427  -17.8427   15.7869 O   0  0  0  0  0  0  0  0  0  0  0  0
    8.5986  -15.9175   16.9397 C   0  0  2  0  0  0  0  0  0  0  0  0
    9.2407  -15.7882   15.6778 N   0  0  0  0  0  0  0  0  0  0  0  0
    9.3234  -15.4788   18.1258 C   0  0  0  0  0  0  0  0  0  0  0  0
   10.3660  -16.1918   18.3956 O   0  0  0  0  0  0  0  0  0  0  0  0
    9.0807  -14.4267   19.0090 N   0  0  0  0  0  0  0  0  0  0  0  0
    8.6560  -13.0733   18.5962 C   0  0  0  0  0  0  0  0  0  0  0  0
    7.3657  -12.9829   19.4365 C   0  0  0  0  0  0  0  0  0  0  0  0
    7.5925  -13.9203   20.6310 C   0  0  0  0  0  0  0  0  0  0  0  0
    9.0807  -14.2604   20.4227 C   0  0  1  0  0  0  0  0  0  0  0  0
    9.4821  -15.2827   21.3325 C   0  0  0  0  0  0  0  0  0  0  0  0
    8.6187  -16.1511   21.6968 O   0  0  0  0  0  0  0  0  0  0  0  0
   10.7358  -15.5270   21.9514 N   0  0  0  0  0  0  0  0  0  0  0  0
   11.0336  -16.5942   22.8371 C   0  0  1  0  0  0  0  0  0  0  0  0
   11.9762  -17.6467   22.4795 C   0  0  0  0  0  0  0  0  0  0  0  0
   11.4685  -18.5001   21.3777 C   0  0  0  0  0  0  0  0  0  0  0  0
   10.1703  -18.9170   21.1718 C   0  0  0  0  0  0  0  0  0  0  0  0
   10.1247  -19.6853   20.0510 N   0  0  0  0  0  0  0  0  0  0  0  0
   11.3898  -19.7362   19.5763 C   0  0  0  0  0  0  0  0  0  0  0  0
   12.2021  -19.0185   20.3801 N   0  0  0  0  0  0  0  0  0  0  0  0
   11.4744  -16.0009   24.1307 C   0  0  0  0  0  0  0  0  0  0  0  0
   11.6703  -16.8065   25.2394 O   0  0  0  0  0  0  0  0  0  0  0  0
   11.6860  -14.7715   24.2800 O   0  0  0  0  0  0  0  0  0  0  0  0
  2  1  1  1
  2  3  1  0
  4  2  1  0
  4  5  1  6
  6  4  1  0
  6  8  1  0
  7  6  2  0
  8 12  1  0
  9  8  1  0
  9 10  1  0
 11 10  1  0
 12 11  1  0
 13 15  1  0
 12 13  1  1
 14 13  2  0
 16 17  1  6
 16 15  1  0
 17 18  1  0
 18 19  2  0
 18 22  1  0
 19 20  1  0
 20 21  1  0
 22 21  2  0
 23 16  1  0
 23 24  1  0
 25 23  2  0
M  END
$$$$
