TPH.pdb
     RDKit          3D

 25 26  0  0  1  0  0  0  0  0999 V2000
    6.3011  -16.7600   21.5808 C   0  0  0  0  0  0  0  0  0  0  0  0
    7.6527  -17.0266   20.9906 C   0  0  1  0  0  0  0  0  0  0  0  0
    7.5487  -17.3060   19.6164 O   0  0  0  0  0  0  0  0  0  0  0  0
    8.5376  -15.7795   21.1846 C   0  0  2  0  0  0  0  0  0  0  0  0
    9.5207  -15.8374   20.1592 N   0  0  0  0  0  0  0  0  0  0  0  0
    8.9922  -15.6539   22.5638 C   0  0  0  0  0  0  0  0  0  0  0  0
    9.8587  -16.5459   22.9127 O   0  0  0  0  0  0  0  0  0  0  0  0
    8.6507  -14.7388   23.5597 N   0  0  0  0  0  0  0  0  0  0  0  0
    8.5423  -13.2805   23.3498 C   0  0  0  0  0  0  0  0  0  0  0  0
    7.0907  -13.0963   23.8380 C   0  0  0  0  0  0  0  0  0  0  0  0
    6.8450  -14.2467   24.8245 C   0  0  0  0  0  0  0  0  0  0  0  0
    8.2730  -14.8154   24.9301 C   0  0  1  0  0  0  0  0  0  0  0  0
    8.2625  -16.0324   25.6736 C   0  0  0  0  0  0  0  0  0  0  0  0
    7.1402  -16.5956   25.9096 O   0  0  0  0  0  0  0  0  0  0  0  0
    9.3298  -16.7769   26.2403 N   0  0  0  0  0  0  0  0  0  0  0  0
    9.2229  -18.0516   26.8531 C   0  0  1  0  0  0  0  0  0  0  0  0
    9.1875  -19.2789   26.0677 C   0  0  0  0  0  0  0  0  0  0  0  0
   10.3183  -19.3627   25.1115 C   0  0  0  0  0  0  0  0  0  0  0  0
   11.4516  -18.5776   25.0845 C   0  0  0  0  0  0  0  0  0  0  0  0
   12.2411  -18.9757   24.0517 N   0  0  0  0  0  0  0  0  0  0  0  0
   11.5914  -19.9989   23.4522 C   0  0  0  0  0  0  0  0  0  0  0  0
   10.4279  -20.2321   24.0946 N   0  0  0  0  0  0  0  0  0  0  0  0
   10.3268  -18.1719   27.8463 C   0  0  0  0  0  0  0  0  0  0  0  0
   10.4016  -19.2750   28.6794 O   0  0  0  0  0  0  0  0  0  0  0  0
   11.2242  -17.3022   27.9770 O   0  0  0  0  0  0  0  0  0  0  0  0
  2  1  1  6
  2  3  1  0
  4  2  1  0
  4  5  1  6
  6  4  1  0
  6  8  1  0
  7  6  2  0
  8 12  1  0
  9  8  1  0
  9 10  1  0
 11 10  1  0
 12 11  1  0
 13 15  1  0
 12 13  1  6
 14 13  2  0
 16 17  1  6
 16 15  1  0
 17 18  1  0
 18 19  2  0
 18 22  1  0
 19 20  1  0
 20 21  1  0
 22 21  2  0
 23 16  1  0
 23 24  1  0
 25 23  2  0
M  END
$$$$
