TPH.pdb
     RDKit          3D

 25 26  0  0  1  0  0  0  0  0999 V2000
    7.1558  -17.2345   17.0918 C   0  0  0  0  0  0  0  0  0  0  0  0
    8.3259  -17.0396   16.1756 C   0  0  1  0  0  0  0  0  0  0  0  0
    7.9709  -17.3320   14.8468 O   0  0  0  0  0  0  0  0  0  0  0  0
    8.7886  -15.5717   16.2613 C   0  0  2  0  0  0  0  0  0  0  0  0
    9.5783  -15.3451   15.1010 N   0  0  0  0  0  0  0  0  0  0  0  0
    9.3765  -15.2697   17.5604 C   0  0  0  0  0  0  0  0  0  0  0  0
   10.3315  -16.0696   17.9014 O   0  0  0  0  0  0  0  0  0  0  0  0
    9.0824  -14.2695   18.4872 N   0  0  0  0  0  0  0  0  0  0  0  0
    8.7481  -12.8753   18.1309 C   0  0  0  0  0  0  0  0  0  0  0  0
    7.3836  -12.7880   18.8448 C   0  0  0  0  0  0  0  0  0  0  0  0
    7.4566  -13.8113   19.9870 C   0  0  0  0  0  0  0  0  0  0  0  0
    8.9457  -14.1978   19.9024 C   0  0  1  0  0  0  0  0  0  0  0  0
    9.2181  -15.2940   20.7730 C   0  0  0  0  0  0  0  0  0  0  0  0
    8.4653  -16.3246   20.7132 O   0  0  0  0  0  0  0  0  0  0  0  0
   10.2265  -15.4619   21.7577 N   0  0  0  0  0  0  0  0  0  0  0  0
   10.8077  -16.6939   22.1528 C   0  0  1  0  0  0  0  0  0  0  0  0
   11.7058  -17.4341   21.2753 C   0  0  0  0  0  0  0  0  0  0  0  0
   12.1487  -18.7137   21.8806 C   0  0  0  0  0  0  0  0  0  0  0  0
   11.8324  -19.2021   23.1307 C   0  0  0  0  0  0  0  0  0  0  0  0
   12.4399  -20.4063   23.3021 N   0  0  0  0  0  0  0  0  0  0  0  0
   13.1234  -20.6503   22.1612 C   0  0  0  0  0  0  0  0  0  0  0  0
   12.9464  -19.6251   21.3017 N   0  0  0  0  0  0  0  0  0  0  0  0
   11.5099  -16.4700   23.4476 C   0  0  0  0  0  0  0  0  0  0  0  0
   11.9121  -17.5456   24.2208 O   0  0  0  0  0  0  0  0  0  0  0  0
   11.7673  -15.3243   23.8945 O   0  0  0  0  0  0  0  0  0  0  0  0
  2  1  1  1
  2  3  1  0
  4  2  1  0
  4  5  1  6
  6  4  1  0
  6  8  1  0
  7  6  2  0
  8 12  1  0
  9  8  1  0
  9 10  1  0
 11 10  1  0
 12 11  1  0
 13 15  1  0
 12 13  1  1
 14 13  2  0
 16 17  1  6
 16 15  1  0
 17 18  1  0
 18 19  2  0
 18 22  1  0
 19 20  1  0
 20 21  1  0
 22 21  2  0
 23 16  1  0
 23 24  1  0
 25 23  2  0
M  END
$$$$
