TPH.pdb
     RDKit          3D

 25 26  0  0  1  0  0  0  0  0999 V2000
    6.6537  -17.5209   18.6368 C   0  0  0  0  0  0  0  0  0  0  0  0
    7.6930  -17.6999   17.5718 C   0  0  1  0  0  0  0  0  0  0  0  0
    7.1106  -18.1762   16.3839 O   0  0  0  0  0  0  0  0  0  0  0  0
    8.3628  -16.3397   17.2935 C   0  0  2  0  0  0  0  0  0  0  0  0
    9.0680  -16.4974   16.0691 N   0  0  0  0  0  0  0  0  0  0  0  0
    9.1025  -15.8589   18.4537 C   0  0  0  0  0  0  0  0  0  0  0  0
    9.9652  -16.7040   18.9115 O   0  0  0  0  0  0  0  0  0  0  0  0
    9.0346  -14.6490   19.1447 N   0  0  0  0  0  0  0  0  0  0  0  0
    8.7611  -13.3422   18.5121 C   0  0  0  0  0  0  0  0  0  0  0  0
    7.5338  -12.9427   19.3568 C   0  0  0  0  0  0  0  0  0  0  0  0
    7.7002  -13.6840   20.6909 C   0  0  0  0  0  0  0  0  0  0  0  0
    9.1232  -14.2453   20.5069 C   0  0  1  0  0  0  0  0  0  0  0  0
    9.4386  -15.1408   21.5711 C   0  0  0  0  0  0  0  0  0  0  0  0
    8.4805  -15.7087   22.1972 O   0  0  0  0  0  0  0  0  0  0  0  0
   10.6937  -15.5386   22.1012 N   0  0  0  0  0  0  0  0  0  0  0  0
   10.8967  -16.4682   23.1531 C   0  0  1  0  0  0  0  0  0  0  0  0
   11.4927  -17.7769   22.9150 C   0  0  0  0  0  0  0  0  0  0  0  0
   10.6138  -18.6506   22.1001 C   0  0  0  0  0  0  0  0  0  0  0  0
    9.3351  -18.3772   21.6623 C   0  0  0  0  0  0  0  0  0  0  0  0
    8.8766  -19.4376   20.9454 N   0  0  0  0  0  0  0  0  0  0  0  0
    9.8718  -20.3530   20.9466 C   0  0  0  0  0  0  0  0  0  0  0  0
   10.9226  -19.8755   21.6458 N   0  0  0  0  0  0  0  0  0  0  0  0
   11.6900  -15.7869   24.2143 C   0  0  0  0  0  0  0  0  0  0  0  0
   11.8586  -16.3819   25.4528 O   0  0  0  0  0  0  0  0  0  0  0  0
   12.2334  -14.6666   24.0460 O   0  0  0  0  0  0  0  0  0  0  0  0
  2  1  1  1
  2  3  1  0
  4  2  1  0
  4  5  1  6
  6  4  1  0
  6  8  1  0
  7  6  2  0
  8 12  1  0
  9  8  1  0
  9 10  1  0
 11 10  1  0
 12 11  1  0
 13 15  1  0
 12 13  1  1
 14 13  2  0
 16 17  1  6
 16 15  1  0
 17 18  1  0
 18 19  2  0
 18 22  1  0
 19 20  1  0
 20 21  1  0
 22 21  2  0
 23 16  1  0
 23 24  1  0
 25 23  2  0
M  END
$$$$
