TPH.pdb
     RDKit          3D

 25 26  0  0  1  0  0  0  0  0999 V2000
    6.3524  -18.3612   19.6513 C   0  0  0  0  0  0  0  0  0  0  0  0
    7.6124  -18.5579   18.8637 C   0  0  1  0  0  0  0  0  0  0  0  0
    7.3493  -19.2547   17.6710 O   0  0  0  0  0  0  0  0  0  0  0  0
    8.2070  -17.1781   18.5194 C   0  0  2  0  0  0  0  0  0  0  0  0
    9.0992  -17.3993   17.4348 N   0  0  0  0  0  0  0  0  0  0  0  0
    8.7230  -16.5055   19.7052 C   0  0  0  0  0  0  0  0  0  0  0  0
    9.4353  -17.2649   20.4694 O   0  0  0  0  0  0  0  0  0  0  0  0
    8.5771  -15.1905   20.1472 N   0  0  0  0  0  0  0  0  0  0  0  0
    8.3820  -14.0286   19.2559 C   0  0  0  0  0  0  0  0  0  0  0  0
    7.0652  -13.5044   19.8645 C   0  0  0  0  0  0  0  0  0  0  0  0
    7.0730  -13.9833   21.3231 C   0  0  0  0  0  0  0  0  0  0  0  0
    8.5066  -14.5408   21.4118 C   0  0  1  0  0  0  0  0  0  0  0  0
    8.6936  -15.2181   22.6528 C   0  0  0  0  0  0  0  0  0  0  0  0
    7.6727  -15.4416   23.3878 O   0  0  0  0  0  0  0  0  0  0  0  0
    9.8742  -15.7151   23.2642 N   0  0  0  0  0  0  0  0  0  0  0  0
    9.9443  -16.4053   24.5014 C   0  0  1  0  0  0  0  0  0  0  0  0
    9.4541  -17.7702   24.6464 C   0  0  0  0  0  0  0  0  0  0  0  0
    7.9934  -17.8671   24.4075 C   0  0  0  0  0  0  0  0  0  0  0  0
    7.0027  -17.0733   24.9458 C   0  0  0  0  0  0  0  0  0  0  0  0
    5.7971  -17.4901   24.4752 N   0  0  0  0  0  0  0  0  0  0  0  0
    6.0525  -18.5334   23.6539 C   0  0  0  0  0  0  0  0  0  0  0  0
    7.3821  -18.7606   23.6138 N   0  0  0  0  0  0  0  0  0  0  0  0
   11.3617  -16.3738   24.9591 C   0  0  0  0  0  0  0  0  0  0  0  0
   12.3359  -15.7746   24.1791 O   0  0  0  0  0  0  0  0  0  0  0  0
   11.7380  -16.8757   26.0478 O   0  0  0  0  0  0  0  0  0  0  0  0
  2  1  1  6
  2  3  1  0
  4  2  1  0
  4  5  1  6
  6  4  1  0
  6  8  1  0
  7  6  2  0
  8 12  1  0
  9  8  1  0
  9 10  1  0
 11 10  1  0
 12 11  1  0
 13 15  1  0
 12 13  1  1
 14 13  2  0
 16 17  1  6
 16 15  1  0
 17 18  1  0
 18 19  2  0
 18 22  1  0
 19 20  1  0
 20 21  1  0
 22 21  2  0
 23 16  1  0
 23 24  1  0
 25 23  2  0
M  END
$$$$
