TPH.pdb
     RDKit          3D

 25 26  0  0  1  0  0  0  0  0999 V2000
   10.7277  -15.8222   19.3654 C   0  0  0  0  0  0  0  0  0  0  0  0
   10.5554  -14.3616   19.0766 C   0  0  1  0  0  0  0  0  0  0  0  0
   11.1517  -14.0240   17.8487 O   0  0  0  0  0  0  0  0  0  0  0  0
    9.0494  -14.0397   19.0098 C   0  0  2  0  0  0  0  0  0  0  0  0
    8.9522  -12.7634   18.3910 N   0  0  0  0  0  0  0  0  0  0  0  0
    8.4035  -14.2254   20.3033 C   0  0  0  0  0  0  0  0  0  0  0  0
    8.9580  -13.5650   21.2649 O   0  0  0  0  0  0  0  0  0  0  0  0
    7.2964  -14.9899   20.6714 N   0  0  0  0  0  0  0  0  0  0  0  0
    6.1371  -15.2539   19.7944 C   0  0  0  0  0  0  0  0  0  0  0  0
    6.1768  -16.7953   19.8372 C   0  0  0  0  0  0  0  0  0  0  0  0
    6.8509  -17.1474   21.1708 C   0  0  0  0  0  0  0  0  0  0  0  0
    6.9142  -15.7486   21.8137 C   0  0  1  0  0  0  0  0  0  0  0  0
    7.6801  -15.7956   23.0158 C   0  0  0  0  0  0  0  0  0  0  0  0
    8.9483  -15.9236   22.9287 O   0  0  0  0  0  0  0  0  0  0  0  0
    7.2716  -15.7290   24.3735 N   0  0  0  0  0  0  0  0  0  0  0  0
    8.1252  -15.5522   25.4923 C   0  0  1  0  0  0  0  0  0  0  0  0
    8.2444  -14.2674   26.1701 C   0  0  0  0  0  0  0  0  0  0  0  0
    9.0567  -14.3621   27.4075 C   0  0  0  0  0  0  0  0  0  0  0  0
   10.1299  -15.1955   27.6426 C   0  0  0  0  0  0  0  0  0  0  0  0
   10.5955  -14.9733   28.9005 N   0  0  0  0  0  0  0  0  0  0  0  0
    9.8092  -14.0087   29.4293 C   0  0  0  0  0  0  0  0  0  0  0  0
    8.8784  -13.6397   28.5247 N   0  0  0  0  0  0  0  0  0  0  0  0
    7.7587  -16.5774   26.5094 C   0  0  0  0  0  0  0  0  0  0  0  0
    6.5621  -17.2663   26.4090 O   0  0  0  0  0  0  0  0  0  0  0  0
    8.4960  -16.8633   27.4858 O   0  0  0  0  0  0  0  0  0  0  0  0
  2  1  1  6
  2  3  1  0
  4  2  1  0
  4  5  1  1
  6  4  1  0
  6  8  1  0
  7  6  2  0
  8 12  1  0
  9  8  1  0
  9 10  1  0
 11 10  1  0
 12 11  1  0
 13 15  1  0
 12 13  1  1
 14 13  2  0
 16 17  1  1
 16 15  1  0
 17 18  1  0
 18 19  2  0
 18 22  1  0
 19 20  1  0
 20 21  1  0
 22 21  2  0
 23 16  1  0
 23 24  1  0
 25 23  2  0
M  END
$$$$
