TPH.pdb
     RDKit          3D

 25 26  0  0  1  0  0  0  0  0999 V2000
    7.2344  -17.8412   18.3402 C   0  0  0  0  0  0  0  0  0  0  0  0
    8.5329  -17.7577   17.5964 C   0  0  1  0  0  0  0  0  0  0  0  0
    8.4033  -18.3044   16.3074 O   0  0  0  0  0  0  0  0  0  0  0  0
    8.9455  -16.2774   17.4758 C   0  0  2  0  0  0  0  0  0  0  0  0
    9.8434  -16.2129   16.3754 N   0  0  0  0  0  0  0  0  0  0  0  0
    9.3893  -15.7385   18.7553 C   0  0  0  0  0  0  0  0  0  0  0  0
   10.2962  -16.4507   19.3370 O   0  0  0  0  0  0  0  0  0  0  0  0
    9.0015  -14.5920   19.4489 N   0  0  0  0  0  0  0  0  0  0  0  0
    8.7889  -13.2710   18.8226 C   0  0  0  0  0  0  0  0  0  0  0  0
    7.3362  -13.0399   19.2868 C   0  0  0  0  0  0  0  0  0  0  0  0
    7.1868  -13.8589   20.5767 C   0  0  0  0  0  0  0  0  0  0  0  0
    8.6523  -14.2819   20.7937 C   0  0  1  0  0  0  0  0  0  0  0  0
    8.7382  -15.2220   21.8627 C   0  0  0  0  0  0  0  0  0  0  0  0
    7.7820  -16.0537   22.0245 O   0  0  0  0  0  0  0  0  0  0  0  0
    9.7456  -15.4140   22.8440 N   0  0  0  0  0  0  0  0  0  0  0  0
    9.7753  -16.4464   23.8162 C   0  0  1  0  0  0  0  0  0  0  0  0
    9.7253  -17.8539   23.4412 C   0  0  0  0  0  0  0  0  0  0  0  0
   10.8240  -18.2246   22.5162 C   0  0  0  0  0  0  0  0  0  0  0  0
   11.8565  -17.4222   22.0787 C   0  0  0  0  0  0  0  0  0  0  0  0
   12.6504  -18.1403   21.2404 N   0  0  0  0  0  0  0  0  0  0  0  0
   12.1036  -19.3748   21.1677 C   0  0  0  0  0  0  0  0  0  0  0  0
   10.9984  -19.4245   21.9403 N   0  0  0  0  0  0  0  0  0  0  0  0
   10.9833  -16.2379   24.6630 C   0  0  0  0  0  0  0  0  0  0  0  0
   11.8262  -15.1652   24.4278 O   0  0  0  0  0  0  0  0  0  0  0  0
   11.2927  -17.0037   25.6098 O   0  0  0  0  0  0  0  0  0  0  0  0
  2  1  1  6
  2  3  1  0
  4  2  1  0
  4  5  1  6
  6  4  1  0
  6  8  1  0
  7  6  2  0
  8 12  1  0
  9  8  1  0
  9 10  1  0
 11 10  1  0
 12 11  1  0
 13 15  1  0
 12 13  1  1
 14 13  2  0
 16 17  1  6
 16 15  1  0
 17 18  1  0
 18 19  2  0
 18 22  1  0
 19 20  1  0
 20 21  1  0
 22 21  2  0
 23 16  1  0
 23 24  1  0
 25 23  2  0
M  END
$$$$
