TPH.pdb
     RDKit          3D

 25 26  0  0  1  0  0  0  0  0999 V2000
    8.7030  -17.0913   15.3752 C   0  0  0  0  0  0  0  0  0  0  0  0
    8.9642  -16.6657   16.7884 C   0  0  1  0  0  0  0  0  0  0  0  0
    9.7386  -17.6270   17.4619 O   0  0  0  0  0  0  0  0  0  0  0  0
    9.7264  -15.3259   16.7741 C   0  0  2  0  0  0  0  0  0  0  0  0
   10.8283  -15.5153   15.8959 N   0  0  0  0  0  0  0  0  0  0  0  0
    9.9998  -14.8501   18.1244 C   0  0  0  0  0  0  0  0  0  0  0  0
   11.0324  -15.3982   18.6735 O   0  0  0  0  0  0  0  0  0  0  0  0
    9.3382  -13.9097   18.9143 N   0  0  0  0  0  0  0  0  0  0  0  0
    8.7521  -12.6546   18.4008 C   0  0  0  0  0  0  0  0  0  0  0  0
    7.3083  -12.8667   18.9005 C   0  0  0  0  0  0  0  0  0  0  0  0
    7.4324  -13.7899   20.1209 C   0  0  0  0  0  0  0  0  0  0  0  0
    8.9643  -13.8095   20.2842 C   0  0  1  0  0  0  0  0  0  0  0  0
    9.3400  -14.7675   21.2715 C   0  0  0  0  0  0  0  0  0  0  0  0
    8.5997  -14.9049   22.3037 O   0  0  0  0  0  0  0  0  0  0  0  0
   10.4535  -15.6458   21.3286 N   0  0  0  0  0  0  0  0  0  0  0  0
   10.7573  -16.5379   22.3887 C   0  0  1  0  0  0  0  0  0  0  0  0
   10.6969  -17.9837   22.2148 C   0  0  0  0  0  0  0  0  0  0  0  0
    9.3551  -18.4375   21.7747 C   0  0  0  0  0  0  0  0  0  0  0  0
    8.2170  -17.6717   21.6336 C   0  0  0  0  0  0  0  0  0  0  0  0
    7.1987  -18.4664   21.2095 N   0  0  0  0  0  0  0  0  0  0  0  0
    7.7143  -19.7110   21.0927 C   0  0  0  0  0  0  0  0  0  0  0  0
    9.0194  -19.6920   21.4351 N   0  0  0  0  0  0  0  0  0  0  0  0
   12.1135  -16.1915   22.8989 C   0  0  0  0  0  0  0  0  0  0  0  0
   12.6324  -16.8424   24.0051 O   0  0  0  0  0  0  0  0  0  0  0  0
   12.8387  -15.3142   22.3669 O   0  0  0  0  0  0  0  0  0  0  0  0
  2  1  1  6
  2  3  1  0
  4  2  1  0
  4  5  1  6
  6  4  1  0
  6  8  1  0
  7  6  2  0
  8 12  1  0
  9  8  1  0
  9 10  1  0
 11 10  1  0
 12 11  1  0
 13 15  1  0
 12 13  1  1
 14 13  2  0
 16 17  1  6
 16 15  1  0
 17 18  1  0
 18 19  2  0
 18 22  1  0
 19 20  1  0
 20 21  1  0
 22 21  2  0
 23 16  1  0
 23 24  1  0
 25 23  2  0
M  END
$$$$
