TPH.pdb
     RDKit          3D

 25 26  0  0  1  0  0  0  0  0999 V2000
    7.4780  -17.0508   16.5850 C   0  0  0  0  0  0  0  0  0  0  0  0
    8.6091  -16.6384   15.6922 C   0  0  1  0  0  0  0  0  0  0  0  0
    8.2887  -16.8735   14.3434 O   0  0  0  0  0  0  0  0  0  0  0  0
    8.8790  -15.1337   15.8902 C   0  0  2  0  0  0  0  0  0  0  0  0
    9.6248  -14.7200   14.7527 N   0  0  0  0  0  0  0  0  0  0  0  0
    9.4319  -14.8573   17.2102 C   0  0  0  0  0  0  0  0  0  0  0  0
   10.5071  -15.5213   17.4769 O   0  0  0  0  0  0  0  0  0  0  0  0
    8.9973  -14.0025   18.2232 N   0  0  0  0  0  0  0  0  0  0  0  0
    8.3922  -12.6749   17.9910 C   0  0  0  0  0  0  0  0  0  0  0  0
    7.0687  -12.9017   18.7500 C   0  0  0  0  0  0  0  0  0  0  0  0
    7.3830  -13.9738   19.8031 C   0  0  0  0  0  0  0  0  0  0  0  0
    8.9128  -14.0626   19.6430 C   0  0  1  0  0  0  0  0  0  0  0  0
    9.4243  -15.1481   20.4136 C   0  0  0  0  0  0  0  0  0  0  0  0
    8.7909  -16.2575   20.4038 O   0  0  0  0  0  0  0  0  0  0  0  0
   10.5719  -15.2295   21.2450 N   0  0  0  0  0  0  0  0  0  0  0  0
   11.0967  -16.4119   21.8267 C   0  0  1  0  0  0  0  0  0  0  0  0
   12.1636  -17.1721   21.1878 C   0  0  0  0  0  0  0  0  0  0  0  0
   13.1955  -16.2909   20.5889 C   0  0  0  0  0  0  0  0  0  0  0  0
   13.7482  -15.1543   21.1404 C   0  0  0  0  0  0  0  0  0  0  0  0
   14.6569  -14.6375   20.2710 N   0  0  0  0  0  0  0  0  0  0  0  0
   14.6576  -15.4559   19.1946 C   0  0  0  0  0  0  0  0  0  0  0  0
   13.7727  -16.4561   19.3883 N   0  0  0  0  0  0  0  0  0  0  0  0
   11.5329  -16.0812   23.2124 C   0  0  0  0  0  0  0  0  0  0  0  0
   11.9771  -17.0788   24.0632 O   0  0  0  0  0  0  0  0  0  0  0  0
   11.5210  -14.9111   23.6699 O   0  0  0  0  0  0  0  0  0  0  0  0
  2  1  1  1
  2  3  1  0
  4  2  1  0
  4  5  1  6
  6  4  1  0
  6  8  1  0
  7  6  2  0
  8 12  1  0
  9  8  1  0
  9 10  1  0
 11 10  1  0
 12 11  1  0
 13 15  1  0
 12 13  1  6
 14 13  2  0
 16 17  1  6
 16 15  1  0
 17 18  1  0
 18 19  2  0
 18 22  1  0
 19 20  1  0
 20 21  1  0
 22 21  2  0
 23 16  1  0
 23 24  1  0
 25 23  2  0
M  END
$$$$
