GMK.pdb
     RDKit          3D

 22 21  0  0  1  0  0  0  0  0999 V2000
   27.6783  -21.1777  -16.7151 N   0  0  0  0  0  0  0  0  0  0  0  0
   26.6707  -20.3175  -16.1589 C   0  0  0  0  0  0  0  0  0  0  0  0
   25.8703  -21.0177  -15.1046 C   0  0  0  0  0  0  0  0  0  0  0  0
   25.9522  -22.2588  -14.9297 O   0  0  0  0  0  0  0  0  0  0  0  0
   25.8226  -20.9552   -9.3232 C   0  0  0  0  0  0  0  0  0  0  0  0
   24.1934  -21.6078   -9.7057 S   0  0  0  0  0  0  0  0  0  0  0  0
   23.2573  -20.7034  -10.9034 C   0  0  0  0  0  0  0  0  0  0  0  0
   23.9725  -20.0835  -12.0377 C   0  0  0  0  0  0  0  0  0  0  0  0
   24.1647  -20.8726  -13.2807 C   0  0  2  0  0  0  0  0  0  0  0  0
   24.9978  -20.2569  -14.2835 N   0  0  0  0  0  0  0  0  0  0  0  0
   22.7677  -21.0927  -13.8772 C   0  0  0  0  0  0  0  0  0  0  0  0
   22.1428  -20.1324  -14.3925 O   0  0  0  0  0  0  0  0  0  0  0  0
   22.1542  -22.3574  -13.8654 N   0  0  0  0  0  0  0  0  0  0  0  0
   20.8166  -22.5858  -14.4409 C   0  0  1  0  0  0  0  0  0  0  0  0
   20.5128  -24.0340  -14.1034 C   0  0  0  0  0  0  0  0  0  0  0  0
   19.4822  -24.2275  -13.0731 C   0  0  0  0  0  0  0  0  0  0  0  0
   19.1523  -25.6408  -12.7838 C   0  0  0  0  0  0  0  0  0  0  0  0
   18.1451  -25.8634  -11.7055 C   0  0  0  0  0  0  0  0  0  0  0  0
   17.8472  -27.2251  -11.4019 N   0  0  0  0  0  0  0  0  0  0  0  0
   19.8067  -21.7471  -13.7584 C   0  0  0  0  0  0  0  0  0  0  0  0
   19.9434  -21.5461  -12.3979 O   0  0  0  0  0  0  0  0  0  0  0  0
   18.8663  -21.2327  -14.3539 O   0  0  0  0  0  0  0  0  0  0  0  0
  2  3  1  0
  2  1  1  0
  3 10  1  0
  4  3  2  0
  6  5  1  0
  7  6  1  0
  7  8  1  0
  9  8  1  1
  9 11  1  0
 10  9  1  0
 11 12  2  0
 11 13  1  0
 13 14  1  0
 14 15  1  1
 15 16  1  0
 16 17  1  0
 17 18  1  0
 19 18  1  0
 20 14  1  0
 20 21  1  0
 22 20  2  0
M  END
$$$$
