GMK.pdb
     RDKit          3D

 22 21  0  0  1  0  0  0  0  0999 V2000
   19.6215   -9.9836  -20.4024 N   0  0  0  0  0  0  0  0  0  0  0  0
   19.9300  -10.9599  -19.3943 C   0  0  0  0  0  0  0  0  0  0  0  0
   20.0381  -10.3348  -18.0378 C   0  0  0  0  0  0  0  0  0  0  0  0
   19.0474  -10.2477  -17.2705 O   0  0  0  0  0  0  0  0  0  0  0  0
   22.0126   -8.8074  -11.3636 C   0  0  0  0  0  0  0  0  0  0  0  0
   21.6956   -9.4138  -13.0243 S   0  0  0  0  0  0  0  0  0  0  0  0
   22.9192   -9.0217  -14.2399 C   0  0  0  0  0  0  0  0  0  0  0  0
   22.7289   -9.5160  -15.6191 C   0  0  0  0  0  0  0  0  0  0  0  0
   21.4632   -9.1959  -16.3264 C   0  0  2  0  0  0  0  0  0  0  0  0
   21.2935   -9.8288  -17.6107 N   0  0  0  0  0  0  0  0  0  0  0  0
   21.4502   -7.6744  -16.5286 C   0  0  0  0  0  0  0  0  0  0  0  0
   22.2847   -7.1322  -17.2953 O   0  0  0  0  0  0  0  0  0  0  0  0
   20.5174   -6.8534  -15.8715 N   0  0  0  0  0  0  0  0  0  0  0  0
   20.5254   -5.3864  -16.0149 C   0  0  1  0  0  0  0  0  0  0  0  0
   19.0577   -5.0033  -15.9629 C   0  0  0  0  0  0  0  0  0  0  0  0
   18.7894   -3.5616  -16.0649 C   0  0  0  0  0  0  0  0  0  0  0  0
   17.3560   -3.2016  -16.1418 C   0  0  0  0  0  0  0  0  0  0  0  0
   17.0625   -1.7606  -16.3948 C   0  0  0  0  0  0  0  0  0  0  0  0
   15.6846   -1.4209  -16.5403 N   0  0  0  0  0  0  0  0  0  0  0  0
   21.1931   -4.7542  -14.8558 C   0  0  0  0  0  0  0  0  0  0  0  0
   21.8777   -3.5724  -15.0672 O   0  0  0  0  0  0  0  0  0  0  0  0
   21.1583   -5.2395  -13.7303 O   0  0  0  0  0  0  0  0  0  0  0  0
  2  3  1  0
  2  1  1  0
  3 10  1  0
  4  3  2  0
  6  5  1  0
  7  6  1  0
  7  8  1  0
  9  8  1  6
  9 11  1  0
 10  9  1  0
 11 12  2  0
 11 13  1  0
 13 14  1  0
 14 15  1  1
 15 16  1  0
 16 17  1  0
 17 18  1  0
 19 18  1  0
 20 14  1  0
 20 21  1  0
 22 20  2  0
M  END
$$$$
