GMK.pdb
     RDKit          3D

 22 21  0  0  1  0  0  0  0  0999 V2000
   28.2139  -22.1421  -15.7320 N   0  0  0  0  0  0  0  0  0  0  0  0
   27.9605  -21.0591  -14.8224 C   0  0  0  0  0  0  0  0  0  0  0  0
   27.0113  -21.4629  -13.7369 C   0  0  0  0  0  0  0  0  0  0  0  0
   26.1141  -22.3206  -13.9303 O   0  0  0  0  0  0  0  0  0  0  0  0
   27.7176  -19.4945   -7.2099 C   0  0  0  0  0  0  0  0  0  0  0  0
   26.0933  -20.2515   -7.3320 S   0  0  0  0  0  0  0  0  0  0  0  0
   25.6337  -20.8473   -8.9328 C   0  0  0  0  0  0  0  0  0  0  0  0
   26.5352  -20.5792  -10.0721 C   0  0  0  0  0  0  0  0  0  0  0  0
   26.1551  -21.0763  -11.4186 C   0  0  2  0  0  0  0  0  0  0  0  0
   27.1308  -20.8596  -12.4578 N   0  0  0  0  0  0  0  0  0  0  0  0
   24.8627  -20.3435  -11.8045 C   0  0  0  0  0  0  0  0  0  0  0  0
   24.8924  -19.1216  -12.0948 O   0  0  0  0  0  0  0  0  0  0  0  0
   23.6247  -21.0081  -11.8444 N   0  0  0  0  0  0  0  0  0  0  0  0
   22.3898  -20.3398  -12.2929 C   0  0  1  0  0  0  0  0  0  0  0  0
   22.1040  -20.9641  -13.6464 C   0  0  0  0  0  0  0  0  0  0  0  0
   20.8931  -20.4667  -14.3152 C   0  0  0  0  0  0  0  0  0  0  0  0
   20.5720  -21.1366  -15.5952 C   0  0  0  0  0  0  0  0  0  0  0  0
   19.3347  -20.6631  -16.2819 C   0  0  0  0  0  0  0  0  0  0  0  0
   19.0076  -21.3237  -17.5032 N   0  0  0  0  0  0  0  0  0  0  0  0
   21.2612  -20.6780  -11.3980 C   0  0  0  0  0  0  0  0  0  0  0  0
   20.2344  -19.7612  -11.2746 O   0  0  0  0  0  0  0  0  0  0  0  0
   21.2097  -21.7310  -10.7718 O   0  0  0  0  0  0  0  0  0  0  0  0
  2  3  1  0
  2  1  1  0
  3 10  1  0
  4  3  2  0
  6  5  1  0
  7  6  1  0
  7  8  1  0
  9  8  1  1
  9 11  1  0
 10  9  1  0
 11 12  2  0
 11 13  1  0
 13 14  1  0
 14 15  1  6
 15 16  1  0
 16 17  1  0
 17 18  1  0
 19 18  1  0
 20 14  1  0
 20 21  1  0
 22 20  2  0
M  END
$$$$
