GMK.pdb
     RDKit          3D

 22 21  0  0  1  0  0  0  0  0999 V2000
   28.8037  -21.7068  -14.9513 N   0  0  0  0  0  0  0  0  0  0  0  0
   28.2784  -20.6810  -14.0932 C   0  0  0  0  0  0  0  0  0  0  0  0
   27.3057  -21.2387  -13.1006 C   0  0  0  0  0  0  0  0  0  0  0  0
   26.5543  -22.2045  -13.3842 O   0  0  0  0  0  0  0  0  0  0  0  0
   27.3531  -18.6964   -6.9225 C   0  0  0  0  0  0  0  0  0  0  0  0
   27.8834  -20.4008   -7.1232 S   0  0  0  0  0  0  0  0  0  0  0  0
   27.3772  -21.1996   -8.6180 C   0  0  0  0  0  0  0  0  0  0  0  0
   26.3919  -20.5196   -9.4838 C   0  0  0  0  0  0  0  0  0  0  0  0
   26.1957  -21.0131  -10.8704 C   0  0  2  0  0  0  0  0  0  0  0  0
   27.2332  -20.6593  -11.8070 N   0  0  0  0  0  0  0  0  0  0  0  0
   24.8711  -20.4137  -11.3626 C   0  0  0  0  0  0  0  0  0  0  0  0
   24.7635  -19.1736  -11.5316 O   0  0  0  0  0  0  0  0  0  0  0  0
   23.7545  -21.2229  -11.6354 N   0  0  0  0  0  0  0  0  0  0  0  0
   22.5279  -20.6853  -12.2511 C   0  0  1  0  0  0  0  0  0  0  0  0
   22.2004  -21.6807  -13.3491 C   0  0  0  0  0  0  0  0  0  0  0  0
   20.9884  -21.3739  -14.1225 C   0  0  0  0  0  0  0  0  0  0  0  0
   20.6129  -22.4007  -15.1199 C   0  0  0  0  0  0  0  0  0  0  0  0
   19.3999  -22.0993  -15.9350 C   0  0  0  0  0  0  0  0  0  0  0  0
   18.9972  -23.1144  -16.8529 N   0  0  0  0  0  0  0  0  0  0  0  0
   21.4091  -20.7041  -11.2833 C   0  0  0  0  0  0  0  0  0  0  0  0
   20.2974  -19.9319  -11.5625 O   0  0  0  0  0  0  0  0  0  0  0  0
   21.4375  -21.3736  -10.2564 O   0  0  0  0  0  0  0  0  0  0  0  0
  2  3  1  0
  2  1  1  0
  3 10  1  0
  4  3  2  0
  6  5  1  0
  7  6  1  0
  7  8  1  0
  9  8  1  1
  9 11  1  0
 10  9  1  0
 11 12  2  0
 11 13  1  0
 13 14  1  0
 14 15  1  6
 15 16  1  0
 16 17  1  0
 17 18  1  0
 19 18  1  0
 20 14  1  0
 20 21  1  0
 22 20  2  0
M  END
$$$$
