GMK.pdb
     RDKit          3D

 22 21  0  0  1  0  0  0  0  0999 V2000
   23.1451  -14.9314  -18.8666 N   0  0  0  0  0  0  0  0  0  0  0  0
   23.0280  -13.5336  -19.1781 C   0  0  0  0  0  0  0  0  0  0  0  0
   23.2151  -12.6811  -17.9612 C   0  0  0  0  0  0  0  0  0  0  0  0
   22.5988  -12.9135  -16.8917 O   0  0  0  0  0  0  0  0  0  0  0  0
   27.9759  -13.1897  -14.6326 C   0  0  0  0  0  0  0  0  0  0  0  0
   26.5544  -12.1793  -15.0623 S   0  0  0  0  0  0  0  0  0  0  0  0
   26.7824  -11.0511  -16.4055 C   0  0  0  0  0  0  0  0  0  0  0  0
   25.6751  -10.1385  -16.7573 C   0  0  0  0  0  0  0  0  0  0  0  0
   24.3063  -10.6954  -16.9014 C   0  0  2  0  0  0  0  0  0  0  0  0
   24.1127  -11.5833  -18.0208 N   0  0  0  0  0  0  0  0  0  0  0  0
   23.3628   -9.4955  -17.0637 C   0  0  0  0  0  0  0  0  0  0  0  0
   23.3657   -8.8298  -18.1290 O   0  0  0  0  0  0  0  0  0  0  0  0
   22.4797   -9.1110  -16.0399 N   0  0  0  0  0  0  0  0  0  0  0  0
   21.6415   -7.9027  -16.1398 C   0  0  1  0  0  0  0  0  0  0  0  0
   20.2433   -8.4432  -16.3776 C   0  0  0  0  0  0  0  0  0  0  0  0
   19.1835   -7.4251  -16.4169 C   0  0  0  0  0  0  0  0  0  0  0  0
   17.8059   -7.9649  -16.4455 C   0  0  0  0  0  0  0  0  0  0  0  0
   16.7134   -6.9501  -16.5025 C   0  0  0  0  0  0  0  0  0  0  0  0
   15.3871   -7.4520  -16.3459 N   0  0  0  0  0  0  0  0  0  0  0  0
   21.6252   -7.1732  -14.8527 C   0  0  0  0  0  0  0  0  0  0  0  0
   21.3463   -5.8199  -14.8781 O   0  0  0  0  0  0  0  0  0  0  0  0
   21.8482   -7.7244  -13.7803 O   0  0  0  0  0  0  0  0  0  0  0  0
  2  3  1  0
  2  1  1  0
  3 10  1  0
  4  3  2  0
  6  5  1  0
  7  6  1  0
  7  8  1  0
  9  8  1  6
  9 11  1  0
 10  9  1  0
 11 12  2  0
 11 13  1  0
 13 14  1  0
 14 15  1  1
 15 16  1  0
 16 17  1  0
 17 18  1  0
 19 18  1  0
 20 14  1  0
 20 21  1  0
 22 20  2  0
M  END
$$$$
