GMK.pdb
     RDKit          3D

 22 21  0  0  1  0  0  0  0  0999 V2000
   28.5342  -22.1889  -15.4707 N   0  0  0  0  0  0  0  0  0  0  0  0
   28.1422  -21.0355  -14.7088 C   0  0  0  0  0  0  0  0  0  0  0  0
   27.1902  -21.3985  -13.6114 C   0  0  0  0  0  0  0  0  0  0  0  0
   26.2424  -22.2013  -13.7988 O   0  0  0  0  0  0  0  0  0  0  0  0
   28.2175  -19.6762   -7.0492 C   0  0  0  0  0  0  0  0  0  0  0  0
   26.5327  -20.2892   -7.1577 S   0  0  0  0  0  0  0  0  0  0  0  0
   26.0246  -20.8844   -8.7440 C   0  0  0  0  0  0  0  0  0  0  0  0
   26.8503  -20.5489   -9.9223 C   0  0  0  0  0  0  0  0  0  0  0  0
   26.4231  -21.0357  -11.2583 C   0  0  2  0  0  0  0  0  0  0  0  0
   27.3658  -20.8193  -12.3276 N   0  0  0  0  0  0  0  0  0  0  0  0
   25.1238  -20.2923  -11.5977 C   0  0  0  0  0  0  0  0  0  0  0  0
   25.1374  -19.0500  -11.7839 O   0  0  0  0  0  0  0  0  0  0  0  0
   23.8970  -20.9695  -11.7088 N   0  0  0  0  0  0  0  0  0  0  0  0
   22.6712  -20.2997  -12.1797 C   0  0  1  0  0  0  0  0  0  0  0  0
   22.5051  -20.7952  -13.6046 C   0  0  0  0  0  0  0  0  0  0  0  0
   21.2997  -20.3108  -14.2927 C   0  0  0  0  0  0  0  0  0  0  0  0
   21.1121  -20.8406  -15.6618 C   0  0  0  0  0  0  0  0  0  0  0  0
   19.9587  -20.2769  -16.4223 C   0  0  0  0  0  0  0  0  0  0  0  0
   19.7853  -20.7712  -17.7493 N   0  0  0  0  0  0  0  0  0  0  0  0
   21.4970  -20.7611  -11.4068 C   0  0  0  0  0  0  0  0  0  0  0  0
   20.3868  -19.9392  -11.3618 O   0  0  0  0  0  0  0  0  0  0  0  0
   21.4790  -21.8343  -10.8139 O   0  0  0  0  0  0  0  0  0  0  0  0
  2  3  1  0
  2  1  1  0
  3 10  1  0
  4  3  2  0
  6  5  1  0
  7  6  1  0
  7  8  1  0
  9  8  1  1
  9 11  1  0
 10  9  1  0
 11 12  2  0
 11 13  1  0
 13 14  1  0
 14 15  1  6
 15 16  1  0
 16 17  1  0
 17 18  1  0
 19 18  1  0
 20 14  1  0
 20 21  1  0
 22 20  2  0
M  END
$$$$
