GMK.pdb
     RDKit          3D

 22 21  0  0  1  0  0  0  0  0999 V2000
   31.3965  -22.0903  -10.1099 N   0  0  0  0  0  0  0  0  0  0  0  0
   30.5154  -20.9794  -10.3421 C   0  0  0  0  0  0  0  0  0  0  0  0
   29.1438  -21.2427   -9.8016 C   0  0  0  0  0  0  0  0  0  0  0  0
   28.6608  -22.4016   -9.7639 O   0  0  0  0  0  0  0  0  0  0  0  0
   27.8663  -21.4154   -4.6325 C   0  0  0  0  0  0  0  0  0  0  0  0
   27.0908  -19.8487   -5.0454 S   0  0  0  0  0  0  0  0  0  0  0  0
   27.5189  -19.1621   -6.6183 C   0  0  0  0  0  0  0  0  0  0  0  0
   26.6093  -19.3900   -7.7600 C   0  0  0  0  0  0  0  0  0  0  0  0
   27.0270  -20.3282   -8.8323 C   0  0  2  0  0  0  0  0  0  0  0  0
   28.3725  -20.1530   -9.3200 N   0  0  0  0  0  0  0  0  0  0  0  0
   26.0546  -20.1148  -10.0007 C   0  0  0  0  0  0  0  0  0  0  0  0
   26.1177  -19.0674  -10.6913 O   0  0  0  0  0  0  0  0  0  0  0  0
   25.0782  -21.0714  -10.3285 N   0  0  0  0  0  0  0  0  0  0  0  0
   24.1941  -20.9207  -11.4983 C   0  0  1  0  0  0  0  0  0  0  0  0
   23.4020  -22.2150  -11.5303 C   0  0  0  0  0  0  0  0  0  0  0  0
   22.3912  -22.2970  -12.5946 C   0  0  0  0  0  0  0  0  0  0  0  0
   21.5636  -23.5236  -12.5706 C   0  0  0  0  0  0  0  0  0  0  0  0
   20.4831  -23.5964  -13.5971 C   0  0  0  0  0  0  0  0  0  0  0  0
   19.6282  -24.7361  -13.5230 N   0  0  0  0  0  0  0  0  0  0  0  0
   23.2342  -19.8151  -11.2855 C   0  0  0  0  0  0  0  0  0  0  0  0
   22.7980  -19.1131  -12.3932 O   0  0  0  0  0  0  0  0  0  0  0  0
   22.8201  -19.5071  -10.1732 O   0  0  0  0  0  0  0  0  0  0  0  0
  2  3  1  0
  2  1  1  0
  3 10  1  0
  4  3  2  0
  6  5  1  0
  7  6  1  0
  7  8  1  0
  9  8  1  1
  9 11  1  0
 10  9  1  0
 11 12  2  0
 11 13  1  0
 13 14  1  0
 14 15  1  1
 15 16  1  0
 16 17  1  0
 17 18  1  0
 19 18  1  0
 20 14  1  0
 20 21  1  0
 22 20  2  0
M  END
$$$$
