DEA.pdb
     RDKit          3D

 23 22  0  0  1  0  0  0  0  0999 V2000
    9.9190  -18.2237   21.4178 N   0  0  0  0  0  0  0  0  0  0  0  0
    9.6044  -16.8132   21.3041 C   0  0  1  0  0  0  0  0  0  0  0  0
    8.6275  -16.5631   20.1778 C   0  0  0  0  0  0  0  0  0  0  0  0
    9.1791  -17.0074   18.8750 C   0  0  0  0  0  0  0  0  0  0  0  0
    8.5840  -16.6683   17.8334 O   0  0  0  0  0  0  0  0  0  0  0  0
    9.1032  -16.3551   22.6063 C   0  0  0  0  0  0  0  0  0  0  0  0
    8.6870  -15.1791   22.7726 O   0  0  0  0  0  0  0  0  0  0  0  0
   10.3226  -17.7788   18.7803 O   0  0  0  0  0  0  0  0  0  0  0  0
    9.0466  -17.1906   23.7737 N   0  0  0  0  0  0  0  0  0  0  0  0
    8.5671  -16.7880   25.0487 C   0  0  1  0  0  0  0  0  0  0  0  0
    8.4145  -18.0185   25.9450 C   0  0  0  0  0  0  0  0  0  0  0  0
    7.5756  -19.0643   25.2411 C   0  0  0  0  0  0  0  0  0  0  0  0
    7.4507  -20.2723   26.0836 C   0  0  0  0  0  0  0  0  0  0  0  0
    6.8419  -20.2123   27.1870 O   0  0  0  0  0  0  0  0  0  0  0  0
    9.4406  -15.8365   25.7650 C   0  0  0  0  0  0  0  0  0  0  0  0
   10.6970  -15.9204   25.7276 O   0  0  0  0  0  0  0  0  0  0  0  0
    8.0016  -21.4526   25.6534 O   0  0  0  0  0  0  0  0  0  0  0  0
    8.8227  -12.5774   27.4321 C   0  0  0  0  0  0  0  0  0  0  0  0
    9.5513  -13.8990   27.2936 C   0  0  2  0  0  0  0  0  0  0  0  0
    8.7841  -14.8119   26.5056 N   0  0  0  0  0  0  0  0  0  0  0  0
    9.8359  -14.5032   28.6045 C   0  0  0  0  0  0  0  0  0  0  0  0
    9.3460  -15.7625   28.8918 O   0  0  0  0  0  0  0  0  0  0  0  0
   10.5146  -13.8940   29.4628 O   0  0  0  0  0  0  0  0  0  0  0  0
  2  1  1  1
  2  6  1  0
  3  2  1  0
  3  4  1  0
  4  8  1  0
  5  4  2  0
  6  7  2  0
  9 10  1  0
  9  6  1  0
 10 15  1  0
 11 12  1  0
 10 11  1  1
 12 13  1  0
 13 14  2  0
 15 16  2  0
 17 13  1  0
 19 18  1  1
 19 21  1  0
 20 15  1  0
 20 19  1  0
 21 23  2  0
 21 22  1  0
M  END
$$$$
