DEA.pdb
     RDKit          3D

 23 22  0  0  1  0  0  0  0  0999 V2000
    9.5889  -14.9648   19.8045 N   0  0  0  0  0  0  0  0  0  0  0  0
    8.5350  -14.0413   20.1756 C   0  0  1  0  0  0  0  0  0  0  0  0
    7.4719  -13.9701   19.1031 C   0  0  0  0  0  0  0  0  0  0  0  0
    8.0583  -13.6411   17.7815 C   0  0  0  0  0  0  0  0  0  0  0  0
    9.2922  -13.4817   17.7042 O   0  0  0  0  0  0  0  0  0  0  0  0
    8.0036  -14.4611   21.4786 C   0  0  0  0  0  0  0  0  0  0  0  0
    6.9201  -14.0018   21.9246 O   0  0  0  0  0  0  0  0  0  0  0  0
    7.2862  -13.5067   16.6424 O   0  0  0  0  0  0  0  0  0  0  0  0
    8.6598  -15.4097   22.3353 N   0  0  0  0  0  0  0  0  0  0  0  0
    8.2995  -15.6869   23.6809 C   0  0  1  0  0  0  0  0  0  0  0  0
    9.1095  -16.8821   24.1872 C   0  0  0  0  0  0  0  0  0  0  0  0
    8.9483  -18.0498   23.2368 C   0  0  0  0  0  0  0  0  0  0  0  0
    9.7699  -19.1931   23.6866 C   0  0  0  0  0  0  0  0  0  0  0  0
    9.3681  -19.9263   24.6315 O   0  0  0  0  0  0  0  0  0  0  0  0
    8.5330  -14.5749   24.6246 C   0  0  0  0  0  0  0  0  0  0  0  0
    9.6771  -14.0815   24.8101 O   0  0  0  0  0  0  0  0  0  0  0  0
   10.9677  -19.4458   23.0677 O   0  0  0  0  0  0  0  0  0  0  0  0
    6.1773  -12.3102   26.4281 C   0  0  0  0  0  0  0  0  0  0  0  0
    7.5192  -12.9822   26.2177 C   0  0  2  0  0  0  0  0  0  0  0  0
    7.3894  -14.0860   25.3191 N   0  0  0  0  0  0  0  0  0  0  0  0
    8.0985  -13.4495   27.4868 C   0  0  0  0  0  0  0  0  0  0  0  0
    8.5402  -12.5241   28.4124 O   0  0  0  0  0  0  0  0  0  0  0  0
    8.1971  -14.6720   27.7404 O   0  0  0  0  0  0  0  0  0  0  0  0
  2  1  1  6
  2  6  1  0
  3  2  1  0
  3  4  1  0
  4  8  1  0
  5  4  2  0
  6  7  2  0
  9 10  1  0
  9  6  1  0
 10 15  1  0
 11 12  1  0
 10 11  1  1
 12 13  1  0
 13 14  2  0
 15 16  2  0
 17 13  1  0
 19 18  1  1
 19 21  1  0
 20 15  1  0
 20 19  1  0
 21 23  2  0
 21 22  1  0
M  END
$$$$
