DEA.pdb
     RDKit          3D

 23 22  0  0  1  0  0  0  0  0999 V2000
    9.2494  -16.9209   20.5537 N   0  0  0  0  0  0  0  0  0  0  0  0
    8.1340  -16.0202   20.3396 C   0  0  1  0  0  0  0  0  0  0  0  0
    7.1582  -16.5920   19.3364 C   0  0  0  0  0  0  0  0  0  0  0  0
    7.8245  -16.8966   18.0472 C   0  0  0  0  0  0  0  0  0  0  0  0
    8.9260  -17.4797   18.0731 O   0  0  0  0  0  0  0  0  0  0  0  0
    7.5166  -15.7466   21.6438 C   0  0  0  0  0  0  0  0  0  0  0  0
    6.4879  -15.0289   21.7454 O   0  0  0  0  0  0  0  0  0  0  0  0
    7.2672  -16.5572   16.8282 O   0  0  0  0  0  0  0  0  0  0  0  0
    8.0226  -16.2628   22.8854 N   0  0  0  0  0  0  0  0  0  0  0  0
    7.4567  -16.0221   24.1658 C   0  0  1  0  0  0  0  0  0  0  0  0
    7.7206  -17.2264   25.0717 C   0  0  0  0  0  0  0  0  0  0  0  0
    7.0543  -18.4575   24.4944 C   0  0  0  0  0  0  0  0  0  0  0  0
    7.4133  -19.6528   25.2864 C   0  0  0  0  0  0  0  0  0  0  0  0
    6.5323  -20.2481   25.9656 O   0  0  0  0  0  0  0  0  0  0  0  0
    7.9873  -14.8324   24.8620 C   0  0  0  0  0  0  0  0  0  0  0  0
    9.2214  -14.5885   24.9279 O   0  0  0  0  0  0  0  0  0  0  0  0
    8.7085  -20.1041   25.2740 O   0  0  0  0  0  0  0  0  0  0  0  0
    6.3251  -11.8242   26.3331 C   0  0  0  0  0  0  0  0  0  0  0  0
    7.4551  -12.8253   26.2004 C   0  0  2  0  0  0  0  0  0  0  0  0
    7.0244  -13.9690   25.4592 N   0  0  0  0  0  0  0  0  0  0  0  0
    7.9586  -13.2547   27.5144 C   0  0  0  0  0  0  0  0  0  0  0  0
    8.6429  -12.3531   28.3063 O   0  0  0  0  0  0  0  0  0  0  0  0
    7.7766  -14.4236   27.9254 O   0  0  0  0  0  0  0  0  0  0  0  0
  2  1  1  1
  2  6  1  0
  3  2  1  0
  3  4  1  0
  4  8  1  0
  5  4  2  0
  6  7  2  0
  9 10  1  0
  9  6  1  0
 10 15  1  0
 11 12  1  0
 10 11  1  1
 12 13  1  0
 13 14  2  0
 15 16  2  0
 17 13  1  0
 19 18  1  1
 19 21  1  0
 20 15  1  0
 20 19  1  0
 21 23  2  0
 21 22  1  0
M  END
$$$$
