DEA.pdb
     RDKit          3D

 23 22  0  0  1  0  0  0  0  0999 V2000
    9.3671  -16.9404   20.2867 N   0  0  0  0  0  0  0  0  0  0  0  0
    8.1608  -16.1529   20.1257 C   0  0  1  0  0  0  0  0  0  0  0  0
    7.1902  -16.8311   19.1858 C   0  0  0  0  0  0  0  0  0  0  0  0
    7.8390  -17.1820   17.8993 C   0  0  0  0  0  0  0  0  0  0  0  0
    8.9393  -17.7671   17.9312 O   0  0  0  0  0  0  0  0  0  0  0  0
    7.5930  -15.9172   21.4594 C   0  0  0  0  0  0  0  0  0  0  0  0
    6.5147  -15.2864   21.6116 O   0  0  0  0  0  0  0  0  0  0  0  0
    7.2668  -16.8832   16.6766 O   0  0  0  0  0  0  0  0  0  0  0  0
    8.2057  -16.3757   22.6754 N   0  0  0  0  0  0  0  0  0  0  0  0
    7.7065  -16.1427   23.9846 C   0  0  1  0  0  0  0  0  0  0  0  0
    8.1801  -17.2612   24.9148 C   0  0  0  0  0  0  0  0  0  0  0  0
    9.6728  -17.4610   24.7572 C   0  0  0  0  0  0  0  0  0  0  0  0
   10.1415  -18.5423   25.6493 C   0  0  0  0  0  0  0  0  0  0  0  0
   11.1713  -19.2065   25.3491 O   0  0  0  0  0  0  0  0  0  0  0  0
    8.1344  -14.8655   24.5906 C   0  0  0  0  0  0  0  0  0  0  0  0
    9.3158  -14.4394   24.4935 O   0  0  0  0  0  0  0  0  0  0  0  0
    9.4471  -18.8132   26.8007 O   0  0  0  0  0  0  0  0  0  0  0  0
    6.2104  -12.0455   26.0898 C   0  0  0  0  0  0  0  0  0  0  0  0
    7.4603  -12.8809   25.8982 C   0  0  2  0  0  0  0  0  0  0  0  0
    7.1348  -14.1355   25.2958 N   0  0  0  0  0  0  0  0  0  0  0  0
    8.1581  -13.1157   27.1719 C   0  0  0  0  0  0  0  0  0  0  0  0
    8.7912  -12.0625   27.8028 O   0  0  0  0  0  0  0  0  0  0  0  0
    8.1870  -14.2546   27.6921 O   0  0  0  0  0  0  0  0  0  0  0  0
  2  1  1  1
  2  6  1  0
  3  2  1  0
  3  4  1  0
  4  8  1  0
  5  4  2  0
  6  7  2  0
  9 10  1  0
  9  6  1  0
 10 15  1  0
 11 12  1  0
 10 11  1  1
 12 13  1  0
 13 14  2  0
 15 16  2  0
 17 13  1  0
 19 18  1  1
 19 21  1  0
 20 15  1  0
 20 19  1  0
 21 23  2  0
 21 22  1  0
M  END
$$$$
