DEA.pdb
     RDKit          3D

 23 22  0  0  1  0  0  0  0  0999 V2000
   12.7510  -15.7215   17.4201 N   0  0  0  0  0  0  0  0  0  0  0  0
   13.1232  -15.7164   18.8211 C   0  0  1  0  0  0  0  0  0  0  0  0
   13.7334  -14.3909   19.2166 C   0  0  0  0  0  0  0  0  0  0  0  0
   15.0378  -14.1744   18.5454 C   0  0  0  0  0  0  0  0  0  0  0  0
   15.9436  -15.0113   18.7275 O   0  0  0  0  0  0  0  0  0  0  0  0
   11.9294  -16.0521   19.6077 C   0  0  0  0  0  0  0  0  0  0  0  0
   10.7814  -15.6816   19.2490 O   0  0  0  0  0  0  0  0  0  0  0  0
   15.2786  -13.0832   17.7312 O   0  0  0  0  0  0  0  0  0  0  0  0
   11.9693  -16.8142   20.8250 N   0  0  0  0  0  0  0  0  0  0  0  0
   10.8564  -17.0711   21.6693 C   0  0  1  0  0  0  0  0  0  0  0  0
   10.7147  -18.5803   21.8770 C   0  0  0  0  0  0  0  0  0  0  0  0
   10.2455  -19.2323   20.5933 C   0  0  0  0  0  0  0  0  0  0  0  0
   10.0463  -20.6824   20.7988 C   0  0  0  0  0  0  0  0  0  0  0  0
    9.0841  -21.0939   21.5036 O   0  0  0  0  0  0  0  0  0  0  0  0
   10.9427  -16.4561   23.0094 C   0  0  0  0  0  0  0  0  0  0  0  0
   11.9942  -16.5010   23.7017 O   0  0  0  0  0  0  0  0  0  0  0  0
   10.9154  -21.5700   20.2173 O   0  0  0  0  0  0  0  0  0  0  0  0
    8.5425  -14.3165   24.9439 C   0  0  0  0  0  0  0  0  0  0  0  0
    9.7542  -15.2122   24.7823 C   0  0  2  0  0  0  0  0  0  0  0  0
    9.7669  -15.8052   23.4819 N   0  0  0  0  0  0  0  0  0  0  0  0
    9.7882  -16.2708   25.8034 C   0  0  0  0  0  0  0  0  0  0  0  0
   10.0940  -15.9433   27.1101 O   0  0  0  0  0  0  0  0  0  0  0  0
    9.5445  -17.4628   25.5064 O   0  0  0  0  0  0  0  0  0  0  0  0
  2  1  1  6
  2  6  1  0
  3  2  1  0
  3  4  1  0
  4  8  1  0
  5  4  2  0
  6  7  2  0
  9 10  1  0
  9  6  1  0
 10 15  1  0
 11 12  1  0
 10 11  1  1
 12 13  1  0
 13 14  2  0
 15 16  2  0
 17 13  1  0
 19 18  1  1
 19 21  1  0
 20 15  1  0
 20 19  1  0
 21 23  2  0
 21 22  1  0
M  END
$$$$
