DEA.pdb
     RDKit          3D

 23 22  0  0  1  0  0  0  0  0999 V2000
    8.9666  -17.3661   20.0393 N   0  0  0  0  0  0  0  0  0  0  0  0
    9.9622  -16.9133   20.9906 C   0  0  1  0  0  0  0  0  0  0  0  0
   10.8005  -15.7970   20.4104 C   0  0  0  0  0  0  0  0  0  0  0  0
   11.9364  -16.3288   19.6193 C   0  0  0  0  0  0  0  0  0  0  0  0
   12.0659  -15.9481   18.4394 O   0  0  0  0  0  0  0  0  0  0  0  0
    9.2657  -16.5223   22.2229 C   0  0  0  0  0  0  0  0  0  0  0  0
    8.5682  -15.4763   22.2791 O   0  0  0  0  0  0  0  0  0  0  0  0
   12.8481  -17.2256   20.1448 O   0  0  0  0  0  0  0  0  0  0  0  0
    9.3199  -17.2826   23.4408 N   0  0  0  0  0  0  0  0  0  0  0  0
    8.6089  -16.9767   24.6318 C   0  0  1  0  0  0  0  0  0  0  0  0
    8.4074  -18.2566   25.4455 C   0  0  0  0  0  0  0  0  0  0  0  0
    7.5311  -17.9677   26.6461 C   0  0  0  0  0  0  0  0  0  0  0  0
    7.3574  -19.1900   27.4589 C   0  0  0  0  0  0  0  0  0  0  0  0
    7.7728  -19.2205   28.6499 O   0  0  0  0  0  0  0  0  0  0  0  0
    9.2776  -16.0017   25.5172 C   0  0  0  0  0  0  0  0  0  0  0  0
   10.5108  -16.0587   25.7677 O   0  0  0  0  0  0  0  0  0  0  0  0
    6.7428  -20.2843   26.9057 O   0  0  0  0  0  0  0  0  0  0  0  0
    8.0229  -12.8283   27.0833 C   0  0  0  0  0  0  0  0  0  0  0  0
    9.0358  -13.9288   26.8391 C   0  0  2  0  0  0  0  0  0  0  0  0
    8.4497  -14.9866   26.0771 N   0  0  0  0  0  0  0  0  0  0  0  0
    9.5661  -14.4696   28.1003 C   0  0  0  0  0  0  0  0  0  0  0  0
   10.3475  -13.6660   28.9077 O   0  0  0  0  0  0  0  0  0  0  0  0
    9.3203  -15.6460   28.4527 O   0  0  0  0  0  0  0  0  0  0  0  0
  2  1  1  6
  2  6  1  0
  3  2  1  0
  3  4  1  0
  4  8  1  0
  5  4  2  0
  6  7  2  0
  9 10  1  0
  9  6  1  0
 10 15  1  0
 11 12  1  0
 10 11  1  1
 12 13  1  0
 13 14  2  0
 15 16  2  0
 17 13  1  0
 19 18  1  1
 19 21  1  0
 20 15  1  0
 20 19  1  0
 21 23  2  0
 21 22  1  0
M  END
$$$$
