DEA.pdb
     RDKit          3D

 23 22  0  0  1  0  0  0  0  0999 V2000
   10.1876  -15.7205   19.0628 N   0  0  0  0  0  0  0  0  0  0  0  0
   10.7614  -15.6119   20.3895 C   0  0  1  0  0  0  0  0  0  0  0  0
   11.6250  -14.3768   20.5089 C   0  0  0  0  0  0  0  0  0  0  0  0
   12.9604  -14.5899   19.9004 C   0  0  0  0  0  0  0  0  0  0  0  0
   13.4812  -15.7186   19.9953 O   0  0  0  0  0  0  0  0  0  0  0  0
    9.6609  -15.6346   21.3617 C   0  0  0  0  0  0  0  0  0  0  0  0
    8.5428  -15.1200   21.0995 O   0  0  0  0  0  0  0  0  0  0  0  0
   13.6398  -13.5850   19.2370 O   0  0  0  0  0  0  0  0  0  0  0  0
    9.7645  -16.2320   22.6642 N   0  0  0  0  0  0  0  0  0  0  0  0
    8.7594  -16.1938   23.6670 C   0  0  1  0  0  0  0  0  0  0  0  0
    8.8006  -17.4915   24.4764 C   0  0  0  0  0  0  0  0  0  0  0  0
    7.7105  -17.4748   25.5272 C   0  0  0  0  0  0  0  0  0  0  0  0
    7.6998  -18.7503   26.2741 C   0  0  0  0  0  0  0  0  0  0  0  0
    7.5829  -19.8434   25.6551 O   0  0  0  0  0  0  0  0  0  0  0  0
    8.8879  -15.0799   24.6284 C   0  0  0  0  0  0  0  0  0  0  0  0
    9.9904  -14.7709   25.1537 O   0  0  0  0  0  0  0  0  0  0  0  0
    7.8179  -18.7309   27.6406 O   0  0  0  0  0  0  0  0  0  0  0  0
    6.4148  -12.4871   25.7592 C   0  0  0  0  0  0  0  0  0  0  0  0
    7.7442  -13.2144   25.7751 C   0  0  2  0  0  0  0  0  0  0  0  0
    7.6921  -14.3682   24.9330 N   0  0  0  0  0  0  0  0  0  0  0  0
    8.1267  -13.6191   27.1368 C   0  0  0  0  0  0  0  0  0  0  0  0
    8.4940  -12.6532   28.0536 O   0  0  0  0  0  0  0  0  0  0  0  0
    8.1245  -14.8243   27.4771 O   0  0  0  0  0  0  0  0  0  0  0  0
  2  1  1  6
  2  6  1  0
  3  2  1  0
  3  4  1  0
  4  8  1  0
  5  4  2  0
  6  7  2  0
  9 10  1  0
  9  6  1  0
 10 15  1  0
 11 12  1  0
 10 11  1  1
 12 13  1  0
 13 14  2  0
 15 16  2  0
 17 13  1  0
 19 18  1  1
 19 21  1  0
 20 15  1  0
 20 19  1  0
 21 23  2  0
 21 22  1  0
M  END
$$$$
