DEA.pdb
     RDKit          3D

 23 22  0  0  1  0  0  0  0  0999 V2000
   10.9784  -15.7020   19.5160 N   0  0  0  0  0  0  0  0  0  0  0  0
   11.8298  -15.6104   20.6856 C   0  0  1  0  0  0  0  0  0  0  0  0
   12.6490  -14.3400   20.6635 C   0  0  0  0  0  0  0  0  0  0  0  0
   13.7370  -14.4156   19.6588 C   0  0  0  0  0  0  0  0  0  0  0  0
   13.9976  -15.5235   19.1504 O   0  0  0  0  0  0  0  0  0  0  0  0
   10.9765  -15.7183   21.8760 C   0  0  0  0  0  0  0  0  0  0  0  0
    9.8447  -15.1701   21.9242 O   0  0  0  0  0  0  0  0  0  0  0  0
   14.4647  -13.3056   19.2716 O   0  0  0  0  0  0  0  0  0  0  0  0
   11.3523  -16.4416   23.0591 N   0  0  0  0  0  0  0  0  0  0  0  0
   10.5241  -16.6439   24.1952 C   0  0  1  0  0  0  0  0  0  0  0  0
   10.6977  -18.0775   24.7008 C   0  0  0  0  0  0  0  0  0  0  0  0
    9.8610  -18.2866   25.9454 C   0  0  0  0  0  0  0  0  0  0  0  0
    9.9773  -19.6844   26.4116 C   0  0  0  0  0  0  0  0  0  0  0  0
    9.5017  -20.0181   27.5315 O   0  0  0  0  0  0  0  0  0  0  0  0
   10.8069  -15.7463   25.3335 C   0  0  0  0  0  0  0  0  0  0  0  0
   11.9818  -15.4630   25.6887 O   0  0  0  0  0  0  0  0  0  0  0  0
   10.6051  -20.6089   25.6162 O   0  0  0  0  0  0  0  0  0  0  0  0
    8.6360  -13.5309   27.4076 C   0  0  0  0  0  0  0  0  0  0  0  0
    9.8575  -14.3963   27.1717 C   0  0  2  0  0  0  0  0  0  0  0  0
    9.6742  -15.2138   26.0138 N   0  0  0  0  0  0  0  0  0  0  0  0
   10.1512  -15.2508   28.3328 C   0  0  0  0  0  0  0  0  0  0  0  0
   10.6482  -14.6787   29.4877 O   0  0  0  0  0  0  0  0  0  0  0  0
    9.9577  -16.4874   28.2901 O   0  0  0  0  0  0  0  0  0  0  0  0
  2  1  1  6
  2  6  1  0
  3  2  1  0
  3  4  1  0
  4  8  1  0
  5  4  2  0
  6  7  2  0
  9 10  1  0
  9  6  1  0
 10 15  1  0
 11 12  1  0
 10 11  1  1
 12 13  1  0
 13 14  2  0
 15 16  2  0
 17 13  1  0
 19 18  1  1
 19 21  1  0
 20 15  1  0
 20 19  1  0
 21 23  2  0
 21 22  1  0
M  END
$$$$
