DEA.pdb
     RDKit          3D

 23 22  0  0  1  0  0  0  0  0999 V2000
    8.9974  -18.0679   19.9115 N   0  0  0  0  0  0  0  0  0  0  0  0
    8.7021  -16.6620   20.1054 C   0  0  1  0  0  0  0  0  0  0  0  0
    7.8490  -16.1252   18.9786 C   0  0  0  0  0  0  0  0  0  0  0  0
    8.5528  -16.2170   17.6766 C   0  0  0  0  0  0  0  0  0  0  0  0
    9.6883  -16.7308   17.6522 O   0  0  0  0  0  0  0  0  0  0  0  0
    8.0696  -16.5099   21.4221 C   0  0  0  0  0  0  0  0  0  0  0  0
    6.8399  -16.7199   21.5878 O   0  0  0  0  0  0  0  0  0  0  0  0
    7.9939  -15.7547   16.4995 O   0  0  0  0  0  0  0  0  0  0  0  0
    8.7840  -16.1177   22.6053 N   0  0  0  0  0  0  0  0  0  0  0  0
    8.2192  -15.9976   23.9030 C   0  0  1  0  0  0  0  0  0  0  0  0
    8.8315  -17.0558   24.8228 C   0  0  0  0  0  0  0  0  0  0  0  0
   10.3378  -16.9033   24.8478 C   0  0  0  0  0  0  0  0  0  0  0  0
   10.9379  -17.8977   25.7621 C   0  0  0  0  0  0  0  0  0  0  0  0
   11.1431  -19.0775   25.3650 O   0  0  0  0  0  0  0  0  0  0  0  0
    8.4313  -14.6869   24.5501 C   0  0  0  0  0  0  0  0  0  0  0  0
    9.5437  -14.0965   24.5211 O   0  0  0  0  0  0  0  0  0  0  0  0
   11.2670  -17.5241   27.0402 O   0  0  0  0  0  0  0  0  0  0  0  0
    6.0592  -12.2417   26.0906 C   0  0  0  0  0  0  0  0  0  0  0  0
    7.4260  -12.8593   25.8738 C   0  0  2  0  0  0  0  0  0  0  0  0
    7.3047  -14.1210   25.2134 N   0  0  0  0  0  0  0  0  0  0  0  0
    8.1496  -13.0380   27.1422 C   0  0  0  0  0  0  0  0  0  0  0  0
    8.5913  -11.9268   27.8337 O   0  0  0  0  0  0  0  0  0  0  0  0
    8.3709  -14.1810   27.6040 O   0  0  0  0  0  0  0  0  0  0  0  0
  2  1  1  6
  2  6  1  0
  3  2  1  0
  3  4  1  0
  4  8  1  0
  5  4  2  0
  6  7  2  0
  9 10  1  0
  9  6  1  0
 10 15  1  0
 11 12  1  0
 10 11  1  1
 12 13  1  0
 13 14  2  0
 15 16  2  0
 17 13  1  0
 19 18  1  1
 19 21  1  0
 20 15  1  0
 20 19  1  0
 21 23  2  0
 21 22  1  0
M  END
$$$$
