DEA.pdb
     RDKit          3D

 23 22  0  0  1  0  0  0  0  0999 V2000
    8.8462  -17.5253   20.4582 N   0  0  0  0  0  0  0  0  0  0  0  0
    9.9095  -17.2101   21.3917 C   0  0  1  0  0  0  0  0  0  0  0  0
   10.9804  -16.3708   20.7327 C   0  0  0  0  0  0  0  0  0  0  0  0
   11.9481  -17.2144   19.9906 C   0  0  0  0  0  0  0  0  0  0  0  0
   11.7778  -18.4493   19.9890 O   0  0  0  0  0  0  0  0  0  0  0  0
    9.3070  -16.5526   22.5585 C   0  0  0  0  0  0  0  0  0  0  0  0
    8.7830  -15.4117   22.4714 O   0  0  0  0  0  0  0  0  0  0  0  0
   13.0237  -16.6789   19.3064 O   0  0  0  0  0  0  0  0  0  0  0  0
    9.2654  -17.1419   23.8682 N   0  0  0  0  0  0  0  0  0  0  0  0
    8.6475  -16.5640   25.0091 C   0  0  1  0  0  0  0  0  0  0  0  0
    7.6948  -17.5813   25.6402 C   0  0  0  0  0  0  0  0  0  0  0  0
    8.4159  -18.8960   25.8514 C   0  0  0  0  0  0  0  0  0  0  0  0
    7.4953  -19.8977   26.4290 C   0  0  0  0  0  0  0  0  0  0  0  0
    7.5125  -20.1302   27.6689 O   0  0  0  0  0  0  0  0  0  0  0  0
    9.5838  -16.1335   26.0672 C   0  0  0  0  0  0  0  0  0  0  0  0
   10.6844  -16.7132   26.2656 O   0  0  0  0  0  0  0  0  0  0  0  0
    6.6270  -20.5676   25.6051 O   0  0  0  0  0  0  0  0  0  0  0  0
    9.5374  -13.1778   28.3818 C   0  0  0  0  0  0  0  0  0  0  0  0
   10.0367  -14.5180   27.8804 C   0  0  2  0  0  0  0  0  0  0  0  0
    9.1747  -15.0210   26.8574 N   0  0  0  0  0  0  0  0  0  0  0  0
   10.1332  -15.5040   28.9680 C   0  0  0  0  0  0  0  0  0  0  0  0
    9.3268  -16.6253   28.9406 O   0  0  0  0  0  0  0  0  0  0  0  0
   10.9342  -15.3426   29.9171 O   0  0  0  0  0  0  0  0  0  0  0  0
  2  1  1  6
  2  6  1  0
  3  2  1  0
  3  4  1  0
  4  8  1  0
  5  4  2  0
  6  7  2  0
  9 10  1  0
  9  6  1  0
 10 15  1  0
 11 12  1  0
 10 11  1  1
 12 13  1  0
 13 14  2  0
 15 16  2  0
 17 13  1  0
 19 18  1  1
 19 21  1  0
 20 15  1  0
 20 19  1  0
 21 23  2  0
 21 22  1  0
M  END
$$$$
