DEA.pdb
     RDKit          3D

 23 22  0  0  1  0  0  0  0  0999 V2000
    6.7725  -17.9664   20.1061 N   0  0  0  0  0  0  0  0  0  0  0  0
    7.6846  -16.9338   20.5567 C   0  0  1  0  0  0  0  0  0  0  0  0
    7.5050  -15.6632   19.7574 C   0  0  0  0  0  0  0  0  0  0  0  0
    7.9951  -15.8250   18.3673 C   0  0  0  0  0  0  0  0  0  0  0  0
    7.8684  -14.8672   17.5795 O   0  0  0  0  0  0  0  0  0  0  0  0
    7.4703  -16.7374   21.9962 C   0  0  0  0  0  0  0  0  0  0  0  0
    6.3122  -16.6635   22.4833 O   0  0  0  0  0  0  0  0  0  0  0  0
    8.5828  -16.9944   17.9216 O   0  0  0  0  0  0  0  0  0  0  0  0
    8.5390  -16.6156   22.9486 N   0  0  0  0  0  0  0  0  0  0  0  0
    8.3758  -16.3823   24.3401 C   0  0  1  0  0  0  0  0  0  0  0  0
    9.4257  -17.1810   25.1151 C   0  0  0  0  0  0  0  0  0  0  0  0
    9.2399  -16.9638   26.6021 C   0  0  0  0  0  0  0  0  0  0  0  0
   10.2490  -17.7317   27.3616 C   0  0  0  0  0  0  0  0  0  0  0  0
   11.3980  -17.9181   26.8752 O   0  0  0  0  0  0  0  0  0  0  0  0
    8.5163  -14.9704   24.7505 C   0  0  0  0  0  0  0  0  0  0  0  0
    9.5574  -14.3028   24.5114 O   0  0  0  0  0  0  0  0  0  0  0  0
    9.9225  -18.2363   28.5946 O   0  0  0  0  0  0  0  0  0  0  0  0
    6.0659  -12.5044   26.1200 C   0  0  0  0  0  0  0  0  0  0  0  0
    7.4623  -13.0403   25.8757 C   0  0  2  0  0  0  0  0  0  0  0  0
    7.4058  -14.3989   25.4356 N   0  0  0  0  0  0  0  0  0  0  0  0
    8.2981  -12.9512   27.0832 C   0  0  0  0  0  0  0  0  0  0  0  0
    8.6625  -11.7092   27.5659 O   0  0  0  0  0  0  0  0  0  0  0  0
    8.6838  -13.9828   27.6793 O   0  0  0  0  0  0  0  0  0  0  0  0
  2  1  1  6
  2  6  1  0
  3  2  1  0
  3  4  1  0
  4  8  1  0
  5  4  2  0
  6  7  2  0
  9 10  1  0
  9  6  1  0
 10 15  1  0
 11 12  1  0
 10 11  1  1
 12 13  1  0
 13 14  2  0
 15 16  2  0
 17 13  1  0
 19 18  1  1
 19 21  1  0
 20 15  1  0
 20 19  1  0
 21 23  2  0
 21 22  1  0
M  END
$$$$
