TQS.pdb
     RDKit          3D

 23 22  0  0  1  0  0  0  0  0999 V2000
   19.2564  -13.3822  -16.7343 C   0  0  0  0  0  0  0  0  0  0  0  0
   19.7206  -14.6358  -16.0470 C   0  0  1  0  0  0  0  0  0  0  0  0
   19.0104  -15.7599  -16.4824 O   0  0  0  0  0  0  0  0  0  0  0  0
   21.1732  -14.8538  -16.3711 C   0  0  2  0  0  0  0  0  0  0  0  0
   21.6721  -16.1043  -15.8727 N   0  0  0  0  0  0  0  0  0  0  0  0
   21.9831  -13.7467  -15.8347 C   0  0  0  0  0  0  0  0  0  0  0  0
   22.1372  -13.6101  -14.5878 O   0  0  0  0  0  0  0  0  0  0  0  0
   26.8232  -12.5089  -15.7508 N   0  0  0  0  0  0  0  0  0  0  0  0
   26.6566  -11.1064  -15.9098 C   0  0  0  0  0  0  0  0  0  0  0  0
   27.4876  -10.3351  -15.3745 O   0  0  0  0  0  0  0  0  0  0  0  0
   25.5337  -10.5380  -16.6866 C   0  0  0  0  0  0  0  0  0  0  0  0
   24.6375  -11.6652  -17.1441 C   0  0  0  0  0  0  0  0  0  0  0  0
   23.4036  -11.7309  -16.2519 C   0  0  2  0  0  0  0  0  0  0  0  0
   22.5920  -12.8303  -16.7314 N   0  0  0  0  0  0  0  0  0  0  0  0
   22.6285  -10.4726  -16.3856 C   0  0  0  0  0  0  0  0  0  0  0  0
   21.9872  -10.2191  -17.4353 O   0  0  0  0  0  0  0  0  0  0  0  0
   20.8865   -8.5346  -13.3851 O   0  0  0  0  0  0  0  0  0  0  0  0
   21.6278   -7.6157  -14.1483 C   0  0  0  0  0  0  0  0  0  0  0  0
   21.8351   -8.2707  -15.5196 C   0  0  2  0  0  0  0  0  0  0  0  0
   22.5790   -9.5076  -15.3397 N   0  0  0  0  0  0  0  0  0  0  0  0
   22.5882   -7.3157  -16.3481 C   0  0  0  0  0  0  0  0  0  0  0  0
   22.0355   -6.0984  -16.6644 O   0  0  0  0  0  0  0  0  0  0  0  0
   23.7233   -7.6069  -16.7631 O   0  0  0  0  0  0  0  0  0  0  0  0
  2  1  1  6
  2  3  1  0
  4  5  1  1
  4  2  1  0
  6  7  2  0
  6  4  1  0
  8  9  1  0
  9 10  2  0
  9 11  1  0
 11 12  1  0
 13 12  1  6
 13 15  1  0
 13 14  1  0
 14  6  1  0
 15 20  1  0
 16 15  2  0
 18 17  1  0
 19 18  1  1
 19 21  1  0
 20 19  1  0
 21 23  2  0
 21 22  1  0
M  END
$$$$
