TQS.pdb
     RDKit          3D

 23 22  0  0  1  0  0  0  0  0999 V2000
   16.2089  -10.9020  -16.7243 C   0  0  0  0  0  0  0  0  0  0  0  0
   16.2540  -12.3320  -16.2636 C   0  0  1  0  0  0  0  0  0  0  0  0
   15.0355  -12.9852  -16.4783 O   0  0  0  0  0  0  0  0  0  0  0  0
   17.3115  -13.0585  -17.0488 C   0  0  2  0  0  0  0  0  0  0  0  0
   17.4003  -14.4499  -16.7064 N   0  0  0  0  0  0  0  0  0  0  0  0
   18.6209  -12.4138  -16.8512 C   0  0  0  0  0  0  0  0  0  0  0  0
   19.2937  -12.6355  -15.8045 O   0  0  0  0  0  0  0  0  0  0  0  0
   21.8340   -9.6278  -21.4882 N   0  0  0  0  0  0  0  0  0  0  0  0
   22.6263   -9.3536  -20.3405 C   0  0  0  0  0  0  0  0  0  0  0  0
   23.7106   -8.7414  -20.4875 O   0  0  0  0  0  0  0  0  0  0  0  0
   22.2055   -9.7705  -18.9853 C   0  0  0  0  0  0  0  0  0  0  0  0
   20.8699  -10.4701  -19.0832 C   0  0  0  0  0  0  0  0  0  0  0  0
   20.3963  -10.8642  -17.6891 C   0  0  2  0  0  0  0  0  0  0  0  0
   19.1244  -11.5382  -17.8483 N   0  0  0  0  0  0  0  0  0  0  0  0
   20.1894   -9.6423  -16.8728 C   0  0  0  0  0  0  0  0  0  0  0  0
   19.1923   -8.9023  -17.0616 O   0  0  0  0  0  0  0  0  0  0  0  0
   21.1232   -7.1383  -12.9088 O   0  0  0  0  0  0  0  0  0  0  0  0
   21.3088   -8.3428  -13.6097 C   0  0  0  0  0  0  0  0  0  0  0  0
   20.8500   -8.0732  -15.0483 C   0  0  2  0  0  0  0  0  0  0  0  0
   21.1036   -9.2598  -15.8504 N   0  0  0  0  0  0  0  0  0  0  0  0
   21.6245   -6.9241  -15.5434 C   0  0  0  0  0  0  0  0  0  0  0  0
   21.3175   -5.6553  -15.1155 O   0  0  0  0  0  0  0  0  0  0  0  0
   22.5562   -7.0975  -16.3481 O   0  0  0  0  0  0  0  0  0  0  0  0
  2  1  1  6
  2  3  1  0
  4  5  1  1
  4  2  1  0
  6  7  2  0
  6  4  1  0
  8  9  1  0
  9 10  2  0
  9 11  1  0
 11 12  1  0
 13 12  1  6
 13 15  1  0
 13 14  1  0
 14  6  1  0
 15 20  1  0
 16 15  2  0
 18 17  1  0
 19 18  1  1
 19 21  1  0
 20 19  1  0
 21 23  2  0
 21 22  1  0
M  END
$$$$
