TQS.pdb
     RDKit          3D

 23 22  0  0  1  0  0  0  0  0999 V2000
   17.1187   -8.2371  -16.6579 C   0  0  0  0  0  0  0  0  0  0  0  0
   16.8420   -9.5178  -15.9214 C   0  0  1  0  0  0  0  0  0  0  0  0
   15.8089  -10.2477  -16.5194 O   0  0  0  0  0  0  0  0  0  0  0  0
   18.0829  -10.3675  -15.9486 C   0  0  2  0  0  0  0  0  0  0  0  0
   17.8724  -11.6762  -15.3971 N   0  0  0  0  0  0  0  0  0  0  0  0
   19.1740   -9.6931  -15.2248 C   0  0  0  0  0  0  0  0  0  0  0  0
   19.2178   -9.7183  -13.9620 O   0  0  0  0  0  0  0  0  0  0  0  0
   24.8061   -9.9883  -17.0194 N   0  0  0  0  0  0  0  0  0  0  0  0
   24.1333  -10.7354  -16.0147 C   0  0  0  0  0  0  0  0  0  0  0  0
   24.5859  -11.8596  -15.6934 O   0  0  0  0  0  0  0  0  0  0  0  0
   22.9197  -10.2220  -15.3431 C   0  0  0  0  0  0  0  0  0  0  0  0
   22.5664   -8.8777  -15.9356 C   0  0  0  0  0  0  0  0  0  0  0  0
   21.2869   -8.3564  -15.2921 C   0  0  2  0  0  0  0  0  0  0  0  0
   20.1803   -9.0117  -15.9580 N   0  0  0  0  0  0  0  0  0  0  0  0
   21.1800   -6.8936  -15.5174 C   0  0  0  0  0  0  0  0  0  0  0  0
   21.1786   -6.4189  -16.6802 O   0  0  0  0  0  0  0  0  0  0  0  0
   18.6342   -4.5968  -14.3975 O   0  0  0  0  0  0  0  0  0  0  0  0
   19.7914   -3.9865  -13.8830 C   0  0  0  0  0  0  0  0  0  0  0  0
   20.9653   -4.5470  -14.6956 C   0  0  2  0  0  0  0  0  0  0  0  0
   21.0755   -5.9739  -14.4354 N   0  0  0  0  0  0  0  0  0  0  0  0
   22.1762   -3.8342  -14.2585 C   0  0  0  0  0  0  0  0  0  0  0  0
   22.3619   -2.5194  -14.6106 O   0  0  0  0  0  0  0  0  0  0  0  0
   23.0322   -4.4180  -13.5714 O   0  0  0  0  0  0  0  0  0  0  0  0
  2  1  1  6
  2  3  1  0
  4  5  1  1
  4  2  1  0
  6  7  2  0
  6  4  1  0
  8  9  1  0
  9 10  2  0
  9 11  1  0
 11 12  1  0
 13 12  1  6
 13 15  1  0
 13 14  1  0
 14  6  1  0
 15 20  1  0
 16 15  2  0
 18 17  1  0
 19 18  1  1
 19 21  1  0
 20 19  1  0
 21 23  2  0
 21 22  1  0
M  END
$$$$
