TQS.pdb
     RDKit          3D

 23 22  0  0  1  0  0  0  0  0999 V2000
   20.8926  -15.5287  -18.9244 C   0  0  0  0  0  0  0  0  0  0  0  0
   21.1027  -15.5106  -17.4362 C   0  0  1  0  0  0  0  0  0  0  0  0
   22.1007  -14.6034  -17.0638 O   0  0  0  0  0  0  0  0  0  0  0  0
   19.8213  -15.0844  -16.7735 C   0  0  2  0  0  0  0  0  0  0  0  0
   18.7387  -15.9943  -17.0205 N   0  0  0  0  0  0  0  0  0  0  0  0
   19.4457  -13.7323  -17.2208 C   0  0  0  0  0  0  0  0  0  0  0  0
   19.3785  -13.4598  -18.4530 O   0  0  0  0  0  0  0  0  0  0  0  0
   15.7116  -12.7054  -14.7395 N   0  0  0  0  0  0  0  0  0  0  0  0
   15.5567  -12.6844  -16.1522 C   0  0  0  0  0  0  0  0  0  0  0  0
   14.6624  -13.3928  -16.6722 O   0  0  0  0  0  0  0  0  0  0  0  0
   16.4196  -11.8522  -17.0185 C   0  0  0  0  0  0  0  0  0  0  0  0
   17.4085  -11.1084  -16.1514 C   0  0  0  0  0  0  0  0  0  0  0  0
   18.8250  -11.3789  -16.6448 C   0  0  2  0  0  0  0  0  0  0  0  0
   19.1583  -12.7332  -16.2545 N   0  0  0  0  0  0  0  0  0  0  0  0
   19.7675  -10.4455  -15.9797 C   0  0  0  0  0  0  0  0  0  0  0  0
   20.3667  -10.7763  -14.9266 O   0  0  0  0  0  0  0  0  0  0  0  0
   22.1072   -6.2126  -16.0148 O   0  0  0  0  0  0  0  0  0  0  0  0
   21.1403   -6.9924  -16.6731 C   0  0  0  0  0  0  0  0  0  0  0  0
   20.9952   -8.2769  -15.8475 C   0  0  2  0  0  0  0  0  0  0  0  0
   20.0306   -9.1471  -16.5017 N   0  0  0  0  0  0  0  0  0  0  0  0
   20.5294   -7.8826  -14.5084 C   0  0  0  0  0  0  0  0  0  0  0  0
   21.4335   -7.7345  -13.4846 O   0  0  0  0  0  0  0  0  0  0  0  0
   19.3202   -7.6829  -14.3002 O   0  0  0  0  0  0  0  0  0  0  0  0
  2  1  1  6
  2  3  1  0
  4  5  1  6
  4  2  1  0
  6  7  2  0
  6  4  1  0
  8  9  1  0
  9 10  2  0
  9 11  1  0
 11 12  1  0
 13 12  1  1
 13 15  1  0
 13 14  1  0
 14  6  1  0
 15 20  1  0
 16 15  2  0
 18 17  1  0
 19 18  1  6
 19 21  1  0
 20 19  1  0
 21 23  2  0
 21 22  1  0
M  END
$$$$
