TQS.pdb
     RDKit          3D

 23 22  0  0  1  0  0  0  0  0999 V2000
   12.6247   -9.7868  -12.1706 C   0  0  0  0  0  0  0  0  0  0  0  0
   12.6610  -11.0741  -11.3955 C   0  0  1  0  0  0  0  0  0  0  0  0
   11.8621  -12.0588  -11.9869 O   0  0  0  0  0  0  0  0  0  0  0  0
   14.0766  -11.5822  -11.3704 C   0  0  2  0  0  0  0  0  0  0  0  0
   14.1984  -12.8559  -10.7193 N   0  0  0  0  0  0  0  0  0  0  0  0
   14.9548  -10.6010  -10.7106 C   0  0  0  0  0  0  0  0  0  0  0  0
   14.8122  -10.3359   -9.4831 O   0  0  0  0  0  0  0  0  0  0  0  0
   20.2167   -8.3529  -13.3734 N   0  0  0  0  0  0  0  0  0  0  0  0
   20.0648   -7.5286  -12.2254 C   0  0  0  0  0  0  0  0  0  0  0  0
   20.9369   -6.6603  -11.9860 O   0  0  0  0  0  0  0  0  0  0  0  0
   18.9101   -7.6694  -11.3121 C   0  0  0  0  0  0  0  0  0  0  0  0
   18.0001   -8.7538  -11.8403 C   0  0  0  0  0  0  0  0  0  0  0  0
   16.8547   -8.9814  -10.8608 C   0  0  2  0  0  0  0  0  0  0  0  0
   15.9665   -9.9524  -11.4656 N   0  0  0  0  0  0  0  0  0  0  0  0
   16.1112   -7.7122  -10.6652 C   0  0  0  0  0  0  0  0  0  0  0  0
   15.3569   -7.2621  -11.5629 O   0  0  0  0  0  0  0  0  0  0  0  0
   14.2126   -4.5126   -7.6898 O   0  0  0  0  0  0  0  0  0  0  0  0
   15.0759   -5.6177   -7.7892 C   0  0  0  0  0  0  0  0  0  0  0  0
   15.4196   -5.7567   -9.2776 C   0  0  2  0  0  0  0  0  0  0  0  0
   16.2198   -6.9572   -9.4628 N   0  0  0  0  0  0  0  0  0  0  0  0
   16.1733   -4.5533   -9.6639 C   0  0  0  0  0  0  0  0  0  0  0  0
   15.5174   -3.3576   -9.8288 O   0  0  0  0  0  0  0  0  0  0  0  0
   17.4022   -4.6150   -9.8416 O   0  0  0  0  0  0  0  0  0  0  0  0
  2  1  1  6
  2  3  1  0
  4  5  1  1
  4  2  1  0
  6  7  2  0
  6  4  1  0
  8  9  1  0
  9 10  2  0
  9 11  1  0
 11 12  1  0
 13 12  1  6
 13 15  1  0
 13 14  1  0
 14  6  1  0
 15 20  1  0
 16 15  2  0
 18 17  1  0
 19 18  1  1
 19 21  1  0
 20 19  1  0
 21 23  2  0
 21 22  1  0
M  END
$$$$
