TQS.pdb
     RDKit          3D

 23 22  0  0  1  0  0  0  0  0999 V2000
   23.5198  -10.5426  -14.7298 C   0  0  0  0  0  0  0  0  0  0  0  0
   22.9564  -11.4782  -15.7626 C   0  0  1  0  0  0  0  0  0  0  0  0
   23.2438  -12.8146  -15.4641 O   0  0  0  0  0  0  0  0  0  0  0  0
   21.4604  -11.3229  -15.7889 C   0  0  2  0  0  0  0  0  0  0  0  0
   20.8192  -12.2661  -16.6608 N   0  0  0  0  0  0  0  0  0  0  0  0
   21.1010   -9.9519  -16.1897 C   0  0  0  0  0  0  0  0  0  0  0  0
   21.4754   -9.4907  -17.3051 O   0  0  0  0  0  0  0  0  0  0  0  0
   15.9873   -7.2833  -14.2654 N   0  0  0  0  0  0  0  0  0  0  0  0
   16.2075   -8.0761  -15.4243 C   0  0  0  0  0  0  0  0  0  0  0  0
   15.2202   -8.5922  -15.9995 O   0  0  0  0  0  0  0  0  0  0  0  0
   17.5649   -8.3057  -15.9651 C   0  0  0  0  0  0  0  0  0  0  0  0
   18.5617   -7.5505  -15.1171 C   0  0  0  0  0  0  0  0  0  0  0  0
   19.9695   -7.7875  -15.6510 C   0  0  2  0  0  0  0  0  0  0  0  0
   20.3281   -9.1488  -15.3110 N   0  0  0  0  0  0  0  0  0  0  0  0
   20.9159   -6.8632  -14.9787 C   0  0  0  0  0  0  0  0  0  0  0  0
   21.3920   -7.1375  -13.8493 O   0  0  0  0  0  0  0  0  0  0  0  0
   23.8722   -3.0882  -15.1912 O   0  0  0  0  0  0  0  0  0  0  0  0
   22.9562   -3.8717  -15.9147 C   0  0  0  0  0  0  0  0  0  0  0  0
   22.2369   -4.7482  -14.8817 C   0  0  2  0  0  0  0  0  0  0  0  0
   21.3211   -5.6374  -15.5792 N   0  0  0  0  0  0  0  0  0  0  0  0
   21.5104   -3.8448  -13.9754 C   0  0  0  0  0  0  0  0  0  0  0  0
   22.1321   -3.3552  -12.8525 O   0  0  0  0  0  0  0  0  0  0  0  0
   20.3353   -3.5228  -14.2226 O   0  0  0  0  0  0  0  0  0  0  0  0
  2  1  1  1
  2  3  1  0
  4  5  1  6
  4  2  1  0
  6  7  2  0
  6  4  1  0
  8  9  1  0
  9 10  2  0
  9 11  1  0
 11 12  1  0
 13 12  1  1
 13 15  1  0
 13 14  1  0
 14  6  1  0
 15 20  1  0
 16 15  2  0
 18 17  1  0
 19 18  1  6
 19 21  1  0
 20 19  1  0
 21 23  2  0
 21 22  1  0
M  END
$$$$
