TQS.pdb
     RDKit          3D

 23 22  0  0  1  0  0  0  0  0999 V2000
   15.0706   -9.2768  -14.4049 C   0  0  0  0  0  0  0  0  0  0  0  0
   15.5352  -10.7061  -14.4300 C   0  0  1  0  0  0  0  0  0  0  0  0
   14.9049  -11.4390  -15.4416 O   0  0  0  0  0  0  0  0  0  0  0  0
   17.0151  -10.7275  -14.6986 C   0  0  2  0  0  0  0  0  0  0  0  0
   17.5363  -12.0584  -14.8321 N   0  0  0  0  0  0  0  0  0  0  0  0
   17.7341  -10.0175  -13.6270 C   0  0  0  0  0  0  0  0  0  0  0  0
   17.7923  -10.5040  -12.4620 O   0  0  0  0  0  0  0  0  0  0  0  0
   20.5751   -4.5753  -12.7177 N   0  0  0  0  0  0  0  0  0  0  0  0
   21.4170   -5.5999  -12.2061 C   0  0  0  0  0  0  0  0  0  0  0  0
   22.3493   -5.2838  -11.4296 O   0  0  0  0  0  0  0  0  0  0  0  0
   21.2212   -7.0213  -12.5651 C   0  0  0  0  0  0  0  0  0  0  0  0
   20.0453   -7.1285  -13.5078 C   0  0  0  0  0  0  0  0  0  0  0  0
   18.9492   -7.9691  -12.8636 C   0  0  2  0  0  0  0  0  0  0  0  0
   18.3639   -8.7781  -13.9126 N   0  0  0  0  0  0  0  0  0  0  0  0
   17.9015   -7.0760  -12.3098 C   0  0  0  0  0  0  0  0  0  0  0  0
   17.0774   -6.5034  -13.0651 O   0  0  0  0  0  0  0  0  0  0  0  0
   15.3896   -5.5117   -8.5300 O   0  0  0  0  0  0  0  0  0  0  0  0
   16.4331   -6.3544   -8.9511 C   0  0  0  0  0  0  0  0  0  0  0  0
   16.7340   -5.9657  -10.4040 C   0  0  2  0  0  0  0  0  0  0  0  0
   17.7864   -6.8320  -10.9117 N   0  0  0  0  0  0  0  0  0  0  0  0
   17.1639   -4.5584  -10.3975 C   0  0  0  0  0  0  0  0  0  0  0  0
   16.2372   -3.5597  -10.2210 O   0  0  0  0  0  0  0  0  0  0  0  0
   18.3633   -4.2699  -10.5512 O   0  0  0  0  0  0  0  0  0  0  0  0
  2  1  1  6
  2  3  1  0
  4  5  1  1
  4  2  1  0
  6  7  2  0
  6  4  1  0
  8  9  1  0
  9 10  2  0
  9 11  1  0
 11 12  1  0
 13 12  1  6
 13 15  1  0
 13 14  1  0
 14  6  1  0
 15 20  1  0
 16 15  2  0
 18 17  1  0
 19 18  1  1
 19 21  1  0
 20 19  1  0
 21 23  2  0
 21 22  1  0
M  END
$$$$
