TQS.pdb
     RDKit          3D

 23 22  0  0  1  0  0  0  0  0999 V2000
   14.2908   -9.4173  -10.3635 C   0  0  0  0  0  0  0  0  0  0  0  0
   15.5067   -8.9616  -11.1208 C   0  0  1  0  0  0  0  0  0  0  0  0
   16.6905   -9.3466  -10.4821 O   0  0  0  0  0  0  0  0  0  0  0  0
   15.4910   -9.5958  -12.4847 C   0  0  2  0  0  0  0  0  0  0  0  0
   15.5656  -11.0286  -12.4321 N   0  0  0  0  0  0  0  0  0  0  0  0
   16.5994   -9.0703  -13.2999 C   0  0  0  0  0  0  0  0  0  0  0  0
   17.5292   -9.8338  -13.6869 O   0  0  0  0  0  0  0  0  0  0  0  0
   15.9627   -4.6524  -17.9545 N   0  0  0  0  0  0  0  0  0  0  0  0
   17.1349   -4.4514  -17.1762 C   0  0  0  0  0  0  0  0  0  0  0  0
   17.6096   -3.2943  -17.0874 O   0  0  0  0  0  0  0  0  0  0  0  0
   17.8043   -5.5671  -16.4728 C   0  0  0  0  0  0  0  0  0  0  0  0
   16.8532   -6.1366  -15.4461 C   0  0  0  0  0  0  0  0  0  0  0  0
   17.5817   -7.1670  -14.5913 C   0  0  2  0  0  0  0  0  0  0  0  0
   16.6165   -7.6948  -13.6494 N   0  0  0  0  0  0  0  0  0  0  0  0
   18.6711   -6.5014  -13.8349 C   0  0  0  0  0  0  0  0  0  0  0  0
   18.4219   -5.8270  -12.8050 O   0  0  0  0  0  0  0  0  0  0  0  0
   22.0981   -7.9773  -12.9000 O   0  0  0  0  0  0  0  0  0  0  0  0
   22.3611   -6.7680  -13.5669 C   0  0  0  0  0  0  0  0  0  0  0  0
   21.0745   -5.9388  -13.4679 C   0  0  2  0  0  0  0  0  0  0  0  0
   20.0327   -6.5976  -14.2401 N   0  0  0  0  0  0  0  0  0  0  0  0
   21.3740   -4.6050  -14.0127 C   0  0  0  0  0  0  0  0  0  0  0  0
   22.1849   -3.7451  -13.3124 O   0  0  0  0  0  0  0  0  0  0  0  0
   20.8955   -4.2534  -15.1049 O   0  0  0  0  0  0  0  0  0  0  0  0
  2  1  1  1
  2  3  1  0
  4  5  1  1
  4  2  1  0
  6  7  2  0
  6  4  1  0
  8  9  1  0
  9 10  2  0
  9 11  1  0
 11 12  1  0
 13 12  1  6
 13 15  1  0
 13 14  1  0
 14  6  1  0
 15 20  1  0
 16 15  2  0
 18 17  1  0
 19 18  1  6
 19 21  1  0
 20 19  1  0
 21 23  2  0
 21 22  1  0
M  END
$$$$
