NMP.pdb
     RDKit          3D

 24 24  0  0  1  0  0  0  0  0999 V2000
   11.3226  -19.9006   19.9691 N   0  0  0  0  0  0  0  0  0  0  0  0
   10.3301  -19.2375   20.7104 C   0  0  0  0  0  0  0  0  0  0  0  0
    9.1376  -19.5943   20.6453 O   0  0  0  0  0  0  0  0  0  0  0  0
   10.6953  -18.0994   21.5827 C   0  0  0  0  0  0  0  0  0  0  0  0
    9.7610  -16.9308   21.3227 C   0  0  2  0  0  0  0  0  0  0  0  0
   10.1826  -16.3121   20.1044 N   0  0  0  0  0  0  0  0  0  0  0  0
    9.8230  -16.0205   22.5039 C   0  0  0  0  0  0  0  0  0  0  0  0
   10.8988  -15.4408   22.8025 O   0  0  0  0  0  0  0  0  0  0  0  0
    5.7694  -11.3124   27.2538 C   0  0  0  0  0  0  0  0  0  0  0  0
    5.7366  -12.8844   26.3783 S   0  0  0  0  0  0  0  0  0  0  0  0
    7.4530  -13.5361   26.1484 C   0  0  0  0  0  0  0  0  0  0  0  0
    7.5199  -14.3229   24.8777 C   0  0  0  0  0  0  0  0  0  0  0  0
    8.8655  -14.8836   24.5148 C   0  0  2  0  0  0  0  0  0  0  0  0
    8.6989  -15.7606   23.3402 N   0  0  0  0  0  0  0  0  0  0  0  0
    9.4003  -15.6850   25.6241 C   0  0  0  0  0  0  0  0  0  0  0  0
    9.5834  -16.9371   25.2416 O   0  0  0  0  0  0  0  0  0  0  0  0
    9.7219  -15.3540   26.9286 N   0  0  0  0  0  0  0  0  0  0  0  0
    9.3542  -14.3220   27.8196 C   0  0  0  0  0  0  0  0  0  0  0  0
   10.7643  -13.7721   28.1600 C   0  0  0  0  0  0  0  0  0  0  0  0
   11.5109  -15.0964   28.3591 C   0  0  0  0  0  0  0  0  0  0  0  0
   10.6390  -16.1754   27.7518 C   0  0  1  0  0  0  0  0  0  0  0  0
    9.9132  -16.9821   28.7356 C   0  0  0  0  0  0  0  0  0  0  0  0
    8.6818  -16.9555   28.9564 O   0  0  0  0  0  0  0  0  0  0  0  0
   10.6636  -17.8654   29.5012 O   0  0  0  0  0  0  0  0  0  0  0  0
  1  2  1  0
  2  3  2  0
  4  2  1  0
  5  7  1  0
  5  4  1  0
  5  6  1  6
  7 14  1  0
  7  8  2  0
  9 10  1  0
 10 11  1  0
 12 11  1  0
 13 12  1  1
 14 13  1  0
 15 17  1  0
 15 13  1  0
 16 15  2  0
 17 21  1  0
 18 19  1  0
 18 17  1  0
 19 20  1  0
 20 21  1  0
 21 22  1  1
 22 24  1  0
 23 22  2  0
M  END
$$$$
