NMP.pdb
     RDKit          3D

 24 24  0  0  1  0  0  0  0  0999 V2000
    7.7400  -13.9931   17.6794 N   0  0  0  0  0  0  0  0  0  0  0  0
    8.6883  -14.5926   18.5254 C   0  0  0  0  0  0  0  0  0  0  0  0
    9.3724  -15.5590   18.1360 O   0  0  0  0  0  0  0  0  0  0  0  0
    8.8848  -14.0771   19.8984 C   0  0  0  0  0  0  0  0  0  0  0  0
    9.0967  -15.2351   20.8578 C   0  0  2  0  0  0  0  0  0  0  0  0
    8.0339  -16.1669   20.6410 N   0  0  0  0  0  0  0  0  0  0  0  0
    9.1298  -14.6837   22.2443 C   0  0  0  0  0  0  0  0  0  0  0  0
   10.0101  -13.8477   22.5740 O   0  0  0  0  0  0  0  0  0  0  0  0
    6.5633  -11.0842   27.7076 C   0  0  0  0  0  0  0  0  0  0  0  0
    5.7839  -12.2950   26.6283 S   0  0  0  0  0  0  0  0  0  0  0  0
    6.7903  -13.8461   26.5579 C   0  0  0  0  0  0  0  0  0  0  0  0
    6.8947  -14.3070   25.1385 C   0  0  0  0  0  0  0  0  0  0  0  0
    8.2849  -14.4418   24.5854 C   0  0  2  0  0  0  0  0  0  0  0  0
    8.1925  -15.0606   23.2493 N   0  0  0  0  0  0  0  0  0  0  0  0
    9.0951  -15.3121   25.4485 C   0  0  0  0  0  0  0  0  0  0  0  0
    9.4467  -16.4079   24.7978 O   0  0  0  0  0  0  0  0  0  0  0  0
    9.5212  -15.1729   26.7575 N   0  0  0  0  0  0  0  0  0  0  0  0
    9.1709  -14.3381   27.8412 C   0  0  0  0  0  0  0  0  0  0  0  0
   10.5644  -13.7290   28.1476 C   0  0  0  0  0  0  0  0  0  0  0  0
   11.4214  -14.9967   28.0504 C   0  0  0  0  0  0  0  0  0  0  0  0
   10.5735  -16.0340   27.3445 C   0  0  1  0  0  0  0  0  0  0  0  0
   10.0106  -17.0525   28.2340 C   0  0  0  0  0  0  0  0  0  0  0  0
    8.8138  -17.1547   28.5845 O   0  0  0  0  0  0  0  0  0  0  0  0
   10.8904  -18.0005   28.7407 O   0  0  0  0  0  0  0  0  0  0  0  0
  1  2  1  0
  2  3  2  0
  4  2  1  0
  5  7  1  0
  5  4  1  0
  5  6  1  1
  7 14  1  0
  7  8  2  0
  9 10  1  0
 10 11  1  0
 12 11  1  0
 13 12  1  1
 14 13  1  0
 15 17  1  0
 15 13  1  0
 16 15  2  0
 17 21  1  0
 18 19  1  0
 18 17  1  0
 19 20  1  0
 20 21  1  0
 21 22  1  1
 22 24  1  0
 23 22  2  0
M  END
$$$$
