NMP.pdb
     RDKit          3D

 24 24  0  0  1  0  0  0  0  0999 V2000
    9.6204  -20.2240   21.1328 N   0  0  0  0  0  0  0  0  0  0  0  0
   10.4258  -19.0959   20.9025 C   0  0  0  0  0  0  0  0  0  0  0  0
   11.0037  -18.9350   19.8098 O   0  0  0  0  0  0  0  0  0  0  0  0
   10.5967  -18.0801   21.9647 C   0  0  0  0  0  0  0  0  0  0  0  0
    9.8852  -16.7978   21.5702 C   0  0  2  0  0  0  0  0  0  0  0  0
   10.6103  -16.2279   20.4775 N   0  0  0  0  0  0  0  0  0  0  0  0
    9.8295  -15.9141   22.7716 C   0  0  0  0  0  0  0  0  0  0  0  0
   10.8499  -15.2759   23.1379 O   0  0  0  0  0  0  0  0  0  0  0  0
    5.5052  -11.7949   25.4873 C   0  0  0  0  0  0  0  0  0  0  0  0
    6.9992  -12.2034   26.4037 S   0  0  0  0  0  0  0  0  0  0  0  0
    7.1647  -14.0365   26.5932 C   0  0  0  0  0  0  0  0  0  0  0  0
    7.3087  -14.6648   25.2431 C   0  0  0  0  0  0  0  0  0  0  0  0
    8.7134  -14.9277   24.7803 C   0  0  2  0  0  0  0  0  0  0  0  0
    8.6502  -15.7448   23.5535 N   0  0  0  0  0  0  0  0  0  0  0  0
    9.4557  -15.6771   25.8031 C   0  0  0  0  0  0  0  0  0  0  0  0
    9.8925  -16.8227   25.3087 O   0  0  0  0  0  0  0  0  0  0  0  0
    9.7504  -15.3890   27.1240 N   0  0  0  0  0  0  0  0  0  0  0  0
    9.2797  -14.4570   28.0747 C   0  0  0  0  0  0  0  0  0  0  0  0
   10.6240  -13.7761   28.4436 C   0  0  0  0  0  0  0  0  0  0  0  0
   11.5128  -15.0198   28.5631 C   0  0  0  0  0  0  0  0  0  0  0  0
   10.7590  -16.1509   27.8956 C   0  0  1  0  0  0  0  0  0  0  0  0
   10.1345  -17.0881   28.8321 C   0  0  0  0  0  0  0  0  0  0  0  0
    8.9084  -17.2240   29.0420 O   0  0  0  0  0  0  0  0  0  0  0  0
   10.9852  -17.9090   29.5615 O   0  0  0  0  0  0  0  0  0  0  0  0
  1  2  1  0
  2  3  2  0
  4  2  1  0
  5  7  1  0
  5  4  1  0
  5  6  1  6
  7 14  1  0
  7  8  2  0
  9 10  1  0
 10 11  1  0
 12 11  1  0
 13 12  1  1
 14 13  1  0
 15 17  1  0
 15 13  1  0
 16 15  2  0
 17 21  1  0
 18 19  1  0
 18 17  1  0
 19 20  1  0
 20 21  1  0
 21 22  1  1
 22 24  1  0
 23 22  2  0
M  END
$$$$
