NMP.pdb
     RDKit          3D

 24 24  0  0  1  0  0  0  0  0999 V2000
    7.7248  -16.2015   18.2714 N   0  0  0  0  0  0  0  0  0  0  0  0
    8.9007  -15.9137   18.9846 C   0  0  0  0  0  0  0  0  0  0  0  0
   10.0113  -16.2970   18.5682 O   0  0  0  0  0  0  0  0  0  0  0  0
    8.8302  -15.1461   20.2476 C   0  0  0  0  0  0  0  0  0  0  0  0
    9.3697  -15.9864   21.3917 C   0  0  2  0  0  0  0  0  0  0  0  0
    8.5807  -17.1773   21.4537 N   0  0  0  0  0  0  0  0  0  0  0  0
    9.3047  -15.1652   22.6363 C   0  0  0  0  0  0  0  0  0  0  0  0
   10.0543  -14.1646   22.7763 O   0  0  0  0  0  0  0  0  0  0  0  0
    6.6762  -10.9081   26.5514 C   0  0  0  0  0  0  0  0  0  0  0  0
    5.7361  -12.4369   26.4180 S   0  0  0  0  0  0  0  0  0  0  0  0
    6.4025  -13.4926   25.0524 C   0  0  0  0  0  0  0  0  0  0  0  0
    7.2516  -14.5789   25.6330 C   0  0  0  0  0  0  0  0  0  0  0  0
    8.6019  -14.7733   25.0039 C   0  0  2  0  0  0  0  0  0  0  0  0
    8.4145  -15.4570   23.7101 N   0  0  0  0  0  0  0  0  0  0  0  0
    9.4469  -15.6167   25.8601 C   0  0  0  0  0  0  0  0  0  0  0  0
    9.8079  -16.7127   25.2149 O   0  0  0  0  0  0  0  0  0  0  0  0
    9.8962  -15.4536   27.1587 N   0  0  0  0  0  0  0  0  0  0  0  0
    9.5494  -14.6146   28.2403 C   0  0  0  0  0  0  0  0  0  0  0  0
   10.9348  -13.9715   28.5115 C   0  0  0  0  0  0  0  0  0  0  0  0
   11.8177  -15.2210   28.4104 C   0  0  0  0  0  0  0  0  0  0  0  0
   10.9790  -16.2846   27.7332 C   0  0  1  0  0  0  0  0  0  0  0  0
   10.4571  -17.3052   28.6450 C   0  0  0  0  0  0  0  0  0  0  0  0
    9.2624  -17.4599   28.9829 O   0  0  0  0  0  0  0  0  0  0  0  0
   11.3776  -18.1910   29.1905 O   0  0  0  0  0  0  0  0  0  0  0  0
  1  2  1  0
  2  3  2  0
  4  2  1  0
  5  7  1  0
  5  4  1  0
  5  6  1  1
  7 14  1  0
  7  8  2  0
  9 10  1  0
 10 11  1  0
 12 11  1  0
 13 12  1  1
 14 13  1  0
 15 17  1  0
 15 13  1  0
 16 15  2  0
 17 21  1  0
 18 19  1  0
 18 17  1  0
 19 20  1  0
 20 21  1  0
 21 22  1  1
 22 24  1  0
 23 22  2  0
M  END
$$$$
