NMP.pdb
     RDKit          3D

 24 24  0  0  1  0  0  0  0  0999 V2000
    9.6072  -16.6926   17.8601 N   0  0  0  0  0  0  0  0  0  0  0  0
   10.4727  -16.6257   18.9651 C   0  0  0  0  0  0  0  0  0  0  0  0
   11.5579  -17.2389   18.9656 O   0  0  0  0  0  0  0  0  0  0  0  0
   10.0999  -15.8193   20.1484 C   0  0  0  0  0  0  0  0  0  0  0  0
   10.1350  -16.6868   21.3944 C   0  0  2  0  0  0  0  0  0  0  0  0
    9.1430  -17.7039   21.2327 N   0  0  0  0  0  0  0  0  0  0  0  0
    9.8957  -15.8059   22.5752 C   0  0  0  0  0  0  0  0  0  0  0  0
   10.6568  -14.8308   22.8042 O   0  0  0  0  0  0  0  0  0  0  0  0
    5.6518  -11.3778   26.5424 C   0  0  0  0  0  0  0  0  0  0  0  0
    6.1555  -13.1030   26.6345 S   0  0  0  0  0  0  0  0  0  0  0  0
    6.6951  -13.7121   24.9728 C   0  0  0  0  0  0  0  0  0  0  0  0
    7.3099  -15.0684   25.1160 C   0  0  0  0  0  0  0  0  0  0  0  0
    8.7516  -15.1893   24.7116 C   0  0  2  0  0  0  0  0  0  0  0  0
    8.8208  -16.0107   23.4881 N   0  0  0  0  0  0  0  0  0  0  0  0
    9.5234  -15.8583   25.7678 C   0  0  0  0  0  0  0  0  0  0  0  0
   10.0945  -16.9539   25.2975 O   0  0  0  0  0  0  0  0  0  0  0  0
    9.7324  -15.5405   27.0982 N   0  0  0  0  0  0  0  0  0  0  0  0
    9.1436  -14.6458   28.0185 C   0  0  0  0  0  0  0  0  0  0  0  0
   10.4090  -13.8549   28.4422 C   0  0  0  0  0  0  0  0  0  0  0  0
   11.3904  -15.0205   28.6127 C   0  0  0  0  0  0  0  0  0  0  0  0
   10.7635  -16.2131   27.9214 C   0  0  1  0  0  0  0  0  0  0  0  0
   10.1755  -17.1940   28.8366 C   0  0  0  0  0  0  0  0  0  0  0  0
    8.9563  -17.4283   28.9927 O   0  0  0  0  0  0  0  0  0  0  0  0
   11.0563  -17.9399   29.6095 O   0  0  0  0  0  0  0  0  0  0  0  0
  1  2  1  0
  2  3  2  0
  4  2  1  0
  5  7  1  0
  5  4  1  0
  5  6  1  6
  7 14  1  0
  7  8  2  0
  9 10  1  0
 10 11  1  0
 12 11  1  0
 13 12  1  1
 14 13  1  0
 15 17  1  0
 15 13  1  0
 16 15  2  0
 17 21  1  0
 18 19  1  0
 18 17  1  0
 19 20  1  0
 20 21  1  0
 21 22  1  1
 22 24  1  0
 23 22  2  0
M  END
$$$$
