HNC.pdb
     RDKit          3D

 25 25  0  0  1  0  0  0  0  0999 V2000
    7.6595  -16.8713   19.5919 N   0  0  0  0  0  0  0  0  0  0  0  0
    8.0707  -15.7629   20.4105 C   0  0  1  0  0  0  0  0  0  0  0  0
    7.1766  -14.5752   20.0314 C   0  0  0  0  0  0  0  0  0  0  0  0
    7.6418  -14.1188   18.6899 C   0  0  0  0  0  0  0  0  0  0  0  0
    8.4432  -13.0101   18.3987 C   0  0  0  0  0  0  0  0  0  0  0  0
    8.6361  -12.9433   17.0762 N   0  0  0  0  0  0  0  0  0  0  0  0
    7.9900  -13.9654   16.5081 C   0  0  0  0  0  0  0  0  0  0  0  0
    7.3894  -14.6751   17.4851 N   0  0  0  0  0  0  0  0  0  0  0  0
    7.9483  -16.0339   21.8534 C   0  0  0  0  0  0  0  0  0  0  0  0
    6.7995  -16.2707   22.3067 O   0  0  0  0  0  0  0  0  0  0  0  0
    8.7924  -19.5332   24.1846 N   0  0  0  0  0  0  0  0  0  0  0  0
    9.7781  -18.5710   23.8906 C   0  0  0  0  0  0  0  0  0  0  0  0
   10.5900  -18.8118   22.9624 O   0  0  0  0  0  0  0  0  0  0  0  0
    9.8175  -17.3283   24.6782 C   0  0  0  0  0  0  0  0  0  0  0  0
    8.8785  -16.2652   24.1768 C   0  0  2  0  0  0  0  0  0  0  0  0
    9.0541  -16.0420   22.7564 N   0  0  0  0  0  0  0  0  0  0  0  0
    9.0655  -14.9833   24.9272 C   0  0  0  0  0  0  0  0  0  0  0  0
   10.1197  -14.3072   24.8206 O   0  0  0  0  0  0  0  0  0  0  0  0
    8.0544  -14.4876   25.7869 N   0  0  0  0  0  0  0  0  0  0  0  0
    8.2513  -13.2832   26.6051 C   0  0  1  0  0  0  0  0  0  0  0  0
    7.0749  -12.3464   26.4718 C   0  0  0  0  0  0  0  0  0  0  0  0
    5.5720  -13.3298   26.7285 S   0  0  0  0  0  0  0  0  0  0  0  0
    8.3513  -13.7111   28.0220 C   0  0  0  0  0  0  0  0  0  0  0  0
    8.1188  -14.8986   28.3945 O   0  0  0  0  0  0  0  0  0  0  0  0
    8.7097  -12.8148   29.0171 O   0  0  0  0  0  0  0  0  0  0  0  0
  2  1  1  6
  3  2  1  0
  4  3  1  0
  4  8  1  0
  5  4  2  0
  6  5  1  0
  6  7  1  0
  7  8  2  0
  9  2  1  0
 10  9  2  0
 11 12  1  0
 12 14  1  0
 12 13  2  0
 15 14  1  1
 15 16  1  0
 15 17  1  0
 16  9  1  0
 17 18  2  0
 17 19  1  0
 19 20  1  0
 20 21  1  1
 20 23  1  0
 22 21  1  0
 23 25  1  0
 24 23  2  0
M  END
$$$$
