HNC.pdb
     RDKit          3D

 25 25  0  0  1  0  0  0  0  0999 V2000
    5.3055  -20.2546   22.4033 N   0  0  0  0  0  0  0  0  0  0  0  0
    5.3445  -18.8300   22.2114 C   0  0  1  0  0  0  0  0  0  0  0  0
    4.1239  -18.2505   22.9380 C   0  0  0  0  0  0  0  0  0  0  0  0
    2.9288  -18.7267   22.1834 C   0  0  0  0  0  0  0  0  0  0  0  0
    2.9088  -19.5418   21.0470 C   0  0  0  0  0  0  0  0  0  0  0  0
    1.6398  -19.7412   20.6722 N   0  0  0  0  0  0  0  0  0  0  0  0
    0.8454  -19.0860   21.5235 C   0  0  0  0  0  0  0  0  0  0  0  0
    1.6263  -18.4732   22.4365 N   0  0  0  0  0  0  0  0  0  0  0  0
    6.5735  -18.2100   22.7364 C   0  0  0  0  0  0  0  0  0  0  0  0
    7.0220  -18.6397   23.8298 O   0  0  0  0  0  0  0  0  0  0  0  0
   10.9545  -15.6082   23.4002 N   0  0  0  0  0  0  0  0  0  0  0  0
   10.7080  -15.6293   22.0136 C   0  0  0  0  0  0  0  0  0  0  0  0
   11.6214  -15.2505   21.2385 O   0  0  0  0  0  0  0  0  0  0  0  0
    9.3970  -16.0920   21.5303 C   0  0  0  0  0  0  0  0  0  0  0  0
    8.4912  -16.5894   22.6237 C   0  0  2  0  0  0  0  0  0  0  0  0
    7.2761  -17.1570   22.0764 N   0  0  0  0  0  0  0  0  0  0  0  0
    8.1594  -15.4940   23.5888 C   0  0  0  0  0  0  0  0  0  0  0  0
    7.3694  -14.5655   23.2829 O   0  0  0  0  0  0  0  0  0  0  0  0
    8.7285  -15.4681   24.8859 N   0  0  0  0  0  0  0  0  0  0  0  0
    8.4400  -14.3887   25.8400 C   0  0  1  0  0  0  0  0  0  0  0  0
    6.9641  -14.3292   26.1520 C   0  0  0  0  0  0  0  0  0  0  0  0
    6.7469  -13.1361   27.5014 S   0  0  0  0  0  0  0  0  0  0  0  0
    9.1726  -14.6874   27.0950 C   0  0  0  0  0  0  0  0  0  0  0  0
    9.7358  -15.8011   27.3082 O   0  0  0  0  0  0  0  0  0  0  0  0
    9.2745  -13.7446   28.1064 O   0  0  0  0  0  0  0  0  0  0  0  0
  2  1  1  1
  3  2  1  0
  4  3  1  0
  4  8  1  0
  5  4  2  0
  6  5  1  0
  6  7  1  0
  7  8  2  0
  9  2  1  0
 10  9  2  0
 11 12  1  0
 12 14  1  0
 12 13  2  0
 15 14  1  6
 15 16  1  0
 15 17  1  0
 16  9  1  0
 17 18  2  0
 17 19  1  0
 19 20  1  0
 20 21  1  1
 20 23  1  0
 22 21  1  0
 23 25  1  0
 24 23  2  0
M  END
$$$$
