HNC.pdb
     RDKit          3D

 25 25  0  0  1  0  0  0  0  0999 V2000
    8.7843  -15.8069   20.9486 N   0  0  0  0  0  0  0  0  0  0  0  0
    8.0204  -14.8422   21.6928 C   0  0  1  0  0  0  0  0  0  0  0  0
    6.7363  -14.5817   20.8947 C   0  0  0  0  0  0  0  0  0  0  0  0
    7.1741  -14.1280   19.5431 C   0  0  0  0  0  0  0  0  0  0  0  0
    8.4835  -14.0261   19.0622 C   0  0  0  0  0  0  0  0  0  0  0  0
    8.4543  -13.5803   17.8009 N   0  0  0  0  0  0  0  0  0  0  0  0
    7.1778  -13.3924   17.4541 C   0  0  0  0  0  0  0  0  0  0  0  0
    6.4051  -13.7241   18.5086 N   0  0  0  0  0  0  0  0  0  0  0  0
    7.6755  -15.3011   23.0495 C   0  0  0  0  0  0  0  0  0  0  0  0
    6.9778  -14.5365   23.7638 O   0  0  0  0  0  0  0  0  0  0  0  0
    7.2355  -19.8817   23.4271 N   0  0  0  0  0  0  0  0  0  0  0  0
    6.8510  -19.0010   24.4569 C   0  0  0  0  0  0  0  0  0  0  0  0
    5.6246  -18.8201   24.6615 O   0  0  0  0  0  0  0  0  0  0  0  0
    7.8958  -18.3311   25.2481 C   0  0  0  0  0  0  0  0  0  0  0  0
    7.9792  -16.8486   25.0065 C   0  0  2  0  0  0  0  0  0  0  0  0
    8.0872  -16.5558   23.5920 N   0  0  0  0  0  0  0  0  0  0  0  0
    9.1323  -16.2459   25.7472 C   0  0  0  0  0  0  0  0  0  0  0  0
    9.8510  -15.3535   25.2306 O   0  0  0  0  0  0  0  0  0  0  0  0
    9.4528  -16.6642   27.0623 N   0  0  0  0  0  0  0  0  0  0  0  0
   10.1286  -15.7758   28.0177 C   0  0  1  0  0  0  0  0  0  0  0  0
    9.2171  -14.6482   28.4384 C   0  0  0  0  0  0  0  0  0  0  0  0
    9.3883  -13.3290   27.2048 S   0  0  0  0  0  0  0  0  0  0  0  0
   10.4668  -16.5779   29.2189 C   0  0  0  0  0  0  0  0  0  0  0  0
    9.8546  -17.6437   29.5227 O   0  0  0  0  0  0  0  0  0  0  0  0
   11.4850  -16.1895   30.0760 O   0  0  0  0  0  0  0  0  0  0  0  0
  2  1  1  6
  3  2  1  0
  4  3  1  0
  4  8  1  0
  5  4  2  0
  6  5  1  0
  6  7  1  0
  7  8  2  0
  9  2  1  0
 10  9  2  0
 11 12  1  0
 12 14  1  0
 12 13  2  0
 15 14  1  6
 15 16  1  0
 15 17  1  0
 16  9  1  0
 17 18  2  0
 17 19  1  0
 19 20  1  0
 20 21  1  1
 20 23  1  0
 22 21  1  0
 23 25  1  0
 24 23  2  0
M  END
$$$$
