HNC.pdb
     RDKit          3D

 25 25  0  0  1  0  0  0  0  0999 V2000
    7.7530  -17.3361   18.7769 N   0  0  0  0  0  0  0  0  0  0  0  0
    8.4496  -16.3652   19.5769 C   0  0  1  0  0  0  0  0  0  0  0  0
    7.6595  -15.0543   19.4720 C   0  0  0  0  0  0  0  0  0  0  0  0
    7.8761  -14.5506   18.0850 C   0  0  0  0  0  0  0  0  0  0  0  0
    8.6849  -15.1126   17.0919 C   0  0  0  0  0  0  0  0  0  0  0  0
    8.6094  -14.3613   15.9872 N   0  0  0  0  0  0  0  0  0  0  0  0
    7.7840  -13.3399   16.2328 C   0  0  0  0  0  0  0  0  0  0  0  0
    7.3416  -13.4558   17.5016 N   0  0  0  0  0  0  0  0  0  0  0  0
    8.5679  -16.7601   20.9913 C   0  0  0  0  0  0  0  0  0  0  0  0
    7.5239  -17.1418   21.5793 O   0  0  0  0  0  0  0  0  0  0  0  0
   11.7912  -19.6497   21.4689 N   0  0  0  0  0  0  0  0  0  0  0  0
   10.8908  -19.3918   22.5209 C   0  0  0  0  0  0  0  0  0  0  0  0
   10.0025  -20.2448   22.7697 O   0  0  0  0  0  0  0  0  0  0  0  0
   11.0258  -18.1399   23.2829 C   0  0  0  0  0  0  0  0  0  0  0  0
    9.8733  -17.1912   23.0953 C   0  0  2  0  0  0  0  0  0  0  0  0
    9.7932  -16.7329   21.7235 N   0  0  0  0  0  0  0  0  0  0  0  0
    9.9810  -16.0219   24.0241 C   0  0  0  0  0  0  0  0  0  0  0  0
   10.8787  -15.1532   23.8856 O   0  0  0  0  0  0  0  0  0  0  0  0
    9.0692  -15.8556   25.0955 N   0  0  0  0  0  0  0  0  0  0  0  0
    9.1834  -14.7426   26.0479 C   0  0  1  0  0  0  0  0  0  0  0  0
    7.8236  -14.1718   26.3708 C   0  0  0  0  0  0  0  0  0  0  0  0
    7.1450  -13.4937   24.8309 S   0  0  0  0  0  0  0  0  0  0  0  0
    9.7762  -15.2772   27.2983 C   0  0  0  0  0  0  0  0  0  0  0  0
   10.0187  -16.5084   27.4670 O   0  0  0  0  0  0  0  0  0  0  0  0
   10.0960  -14.4384   28.3549 O   0  0  0  0  0  0  0  0  0  0  0  0
  2  1  1  6
  3  2  1  0
  4  3  1  0
  4  8  1  0
  5  4  2  0
  6  5  1  0
  6  7  1  0
  7  8  2  0
  9  2  1  0
 10  9  2  0
 11 12  1  0
 12 14  1  0
 12 13  2  0
 15 14  1  6
 15 16  1  0
 15 17  1  0
 16  9  1  0
 17 18  2  0
 17 19  1  0
 19 20  1  0
 20 21  1  1
 20 23  1  0
 22 21  1  0
 23 25  1  0
 24 23  2  0
M  END
$$$$
