HNC.pdb
     RDKit          3D

 25 25  0  0  1  0  0  0  0  0999 V2000
    8.3843  -19.1922   16.0033 N   0  0  0  0  0  0  0  0  0  0  0  0
    8.7787  -18.0137   16.7268 C   0  0  1  0  0  0  0  0  0  0  0  0
    7.7256  -16.9380   16.4311 C   0  0  0  0  0  0  0  0  0  0  0  0
    7.9190  -16.5509   15.0038 C   0  0  0  0  0  0  0  0  0  0  0  0
    9.0860  -16.0670   14.4038 C   0  0  0  0  0  0  0  0  0  0  0  0
    8.8498  -15.8372   13.1069 N   0  0  0  0  0  0  0  0  0  0  0  0
    7.5773  -16.1547   12.8518 C   0  0  0  0  0  0  0  0  0  0  0  0
    7.0160  -16.5860   13.9998 N   0  0  0  0  0  0  0  0  0  0  0  0
    8.8688  -18.2319   18.1810 C   0  0  0  0  0  0  0  0  0  0  0  0
    7.9971  -18.9637   18.7158 O   0  0  0  0  0  0  0  0  0  0  0  0
   10.7538  -20.3821   22.6435 N   0  0  0  0  0  0  0  0  0  0  0  0
   11.3589  -19.2400   22.0836 C   0  0  0  0  0  0  0  0  0  0  0  0
   12.0703  -18.5168   22.8249 O   0  0  0  0  0  0  0  0  0  0  0  0
   11.1349  -18.9409   20.6601 C   0  0  0  0  0  0  0  0  0  0  0  0
    9.9954  -17.9899   20.4146 C   0  0  2  0  0  0  0  0  0  0  0  0
    9.8834  -17.6622   19.0081 N   0  0  0  0  0  0  0  0  0  0  0  0
   10.1522  -16.7404   21.2242 C   0  0  0  0  0  0  0  0  0  0  0  0
   11.0487  -15.8981   20.9660 O   0  0  0  0  0  0  0  0  0  0  0  0
    9.2901  -16.4650   22.3142 N   0  0  0  0  0  0  0  0  0  0  0  0
    9.4237  -15.2451   23.1221 C   0  0  1  0  0  0  0  0  0  0  0  0
    8.0791  -14.7966   23.6420 C   0  0  0  0  0  0  0  0  0  0  0  0
    7.0909  -14.2858   22.2089 S   0  0  0  0  0  0  0  0  0  0  0  0
   10.2918  -15.5643   24.2819 C   0  0  0  0  0  0  0  0  0  0  0  0
   10.6450  -16.7466   24.5653 O   0  0  0  0  0  0  0  0  0  0  0  0
   10.7625  -14.5655   25.1204 O   0  0  0  0  0  0  0  0  0  0  0  0
  2  1  1  6
  3  2  1  0
  4  3  1  0
  4  8  1  0
  5  4  2  0
  6  5  1  0
  6  7  1  0
  7  8  2  0
  9  2  1  0
 10  9  2  0
 11 12  1  0
 12 14  1  0
 12 13  2  0
 15 14  1  6
 15 16  1  0
 15 17  1  0
 16  9  1  0
 17 18  2  0
 17 19  1  0
 19 20  1  0
 20 21  1  1
 20 23  1  0
 22 21  1  0
 23 25  1  0
 24 23  2  0
M  END
$$$$
