HNC.pdb
     RDKit          3D

 25 25  0  0  1  0  0  0  0  0999 V2000
    8.0416  -16.9911   19.2183 N   0  0  0  0  0  0  0  0  0  0  0  0
    8.3424  -15.8892   20.0920 C   0  0  1  0  0  0  0  0  0  0  0  0
    7.2169  -14.8618   19.9142 C   0  0  0  0  0  0  0  0  0  0  0  0
    7.4195  -14.2552   18.5669 C   0  0  0  0  0  0  0  0  0  0  0  0
    8.1517  -13.1058   18.2522 C   0  0  0  0  0  0  0  0  0  0  0  0
    8.0903  -12.8940   16.9324 N   0  0  0  0  0  0  0  0  0  0  0  0
    7.3477  -13.8623   16.3885 C   0  0  0  0  0  0  0  0  0  0  0  0
    6.9429  -14.6844   17.3781 N   0  0  0  0  0  0  0  0  0  0  0  0
    8.4335  -16.2835   21.5085 C   0  0  0  0  0  0  0  0  0  0  0  0
    7.5963  -17.1186   21.9363 O   0  0  0  0  0  0  0  0  0  0  0  0
   10.2201  -18.2462   25.8476 N   0  0  0  0  0  0  0  0  0  0  0  0
   11.2260  -17.4758   25.2323 C   0  0  0  0  0  0  0  0  0  0  0  0
   12.3060  -17.3003   25.8499 O   0  0  0  0  0  0  0  0  0  0  0  0
   10.9732  -16.9101   23.8972 C   0  0  0  0  0  0  0  0  0  0  0  0
    9.5937  -16.3316   23.7375 C   0  0  2  0  0  0  0  0  0  0  0  0
    9.4125  -15.7729   22.4135 N   0  0  0  0  0  0  0  0  0  0  0  0
    9.3221  -15.2902   24.7782 C   0  0  0  0  0  0  0  0  0  0  0  0
    9.9612  -15.2598   25.8601 O   0  0  0  0  0  0  0  0  0  0  0  0
    8.3301  -14.2991   24.5764 N   0  0  0  0  0  0  0  0  0  0  0  0
    8.0264  -13.2844   25.5946 C   0  0  1  0  0  0  0  0  0  0  0  0
    6.8192  -12.4699   25.1963 C   0  0  0  0  0  0  0  0  0  0  0  0
    6.4464  -11.3507   26.5747 S   0  0  0  0  0  0  0  0  0  0  0  0
    7.7165  -13.9933   26.8604 C   0  0  0  0  0  0  0  0  0  0  0  0
    7.1141  -15.1065   26.8895 O   0  0  0  0  0  0  0  0  0  0  0  0
    8.0788  -13.4594   28.0874 O   0  0  0  0  0  0  0  0  0  0  0  0
  2  1  1  6
  3  2  1  0
  4  3  1  0
  4  8  1  0
  5  4  2  0
  6  5  1  0
  6  7  1  0
  7  8  2  0
  9  2  1  0
 10  9  2  0
 11 12  1  0
 12 14  1  0
 12 13  2  0
 15 14  1  6
 15 16  1  0
 15 17  1  0
 16  9  1  0
 17 18  2  0
 17 19  1  0
 19 20  1  0
 20 21  1  6
 20 23  1  0
 22 21  1  0
 23 25  1  0
 24 23  2  0
M  END
$$$$
