HNC.pdb
     RDKit          3D

 25 25  0  0  1  0  0  0  0  0999 V2000
    8.5427  -16.8802   19.9986 N   0  0  0  0  0  0  0  0  0  0  0  0
    8.6119  -15.7781   20.9197 C   0  0  1  0  0  0  0  0  0  0  0  0
    7.3928  -14.8893   20.6411 C   0  0  0  0  0  0  0  0  0  0  0  0
    7.6656  -14.2080   19.3427 C   0  0  0  0  0  0  0  0  0  0  0  0
    8.7729  -14.3822   18.5062 C   0  0  0  0  0  0  0  0  0  0  0  0
    8.6441  -13.5884   17.4367 N   0  0  0  0  0  0  0  0  0  0  0  0
    7.4979  -12.9122   17.5545 C   0  0  0  0  0  0  0  0  0  0  0  0
    6.9075  -13.2880   18.7074 N   0  0  0  0  0  0  0  0  0  0  0  0
    8.6027  -16.2029   22.3303 C   0  0  0  0  0  0  0  0  0  0  0  0
    7.5168  -16.6224   22.8058 O   0  0  0  0  0  0  0  0  0  0  0  0
   11.3020  -19.4799   23.4365 N   0  0  0  0  0  0  0  0  0  0  0  0
   10.3799  -18.9023   24.3310 C   0  0  0  0  0  0  0  0  0  0  0  0
    9.3264  -19.5344   24.5940 O   0  0  0  0  0  0  0  0  0  0  0  0
   10.6856  -17.5881   24.9189 C   0  0  0  0  0  0  0  0  0  0  0  0
    9.6767  -16.5250   24.5796 C   0  0  2  0  0  0  0  0  0  0  0  0
    9.7503  -16.1643   23.1787 N   0  0  0  0  0  0  0  0  0  0  0  0
    9.8647  -15.3108   25.4352 C   0  0  0  0  0  0  0  0  0  0  0  0
   10.9532  -14.6828   25.4549 O   0  0  0  0  0  0  0  0  0  0  0  0
    8.8155  -14.8274   26.2553 N   0  0  0  0  0  0  0  0  0  0  0  0
    9.0054  -13.6974   27.1750 C   0  0  1  0  0  0  0  0  0  0  0  0
    7.6788  -13.0792   27.5456 C   0  0  0  0  0  0  0  0  0  0  0  0
    6.8386  -12.6404   25.9987 S   0  0  0  0  0  0  0  0  0  0  0  0
    9.6392  -14.2215   28.4096 C   0  0  0  0  0  0  0  0  0  0  0  0
    9.7671  -15.4602   28.6384 O   0  0  0  0  0  0  0  0  0  0  0  0
   10.1276  -13.3640   29.3834 O   0  0  0  0  0  0  0  0  0  0  0  0
  2  1  1  6
  3  2  1  0
  4  3  1  0
  4  8  1  0
  5  4  2  0
  6  5  1  0
  6  7  1  0
  7  8  2  0
  9  2  1  0
 10  9  2  0
 11 12  1  0
 12 14  1  0
 12 13  2  0
 15 14  1  1
 15 16  1  0
 15 17  1  0
 16  9  1  0
 17 18  2  0
 17 19  1  0
 19 20  1  0
 20 21  1  1
 20 23  1  0
 22 21  1  0
 23 25  1  0
 24 23  2  0
M  END
$$$$
