HNC.pdb
     RDKit          3D

 25 25  0  0  1  0  0  0  0  0999 V2000
    8.2794  -16.9402   19.3898 N   0  0  0  0  0  0  0  0  0  0  0  0
    8.2193  -15.8491   20.3245 C   0  0  1  0  0  0  0  0  0  0  0  0
    7.0583  -14.9489   19.8822 C   0  0  0  0  0  0  0  0  0  0  0  0
    7.4417  -14.4053   18.5473 C   0  0  0  0  0  0  0  0  0  0  0  0
    8.1398  -13.2237   18.2780 C   0  0  0  0  0  0  0  0  0  0  0  0
    8.2844  -13.0914   16.9543 N   0  0  0  0  0  0  0  0  0  0  0  0
    7.7066  -14.1417   16.3643 C   0  0  0  0  0  0  0  0  0  0  0  0
    7.1975  -14.9351   17.3289 N   0  0  0  0  0  0  0  0  0  0  0  0
    8.0025  -16.2898   21.7135 C   0  0  0  0  0  0  0  0  0  0  0  0
    7.3922  -17.3746   21.8924 O   0  0  0  0  0  0  0  0  0  0  0  0
   11.4189  -18.4401   25.3615 N   0  0  0  0  0  0  0  0  0  0  0  0
   10.0931  -17.9938   25.1975 C   0  0  0  0  0  0  0  0  0  0  0  0
    9.2797  -18.1794   26.1369 O   0  0  0  0  0  0  0  0  0  0  0  0
    9.7154  -17.3313   23.9387 C   0  0  0  0  0  0  0  0  0  0  0  0
    8.7280  -16.2105   24.1185 C   0  0  2  0  0  0  0  0  0  0  0  0
    8.4443  -15.5579   22.8568 N   0  0  0  0  0  0  0  0  0  0  0  0
    9.2236  -15.2105   25.1164 C   0  0  0  0  0  0  0  0  0  0  0  0
   10.3674  -14.6982   25.0209 O   0  0  0  0  0  0  0  0  0  0  0  0
    8.4148  -14.8066   26.2071 N   0  0  0  0  0  0  0  0  0  0  0  0
    8.7952  -13.6927   27.0865 C   0  0  1  0  0  0  0  0  0  0  0  0
    7.6097  -12.8002   27.3645 C   0  0  0  0  0  0  0  0  0  0  0  0
    6.3784  -13.1225   26.0716 S   0  0  0  0  0  0  0  0  0  0  0  0
    9.2587  -14.2702   28.3720 C   0  0  0  0  0  0  0  0  0  0  0  0
    9.6699  -13.5553   29.3327 O   0  0  0  0  0  0  0  0  0  0  0  0
    9.2619  -15.6406   28.5816 O   0  0  0  0  0  0  0  0  0  0  0  0
  2  1  1  6
  3  2  1  0
  4  3  1  0
  4  8  1  0
  5  4  2  0
  6  5  1  0
  6  7  1  0
  7  8  2  0
  9  2  1  0
 10  9  2  0
 11 12  1  0
 12 14  1  0
 12 13  2  0
 15 14  1  6
 15 16  1  0
 15 17  1  0
 16  9  1  0
 17 18  2  0
 17 19  1  0
 19 20  1  0
 20 21  1  1
 20 23  1  0
 22 21  1  0
 23 25  1  0
 24 23  2  0
M  END
$$$$
