HNC.pdb
     RDKit          3D

 25 25  0  0  1  0  0  0  0  0999 V2000
    9.5502  -15.9234   17.4444 N   0  0  0  0  0  0  0  0  0  0  0  0
    8.6783  -15.3983   18.4603 C   0  0  1  0  0  0  0  0  0  0  0  0
    7.2607  -15.4013   17.8737 C   0  0  0  0  0  0  0  0  0  0  0  0
    7.3372  -14.6243   16.6030 C   0  0  0  0  0  0  0  0  0  0  0  0
    7.2491  -13.2372   16.4468 C   0  0  0  0  0  0  0  0  0  0  0  0
    7.3643  -12.9334   15.1488 N   0  0  0  0  0  0  0  0  0  0  0  0
    7.5227  -14.0711   14.4665 C   0  0  0  0  0  0  0  0  0  0  0  0
    7.5061  -15.0925   15.3472 N   0  0  0  0  0  0  0  0  0  0  0  0
    8.7008  -16.1867   19.7046 C   0  0  0  0  0  0  0  0  0  0  0  0
    7.7250  -16.0666   20.4886 O   0  0  0  0  0  0  0  0  0  0  0  0
    9.7988  -21.0317   22.5272 N   0  0  0  0  0  0  0  0  0  0  0  0
   10.5987  -19.8770   22.4234 C   0  0  0  0  0  0  0  0  0  0  0  0
   11.3266  -19.5648   23.3988 O   0  0  0  0  0  0  0  0  0  0  0  0
   10.5502  -19.0863   21.1830 C   0  0  0  0  0  0  0  0  0  0  0  0
    9.7420  -17.8231   21.3030 C   0  0  2  0  0  0  0  0  0  0  0  0
    9.7615  -17.0718   20.0647 N   0  0  0  0  0  0  0  0  0  0  0  0
   10.2370  -16.9716   22.4306 C   0  0  0  0  0  0  0  0  0  0  0  0
   11.3652  -16.4190   22.3905 O   0  0  0  0  0  0  0  0  0  0  0  0
    9.4453  -16.7596   23.5861 N   0  0  0  0  0  0  0  0  0  0  0  0
    9.9138  -15.9362   24.7092 C   0  0  1  0  0  0  0  0  0  0  0  0
    8.7554  -15.2440   25.3861 C   0  0  0  0  0  0  0  0  0  0  0  0
    8.0243  -14.1087   24.1745 S   0  0  0  0  0  0  0  0  0  0  0  0
   10.5596  -16.8395   25.6929 C   0  0  0  0  0  0  0  0  0  0  0  0
   10.6233  -18.0933   25.5293 O   0  0  0  0  0  0  0  0  0  0  0  0
   11.1313  -16.3423   26.8540 O   0  0  0  0  0  0  0  0  0  0  0  0
  2  1  1  6
  3  2  1  0
  4  3  1  0
  4  8  1  0
  5  4  2  0
  6  5  1  0
  6  7  1  0
  7  8  2  0
  9  2  1  0
 10  9  2  0
 11 12  1  0
 12 14  1  0
 12 13  2  0
 15 14  1  6
 15 16  1  0
 15 17  1  0
 16  9  1  0
 17 18  2  0
 17 19  1  0
 19 20  1  0
 20 21  1  1
 20 23  1  0
 22 21  1  0
 23 25  1  0
 24 23  2  0
M  END
$$$$
