HNC.pdb
     RDKit          3D

 25 25  0  0  1  0  0  0  0  0999 V2000
    9.1468  -17.4152   16.8202 N   0  0  0  0  0  0  0  0  0  0  0  0
    9.0744  -16.4604   17.8930 C   0  0  1  0  0  0  0  0  0  0  0  0
    7.6938  -15.7973   17.8048 C   0  0  0  0  0  0  0  0  0  0  0  0
    7.7190  -14.9508   16.5771 C   0  0  0  0  0  0  0  0  0  0  0  0
    8.4131  -13.7520   16.3838 C   0  0  0  0  0  0  0  0  0  0  0  0
    8.1768  -13.3028   15.1457 N   0  0  0  0  0  0  0  0  0  0  0  0
    7.3585  -14.1662   14.5376 C   0  0  0  0  0  0  0  0  0  0  0  0
    7.0827  -15.1620   15.4044 N   0  0  0  0  0  0  0  0  0  0  0  0
    9.2461  -17.0713   19.2225 C   0  0  0  0  0  0  0  0  0  0  0  0
    8.3163  -17.7999   19.6538 O   0  0  0  0  0  0  0  0  0  0  0  0
   12.5561  -19.7519   19.4364 N   0  0  0  0  0  0  0  0  0  0  0  0
   11.6424  -19.5991   20.4973 C   0  0  0  0  0  0  0  0  0  0  0  0
   10.7653  -20.4836   20.6624 O   0  0  0  0  0  0  0  0  0  0  0  0
   11.7507  -18.4158   21.3657 C   0  0  0  0  0  0  0  0  0  0  0  0
   10.5374  -17.5271   21.3300 C   0  0  2  0  0  0  0  0  0  0  0  0
   10.4011  -16.8823   20.0401 N   0  0  0  0  0  0  0  0  0  0  0  0
   10.5900  -16.4991   22.4172 C   0  0  0  0  0  0  0  0  0  0  0  0
   11.5890  -15.7512   22.5668 O   0  0  0  0  0  0  0  0  0  0  0  0
    9.5091  -16.3350   23.3182 N   0  0  0  0  0  0  0  0  0  0  0  0
    9.5782  -15.4058   24.4542 C   0  0  1  0  0  0  0  0  0  0  0  0
    8.1965  -14.9549   24.8627 C   0  0  0  0  0  0  0  0  0  0  0  0
    7.4583  -14.1186   23.4320 S   0  0  0  0  0  0  0  0  0  0  0  0
   10.1906  -16.1309   25.5943 C   0  0  0  0  0  0  0  0  0  0  0  0
   10.4645  -17.3663   25.5498 O   0  0  0  0  0  0  0  0  0  0  0  0
   10.4952  -15.4772   26.7784 O   0  0  0  0  0  0  0  0  0  0  0  0
  2  1  1  6
  3  2  1  0
  4  3  1  0
  4  8  1  0
  5  4  2  0
  6  5  1  0
  6  7  1  0
  7  8  2  0
  9  2  1  0
 10  9  2  0
 11 12  1  0
 12 14  1  0
 12 13  2  0
 15 14  1  6
 15 16  1  0
 15 17  1  0
 16  9  1  0
 17 18  2  0
 17 19  1  0
 19 20  1  0
 20 21  1  1
 20 23  1  0
 22 21  1  0
 23 25  1  0
 24 23  2  0
M  END
$$$$
