HNC.pdb
     RDKit          3D

 25 25  0  0  1  0  0  0  0  0999 V2000
    9.5496  -15.5115   17.7608 N   0  0  0  0  0  0  0  0  0  0  0  0
    8.8073  -15.0414   18.8992 C   0  0  1  0  0  0  0  0  0  0  0  0
    7.4201  -14.6329   18.3867 C   0  0  0  0  0  0  0  0  0  0  0  0
    7.5910  -14.3138   16.9399 C   0  0  0  0  0  0  0  0  0  0  0  0
    7.3850  -13.0823   16.3097 C   0  0  0  0  0  0  0  0  0  0  0  0
    7.6457  -13.2088   15.0033 N   0  0  0  0  0  0  0  0  0  0  0  0
    8.0107  -14.4729   14.7711 C   0  0  0  0  0  0  0  0  0  0  0  0
    7.9771  -15.1396   15.9430 N   0  0  0  0  0  0  0  0  0  0  0  0
    8.6650  -16.0580   19.9558 C   0  0  0  0  0  0  0  0  0  0  0  0
    7.5249  -16.2173   20.4620 O   0  0  0  0  0  0  0  0  0  0  0  0
   10.2072  -19.2769   19.0078 N   0  0  0  0  0  0  0  0  0  0  0  0
    8.9657  -19.6293   19.5720 C   0  0  0  0  0  0  0  0  0  0  0  0
    8.2871  -20.5255   19.0107 O   0  0  0  0  0  0  0  0  0  0  0  0
    8.5151  -18.9374   20.7903 C   0  0  0  0  0  0  0  0  0  0  0  0
    9.5248  -17.9690   21.3436 C   0  0  2  0  0  0  0  0  0  0  0  0
    9.7425  -16.8647   20.4318 N   0  0  0  0  0  0  0  0  0  0  0  0
   10.8218  -18.6545   21.6421 C   0  0  0  0  0  0  0  0  0  0  0  0
   10.9819  -19.8819   21.4240 O   0  0  0  0  0  0  0  0  0  0  0  0
   11.9175  -17.9379   22.1834 N   0  0  0  0  0  0  0  0  0  0  0  0
   12.3936  -18.1646   23.5548 C   0  0  1  0  0  0  0  0  0  0  0  0
   11.2873  -17.9227   24.5532 C   0  0  0  0  0  0  0  0  0  0  0  0
   10.9499  -16.1401   24.5613 S   0  0  0  0  0  0  0  0  0  0  0  0
   12.8156  -19.5831   23.6576 C   0  0  0  0  0  0  0  0  0  0  0  0
   12.4802  -20.4586   22.8067 O   0  0  0  0  0  0  0  0  0  0  0  0
   13.6091  -20.0199   24.7073 O   0  0  0  0  0  0  0  0  0  0  0  0
  2  1  1  6
  3  2  1  0
  4  3  1  0
  4  8  1  0
  5  4  2  0
  6  5  1  0
  6  7  1  0
  7  8  2  0
  9  2  1  0
 10  9  2  0
 11 12  1  0
 12 14  1  0
 12 13  2  0
 15 14  1  6
 15 16  1  0
 15 17  1  0
 16  9  1  0
 17 18  2  0
 17 19  1  0
 19 20  1  0
 20 21  1  1
 20 23  1  0
 22 21  1  0
 23 25  1  0
 24 23  2  0
M  END
$$$$
