NSS.pdb
     RDKit          3D

 21 20  0  0  1  0  0  0  0  0999 V2000
   19.9263  -10.7068  -18.1601 N   0  0  0  0  0  0  0  0  0  0  0  0
   18.9021   -9.7191  -18.2737 C   0  0  0  0  0  0  0  0  0  0  0  0
   18.1916   -9.7196  -19.3014 O   0  0  0  0  0  0  0  0  0  0  0  0
   18.6870   -8.7172  -17.1982 C   0  0  0  0  0  0  0  0  0  0  0  0
   19.6868   -8.9422  -16.1117 C   0  0  2  0  0  0  0  0  0  0  0  0
   19.3521  -10.1660  -15.4235 N   0  0  0  0  0  0  0  0  0  0  0  0
   19.7795   -7.7982  -15.1739 C   0  0  0  0  0  0  0  0  0  0  0  0
   18.8787   -7.5207  -14.3432 O   0  0  0  0  0  0  0  0  0  0  0  0
   22.5945   -4.7644  -12.8572 O   0  0  0  0  0  0  0  0  0  0  0  0
   22.3865   -5.8929  -13.6512 C   0  0  0  0  0  0  0  0  0  0  0  0
   21.0784   -5.8133  -14.3516 C   0  0  2  0  0  0  0  0  0  0  0  0
   20.9374   -6.9734  -15.2106 N   0  0  0  0  0  0  0  0  0  0  0  0
   20.7885   -4.5862  -15.0646 C   0  0  0  0  0  0  0  0  0  0  0  0
   21.2531   -4.4529  -16.2274 O   0  0  0  0  0  0  0  0  0  0  0  0
   18.1372   -0.6288  -15.5352 O   0  0  0  0  0  0  0  0  0  0  0  0
   18.4265   -1.7287  -14.7447 C   0  0  0  0  0  0  0  0  0  0  0  0
   19.7678   -2.2787  -15.2466 C   0  0  2  0  0  0  0  0  0  0  0  0
   20.0184   -3.5050  -14.5672 N   0  0  0  0  0  0  0  0  0  0  0  0
   20.7695   -1.2420  -15.0455 C   0  0  0  0  0  0  0  0  0  0  0  0
   21.3901   -1.1546  -13.9660 O   0  0  0  0  0  0  0  0  0  0  0  0
   21.0548   -0.3340  -16.0423 O   0  0  0  0  0  0  0  0  0  0  0  0
  2  3  2  0
  2  1  1  0
  4  2  1  0
  5  7  1  0
  5  4  1  0
  5  6  1  1
  7  8  2  0
 10  9  1  0
 11 10  1  6
 11 13  1  0
 12 11  1  0
 12  7  1  0
 13 14  2  0
 13 18  1  0
 15 16  1  0
 17 16  1  1
 17 19  1  0
 18 17  1  0
 19 20  2  0
 19 21  1  0
M  END
$$$$
