NSS.pdb
     RDKit          3D

 21 20  0  0  1  0  0  0  0  0999 V2000
   17.6231  -11.7150  -18.9917 N   0  0  0  0  0  0  0  0  0  0  0  0
   16.8459  -10.7883  -18.2336 C   0  0  0  0  0  0  0  0  0  0  0  0
   15.7397  -10.4309  -18.6915 O   0  0  0  0  0  0  0  0  0  0  0  0
   17.3395  -10.2631  -16.9347 C   0  0  0  0  0  0  0  0  0  0  0  0
   18.6515  -10.9009  -16.6148 C   0  0  2  0  0  0  0  0  0  0  0  0
   18.4030  -12.1814  -15.9968 N   0  0  0  0  0  0  0  0  0  0  0  0
   19.5118  -10.0442  -15.7649 C   0  0  0  0  0  0  0  0  0  0  0  0
   19.1293   -9.5659  -14.6679 O   0  0  0  0  0  0  0  0  0  0  0  0
   23.3831   -8.8095  -17.1243 O   0  0  0  0  0  0  0  0  0  0  0  0
   23.1267   -9.2200  -15.8155 C   0  0  0  0  0  0  0  0  0  0  0  0
   21.7261   -8.9096  -15.4284 C   0  0  2  0  0  0  0  0  0  0  0  0
   20.8309   -9.7460  -16.2048 N   0  0  0  0  0  0  0  0  0  0  0  0
   21.3251   -7.5184  -15.4729 C   0  0  0  0  0  0  0  0  0  0  0  0
   20.7937   -7.0886  -16.5305 O   0  0  0  0  0  0  0  0  0  0  0  0
   19.4934   -3.6397  -14.0054 O   0  0  0  0  0  0  0  0  0  0  0  0
   19.8050   -4.9776  -13.8283 C   0  0  0  0  0  0  0  0  0  0  0  0
   21.1722   -5.1924  -14.4901 C   0  0  2  0  0  0  0  0  0  0  0  0
   21.4777   -6.5817  -14.4199 N   0  0  0  0  0  0  0  0  0  0  0  0
   22.1237   -4.3135  -13.8259 C   0  0  0  0  0  0  0  0  0  0  0  0
   22.7782   -4.7100  -12.8397 O   0  0  0  0  0  0  0  0  0  0  0  0
   22.3229   -3.0246  -14.2711 O   0  0  0  0  0  0  0  0  0  0  0  0
  2  3  2  0
  2  1  1  0
  4  2  1  0
  5  7  1  0
  5  4  1  0
  5  6  1  1
  7  8  2  0
 10  9  1  0
 11 10  1  6
 11 13  1  0
 12 11  1  0
 12  7  1  0
 13 14  2  0
 13 18  1  0
 15 16  1  0
 17 16  1  1
 17 19  1  0
 18 17  1  0
 19 20  2  0
 19 21  1  0
M  END
$$$$
