NSS.pdb
     RDKit          3D

 21 20  0  0  1  0  0  0  0  0999 V2000
   13.1818  -10.5248  -16.2219 N   0  0  0  0  0  0  0  0  0  0  0  0
   13.4370   -9.4870  -15.2757 C   0  0  0  0  0  0  0  0  0  0  0  0
   12.5126   -8.6901  -15.0085 O   0  0  0  0  0  0  0  0  0  0  0  0
   14.7667   -9.3582  -14.6260 C   0  0  0  0  0  0  0  0  0  0  0  0
   15.6776  -10.4142  -15.1604 C   0  0  2  0  0  0  0  0  0  0  0  0
   15.2984  -11.6834  -14.5872 N   0  0  0  0  0  0  0  0  0  0  0  0
   17.1081  -10.1125  -14.9166 C   0  0  0  0  0  0  0  0  0  0  0  0
   17.6719  -10.3196  -13.8131 O   0  0  0  0  0  0  0  0  0  0  0  0
   21.3834   -9.5435  -16.9305 O   0  0  0  0  0  0  0  0  0  0  0  0
   20.0060   -9.7299  -17.0546 C   0  0  0  0  0  0  0  0  0  0  0  0
   19.2995   -9.2891  -15.8239 C   0  0  2  0  0  0  0  0  0  0  0  0
   17.8833   -9.5637  -15.9750 N   0  0  0  0  0  0  0  0  0  0  0  0
   19.5327   -7.9290  -15.3839 C   0  0  0  0  0  0  0  0  0  0  0  0
   18.7535   -7.0306  -15.7978 O   0  0  0  0  0  0  0  0  0  0  0  0
   22.3214   -4.8806  -12.8543 O   0  0  0  0  0  0  0  0  0  0  0  0
   22.1674   -6.1674  -13.3430 C   0  0  0  0  0  0  0  0  0  0  0  0
   20.8776   -6.1609  -14.1735 C   0  0  2  0  0  0  0  0  0  0  0  0
   20.5727   -7.5090  -14.5170 N   0  0  0  0  0  0  0  0  0  0  0  0
   21.0872   -5.2653  -15.3016 C   0  0  0  0  0  0  0  0  0  0  0  0
   21.6959   -5.6531  -16.3201 O   0  0  0  0  0  0  0  0  0  0  0  0
   20.6183   -3.9698  -15.2703 O   0  0  0  0  0  0  0  0  0  0  0  0
  2  3  2  0
  2  1  1  0
  4  2  1  0
  5  7  1  0
  5  4  1  0
  5  6  1  1
  7  8  2  0
 10  9  1  0
 11 10  1  6
 11 13  1  0
 12 11  1  0
 12  7  1  0
 13 14  2  0
 13 18  1  0
 15 16  1  0
 17 16  1  1
 17 19  1  0
 18 17  1  0
 19 20  2  0
 19 21  1  0
M  END
$$$$
