NSS.pdb
     RDKit          3D

 21 20  0  0  1  0  0  0  0  0999 V2000
   13.3588  -11.7094   -9.3175 N   0  0  0  0  0  0  0  0  0  0  0  0
   14.2573  -11.8206  -10.4210 C   0  0  0  0  0  0  0  0  0  0  0  0
   14.4607  -12.9539  -10.9059 O   0  0  0  0  0  0  0  0  0  0  0  0
   14.9325  -10.6203  -10.9779 C   0  0  0  0  0  0  0  0  0  0  0  0
   14.5703   -9.4280  -10.1547 C   0  0  2  0  0  0  0  0  0  0  0  0
   13.1427   -9.2300  -10.2334 N   0  0  0  0  0  0  0  0  0  0  0  0
   15.3117   -8.2091  -10.5562 C   0  0  0  0  0  0  0  0  0  0  0  0
   15.0108   -7.5284  -11.5684 O   0  0  0  0  0  0  0  0  0  0  0  0
   17.9031   -4.5508   -9.0816 O   0  0  0  0  0  0  0  0  0  0  0  0
   17.0837   -5.6649   -8.8957 C   0  0  0  0  0  0  0  0  0  0  0  0
   17.1544   -6.5752  -10.0680 C   0  0  2  0  0  0  0  0  0  0  0  0
   16.4146   -7.7854   -9.7647 N   0  0  0  0  0  0  0  0  0  0  0  0
   18.4725   -6.8751  -10.5884 C   0  0  0  0  0  0  0  0  0  0  0  0
   19.2426   -7.5776   -9.8820 O   0  0  0  0  0  0  0  0  0  0  0  0
   19.2672   -6.8784  -14.3746 O   0  0  0  0  0  0  0  0  0  0  0  0
   20.2570   -7.4527  -13.5943 C   0  0  0  0  0  0  0  0  0  0  0  0
   20.3179   -6.6293  -12.3014 C   0  0  2  0  0  0  0  0  0  0  0  0
   18.9837   -6.4443  -11.8385 N   0  0  0  0  0  0  0  0  0  0  0  0
   21.0480   -5.4050  -12.5954 C   0  0  0  0  0  0  0  0  0  0  0  0
   22.2665   -5.4373  -12.8644 O   0  0  0  0  0  0  0  0  0  0  0  0
   20.4104   -4.1833  -12.5831 O   0  0  0  0  0  0  0  0  0  0  0  0
  2  3  2  0
  2  1  1  0
  4  2  1  0
  5  7  1  0
  5  4  1  0
  5  6  1  6
  7  8  2  0
 10  9  1  0
 11 10  1  1
 11 13  1  0
 12 11  1  0
 12  7  1  0
 13 14  2  0
 13 18  1  0
 15 16  1  0
 17 16  1  6
 17 19  1  0
 18 17  1  0
 19 20  2  0
 19 21  1  0
M  END
$$$$
