NSS.pdb
     RDKit          3D

 21 20  0  0  1  0  0  0  0  0999 V2000
   13.7819  -11.3961   -9.6372 N   0  0  0  0  0  0  0  0  0  0  0  0
   14.7405  -11.5598  -10.6820 C   0  0  0  0  0  0  0  0  0  0  0  0
   14.9994  -12.7187  -11.0705 O   0  0  0  0  0  0  0  0  0  0  0  0
   15.4123  -10.3833  -11.2912 C   0  0  0  0  0  0  0  0  0  0  0  0
   15.0424   -9.1562  -10.5243 C   0  0  2  0  0  0  0  0  0  0  0  0
   13.6059   -9.0166  -10.5429 N   0  0  0  0  0  0  0  0  0  0  0  0
   15.7142   -7.9381  -11.0355 C   0  0  0  0  0  0  0  0  0  0  0  0
   15.3336   -7.3291  -12.0664 O   0  0  0  0  0  0  0  0  0  0  0  0
   18.6475   -6.0532   -8.6688 O   0  0  0  0  0  0  0  0  0  0  0  0
   17.8004   -5.3869   -9.5551 C   0  0  0  0  0  0  0  0  0  0  0  0
   17.5251   -6.2221  -10.7528 C   0  0  2  0  0  0  0  0  0  0  0  0
   16.8412   -7.4301  -10.3324 N   0  0  0  0  0  0  0  0  0  0  0  0
   18.6480   -6.5213  -11.6175 C   0  0  0  0  0  0  0  0  0  0  0  0
   19.2985   -7.5772  -11.3997 O   0  0  0  0  0  0  0  0  0  0  0  0
   20.9094   -5.6838  -15.7723 O   0  0  0  0  0  0  0  0  0  0  0  0
   19.9715   -5.2151  -14.8671 C   0  0  0  0  0  0  0  0  0  0  0  0
   20.1615   -6.0373  -13.5860 C   0  0  2  0  0  0  0  0  0  0  0  0
   19.0893   -5.7231  -12.7027 N   0  0  0  0  0  0  0  0  0  0  0  0
   21.4928   -5.7487  -13.0732 C   0  0  0  0  0  0  0  0  0  0  0  0
   21.6873   -4.7786  -12.3121 O   0  0  0  0  0  0  0  0  0  0  0  0
   22.5677   -6.5398  -13.4165 O   0  0  0  0  0  0  0  0  0  0  0  0
  2  3  2  0
  2  1  1  0
  4  2  1  0
  5  7  1  0
  5  4  1  0
  5  6  1  6
  7  8  2  0
 10  9  1  0
 11 10  1  1
 11 13  1  0
 12 11  1  0
 12  7  1  0
 13 14  2  0
 13 18  1  0
 15 16  1  0
 17 16  1  6
 17 19  1  0
 18 17  1  0
 19 20  2  0
 19 21  1  0
M  END
$$$$
