NSS.pdb
     RDKit          3D

 21 20  0  0  1  0  0  0  0  0999 V2000
   16.9859  -13.9166  -16.2764 N   0  0  0  0  0  0  0  0  0  0  0  0
   17.0267  -13.3619  -14.9619 C   0  0  0  0  0  0  0  0  0  0  0  0
   16.8681  -14.1313  -13.9904 O   0  0  0  0  0  0  0  0  0  0  0  0
   17.2518  -11.9082  -14.7548 C   0  0  0  0  0  0  0  0  0  0  0  0
   17.4185  -11.2441  -16.0821 C   0  0  2  0  0  0  0  0  0  0  0  0
   17.4737  -12.2626  -17.1035 N   0  0  0  0  0  0  0  0  0  0  0  0
   18.6050  -10.3574  -16.1330 C   0  0  0  0  0  0  0  0  0  0  0  0
   19.5582  -10.4438  -15.3193 O   0  0  0  0  0  0  0  0  0  0  0  0
   20.7913   -6.8595  -18.6998 O   0  0  0  0  0  0  0  0  0  0  0  0
   19.6832   -7.6875  -18.5164 C   0  0  0  0  0  0  0  0  0  0  0  0
   19.7926   -8.4434  -17.2418 C   0  0  2  0  0  0  0  0  0  0  0  0
   18.6740   -9.3617  -17.1461 N   0  0  0  0  0  0  0  0  0  0  0  0
   19.9475   -7.6671  -16.0288 C   0  0  0  0  0  0  0  0  0  0  0  0
   18.9289   -7.4760  -15.3136 O   0  0  0  0  0  0  0  0  0  0  0  0
   21.6945   -6.4479  -12.0931 O   0  0  0  0  0  0  0  0  0  0  0  0
   21.6798   -7.2318  -13.2349 C   0  0  0  0  0  0  0  0  0  0  0  0
   21.3080   -6.2977  -14.3936 C   0  0  2  0  0  0  0  0  0  0  0  0
   21.1582   -7.0936  -15.5651 N   0  0  0  0  0  0  0  0  0  0  0  0
   22.3320   -5.2662  -14.4709 C   0  0  0  0  0  0  0  0  0  0  0  0
   23.1376   -5.2366  -15.4240 O   0  0  0  0  0  0  0  0  0  0  0  0
   22.4348   -4.2997  -13.4940 O   0  0  0  0  0  0  0  0  0  0  0  0
  2  3  2  0
  2  1  1  0
  4  2  1  0
  5  7  1  0
  5  4  1  0
  5  6  1  6
  7  8  2  0
 10  9  1  0
 11 10  1  6
 11 13  1  0
 12 11  1  0
 12  7  1  0
 13 14  2  0
 13 18  1  0
 15 16  1  0
 17 16  1  1
 17 19  1  0
 18 17  1  0
 19 20  2  0
 19 21  1  0
M  END
$$$$
