IFR.pdb
     RDKit          3D

 31 31  0  0  1  0  0  0  0  0999 V2000
    8.6423  -16.2473   15.9975 C   0  0  0  0  0  0  0  0  0  0  0  0
    8.0717  -15.0907   16.7322 C   0  0  0  0  0  0  0  0  0  0  0  0
    8.5701  -14.8473   18.1054 C   0  0  2  0  0  0  0  0  0  0  0  0
    8.4062  -16.1808   18.8585 C   0  0  0  0  0  0  0  0  0  0  0  0
    7.9223  -13.7770   18.8946 C   0  0  2  0  0  0  0  0  0  0  0  0
    7.9365  -12.5086   18.2095 N   0  0  0  0  0  0  0  0  0  0  0  0
    8.3240  -13.6798   20.3093 C   0  0  0  0  0  0  0  0  0  0  0  0
    9.5250  -13.4273   20.5685 O   0  0  0  0  0  0  0  0  0  0  0  0
    7.4284  -13.8577   21.3944 N   0  0  0  0  0  0  0  0  0  0  0  0
    7.7818  -13.7493   22.7922 C   0  0  1  0  0  0  0  0  0  0  0  0
    6.6093  -13.5651   23.7100 C   0  0  0  0  0  0  0  0  0  0  0  0
    6.9549  -13.3937   25.1321 C   0  0  0  0  0  0  0  0  0  0  0  0
    7.2689  -12.1264   25.5846 C   0  0  0  0  0  0  0  0  0  0  0  0
    7.6014  -11.9139   26.9237 C   0  0  0  0  0  0  0  0  0  0  0  0
    7.6241  -12.9563   27.8192 C   0  0  0  0  0  0  0  0  0  0  0  0
    7.3127  -14.2218   27.3766 C   0  0  0  0  0  0  0  0  0  0  0  0
    6.9856  -14.4196   26.0511 C   0  0  0  0  0  0  0  0  0  0  0  0
    8.3838  -15.0782   23.1856 C   0  0  0  0  0  0  0  0  0  0  0  0
    7.8471  -16.1095   22.7262 O   0  0  0  0  0  0  0  0  0  0  0  0
   14.4222  -14.1157   19.7343 N   0  0  0  0  0  0  0  0  0  0  0  0
   13.4551  -15.1689   19.8793 C   0  0  0  0  0  0  0  0  0  0  0  0
   12.7562  -15.5561   18.8791 N   0  0  0  0  0  0  0  0  0  0  0  0
   13.3413  -15.7233   21.1672 N   0  0  0  0  0  0  0  0  0  0  0  0
   12.7699  -17.0367   21.3462 C   0  0  0  0  0  0  0  0  0  0  0  0
   11.5275  -17.0516   22.1358 C   0  0  0  0  0  0  0  0  0  0  0  0
   11.3782  -16.3837   23.4119 C   0  0  0  0  0  0  0  0  0  0  0  0
   10.1394  -16.4930   24.2255 C   0  0  2  0  0  0  0  0  0  0  0  0
    9.4940  -15.1411   24.0283 N   0  0  0  0  0  0  0  0  0  0  0  0
   10.4257  -16.5240   25.6891 C   0  0  0  0  0  0  0  0  0  0  0  0
   10.7466  -17.6397   26.4091 O   0  0  0  0  0  0  0  0  0  0  0  0
   10.3770  -15.4431   26.3935 O   0  0  0  0  0  0  0  0  0  0  0  0
  2  1  1  0
  2  3  1  0
  3  4  1  1
  5  6  1  6
  5  3  1  0
  7  8  2  0
  7  5  1  0
  9  7  1  0
 10  9  1  0
 11 12  1  0
 10 11  1  1
 12 17  2  0
 13 12  1  0
 13 14  2  0
 14 15  1  0
 15 16  2  0
 17 16  1  0
 18 10  1  0
 18 28  1  0
 19 18  2  0
 20 21  1  0
 21 22  2  0
 21 23  1  0
 23 24  1  0
 24 25  1  0
 25 26  1  0
 27 26  1  6
 27 28  1  0
 27 29  1  0
 29 31  2  0
 29 30  1  0
M  END
$$$$
