IFR.pdb
     RDKit          3D

 31 31  0  0  1  0  0  0  0  0999 V2000
    7.3895  -16.4729   17.2261 C   0  0  0  0  0  0  0  0  0  0  0  0
    7.1700  -15.3200   18.1348 C   0  0  0  0  0  0  0  0  0  0  0  0
    7.8808  -15.3361   19.4339 C   0  0  2  0  0  0  0  0  0  0  0  0
    7.5253  -16.6810   20.0952 C   0  0  0  0  0  0  0  0  0  0  0  0
    7.5902  -14.2477   20.3926 C   0  0  2  0  0  0  0  0  0  0  0  0
    7.7065  -12.9434   19.7895 N   0  0  0  0  0  0  0  0  0  0  0  0
    8.2538  -14.3441   21.7050 C   0  0  0  0  0  0  0  0  0  0  0  0
    9.4482  -13.9715   21.7942 O   0  0  0  0  0  0  0  0  0  0  0  0
    7.6177  -14.8366   22.8729 N   0  0  0  0  0  0  0  0  0  0  0  0
    8.2467  -14.9783   24.1669 C   0  0  1  0  0  0  0  0  0  0  0  0
    7.3247  -14.7448   25.3273 C   0  0  0  0  0  0  0  0  0  0  0  0
    7.2459  -13.3468   25.7862 C   0  0  0  0  0  0  0  0  0  0  0  0
    5.9982  -12.7994   26.0163 C   0  0  0  0  0  0  0  0  0  0  0  0
    5.8726  -11.4795   26.4531 C   0  0  0  0  0  0  0  0  0  0  0  0
    6.9830  -10.6972   26.6636 C   0  0  0  0  0  0  0  0  0  0  0  0
    8.2294  -11.2347   26.4368 C   0  0  0  0  0  0  0  0  0  0  0  0
    8.3411  -12.5403   26.0052 C   0  0  0  0  0  0  0  0  0  0  0  0
    8.6654  -16.4255   24.2829 C   0  0  0  0  0  0  0  0  0  0  0  0
    7.7661  -17.2906   24.2083 O   0  0  0  0  0  0  0  0  0  0  0  0
   11.5363  -18.6567   19.3311 N   0  0  0  0  0  0  0  0  0  0  0  0
   12.9609  -18.7059   19.5141 C   0  0  0  0  0  0  0  0  0  0  0  0
   13.6931  -19.4262   18.7501 N   0  0  0  0  0  0  0  0  0  0  0  0
   13.4710  -17.9238   20.5664 N   0  0  0  0  0  0  0  0  0  0  0  0
   12.5730  -17.2502   21.4739 C   0  0  0  0  0  0  0  0  0  0  0  0
   11.6703  -18.1512   22.2091 C   0  0  0  0  0  0  0  0  0  0  0  0
   11.6303  -18.2456   23.6535 C   0  0  0  0  0  0  0  0  0  0  0  0
   10.3540  -18.2413   24.4146 C   0  0  2  0  0  0  0  0  0  0  0  0
   10.0045  -16.7721   24.4658 N   0  0  0  0  0  0  0  0  0  0  0  0
   10.5511  -18.5951   25.8503 C   0  0  0  0  0  0  0  0  0  0  0  0
   10.7703  -19.8546   26.3319 O   0  0  0  0  0  0  0  0  0  0  0  0
   10.5173  -17.6841   26.7645 O   0  0  0  0  0  0  0  0  0  0  0  0
  2  1  1  0
  2  3  1  0
  3  4  1  1
  5  6  1  6
  5  3  1  0
  7  8  2  0
  7  5  1  0
  9  7  1  0
 10  9  1  0
 11 12  1  0
 10 11  1  1
 12 17  2  0
 13 12  1  0
 13 14  2  0
 14 15  1  0
 15 16  2  0
 17 16  1  0
 18 10  1  0
 18 28  1  0
 19 18  2  0
 20 21  1  0
 21 22  2  0
 21 23  1  0
 23 24  1  0
 24 25  1  0
 25 26  1  0
 27 26  1  6
 27 28  1  0
 27 29  1  0
 29 31  2  0
 29 30  1  0
M  END
$$$$
