IFR.pdb
     RDKit          3D

 31 31  0  0  1  0  0  0  0  0999 V2000
    8.1067  -20.5045   18.9471 C   0  0  0  0  0  0  0  0  0  0  0  0
    8.0352  -19.0227   18.8974 C   0  0  0  0  0  0  0  0  0  0  0  0
    8.4465  -18.2832   20.1128 C   0  0  2  0  0  0  0  0  0  0  0  0
    7.5074  -18.7592   21.2369 C   0  0  0  0  0  0  0  0  0  0  0  0
    8.4138  -16.8051   20.0648 C   0  0  2  0  0  0  0  0  0  0  0  0
    9.1729  -16.2777   18.9585 N   0  0  0  0  0  0  0  0  0  0  0  0
    8.6764  -16.1083   21.3366 C   0  0  0  0  0  0  0  0  0  0  0  0
    9.8583  -16.0619   21.7541 O   0  0  0  0  0  0  0  0  0  0  0  0
    7.6667  -15.4887   22.1163 N   0  0  0  0  0  0  0  0  0  0  0  0
    7.8772  -14.8506   23.3964 C   0  0  1  0  0  0  0  0  0  0  0  0
    6.6798  -14.1135   23.9199 C   0  0  0  0  0  0  0  0  0  0  0  0
    6.8582  -13.5042   25.2496 C   0  0  0  0  0  0  0  0  0  0  0  0
    7.5990  -12.3418   25.3465 C   0  0  0  0  0  0  0  0  0  0  0  0
    7.7945  -11.7268   26.5844 C   0  0  0  0  0  0  0  0  0  0  0  0
    7.2566  -12.2613   27.7308 C   0  0  0  0  0  0  0  0  0  0  0  0
    6.5173  -13.4188   27.6430 C   0  0  0  0  0  0  0  0  0  0  0  0
    6.3308  -14.0177   26.4142 C   0  0  0  0  0  0  0  0  0  0  0  0
    8.1218  -15.9602   24.3924 C   0  0  0  0  0  0  0  0  0  0  0  0
    7.2579  -16.8602   24.4722 O   0  0  0  0  0  0  0  0  0  0  0  0
   11.1922  -20.2441   20.9337 N   0  0  0  0  0  0  0  0  0  0  0  0
   12.3918  -19.7489   21.5511 C   0  0  0  0  0  0  0  0  0  0  0  0
   13.4804  -19.6585   20.8837 N   0  0  0  0  0  0  0  0  0  0  0  0
   12.2781  -19.3826   22.9045 N   0  0  0  0  0  0  0  0  0  0  0  0
   11.0317  -19.5719   23.6075 C   0  0  0  0  0  0  0  0  0  0  0  0
   10.4386  -18.3297   24.1294 C   0  0  0  0  0  0  0  0  0  0  0  0
   10.4936  -17.9361   25.5218 C   0  0  0  0  0  0  0  0  0  0  0  0
    9.4295  -17.1168   26.1582 C   0  0  2  0  0  0  0  0  0  0  0  0
    9.2690  -15.9708   25.1866 N   0  0  0  0  0  0  0  0  0  0  0  0
    9.9023  -16.4448   27.4031 C   0  0  0  0  0  0  0  0  0  0  0  0
    9.8972  -16.9985   28.6519 O   0  0  0  0  0  0  0  0  0  0  0  0
   10.3600  -15.2381   27.3679 O   0  0  0  0  0  0  0  0  0  0  0  0
  2  1  1  0
  2  3  1  0
  3  4  1  1
  5  6  1  6
  5  3  1  0
  7  8  2  0
  7  5  1  0
  9  7  1  0
 10  9  1  0
 11 12  1  0
 10 11  1  1
 12 17  2  0
 13 12  1  0
 13 14  2  0
 14 15  1  0
 15 16  2  0
 17 16  1  0
 18 10  1  0
 18 28  1  0
 19 18  2  0
 20 21  1  0
 21 22  2  0
 21 23  1  0
 23 24  1  0
 24 25  1  0
 25 26  1  0
 27 26  1  6
 27 28  1  0
 27 29  1  0
 29 31  2  0
 29 30  1  0
M  END
$$$$
