IFR.pdb
     RDKit          3D

 31 31  0  0  1  0  0  0  0  0999 V2000
   10.7405  -18.9369   17.6002 C   0  0  0  0  0  0  0  0  0  0  0  0
   10.1176  -19.2810   18.9028 C   0  0  0  0  0  0  0  0  0  0  0  0
   10.2023  -18.2709   19.9824 C   0  0  2  0  0  0  0  0  0  0  0  0
   10.7347  -19.0167   21.2202 C   0  0  0  0  0  0  0  0  0  0  0  0
    8.9620  -17.5578   20.3584 C   0  0  2  0  0  0  0  0  0  0  0  0
    8.2114  -17.1232   19.2069 N   0  0  0  0  0  0  0  0  0  0  0  0
    9.1001  -16.5155   21.3913 C   0  0  0  0  0  0  0  0  0  0  0  0
   10.2286  -15.9951   21.5611 O   0  0  0  0  0  0  0  0  0  0  0  0
    8.0281  -16.0692   22.2056 N   0  0  0  0  0  0  0  0  0  0  0  0
    8.1448  -15.1180   23.2881 C   0  0  1  0  0  0  0  0  0  0  0  0
    6.8837  -14.3584   23.5772 C   0  0  0  0  0  0  0  0  0  0  0  0
    6.9565  -13.4525   24.7370 C   0  0  0  0  0  0  0  0  0  0  0  0
    6.2869  -13.8077   25.8923 C   0  0  0  0  0  0  0  0  0  0  0  0
    6.3275  -12.9827   27.0176 C   0  0  0  0  0  0  0  0  0  0  0  0
    7.0319  -11.8024   27.0023 C   0  0  0  0  0  0  0  0  0  0  0  0
    7.7017  -11.4412   25.8556 C   0  0  0  0  0  0  0  0  0  0  0  0
    7.6543  -12.2647   24.7497 C   0  0  0  0  0  0  0  0  0  0  0  0
    8.4137  -15.9232   24.5381 C   0  0  0  0  0  0  0  0  0  0  0  0
    7.7162  -16.9437   24.7241 O   0  0  0  0  0  0  0  0  0  0  0  0
   13.4387  -17.3413   22.3892 N   0  0  0  0  0  0  0  0  0  0  0  0
   13.2626  -18.7672   22.4239 C   0  0  0  0  0  0  0  0  0  0  0  0
   13.1996  -19.4442   21.3392 N   0  0  0  0  0  0  0  0  0  0  0  0
   13.1682  -19.3420   23.7044 N   0  0  0  0  0  0  0  0  0  0  0  0
   12.9604  -18.5070   24.8634 C   0  0  0  0  0  0  0  0  0  0  0  0
   11.8650  -17.5343   24.7177 C   0  0  0  0  0  0  0  0  0  0  0  0
   11.4383  -16.6404   25.7738 C   0  0  0  0  0  0  0  0  0  0  0  0
   10.0411  -16.6186   26.2798 C   0  0  2  0  0  0  0  0  0  0  0  0
    9.4030  -15.5349   25.4421 N   0  0  0  0  0  0  0  0  0  0  0  0
    9.9507  -16.0756   27.6662 C   0  0  0  0  0  0  0  0  0  0  0  0
    9.8163  -14.7558   27.9918 O   0  0  0  0  0  0  0  0  0  0  0  0
   10.0037  -16.8635   28.6876 O   0  0  0  0  0  0  0  0  0  0  0  0
  2  1  1  0
  2  3  1  0
  3  4  1  1
  5  6  1  6
  5  3  1  0
  7  8  2  0
  7  5  1  0
  9  7  1  0
 10  9  1  0
 11 12  1  0
 10 11  1  1
 12 17  2  0
 13 12  1  0
 13 14  2  0
 14 15  1  0
 15 16  2  0
 17 16  1  0
 18 10  1  0
 18 28  1  0
 19 18  2  0
 20 21  1  0
 21 22  2  0
 21 23  1  0
 23 24  1  0
 24 25  1  0
 25 26  1  0
 27 26  1  6
 27 28  1  0
 27 29  1  0
 29 31  2  0
 29 30  1  0
M  END
$$$$
