IFR.pdb
     RDKit          3D

 31 31  0  0  1  0  0  0  0  0999 V2000
    8.4440  -16.5396   16.0632 C   0  0  0  0  0  0  0  0  0  0  0  0
    7.9329  -15.3509   16.7905 C   0  0  0  0  0  0  0  0  0  0  0  0
    8.5136  -15.0706   18.1236 C   0  0  2  0  0  0  0  0  0  0  0  0
    8.2807  -16.3407   18.9632 C   0  0  0  0  0  0  0  0  0  0  0  0
    7.9907  -13.9073   18.8729 C   0  0  2  0  0  0  0  0  0  0  0  0
    8.1046  -12.6801   18.1251 N   0  0  0  0  0  0  0  0  0  0  0  0
    8.4383  -13.7813   20.2714 C   0  0  0  0  0  0  0  0  0  0  0  0
    9.6201  -13.4193   20.4853 O   0  0  0  0  0  0  0  0  0  0  0  0
    7.6077  -14.0485   21.3895 N   0  0  0  0  0  0  0  0  0  0  0  0
    7.9781  -13.8384   22.7711 C   0  0  1  0  0  0  0  0  0  0  0  0
    6.8261  -13.5034   23.6721 C   0  0  0  0  0  0  0  0  0  0  0  0
    7.1951  -13.2058   25.0672 C   0  0  0  0  0  0  0  0  0  0  0  0
    6.7019  -14.0226   26.0667 C   0  0  0  0  0  0  0  0  0  0  0  0
    7.0248  -13.7815   27.4032 C   0  0  0  0  0  0  0  0  0  0  0  0
    7.8375  -12.7301   27.7544 C   0  0  0  0  0  0  0  0  0  0  0  0
    8.3329  -11.9117   26.7650 C   0  0  0  0  0  0  0  0  0  0  0  0
    8.0071  -12.1598   25.4476 C   0  0  0  0  0  0  0  0  0  0  0  0
    8.5026  -15.1612   23.2794 C   0  0  0  0  0  0  0  0  0  0  0  0
    7.7801  -16.1674   23.1114 O   0  0  0  0  0  0  0  0  0  0  0  0
   14.8979  -15.0484   21.8464 N   0  0  0  0  0  0  0  0  0  0  0  0
   13.8984  -14.7592   20.8552 C   0  0  0  0  0  0  0  0  0  0  0  0
   13.8483  -13.6097   20.2941 N   0  0  0  0  0  0  0  0  0  0  0  0
   13.0075  -15.8070   20.5593 N   0  0  0  0  0  0  0  0  0  0  0  0
   12.4663  -16.6233   21.6197 C   0  0  0  0  0  0  0  0  0  0  0  0
   12.2670  -15.9072   22.8905 C   0  0  0  0  0  0  0  0  0  0  0  0
   11.7019  -16.5167   24.0763 C   0  0  0  0  0  0  0  0  0  0  0  0
   10.2355  -16.6224   24.2930 C   0  0  2  0  0  0  0  0  0  0  0  0
    9.7445  -15.2458   23.9096 N   0  0  0  0  0  0  0  0  0  0  0  0
    9.8837  -16.7193   25.7393 C   0  0  0  0  0  0  0  0  0  0  0  0
    9.9079  -17.8640   26.4845 O   0  0  0  0  0  0  0  0  0  0  0  0
    9.5116  -15.6736   26.3989 O   0  0  0  0  0  0  0  0  0  0  0  0
  2  1  1  0
  2  3  1  0
  3  4  1  1
  5  6  1  6
  5  3  1  0
  7  8  2  0
  7  5  1  0
  9  7  1  0
 10  9  1  0
 11 12  1  0
 10 11  1  1
 12 17  2  0
 13 12  1  0
 13 14  2  0
 14 15  1  0
 15 16  2  0
 17 16  1  0
 18 10  1  0
 18 28  1  0
 19 18  2  0
 20 21  1  0
 21 22  2  0
 21 23  1  0
 23 24  1  0
 24 25  1  0
 25 26  1  0
 27 26  1  1
 27 28  1  0
 27 29  1  0
 29 31  2  0
 29 30  1  0
M  END
$$$$
