IFR.pdb
     RDKit          3D

 31 31  0  0  1  0  0  0  0  0999 V2000
   10.9250  -19.6688   18.5940 C   0  0  0  0  0  0  0  0  0  0  0  0
    9.9106  -18.5854   18.6160 C   0  0  0  0  0  0  0  0  0  0  0  0
    9.9890  -17.6060   19.7240 C   0  0  2  0  0  0  0  0  0  0  0  0
    9.8479  -18.4223   21.0224 C   0  0  0  0  0  0  0  0  0  0  0  0
    8.9970  -16.5089   19.7462 C   0  0  2  0  0  0  0  0  0  0  0  0
    8.8602  -15.8703   18.4609 N   0  0  0  0  0  0  0  0  0  0  0  0
    9.1107  -15.5534   20.8625 C   0  0  0  0  0  0  0  0  0  0  0  0
   10.1622  -14.8764   20.9587 O   0  0  0  0  0  0  0  0  0  0  0  0
    8.0977  -15.3578   21.8357 N   0  0  0  0  0  0  0  0  0  0  0  0
    8.1688  -14.4214   22.9349 C   0  0  1  0  0  0  0  0  0  0  0  0
    6.8557  -14.1738   23.6172 C   0  0  0  0  0  0  0  0  0  0  0  0
    6.9195  -13.2662   24.7762 C   0  0  0  0  0  0  0  0  0  0  0  0
    8.0251  -12.4485   24.9112 C   0  0  0  0  0  0  0  0  0  0  0  0
    8.1301  -11.5708   25.9917 C   0  0  0  0  0  0  0  0  0  0  0  0
    7.1399  -11.5002   26.9424 C   0  0  0  0  0  0  0  0  0  0  0  0
    6.0353  -12.3113   26.8153 C   0  0  0  0  0  0  0  0  0  0  0  0
    5.9426  -13.1746   25.7432 C   0  0  0  0  0  0  0  0  0  0  0  0
    9.0434  -15.0625   23.9872 C   0  0  0  0  0  0  0  0  0  0  0  0
    8.8494  -14.7281   25.1759 O   0  0  0  0  0  0  0  0  0  0  0  0
   13.2035  -21.0913   26.5882 N   0  0  0  0  0  0  0  0  0  0  0  0
   12.2735  -20.9282   27.6717 C   0  0  0  0  0  0  0  0  0  0  0  0
   12.6661  -21.0096   28.8874 N   0  0  0  0  0  0  0  0  0  0  0  0
   10.9392  -20.6794   27.3018 N   0  0  0  0  0  0  0  0  0  0  0  0
   10.6435  -19.9468   26.0937 C   0  0  0  0  0  0  0  0  0  0  0  0
   10.1248  -18.5883   26.3236 C   0  0  0  0  0  0  0  0  0  0  0  0
    9.8052  -17.6595   25.2597 C   0  0  0  0  0  0  0  0  0  0  0  0
   10.7824  -16.6575   24.7600 C   0  0  2  0  0  0  0  0  0  0  0  0
   10.0254  -15.9894   23.6359 N   0  0  0  0  0  0  0  0  0  0  0  0
   11.9373  -17.2938   24.0625 C   0  0  0  0  0  0  0  0  0  0  0  0
   11.8689  -17.9801   22.8833 O   0  0  0  0  0  0  0  0  0  0  0  0
   13.1254  -17.2332   24.5642 O   0  0  0  0  0  0  0  0  0  0  0  0
  2  1  1  0
  2  3  1  0
  3  4  1  1
  5  6  1  6
  5  3  1  0
  7  8  2  0
  7  5  1  0
  9  7  1  0
 10  9  1  0
 11 12  1  0
 10 11  1  1
 12 17  2  0
 13 12  1  0
 13 14  2  0
 14 15  1  0
 15 16  2  0
 17 16  1  0
 18 10  1  0
 18 28  1  0
 19 18  2  0
 20 21  1  0
 21 22  2  0
 21 23  1  0
 23 24  1  0
 24 25  1  0
 25 26  1  0
 27 26  1  6
 27 28  1  0
 27 29  1  0
 29 31  2  0
 29 30  1  0
M  END
$$$$
