PQG.pdb
     RDKit          3D

 21 21  0  0  1  0  0  0  0  0999 V2000
   24.4720  -21.8082  -11.5406 N   0  0  0  0  0  0  0  0  0  0  0  0
   25.3522  -22.0614  -10.4079 C   0  0  0  0  0  0  0  0  0  0  0  0
   25.9247  -20.7352  -10.0093 C   0  0  0  0  0  0  0  0  0  0  0  0
   25.1446  -19.6795  -10.7241 C   0  0  0  0  0  0  0  0  0  0  0  0
   24.0634  -20.4416  -11.4532 C   0  0  1  0  0  0  0  0  0  0  0  0
   23.8548  -19.8094  -12.7791 C   0  0  0  0  0  0  0  0  0  0  0  0
   23.5740  -18.5836  -12.8145 O   0  0  0  0  0  0  0  0  0  0  0  0
   28.1156  -20.2227  -17.1172 N   0  0  0  0  0  0  0  0  0  0  0  0
   27.4948  -20.8906  -16.0627 C   0  0  0  0  0  0  0  0  0  0  0  0
   27.8354  -22.0228  -15.7047 O   0  0  0  0  0  0  0  0  0  0  0  0
   26.3712  -20.2086  -15.3359 C   0  0  0  0  0  0  0  0  0  0  0  0
   25.0998  -20.2749  -16.1328 C   0  0  0  0  0  0  0  0  0  0  0  0
   23.9389  -19.8553  -15.3184 C   0  0  2  0  0  0  0  0  0  0  0  0
   23.9530  -20.5017  -13.9994 N   0  0  0  0  0  0  0  0  0  0  0  0
   22.6697  -20.0860  -16.0001 C   0  0  0  0  0  0  0  0  0  0  0  0
   22.4305  -19.6962  -17.1611 O   0  0  0  0  0  0  0  0  0  0  0  0
   21.6241  -20.8038  -15.3032 N   0  0  0  0  0  0  0  0  0  0  0  0
   20.3307  -20.9170  -15.9496 C   0  0  0  0  0  0  0  0  0  0  0  0
   19.2284  -20.5222  -15.0639 C   0  0  0  0  0  0  0  0  0  0  0  0
   17.9032  -20.4334  -15.4923 O   0  0  0  0  0  0  0  0  0  0  0  0
   19.4875  -20.2531  -13.8719 O   0  0  0  0  0  0  0  0  0  0  0  0
  2  1  1  0
  3  4  1  0
  3  2  1  0
  4  5  1  0
  5  1  1  0
  5  6  1  6
  7  6  2  0
  8  9  1  0
  9 11  1  0
 10  9  2  0
 11 12  1  0
 13 12  1  6
 13 14  1  0
 13 15  1  0
 14  6  1  0
 15 17  1  0
 16 15  2  0
 17 18  1  0
 18 19  1  0
 19 21  2  0
 19 20  1  0
M  END
$$$$
