PQG.pdb
     RDKit          3D

 21 21  0  0  1  0  0  0  0  0999 V2000
   20.1037  -12.0305  -15.6685 N   0  0  0  0  0  0  0  0  0  0  0  0
   19.6097  -13.3086  -16.1627 C   0  0  0  0  0  0  0  0  0  0  0  0
   19.8995  -13.3371  -17.6326 C   0  0  0  0  0  0  0  0  0  0  0  0
   20.8259  -12.2015  -17.9267 C   0  0  0  0  0  0  0  0  0  0  0  0
   21.1222  -11.5995  -16.5735 C   0  0  1  0  0  0  0  0  0  0  0  0
   21.1871  -10.1245  -16.7189 C   0  0  0  0  0  0  0  0  0  0  0  0
   22.1214   -9.6364  -17.4057 O   0  0  0  0  0  0  0  0  0  0  0  0
   17.1627   -6.2067  -18.3679 N   0  0  0  0  0  0  0  0  0  0  0  0
   18.0800   -5.2726  -17.8888 C   0  0  0  0  0  0  0  0  0  0  0  0
   18.0262   -4.0765  -18.1928 O   0  0  0  0  0  0  0  0  0  0  0  0
   19.1731   -5.7378  -16.9698 C   0  0  0  0  0  0  0  0  0  0  0  0
   19.0475   -7.2080  -16.6894 C   0  0  0  0  0  0  0  0  0  0  0  0
   20.3378   -7.7770  -16.2444 C   0  0  2  0  0  0  0  0  0  0  0  0
   20.2640   -9.2399  -16.1331 N   0  0  0  0  0  0  0  0  0  0  0  0
   20.8075   -7.1810  -14.9982 C   0  0  0  0  0  0  0  0  0  0  0  0
   20.3241   -7.4515  -13.8800 O   0  0  0  0  0  0  0  0  0  0  0  0
   21.8912   -6.2232  -15.0482 N   0  0  0  0  0  0  0  0  0  0  0  0
   22.4071   -5.7149  -13.7916 C   0  0  0  0  0  0  0  0  0  0  0  0
   21.7521   -4.4657  -13.3845 C   0  0  0  0  0  0  0  0  0  0  0  0
   20.4667   -4.4224  -12.8430 O   0  0  0  0  0  0  0  0  0  0  0  0
   22.3731   -3.3914  -13.5291 O   0  0  0  0  0  0  0  0  0  0  0  0
  2  1  1  0
  3  4  1  0
  3  2  1  0
  4  5  1  0
  5  1  1  0
  5  6  1  6
  7  6  2  0
  8  9  1  0
  9 11  1  0
 10  9  2  0
 11 12  1  0
 13 12  1  1
 13 14  1  0
 13 15  1  0
 14  6  1  0
 15 17  1  0
 16 15  2  0
 17 18  1  0
 18 19  1  0
 19 21  2  0
 19 20  1  0
M  END
$$$$
