PQG.pdb
     RDKit          3D

 21 21  0  0  1  0  0  0  0  0999 V2000
   26.3753  -10.1735  -17.4405 N   0  0  0  0  0  0  0  0  0  0  0  0
   27.7726  -10.4288  -17.1174 C   0  0  0  0  0  0  0  0  0  0  0  0
   27.7874  -11.0467  -15.7523 C   0  0  0  0  0  0  0  0  0  0  0  0
   26.3794  -11.4183  -15.4155 C   0  0  0  0  0  0  0  0  0  0  0  0
   25.5949  -11.0827  -16.6618 C   0  0  1  0  0  0  0  0  0  0  0  0
   24.2821  -10.5239  -16.2550 C   0  0  0  0  0  0  0  0  0  0  0  0
   23.5051  -11.2574  -15.5909 O   0  0  0  0  0  0  0  0  0  0  0  0
   22.5982   -5.4909  -13.5961 N   0  0  0  0  0  0  0  0  0  0  0  0
   22.4193   -5.1654  -14.9397 C   0  0  0  0  0  0  0  0  0  0  0  0
   22.2549   -4.0025  -15.3225 O   0  0  0  0  0  0  0  0  0  0  0  0
   22.4267   -6.2690  -15.9586 C   0  0  0  0  0  0  0  0  0  0  0  0
   22.5527   -7.6102  -15.2943 C   0  0  0  0  0  0  0  0  0  0  0  0
   22.5100   -8.7031  -16.2896 C   0  0  2  0  0  0  0  0  0  0  0  0
   23.8559   -9.2210  -16.5690 N   0  0  0  0  0  0  0  0  0  0  0  0
   21.8363   -8.3065  -17.5215 C   0  0  0  0  0  0  0  0  0  0  0  0
   22.4393   -7.9125  -18.5404 O   0  0  0  0  0  0  0  0  0  0  0  0
   20.3915   -8.3685  -17.5774 N   0  0  0  0  0  0  0  0  0  0  0  0
   19.7472   -8.0717  -18.8424 C   0  0  0  0  0  0  0  0  0  0  0  0
   19.5211   -6.6331  -19.0288 C   0  0  0  0  0  0  0  0  0  0  0  0
   18.9389   -6.0975  -20.1784 O   0  0  0  0  0  0  0  0  0  0  0  0
   19.8654   -5.8516  -18.1171 O   0  0  0  0  0  0  0  0  0  0  0  0
  2  1  1  0
  3  4  1  0
  3  2  1  0
  4  5  1  0
  5  1  1  0
  5  6  1  1
  7  6  2  0
  8  9  1  0
  9 11  1  0
 10  9  2  0
 11 12  1  0
 13 12  1  1
 13 14  1  0
 13 15  1  0
 14  6  1  0
 15 17  1  0
 16 15  2  0
 17 18  1  0
 18 19  1  0
 19 21  2  0
 19 20  1  0
M  END
$$$$
