PQG.pdb
     RDKit          3D

 21 21  0  0  1  0  0  0  0  0999 V2000
   21.6105  -10.3238  -15.5772 N   0  0  0  0  0  0  0  0  0  0  0  0
   22.1467  -11.6497  -15.8536 C   0  0  0  0  0  0  0  0  0  0  0  0
   21.0181  -12.4548  -16.4225 C   0  0  0  0  0  0  0  0  0  0  0  0
   19.9118  -11.5040  -16.7485 C   0  0  0  0  0  0  0  0  0  0  0  0
   20.4855  -10.1414  -16.4393 C   0  0  1  0  0  0  0  0  0  0  0  0
   19.4173   -9.3074  -15.8356 C   0  0  0  0  0  0  0  0  0  0  0  0
   18.4040   -9.0445  -16.5333 O   0  0  0  0  0  0  0  0  0  0  0  0
   16.8166   -9.6538  -10.4558 N   0  0  0  0  0  0  0  0  0  0  0  0
   16.2632  -10.0725  -11.6648 C   0  0  0  0  0  0  0  0  0  0  0  0
   15.3736  -10.9275  -11.7243 O   0  0  0  0  0  0  0  0  0  0  0  0
   16.7671   -9.4618  -12.9411 C   0  0  0  0  0  0  0  0  0  0  0  0
   17.9189   -8.5356  -12.6733 C   0  0  0  0  0  0  0  0  0  0  0  0
   18.4314   -7.9468  -13.9293 C   0  0  2  0  0  0  0  0  0  0  0  0
   19.4722   -8.7934  -14.5277 N   0  0  0  0  0  0  0  0  0  0  0  0
   18.9094   -6.5803  -13.7477 C   0  0  0  0  0  0  0  0  0  0  0  0
   18.1888   -5.6470  -13.3391 O   0  0  0  0  0  0  0  0  0  0  0  0
   20.2910   -6.2781  -14.0545 N   0  0  0  0  0  0  0  0  0  0  0  0
   20.7308   -4.9024  -13.9227 C   0  0  0  0  0  0  0  0  0  0  0  0
   22.1540   -4.7389  -14.2443 C   0  0  0  0  0  0  0  0  0  0  0  0
   22.8200   -3.5165  -14.1472 O   0  0  0  0  0  0  0  0  0  0  0  0
   22.7993   -5.7395  -14.6225 O   0  0  0  0  0  0  0  0  0  0  0  0
  2  1  1  0
  3  4  1  0
  3  2  1  0
  4  5  1  0
  5  1  1  0
  5  6  1  1
  7  6  2  0
  8  9  1  0
  9 11  1  0
 10  9  2  0
 11 12  1  0
 13 12  1  1
 13 14  1  0
 13 15  1  0
 14  6  1  0
 15 17  1  0
 16 15  2  0
 17 18  1  0
 18 19  1  0
 19 21  2  0
 19 20  1  0
M  END
$$$$
