PQG.pdb
     RDKit          3D

 21 21  0  0  1  0  0  0  0  0999 V2000
   19.7435  -10.1761  -14.7316 N   0  0  0  0  0  0  0  0  0  0  0  0
   19.6560  -11.6002  -15.0251 C   0  0  0  0  0  0  0  0  0  0  0  0
   18.2256  -11.8747  -15.3777 C   0  0  0  0  0  0  0  0  0  0  0  0
   17.5535  -10.5543  -15.5748 C   0  0  0  0  0  0  0  0  0  0  0  0
   18.6635   -9.5418  -15.4197 C   0  0  1  0  0  0  0  0  0  0  0  0
   18.1261   -8.3614  -14.6994 C   0  0  0  0  0  0  0  0  0  0  0  0
   17.2243   -7.6852  -15.2581 O   0  0  0  0  0  0  0  0  0  0  0  0
   16.1347   -8.0258   -9.0988 N   0  0  0  0  0  0  0  0  0  0  0  0
   16.0511   -6.6708   -9.4159 C   0  0  0  0  0  0  0  0  0  0  0  0
   15.4819   -5.8541   -8.6845 O   0  0  0  0  0  0  0  0  0  0  0  0
   16.6759   -6.1869  -10.6932 C   0  0  0  0  0  0  0  0  0  0  0  0
   17.3533   -7.3142  -11.4186 C   0  0  0  0  0  0  0  0  0  0  0  0
   17.9835   -6.8396  -12.6694 C   0  0  2  0  0  0  0  0  0  0  0  0
   18.5669   -7.9545  -13.4273 N   0  0  0  0  0  0  0  0  0  0  0  0
   18.9736   -5.7949  -12.4308 C   0  0  0  0  0  0  0  0  0  0  0  0
   18.6981   -4.6864  -11.9281 O   0  0  0  0  0  0  0  0  0  0  0  0
   20.3524   -6.0450  -12.7923 N   0  0  0  0  0  0  0  0  0  0  0  0
   21.3018   -4.9588  -12.6422 C   0  0  0  0  0  0  0  0  0  0  0  0
   21.4278   -4.1556  -13.8646 C   0  0  0  0  0  0  0  0  0  0  0  0
   22.2877   -3.0617  -13.9705 O   0  0  0  0  0  0  0  0  0  0  0  0
   20.7337   -4.4648  -14.8563 O   0  0  0  0  0  0  0  0  0  0  0  0
  2  1  1  0
  3  4  1  0
  3  2  1  0
  4  5  1  0
  5  1  1  0
  5  6  1  1
  7  6  2  0
  8  9  1  0
  9 11  1  0
 10  9  2  0
 11 12  1  0
 13 12  1  1
 13 14  1  0
 13 15  1  0
 14  6  1  0
 15 17  1  0
 16 15  2  0
 17 18  1  0
 18 19  1  0
 19 21  2  0
 19 20  1  0
M  END
$$$$
