PQG.pdb
     RDKit          3D

 21 21  0  0  1  0  0  0  0  0999 V2000
   26.8605  -19.0134  -15.1030 N   0  0  0  0  0  0  0  0  0  0  0  0
   28.2025  -18.5398  -15.4137 C   0  0  0  0  0  0  0  0  0  0  0  0
   29.1381  -19.6602  -15.0745 C   0  0  0  0  0  0  0  0  0  0  0  0
   28.3073  -20.8821  -14.8484 C   0  0  0  0  0  0  0  0  0  0  0  0
   26.8978  -20.4406  -15.1642 C   0  0  1  0  0  0  0  0  0  0  0  0
   25.9747  -21.0899  -14.2012 C   0  0  0  0  0  0  0  0  0  0  0  0
   25.8761  -22.3438  -14.2269 O   0  0  0  0  0  0  0  0  0  0  0  0
   25.6103  -19.9512   -8.3887 N   0  0  0  0  0  0  0  0  0  0  0  0
   26.5982  -20.4207   -9.2529 C   0  0  0  0  0  0  0  0  0  0  0  0
   27.7886  -20.4784   -8.9280 O   0  0  0  0  0  0  0  0  0  0  0  0
   26.2005  -20.8725  -10.6290 C   0  0  0  0  0  0  0  0  0  0  0  0
   24.7448  -20.6021  -10.8815 C   0  0  0  0  0  0  0  0  0  0  0  0
   24.3544  -21.0211  -12.2449 C   0  0  2  0  0  0  0  0  0  0  0  0
   25.2031  -20.3842  -13.2607 N   0  0  0  0  0  0  0  0  0  0  0  0
   22.9416  -20.7788  -12.5173 C   0  0  0  0  0  0  0  0  0  0  0  0
   22.0194  -21.1723  -11.7745 O   0  0  0  0  0  0  0  0  0  0  0  0
   22.5773  -20.0442  -13.7098 N   0  0  0  0  0  0  0  0  0  0  0  0
   21.1762  -19.7283  -13.9115 C   0  0  0  0  0  0  0  0  0  0  0  0
   20.4850  -20.7461  -14.7125 C   0  0  0  0  0  0  0  0  0  0  0  0
   19.1560  -20.6204  -15.1192 O   0  0  0  0  0  0  0  0  0  0  0  0
   21.1145  -21.7723  -15.0460 O   0  0  0  0  0  0  0  0  0  0  0  0
  2  1  1  0
  3  4  1  0
  3  2  1  0
  4  5  1  0
  5  1  1  0
  5  6  1  1
  7  6  2  0
  8  9  1  0
  9 11  1  0
 10  9  2  0
 11 12  1  0
 13 12  1  1
 13 14  1  0
 13 15  1  0
 14  6  1  0
 15 17  1  0
 16 15  2  0
 17 18  1  0
 18 19  1  0
 19 21  2  0
 19 20  1  0
M  END
$$$$
