PQG.pdb
     RDKit          3D

 21 21  0  0  1  0  0  0  0  0999 V2000
   26.0967  -17.2941  -15.7606 N   0  0  0  0  0  0  0  0  0  0  0  0
   27.1211  -16.3161  -16.1015 C   0  0  0  0  0  0  0  0  0  0  0  0
   28.4398  -17.0126  -15.9547 C   0  0  0  0  0  0  0  0  0  0  0  0
   28.1593  -18.4743  -15.8168 C   0  0  0  0  0  0  0  0  0  0  0  0
   26.6628  -18.5864  -15.9875 C   0  0  1  0  0  0  0  0  0  0  0  0
   26.1581  -19.6173  -15.0474 C   0  0  0  0  0  0  0  0  0  0  0  0
   26.4875  -20.8149  -15.2473 O   0  0  0  0  0  0  0  0  0  0  0  0
   26.2076  -19.6327   -9.0681 N   0  0  0  0  0  0  0  0  0  0  0  0
   25.4703  -20.7991   -9.2668 C   0  0  0  0  0  0  0  0  0  0  0  0
   25.2048  -21.5788   -8.3462 O   0  0  0  0  0  0  0  0  0  0  0  0
   24.9812  -21.1188  -10.6504 C   0  0  0  0  0  0  0  0  0  0  0  0
   25.3426  -20.0236  -11.6125 C   0  0  0  0  0  0  0  0  0  0  0  0
   24.8709  -20.3380  -12.9784 C   0  0  2  0  0  0  0  0  0  0  0  0
   25.3324  -19.3328  -13.9451 N   0  0  0  0  0  0  0  0  0  0  0  0
   23.4222  -20.4987  -13.0425 C   0  0  0  0  0  0  0  0  0  0  0  0
   22.7941  -21.3539  -12.3859 O   0  0  0  0  0  0  0  0  0  0  0  0
   22.6614  -19.6257  -13.9105 N   0  0  0  0  0  0  0  0  0  0  0  0
   21.2193  -19.7784  -13.9327 C   0  0  0  0  0  0  0  0  0  0  0  0
   20.7679  -20.6514  -15.0234 C   0  0  0  0  0  0  0  0  0  0  0  0
   19.4939  -20.5679  -15.5866 O   0  0  0  0  0  0  0  0  0  0  0  0
   21.5600  -21.5088  -15.4685 O   0  0  0  0  0  0  0  0  0  0  0  0
  2  1  1  0
  3  4  1  0
  3  2  1  0
  4  5  1  0
  5  1  1  0
  5  6  1  1
  7  6  2  0
  8  9  1  0
  9 11  1  0
 10  9  2  0
 11 12  1  0
 13 12  1  1
 13 14  1  0
 13 15  1  0
 14  6  1  0
 15 17  1  0
 16 15  2  0
 17 18  1  0
 18 19  1  0
 19 21  2  0
 19 20  1  0
M  END
$$$$
