PQG.pdb
     RDKit          3D

 21 21  0  0  1  0  0  0  0  0999 V2000
   22.7821  -10.1878  -14.8776 N   0  0  0  0  0  0  0  0  0  0  0  0
   22.9673  -11.6264  -15.0124 C   0  0  0  0  0  0  0  0  0  0  0  0
   21.6471  -12.1862  -15.4475 C   0  0  0  0  0  0  0  0  0  0  0  0
   20.7843  -11.0337  -15.8488 C   0  0  0  0  0  0  0  0  0  0  0  0
   21.6853   -9.8283  -15.7200 C   0  0  1  0  0  0  0  0  0  0  0  0
   20.8857   -8.6984  -15.1860 C   0  0  0  0  0  0  0  0  0  0  0  0
   19.9396   -8.2569  -15.8879 O   0  0  0  0  0  0  0  0  0  0  0  0
   18.0531   -7.5929   -9.9411 N   0  0  0  0  0  0  0  0  0  0  0  0
   17.4950   -8.0639  -11.1286 C   0  0  0  0  0  0  0  0  0  0  0  0
   16.4003   -8.6350  -11.1643 O   0  0  0  0  0  0  0  0  0  0  0  0
   18.2525   -7.8695  -12.4109 C   0  0  0  0  0  0  0  0  0  0  0  0
   19.6482   -7.3851  -12.1401 C   0  0  0  0  0  0  0  0  0  0  0  0
   20.3258   -6.9871  -13.3929 C   0  0  2  0  0  0  0  0  0  0  0  0
   21.1246   -8.0920  -13.9398 N   0  0  0  0  0  0  0  0  0  0  0  0
   21.1381   -5.7864  -13.2279 C   0  0  0  0  0  0  0  0  0  0  0  0
   22.2604   -5.7835  -12.6825 O   0  0  0  0  0  0  0  0  0  0  0  0
   20.6259   -4.5250  -13.7185 N   0  0  0  0  0  0  0  0  0  0  0  0
   21.4152   -3.3320  -13.4790 C   0  0  0  0  0  0  0  0  0  0  0  0
   20.8442   -2.1460  -14.1293 C   0  0  0  0  0  0  0  0  0  0  0  0
   21.3178   -0.8529  -13.9037 O   0  0  0  0  0  0  0  0  0  0  0  0
   19.8905   -2.3004  -14.9213 O   0  0  0  0  0  0  0  0  0  0  0  0
  2  1  1  0
  3  4  1  0
  3  2  1  0
  4  5  1  0
  5  1  1  0
  5  6  1  1
  7  6  2  0
  8  9  1  0
  9 11  1  0
 10  9  2  0
 11 12  1  0
 13 12  1  1
 13 14  1  0
 13 15  1  0
 14  6  1  0
 15 17  1  0
 16 15  2  0
 17 18  1  0
 18 19  1  0
 19 21  2  0
 19 20  1  0
M  END
$$$$
