SWM.pdb
     RDKit          3D

 29 30  0  0  1  0  0  0  0  0999 V2000
   12.8286  -18.5041   20.6269 O   0  0  0  0  0  0  0  0  0  0  0  0
   11.6617  -18.8835   19.9351 C   0  0  0  0  0  0  0  0  0  0  0  0
   10.9948  -17.5987   19.4851 C   0  0  2  0  0  0  0  0  0  0  0  0
   11.8164  -16.8758   18.5633 N   0  0  0  0  0  0  0  0  0  0  0  0
   10.6283  -16.7315   20.6085 C   0  0  0  0  0  0  0  0  0  0  0  0
   11.2656  -15.6780   20.8710 O   0  0  0  0  0  0  0  0  0  0  0  0
    9.5419  -17.0557   21.4338 N   0  0  0  0  0  0  0  0  0  0  0  0
    9.1046  -16.2743   22.5846 C   0  0  1  0  0  0  0  0  0  0  0  0
    7.6422  -16.3387   22.7765 C   0  0  0  0  0  0  0  0  0  0  0  0
    7.0742  -15.6305   23.9424 C   0  0  0  0  0  0  0  0  0  0  0  0
    6.4605  -16.2287   25.0520 C   0  0  0  0  0  0  0  0  0  0  0  0
    6.0341  -15.2933   25.8973 N   0  0  0  0  0  0  0  0  0  0  0  0
    6.3418  -14.0902   25.3930 C   0  0  0  0  0  0  0  0  0  0  0  0
    6.1326  -12.8031   25.8891 C   0  0  0  0  0  0  0  0  0  0  0  0
    6.5677  -11.6967   25.1794 C   0  0  0  0  0  0  0  0  0  0  0  0
    7.2167  -11.8962   23.9635 C   0  0  0  0  0  0  0  0  0  0  0  0
    7.4215  -13.1667   23.4751 C   0  0  0  0  0  0  0  0  0  0  0  0
    6.9818  -14.2640   24.1926 C   0  0  0  0  0  0  0  0  0  0  0  0
    9.9437  -16.6319   23.7276 C   0  0  0  0  0  0  0  0  0  0  0  0
   10.5967  -17.7006   23.7061 O   0  0  0  0  0  0  0  0  0  0  0  0
   10.2950  -13.1162   29.6317 C   0  0  0  0  0  0  0  0  0  0  0  0
   11.3455  -14.5275   29.7333 S   0  0  0  0  0  0  0  0  0  0  0  0
   11.3216  -15.7001   28.3970 C   0  0  0  0  0  0  0  0  0  0  0  0
   10.7373  -15.2116   27.1102 C   0  0  0  0  0  0  0  0  0  0  0  0
   10.8119  -16.2239   26.0301 C   0  0  2  0  0  0  0  0  0  0  0  0
   10.0350  -15.7992   24.8574 N   0  0  0  0  0  0  0  0  0  0  0  0
   10.3448  -17.5679   26.3789 C   0  0  0  0  0  0  0  0  0  0  0  0
    9.1252  -17.8497   26.2705 O   0  0  0  0  0  0  0  0  0  0  0  0
   11.1752  -18.5535   26.8249 O   0  0  0  0  0  0  0  0  0  0  0  0
  2  3  1  0
  2  1  1  0
  3  5  1  0
  3  4  1  6
  5  6  2  0
  7  8  1  0
  7  5  1  0
  8 19  1  0
  8  9  1  1
 10  9  1  0
 10 18  1  0
 11 12  1  0
 11 10  2  0
 12 13  1  0
 13 18  2  0
 13 14  1  0
 14 15  2  0
 15 16  1  0
 17 16  2  0
 18 17  1  0
 19 20  2  0
 22 23  1  0
 22 21  1  0
 23 24  1  0
 25 24  1  1
 25 27  1  0
 26 25  1  0
 26 19  1  0
 27 28  2  0
 27 29  1  0
M  END
$$$$
