SWM.pdb
     RDKit          3D

 29 30  0  0  1  0  0  0  0  0999 V2000
   13.2127  -18.2517   20.8388 O   0  0  0  0  0  0  0  0  0  0  0  0
   11.9817  -18.3613   20.1629 C   0  0  0  0  0  0  0  0  0  0  0  0
   11.5273  -16.9451   19.8701 C   0  0  2  0  0  0  0  0  0  0  0  0
   12.5705  -16.1733   19.2672 N   0  0  0  0  0  0  0  0  0  0  0  0
   11.0270  -16.2566   21.0633 C   0  0  0  0  0  0  0  0  0  0  0  0
   11.6769  -15.3332   21.6200 O   0  0  0  0  0  0  0  0  0  0  0  0
    9.7927  -16.6121   21.6260 N   0  0  0  0  0  0  0  0  0  0  0  0
    9.2326  -16.0365   22.8430 C   0  0  1  0  0  0  0  0  0  0  0  0
    7.7577  -15.9833   22.8046 C   0  0  0  0  0  0  0  0  0  0  0  0
    7.0669  -15.3479   23.9459 C   0  0  0  0  0  0  0  0  0  0  0  0
    6.2670  -16.0019   24.8936 C   0  0  0  0  0  0  0  0  0  0  0  0
    5.7751  -15.1211   25.7617 N   0  0  0  0  0  0  0  0  0  0  0  0
    6.2184  -13.9008   25.4288 C   0  0  0  0  0  0  0  0  0  0  0  0
    6.0109  -12.6535   26.0185 C   0  0  0  0  0  0  0  0  0  0  0  0
    6.6045  -11.5191   25.4912 C   0  0  0  0  0  0  0  0  0  0  0  0
    7.4105  -11.6501   24.3632 C   0  0  0  0  0  0  0  0  0  0  0  0
    7.6135  -12.8814   23.7822 C   0  0  0  0  0  0  0  0  0  0  0  0
    7.0147  -14.0071   24.3174 C   0  0  0  0  0  0  0  0  0  0  0  0
    9.8462  -16.7034   23.9906 C   0  0  0  0  0  0  0  0  0  0  0  0
   10.4021  -17.8153   23.8363 O   0  0  0  0  0  0  0  0  0  0  0  0
   10.3087  -14.2442   30.4536 C   0  0  0  0  0  0  0  0  0  0  0  0
   10.6264  -13.4920   28.8920 S   0  0  0  0  0  0  0  0  0  0  0  0
   10.8873  -14.5433   27.4820 C   0  0  0  0  0  0  0  0  0  0  0  0
   10.4167  -15.9553   27.6245 C   0  0  0  0  0  0  0  0  0  0  0  0
   10.5757  -16.7376   26.3757 C   0  0  2  0  0  0  0  0  0  0  0  0
    9.8267  -16.1224   25.2713 N   0  0  0  0  0  0  0  0  0  0  0  0
   10.1536  -18.1390   26.4399 C   0  0  0  0  0  0  0  0  0  0  0  0
    8.9794  -18.4498   26.1187 O   0  0  0  0  0  0  0  0  0  0  0  0
   10.9794  -19.1490   26.8373 O   0  0  0  0  0  0  0  0  0  0  0  0
  2  3  1  0
  2  1  1  0
  3  5  1  0
  3  4  1  1
  5  6  2  0
  7  8  1  0
  7  5  1  0
  8 19  1  0
  8  9  1  6
 10  9  1  0
 10 18  1  0
 11 12  1  0
 11 10  2  0
 12 13  1  0
 13 18  2  0
 13 14  1  0
 14 15  2  0
 15 16  1  0
 17 16  2  0
 18 17  1  0
 19 20  2  0
 22 23  1  0
 22 21  1  0
 23 24  1  0
 25 24  1  1
 25 27  1  0
 26 25  1  0
 26 19  1  0
 27 28  2  0
 27 29  1  0
M  END
$$$$
