SWM.pdb
     RDKit          3D

 29 30  0  0  1  0  0  0  0  0999 V2000
    9.6173  -20.6763   21.3441 O   0  0  0  0  0  0  0  0  0  0  0  0
   10.2270  -20.4255   20.0993 C   0  0  0  0  0  0  0  0  0  0  0  0
    9.5884  -19.1619   19.5576 C   0  0  2  0  0  0  0  0  0  0  0  0
   10.0318  -18.8786   18.2270 N   0  0  0  0  0  0  0  0  0  0  0  0
    9.8246  -17.9987   20.4174 C   0  0  0  0  0  0  0  0  0  0  0  0
   10.8942  -17.3370   20.3622 O   0  0  0  0  0  0  0  0  0  0  0  0
    8.8518  -17.5844   21.3385 N   0  0  0  0  0  0  0  0  0  0  0  0
    8.9597  -16.4100   22.1962 C   0  0  1  0  0  0  0  0  0  0  0  0
    7.7155  -15.6155   22.2092 C   0  0  0  0  0  0  0  0  0  0  0  0
    7.7559  -14.2936   22.8683 C   0  0  0  0  0  0  0  0  0  0  0  0
    8.3744  -13.1400   22.3657 C   0  0  0  0  0  0  0  0  0  0  0  0
    8.2463  -12.1386   23.2328 N   0  0  0  0  0  0  0  0  0  0  0  0
    7.5630  -12.5810   24.2977 C   0  0  0  0  0  0  0  0  0  0  0  0
    7.1526  -11.9322   25.4627 C   0  0  0  0  0  0  0  0  0  0  0  0
    6.4262  -12.6108   26.4266 C   0  0  0  0  0  0  0  0  0  0  0  0
    6.1152  -13.9506   26.2084 C   0  0  0  0  0  0  0  0  0  0  0  0
    6.5216  -14.5893   25.0588 C   0  0  0  0  0  0  0  0  0  0  0  0
    7.2473  -13.9014   24.1035 C   0  0  0  0  0  0  0  0  0  0  0  0
    9.4939  -16.8342   23.4897 C   0  0  0  0  0  0  0  0  0  0  0  0
    8.8711  -17.6827   24.1687 O   0  0  0  0  0  0  0  0  0  0  0  0
   11.2540  -13.1973   29.2288 C   0  0  0  0  0  0  0  0  0  0  0  0
    9.8559  -13.8682   28.3917 S   0  0  0  0  0  0  0  0  0  0  0  0
   10.0195  -15.4540   27.6044 C   0  0  0  0  0  0  0  0  0  0  0  0
    9.8694  -15.4629   26.1167 C   0  0  0  0  0  0  0  0  0  0  0  0
   10.9312  -16.2464   25.4417 C   0  0  2  0  0  0  0  0  0  0  0  0
   10.6976  -16.3084   23.9923 N   0  0  0  0  0  0  0  0  0  0  0  0
   11.0965  -17.6281   25.8998 C   0  0  0  0  0  0  0  0  0  0  0  0
   12.2401  -18.0489   26.2058 O   0  0  0  0  0  0  0  0  0  0  0  0
   10.0580  -18.5045   26.0157 O   0  0  0  0  0  0  0  0  0  0  0  0
  2  3  1  0
  2  1  1  0
  3  5  1  0
  3  4  1  6
  5  6  2  0
  7  8  1  0
  7  5  1  0
  8 19  1  0
  8  9  1  1
 10  9  1  0
 10 18  1  0
 11 12  1  0
 11 10  2  0
 12 13  1  0
 13 18  2  0
 13 14  1  0
 14 15  2  0
 15 16  1  0
 17 16  2  0
 18 17  1  0
 19 20  2  0
 22 23  1  0
 22 21  1  0
 23 24  1  0
 25 24  1  1
 25 27  1  0
 26 25  1  0
 26 19  1  0
 27 28  2  0
 27 29  1  0
M  END
$$$$
