SWM.pdb
     RDKit          3D

 29 30  0  0  1  0  0  0  0  0999 V2000
   12.4752  -18.8234   20.5214 O   0  0  0  0  0  0  0  0  0  0  0  0
   11.2189  -18.8790   19.8868 C   0  0  0  0  0  0  0  0  0  0  0  0
   10.8694  -17.4541   19.5052 C   0  0  2  0  0  0  0  0  0  0  0  0
   11.9108  -16.8467   18.7346 N   0  0  0  0  0  0  0  0  0  0  0  0
   10.5624  -16.6188   20.6698 C   0  0  0  0  0  0  0  0  0  0  0  0
   11.3642  -15.7445   21.0912 O   0  0  0  0  0  0  0  0  0  0  0  0
    9.3495  -16.7723   21.3566 N   0  0  0  0  0  0  0  0  0  0  0  0
    8.9995  -16.0896   22.5967 C   0  0  1  0  0  0  0  0  0  0  0  0
    7.5678  -16.2357   22.9262 C   0  0  0  0  0  0  0  0  0  0  0  0
    7.0794  -15.5790   24.1565 C   0  0  0  0  0  0  0  0  0  0  0  0
    6.4871  -16.2198   25.2540 C   0  0  0  0  0  0  0  0  0  0  0  0
    6.1366  -15.3223   26.1721 N   0  0  0  0  0  0  0  0  0  0  0  0
    6.4742  -14.1036   25.7282 C   0  0  0  0  0  0  0  0  0  0  0  0
    6.3409  -12.8424   26.3098 C   0  0  0  0  0  0  0  0  0  0  0  0
    6.7931  -11.7124   25.6496 C   0  0  0  0  0  0  0  0  0  0  0  0
    7.3820  -11.8619   24.3965 C   0  0  0  0  0  0  0  0  0  0  0  0
    7.5120  -13.1068   23.8239 C   0  0  0  0  0  0  0  0  0  0  0  0
    7.0559  -14.2281   24.4925 C   0  0  0  0  0  0  0  0  0  0  0  0
    9.9636  -16.4814   23.6240 C   0  0  0  0  0  0  0  0  0  0  0  0
   11.1880  -16.4735   23.3595 O   0  0  0  0  0  0  0  0  0  0  0  0
   10.5274  -14.1832   30.1290 C   0  0  0  0  0  0  0  0  0  0  0  0
   10.6010  -13.7633   28.4191 S   0  0  0  0  0  0  0  0  0  0  0  0
    9.9759  -14.9300   27.2319 C   0  0  0  0  0  0  0  0  0  0  0  0
   11.0058  -15.6784   26.4475 C   0  0  0  0  0  0  0  0  0  0  0  0
   10.5249  -17.0061   25.9971 C   0  0  2  0  0  0  0  0  0  0  0  0
    9.5460  -16.8693   24.9097 N   0  0  0  0  0  0  0  0  0  0  0  0
    9.8977  -17.8420   27.0238 C   0  0  0  0  0  0  0  0  0  0  0  0
    8.6599  -18.0534   26.9825 O   0  0  0  0  0  0  0  0  0  0  0  0
   10.5947  -18.4169   28.0453 O   0  0  0  0  0  0  0  0  0  0  0  0
  2  3  1  0
  2  1  1  0
  3  5  1  0
  3  4  1  1
  5  6  2  0
  7  8  1  0
  7  5  1  0
  8 19  1  0
  8  9  1  1
 10  9  1  0
 10 18  1  0
 11 12  1  0
 11 10  2  0
 12 13  1  0
 13 18  2  0
 13 14  1  0
 14 15  2  0
 15 16  1  0
 17 16  2  0
 18 17  1  0
 19 20  2  0
 22 23  1  0
 22 21  1  0
 23 24  1  0
 25 24  1  1
 25 27  1  0
 26 25  1  0
 26 19  1  0
 27 28  2  0
 27 29  1  0
M  END
$$$$
