SWM.pdb
     RDKit          3D

 29 30  0  0  1  0  0  0  0  0999 V2000
   12.8086  -18.3313   20.3887 O   0  0  0  0  0  0  0  0  0  0  0  0
   11.5876  -18.6793   19.7785 C   0  0  0  0  0  0  0  0  0  0  0  0
   10.9333  -17.3779   19.3589 C   0  0  2  0  0  0  0  0  0  0  0  0
   11.7681  -16.6350   18.4653 N   0  0  0  0  0  0  0  0  0  0  0  0
   10.5620  -16.5402   20.5029 C   0  0  0  0  0  0  0  0  0  0  0  0
   11.1962  -15.4923   20.7936 O   0  0  0  0  0  0  0  0  0  0  0  0
    9.4743  -16.8875   21.3169 N   0  0  0  0  0  0  0  0  0  0  0  0
    9.0166  -16.1225   22.4709 C   0  0  1  0  0  0  0  0  0  0  0  0
    7.5436  -16.0791   22.5598 C   0  0  0  0  0  0  0  0  0  0  0  0
    6.9497  -15.4881   23.7770 C   0  0  0  0  0  0  0  0  0  0  0  0
    6.3160  -16.1920   24.8107 C   0  0  0  0  0  0  0  0  0  0  0  0
    5.8693  -15.3437   25.7338 N   0  0  0  0  0  0  0  0  0  0  0  0
    6.1826  -14.0968   25.3547 C   0  0  0  0  0  0  0  0  0  0  0  0
    5.9587  -12.8643   25.9688 C   0  0  0  0  0  0  0  0  0  0  0  0
    6.4040  -11.6936   25.3785 C   0  0  0  0  0  0  0  0  0  0  0  0
    7.0780  -11.7732   24.1624 C   0  0  0  0  0  0  0  0  0  0  0  0
    7.2973  -12.9901   23.5576 C   0  0  0  0  0  0  0  0  0  0  0  0
    6.8472  -14.1525   24.1564 C   0  0  0  0  0  0  0  0  0  0  0  0
    9.7424  -16.5927   23.6501 C   0  0  0  0  0  0  0  0  0  0  0  0
   10.4439  -17.6276   23.5737 O   0  0  0  0  0  0  0  0  0  0  0  0
   10.7101  -12.9213   29.3405 C   0  0  0  0  0  0  0  0  0  0  0  0
   11.3186  -14.5501   29.6273 S   0  0  0  0  0  0  0  0  0  0  0  0
   11.2631  -15.7232   28.2923 C   0  0  0  0  0  0  0  0  0  0  0  0
   10.4443  -15.3243   27.1064 C   0  0  0  0  0  0  0  0  0  0  0  0
   10.5229  -16.3101   26.0023 C   0  0  2  0  0  0  0  0  0  0  0  0
    9.6707  -15.9061   24.8755 N   0  0  0  0  0  0  0  0  0  0  0  0
   10.1454  -17.6841   26.3427 C   0  0  0  0  0  0  0  0  0  0  0  0
    8.9321  -18.0101   26.3561 O   0  0  0  0  0  0  0  0  0  0  0  0
   11.0545  -18.6519   26.6534 O   0  0  0  0  0  0  0  0  0  0  0  0
  2  3  1  0
  2  1  1  0
  3  5  1  0
  3  4  1  6
  5  6  2  0
  7  8  1  0
  7  5  1  0
  8 19  1  0
  8  9  1  1
 10  9  1  0
 10 18  1  0
 11 12  1  0
 11 10  2  0
 12 13  1  0
 13 18  2  0
 13 14  1  0
 14 15  2  0
 15 16  1  0
 17 16  2  0
 18 17  1  0
 19 20  2  0
 22 23  1  0
 22 21  1  0
 23 24  1  0
 25 24  1  1
 25 27  1  0
 26 25  1  0
 26 19  1  0
 27 28  2  0
 27 29  1  0
M  END
$$$$
