SWM.pdb
     RDKit          3D

 29 30  0  0  1  0  0  0  0  0999 V2000
   11.0802  -17.4057   18.9271 O   0  0  0  0  0  0  0  0  0  0  0  0
    9.8623  -18.1059   19.0306 C   0  0  0  0  0  0  0  0  0  0  0  0
    8.7875  -17.0621   19.2609 C   0  0  2  0  0  0  0  0  0  0  0  0
    8.7529  -16.1015   18.2010 N   0  0  0  0  0  0  0  0  0  0  0  0
    8.9359  -16.3760   20.5476 C   0  0  0  0  0  0  0  0  0  0  0  0
    9.5039  -15.2565   20.6428 O   0  0  0  0  0  0  0  0  0  0  0  0
    8.4420  -16.9556   21.7251 N   0  0  0  0  0  0  0  0  0  0  0  0
    8.6388  -16.4190   23.0667 C   0  0  1  0  0  0  0  0  0  0  0  0
    7.4828  -16.6839   23.9459 C   0  0  0  0  0  0  0  0  0  0  0  0
    6.9832  -15.5659   24.7730 C   0  0  0  0  0  0  0  0  0  0  0  0
    6.1096  -15.6737   25.8644 C   0  0  0  0  0  0  0  0  0  0  0  0
    5.8422  -14.4662   26.3560 N   0  0  0  0  0  0  0  0  0  0  0  0
    6.5067  -13.5542   25.6327 C   0  0  0  0  0  0  0  0  0  0  0  0
    6.5792  -12.1654   25.7446 C   0  0  0  0  0  0  0  0  0  0  0  0
    7.3652  -11.4301   24.8736 C   0  0  0  0  0  0  0  0  0  0  0  0
    8.0795  -12.1049   23.8868 C   0  0  0  0  0  0  0  0  0  0  0  0
    8.0061  -13.4751   23.7774 C   0  0  0  0  0  0  0  0  0  0  0  0
    7.2171  -14.1987   24.6527 C   0  0  0  0  0  0  0  0  0  0  0  0
    9.9524  -16.8485   23.5444 C   0  0  0  0  0  0  0  0  0  0  0  0
   10.2294  -18.0695   23.5806 O   0  0  0  0  0  0  0  0  0  0  0  0
    9.4212  -13.5369   28.6444 C   0  0  0  0  0  0  0  0  0  0  0  0
   10.7221  -14.6651   29.0192 S   0  0  0  0  0  0  0  0  0  0  0  0
   11.4702  -15.5703   27.6842 C   0  0  0  0  0  0  0  0  0  0  0  0
   10.8440  -15.3860   26.3389 C   0  0  0  0  0  0  0  0  0  0  0  0
   11.5893  -16.0823   25.2635 C   0  0  2  0  0  0  0  0  0  0  0  0
   10.9179  -15.9172   23.9670 N   0  0  0  0  0  0  0  0  0  0  0  0
   11.7902  -17.5212   25.4520 C   0  0  0  0  0  0  0  0  0  0  0  0
   12.8537  -17.9370   25.9760 O   0  0  0  0  0  0  0  0  0  0  0  0
   10.8694  -18.4572   25.0833 O   0  0  0  0  0  0  0  0  0  0  0  0
  2  3  1  0
  2  1  1  0
  3  5  1  0
  3  4  1  6
  5  6  2  0
  7  8  1  0
  7  5  1  0
  8 19  1  0
  8  9  1  1
 10  9  1  0
 10 18  1  0
 11 12  1  0
 11 10  2  0
 12 13  1  0
 13 18  2  0
 13 14  1  0
 14 15  2  0
 15 16  1  0
 17 16  2  0
 18 17  1  0
 19 20  2  0
 22 23  1  0
 22 21  1  0
 23 24  1  0
 25 24  1  1
 25 27  1  0
 26 25  1  0
 26 19  1  0
 27 28  2  0
 27 29  1  0
M  END
$$$$
