SWM.pdb
     RDKit          3D

 29 30  0  0  1  0  0  0  0  0999 V2000
   11.9616  -19.0212   20.7937 O   0  0  0  0  0  0  0  0  0  0  0  0
   12.0561  -18.1178   19.7170 C   0  0  0  0  0  0  0  0  0  0  0  0
   10.6628  -17.5603   19.5033 C   0  0  2  0  0  0  0  0  0  0  0  0
   10.5732  -16.8269   18.2780 N   0  0  0  0  0  0  0  0  0  0  0  0
   10.2156  -16.7202   20.6181 C   0  0  0  0  0  0  0  0  0  0  0  0
   10.5438  -15.5084   20.7110 O   0  0  0  0  0  0  0  0  0  0  0  0
    9.3979  -17.2505   21.6263 N   0  0  0  0  0  0  0  0  0  0  0  0
    8.9091  -16.5082   22.7823 C   0  0  1  0  0  0  0  0  0  0  0  0
    7.4963  -16.8144   23.0822 C   0  0  0  0  0  0  0  0  0  0  0  0
    6.7811  -15.9066   24.0029 C   0  0  0  0  0  0  0  0  0  0  0  0
    5.5955  -16.1977   24.6925 C   0  0  0  0  0  0  0  0  0  0  0  0
    5.2117  -15.1421   25.4065 N   0  0  0  0  0  0  0  0  0  0  0  0
    6.0991  -14.1552   25.2198 C   0  0  0  0  0  0  0  0  0  0  0  0
    6.1655  -12.8650   25.7467 C   0  0  0  0  0  0  0  0  0  0  0  0
    7.2117  -12.0220   25.4121 C   0  0  0  0  0  0  0  0  0  0  0  0
    8.1931  -12.4886   24.5412 C   0  0  0  0  0  0  0  0  0  0  0  0
    8.1256  -13.7616   24.0218 C   0  0  0  0  0  0  0  0  0  0  0  0
    7.0754  -14.5942   24.3626 C   0  0  0  0  0  0  0  0  0  0  0  0
    9.8720  -16.6684   23.8711 C   0  0  0  0  0  0  0  0  0  0  0  0
   10.9174  -17.3316   23.6807 O   0  0  0  0  0  0  0  0  0  0  0  0
   10.8774  -14.4310   31.1731 C   0  0  0  0  0  0  0  0  0  0  0  0
   11.1526  -13.7893   29.5550 S   0  0  0  0  0  0  0  0  0  0  0  0
   11.4657  -14.9339   28.2309 C   0  0  0  0  0  0  0  0  0  0  0  0
   10.4370  -14.9750   27.1465 C   0  0  0  0  0  0  0  0  0  0  0  0
   10.7524  -15.9759   26.0998 C   0  0  2  0  0  0  0  0  0  0  0  0
    9.6504  -16.0921   25.1347 N   0  0  0  0  0  0  0  0  0  0  0  0
   11.0383  -17.3317   26.5758 C   0  0  0  0  0  0  0  0  0  0  0  0
   12.2303  -17.7119   26.6898 O   0  0  0  0  0  0  0  0  0  0  0  0
   10.0640  -18.2257   26.9095 O   0  0  0  0  0  0  0  0  0  0  0  0
  2  3  1  0
  2  1  1  0
  3  5  1  0
  3  4  1  6
  5  6  2  0
  7  8  1  0
  7  5  1  0
  8 19  1  0
  8  9  1  1
 10  9  1  0
 10 18  1  0
 11 12  1  0
 11 10  2  0
 12 13  1  0
 13 18  2  0
 13 14  1  0
 14 15  2  0
 15 16  1  0
 17 16  2  0
 18 17  1  0
 19 20  2  0
 22 23  1  0
 22 21  1  0
 23 24  1  0
 25 24  1  1
 25 27  1  0
 26 25  1  0
 26 19  1  0
 27 28  2  0
 27 29  1  0
M  END
$$$$
