QQN.pdb
     RDKit          3D

 27 26  0  0  1  0  0  0  0  0999 V2000
   26.6242  -17.4350  -14.2258 N   0  0  0  0  0  0  0  0  0  0  0  0
   26.9010  -17.1550  -15.6079 C   0  0  0  0  0  0  0  0  0  0  0  0
   28.0907  -17.1097  -15.9399 O   0  0  0  0  0  0  0  0  0  0  0  0
   25.7866  -16.9353  -16.5446 C   0  0  0  0  0  0  0  0  0  0  0  0
   24.4379  -17.2155  -15.9782 C   0  0  0  0  0  0  0  0  0  0  0  0
   23.3417  -17.0270  -16.9788 C   0  0  2  0  0  0  0  0  0  0  0  0
   23.6373  -17.4894  -18.2949 N   0  0  0  0  0  0  0  0  0  0  0  0
   23.0097  -15.5606  -17.0620 C   0  0  0  0  0  0  0  0  0  0  0  0
   23.6484  -14.8291  -17.8496 O   0  0  0  0  0  0  0  0  0  0  0  0
   17.7494  -12.8436  -14.7880 N   0  0  0  0  0  0  0  0  0  0  0  0
   18.4941  -11.7418  -15.2805 C   0  0  0  0  0  0  0  0  0  0  0  0
   17.9844  -10.6054  -15.2649 O   0  0  0  0  0  0  0  0  0  0  0  0
   19.8776  -11.9010  -15.8202 C   0  0  0  0  0  0  0  0  0  0  0  0
   20.2714  -13.3500  -15.8153 C   0  0  0  0  0  0  0  0  0  0  0  0
   21.6810  -13.5710  -16.3026 C   0  0  2  0  0  0  0  0  0  0  0  0
   21.9792  -15.0052  -16.2545 N   0  0  0  0  0  0  0  0  0  0  0  0
   22.6997  -12.7898  -15.5920 C   0  0  0  0  0  0  0  0  0  0  0  0
   23.4232  -13.2155  -14.6669 O   0  0  0  0  0  0  0  0  0  0  0  0
   26.3287   -9.2416  -14.4134 N   0  0  0  0  0  0  0  0  0  0  0  0
   26.4927  -10.3633  -15.2718 C   0  0  0  0  0  0  0  0  0  0  0  0
   27.6964  -10.6484  -15.5626 O   0  0  0  0  0  0  0  0  0  0  0  0
   25.3774  -11.1765  -15.8170 C   0  0  0  0  0  0  0  0  0  0  0  0
   24.0314  -10.6571  -15.4673 C   0  0  2  0  0  0  0  0  0  0  0  0
   22.9296  -11.4222  -15.9426 N   0  0  0  0  0  0  0  0  0  0  0  0
   23.9348   -9.2166  -15.8183 C   0  0  0  0  0  0  0  0  0  0  0  0
   23.5083   -8.8484  -16.9401 O   0  0  0  0  0  0  0  0  0  0  0  0
   24.3151   -8.2458  -14.9108 O   0  0  0  0  0  0  0  0  0  0  0  0
  2  1  1  0
  2  4  1  0
  3  2  2  0
  5  6  1  0
  5  4  1  0
  6  8  1  0
  6  7  1  6
  8  9  2  0
  8 16  1  0
 10 11  1  0
 11 12  2  0
 13 14  1  0
 13 11  1  0
 15 14  1  1
 15 17  1  0
 16 15  1  0
 17 18  2  0
 20 19  1  0
 21 20  2  0
 22 20  1  0
 23 22  1  6
 24 23  1  0
 24 17  1  0
 25 27  1  0
 25 23  1  0
 26 25  2  0
M  END
$$$$
