QQN.pdb
     RDKit          3D

 27 26  0  0  1  0  0  0  0  0999 V2000
   15.8434  -12.6640  -14.1023 N   0  0  0  0  0  0  0  0  0  0  0  0
   16.3352  -13.2488  -15.3193 C   0  0  0  0  0  0  0  0  0  0  0  0
   15.8842  -14.3579  -15.6266 O   0  0  0  0  0  0  0  0  0  0  0  0
   17.3319  -12.5247  -16.1255 C   0  0  0  0  0  0  0  0  0  0  0  0
   17.7560  -11.2158  -15.5553 C   0  0  0  0  0  0  0  0  0  0  0  0
   18.7185  -10.4867  -16.4386 C   0  0  2  0  0  0  0  0  0  0  0  0
   19.9280  -11.1864  -16.7234 N   0  0  0  0  0  0  0  0  0  0  0  0
   19.0781   -9.1782  -15.7860 C   0  0  0  0  0  0  0  0  0  0  0  0
   18.2077   -8.5519  -15.1428 O   0  0  0  0  0  0  0  0  0  0  0  0
   21.7127   -6.3967  -12.5477 N   0  0  0  0  0  0  0  0  0  0  0  0
   22.3511   -5.4732  -13.4141 C   0  0  0  0  0  0  0  0  0  0  0  0
   22.7076   -4.3657  -12.9692 O   0  0  0  0  0  0  0  0  0  0  0  0
   22.6111   -5.7873  -14.8509 C   0  0  0  0  0  0  0  0  0  0  0  0
   22.1757   -7.1906  -15.1606 C   0  0  0  0  0  0  0  0  0  0  0  0
   20.6984   -7.2916  -15.4447 C   0  0  2  0  0  0  0  0  0  0  0  0
   20.3950   -8.6528  -15.8960 N   0  0  0  0  0  0  0  0  0  0  0  0
   20.1908   -6.2904  -16.3895 C   0  0  0  0  0  0  0  0  0  0  0  0
   20.4396   -6.2586  -17.6133 O   0  0  0  0  0  0  0  0  0  0  0  0
   15.6742   -2.9412  -18.4779 N   0  0  0  0  0  0  0  0  0  0  0  0
   17.0248   -3.2091  -18.1227 C   0  0  0  0  0  0  0  0  0  0  0  0
   17.8833   -2.4266  -18.6379 O   0  0  0  0  0  0  0  0  0  0  0  0
   17.4566   -4.3067  -17.2222 C   0  0  0  0  0  0  0  0  0  0  0  0
   18.8625   -4.1845  -16.7610 C   0  0  2  0  0  0  0  0  0  0  0  0
   19.3359   -5.2391  -15.9311 N   0  0  0  0  0  0  0  0  0  0  0  0
   19.0916   -2.8371  -16.1783 C   0  0  0  0  0  0  0  0  0  0  0  0
   19.4481   -2.6984  -14.9826 O   0  0  0  0  0  0  0  0  0  0  0  0
   18.9156   -1.7010  -16.9457 O   0  0  0  0  0  0  0  0  0  0  0  0
  2  1  1  0
  2  4  1  0
  3  2  2  0
  5  6  1  0
  5  4  1  0
  6  8  1  0
  6  7  1  1
  8  9  2  0
  8 16  1  0
 10 11  1  0
 11 12  2  0
 13 14  1  0
 13 11  1  0
 15 14  1  6
 15 17  1  0
 16 15  1  0
 17 18  2  0
 20 19  1  0
 21 20  2  0
 22 20  1  0
 23 22  1  1
 24 23  1  0
 24 17  1  0
 25 27  1  0
 25 23  1  0
 26 25  2  0
M  END
$$$$
