QQN.pdb
     RDKit          3D

 27 26  0  0  1  0  0  0  0  0999 V2000
   16.1751  -11.8755  -18.7385 N   0  0  0  0  0  0  0  0  0  0  0  0
   16.5934  -11.8737  -17.3637 C   0  0  0  0  0  0  0  0  0  0  0  0
   15.7115  -11.7108  -16.5131 O   0  0  0  0  0  0  0  0  0  0  0  0
   18.0167  -12.0566  -17.0344 C   0  0  0  0  0  0  0  0  0  0  0  0
   18.4066  -11.5677  -15.6826 C   0  0  0  0  0  0  0  0  0  0  0  0
   19.2111  -10.3074  -15.7351 C   0  0  2  0  0  0  0  0  0  0  0  0
   20.5046  -10.4388  -16.3209 N   0  0  0  0  0  0  0  0  0  0  0  0
   19.3838   -9.7851  -14.3333 C   0  0  0  0  0  0  0  0  0  0  0  0
   20.0805  -10.4285  -13.5186 O   0  0  0  0  0  0  0  0  0  0  0  0
   21.9889   -4.9776  -12.6503 N   0  0  0  0  0  0  0  0  0  0  0  0
   20.8477   -4.8104  -13.4754 C   0  0  0  0  0  0  0  0  0  0  0  0
   20.7551   -3.7940  -14.1895 O   0  0  0  0  0  0  0  0  0  0  0  0
   19.7471   -5.8191  -13.5160 C   0  0  0  0  0  0  0  0  0  0  0  0
   20.0998   -7.0043  -12.6641 C   0  0  0  0  0  0  0  0  0  0  0  0
   18.9881   -8.0204  -12.5926 C   0  0  2  0  0  0  0  0  0  0  0  0
   18.7624   -8.5703  -13.9324 N   0  0  0  0  0  0  0  0  0  0  0  0
   17.7413   -7.5174  -12.0050 C   0  0  0  0  0  0  0  0  0  0  0  0
   16.8168   -6.9617  -12.6353 O   0  0  0  0  0  0  0  0  0  0  0  0
   14.0352   -6.1093   -8.5395 N   0  0  0  0  0  0  0  0  0  0  0  0
   14.3425   -7.4976   -8.5429 C   0  0  0  0  0  0  0  0  0  0  0  0
   13.5044   -8.2370   -7.9383 O   0  0  0  0  0  0  0  0  0  0  0  0
   15.5385   -8.0936   -9.1886 C   0  0  0  0  0  0  0  0  0  0  0  0
   16.3666   -7.1133   -9.9351 C   0  0  2  0  0  0  0  0  0  0  0  0
   17.5071   -7.6451  -10.5997 N   0  0  0  0  0  0  0  0  0  0  0  0
   16.6877   -5.9519   -9.0660 C   0  0  0  0  0  0  0  0  0  0  0  0
   17.8482   -5.7743   -8.6213 O   0  0  0  0  0  0  0  0  0  0  0  0
   15.7088   -5.0370   -8.7267 O   0  0  0  0  0  0  0  0  0  0  0  0
  2  1  1  0
  2  4  1  0
  3  2  2  0
  5  6  1  0
  5  4  1  0
  6  8  1  0
  6  7  1  1
  8  9  2  0
  8 16  1  0
 10 11  1  0
 11 12  2  0
 13 14  1  0
 13 11  1  0
 15 14  1  6
 15 17  1  0
 16 15  1  0
 17 18  2  0
 20 19  1  0
 21 20  2  0
 22 20  1  0
 23 22  1  1
 24 23  1  0
 24 17  1  0
 25 27  1  0
 25 23  1  0
 26 25  2  0
M  END
$$$$
