QQN.pdb
     RDKit          3D

 27 26  0  0  1  0  0  0  0  0999 V2000
   21.5840  -21.4657  -10.6696 N   0  0  0  0  0  0  0  0  0  0  0  0
   21.8171  -20.9230   -9.3596 C   0  0  0  0  0  0  0  0  0  0  0  0
   21.0171  -21.2431   -8.4733 O   0  0  0  0  0  0  0  0  0  0  0  0
   22.9649  -20.0290   -9.1344 C   0  0  0  0  0  0  0  0  0  0  0  0
   23.7600  -19.7233  -10.3561 C   0  0  0  0  0  0  0  0  0  0  0  0
   24.8347  -20.7321  -10.6123 C   0  0  2  0  0  0  0  0  0  0  0  0
   25.9580  -20.6555   -9.7371 N   0  0  0  0  0  0  0  0  0  0  0  0
   25.3299  -20.5635  -12.0243 C   0  0  0  0  0  0  0  0  0  0  0  0
   25.8104  -19.4656  -12.3806 O   0  0  0  0  0  0  0  0  0  0  0  0
   27.0005  -25.0952  -16.0844 N   0  0  0  0  0  0  0  0  0  0  0  0
   27.2135  -23.8904  -16.8015 C   0  0  0  0  0  0  0  0  0  0  0  0
   27.7713  -23.9336  -17.9145 O   0  0  0  0  0  0  0  0  0  0  0  0
   26.7884  -22.5640  -16.2624 C   0  0  0  0  0  0  0  0  0  0  0  0
   26.1604  -22.7328  -14.9089 C   0  0  0  0  0  0  0  0  0  0  0  0
   25.6083  -21.4419  -14.3592 C   0  0  2  0  0  0  0  0  0  0  0  0
   25.2549  -21.6400  -12.9506 N   0  0  0  0  0  0  0  0  0  0  0  0
   24.4817  -20.8895  -15.1196 C   0  0  0  0  0  0  0  0  0  0  0  0
   23.2740  -21.0497  -14.8432 O   0  0  0  0  0  0  0  0  0  0  0  0
   21.6601  -18.1075  -18.5903 N   0  0  0  0  0  0  0  0  0  0  0  0
   22.5582  -17.3758  -17.7657 C   0  0  0  0  0  0  0  0  0  0  0  0
   22.3952  -16.1156  -17.7765 O   0  0  0  0  0  0  0  0  0  0  0  0
   23.6248  -17.9863  -16.9338 C   0  0  0  0  0  0  0  0  0  0  0  0
   23.6940  -19.4654  -17.0403 C   0  0  2  0  0  0  0  0  0  0  0  0
   24.7226  -20.0933  -16.2833 N   0  0  0  0  0  0  0  0  0  0  0  0
   23.6903  -19.8735  -18.4689 C   0  0  0  0  0  0  0  0  0  0  0  0
   24.7248  -19.7800  -19.1740 O   0  0  0  0  0  0  0  0  0  0  0  0
   22.5402  -20.3676  -19.0550 O   0  0  0  0  0  0  0  0  0  0  0  0
  2  1  1  0
  2  4  1  0
  3  2  2  0
  5  6  1  0
  5  4  1  0
  6  8  1  0
  6  7  1  1
  8  9  2  0
  8 16  1  0
 10 11  1  0
 11 12  2  0
 13 14  1  0
 13 11  1  0
 15 14  1  6
 15 17  1  0
 16 15  1  0
 17 18  2  0
 20 19  1  0
 21 20  2  0
 22 20  1  0
 23 22  1  6
 24 23  1  0
 24 17  1  0
 25 27  1  0
 25 23  1  0
 26 25  2  0
M  END
$$$$
