QQN.pdb
     RDKit          3D

 27 26  0  0  1  0  0  0  0  0999 V2000
   29.2171  -19.5227  -17.1142 N   0  0  0  0  0  0  0  0  0  0  0  0
   28.6843  -18.4586  -17.9197 C   0  0  0  0  0  0  0  0  0  0  0  0
   29.4744  -17.5743  -18.2684 O   0  0  0  0  0  0  0  0  0  0  0  0
   27.2574  -18.4632  -18.2826 C   0  0  0  0  0  0  0  0  0  0  0  0
   26.4910  -19.6303  -17.7642 C   0  0  0  0  0  0  0  0  0  0  0  0
   25.1469  -19.2467  -17.2307 C   0  0  2  0  0  0  0  0  0  0  0  0
   24.9888  -17.8624  -16.9271 N   0  0  0  0  0  0  0  0  0  0  0  0
   24.8824  -20.0339  -15.9746 C   0  0  0  0  0  0  0  0  0  0  0  0
   24.7496  -21.2753  -16.0432 O   0  0  0  0  0  0  0  0  0  0  0  0
   26.6470  -21.8373  -11.6391 N   0  0  0  0  0  0  0  0  0  0  0  0
   25.5755  -21.4722  -10.7848 C   0  0  0  0  0  0  0  0  0  0  0  0
   25.3322  -22.1676   -9.7804 O   0  0  0  0  0  0  0  0  0  0  0  0
   24.7247  -20.2742  -11.0521 C   0  0  0  0  0  0  0  0  0  0  0  0
   25.1419  -19.6196  -12.3374 C   0  0  0  0  0  0  0  0  0  0  0  0
   24.3488  -20.1084  -13.5230 C   0  0  2  0  0  0  0  0  0  0  0  0
   24.7832  -19.3775  -14.7170 N   0  0  0  0  0  0  0  0  0  0  0  0
   22.8933  -20.0358  -13.3527 C   0  0  0  0  0  0  0  0  0  0  0  0
   22.2308  -18.9842  -13.2275 O   0  0  0  0  0  0  0  0  0  0  0  0
   19.2841  -23.2230  -11.5961 N   0  0  0  0  0  0  0  0  0  0  0  0
   19.4854  -21.9021  -11.1098 C   0  0  0  0  0  0  0  0  0  0  0  0
   19.0293  -21.6811   -9.9445 O   0  0  0  0  0  0  0  0  0  0  0  0
   20.1702  -20.8226  -11.8635 C   0  0  0  0  0  0  0  0  0  0  0  0
   20.6974  -21.2550  -13.1822 C   0  0  2  0  0  0  0  0  0  0  0  0
   22.1137  -21.2347  -13.3198 N   0  0  0  0  0  0  0  0  0  0  0  0
   19.9958  -20.5305  -14.2732 C   0  0  0  0  0  0  0  0  0  0  0  0
   20.6317  -19.8512  -15.1159 O   0  0  0  0  0  0  0  0  0  0  0  0
   18.6192  -20.5898  -14.3835 O   0  0  0  0  0  0  0  0  0  0  0  0
  2  1  1  0
  2  4  1  0
  3  2  2  0
  5  6  1  0
  5  4  1  0
  6  8  1  0
  6  7  1  1
  8  9  2  0
  8 16  1  0
 10 11  1  0
 11 12  2  0
 13 14  1  0
 13 11  1  0
 15 14  1  1
 15 17  1  0
 16 15  1  0
 17 18  2  0
 20 19  1  0
 21 20  2  0
 22 20  1  0
 23 22  1  1
 24 23  1  0
 24 17  1  0
 25 27  1  0
 25 23  1  0
 26 25  2  0
M  END
$$$$
