QAW.pdb
     RDKit          3D

 29 30  0  0  1  0  0  0  0  0999 V2000
    7.4463  -14.8523   16.3437 N   0  0  0  0  0  0  0  0  0  0  0  0
    8.2718  -13.9138   16.9830 C   0  0  0  0  0  0  0  0  0  0  0  0
    7.8625  -12.7327   17.1217 O   0  0  0  0  0  0  0  0  0  0  0  0
    9.6085  -14.2506   17.5121 C   0  0  0  0  0  0  0  0  0  0  0  0
   10.0032  -15.6845   17.3405 C   0  0  0  0  0  0  0  0  0  0  0  0
   10.6536  -16.3145   18.5132 C   0  0  2  0  0  0  0  0  0  0  0  0
   11.0418  -17.7048   18.1485 N   0  0  0  0  0  0  0  0  0  0  0  0
    9.9145  -16.3601   19.7678 C   0  0  0  0  0  0  0  0  0  0  0  0
    9.7668  -15.3234   20.5039 O   0  0  0  0  0  0  0  0  0  0  0  0
    7.8684  -18.9115   21.5702 C   0  0  0  0  0  0  0  0  0  0  0  0
    8.5398  -17.5651   21.4573 C   0  0  2  0  0  0  0  0  0  0  0  0
    9.3200  -17.5610   20.2361 N   0  0  0  0  0  0  0  0  0  0  0  0
    9.4269  -17.2775   22.5986 C   0  0  0  0  0  0  0  0  0  0  0  0
   10.6628  -17.4829   22.5039 O   0  0  0  0  0  0  0  0  0  0  0  0
    8.9649  -16.7668   23.8398 N   0  0  0  0  0  0  0  0  0  0  0  0
    9.8842  -16.4872   24.9231 C   0  0  1  0  0  0  0  0  0  0  0  0
    9.7206  -14.9879   25.2135 C   0  0  0  0  0  0  0  0  0  0  0  0
    8.2842  -14.7735   25.5279 C   0  0  0  0  0  0  0  0  0  0  0  0
    7.2839  -15.7327   25.6452 C   0  0  0  0  0  0  0  0  0  0  0  0
    6.1339  -15.1081   25.9352 N   0  0  0  0  0  0  0  0  0  0  0  0
    6.3020  -13.7696   26.0214 C   0  0  0  0  0  0  0  0  0  0  0  0
    5.4398  -12.7202   26.2915 C   0  0  0  0  0  0  0  0  0  0  0  0
    5.9112  -11.4267   26.3126 C   0  0  0  0  0  0  0  0  0  0  0  0
    7.2497  -11.2172   26.0592 C   0  0  0  0  0  0  0  0  0  0  0  0
    8.1080  -12.2658   25.7898 C   0  0  0  0  0  0  0  0  0  0  0  0
    7.6455  -13.5679   25.7662 C   0  0  0  0  0  0  0  0  0  0  0  0
    9.5789  -17.2741   26.1314 C   0  0  0  0  0  0  0  0  0  0  0  0
   10.4879  -17.3055   27.1765 O   0  0  0  0  0  0  0  0  0  0  0  0
    8.5112  -17.9227   26.2438 O   0  0  0  0  0  0  0  0  0  0  0  0
  2  3  2  0
  2  1  1  0
  4  2  1  0
  5  6  1  0
  5  4  1  0
  6  7  1  6
  8 12  1  0
  8  6  1  0
  9  8  2  0
 11 10  1  1
 11 13  1  0
 11 12  1  0
 13 14  2  0
 15 16  1  0
 15 13  1  0
 16 17  1  1
 18 17  1  0
 19 18  2  0
 20 19  1  0
 21 20  1  0
 21 26  2  0
 22 23  2  0
 22 21  1  0
 23 24  1  0
 24 25  2  0
 26 25  1  0
 26 18  1  0
 27 16  1  0
 27 28  1  0
 29 27  2  0
M  END
$$$$
