QAW.pdb
     RDKit          3D

 29 30  0  0  1  0  0  0  0  0999 V2000
    3.9815  -21.1832   24.0967 N   0  0  0  0  0  0  0  0  0  0  0  0
    5.3560  -21.0341   24.3407 C   0  0  0  0  0  0  0  0  0  0  0  0
    5.7862  -21.1593   25.5159 O   0  0  0  0  0  0  0  0  0  0  0  0
    6.3327  -20.7408   23.2728 C   0  0  0  0  0  0  0  0  0  0  0  0
    6.8929  -19.3528   23.3052 C   0  0  0  0  0  0  0  0  0  0  0  0
    6.8967  -18.6334   22.0099 C   0  0  2  0  0  0  0  0  0  0  0  0
    7.1228  -19.6226   20.9204 N   0  0  0  0  0  0  0  0  0  0  0  0
    7.8394  -17.5366   21.8349 C   0  0  0  0  0  0  0  0  0  0  0  0
    9.0362  -17.7322   21.4253 O   0  0  0  0  0  0  0  0  0  0  0  0
    7.6526  -13.8354   21.7622 C   0  0  0  0  0  0  0  0  0  0  0  0
    8.4290  -15.1196   21.9177 C   0  0  2  0  0  0  0  0  0  0  0  0
    7.4746  -16.1928   22.1110 N   0  0  0  0  0  0  0  0  0  0  0  0
    9.3563  -15.0854   23.0628 C   0  0  0  0  0  0  0  0  0  0  0  0
   10.3131  -14.2712   23.0751 O   0  0  0  0  0  0  0  0  0  0  0  0
    9.2382  -15.9383   24.1912 N   0  0  0  0  0  0  0  0  0  0  0  0
   10.2814  -16.0025   25.1936 C   0  0  1  0  0  0  0  0  0  0  0  0
    9.5992  -15.6052   26.5110 C   0  0  0  0  0  0  0  0  0  0  0  0
    8.1729  -15.3454   26.1857 C   0  0  0  0  0  0  0  0  0  0  0  0
    7.2005  -16.2679   25.8146 C   0  0  0  0  0  0  0  0  0  0  0  0
    6.0513  -15.6089   25.6102 N   0  0  0  0  0  0  0  0  0  0  0  0
    6.1933  -14.2817   25.8241 C   0  0  0  0  0  0  0  0  0  0  0  0
    5.3210  -13.2091   25.7462 C   0  0  0  0  0  0  0  0  0  0  0  0
    5.7637  -11.9366   26.0300 C   0  0  0  0  0  0  0  0  0  0  0  0
    7.0843  -11.7714   26.3884 C   0  0  0  0  0  0  0  0  0  0  0  0
    7.9528  -12.8431   26.4654 C   0  0  0  0  0  0  0  0  0  0  0  0
    7.5190  -14.1244   26.1828 C   0  0  0  0  0  0  0  0  0  0  0  0
   10.8616  -17.3524   25.3097 C   0  0  0  0  0  0  0  0  0  0  0  0
   10.3355  -18.3912   24.5590 O   0  0  0  0  0  0  0  0  0  0  0  0
   11.8262  -17.5922   26.0747 O   0  0  0  0  0  0  0  0  0  0  0  0
  2  3  2  0
  2  1  1  0
  4  2  1  0
  5  6  1  0
  5  4  1  0
  6  7  1  6
  8 12  1  0
  8  6  1  0
  9  8  2  0
 11 10  1  1
 11 13  1  0
 11 12  1  0
 13 14  2  0
 15 16  1  0
 15 13  1  0
 16 17  1  1
 18 17  1  0
 19 18  2  0
 20 19  1  0
 21 20  1  0
 21 26  2  0
 22 23  2  0
 22 21  1  0
 23 24  1  0
 24 25  2  0
 26 25  1  0
 26 18  1  0
 27 16  1  0
 27 28  1  0
 29 27  2  0
M  END
$$$$
