QAW.pdb
     RDKit          3D

 29 30  0  0  1  0  0  0  0  0999 V2000
    5.6533  -18.3386   24.0245 N   0  0  0  0  0  0  0  0  0  0  0  0
    5.1851  -19.4423   23.2941 C   0  0  0  0  0  0  0  0  0  0  0  0
    4.1155  -20.0013   23.6480 O   0  0  0  0  0  0  0  0  0  0  0  0
    5.8909  -19.9808   22.1144 C   0  0  0  0  0  0  0  0  0  0  0  0
    7.0882  -19.1886   21.6895 C   0  0  0  0  0  0  0  0  0  0  0  0
    6.8518  -18.1987   20.6128 C   0  0  2  0  0  0  0  0  0  0  0  0
    6.8927  -18.9057   19.3031 N   0  0  0  0  0  0  0  0  0  0  0  0
    7.7341  -17.0419   20.5359 C   0  0  0  0  0  0  0  0  0  0  0  0
    8.8646  -17.0921   19.9376 O   0  0  0  0  0  0  0  0  0  0  0  0
    7.4560  -13.4100   21.1159 C   0  0  0  0  0  0  0  0  0  0  0  0
    8.2851  -14.6686   21.0457 C   0  0  2  0  0  0  0  0  0  0  0  0
    7.3812  -15.7986   21.1229 N   0  0  0  0  0  0  0  0  0  0  0  0
    9.2684  -14.7605   22.1397 C   0  0  0  0  0  0  0  0  0  0  0  0
   10.3183  -14.0714   22.1032 O   0  0  0  0  0  0  0  0  0  0  0  0
    9.1048  -15.6029   23.2703 N   0  0  0  0  0  0  0  0  0  0  0  0
   10.1957  -15.8374   24.1934 C   0  0  1  0  0  0  0  0  0  0  0  0
    9.9945  -14.8160   25.3226 C   0  0  0  0  0  0  0  0  0  0  0  0
    8.5340  -14.7668   25.5915 C   0  0  0  0  0  0  0  0  0  0  0  0
    7.6383  -15.8299   25.6370 C   0  0  0  0  0  0  0  0  0  0  0  0
    6.4194  -15.3419   25.9069 N   0  0  0  0  0  0  0  0  0  0  0  0
    6.4409  -13.9977   26.0477 C   0  0  0  0  0  0  0  0  0  0  0  0
    5.4633  -13.0566   26.3239 C   0  0  0  0  0  0  0  0  0  0  0  0
    5.7932  -11.7225   26.4092 C   0  0  0  0  0  0  0  0  0  0  0  0
    7.1093  -11.3633   26.2130 C   0  0  0  0  0  0  0  0  0  0  0  0
    8.0829  -12.3041   25.9376 C   0  0  0  0  0  0  0  0  0  0  0  0
    7.7629  -13.6456   25.8497 C   0  0  0  0  0  0  0  0  0  0  0  0
   10.1806  -17.2065   24.7391 C   0  0  0  0  0  0  0  0  0  0  0  0
   11.2633  -17.6637   25.4726 O   0  0  0  0  0  0  0  0  0  0  0  0
    9.2082  -17.9779   24.5582 O   0  0  0  0  0  0  0  0  0  0  0  0
  2  3  2  0
  2  1  1  0
  4  2  1  0
  5  6  1  0
  5  4  1  0
  6  7  1  6
  8 12  1  0
  8  6  1  0
  9  8  2  0
 11 10  1  1
 11 13  1  0
 11 12  1  0
 13 14  2  0
 15 16  1  0
 15 13  1  0
 16 17  1  1
 18 17  1  0
 19 18  2  0
 20 19  1  0
 21 20  1  0
 21 26  2  0
 22 23  2  0
 22 21  1  0
 23 24  1  0
 24 25  2  0
 26 25  1  0
 26 18  1  0
 27 16  1  0
 27 28  1  0
 29 27  2  0
M  END
$$$$
