QAW.pdb
     RDKit          3D

 29 30  0  0  1  0  0  0  0  0999 V2000
    9.7606  -12.6720   18.4227 N   0  0  0  0  0  0  0  0  0  0  0  0
    8.5780  -12.9774   17.7304 C   0  0  0  0  0  0  0  0  0  0  0  0
    8.5957  -13.0100   16.4733 O   0  0  0  0  0  0  0  0  0  0  0  0
    7.3025  -13.2717   18.4134 C   0  0  0  0  0  0  0  0  0  0  0  0
    7.4400  -13.6409   19.8578 C   0  0  0  0  0  0  0  0  0  0  0  0
    8.3532  -14.7715   20.1456 C   0  0  2  0  0  0  0  0  0  0  0  0
    8.2615  -15.7499   19.0271 N   0  0  0  0  0  0  0  0  0  0  0  0
    8.1811  -15.4929   21.3996 C   0  0  0  0  0  0  0  0  0  0  0  0
    7.1269  -15.3652   22.1142 O   0  0  0  0  0  0  0  0  0  0  0  0
    9.3215  -18.5918   22.7738 C   0  0  0  0  0  0  0  0  0  0  0  0
    8.9351  -17.1662   23.0812 C   0  0  2  0  0  0  0  0  0  0  0  0
    9.1781  -16.3757   21.8912 N   0  0  0  0  0  0  0  0  0  0  0  0
    9.7055  -16.6002   24.2030 C   0  0  0  0  0  0  0  0  0  0  0  0
   10.8326  -16.0846   23.9972 O   0  0  0  0  0  0  0  0  0  0  0  0
    9.2456  -16.5977   25.5458 N   0  0  0  0  0  0  0  0  0  0  0  0
   10.1509  -16.3420   26.6468 C   0  0  1  0  0  0  0  0  0  0  0  0
    9.3441  -15.4968   27.6437 C   0  0  0  0  0  0  0  0  0  0  0  0
    8.0824  -15.1217   26.9544 C   0  0  0  0  0  0  0  0  0  0  0  0
    7.0535  -15.9613   26.5412 C   0  0  0  0  0  0  0  0  0  0  0  0
    6.1067  -15.2118   25.9594 N   0  0  0  0  0  0  0  0  0  0  0  0
    6.4404  -13.9019   25.9560 C   0  0  0  0  0  0  0  0  0  0  0  0
    5.8096  -12.7630   25.4843 C   0  0  0  0  0  0  0  0  0  0  0  0
    6.4091  -11.5317   25.6274 C   0  0  0  0  0  0  0  0  0  0  0  0
    7.6390  -11.4744   26.2468 C   0  0  0  0  0  0  0  0  0  0  0  0
    8.2665  -12.6122   26.7166 C   0  0  0  0  0  0  0  0  0  0  0  0
    7.6738  -13.8529   26.5781 C   0  0  0  0  0  0  0  0  0  0  0  0
   10.6109  -17.5850   27.2914 C   0  0  0  0  0  0  0  0  0  0  0  0
   11.5998  -17.5292   28.2602 O   0  0  0  0  0  0  0  0  0  0  0  0
   10.1300  -18.7028   26.9872 O   0  0  0  0  0  0  0  0  0  0  0  0
  2  3  2  0
  2  1  1  0
  4  2  1  0
  5  6  1  0
  5  4  1  0
  6  7  1  6
  8 12  1  0
  8  6  1  0
  9  8  2  0
 11 10  1  6
 11 13  1  0
 11 12  1  0
 13 14  2  0
 15 16  1  0
 15 13  1  0
 16 17  1  1
 18 17  1  0
 19 18  2  0
 20 19  1  0
 21 20  1  0
 21 26  2  0
 22 23  2  0
 22 21  1  0
 23 24  1  0
 24 25  2  0
 26 25  1  0
 26 18  1  0
 27 16  1  0
 27 28  1  0
 29 27  2  0
M  END
$$$$
