QAW.pdb
     RDKit          3D

 29 30  0  0  1  0  0  0  0  0999 V2000
    9.0514  -19.1517   15.3945 N   0  0  0  0  0  0  0  0  0  0  0  0
    8.7633  -20.1558   16.3323 C   0  0  0  0  0  0  0  0  0  0  0  0
    8.5245  -21.3221   15.9265 O   0  0  0  0  0  0  0  0  0  0  0  0
    8.7329  -19.9088   17.7877 C   0  0  0  0  0  0  0  0  0  0  0  0
    8.9803  -18.4862   18.1833 C   0  0  0  0  0  0  0  0  0  0  0  0
    8.8789  -18.1979   19.6331 C   0  0  2  0  0  0  0  0  0  0  0  0
    7.6181  -18.7996   20.1479 N   0  0  0  0  0  0  0  0  0  0  0  0
    8.9309  -16.8069   20.0632 C   0  0  0  0  0  0  0  0  0  0  0  0
    9.9004  -16.0354   19.7419 O   0  0  0  0  0  0  0  0  0  0  0  0
    6.5579  -14.3036   21.2557 C   0  0  0  0  0  0  0  0  0  0  0  0
    7.9668  -14.8434   21.2510 C   0  0  2  0  0  0  0  0  0  0  0  0
    7.9048  -16.2380   20.8622 N   0  0  0  0  0  0  0  0  0  0  0  0
    8.6179  -14.7375   22.5690 C   0  0  0  0  0  0  0  0  0  0  0  0
    8.9149  -13.6099   23.0367 O   0  0  0  0  0  0  0  0  0  0  0  0
    8.9435  -15.8607   23.3735 N   0  0  0  0  0  0  0  0  0  0  0  0
    9.7836  -15.7241   24.5451 C   0  0  1  0  0  0  0  0  0  0  0  0
    8.9604  -16.3102   25.7017 C   0  0  0  0  0  0  0  0  0  0  0  0
    7.7420  -15.4682   25.8211 C   0  0  0  0  0  0  0  0  0  0  0  0
    6.4172  -15.8546   25.6478 C   0  0  0  0  0  0  0  0  0  0  0  0
    5.6370  -14.7826   25.8450 N   0  0  0  0  0  0  0  0  0  0  0  0
    6.3657  -13.6843   26.1444 C   0  0  0  0  0  0  0  0  0  0  0  0
    6.0306  -12.3706   26.4262 C   0  0  0  0  0  0  0  0  0  0  0  0
    7.0165  -11.4499   26.7017 C   0  0  0  0  0  0  0  0  0  0  0  0
    8.3274  -11.8756   26.6872 C   0  0  0  0  0  0  0  0  0  0  0  0
    8.6594  -13.1868   26.4057 C   0  0  0  0  0  0  0  0  0  0  0  0
    7.6778  -14.1190   26.1278 C   0  0  0  0  0  0  0  0  0  0  0  0
   11.0564  -16.4544   24.4074 C   0  0  0  0  0  0  0  0  0  0  0  0
   11.9856  -16.4115   25.4342 O   0  0  0  0  0  0  0  0  0  0  0  0
   11.3270  -17.1201   23.3793 O   0  0  0  0  0  0  0  0  0  0  0  0
  2  3  2  0
  2  1  1  0
  4  2  1  0
  5  6  1  0
  5  4  1  0
  6  7  1  6
  8 12  1  0
  8  6  1  0
  9  8  2  0
 11 10  1  1
 11 13  1  0
 11 12  1  0
 13 14  2  0
 15 16  1  0
 15 13  1  0
 16 17  1  1
 18 17  1  0
 19 18  2  0
 20 19  1  0
 21 20  1  0
 21 26  2  0
 22 23  2  0
 22 21  1  0
 23 24  1  0
 24 25  2  0
 26 25  1  0
 26 18  1  0
 27 16  1  0
 27 28  1  0
 29 27  2  0
M  END
$$$$
