QAW.pdb
     RDKit          3D

 29 30  0  0  1  0  0  0  0  0999 V2000
   10.1725  -13.4692   18.6415 N   0  0  0  0  0  0  0  0  0  0  0  0
    8.9347  -12.9497   18.2305 C   0  0  0  0  0  0  0  0  0  0  0  0
    8.8189  -12.4945   17.0638 O   0  0  0  0  0  0  0  0  0  0  0  0
    7.7476  -12.9170   19.1079 C   0  0  0  0  0  0  0  0  0  0  0  0
    7.9049  -13.6630   20.3965 C   0  0  0  0  0  0  0  0  0  0  0  0
    7.8417  -15.1397   20.2933 C   0  0  2  0  0  0  0  0  0  0  0  0
    6.4963  -15.5209   19.7823 N   0  0  0  0  0  0  0  0  0  0  0  0
    8.1164  -15.9253   21.4891 C   0  0  0  0  0  0  0  0  0  0  0  0
    7.2039  -16.1957   22.3450 O   0  0  0  0  0  0  0  0  0  0  0  0
   10.7417  -18.2974   22.4447 C   0  0  0  0  0  0  0  0  0  0  0  0
    9.6206  -17.3713   22.8465 C   0  0  2  0  0  0  0  0  0  0  0  0
    9.4141  -16.4309   21.7635 N   0  0  0  0  0  0  0  0  0  0  0  0
    9.9173  -16.6266   24.0833 C   0  0  0  0  0  0  0  0  0  0  0  0
   10.5268  -15.5294   24.0277 O   0  0  0  0  0  0  0  0  0  0  0  0
    9.5490  -17.0797   25.3771 N   0  0  0  0  0  0  0  0  0  0  0  0
    9.9914  -16.3844   26.5679 C   0  0  1  0  0  0  0  0  0  0  0  0
    8.7883  -16.4141   27.5221 C   0  0  0  0  0  0  0  0  0  0  0  0
    7.7265  -15.5906   26.8878 C   0  0  0  0  0  0  0  0  0  0  0  0
    6.6212  -16.0308   26.1675 C   0  0  0  0  0  0  0  0  0  0  0  0
    5.9228  -14.9577   25.7709 N   0  0  0  0  0  0  0  0  0  0  0  0
    6.4985  -13.8073   26.1860 C   0  0  0  0  0  0  0  0  0  0  0  0
    6.1671  -12.4714   26.0342 C   0  0  0  0  0  0  0  0  0  0  0  0
    6.9664  -11.4944   26.5843 C   0  0  0  0  0  0  0  0  0  0  0  0
    8.0896  -11.8873   27.2798 C   0  0  0  0  0  0  0  0  0  0  0  0
    8.4182  -13.2209   27.4299 C   0  0  0  0  0  0  0  0  0  0  0  0
    7.6231  -14.2095   26.8820 C   0  0  0  0  0  0  0  0  0  0  0  0
   11.1535  -17.0378   27.1963 C   0  0  0  0  0  0  0  0  0  0  0  0
   11.7941  -16.4218   28.2591 O   0  0  0  0  0  0  0  0  0  0  0  0
   11.5846  -18.1451   26.7948 O   0  0  0  0  0  0  0  0  0  0  0  0
  2  3  2  0
  2  1  1  0
  4  2  1  0
  5  6  1  0
  5  4  1  0
  6  7  1  1
  8 12  1  0
  8  6  1  0
  9  8  2  0
 11 10  1  6
 11 13  1  0
 11 12  1  0
 13 14  2  0
 15 16  1  0
 15 13  1  0
 16 17  1  1
 18 17  1  0
 19 18  2  0
 20 19  1  0
 21 20  1  0
 21 26  2  0
 22 23  2  0
 22 21  1  0
 23 24  1  0
 24 25  2  0
 26 25  1  0
 26 18  1  0
 27 16  1  0
 27 28  1  0
 29 27  2  0
M  END
$$$$
