QAW.pdb
     RDKit          3D

 29 30  0  0  1  0  0  0  0  0999 V2000
   13.0742  -14.0194   18.2757 N   0  0  0  0  0  0  0  0  0  0  0  0
   12.4713  -13.5470   19.4522 C   0  0  0  0  0  0  0  0  0  0  0  0
   13.1462  -12.8417   20.2453 O   0  0  0  0  0  0  0  0  0  0  0  0
   11.0668  -13.8351   19.8049 C   0  0  0  0  0  0  0  0  0  0  0  0
   10.3108  -14.6089   18.7699 C   0  0  0  0  0  0  0  0  0  0  0  0
    8.9012  -14.9186   19.1047 C   0  0  2  0  0  0  0  0  0  0  0  0
    8.1167  -13.6538   19.0640 N   0  0  0  0  0  0  0  0  0  0  0  0
    8.6254  -15.5874   20.3693 C   0  0  0  0  0  0  0  0  0  0  0  0
    7.8615  -15.0692   21.2560 O   0  0  0  0  0  0  0  0  0  0  0  0
    9.2001  -18.9907   21.7443 C   0  0  0  0  0  0  0  0  0  0  0  0
    8.8286  -17.5371   21.9035 C   0  0  2  0  0  0  0  0  0  0  0  0
    9.1926  -16.8510   20.6800 N   0  0  0  0  0  0  0  0  0  0  0  0
    9.5170  -16.8980   23.0392 C   0  0  0  0  0  0  0  0  0  0  0  0
   10.5719  -16.2427   22.8492 O   0  0  0  0  0  0  0  0  0  0  0  0
    9.0537  -16.9747   24.3787 N   0  0  0  0  0  0  0  0  0  0  0  0
    9.8429  -16.4523   25.4748 C   0  0  1  0  0  0  0  0  0  0  0  0
    8.8677  -16.3414   26.6563 C   0  0  0  0  0  0  0  0  0  0  0  0
    7.7743  -15.4363   26.2170 C   0  0  0  0  0  0  0  0  0  0  0  0
    6.5322  -15.7873   25.6990 C   0  0  0  0  0  0  0  0  0  0  0  0
    5.8548  -14.6621   25.4311 N   0  0  0  0  0  0  0  0  0  0  0  0
    6.5749  -13.5611   25.7416 C   0  0  0  0  0  0  0  0  0  0  0  0
    6.3192  -12.2032   25.6515 C   0  0  0  0  0  0  0  0  0  0  0  0
    7.2699  -11.2929   26.0559 C   0  0  0  0  0  0  0  0  0  0  0  0
    8.4652  -11.7738   26.5454 C   0  0  0  0  0  0  0  0  0  0  0  0
    8.7181  -13.1291   26.6342 C   0  0  0  0  0  0  0  0  0  0  0  0
    7.7711  -14.0514   26.2312 C   0  0  0  0  0  0  0  0  0  0  0  0
   10.9664  -17.3393   25.8260 C   0  0  0  0  0  0  0  0  0  0  0  0
   11.9326  -16.9011   26.7170 O   0  0  0  0  0  0  0  0  0  0  0  0
   11.0759  -18.4897   25.3384 O   0  0  0  0  0  0  0  0  0  0  0  0
  2  3  2  0
  2  1  1  0
  4  2  1  0
  5  6  1  0
  5  4  1  0
  6  7  1  1
  8 12  1  0
  8  6  1  0
  9  8  2  0
 11 10  1  6
 11 13  1  0
 11 12  1  0
 13 14  2  0
 15 16  1  0
 15 13  1  0
 16 17  1  1
 18 17  1  0
 19 18  2  0
 20 19  1  0
 21 20  1  0
 21 26  2  0
 22 23  2  0
 22 21  1  0
 23 24  1  0
 24 25  2  0
 26 25  1  0
 26 18  1  0
 27 16  1  0
 27 28  1  0
 29 27  2  0
M  END
$$$$
