VDR.pdb
     RDKit          3D

 27 26  0  0  1  0  0  0  0  0999 V2000
    7.9108  -12.8232   18.2829 C   0  0  0  0  0  0  0  0  0  0  0  0
    8.4388  -13.0907   19.6934 C   0  0  1  0  0  0  0  0  0  0  0  0
    7.4467  -12.6709   20.7374 C   0  0  0  0  0  0  0  0  0  0  0  0
    8.8181  -14.5374   19.7872 C   0  0  2  0  0  0  0  0  0  0  0  0
    7.7481  -15.4386   19.4922 N   0  0  0  0  0  0  0  0  0  0  0  0
    9.4710  -14.7992   21.0962 C   0  0  0  0  0  0  0  0  0  0  0  0
   10.5372  -14.1844   21.3316 O   0  0  0  0  0  0  0  0  0  0  0  0
    8.9293  -15.6995   22.0495 N   0  0  0  0  0  0  0  0  0  0  0  0
    9.6657  -16.0470   23.2477 C   0  0  1  0  0  0  0  0  0  0  0  0
    8.8334  -16.7552   24.2682 C   0  0  0  0  0  0  0  0  0  0  0  0
    9.5722  -17.1469   25.4803 C   0  0  0  0  0  0  0  0  0  0  0  0
   10.3258  -16.2951   26.0112 O   0  0  0  0  0  0  0  0  0  0  0  0
   10.8342  -16.9102   22.9453 C   0  0  0  0  0  0  0  0  0  0  0  0
   10.6490  -18.0514   22.4616 O   0  0  0  0  0  0  0  0  0  0  0  0
    9.4885  -18.3972   26.0727 O   0  0  0  0  0  0  0  0  0  0  0  0
   15.2555  -13.2593   17.8787 N   0  0  0  0  0  0  0  0  0  0  0  0
   15.8807  -14.4934   18.2889 C   0  0  0  0  0  0  0  0  0  0  0  0
   17.0875  -14.7273   17.9126 N   0  0  0  0  0  0  0  0  0  0  0  0
   15.1999  -15.4293   19.0817 N   0  0  0  0  0  0  0  0  0  0  0  0
   13.8161  -15.1346   19.5481 C   0  0  0  0  0  0  0  0  0  0  0  0
   13.3551  -16.2392   20.4147 C   0  0  0  0  0  0  0  0  0  0  0  0
   13.9226  -16.4915   21.7178 C   0  0  0  0  0  0  0  0  0  0  0  0
   13.3122  -17.2673   22.8058 C   0  0  2  0  0  0  0  0  0  0  0  0
   12.1208  -16.4525   23.1981 N   0  0  0  0  0  0  0  0  0  0  0  0
   14.0620  -17.5784   24.0124 C   0  0  0  0  0  0  0  0  0  0  0  0
   13.7464  -16.9720   25.1012 O   0  0  0  0  0  0  0  0  0  0  0  0
   15.0816  -18.4665   24.1232 O   0  0  0  0  0  0  0  0  0  0  0  0
  2  1  1  6
  3  2  1  0
  4  2  1  0
  4  5  1  1
  6  7  2  0
  6  4  1  0
  8  6  1  0
  9  8  1  0
 10 11  1  0
  9 10  1  1
 11 12  2  0
 13 24  1  0
 13  9  1  0
 14 13  2  0
 15 11  1  0
 17 16  1  0
 18 17  2  0
 19 17  1  0
 20 21  1  0
 20 19  1  0
 23 22  1  6
 22 21  1  0
 23 25  1  0
 23 24  1  0
 25 27  1  0
 26 25  2  0
M  END
$$$$
