VDR.pdb
     RDKit          3D

 27 26  0  0  1  0  0  0  0  0999 V2000
    6.3397  -20.0489   21.0376 C   0  0  0  0  0  0  0  0  0  0  0  0
    5.0865  -20.7566   21.5555 C   0  0  1  0  0  0  0  0  0  0  0  0
    4.4716  -21.6240   20.4972 C   0  0  0  0  0  0  0  0  0  0  0  0
    5.4515  -21.5104   22.7982 C   0  0  2  0  0  0  0  0  0  0  0  0
    4.3782  -22.2788   23.3476 N   0  0  0  0  0  0  0  0  0  0  0  0
    6.0818  -20.5864   23.7766 C   0  0  0  0  0  0  0  0  0  0  0  0
    5.3545  -19.6860   24.2566 O   0  0  0  0  0  0  0  0  0  0  0  0
    7.4420  -20.7007   24.1631 N   0  0  0  0  0  0  0  0  0  0  0  0
    8.0596  -19.7059   25.0161 C   0  0  1  0  0  0  0  0  0  0  0  0
    9.0684  -20.2801   25.9587 C   0  0  0  0  0  0  0  0  0  0  0  0
    8.4834  -21.0421   27.0748 C   0  0  0  0  0  0  0  0  0  0  0  0
    7.5387  -20.5182   27.7138 O   0  0  0  0  0  0  0  0  0  0  0  0
    8.7359  -18.6467   24.2270 C   0  0  0  0  0  0  0  0  0  0  0  0
    9.4574  -18.9684   23.2542 O   0  0  0  0  0  0  0  0  0  0  0  0
    8.9098  -22.3019   27.4649 O   0  0  0  0  0  0  0  0  0  0  0  0
    8.6135  -14.4857   18.6368 N   0  0  0  0  0  0  0  0  0  0  0  0
    7.9825  -13.3250   19.2171 C   0  0  0  0  0  0  0  0  0  0  0  0
    7.8919  -12.2550   18.5102 N   0  0  0  0  0  0  0  0  0  0  0  0
    7.4733  -13.3467   20.5241 N   0  0  0  0  0  0  0  0  0  0  0  0
    7.6292  -14.5718   21.3571 C   0  0  0  0  0  0  0  0  0  0  0  0
    8.0571  -14.1785   22.7157 C   0  0  0  0  0  0  0  0  0  0  0  0
    8.2640  -15.1396   23.7727 C   0  0  0  0  0  0  0  0  0  0  0  0
    9.2465  -16.2317   23.7862 C   0  0  2  0  0  0  0  0  0  0  0  0
    8.5673  -17.3110   24.5678 N   0  0  0  0  0  0  0  0  0  0  0  0
   10.5731  -16.0354   24.3486 C   0  0  0  0  0  0  0  0  0  0  0  0
   10.7474  -16.2725   25.6001 O   0  0  0  0  0  0  0  0  0  0  0  0
   11.6806  -15.6246   23.6812 O   0  0  0  0  0  0  0  0  0  0  0  0
  2  1  1  6
  3  2  1  0
  4  2  1  0
  4  5  1  1
  6  7  2  0
  6  4  1  0
  8  6  1  0
  9  8  1  0
 10 11  1  0
  9 10  1  1
 11 12  2  0
 13 24  1  0
 13  9  1  0
 14 13  2  0
 15 11  1  0
 17 16  1  0
 18 17  2  0
 19 17  1  0
 20 21  1  0
 20 19  1  0
 23 22  1  1
 22 21  1  0
 23 25  1  0
 23 24  1  0
 25 27  1  0
 26 25  2  0
M  END
$$$$
