VDR.pdb
     RDKit          3D

 27 26  0  0  1  0  0  0  0  0999 V2000
    9.6051  -13.0871   19.9007 C   0  0  0  0  0  0  0  0  0  0  0  0
    8.1326  -13.3592   20.2125 C   0  0  1  0  0  0  0  0  0  0  0  0
    7.2746  -12.1755   19.8760 C   0  0  0  0  0  0  0  0  0  0  0  0
    7.7226  -14.6088   19.4940 C   0  0  2  0  0  0  0  0  0  0  0  0
    6.3225  -14.8889   19.5688 N   0  0  0  0  0  0  0  0  0  0  0  0
    8.5790  -15.7414   19.9323 C   0  0  0  0  0  0  0  0  0  0  0  0
    8.1737  -16.4146   20.9084 O   0  0  0  0  0  0  0  0  0  0  0  0
    9.8022  -16.0629   19.2897 N   0  0  0  0  0  0  0  0  0  0  0  0
   10.6509  -17.1239   19.7923 C   0  0  1  0  0  0  0  0  0  0  0  0
   11.7025  -17.5507   18.8188 C   0  0  0  0  0  0  0  0  0  0  0  0
   12.4613  -18.7415   19.2367 C   0  0  0  0  0  0  0  0  0  0  0  0
   13.6371  -18.5772   19.6437 O   0  0  0  0  0  0  0  0  0  0  0  0
   11.3361  -16.7326   21.0490 C   0  0  0  0  0  0  0  0  0  0  0  0
   11.8233  -15.5827   21.1533 O   0  0  0  0  0  0  0  0  0  0  0  0
   11.9595  -20.0332   19.2091 O   0  0  0  0  0  0  0  0  0  0  0  0
    8.5110  -13.6755   27.8371 N   0  0  0  0  0  0  0  0  0  0  0  0
    9.7526  -14.2084   28.3437 C   0  0  0  0  0  0  0  0  0  0  0  0
   10.1473  -13.8459   29.5122 N   0  0  0  0  0  0  0  0  0  0  0  0
   10.5250  -15.1043   27.5896 N   0  0  0  0  0  0  0  0  0  0  0  0
   10.0572  -15.5282   26.2402 C   0  0  0  0  0  0  0  0  0  0  0  0
   11.1136  -16.3369   25.5970 C   0  0  0  0  0  0  0  0  0  0  0  0
   11.0094  -16.8088   24.2368 C   0  0  0  0  0  0  0  0  0  0  0  0
   12.1125  -17.2549   23.3754 C   0  0  2  0  0  0  0  0  0  0  0  0
   11.4341  -17.6371   22.0984 N   0  0  0  0  0  0  0  0  0  0  0  0
   12.9731  -18.3569   23.7752 C   0  0  0  0  0  0  0  0  0  0  0  0
   12.6692  -19.5428   23.3827 O   0  0  0  0  0  0  0  0  0  0  0  0
   14.0961  -18.2713   24.5318 O   0  0  0  0  0  0  0  0  0  0  0  0
  2  1  1  6
  3  2  1  0
  4  2  1  0
  4  5  1  1
  6  7  2  0
  6  4  1  0
  8  6  1  0
  9  8  1  0
 10 11  1  0
  9 10  1  6
 11 12  2  0
 13 24  1  0
 13  9  1  0
 14 13  2  0
 15 11  1  0
 17 16  1  0
 18 17  2  0
 19 17  1  0
 20 21  1  0
 20 19  1  0
 23 22  1  1
 22 21  1  0
 23 25  1  0
 23 24  1  0
 25 27  1  0
 26 25  2  0
M  END
$$$$
