VDR.pdb
     RDKit          3D

 27 26  0  0  1  0  0  0  0  0999 V2000
    9.1714  -13.4946   21.7127 C   0  0  0  0  0  0  0  0  0  0  0  0
    7.9147  -14.0585   21.0475 C   0  0  1  0  0  0  0  0  0  0  0  0
    7.0827  -12.9690   20.4383 C   0  0  0  0  0  0  0  0  0  0  0  0
    8.3343  -15.1038   20.0591 C   0  0  2  0  0  0  0  0  0  0  0  0
    7.2666  -15.5947   19.2446 N   0  0  0  0  0  0  0  0  0  0  0  0
    9.0906  -16.1763   20.7562 C   0  0  0  0  0  0  0  0  0  0  0  0
    8.4179  -17.0694   21.3218 O   0  0  0  0  0  0  0  0  0  0  0  0
   10.5086  -16.2066   20.7920 N   0  0  0  0  0  0  0  0  0  0  0  0
   11.2142  -17.3090   21.4128 C   0  0  1  0  0  0  0  0  0  0  0  0
   12.4961  -17.6526   20.7241 C   0  0  0  0  0  0  0  0  0  0  0  0
   12.3230  -18.1909   19.3644 C   0  0  0  0  0  0  0  0  0  0  0  0
   11.5170  -19.1397   19.2053 O   0  0  0  0  0  0  0  0  0  0  0  0
   11.5309  -17.0293   22.8353 C   0  0  0  0  0  0  0  0  0  0  0  0
   11.8943  -15.8779   23.1711 O   0  0  0  0  0  0  0  0  0  0  0  0
   12.9939  -17.7162   18.2483 O   0  0  0  0  0  0  0  0  0  0  0  0
    9.4946  -22.4260   29.6836 N   0  0  0  0  0  0  0  0  0  0  0  0
   10.0655  -21.2286   30.2514 C   0  0  0  0  0  0  0  0  0  0  0  0
   10.0422  -21.0805   31.5282 N   0  0  0  0  0  0  0  0  0  0  0  0
   10.6381  -20.2367   29.4412 N   0  0  0  0  0  0  0  0  0  0  0  0
   10.3296  -20.2044   27.9841 C   0  0  0  0  0  0  0  0  0  0  0  0
   11.0952  -19.1083   27.3546 C   0  0  0  0  0  0  0  0  0  0  0  0
   11.0139  -18.8162   25.9433 C   0  0  0  0  0  0  0  0  0  0  0  0
   11.7585  -17.7786   25.2174 C   0  0  2  0  0  0  0  0  0  0  0  0
   11.4237  -18.0388   23.7830 N   0  0  0  0  0  0  0  0  0  0  0  0
   13.2049  -17.6799   25.3313 C   0  0  0  0  0  0  0  0  0  0  0  0
   13.9240  -18.0745   24.3414 O   0  0  0  0  0  0  0  0  0  0  0  0
   13.9006  -17.1987   26.3921 O   0  0  0  0  0  0  0  0  0  0  0  0
  2  1  1  6
  3  2  1  0
  4  2  1  0
  4  5  1  1
  6  7  2  0
  6  4  1  0
  8  6  1  0
  9  8  1  0
 10 11  1  0
  9 10  1  6
 11 12  2  0
 13 24  1  0
 13  9  1  0
 14 13  2  0
 15 11  1  0
 17 16  1  0
 18 17  2  0
 19 17  1  0
 20 21  1  0
 20 19  1  0
 23 22  1  1
 22 21  1  0
 23 25  1  0
 23 24  1  0
 25 27  1  0
 26 25  2  0
M  END
$$$$
