VDR.pdb
     RDKit          3D

 27 26  0  0  1  0  0  0  0  0999 V2000
   10.0368  -12.4893   19.6738 C   0  0  0  0  0  0  0  0  0  0  0  0
    8.8232  -13.2560   19.1455 C   0  0  1  0  0  0  0  0  0  0  0  0
    7.7782  -12.3230   18.6089 C   0  0  0  0  0  0  0  0  0  0  0  0
    9.3005  -14.2528   18.1335 C   0  0  2  0  0  0  0  0  0  0  0  0
    8.2473  -14.9525   17.4661 N   0  0  0  0  0  0  0  0  0  0  0  0
   10.3099  -15.1503   18.7532 C   0  0  0  0  0  0  0  0  0  0  0  0
    9.8758  -16.1370   19.3922 O   0  0  0  0  0  0  0  0  0  0  0  0
   11.7050  -14.9192   18.6390 N   0  0  0  0  0  0  0  0  0  0  0  0
   12.6628  -15.8817   19.1435 C   0  0  1  0  0  0  0  0  0  0  0  0
   14.0080  -15.7695   18.5003 C   0  0  0  0  0  0  0  0  0  0  0  0
   14.9646  -16.8066   18.9216 C   0  0  0  0  0  0  0  0  0  0  0  0
   15.8857  -16.4738   19.7066 O   0  0  0  0  0  0  0  0  0  0  0  0
   12.8548  -15.7517   20.6092 C   0  0  0  0  0  0  0  0  0  0  0  0
   13.5154  -14.7874   21.0612 O   0  0  0  0  0  0  0  0  0  0  0  0
   14.9129  -18.1280   18.5063 O   0  0  0  0  0  0  0  0  0  0  0  0
    6.8726  -15.0405   23.8004 N   0  0  0  0  0  0  0  0  0  0  0  0
    7.1008  -15.1990   22.3844 C   0  0  0  0  0  0  0  0  0  0  0  0
    6.4324  -14.4659   21.5669 N   0  0  0  0  0  0  0  0  0  0  0  0
    8.0289  -16.1293   21.8934 N   0  0  0  0  0  0  0  0  0  0  0  0
    8.7386  -17.0345   22.8400 C   0  0  0  0  0  0  0  0  0  0  0  0
    9.9418  -16.3467   23.3527 C   0  0  0  0  0  0  0  0  0  0  0  0
   11.2123  -17.0152   23.5040 C   0  0  0  0  0  0  0  0  0  0  0  0
   12.5021  -16.5853   22.9476 C   0  0  2  0  0  0  0  0  0  0  0  0
   12.3049  -16.6936   21.4689 N   0  0  0  0  0  0  0  0  0  0  0  0
   13.7321  -17.2817   23.2899 C   0  0  0  0  0  0  0  0  0  0  0  0
   14.6152  -16.6564   23.9840 O   0  0  0  0  0  0  0  0  0  0  0  0
   14.0591  -18.5552   22.9553 O   0  0  0  0  0  0  0  0  0  0  0  0
  2  1  1  6
  3  2  1  0
  4  2  1  0
  4  5  1  1
  6  7  2  0
  6  4  1  0
  8  6  1  0
  9  8  1  0
 10 11  1  0
  9 10  1  6
 11 12  2  0
 13 24  1  0
 13  9  1  0
 14 13  2  0
 15 11  1  0
 17 16  1  0
 18 17  2  0
 19 17  1  0
 20 21  1  0
 20 19  1  0
 23 22  1  1
 22 21  1  0
 23 25  1  0
 23 24  1  0
 25 27  1  0
 26 25  2  0
M  END
$$$$
