VDR.pdb
     RDKit          3D

 27 26  0  0  1  0  0  0  0  0999 V2000
    9.4607  -14.6468   19.4467 C   0  0  0  0  0  0  0  0  0  0  0  0
    8.3190  -13.6879   19.7883 C   0  0  1  0  0  0  0  0  0  0  0  0
    7.6958  -13.1163   18.5492 C   0  0  0  0  0  0  0  0  0  0  0  0
    7.3402  -14.4137   20.6606 C   0  0  2  0  0  0  0  0  0  0  0  0
    6.0708  -13.7654   20.7732 N   0  0  0  0  0  0  0  0  0  0  0  0
    7.9694  -14.7187   21.9719 C   0  0  0  0  0  0  0  0  0  0  0  0
    7.7700  -13.9016   22.9008 O   0  0  0  0  0  0  0  0  0  0  0  0
    8.7628  -15.8756   22.1837 N   0  0  0  0  0  0  0  0  0  0  0  0
    9.3516  -16.1475   23.4791 C   0  0  1  0  0  0  0  0  0  0  0  0
    8.4805  -16.9846   24.3601 C   0  0  0  0  0  0  0  0  0  0  0  0
    7.9698  -18.2061   23.7155 C   0  0  0  0  0  0  0  0  0  0  0  0
    8.5847  -18.6433   22.7125 O   0  0  0  0  0  0  0  0  0  0  0  0
   10.6593  -16.8379   23.3559 C   0  0  0  0  0  0  0  0  0  0  0  0
   11.2227  -17.2794   24.3847 O   0  0  0  0  0  0  0  0  0  0  0  0
    6.8527  -18.9044   24.1461 O   0  0  0  0  0  0  0  0  0  0  0  0
   16.0984  -14.0438   19.9518 N   0  0  0  0  0  0  0  0  0  0  0  0
   15.8013  -14.0479   18.5398 C   0  0  0  0  0  0  0  0  0  0  0  0
   16.7084  -13.6545   17.7182 N   0  0  0  0  0  0  0  0  0  0  0  0
   14.5534  -14.4692   18.0568 N   0  0  0  0  0  0  0  0  0  0  0  0
   13.7098  -15.3770   18.8836 C   0  0  0  0  0  0  0  0  0  0  0  0
   13.1595  -14.6160   20.0245 C   0  0  0  0  0  0  0  0  0  0  0  0
   12.3035  -15.2185   21.0184 C   0  0  0  0  0  0  0  0  0  0  0  0
   12.5990  -16.4098   21.8256 C   0  0  2  0  0  0  0  0  0  0  0  0
   11.2501  -16.9909   22.1084 N   0  0  0  0  0  0  0  0  0  0  0  0
   13.3145  -16.2982   23.0868 C   0  0  0  0  0  0  0  0  0  0  0  0
   12.6582  -15.9373   24.1317 O   0  0  0  0  0  0  0  0  0  0  0  0
   14.6327  -16.5453   23.2920 O   0  0  0  0  0  0  0  0  0  0  0  0
  2  1  1  6
  3  2  1  0
  4  2  1  0
  4  5  1  1
  6  7  2  0
  6  4  1  0
  8  6  1  0
  9  8  1  0
 10 11  1  0
  9 10  1  1
 11 12  2  0
 13 24  1  0
 13  9  1  0
 14 13  2  0
 15 11  1  0
 17 16  1  0
 18 17  2  0
 19 17  1  0
 20 21  1  0
 20 19  1  0
 23 22  1  1
 22 21  1  0
 23 25  1  0
 23 24  1  0
 25 27  1  0
 26 25  2  0
M  END
$$$$
