FHS.pdb
     RDKit          3D

 28 29  0  0  1  0  0  0  0  0999 V2000
    5.3106  -17.2478   24.5279 N   0  0  0  0  0  0  0  0  0  0  0  0
    6.3171  -16.2370   24.5886 C   0  0  1  0  0  0  0  0  0  0  0  0
    6.6526  -15.9968   26.0541 C   0  0  0  0  0  0  0  0  0  0  0  0
    6.8393  -14.5633   26.3727 C   0  0  0  0  0  0  0  0  0  0  0  0
    5.7378  -13.7353   26.4126 C   0  0  0  0  0  0  0  0  0  0  0  0
    5.8586  -12.3746   26.7038 C   0  0  0  0  0  0  0  0  0  0  0  0
    7.1206  -11.8558   26.9570 C   0  0  0  0  0  0  0  0  0  0  0  0
    8.2353  -12.6658   26.9223 C   0  0  0  0  0  0  0  0  0  0  0  0
    8.0696  -14.0006   26.6311 C   0  0  0  0  0  0  0  0  0  0  0  0
    7.5365  -16.5768   23.8236 C   0  0  0  0  0  0  0  0  0  0  0  0
    7.9968  -17.7423   23.8068 O   0  0  0  0  0  0  0  0  0  0  0  0
    8.1971  -15.5634   23.0948 N   0  0  0  0  0  0  0  0  0  0  0  0
    9.3322  -15.7795   22.2290 C   0  0  1  0  0  0  0  0  0  0  0  0
    9.5707  -14.5735   21.3905 C   0  0  0  0  0  0  0  0  0  0  0  0
    8.6102  -14.3601   20.2882 C   0  0  0  0  0  0  0  0  0  0  0  0
    7.6011  -15.1351   19.8151 C   0  0  0  0  0  0  0  0  0  0  0  0
    7.0108  -14.5116   18.7669 N   0  0  0  0  0  0  0  0  0  0  0  0
    7.6499  -13.3570   18.5904 C   0  0  0  0  0  0  0  0  0  0  0  0
    8.6138  -13.2414   19.4896 N   0  0  0  0  0  0  0  0  0  0  0  0
   10.5804  -15.9872   23.0405 C   0  0  0  0  0  0  0  0  0  0  0  0
   10.8459  -15.1880   23.9714 O   0  0  0  0  0  0  0  0  0  0  0  0
   12.5893  -19.4690   22.7880 O   0  0  0  0  0  0  0  0  0  0  0  0
   12.8518  -18.7299   23.9568 C   0  0  0  0  0  0  0  0  0  0  0  0
   12.6839  -17.2757   23.5822 C   0  0  2  0  0  0  0  0  0  0  0  0
   11.4799  -17.0494   22.8049 N   0  0  0  0  0  0  0  0  0  0  0  0
   13.8635  -16.7670   22.8839 C   0  0  0  0  0  0  0  0  0  0  0  0
   15.1144  -16.7979   23.4629 O   0  0  0  0  0  0  0  0  0  0  0  0
   13.7390  -16.2902   21.7303 O   0  0  0  0  0  0  0  0  0  0  0  0
  2  1  1  1
  2  3  1  0
  3  4  1  0
  4  9  2  0
  5  6  2  0
  5  4  1  0
  6  7  1  0
  7  8  2  0
  9  8  1  0
 10  2  1  0
 10 12  1  0
 11 10  2  0
 13 12  1  0
 13 14  1  6
 14 15  1  0
 15 19  1  0
 15 16  2  0
 16 17  1  0
 18 17  1  0
 19 18  2  0
 20 21  2  0
 20 13  1  0
 22 23  1  0
 24 23  1  6
 24 25  1  0
 24 26  1  0
 25 20  1  0
 26 28  2  0
 26 27  1  0
M  END
$$$$
