FHS.pdb
     RDKit          3D

 28 29  0  0  1  0  0  0  0  0999 V2000
    6.7250  -16.4533   26.1507 N   0  0  0  0  0  0  0  0  0  0  0  0
    6.1335  -16.1949   24.8773 C   0  0  1  0  0  0  0  0  0  0  0  0
    5.5228  -14.8009   24.9181 C   0  0  0  0  0  0  0  0  0  0  0  0
    6.2789  -13.8682   25.7841 C   0  0  0  0  0  0  0  0  0  0  0  0
    7.5755  -13.5421   25.4485 C   0  0  0  0  0  0  0  0  0  0  0  0
    8.3347  -12.6707   26.2329 C   0  0  0  0  0  0  0  0  0  0  0  0
    7.7602  -12.1272   27.3733 C   0  0  0  0  0  0  0  0  0  0  0  0
    6.4653  -12.4398   27.7273 C   0  0  0  0  0  0  0  0  0  0  0  0
    5.7542  -13.3028   26.9251 C   0  0  0  0  0  0  0  0  0  0  0  0
    7.0869  -16.3135   23.7528 C   0  0  0  0  0  0  0  0  0  0  0  0
    8.0122  -17.1587   23.7638 O   0  0  0  0  0  0  0  0  0  0  0  0
    6.9508  -15.4539   22.6406 N   0  0  0  0  0  0  0  0  0  0  0  0
    7.7145  -15.5607   21.4199 C   0  0  1  0  0  0  0  0  0  0  0  0
    7.4588  -14.3781   20.5536 C   0  0  0  0  0  0  0  0  0  0  0  0
    8.0374  -14.4423   19.1955 C   0  0  0  0  0  0  0  0  0  0  0  0
    8.8816  -15.3370   18.6216 C   0  0  0  0  0  0  0  0  0  0  0  0
    9.1440  -14.9531   17.3489 N   0  0  0  0  0  0  0  0  0  0  0  0
    8.4671  -13.8267   17.1346 C   0  0  0  0  0  0  0  0  0  0  0  0
    7.7951  -13.4983   18.2262 N   0  0  0  0  0  0  0  0  0  0  0  0
    9.1875  -15.5583   21.7194 C   0  0  0  0  0  0  0  0  0  0  0  0
    9.6205  -14.8473   22.6589 O   0  0  0  0  0  0  0  0  0  0  0  0
   11.2069  -18.3008   22.6980 O   0  0  0  0  0  0  0  0  0  0  0  0
   11.7257  -16.9925   22.7223 C   0  0  0  0  0  0  0  0  0  0  0  0
   11.5247  -16.4338   21.3327 C   0  0  2  0  0  0  0  0  0  0  0  0
   10.1197  -16.3254   20.9876 N   0  0  0  0  0  0  0  0  0  0  0  0
   12.2520  -17.2166   20.3347 C   0  0  0  0  0  0  0  0  0  0  0  0
   13.6268  -17.3191   20.3593 O   0  0  0  0  0  0  0  0  0  0  0  0
   11.6140  -17.8110   19.4328 O   0  0  0  0  0  0  0  0  0  0  0  0
  2  1  1  1
  2  3  1  0
  3  4  1  0
  4  9  2  0
  5  6  2  0
  5  4  1  0
  6  7  1  0
  7  8  2  0
  9  8  1  0
 10  2  1  0
 10 12  1  0
 11 10  2  0
 13 12  1  0
 13 14  1  6
 14 15  1  0
 15 19  1  0
 15 16  2  0
 16 17  1  0
 18 17  1  0
 19 18  2  0
 20 21  2  0
 20 13  1  0
 22 23  1  0
 24 23  1  1
 24 25  1  0
 24 26  1  0
 25 20  1  0
 26 28  2  0
 26 27  1  0
M  END
$$$$
