FHS.pdb
     RDKit          3D

 28 29  0  0  1  0  0  0  0  0999 V2000
    7.0187  -17.5840   26.2513 N   0  0  0  0  0  0  0  0  0  0  0  0
    7.0268  -16.5013   25.3206 C   0  0  1  0  0  0  0  0  0  0  0  0
    6.9585  -15.2023   26.1117 C   0  0  0  0  0  0  0  0  0  0  0  0
    8.1688  -14.9645   26.9302 C   0  0  0  0  0  0  0  0  0  0  0  0
    8.9703  -13.8799   26.6443 C   0  0  0  0  0  0  0  0  0  0  0  0
   10.1255  -13.6121   27.3822 C   0  0  0  0  0  0  0  0  0  0  0  0
   10.4641  -14.4638   28.4243 C   0  0  0  0  0  0  0  0  0  0  0  0
    9.6769  -15.5540   28.7272 C   0  0  0  0  0  0  0  0  0  0  0  0
    8.5476  -15.7796   27.9737 C   0  0  0  0  0  0  0  0  0  0  0  0
    8.2049  -16.5057   24.4263 C   0  0  0  0  0  0  0  0  0  0  0  0
    8.9915  -17.4804   24.3823 O   0  0  0  0  0  0  0  0  0  0  0  0
    8.4485  -15.3848   23.6024 N   0  0  0  0  0  0  0  0  0  0  0  0
    9.4710  -15.3180   22.5852 C   0  0  1  0  0  0  0  0  0  0  0  0
    9.4181  -14.0008   21.8949 C   0  0  0  0  0  0  0  0  0  0  0  0
    8.3380  -13.8427   20.8991 C   0  0  0  0  0  0  0  0  0  0  0  0
    7.3162  -12.9528   20.8178 C   0  0  0  0  0  0  0  0  0  0  0  0
    6.5686  -13.2277   19.7217 N   0  0  0  0  0  0  0  0  0  0  0  0
    7.1229  -14.2820   19.1267 C   0  0  0  0  0  0  0  0  0  0  0  0
    8.1857  -14.6707   19.8126 N   0  0  0  0  0  0  0  0  0  0  0  0
   10.8367  -15.4193   23.2049 C   0  0  0  0  0  0  0  0  0  0  0  0
   11.1608  -14.6105   24.1086 O   0  0  0  0  0  0  0  0  0  0  0  0
   12.6472  -18.8705   23.3868 O   0  0  0  0  0  0  0  0  0  0  0  0
   13.1228  -17.8674   24.2522 C   0  0  0  0  0  0  0  0  0  0  0  0
   13.0663  -16.5753   23.4708 C   0  0  2  0  0  0  0  0  0  0  0  0
   11.7846  -16.3905   22.8165 N   0  0  0  0  0  0  0  0  0  0  0  0
   14.1645  -16.4870   22.5096 C   0  0  0  0  0  0  0  0  0  0  0  0
   15.4821  -16.5479   22.9112 O   0  0  0  0  0  0  0  0  0  0  0  0
   13.9064  -16.3525   21.2893 O   0  0  0  0  0  0  0  0  0  0  0  0
  2  1  1  1
  2  3  1  0
  3  4  1  0
  4  9  2  0
  5  6  2  0
  5  4  1  0
  6  7  1  0
  7  8  2  0
  9  8  1  0
 10  2  1  0
 10 12  1  0
 11 10  2  0
 13 12  1  0
 13 14  1  1
 14 15  1  0
 15 19  1  0
 15 16  2  0
 16 17  1  0
 18 17  1  0
 19 18  2  0
 20 21  2  0
 20 13  1  0
 22 23  1  0
 24 23  1  6
 24 25  1  0
 24 26  1  0
 25 20  1  0
 26 28  2  0
 26 27  1  0
M  END
$$$$
