FHS.pdb
     RDKit          3D

 28 29  0  0  1  0  0  0  0  0999 V2000
    5.3785  -17.3788   24.3421 N   0  0  0  0  0  0  0  0  0  0  0  0
    6.2944  -16.2955   24.5036 C   0  0  1  0  0  0  0  0  0  0  0  0
    6.5524  -16.1177   25.9934 C   0  0  0  0  0  0  0  0  0  0  0  0
    6.9002  -14.7246   26.3535 C   0  0  0  0  0  0  0  0  0  0  0  0
    5.8880  -13.8121   26.5610 C   0  0  0  0  0  0  0  0  0  0  0  0
    6.1609  -12.4844   26.8983 C   0  0  0  0  0  0  0  0  0  0  0  0
    7.4844  -12.0865   27.0246 C   0  0  0  0  0  0  0  0  0  0  0  0
    8.5119  -12.9826   26.8215 C   0  0  0  0  0  0  0  0  0  0  0  0
    8.1968  -14.2807   26.4907 C   0  0  0  0  0  0  0  0  0  0  0  0
    7.5663  -16.4892   23.7737 C   0  0  0  0  0  0  0  0  0  0  0  0
    8.1041  -17.6173   23.6811 O   0  0  0  0  0  0  0  0  0  0  0  0
    8.1886  -15.3761   23.1669 N   0  0  0  0  0  0  0  0  0  0  0  0
    9.3771  -15.4423   22.3497 C   0  0  1  0  0  0  0  0  0  0  0  0
    9.5637  -14.1608   21.6167 C   0  0  0  0  0  0  0  0  0  0  0  0
    8.6723  -13.9508   20.4572 C   0  0  0  0  0  0  0  0  0  0  0  0
    8.9241  -13.9352   19.1234 C   0  0  0  0  0  0  0  0  0  0  0  0
    7.7745  -13.6800   18.4532 N   0  0  0  0  0  0  0  0  0  0  0  0
    6.8152  -13.5377   19.3656 C   0  0  0  0  0  0  0  0  0  0  0  0
    7.3269  -13.6952   20.5757 N   0  0  0  0  0  0  0  0  0  0  0  0
   10.5969  -15.6224   23.2094 C   0  0  0  0  0  0  0  0  0  0  0  0
   11.0936  -14.6236   23.7850 O   0  0  0  0  0  0  0  0  0  0  0  0
   12.2309  -19.3326   23.6720 O   0  0  0  0  0  0  0  0  0  0  0  0
   12.4960  -18.4774   24.7581 C   0  0  0  0  0  0  0  0  0  0  0  0
   12.4048  -17.0693   24.2176 C   0  0  2  0  0  0  0  0  0  0  0  0
   11.2195  -16.8744   23.4039 N   0  0  0  0  0  0  0  0  0  0  0  0
   13.6137  -16.7032   23.4812 C   0  0  0  0  0  0  0  0  0  0  0  0
   14.8478  -16.6614   24.0945 O   0  0  0  0  0  0  0  0  0  0  0  0
   13.5307  -16.4196   22.2620 O   0  0  0  0  0  0  0  0  0  0  0  0
  2  1  1  1
  2  3  1  0
  3  4  1  0
  4  9  2  0
  5  6  2  0
  5  4  1  0
  6  7  1  0
  7  8  2  0
  9  8  1  0
 10  2  1  0
 10 12  1  0
 11 10  2  0
 13 12  1  0
 13 14  1  1
 14 15  1  0
 15 19  1  0
 15 16  2  0
 16 17  1  0
 18 17  1  0
 19 18  2  0
 20 21  2  0
 20 13  1  0
 22 23  1  0
 24 23  1  6
 24 25  1  0
 24 26  1  0
 25 20  1  0
 26 28  2  0
 26 27  1  0
M  END
$$$$
