FHS.pdb
     RDKit          3D

 28 29  0  0  1  0  0  0  0  0999 V2000
    6.1687  -16.5576   24.8142 N   0  0  0  0  0  0  0  0  0  0  0  0
    7.4679  -15.9661   24.7879 C   0  0  1  0  0  0  0  0  0  0  0  0
    7.6962  -15.2764   26.1259 C   0  0  0  0  0  0  0  0  0  0  0  0
    7.0777  -13.9331   26.1920 C   0  0  0  0  0  0  0  0  0  0  0  0
    7.6253  -12.9047   25.4553 C   0  0  0  0  0  0  0  0  0  0  0  0
    7.0837  -11.6176   25.4850 C   0  0  0  0  0  0  0  0  0  0  0  0
    5.9694  -11.3806   26.2774 C   0  0  0  0  0  0  0  0  0  0  0  0
    5.4059  -12.3944   27.0220 C   0  0  0  0  0  0  0  0  0  0  0  0
    5.9725  -13.6472   26.9625 C   0  0  0  0  0  0  0  0  0  0  0  0
    8.5488  -16.9370   24.5108 C   0  0  0  0  0  0  0  0  0  0  0  0
    8.4920  -18.1180   24.9261 O   0  0  0  0  0  0  0  0  0  0  0  0
    9.6710  -16.5228   23.7601 N   0  0  0  0  0  0  0  0  0  0  0  0
   10.7950  -17.3657   23.4275 C   0  0  1  0  0  0  0  0  0  0  0  0
   11.4657  -16.8597   22.1992 C   0  0  0  0  0  0  0  0  0  0  0  0
   10.7040  -17.0166   20.9429 C   0  0  0  0  0  0  0  0  0  0  0  0
    9.8478  -17.9848   20.5281 C   0  0  0  0  0  0  0  0  0  0  0  0
    9.4131  -17.6933   19.2783 N   0  0  0  0  0  0  0  0  0  0  0  0
    9.9964  -16.5513   18.9196 C   0  0  0  0  0  0  0  0  0  0  0  0
   10.7759  -16.1242   19.8999 N   0  0  0  0  0  0  0  0  0  0  0  0
   11.8245  -17.3255   24.5219 C   0  0  0  0  0  0  0  0  0  0  0  0
   12.0816  -16.2315   25.0812 O   0  0  0  0  0  0  0  0  0  0  0  0
   11.6600  -19.8263   28.1080 O   0  0  0  0  0  0  0  0  0  0  0  0
   11.5190  -18.7803   27.1767 C   0  0  0  0  0  0  0  0  0  0  0  0
   12.7849  -18.7774   26.3516 C   0  0  2  0  0  0  0  0  0  0  0  0
   12.5254  -18.4709   24.9575 N   0  0  0  0  0  0  0  0  0  0  0  0
   13.5098  -20.0401   26.4858 C   0  0  0  0  0  0  0  0  0  0  0  0
   14.0412  -20.4428   27.6926 O   0  0  0  0  0  0  0  0  0  0  0  0
   13.6540  -20.7779   25.4815 O   0  0  0  0  0  0  0  0  0  0  0  0
  2  1  1  1
  2  3  1  0
  3  4  1  0
  4  9  2  0
  5  6  2  0
  5  4  1  0
  6  7  1  0
  7  8  2  0
  9  8  1  0
 10  2  1  0
 10 12  1  0
 11 10  2  0
 13 12  1  0
 13 14  1  6
 14 15  1  0
 15 19  1  0
 15 16  2  0
 16 17  1  0
 18 17  1  0
 19 18  2  0
 20 21  2  0
 20 13  1  0
 22 23  1  0
 24 23  1  1
 24 25  1  0
 24 26  1  0
 25 20  1  0
 26 28  2  0
 26 27  1  0
M  END
$$$$
