FHS.pdb
     RDKit          3D

 28 29  0  0  1  0  0  0  0  0999 V2000
    5.5269  -16.8672   24.7206 N   0  0  0  0  0  0  0  0  0  0  0  0
    6.6026  -15.9336   24.6231 C   0  0  1  0  0  0  0  0  0  0  0  0
    7.0437  -15.5773   26.0361 C   0  0  0  0  0  0  0  0  0  0  0  0
    6.8280  -14.1494   26.3617 C   0  0  0  0  0  0  0  0  0  0  0  0
    7.9163  -13.3069   26.4407 C   0  0  0  0  0  0  0  0  0  0  0  0
    7.7692  -11.9526   26.7487 C   0  0  0  0  0  0  0  0  0  0  0  0
    6.4942  -11.4551   26.9784 C   0  0  0  0  0  0  0  0  0  0  0  0
    5.3923  -12.2799   26.9046 C   0  0  0  0  0  0  0  0  0  0  0  0
    5.5840  -13.6077   26.5981 C   0  0  0  0  0  0  0  0  0  0  0  0
    7.7461  -16.4369   23.8314 C   0  0  0  0  0  0  0  0  0  0  0  0
    8.0003  -17.6615   23.7517 O   0  0  0  0  0  0  0  0  0  0  0  0
    8.5704  -15.5153   23.1491 N   0  0  0  0  0  0  0  0  0  0  0  0
    9.5802  -15.8740   22.1816 C   0  0  1  0  0  0  0  0  0  0  0  0
    9.8373  -14.7302   21.2650 C   0  0  0  0  0  0  0  0  0  0  0  0
    8.8121  -14.4992   20.2264 C   0  0  0  0  0  0  0  0  0  0  0  0
    7.7267  -15.2273   19.8597 C   0  0  0  0  0  0  0  0  0  0  0  0
    7.0983  -14.6083   18.8312 N   0  0  0  0  0  0  0  0  0  0  0  0
    7.7898  -13.5030   18.5610 C   0  0  0  0  0  0  0  0  0  0  0  0
    8.8227  -13.4137   19.3832 N   0  0  0  0  0  0  0  0  0  0  0  0
   10.8842  -16.1708   22.8679 C   0  0  0  0  0  0  0  0  0  0  0  0
   11.2255  -15.4807   23.8594 O   0  0  0  0  0  0  0  0  0  0  0  0
   14.6901  -19.0770   23.5062 O   0  0  0  0  0  0  0  0  0  0  0  0
   13.4890  -18.9044   22.7929 C   0  0  0  0  0  0  0  0  0  0  0  0
   13.0209  -17.4988   23.0900 C   0  0  2  0  0  0  0  0  0  0  0  0
   11.7549  -17.1995   22.4478 N   0  0  0  0  0  0  0  0  0  0  0  0
   14.0385  -16.5124   22.7304 C   0  0  0  0  0  0  0  0  0  0  0  0
   15.2270  -16.4160   23.4228 O   0  0  0  0  0  0  0  0  0  0  0  0
   13.8296  -15.7333   21.7697 O   0  0  0  0  0  0  0  0  0  0  0  0
  2  1  1  1
  2  3  1  0
  3  4  1  0
  4  9  2  0
  5  6  2  0
  5  4  1  0
  6  7  1  0
  7  8  2  0
  9  8  1  0
 10  2  1  0
 10 12  1  0
 11 10  2  0
 13 12  1  0
 13 14  1  6
 14 15  1  0
 15 19  1  0
 15 16  2  0
 16 17  1  0
 18 17  1  0
 19 18  2  0
 20 21  2  0
 20 13  1  0
 22 23  1  0
 24 23  1  6
 24 25  1  0
 24 26  1  0
 25 20  1  0
 26 28  2  0
 26 27  1  0
M  END
$$$$
