FHS.pdb
     RDKit          3D

 28 29  0  0  1  0  0  0  0  0999 V2000
    5.3901  -17.5233   24.5894 N   0  0  0  0  0  0  0  0  0  0  0  0
    6.1663  -16.3259   24.6366 C   0  0  1  0  0  0  0  0  0  0  0  0
    6.3100  -15.9175   26.0962 C   0  0  0  0  0  0  0  0  0  0  0  0
    6.5499  -14.4666   26.2653 C   0  0  0  0  0  0  0  0  0  0  0  0
    7.8202  -14.0271   26.5713 C   0  0  0  0  0  0  0  0  0  0  0  0
    8.1000  -12.6699   26.7457 C   0  0  0  0  0  0  0  0  0  0  0  0
    7.0684  -11.7524   26.6052 C   0  0  0  0  0  0  0  0  0  0  0  0
    5.7909  -12.1700   26.2995 C   0  0  0  0  0  0  0  0  0  0  0  0
    5.5606  -13.5170   26.1365 C   0  0  0  0  0  0  0  0  0  0  0  0
    7.4946  -16.4627   24.0004 C   0  0  0  0  0  0  0  0  0  0  0  0
    8.1966  -17.4882   24.1616 O   0  0  0  0  0  0  0  0  0  0  0  0
    7.9825  -15.4125   23.1920 N   0  0  0  0  0  0  0  0  0  0  0  0
    9.1944  -15.4717   22.4094 C   0  0  1  0  0  0  0  0  0  0  0  0
    9.3423  -14.2291   21.6040 C   0  0  0  0  0  0  0  0  0  0  0  0
    8.4956  -14.1445   20.3961 C   0  0  0  0  0  0  0  0  0  0  0  0
    7.6912  -15.0603   19.7987 C   0  0  0  0  0  0  0  0  0  0  0  0
    7.1328  -14.5124   18.6924 N   0  0  0  0  0  0  0  0  0  0  0  0
    7.5883  -13.2645   18.6036 C   0  0  0  0  0  0  0  0  0  0  0  0
    8.4077  -13.0183   19.6131 N   0  0  0  0  0  0  0  0  0  0  0  0
   10.3975  -15.5423   23.3078 C   0  0  0  0  0  0  0  0  0  0  0  0
   10.5716  -14.6467   24.1699 O   0  0  0  0  0  0  0  0  0  0  0  0
   12.4018  -18.9669   23.7845 O   0  0  0  0  0  0  0  0  0  0  0  0
   12.6499  -17.9889   24.7660 C   0  0  0  0  0  0  0  0  0  0  0  0
   12.5341  -16.6535   24.0686 C   0  0  2  0  0  0  0  0  0  0  0  0
   11.3531  -16.5784   23.2292 N   0  0  0  0  0  0  0  0  0  0  0  0
   13.7422  -16.3461   23.3046 C   0  0  0  0  0  0  0  0  0  0  0  0
   14.9804  -16.2801   23.9075 O   0  0  0  0  0  0  0  0  0  0  0  0
   13.6548  -16.1368   22.0708 O   0  0  0  0  0  0  0  0  0  0  0  0
  2  1  1  1
  2  3  1  0
  3  4  1  0
  4  9  2  0
  5  6  2  0
  5  4  1  0
  6  7  1  0
  7  8  2  0
  9  8  1  0
 10  2  1  0
 10 12  1  0
 11 10  2  0
 13 12  1  0
 13 14  1  1
 14 15  1  0
 15 19  1  0
 15 16  2  0
 16 17  1  0
 18 17  1  0
 19 18  2  0
 20 21  2  0
 20 13  1  0
 22 23  1  0
 24 23  1  6
 24 25  1  0
 24 26  1  0
 25 20  1  0
 26 28  2  0
 26 27  1  0
M  END
$$$$
