FHS.pdb
     RDKit          3D

 28 29  0  0  1  0  0  0  0  0999 V2000
    5.5741  -17.5443   24.7208 N   0  0  0  0  0  0  0  0  0  0  0  0
    6.3918  -16.3739   24.7264 C   0  0  1  0  0  0  0  0  0  0  0  0
    6.6452  -15.9860   26.1767 C   0  0  0  0  0  0  0  0  0  0  0  0
    6.7338  -14.5212   26.3719 C   0  0  0  0  0  0  0  0  0  0  0  0
    7.9367  -13.9661   26.7529 C   0  0  0  0  0  0  0  0  0  0  0  0
    8.0738  -12.5909   26.9548 C   0  0  0  0  0  0  0  0  0  0  0  0
    6.9675  -11.7749   26.7647 C   0  0  0  0  0  0  0  0  0  0  0  0
    5.7553  -12.3090   26.3838 C   0  0  0  0  0  0  0  0  0  0  0  0
    5.6658  -13.6695   26.1961 C   0  0  0  0  0  0  0  0  0  0  0  0
    7.6698  -16.5479   24.0025 C   0  0  0  0  0  0  0  0  0  0  0  0
    8.2745  -17.6456   23.9937 O   0  0  0  0  0  0  0  0  0  0  0  0
    8.2211  -15.4509   23.3046 N   0  0  0  0  0  0  0  0  0  0  0  0
    9.4096  -15.5092   22.4869 C   0  0  1  0  0  0  0  0  0  0  0  0
    9.6015  -14.2174   21.7735 C   0  0  0  0  0  0  0  0  0  0  0  0
    8.6923  -13.9739   20.6346 C   0  0  0  0  0  0  0  0  0  0  0  0
    8.9054  -14.0042   19.2943 C   0  0  0  0  0  0  0  0  0  0  0  0
    7.7560  -13.6877   18.6504 N   0  0  0  0  0  0  0  0  0  0  0  0
    6.8354  -13.4619   19.5854 C   0  0  0  0  0  0  0  0  0  0  0  0
    7.3708  -13.6267   20.7843 N   0  0  0  0  0  0  0  0  0  0  0  0
   10.6284  -15.7071   23.3441 C   0  0  0  0  0  0  0  0  0  0  0  0
   10.9050  -14.8536   24.2221 O   0  0  0  0  0  0  0  0  0  0  0  0
   12.2254  -19.3174   23.9079 O   0  0  0  0  0  0  0  0  0  0  0  0
   12.5900  -18.3097   24.8205 C   0  0  0  0  0  0  0  0  0  0  0  0
   12.6707  -17.0286   24.0232 C   0  0  2  0  0  0  0  0  0  0  0  0
   11.4882  -16.8186   23.2093 N   0  0  0  0  0  0  0  0  0  0  0  0
   13.8839  -16.9851   23.2084 C   0  0  0  0  0  0  0  0  0  0  0  0
   13.8276  -16.8792   21.8348 O   0  0  0  0  0  0  0  0  0  0  0  0
   15.0050  -17.0452   23.7682 O   0  0  0  0  0  0  0  0  0  0  0  0
  2  1  1  1
  2  3  1  0
  3  4  1  0
  4  9  2  0
  5  6  2  0
  5  4  1  0
  6  7  1  0
  7  8  2  0
  9  8  1  0
 10  2  1  0
 10 12  1  0
 11 10  2  0
 13 12  1  0
 13 14  1  1
 14 15  1  0
 15 19  1  0
 15 16  2  0
 16 17  1  0
 18 17  1  0
 19 18  2  0
 20 21  2  0
 20 13  1  0
 22 23  1  0
 24 23  1  6
 24 25  1  0
 24 26  1  0
 25 20  1  0
 26 28  2  0
 26 27  1  0
M  END
$$$$
