FHS.pdb
     RDKit          3D

 28 29  0  0  1  0  0  0  0  0999 V2000
    7.5344  -17.1452   20.0350 N   0  0  0  0  0  0  0  0  0  0  0  0
    8.8174  -16.7065   20.4820 C   0  0  1  0  0  0  0  0  0  0  0  0
    8.6040  -15.6106   21.5171 C   0  0  0  0  0  0  0  0  0  0  0  0
    8.0962  -14.3527   20.9246 C   0  0  0  0  0  0  0  0  0  0  0  0
    8.9951  -13.3819   20.5376 C   0  0  0  0  0  0  0  0  0  0  0  0
    8.5694  -12.1754   19.9774 C   0  0  0  0  0  0  0  0  0  0  0  0
    7.2084  -11.9601   19.8117 C   0  0  0  0  0  0  0  0  0  0  0  0
    6.2923  -12.9172   20.1918 C   0  0  0  0  0  0  0  0  0  0  0  0
    6.7566  -14.0913   20.7394 C   0  0  0  0  0  0  0  0  0  0  0  0
    9.6481  -17.7958   21.0398 C   0  0  0  0  0  0  0  0  0  0  0  0
    9.1460  -18.7209   21.7201 O   0  0  0  0  0  0  0  0  0  0  0  0
   11.0397  -17.7929   20.7996 N   0  0  0  0  0  0  0  0  0  0  0  0
   11.9638  -18.7808   21.3045 C   0  0  1  0  0  0  0  0  0  0  0  0
   13.2687  -18.6661   20.5984 C   0  0  0  0  0  0  0  0  0  0  0  0
   14.2781  -19.6867   20.9487 C   0  0  0  0  0  0  0  0  0  0  0  0
   14.2248  -20.7479   21.7935 C   0  0  0  0  0  0  0  0  0  0  0  0
   15.4219  -21.3826   21.7918 N   0  0  0  0  0  0  0  0  0  0  0  0
   16.2133  -20.7190   20.9514 C   0  0  0  0  0  0  0  0  0  0  0  0
   15.5518  -19.6973   20.4322 N   0  0  0  0  0  0  0  0  0  0  0  0
   12.2458  -18.5409   22.7613 C   0  0  0  0  0  0  0  0  0  0  0  0
   12.5757  -17.3905   23.1402 O   0  0  0  0  0  0  0  0  0  0  0  0
   10.5266  -20.7132   25.5110 O   0  0  0  0  0  0  0  0  0  0  0  0
   11.1144  -19.5158   25.9604 C   0  0  0  0  0  0  0  0  0  0  0  0
   12.3798  -19.3391   25.1537 C   0  0  2  0  0  0  0  0  0  0  0  0
   12.1571  -19.5575   23.7368 N   0  0  0  0  0  0  0  0  0  0  0  0
   13.4536  -20.1956   25.6549 C   0  0  0  0  0  0  0  0  0  0  0  0
   13.8777  -20.1297   26.9651 O   0  0  0  0  0  0  0  0  0  0  0  0
   14.0051  -21.0114   24.8776 O   0  0  0  0  0  0  0  0  0  0  0  0
  2  1  1  1
  2  3  1  0
  3  4  1  0
  4  9  2  0
  5  6  2  0
  5  4  1  0
  6  7  1  0
  7  8  2  0
  9  8  1  0
 10  2  1  0
 10 12  1  0
 11 10  2  0
 13 12  1  0
 13 14  1  6
 14 15  1  0
 15 19  1  0
 15 16  2  0
 16 17  1  0
 18 17  1  0
 19 18  2  0
 20 21  2  0
 20 13  1  0
 22 23  1  0
 24 23  1  1
 24 25  1  0
 24 26  1  0
 25 20  1  0
 26 28  2  0
 26 27  1  0
M  END
$$$$
