EVF.pdb
     RDKit          3D

 28 28  0  0  1  0  0  0  0  0999 V2000
   11.5225  -16.7416   18.2932 N   0  0  0  0  0  0  0  0  0  0  0  0
   11.0651  -17.4468   19.4535 C   0  0  1  0  0  0  0  0  0  0  0  0
   12.1161  -18.2822   20.1039 C   0  0  0  0  0  0  0  0  0  0  0  0
   12.9969  -19.0452   19.1775 C   0  0  0  0  0  0  0  0  0  0  0  0
   14.0280  -19.8613   19.8202 C   0  0  0  0  0  0  0  0  0  0  0  0
   14.2524  -19.9236   21.0490 O   0  0  0  0  0  0  0  0  0  0  0  0
   10.5006  -16.5039   20.4814 C   0  0  0  0  0  0  0  0  0  0  0  0
   11.1238  -15.4678   20.8259 O   0  0  0  0  0  0  0  0  0  0  0  0
   14.8418  -20.6456   19.0045 O   0  0  0  0  0  0  0  0  0  0  0  0
    6.5664  -14.6953   22.7458 C   0  0  0  0  0  0  0  0  0  0  0  0
    7.1977  -15.6036   21.7114 C   0  0  1  0  0  0  0  0  0  0  0  0
    6.9953  -14.9621   20.3647 C   0  0  0  0  0  0  0  0  0  0  0  0
    8.6644  -15.7990   22.0438 C   0  0  2  0  0  0  0  0  0  0  0  0
    9.2408  -16.7430   21.1064 N   0  0  0  0  0  0  0  0  0  0  0  0
    8.8485  -16.2360   23.4499 C   0  0  0  0  0  0  0  0  0  0  0  0
    8.9368  -17.4659   23.6905 O   0  0  0  0  0  0  0  0  0  0  0  0
    8.9237  -15.2877   24.5034 N   0  0  0  0  0  0  0  0  0  0  0  0
    9.1181  -15.6193   25.8973 C   0  0  1  0  0  0  0  0  0  0  0  0
    9.4409  -14.4446   26.7414 C   0  0  0  0  0  0  0  0  0  0  0  0
    8.4458  -13.3711   26.5564 C   0  0  0  0  0  0  0  0  0  0  0  0
    8.6734  -12.3013   25.6842 C   0  0  0  0  0  0  0  0  0  0  0  0
    7.7502  -11.3107   25.4883 C   0  0  0  0  0  0  0  0  0  0  0  0
    6.5443  -11.3542   26.1692 C   0  0  0  0  0  0  0  0  0  0  0  0
    6.3138  -12.4207   27.0406 C   0  0  0  0  0  0  0  0  0  0  0  0
    7.2412  -13.4159   27.2375 C   0  0  0  0  0  0  0  0  0  0  0  0
    8.0088  -16.4734   26.3713 C   0  0  0  0  0  0  0  0  0  0  0  0
    8.1628  -17.2168   27.5319 O   0  0  0  0  0  0  0  0  0  0  0  0
    6.8982  -16.5895   25.7978 O   0  0  0  0  0  0  0  0  0  0  0  0
  2  1  1  6
  2  3  1  0
  3  4  1  0
  4  5  1  0
  5  9  1  0
  6  5  2  0
  7  8  2  0
  7  2  1  0
 11 10  1  1
 11 13  1  0
 11 12  1  0
 13 14  1  6
 14  7  1  0
 15 13  1  0
 16 15  2  0
 17 15  1  0
 18 17  1  0
 18 19  1  1
 19 20  1  0
 20 25  2  0
 20 21  1  0
 21 22  2  0
 22 23  1  0
 24 23  2  0
 25 24  1  0
 26 18  1  0
 27 26  1  0
 28 26  2  0
M  END
$$$$
