EVF.pdb
     RDKit          3D

 28 28  0  0  1  0  0  0  0  0999 V2000
    6.7495  -17.7639   19.0927 N   0  0  0  0  0  0  0  0  0  0  0  0
    7.6220  -17.0077   19.9411 C   0  0  1  0  0  0  0  0  0  0  0  0
    7.8427  -15.6057   19.4816 C   0  0  0  0  0  0  0  0  0  0  0  0
    8.5558  -15.4583   18.1832 C   0  0  0  0  0  0  0  0  0  0  0  0
    8.5623  -14.1076   17.6195 C   0  0  0  0  0  0  0  0  0  0  0  0
    9.1177  -13.1066   18.1231 O   0  0  0  0  0  0  0  0  0  0  0  0
    7.1146  -16.9719   21.3574 C   0  0  0  0  0  0  0  0  0  0  0  0
    5.9328  -16.6308   21.6167 O   0  0  0  0  0  0  0  0  0  0  0  0
    7.8944  -13.9006   16.4138 O   0  0  0  0  0  0  0  0  0  0  0  0
    5.9298  -19.2020   23.2048 C   0  0  0  0  0  0  0  0  0  0  0  0
    7.0141  -18.7586   24.1645 C   0  0  1  0  0  0  0  0  0  0  0  0
    8.1463  -19.7440   24.0518 C   0  0  0  0  0  0  0  0  0  0  0  0
    7.4418  -17.3450   23.8197 C   0  0  2  0  0  0  0  0  0  0  0  0
    7.9478  -17.3215   22.4612 N   0  0  0  0  0  0  0  0  0  0  0  0
    8.4395  -16.8283   24.7889 C   0  0  0  0  0  0  0  0  0  0  0  0
    9.6568  -16.8770   24.4820 O   0  0  0  0  0  0  0  0  0  0  0  0
    8.0313  -16.2898   26.0371 N   0  0  0  0  0  0  0  0  0  0  0  0
    8.9204  -15.6822   27.0020 C   0  0  1  0  0  0  0  0  0  0  0  0
    8.2801  -14.6064   27.7953 C   0  0  0  0  0  0  0  0  0  0  0  0
    7.7220  -13.5615   26.9156 C   0  0  0  0  0  0  0  0  0  0  0  0
    6.3500  -13.4759   26.6563 C   0  0  0  0  0  0  0  0  0  0  0  0
    5.8178  -12.4995   25.8593 C   0  0  0  0  0  0  0  0  0  0  0  0
    6.6525  -11.5562   25.2821 C   0  0  0  0  0  0  0  0  0  0  0  0
    8.0226  -11.6387   25.5389 C   0  0  0  0  0  0  0  0  0  0  0  0
    8.5574  -12.6195   26.3396 C   0  0  0  0  0  0  0  0  0  0  0  0
    9.6173  -16.7314   27.7754 C   0  0  0  0  0  0  0  0  0  0  0  0
   10.7508  -16.4070   28.5056 O   0  0  0  0  0  0  0  0  0  0  0  0
    9.2613  -17.9338   27.8346 O   0  0  0  0  0  0  0  0  0  0  0  0
  2  1  1  6
  2  3  1  0
  3  4  1  0
  4  5  1  0
  5  9  1  0
  6  5  2  0
  7  8  2  0
  7  2  1  0
 11 10  1  6
 11 13  1  0
 11 12  1  0
 13 14  1  6
 14  7  1  0
 15 13  1  0
 16 15  2  0
 17 15  1  0
 18 17  1  0
 18 19  1  1
 19 20  1  0
 20 25  2  0
 20 21  1  0
 21 22  2  0
 22 23  1  0
 24 23  2  0
 25 24  1  0
 26 18  1  0
 27 26  1  0
 28 26  2  0
M  END
$$$$
