EVF.pdb
     RDKit          3D

 28 28  0  0  1  0  0  0  0  0999 V2000
    7.3438  -18.7497   20.9599 N   0  0  0  0  0  0  0  0  0  0  0  0
    8.5616  -18.4692   20.2591 C   0  0  1  0  0  0  0  0  0  0  0  0
    8.4088  -18.4354   18.7755 C   0  0  0  0  0  0  0  0  0  0  0  0
    9.6764  -18.3520   17.9993 C   0  0  0  0  0  0  0  0  0  0  0  0
    9.5239  -18.3646   16.5437 C   0  0  0  0  0  0  0  0  0  0  0  0
    8.5368  -18.8050   15.9146 O   0  0  0  0  0  0  0  0  0  0  0  0
    9.1644  -17.1651   20.7070 C   0  0  0  0  0  0  0  0  0  0  0  0
   10.4020  -16.9589   20.6274 O   0  0  0  0  0  0  0  0  0  0  0  0
   10.5625  -17.8429   15.7744 O   0  0  0  0  0  0  0  0  0  0  0  0
    7.5825  -13.9607   19.7960 C   0  0  0  0  0  0  0  0  0  0  0  0
    8.0346  -13.7180   21.2209 C   0  0  1  0  0  0  0  0  0  0  0  0
    6.7989  -13.6104   22.0737 C   0  0  0  0  0  0  0  0  0  0  0  0
    8.9422  -14.8513   21.6590 C   0  0  2  0  0  0  0  0  0  0  0  0
    8.3624  -16.1119   21.2385 N   0  0  0  0  0  0  0  0  0  0  0  0
    9.1854  -14.8169   23.1224 C   0  0  0  0  0  0  0  0  0  0  0  0
    9.7996  -13.8338   23.6067 O   0  0  0  0  0  0  0  0  0  0  0  0
    8.7352  -15.8703   23.9605 N   0  0  0  0  0  0  0  0  0  0  0  0
    8.9008  -15.9080   25.3964 C   0  0  1  0  0  0  0  0  0  0  0  0
    7.6395  -15.6774   26.1397 C   0  0  0  0  0  0  0  0  0  0  0  0
    7.3646  -14.2346   26.2798 C   0  0  0  0  0  0  0  0  0  0  0  0
    8.3328  -13.3459   26.7591 C   0  0  0  0  0  0  0  0  0  0  0  0
    8.0972  -12.0031   26.8741 C   0  0  0  0  0  0  0  0  0  0  0  0
    6.8632  -11.4905   26.5076 C   0  0  0  0  0  0  0  0  0  0  0  0
    5.8945  -12.3748   26.0287 C   0  0  0  0  0  0  0  0  0  0  0  0
    6.1311  -13.7238   25.9131 C   0  0  0  0  0  0  0  0  0  0  0  0
    9.6715  -17.1085   25.7832 C   0  0  0  0  0  0  0  0  0  0  0  0
    9.9558  -17.3400   27.1207 O   0  0  0  0  0  0  0  0  0  0  0  0
   10.1065  -17.9702   24.9806 O   0  0  0  0  0  0  0  0  0  0  0  0
  2  1  1  1
  2  3  1  0
  3  4  1  0
  4  5  1  0
  5  9  1  0
  6  5  2  0
  7  8  2  0
  7  2  1  0
 11 10  1  6
 11 13  1  0
 11 12  1  0
 13 14  1  1
 14  7  1  0
 15 13  1  0
 16 15  2  0
 17 15  1  0
 18 17  1  0
 18 19  1  1
 19 20  1  0
 20 25  2  0
 20 21  1  0
 21 22  2  0
 22 23  1  0
 24 23  2  0
 25 24  1  0
 26 18  1  0
 27 26  1  0
 28 26  2  0
M  END
$$$$
