EVF.pdb
     RDKit          3D

 28 28  0  0  1  0  0  0  0  0999 V2000
    9.8880  -14.2097   18.1794 N   0  0  0  0  0  0  0  0  0  0  0  0
   10.3993  -14.9678   19.2824 C   0  0  1  0  0  0  0  0  0  0  0  0
   11.6935  -14.4543   19.8180 C   0  0  0  0  0  0  0  0  0  0  0  0
   12.9195  -15.0162   19.1877 C   0  0  0  0  0  0  0  0  0  0  0  0
   14.1823  -14.6412   19.8255 C   0  0  0  0  0  0  0  0  0  0  0  0
   14.7023  -13.5038   19.8077 O   0  0  0  0  0  0  0  0  0  0  0  0
    9.4066  -15.0311   20.4116 C   0  0  0  0  0  0  0  0  0  0  0  0
    8.7739  -14.0090   20.7798 O   0  0  0  0  0  0  0  0  0  0  0  0
   14.8812  -15.6277   20.5191 O   0  0  0  0  0  0  0  0  0  0  0  0
    6.0900  -17.6780   22.7443 C   0  0  0  0  0  0  0  0  0  0  0  0
    7.1620  -17.5053   21.6887 C   0  0  1  0  0  0  0  0  0  0  0  0
    6.4669  -17.2734   20.3739 C   0  0  0  0  0  0  0  0  0  0  0  0
    8.0659  -16.3507   22.0761 C   0  0  2  0  0  0  0  0  0  0  0  0
    9.1416  -16.2466   21.1096 N   0  0  0  0  0  0  0  0  0  0  0  0
    8.5802  -16.5047   23.4594 C   0  0  0  0  0  0  0  0  0  0  0  0
    9.7268  -16.9913   23.6237 O   0  0  0  0  0  0  0  0  0  0  0  0
    7.7967  -16.1118   24.5758 N   0  0  0  0  0  0  0  0  0  0  0  0
    8.2317  -16.1829   25.9529 C   0  0  1  0  0  0  0  0  0  0  0  0
    7.3780  -15.4029   26.8799 C   0  0  0  0  0  0  0  0  0  0  0  0
    7.4674  -13.9585   26.5922 C   0  0  0  0  0  0  0  0  0  0  0  0
    8.6980  -13.2954   26.5386 C   0  0  0  0  0  0  0  0  0  0  0  0
    8.7957  -11.9611   26.2525 C   0  0  0  0  0  0  0  0  0  0  0  0
    7.6464  -11.2279   26.0051 C   0  0  0  0  0  0  0  0  0  0  0  0
    6.4164  -11.8866   26.0578 C   0  0  0  0  0  0  0  0  0  0  0  0
    6.3180  -13.2271   26.3452 C   0  0  0  0  0  0  0  0  0  0  0  0
    8.4818  -17.5900   26.3301 C   0  0  0  0  0  0  0  0  0  0  0  0
    7.7792  -18.6051   25.6985 O   0  0  0  0  0  0  0  0  0  0  0  0
    9.3048  -17.9628   27.2017 O   0  0  0  0  0  0  0  0  0  0  0  0
  2  1  1  6
  2  3  1  0
  3  4  1  0
  4  5  1  0
  5  9  1  0
  6  5  2  0
  7  8  2  0
  7  2  1  0
 11 10  1  1
 11 13  1  0
 11 12  1  0
 13 14  1  6
 14  7  1  0
 15 13  1  0
 16 15  2  0
 17 15  1  0
 18 17  1  0
 18 19  1  1
 19 20  1  0
 20 25  2  0
 20 21  1  0
 21 22  2  0
 22 23  1  0
 24 23  2  0
 25 24  1  0
 26 18  1  0
 27 26  1  0
 28 26  2  0
M  END
$$$$
