EVF.pdb
     RDKit          3D

 28 28  0  0  1  0  0  0  0  0999 V2000
    7.9859  -17.4087   19.5906 N   0  0  0  0  0  0  0  0  0  0  0  0
    8.7060  -17.9822   20.6886 C   0  0  1  0  0  0  0  0  0  0  0  0
   10.1875  -17.8526   20.5708 C   0  0  0  0  0  0  0  0  0  0  0  0
   10.7150  -16.4606   20.5820 C   0  0  0  0  0  0  0  0  0  0  0  0
   12.1733  -16.3409   20.5455 C   0  0  0  0  0  0  0  0  0  0  0  0
   12.9168  -16.1442   21.5317 O   0  0  0  0  0  0  0  0  0  0  0  0
    8.2768  -17.3814   21.9998 C   0  0  0  0  0  0  0  0  0  0  0  0
    7.7619  -16.2358   22.0530 O   0  0  0  0  0  0  0  0  0  0  0  0
   12.8064  -16.4535   19.3089 O   0  0  0  0  0  0  0  0  0  0  0  0
    6.0286  -19.3147   24.1816 C   0  0  0  0  0  0  0  0  0  0  0  0
    7.0950  -18.7842   25.1168 C   0  0  1  0  0  0  0  0  0  0  0  0
    8.0269  -19.9239   25.4306 C   0  0  0  0  0  0  0  0  0  0  0  0
    7.8078  -17.6201   24.4559 C   0  0  2  0  0  0  0  0  0  0  0  0
    8.4345  -18.0814   23.2326 N   0  0  0  0  0  0  0  0  0  0  0  0
    8.7887  -16.9918   25.3752 C   0  0  0  0  0  0  0  0  0  0  0  0
   10.0138  -17.1465   25.1439 O   0  0  0  0  0  0  0  0  0  0  0  0
    8.3560  -16.2315   26.4930 N   0  0  0  0  0  0  0  0  0  0  0  0
    9.2355  -15.5354   27.4054 C   0  0  1  0  0  0  0  0  0  0  0  0
    8.5995  -14.3665   28.0580 C   0  0  0  0  0  0  0  0  0  0  0  0
    7.8031  -13.5888   27.0896 C   0  0  0  0  0  0  0  0  0  0  0  0
    6.4063  -13.5471   27.1533 C   0  0  0  0  0  0  0  0  0  0  0  0
    5.6576  -12.8133   26.2742 C   0  0  0  0  0  0  0  0  0  0  0  0
    6.2891  -12.0814   25.2816 C   0  0  0  0  0  0  0  0  0  0  0  0
    7.6833  -12.1208   25.2152 C   0  0  0  0  0  0  0  0  0  0  0  0
    8.4356  -12.8579   26.0983 C   0  0  0  0  0  0  0  0  0  0  0  0
    9.8937  -16.5036   28.3078 C   0  0  0  0  0  0  0  0  0  0  0  0
    9.4970  -17.8324   28.2954 O   0  0  0  0  0  0  0  0  0  0  0  0
   10.8147  -16.2213   29.1127 O   0  0  0  0  0  0  0  0  0  0  0  0
  2  1  1  6
  2  3  1  0
  3  4  1  0
  4  5  1  0
  5  9  1  0
  6  5  2  0
  7  8  2  0
  7  2  1  0
 11 10  1  6
 11 13  1  0
 11 12  1  0
 13 14  1  6
 14  7  1  0
 15 13  1  0
 16 15  2  0
 17 15  1  0
 18 17  1  0
 18 19  1  1
 19 20  1  0
 20 25  2  0
 20 21  1  0
 21 22  2  0
 22 23  1  0
 24 23  2  0
 25 24  1  0
 26 18  1  0
 27 26  1  0
 28 26  2  0
M  END
$$$$
