EVF.pdb
     RDKit          3D

 28 28  0  0  1  0  0  0  0  0999 V2000
    8.4888  -18.4857   19.2982 N   0  0  0  0  0  0  0  0  0  0  0  0
    9.8178  -18.1534   19.7181 C   0  0  1  0  0  0  0  0  0  0  0  0
   10.8371  -18.2635   18.6345 C   0  0  0  0  0  0  0  0  0  0  0  0
   10.3320  -18.0477   17.2509 C   0  0  0  0  0  0  0  0  0  0  0  0
   11.3142  -18.2490   16.1847 C   0  0  0  0  0  0  0  0  0  0  0  0
   11.8487  -19.3371   15.8772 O   0  0  0  0  0  0  0  0  0  0  0  0
    9.8802  -16.7642   20.2931 C   0  0  0  0  0  0  0  0  0  0  0  0
   10.9787  -16.2361   20.6010 O   0  0  0  0  0  0  0  0  0  0  0  0
   11.6999  -17.1393   15.4348 O   0  0  0  0  0  0  0  0  0  0  0  0
    7.0747  -14.3942   19.4976 C   0  0  0  0  0  0  0  0  0  0  0  0
    7.8081  -13.7499   20.6554 C   0  0  1  0  0  0  0  0  0  0  0  0
    6.7700  -13.2304   21.6135 C   0  0  0  0  0  0  0  0  0  0  0  0
    8.7275  -14.7711   21.2973 C   0  0  2  0  0  0  0  0  0  0  0  0
    8.7023  -15.9901   20.5128 N   0  0  0  0  0  0  0  0  0  0  0  0
    8.3589  -15.0187   22.7132 C   0  0  0  0  0  0  0  0  0  0  0  0
    7.1503  -15.2149   22.9942 O   0  0  0  0  0  0  0  0  0  0  0  0
    9.3479  -15.0342   23.7312 N   0  0  0  0  0  0  0  0  0  0  0  0
    9.1019  -15.3823   25.1128 C   0  0  1  0  0  0  0  0  0  0  0  0
    7.6909  -15.1923   25.5246 C   0  0  0  0  0  0  0  0  0  0  0  0
    7.4751  -13.8352   26.0619 C   0  0  0  0  0  0  0  0  0  0  0  0
    8.5420  -12.9638   26.3053 C   0  0  0  0  0  0  0  0  0  0  0  0
    8.3537  -11.6959   26.7838 C   0  0  0  0  0  0  0  0  0  0  0  0
    7.0691  -11.2448   27.0408 C   0  0  0  0  0  0  0  0  0  0  0  0
    6.0019  -12.1121   26.7989 C   0  0  0  0  0  0  0  0  0  0  0  0
    6.1909  -13.3858   26.3182 C   0  0  0  0  0  0  0  0  0  0  0  0
    9.6926  -16.7038   25.4122 C   0  0  0  0  0  0  0  0  0  0  0  0
    9.6925  -17.1760   26.7162 O   0  0  0  0  0  0  0  0  0  0  0  0
   10.2120  -17.4661   24.5608 O   0  0  0  0  0  0  0  0  0  0  0  0
  2  1  1  6
  2  3  1  0
  3  4  1  0
  4  5  1  0
  5  9  1  0
  6  5  2  0
  7  8  2  0
  7  2  1  0
 11 10  1  6
 11 13  1  0
 11 12  1  0
 13 14  1  6
 14  7  1  0
 15 13  1  0
 16 15  2  0
 17 15  1  0
 18 17  1  0
 18 19  1  6
 19 20  1  0
 20 25  2  0
 20 21  1  0
 21 22  2  0
 22 23  1  0
 24 23  2  0
 25 24  1  0
 26 18  1  0
 27 26  1  0
 28 26  2  0
M  END
$$$$
