EVF.pdb
     RDKit          3D

 28 28  0  0  1  0  0  0  0  0999 V2000
   13.0553  -15.1650   20.2625 N   0  0  0  0  0  0  0  0  0  0  0  0
   12.1675  -16.2071   20.6854 C   0  0  1  0  0  0  0  0  0  0  0  0
   12.8433  -17.3085   21.4308 C   0  0  0  0  0  0  0  0  0  0  0  0
   13.1418  -18.5333   20.6391 C   0  0  0  0  0  0  0  0  0  0  0  0
   13.8310  -19.5998   21.3670 C   0  0  0  0  0  0  0  0  0  0  0  0
   14.0735  -20.7463   20.9302 O   0  0  0  0  0  0  0  0  0  0  0  0
   11.0535  -15.6653   21.5399 C   0  0  0  0  0  0  0  0  0  0  0  0
   11.2759  -14.8090   22.4330 O   0  0  0  0  0  0  0  0  0  0  0  0
   14.2624  -19.3305   22.6647 O   0  0  0  0  0  0  0  0  0  0  0  0
    6.2060  -15.0022   22.1500 C   0  0  0  0  0  0  0  0  0  0  0  0
    7.3561  -15.5296   21.3179 C   0  0  1  0  0  0  0  0  0  0  0  0
    7.4718  -14.6515   20.1008 C   0  0  0  0  0  0  0  0  0  0  0  0
    8.6217  -15.5285   22.1537 C   0  0  2  0  0  0  0  0  0  0  0  0
    9.7041  -16.0974   21.3747 N   0  0  0  0  0  0  0  0  0  0  0  0
    8.4260  -16.2502   23.4354 C   0  0  0  0  0  0  0  0  0  0  0  0
    8.9792  -17.3681   23.5863 O   0  0  0  0  0  0  0  0  0  0  0  0
    7.6317  -15.6928   24.4713 N   0  0  0  0  0  0  0  0  0  0  0  0
    7.4723  -16.2694   25.7876 C   0  0  1  0  0  0  0  0  0  0  0  0
    6.5679  -15.4896   26.6653 C   0  0  0  0  0  0  0  0  0  0  0  0
    6.8833  -14.0496   26.6038 C   0  0  0  0  0  0  0  0  0  0  0  0
    8.1357  -13.5555   26.9840 C   0  0  0  0  0  0  0  0  0  0  0  0
    8.4475  -12.2253   26.9121 C   0  0  0  0  0  0  0  0  0  0  0  0
    7.5020  -11.3244   26.4492 C   0  0  0  0  0  0  0  0  0  0  0  0
    6.2510  -11.8143   26.0688 C   0  0  0  0  0  0  0  0  0  0  0  0
    5.9376  -13.1506   26.1410 C   0  0  0  0  0  0  0  0  0  0  0  0
    7.1788  -17.7135   25.6727 C   0  0  0  0  0  0  0  0  0  0  0  0
    7.6922  -18.5950   26.6123 O   0  0  0  0  0  0  0  0  0  0  0  0
    6.4793  -18.2330   24.7690 O   0  0  0  0  0  0  0  0  0  0  0  0
  2  1  1  1
  2  3  1  0
  3  4  1  0
  4  5  1  0
  5  9  1  0
  6  5  2  0
  7  8  2  0
  7  2  1  0
 11 10  1  1
 11 13  1  0
 11 12  1  0
 13 14  1  6
 14  7  1  0
 15 13  1  0
 16 15  2  0
 17 15  1  0
 18 17  1  0
 18 19  1  6
 19 20  1  0
 20 25  2  0
 20 21  1  0
 21 22  2  0
 22 23  1  0
 24 23  2  0
 25 24  1  0
 26 18  1  0
 27 26  1  0
 28 26  2  0
M  END
$$$$
