EVF.pdb
     RDKit          3D

 28 28  0  0  1  0  0  0  0  0999 V2000
    8.2808  -18.2228   18.8320 N   0  0  0  0  0  0  0  0  0  0  0  0
    8.9980  -18.2907   20.0705 C   0  0  1  0  0  0  0  0  0  0  0  0
   10.1809  -19.1989   20.0327 C   0  0  0  0  0  0  0  0  0  0  0  0
   10.9234  -19.3430   21.3149 C   0  0  0  0  0  0  0  0  0  0  0  0
   12.0683  -20.2541   21.2792 C   0  0  0  0  0  0  0  0  0  0  0  0
   12.4902  -20.8607   20.2701 O   0  0  0  0  0  0  0  0  0  0  0  0
    9.4563  -16.9278   20.5145 C   0  0  0  0  0  0  0  0  0  0  0  0
   10.5771  -16.4741   20.1704 O   0  0  0  0  0  0  0  0  0  0  0  0
   12.7620  -20.4771   22.4673 O   0  0  0  0  0  0  0  0  0  0  0  0
    7.6132  -14.2852   19.6940 C   0  0  0  0  0  0  0  0  0  0  0  0
    8.0292  -13.7761   21.0582 C   0  0  1  0  0  0  0  0  0  0  0  0
    6.7815  -13.6435   21.8896 C   0  0  0  0  0  0  0  0  0  0  0  0
    9.0308  -14.7377   21.6683 C   0  0  2  0  0  0  0  0  0  0  0  0
    8.6436  -16.0958   21.3404 N   0  0  0  0  0  0  0  0  0  0  0  0
    9.1521  -14.5372   23.1336 C   0  0  0  0  0  0  0  0  0  0  0  0
    9.0032  -13.3787   23.5961 O   0  0  0  0  0  0  0  0  0  0  0  0
    9.4304  -15.6285   23.9975 N   0  0  0  0  0  0  0  0  0  0  0  0
    8.9052  -15.7731   25.3368 C   0  0  1  0  0  0  0  0  0  0  0  0
    7.4628  -15.4486   25.4407 C   0  0  0  0  0  0  0  0  0  0  0  0
    7.2647  -14.0726   25.9352 C   0  0  0  0  0  0  0  0  0  0  0  0
    8.3442  -13.2617   26.3016 C   0  0  0  0  0  0  0  0  0  0  0  0
    8.1752  -11.9774   26.7419 C   0  0  0  0  0  0  0  0  0  0  0  0
    6.8983  -11.4474   26.8335 C   0  0  0  0  0  0  0  0  0  0  0  0
    5.8186  -12.2541   26.4685 C   0  0  0  0  0  0  0  0  0  0  0  0
    5.9882  -13.5443   26.0262 C   0  0  0  0  0  0  0  0  0  0  0  0
    9.3197  -17.0742   25.9027 C   0  0  0  0  0  0  0  0  0  0  0  0
    9.8676  -18.0404   25.0723 O   0  0  0  0  0  0  0  0  0  0  0  0
    9.2185  -17.3945   27.1122 O   0  0  0  0  0  0  0  0  0  0  0  0
  2  1  1  6
  2  3  1  0
  3  4  1  0
  4  5  1  0
  5  9  1  0
  6  5  2  0
  7  8  2  0
  7  2  1  0
 11 10  1  6
 11 13  1  0
 11 12  1  0
 13 14  1  1
 14  7  1  0
 15 13  1  0
 16 15  2  0
 17 15  1  0
 18 17  1  0
 18 19  1  6
 19 20  1  0
 20 25  2  0
 20 21  1  0
 21 22  2  0
 22 23  1  0
 24 23  2  0
 25 24  1  0
 26 18  1  0
 27 26  1  0
 28 26  2  0
M  END
$$$$
