EVF.pdb
     RDKit          3D

 28 28  0  0  1  0  0  0  0  0999 V2000
    7.8733  -18.7147   20.2341 N   0  0  0  0  0  0  0  0  0  0  0  0
    9.2124  -18.3811   19.8489 C   0  0  1  0  0  0  0  0  0  0  0  0
    9.4434  -18.4224   18.3757 C   0  0  0  0  0  0  0  0  0  0  0  0
    9.0866  -19.7019   17.7035 C   0  0  0  0  0  0  0  0  0  0  0  0
    9.4016  -19.7710   16.2759 C   0  0  0  0  0  0  0  0  0  0  0  0
    8.9103  -20.5774   15.4558 O   0  0  0  0  0  0  0  0  0  0  0  0
    9.6061  -17.0201   20.3561 C   0  0  0  0  0  0  0  0  0  0  0  0
   10.7741  -16.5813   20.2025 O   0  0  0  0  0  0  0  0  0  0  0  0
   10.3302  -18.8641   15.7680 O   0  0  0  0  0  0  0  0  0  0  0  0
    6.6676  -14.3233   21.9432 C   0  0  0  0  0  0  0  0  0  0  0  0
    7.8887  -13.8926   21.1579 C   0  0  1  0  0  0  0  0  0  0  0  0
    8.1968  -12.4716   21.5471 C   0  0  0  0  0  0  0  0  0  0  0  0
    9.0372  -14.8362   21.4589 C   0  0  2  0  0  0  0  0  0  0  0  0
    8.6765  -16.1732   21.0295 N   0  0  0  0  0  0  0  0  0  0  0  0
    9.4074  -14.7993   22.8954 C   0  0  0  0  0  0  0  0  0  0  0  0
   10.1278  -13.8556   23.3063 O   0  0  0  0  0  0  0  0  0  0  0  0
    8.9594  -15.8068   23.7892 N   0  0  0  0  0  0  0  0  0  0  0  0
    9.2116  -15.8159   25.2129 C   0  0  1  0  0  0  0  0  0  0  0  0
    7.9759  -15.7576   26.0291 C   0  0  0  0  0  0  0  0  0  0  0  0
    7.4470  -14.3815   26.0901 C   0  0  0  0  0  0  0  0  0  0  0  0
    6.1646  -14.0669   25.6282 C   0  0  0  0  0  0  0  0  0  0  0  0
    5.6548  -12.7992   25.6981 C   0  0  0  0  0  0  0  0  0  0  0  0
    6.4220  -11.7817   26.2420 C   0  0  0  0  0  0  0  0  0  0  0  0
    7.7025  -12.0923   26.7040 C   0  0  0  0  0  0  0  0  0  0  0  0
    8.2148  -13.3658   26.6338 C   0  0  0  0  0  0  0  0  0  0  0  0
   10.1608  -16.8978   25.5493 C   0  0  0  0  0  0  0  0  0  0  0  0
   10.6879  -17.6874   24.5382 O   0  0  0  0  0  0  0  0  0  0  0  0
   10.5487  -17.1756   26.7105 O   0  0  0  0  0  0  0  0  0  0  0  0
  2  1  1  6
  2  3  1  0
  3  4  1  0
  4  5  1  0
  5  9  1  0
  6  5  2  0
  7  8  2  0
  7  2  1  0
 11 10  1  1
 11 13  1  0
 11 12  1  0
 13 14  1  1
 14  7  1  0
 15 13  1  0
 16 15  2  0
 17 15  1  0
 18 17  1  0
 18 19  1  1
 19 20  1  0
 20 25  2  0
 20 21  1  0
 21 22  2  0
 22 23  1  0
 24 23  2  0
 25 24  1  0
 26 18  1  0
 27 26  1  0
 28 26  2  0
M  END
$$$$
