EVF.pdb
     RDKit          3D

 28 28  0  0  1  0  0  0  0  0999 V2000
   10.0906  -15.4797   13.7282 N   0  0  0  0  0  0  0  0  0  0  0  0
    9.3755  -15.9958   14.8574 C   0  0  1  0  0  0  0  0  0  0  0  0
    9.5132  -17.4706   15.0349 C   0  0  0  0  0  0  0  0  0  0  0  0
   10.9081  -17.9781   15.1482 C   0  0  0  0  0  0  0  0  0  0  0  0
   11.0430  -19.4333   15.2268 C   0  0  0  0  0  0  0  0  0  0  0  0
   11.0774  -20.2192   14.2544 O   0  0  0  0  0  0  0  0  0  0  0  0
    9.8017  -15.3194   16.1324 C   0  0  0  0  0  0  0  0  0  0  0  0
   11.0175  -15.1539   16.4062 O   0  0  0  0  0  0  0  0  0  0  0  0
   11.1433  -20.0120   16.4908 O   0  0  0  0  0  0  0  0  0  0  0  0
    7.0092  -14.4708   19.2756 C   0  0  0  0  0  0  0  0  0  0  0  0
    8.0662  -13.4541   18.8985 C   0  0  1  0  0  0  0  0  0  0  0  0
    8.4217  -12.6896   20.1455 C   0  0  0  0  0  0  0  0  0  0  0  0
    9.2610  -14.1713   18.3000 C   0  0  2  0  0  0  0  0  0  0  0  0
    8.8503  -14.8393   17.0806 N   0  0  0  0  0  0  0  0  0  0  0  0
    9.8678  -15.1168   19.2694 C   0  0  0  0  0  0  0  0  0  0  0  0
    9.5859  -16.3375   19.1753 O   0  0  0  0  0  0  0  0  0  0  0  0
   10.7482  -14.6559   20.2828 N   0  0  0  0  0  0  0  0  0  0  0  0
   11.4833  -15.5121   21.1867 C   0  0  1  0  0  0  0  0  0  0  0  0
   12.8453  -15.0135   21.4916 C   0  0  0  0  0  0  0  0  0  0  0  0
   13.6644  -14.9307   20.2671 C   0  0  0  0  0  0  0  0  0  0  0  0
   13.6985  -13.7723   19.4837 C   0  0  0  0  0  0  0  0  0  0  0  0
   14.4698  -13.6757   18.3577 C   0  0  0  0  0  0  0  0  0  0  0  0
   15.2489  -14.7527   17.9669 C   0  0  0  0  0  0  0  0  0  0  0  0
   15.2173  -15.9105   18.7468 C   0  0  0  0  0  0  0  0  0  0  0  0
   14.4425  -16.0077   19.8780 C   0  0  0  0  0  0  0  0  0  0  0  0
   10.6418  -15.8543   22.3527 C   0  0  0  0  0  0  0  0  0  0  0  0
   11.0624  -16.8352   23.2383 O   0  0  0  0  0  0  0  0  0  0  0  0
    9.5408  -15.3159   22.6246 O   0  0  0  0  0  0  0  0  0  0  0  0
  2  1  1  6
  2  3  1  0
  3  4  1  0
  4  5  1  0
  5  9  1  0
  6  5  2  0
  7  8  2  0
  7  2  1  0
 11 10  1  1
 11 13  1  0
 11 12  1  0
 13 14  1  6
 14  7  1  0
 15 13  1  0
 16 15  2  0
 17 15  1  0
 18 17  1  0
 18 19  1  1
 19 20  1  0
 20 25  2  0
 20 21  1  0
 21 22  2  0
 22 23  1  0
 24 23  2  0
 25 24  1  0
 26 18  1  0
 27 26  1  0
 28 26  2  0
M  END
$$$$
