EVF.pdb
     RDKit          3D

 28 28  0  0  1  0  0  0  0  0999 V2000
    6.4465  -19.0916   20.2817 N   0  0  0  0  0  0  0  0  0  0  0  0
    6.6903  -18.6043   21.6069 C   0  0  1  0  0  0  0  0  0  0  0  0
    7.0433  -19.6729   22.5862 C   0  0  0  0  0  0  0  0  0  0  0  0
    5.9252  -20.5670   22.9945 C   0  0  0  0  0  0  0  0  0  0  0  0
    5.9888  -21.0649   24.3693 C   0  0  0  0  0  0  0  0  0  0  0  0
    6.9092  -20.8435   25.1866 O   0  0  0  0  0  0  0  0  0  0  0  0
    7.7807  -17.5672   21.6180 C   0  0  0  0  0  0  0  0  0  0  0  0
    8.9805  -17.8822   21.4139 O   0  0  0  0  0  0  0  0  0  0  0  0
    4.9375  -21.8586   24.8250 O   0  0  0  0  0  0  0  0  0  0  0  0
    7.1748  -14.0876   20.1159 C   0  0  0  0  0  0  0  0  0  0  0  0
    7.9692  -13.8661   21.3861 C   0  0  1  0  0  0  0  0  0  0  0  0
    7.0369  -13.2607   22.4010 C   0  0  0  0  0  0  0  0  0  0  0  0
    8.5503  -15.1876   21.8510 C   0  0  2  0  0  0  0  0  0  0  0  0
    7.5020  -16.1891   21.8592 N   0  0  0  0  0  0  0  0  0  0  0  0
    9.1993  -15.0576   23.1791 C   0  0  0  0  0  0  0  0  0  0  0  0
   10.2102  -14.3192   23.2844 O   0  0  0  0  0  0  0  0  0  0  0  0
    8.6917  -15.7510   24.3088 N   0  0  0  0  0  0  0  0  0  0  0  0
    9.2273  -15.6469   25.6478 C   0  0  1  0  0  0  0  0  0  0  0  0
    8.1827  -15.4980   26.6887 C   0  0  0  0  0  0  0  0  0  0  0  0
    7.5277  -14.1792   26.5956 C   0  0  0  0  0  0  0  0  0  0  0  0
    8.2327  -12.9919   26.8200 C   0  0  0  0  0  0  0  0  0  0  0  0
    7.6419  -11.7622   26.7164 C   0  0  0  0  0  0  0  0  0  0  0  0
    6.3011  -11.6729   26.3789 C   0  0  0  0  0  0  0  0  0  0  0  0
    5.5945  -12.8561   26.1543 C   0  0  0  0  0  0  0  0  0  0  0  0
    6.1878  -14.0915   26.2582 C   0  0  0  0  0  0  0  0  0  0  0  0
   10.2233  -16.7148   25.8764 C   0  0  0  0  0  0  0  0  0  0  0  0
   10.9795  -16.7104   27.0390 O   0  0  0  0  0  0  0  0  0  0  0  0
   10.4537  -17.6613   25.0847 O   0  0  0  0  0  0  0  0  0  0  0  0
  2  1  1  6
  2  3  1  0
  3  4  1  0
  4  5  1  0
  5  9  1  0
  6  5  2  0
  7  8  2  0
  7  2  1  0
 11 10  1  6
 11 13  1  0
 11 12  1  0
 13 14  1  1
 14  7  1  0
 15 13  1  0
 16 15  2  0
 17 15  1  0
 18 17  1  0
 18 19  1  1
 19 20  1  0
 20 25  2  0
 20 21  1  0
 21 22  2  0
 22 23  1  0
 24 23  2  0
 25 24  1  0
 26 18  1  0
 27 26  1  0
 28 26  2  0
M  END
$$$$
