YKR.pdb
     RDKit          3D

 33 33  0  0  1  0  0  0  0  0999 V2000
    6.8894  -12.0495   16.6899 O   0  0  0  0  0  0  0  0  0  0  0  0
    7.2675  -12.8389   17.7884 C   0  0  0  0  0  0  0  0  0  0  0  0
    8.3878  -13.6427   17.6267 C   0  0  0  0  0  0  0  0  0  0  0  0
    8.7836  -14.4283   18.6864 C   0  0  0  0  0  0  0  0  0  0  0  0
    8.1159  -14.4522   19.9030 C   0  0  0  0  0  0  0  0  0  0  0  0
    8.6041  -15.3172   20.9832 C   0  0  0  0  0  0  0  0  0  0  0  0
    8.2470  -16.7493   20.7218 C   0  0  2  0  0  0  0  0  0  0  0  0
    6.8332  -16.9358   20.8317 N   0  0  0  0  0  0  0  0  0  0  0  0
    9.0114  -17.6543   21.6551 C   0  0  0  0  0  0  0  0  0  0  0  0
    8.5306  -17.8103   22.7797 O   0  0  0  0  0  0  0  0  0  0  0  0
    7.0111  -13.6470   20.0347 C   0  0  0  0  0  0  0  0  0  0  0  0
    6.6000  -12.8491   18.9741 C   0  0  0  0  0  0  0  0  0  0  0  0
   10.2165  -18.2785   21.2322 N   0  0  0  0  0  0  0  0  0  0  0  0
   11.0383  -19.1349   22.0064 C   0  0  1  0  0  0  0  0  0  0  0  0
   12.1091  -19.8971   21.2203 C   0  0  0  0  0  0  0  0  0  0  0  0
   12.7878  -20.9084   22.1015 C   0  0  0  0  0  0  0  0  0  0  0  0
   13.7939  -21.7310   21.3489 C   0  0  0  0  0  0  0  0  0  0  0  0
   14.4521  -22.7809   22.1628 C   0  0  0  0  0  0  0  0  0  0  0  0
   15.3602  -23.6383   21.4553 N   0  0  0  0  0  0  0  0  0  0  0  0
   11.5121  -18.6863   23.2890 C   0  0  0  0  0  0  0  0  0  0  0  0
   12.0592  -17.5265   23.3328 O   0  0  0  0  0  0  0  0  0  0  0  0
   10.6688  -13.8009   29.0576 N   0  0  0  0  0  0  0  0  0  0  0  0
   10.6946  -14.9342   29.9235 C   0  0  0  0  0  0  0  0  0  0  0  0
   10.3015  -14.7907   31.1551 N   0  0  0  0  0  0  0  0  0  0  0  0
   11.1362  -16.2025   29.4693 N   0  0  0  0  0  0  0  0  0  0  0  0
   10.5166  -16.8939   28.3647 C   0  0  0  0  0  0  0  0  0  0  0  0
   11.1754  -18.2569   28.1078 C   0  0  0  0  0  0  0  0  0  0  0  0
   10.7467  -18.7531   26.7782 C   0  0  0  0  0  0  0  0  0  0  0  0
   11.8139  -18.7640   25.7266 C   0  0  2  0  0  0  0  0  0  0  0  0
   11.4386  -19.3924   24.5109 N   0  0  0  0  0  0  0  0  0  0  0  0
   13.0210  -19.4658   26.2975 C   0  0  0  0  0  0  0  0  0  0  0  0
   13.7823  -18.8108   27.2430 O   0  0  0  0  0  0  0  0  0  0  0  0
   13.3541  -20.6147   25.9456 O   0  0  0  0  0  0  0  0  0  0  0  0
  2  1  1  0
  3  2  2  0
  4  3  1  0
  5 11  1  0
  5  4  2  0
  6  5  1  0
  7  6  1  0
  7  8  1  1
  9 13  1  0
  9  7  1  0
 10  9  2  0
 11 12  2  0
 12  2  1  0
 14 20  1  0
 14 13  1  0
 14 15  1  6
 16 15  1  0
 17 16  1  0
 18 17  1  0
 19 18  1  0
 20 30  1  0
 21 20  2  0
 23 25  1  0
 23 22  1  0
 24 23  2  0
 26 27  1  0
 26 25  1  0
 27 28  1  0
 29 31  1  0
 29 28  1  1
 30 29  1  0
 31 32  1  0
 33 31  2  0
M  END
$$$$
