YKR.pdb
     RDKit          3D

 33 33  0  0  1  0  0  0  0  0999 V2000
   13.1683  -21.5085    7.5101 O   0  0  0  0  0  0  0  0  0  0  0  0
   13.3146  -21.4233    8.9044 C   0  0  0  0  0  0  0  0  0  0  0  0
   14.5540  -21.0178    9.3810 C   0  0  0  0  0  0  0  0  0  0  0  0
   14.7284  -20.9245   10.7440 C   0  0  0  0  0  0  0  0  0  0  0  0
   13.7254  -21.2162   11.6580 C   0  0  0  0  0  0  0  0  0  0  0  0
   13.9928  -21.0898   13.0954 C   0  0  0  0  0  0  0  0  0  0  0  0
   13.1531  -20.0054   13.7002 C   0  0  2  0  0  0  0  0  0  0  0  0
   13.5051  -18.7362   13.1424 N   0  0  0  0  0  0  0  0  0  0  0  0
   13.2879  -20.0204   15.2022 C   0  0  0  0  0  0  0  0  0  0  0  0
   14.2529  -19.4119   15.6697 O   0  0  0  0  0  0  0  0  0  0  0  0
   12.5098  -21.6148   11.1584 C   0  0  0  0  0  0  0  0  0  0  0  0
   12.3193  -21.7135    9.7855 C   0  0  0  0  0  0  0  0  0  0  0  0
   12.3385  -20.7069   16.0072 N   0  0  0  0  0  0  0  0  0  0  0  0
   12.3625  -20.8293   17.4188 C   0  0  1  0  0  0  0  0  0  0  0  0
   11.0672  -21.3475   18.0506 C   0  0  0  0  0  0  0  0  0  0  0  0
   11.1442  -21.2654   19.5497 C   0  0  0  0  0  0  0  0  0  0  0  0
    9.9142  -21.8175   20.2112 C   0  0  0  0  0  0  0  0  0  0  0  0
    9.9137  -21.7001   21.6890 C   0  0  0  0  0  0  0  0  0  0  0  0
    8.7271  -22.1649   22.3495 N   0  0  0  0  0  0  0  0  0  0  0  0
   13.5373  -21.3577   18.0602 C   0  0  0  0  0  0  0  0  0  0  0  0
   13.9726  -22.4874   17.6349 O   0  0  0  0  0  0  0  0  0  0  0  0
   19.0809  -17.7082   16.2939 N   0  0  0  0  0  0  0  0  0  0  0  0
   19.2416  -18.9791   15.6663 C   0  0  0  0  0  0  0  0  0  0  0  0
   19.6174  -19.0202   14.4218 N   0  0  0  0  0  0  0  0  0  0  0  0
   19.0018  -20.1869   16.3690 N   0  0  0  0  0  0  0  0  0  0  0  0
   18.5751  -20.2152   17.7472 C   0  0  0  0  0  0  0  0  0  0  0  0
   17.0584  -20.4231   17.8667 C   0  0  0  0  0  0  0  0  0  0  0  0
   16.7045  -20.5552   19.3003 C   0  0  0  0  0  0  0  0  0  0  0  0
   15.4674  -21.3525   19.5813 C   0  0  2  0  0  0  0  0  0  0  0  0
   14.2649  -20.7609   19.1144 N   0  0  0  0  0  0  0  0  0  0  0  0
   15.3752  -21.5559   21.0732 C   0  0  0  0  0  0  0  0  0  0  0  0
   14.3096  -21.0027   21.7523 O   0  0  0  0  0  0  0  0  0  0  0  0
   16.2262  -22.2052   21.7126 O   0  0  0  0  0  0  0  0  0  0  0  0
  2  1  1  0
  3  2  2  0
  4  3  1  0
  5 11  1  0
  5  4  2  0
  6  5  1  0
  7  6  1  0
  7  8  1  6
  9 13  1  0
  9  7  1  0
 10  9  2  0
 11 12  2  0
 12  2  1  0
 14 20  1  0
 14 13  1  0
 14 15  1  6
 16 15  1  0
 17 16  1  0
 18 17  1  0
 19 18  1  0
 20 30  1  0
 21 20  2  0
 23 25  1  0
 23 22  1  0
 24 23  2  0
 26 27  1  0
 26 25  1  0
 27 28  1  0
 29 31  1  0
 29 28  1  1
 30 29  1  0
 31 32  1  0
 33 31  2  0
M  END
$$$$
