YKR.pdb
     RDKit          3D

 33 33  0  0  1  0  0  0  0  0999 V2000
    7.9962  -12.8234   16.7269 O   0  0  0  0  0  0  0  0  0  0  0  0
    7.9531  -13.0753   18.1080 C   0  0  0  0  0  0  0  0  0  0  0  0
    6.7112  -13.3738   18.6523 C   0  0  0  0  0  0  0  0  0  0  0  0
    6.6367  -13.6258   20.0042 C   0  0  0  0  0  0  0  0  0  0  0  0
    7.7422  -13.5949   20.8429 C   0  0  0  0  0  0  0  0  0  0  0  0
    7.5773  -13.8772   22.2735 C   0  0  0  0  0  0  0  0  0  0  0  0
    8.7353  -14.6722   22.7968 C   0  0  2  0  0  0  0  0  0  0  0  0
    9.7095  -14.8655   21.7675 N   0  0  0  0  0  0  0  0  0  0  0  0
    8.2509  -15.9802   23.3702 C   0  0  0  0  0  0  0  0  0  0  0  0
    8.9714  -16.5021   24.2239 O   0  0  0  0  0  0  0  0  0  0  0  0
    8.9578  -13.2970   20.2774 C   0  0  0  0  0  0  0  0  0  0  0  0
    9.0482  -13.0405   18.9147 C   0  0  0  0  0  0  0  0  0  0  0  0
    7.0270  -16.5541   22.9305 N   0  0  0  0  0  0  0  0  0  0  0  0
    6.4703  -17.7838   23.3618 C   0  0  1  0  0  0  0  0  0  0  0  0
    5.4184  -18.3872   22.4264 C   0  0  0  0  0  0  0  0  0  0  0  0
    4.9411  -19.7106   22.9562 C   0  0  0  0  0  0  0  0  0  0  0  0
    3.8772  -20.3182   22.0877 C   0  0  0  0  0  0  0  0  0  0  0  0
    3.3657  -21.6216   22.5745 C   0  0  0  0  0  0  0  0  0  0  0  0
    2.4489  -22.2960   21.6997 N   0  0  0  0  0  0  0  0  0  0  0  0
    7.3304  -18.7825   23.9394 C   0  0  0  0  0  0  0  0  0  0  0  0
    7.7577  -19.7045   23.1559 O   0  0  0  0  0  0  0  0  0  0  0  0
   14.9899  -18.2773   24.3321 N   0  0  0  0  0  0  0  0  0  0  0  0
   14.0465  -17.7968   23.3761 C   0  0  0  0  0  0  0  0  0  0  0  0
   14.4753  -17.0827   22.3770 N   0  0  0  0  0  0  0  0  0  0  0  0
   12.6627  -18.0817   23.4943 N   0  0  0  0  0  0  0  0  0  0  0  0
   12.0949  -18.7190   24.6578 C   0  0  0  0  0  0  0  0  0  0  0  0
   10.5853  -18.9497   24.4977 C   0  0  0  0  0  0  0  0  0  0  0  0
   10.0609  -19.5680   25.7388 C   0  0  0  0  0  0  0  0  0  0  0  0
    8.6023  -19.9101   25.7142 C   0  0  2  0  0  0  0  0  0  0  0  0
    7.7555  -18.8552   25.2851 N   0  0  0  0  0  0  0  0  0  0  0  0
    8.2017  -20.3351   27.1051 C   0  0  0  0  0  0  0  0  0  0  0  0
    7.2236  -19.6170   27.7611 O   0  0  0  0  0  0  0  0  0  0  0  0
    8.7222  -21.3107   27.6813 O   0  0  0  0  0  0  0  0  0  0  0  0
  2  1  1  0
  3  2  2  0
  4  3  1  0
  5 11  1  0
  5  4  2  0
  6  5  1  0
  7  6  1  0
  7  8  1  6
  9 13  1  0
  9  7  1  0
 10  9  2  0
 11 12  2  0
 12  2  1  0
 14 20  1  0
 14 13  1  0
 14 15  1  6
 16 15  1  0
 17 16  1  0
 18 17  1  0
 19 18  1  0
 20 30  1  0
 21 20  2  0
 23 25  1  0
 23 22  1  0
 24 23  2  0
 26 27  1  0
 26 25  1  0
 27 28  1  0
 29 31  1  0
 29 28  1  1
 30 29  1  0
 31 32  1  0
 33 31  2  0
M  END
$$$$
