YKR.pdb
     RDKit          3D

 33 33  0  0  1  0  0  0  0  0999 V2000
    6.0852  -12.8423   16.8228 O   0  0  0  0  0  0  0  0  0  0  0  0
    7.0034  -13.1787   17.8310 C   0  0  0  0  0  0  0  0  0  0  0  0
    6.6432  -12.8692   19.1356 C   0  0  0  0  0  0  0  0  0  0  0  0
    7.5230  -13.1869   20.1464 C   0  0  0  0  0  0  0  0  0  0  0  0
    8.7477  -13.7997   19.9204 C   0  0  0  0  0  0  0  0  0  0  0  0
    9.6273  -14.1063   21.0544 C   0  0  0  0  0  0  0  0  0  0  0  0
   10.1994  -15.4858   20.9272 C   0  0  2  0  0  0  0  0  0  0  0  0
    9.1489  -16.4503   20.8180 N   0  0  0  0  0  0  0  0  0  0  0  0
   11.1165  -15.7772   22.0884 C   0  0  0  0  0  0  0  0  0  0  0  0
   12.0529  -14.9926   22.2547 O   0  0  0  0  0  0  0  0  0  0  0  0
    9.0778  -14.0943   18.6203 C   0  0  0  0  0  0  0  0  0  0  0  0
    8.2001  -13.7796   17.5900 C   0  0  0  0  0  0  0  0  0  0  0  0
   10.8876  -16.9021   22.9269 N   0  0  0  0  0  0  0  0  0  0  0  0
   11.7627  -17.4023   23.9229 C   0  0  1  0  0  0  0  0  0  0  0  0
   11.1533  -18.4486   24.8607 C   0  0  0  0  0  0  0  0  0  0  0  0
   12.1715  -18.9102   25.8658 C   0  0  0  0  0  0  0  0  0  0  0  0
   11.6412  -20.0036   26.7482 C   0  0  0  0  0  0  0  0  0  0  0  0
   12.5701  -20.4195   27.8261 C   0  0  0  0  0  0  0  0  0  0  0  0
   12.0743  -21.4274   28.7199 N   0  0  0  0  0  0  0  0  0  0  0  0
   13.1267  -17.7023   23.5762 C   0  0  0  0  0  0  0  0  0  0  0  0
   13.3494  -18.8402   23.0266 O   0  0  0  0  0  0  0  0  0  0  0  0
   14.9561  -15.4908   17.5955 N   0  0  0  0  0  0  0  0  0  0  0  0
   15.6625  -14.3605   18.1037 C   0  0  0  0  0  0  0  0  0  0  0  0
   16.4889  -13.7335   17.3190 N   0  0  0  0  0  0  0  0  0  0  0  0
   15.4808  -13.9123   19.4364 N   0  0  0  0  0  0  0  0  0  0  0  0
   16.1236  -14.5416   20.5647 C   0  0  0  0  0  0  0  0  0  0  0  0
   15.1049  -15.2225   21.4902 C   0  0  0  0  0  0  0  0  0  0  0  0
   15.4994  -16.6393   21.6768 C   0  0  0  0  0  0  0  0  0  0  0  0
   15.4670  -17.1295   23.0923 C   0  0  2  0  0  0  0  0  0  0  0  0
   14.2520  -16.8719   23.7788 N   0  0  0  0  0  0  0  0  0  0  0  0
   16.6063  -16.4776   23.8356 C   0  0  0  0  0  0  0  0  0  0  0  0
   17.8973  -16.7245   23.4173 O   0  0  0  0  0  0  0  0  0  0  0  0
   16.4226  -15.7249   24.8126 O   0  0  0  0  0  0  0  0  0  0  0  0
  2  1  1  0
  3  2  2  0
  4  3  1  0
  5 11  1  0
  5  4  2  0
  6  5  1  0
  7  6  1  0
  7  8  1  1
  9 13  1  0
  9  7  1  0
 10  9  2  0
 11 12  2  0
 12  2  1  0
 14 20  1  0
 14 13  1  0
 14 15  1  6
 16 15  1  0
 17 16  1  0
 18 17  1  0
 19 18  1  0
 20 30  1  0
 21 20  2  0
 23 25  1  0
 23 22  1  0
 24 23  2  0
 26 27  1  0
 26 25  1  0
 27 28  1  0
 29 31  1  0
 29 28  1  6
 30 29  1  0
 31 32  1  0
 33 31  2  0
M  END
$$$$
