YKR.pdb
     RDKit          3D

 33 33  0  0  1  0  0  0  0  0999 V2000
    8.8493  -12.2179   18.5113 O   0  0  0  0  0  0  0  0  0  0  0  0
    8.0686  -13.0278   19.3523 C   0  0  0  0  0  0  0  0  0  0  0  0
    8.5126  -13.1871   20.6581 C   0  0  0  0  0  0  0  0  0  0  0  0
    7.7681  -13.9756   21.5070 C   0  0  0  0  0  0  0  0  0  0  0  0
    6.5993  -14.6150   21.1176 C   0  0  0  0  0  0  0  0  0  0  0  0
    5.8635  -15.4371   22.0852 C   0  0  0  0  0  0  0  0  0  0  0  0
    6.0541  -16.8960   21.7988 C   0  0  2  0  0  0  0  0  0  0  0  0
    5.2838  -17.6849   22.7099 N   0  0  0  0  0  0  0  0  0  0  0  0
    7.5199  -17.2476   21.8454 C   0  0  0  0  0  0  0  0  0  0  0  0
    7.9874  -17.4926   22.9596 O   0  0  0  0  0  0  0  0  0  0  0  0
    6.1839  -14.4398   19.8203 C   0  0  0  0  0  0  0  0  0  0  0  0
    6.9249  -13.6470   18.9524 C   0  0  0  0  0  0  0  0  0  0  0  0
    8.2931  -17.2860   20.6532 N   0  0  0  0  0  0  0  0  0  0  0  0
    9.6735  -17.5906   20.5538 C   0  0  1  0  0  0  0  0  0  0  0  0
   10.2432  -17.5792   19.1322 C   0  0  0  0  0  0  0  0  0  0  0  0
   11.6674  -18.0603   19.1329 C   0  0  0  0  0  0  0  0  0  0  0  0
   12.2618  -18.0729   17.7538 C   0  0  0  0  0  0  0  0  0  0  0  0
   13.6659  -18.5455   17.7010 C   0  0  0  0  0  0  0  0  0  0  0  0
   14.2661  -18.5679   16.3972 N   0  0  0  0  0  0  0  0  0  0  0  0
   10.5881  -17.0377   21.5174 C   0  0  0  0  0  0  0  0  0  0  0  0
   10.9093  -15.8040   21.3718 O   0  0  0  0  0  0  0  0  0  0  0  0
    9.5042  -16.5715   29.3929 N   0  0  0  0  0  0  0  0  0  0  0  0
   10.8813  -16.2101   29.4819 C   0  0  0  0  0  0  0  0  0  0  0  0
   11.2303  -15.2715   30.3121 N   0  0  0  0  0  0  0  0  0  0  0  0
   11.8671  -16.8506   28.6895 N   0  0  0  0  0  0  0  0  0  0  0  0
   11.5435  -17.6075   27.5044 C   0  0  0  0  0  0  0  0  0  0  0  0
   11.8214  -16.8043   26.2254 C   0  0  0  0  0  0  0  0  0  0  0  0
   11.4277  -17.6205   25.0522 C   0  0  0  0  0  0  0  0  0  0  0  0
   11.6785  -16.9842   23.7191 C   0  0  2  0  0  0  0  0  0  0  0  0
   11.1728  -17.7138   22.6119 N   0  0  0  0  0  0  0  0  0  0  0  0
   13.1685  -16.8095   23.5610 C   0  0  0  0  0  0  0  0  0  0  0  0
   13.8629  -17.7152   22.7863 O   0  0  0  0  0  0  0  0  0  0  0  0
   13.7931  -15.8773   24.1047 O   0  0  0  0  0  0  0  0  0  0  0  0
  2  1  1  0
  3  2  2  0
  4  3  1  0
  5 11  1  0
  5  4  2  0
  6  5  1  0
  7  6  1  0
  7  8  1  1
  9 13  1  0
  9  7  1  0
 10  9  2  0
 11 12  2  0
 12  2  1  0
 14 20  1  0
 14 13  1  0
 14 15  1  6
 16 15  1  0
 17 16  1  0
 18 17  1  0
 19 18  1  0
 20 30  1  0
 21 20  2  0
 23 25  1  0
 23 22  1  0
 24 23  2  0
 26 27  1  0
 26 25  1  0
 27 28  1  0
 29 31  1  0
 29 28  1  1
 30 29  1  0
 31 32  1  0
 33 31  2  0
M  END
$$$$
