YKR.pdb
     RDKit          3D

 33 33  0  0  1  0  0  0  0  0999 V2000
   10.0791  -14.0465   31.1450 O   0  0  0  0  0  0  0  0  0  0  0  0
    9.9857  -14.3452   29.7758 C   0  0  0  0  0  0  0  0  0  0  0  0
   10.6565  -15.4777   29.3340 C   0  0  0  0  0  0  0  0  0  0  0  0
   10.5835  -15.7969   27.9962 C   0  0  0  0  0  0  0  0  0  0  0  0
    9.8728  -15.0408   27.0744 C   0  0  0  0  0  0  0  0  0  0  0  0
    9.8443  -15.4510   25.6657 C   0  0  0  0  0  0  0  0  0  0  0  0
    8.5187  -16.0557   25.3136 C   0  0  2  0  0  0  0  0  0  0  0  0
    8.2629  -17.2008   26.1316 N   0  0  0  0  0  0  0  0  0  0  0  0
    8.4736  -16.3891   23.8435 C   0  0  0  0  0  0  0  0  0  0  0  0
    8.8032  -17.5360   23.5335 O   0  0  0  0  0  0  0  0  0  0  0  0
    9.2190  -13.9262   27.5394 C   0  0  0  0  0  0  0  0  0  0  0  0
    9.2837  -13.5917   28.8865 C   0  0  0  0  0  0  0  0  0  0  0  0
    8.0690  -15.4134   22.8922 N   0  0  0  0  0  0  0  0  0  0  0  0
    8.5631  -15.2684   21.5720 C   0  0  1  0  0  0  0  0  0  0  0  0
    8.1427  -13.9814   20.8560 C   0  0  0  0  0  0  0  0  0  0  0  0
    8.6017  -14.0024   19.4246 C   0  0  0  0  0  0  0  0  0  0  0  0
    7.5328  -13.5327   18.4800 C   0  0  0  0  0  0  0  0  0  0  0  0
    7.9219  -13.5780   17.0502 C   0  0  0  0  0  0  0  0  0  0  0  0
    6.9772  -13.0112   16.1302 N   0  0  0  0  0  0  0  0  0  0  0  0
    9.9235  -15.6388   21.2842 C   0  0  0  0  0  0  0  0  0  0  0  0
   10.8351  -15.1215   22.0243 O   0  0  0  0  0  0  0  0  0  0  0  0
   12.3517  -18.2678   24.4878 N   0  0  0  0  0  0  0  0  0  0  0  0
   12.5851  -19.6570   24.2628 C   0  0  0  0  0  0  0  0  0  0  0  0
   13.5227  -20.2525   24.9396 N   0  0  0  0  0  0  0  0  0  0  0  0
   11.8196  -20.3933   23.3237 N   0  0  0  0  0  0  0  0  0  0  0  0
   11.3810  -19.8354   22.0673 C   0  0  0  0  0  0  0  0  0  0  0  0
   12.4778  -18.9841   21.4114 C   0  0  0  0  0  0  0  0  0  0  0  0
   11.9423  -18.3930   20.1617 C   0  0  0  0  0  0  0  0  0  0  0  0
   11.7243  -16.9111   20.1992 C   0  0  2  0  0  0  0  0  0  0  0  0
   10.3630  -16.5160   20.2672 N   0  0  0  0  0  0  0  0  0  0  0  0
   12.3533  -16.3180   18.9630 C   0  0  0  0  0  0  0  0  0  0  0  0
   11.7593  -16.5522   17.7403 O   0  0  0  0  0  0  0  0  0  0  0  0
   13.3888  -15.6248   19.0074 O   0  0  0  0  0  0  0  0  0  0  0  0
  2  1  1  0
  3  2  2  0
  4  3  1  0
  5 11  1  0
  5  4  2  0
  6  5  1  0
  7  6  1  0
  7  8  1  1
  9 13  1  0
  9  7  1  0
 10  9  2  0
 11 12  2  0
 12  2  1  0
 14 20  1  0
 14 13  1  0
 14 15  1  1
 16 15  1  0
 17 16  1  0
 18 17  1  0
 19 18  1  0
 20 30  1  0
 21 20  2  0
 23 25  1  0
 23 22  1  0
 24 23  2  0
 26 27  1  0
 26 25  1  0
 27 28  1  0
 29 31  1  0
 29 28  1  6
 30 29  1  0
 31 32  1  0
 33 31  2  0
M  END
$$$$
