YKR.pdb
     RDKit          3D

 33 33  0  0  1  0  0  0  0  0999 V2000
   10.1566  -13.8268   30.6288 O   0  0  0  0  0  0  0  0  0  0  0  0
    9.7766  -14.0985   29.3043 C   0  0  0  0  0  0  0  0  0  0  0  0
   10.1594  -15.3264   28.7816 C   0  0  0  0  0  0  0  0  0  0  0  0
    9.8013  -15.6220   27.4850 C   0  0  0  0  0  0  0  0  0  0  0  0
    9.0784  -14.7514   26.6812 C   0  0  0  0  0  0  0  0  0  0  0  0
    8.7356  -15.1438   25.3094 C   0  0  0  0  0  0  0  0  0  0  0  0
    7.3022  -15.5731   25.2203 C   0  0  2  0  0  0  0  0  0  0  0  0
    6.9858  -16.4698   26.2888 N   0  0  0  0  0  0  0  0  0  0  0  0
    7.0253  -16.1830   23.8691 C   0  0  0  0  0  0  0  0  0  0  0  0
    5.8634  -16.5370   23.6577 O   0  0  0  0  0  0  0  0  0  0  0  0
    8.7131  -13.5440   27.2243 C   0  0  0  0  0  0  0  0  0  0  0  0
    9.0673  -13.2321   28.5312 C   0  0  0  0  0  0  0  0  0  0  0  0
    8.0675  -16.3282   22.9134 N   0  0  0  0  0  0  0  0  0  0  0  0
    8.3997  -15.4131   21.8836 C   0  0  1  0  0  0  0  0  0  0  0  0
    7.4433  -14.2266   21.7320 C   0  0  0  0  0  0  0  0  0  0  0  0
    7.6747  -13.5292   20.4205 C   0  0  0  0  0  0  0  0  0  0  0  0
    7.5244  -14.4586   19.2505 C   0  0  0  0  0  0  0  0  0  0  0  0
    7.8732  -13.8523   17.9434 C   0  0  0  0  0  0  0  0  0  0  0  0
    7.6185  -14.6693   16.7909 N   0  0  0  0  0  0  0  0  0  0  0  0
    9.7757  -15.0388   21.6906 C   0  0  0  0  0  0  0  0  0  0  0  0
   10.2593  -14.1676   22.4990 O   0  0  0  0  0  0  0  0  0  0  0  0
    9.5417  -19.6914   25.8262 N   0  0  0  0  0  0  0  0  0  0  0  0
   10.9610  -19.7093   25.6843 C   0  0  0  0  0  0  0  0  0  0  0  0
   11.6971  -19.3880   26.7075 N   0  0  0  0  0  0  0  0  0  0  0  0
   11.5777  -20.0685   24.4592 N   0  0  0  0  0  0  0  0  0  0  0  0
   11.1077  -19.5918   23.1809 C   0  0  0  0  0  0  0  0  0  0  0  0
   11.6435  -18.1872   22.8680 C   0  0  0  0  0  0  0  0  0  0  0  0
   11.1773  -17.7863   21.5190 C   0  0  0  0  0  0  0  0  0  0  0  0
   11.6751  -16.4563   21.0410 C   0  0  2  0  0  0  0  0  0  0  0  0
   10.6542  -15.5317   20.6995 N   0  0  0  0  0  0  0  0  0  0  0  0
   12.5534  -16.6945   19.8379 C   0  0  0  0  0  0  0  0  0  0  0  0
   13.8157  -17.2156   20.0322 O   0  0  0  0  0  0  0  0  0  0  0  0
   12.1793  -16.4377   18.6765 O   0  0  0  0  0  0  0  0  0  0  0  0
  2  1  1  0
  3  2  2  0
  4  3  1  0
  5 11  1  0
  5  4  2  0
  6  5  1  0
  7  6  1  0
  7  8  1  1
  9 13  1  0
  9  7  1  0
 10  9  2  0
 11 12  2  0
 12  2  1  0
 14 20  1  0
 14 13  1  0
 14 15  1  1
 16 15  1  0
 17 16  1  0
 18 17  1  0
 19 18  1  0
 20 30  1  0
 21 20  2  0
 23 25  1  0
 23 22  1  0
 24 23  2  0
 26 27  1  0
 26 25  1  0
 27 28  1  0
 29 31  1  0
 29 28  1  6
 30 29  1  0
 31 32  1  0
 33 31  2  0
M  END
$$$$
