HFP.pdb
     RDKit          3D

 29 31  0  0  1  0  0  0  0  0999 V2000
   11.7555  -16.7142   20.5677 N   0  0  0  0  0  0  0  0  0  0  0  0
   10.8887  -17.2424   21.5705 C   0  0  1  0  0  0  0  0  0  0  0  0
   11.3869  -18.4705   22.2529 C   0  0  0  0  0  0  0  0  0  0  0  0
   11.3235  -19.6675   21.3746 C   0  0  0  0  0  0  0  0  0  0  0  0
   10.9627  -19.6829   20.0434 C   0  0  0  0  0  0  0  0  0  0  0  0
   11.0296  -20.9595   19.5991 N   0  0  0  0  0  0  0  0  0  0  0  0
   11.4186  -21.7313   20.6087 C   0  0  0  0  0  0  0  0  0  0  0  0
   11.5957  -20.9480   21.6810 N   0  0  0  0  0  0  0  0  0  0  0  0
   10.5758  -16.2362   22.6485 C   0  0  0  0  0  0  0  0  0  0  0  0
   11.4187  -15.3502   22.8782 O   0  0  0  0  0  0  0  0  0  0  0  0
    9.3519  -16.3769   23.3133 N   0  0  0  0  0  0  0  0  0  0  0  0
    8.9716  -15.3633   24.3064 C   0  0  1  0  0  0  0  0  0  0  0  0
    7.5179  -14.9829   24.1090 C   0  0  0  0  0  0  0  0  0  0  0  0
    7.0649  -13.9698   25.0707 C   0  0  0  0  0  0  0  0  0  0  0  0
    6.2236  -14.3397   26.1203 C   0  0  0  0  0  0  0  0  0  0  0  0
    5.7668  -13.4119   27.0494 C   0  0  0  0  0  0  0  0  0  0  0  0
    6.1463  -12.0928   26.9425 C   0  0  0  0  0  0  0  0  0  0  0  0
    6.9699  -11.7089   25.9218 C   0  0  0  0  0  0  0  0  0  0  0  0
    7.4159  -12.6465   25.0045 C   0  0  0  0  0  0  0  0  0  0  0  0
    9.2865  -15.8013   25.6796 C   0  0  0  0  0  0  0  0  0  0  0  0
    8.9217  -16.9981   25.9568 O   0  0  0  0  0  0  0  0  0  0  0  0
    9.9420  -15.0040   26.6584 N   0  0  0  0  0  0  0  0  0  0  0  0
   10.2346  -13.6144   26.5506 C   0  0  0  0  0  0  0  0  0  0  0  0
   10.0840  -13.1927   28.0265 C   0  0  0  0  0  0  0  0  0  0  0  0
   10.8386  -14.3404   28.7237 C   0  0  0  0  0  0  0  0  0  0  0  0
   10.4818  -15.5223   27.8758 C   0  0  1  0  0  0  0  0  0  0  0  0
    9.5199  -16.4130   28.5827 C   0  0  0  0  0  0  0  0  0  0  0  0
    9.9423  -17.1595   29.6524 O   0  0  0  0  0  0  0  0  0  0  0  0
    8.3447  -16.4720   28.1979 O   0  0  0  0  0  0  0  0  0  0  0  0
  2  1  1  6
  3  2  1  0
  4  5  2  0
  4  3  1  0
  6  5  1  0
  7  8  2  0
  7  6  1  0
  8  4  1  0
  9  2  1  0
 10  9  2  0
 11  9  1  0
 12 11  1  0
 12 13  1  1
 13 14  1  0
 14 19  1  0
 14 15  2  0
 15 16  1  0
 16 17  2  0
 18 17  1  0
 19 18  2  0
 20 12  1  0
 21 20  2  0
 22 20  1  0
 22 26  1  0
 23 24  1  0
 23 22  1  0
 24 25  1  0
 25 26  1  0
 27 28  1  0
 26 27  1  1
 29 27  2  0
M  END
$$$$
