HFP.pdb
     RDKit          3D

 29 31  0  0  1  0  0  0  0  0999 V2000
   10.0325  -18.2125   21.3303 N   0  0  0  0  0  0  0  0  0  0  0  0
   11.0401  -17.2114   21.4670 C   0  0  1  0  0  0  0  0  0  0  0  0
   11.4086  -16.5097   20.2044 C   0  0  0  0  0  0  0  0  0  0  0  0
   11.3779  -17.4161   19.0272 C   0  0  0  0  0  0  0  0  0  0  0  0
   12.4719  -17.9797   18.4043 C   0  0  0  0  0  0  0  0  0  0  0  0
   12.0308  -18.7405   17.3756 N   0  0  0  0  0  0  0  0  0  0  0  0
   10.7043  -18.6660   17.3423 C   0  0  0  0  0  0  0  0  0  0  0  0
   10.3118  -17.8647   18.3417 N   0  0  0  0  0  0  0  0  0  0  0  0
   10.6630  -16.1486   22.4673 C   0  0  0  0  0  0  0  0  0  0  0  0
   11.4478  -15.1963   22.6265 O   0  0  0  0  0  0  0  0  0  0  0  0
    9.4496  -16.3158   23.1452 N   0  0  0  0  0  0  0  0  0  0  0  0
    9.0852  -15.3421   24.1831 C   0  0  1  0  0  0  0  0  0  0  0  0
    7.6371  -14.9317   24.0049 C   0  0  0  0  0  0  0  0  0  0  0  0
    7.2331  -13.8714   24.9371 C   0  0  0  0  0  0  0  0  0  0  0  0
    7.5892  -12.5481   24.6760 C   0  0  0  0  0  0  0  0  0  0  0  0
    7.2324  -11.5146   25.5346 C   0  0  0  0  0  0  0  0  0  0  0  0
    6.5100  -11.7902   26.6737 C   0  0  0  0  0  0  0  0  0  0  0  0
    6.1508  -13.0797   26.9488 C   0  0  0  0  0  0  0  0  0  0  0  0
    6.5147  -14.0976   26.0823 C   0  0  0  0  0  0  0  0  0  0  0  0
    9.3945  -15.8456   25.5350 C   0  0  0  0  0  0  0  0  0  0  0  0
    9.0699  -17.0686   25.7380 O   0  0  0  0  0  0  0  0  0  0  0  0
   10.0046  -15.0820   26.5683 N   0  0  0  0  0  0  0  0  0  0  0  0
   10.1692  -13.6674   26.5817 C   0  0  0  0  0  0  0  0  0  0  0  0
   10.0247  -13.3942   28.0927 C   0  0  0  0  0  0  0  0  0  0  0  0
   10.8985  -14.5257   28.6663 C   0  0  0  0  0  0  0  0  0  0  0  0
   10.6237  -15.6551   27.7218 C   0  0  1  0  0  0  0  0  0  0  0  0
    9.7660  -16.6892   28.3646 C   0  0  0  0  0  0  0  0  0  0  0  0
    8.4753  -16.8657   27.9370 O   0  0  0  0  0  0  0  0  0  0  0  0
   10.2264  -17.3821   29.2814 O   0  0  0  0  0  0  0  0  0  0  0  0
  2  1  1  6
  3  2  1  0
  4  5  2  0
  4  3  1  0
  6  5  1  0
  7  8  2  0
  7  6  1  0
  8  4  1  0
  9  2  1  0
 10  9  2  0
 11  9  1  0
 12 11  1  0
 12 13  1  1
 13 14  1  0
 14 19  1  0
 14 15  2  0
 15 16  1  0
 16 17  2  0
 18 17  1  0
 19 18  2  0
 20 12  1  0
 21 20  2  0
 22 20  1  0
 22 26  1  0
 23 24  1  0
 23 22  1  0
 24 25  1  0
 25 26  1  0
 27 28  1  0
 26 27  1  1
 29 27  2  0
M  END
$$$$
