HFP.pdb
     RDKit          3D

 29 31  0  0  1  0  0  0  0  0999 V2000
   11.4670  -16.5211   20.2076 N   0  0  0  0  0  0  0  0  0  0  0  0
   10.8228  -17.1412   21.3197 C   0  0  1  0  0  0  0  0  0  0  0  0
   11.5486  -18.3064   21.9009 C   0  0  0  0  0  0  0  0  0  0  0  0
   11.6427  -19.4430   20.9483 C   0  0  0  0  0  0  0  0  0  0  0  0
   10.5895  -20.0457   20.2925 C   0  0  0  0  0  0  0  0  0  0  0  0
   11.0834  -21.0384   19.5165 N   0  0  0  0  0  0  0  0  0  0  0  0
   12.4031  -21.0692   19.6706 C   0  0  0  0  0  0  0  0  0  0  0  0
   12.7390  -20.1038   20.5366 N   0  0  0  0  0  0  0  0  0  0  0  0
   10.5665  -16.1750   22.4480 C   0  0  0  0  0  0  0  0  0  0  0  0
   11.4517  -15.3412   22.7110 O   0  0  0  0  0  0  0  0  0  0  0  0
    9.3430  -16.2910   23.1184 N   0  0  0  0  0  0  0  0  0  0  0  0
    8.9958  -15.2800   24.1261 C   0  0  1  0  0  0  0  0  0  0  0  0
    7.5717  -14.8122   23.9029 C   0  0  0  0  0  0  0  0  0  0  0  0
    7.1392  -13.8263   24.9018 C   0  0  0  0  0  0  0  0  0  0  0  0
    7.5191  -12.4909   24.7652 C   0  0  0  0  0  0  0  0  0  0  0  0
    7.1367  -11.5264   25.6905 C   0  0  0  0  0  0  0  0  0  0  0  0
    6.3643  -11.8846   26.7724 C   0  0  0  0  0  0  0  0  0  0  0  0
    5.9811  -13.1874   26.9254 C   0  0  0  0  0  0  0  0  0  0  0  0
    6.3711  -14.1358   25.9939 C   0  0  0  0  0  0  0  0  0  0  0  0
    9.2502  -15.7664   25.4956 C   0  0  0  0  0  0  0  0  0  0  0  0
    8.8047  -16.9435   25.7371 O   0  0  0  0  0  0  0  0  0  0  0  0
    9.9309  -15.0333   26.5067 N   0  0  0  0  0  0  0  0  0  0  0  0
   10.2964  -13.6582   26.4448 C   0  0  0  0  0  0  0  0  0  0  0  0
   10.1454  -13.2727   27.9305 C   0  0  0  0  0  0  0  0  0  0  0  0
   10.8292  -14.4781   28.6031 C   0  0  0  0  0  0  0  0  0  0  0  0
   10.4249  -15.6144   27.7152 C   0  0  1  0  0  0  0  0  0  0  0  0
    9.4078  -16.4743   28.3819 C   0  0  0  0  0  0  0  0  0  0  0  0
    9.7879  -17.3224   29.3899 O   0  0  0  0  0  0  0  0  0  0  0  0
    8.2254  -16.4160   28.0197 O   0  0  0  0  0  0  0  0  0  0  0  0
  2  1  1  6
  3  2  1  0
  4  5  2  0
  4  3  1  0
  6  5  1  0
  7  8  2  0
  7  6  1  0
  8  4  1  0
  9  2  1  0
 10  9  2  0
 11  9  1  0
 12 11  1  0
 12 13  1  1
 13 14  1  0
 14 19  1  0
 14 15  2  0
 15 16  1  0
 16 17  2  0
 18 17  1  0
 19 18  2  0
 20 12  1  0
 21 20  2  0
 22 20  1  0
 22 26  1  0
 23 24  1  0
 23 22  1  0
 24 25  1  0
 25 26  1  0
 27 28  1  0
 26 27  1  1
 29 27  2  0
M  END
$$$$
