HFP.pdb
     RDKit          3D

 29 31  0  0  1  0  0  0  0  0999 V2000
    8.9015  -16.6051   20.3788 N   0  0  0  0  0  0  0  0  0  0  0  0
   10.0276  -15.7834   20.6833 C   0  0  1  0  0  0  0  0  0  0  0  0
   10.2683  -14.6631   19.7297 C   0  0  0  0  0  0  0  0  0  0  0  0
    9.3843  -14.7389   18.5377 C   0  0  0  0  0  0  0  0  0  0  0  0
    8.3644  -13.8654   18.2229 C   0  0  0  0  0  0  0  0  0  0  0  0
    7.7980  -14.2725   17.0632 N   0  0  0  0  0  0  0  0  0  0  0  0
    8.4322  -15.3656   16.6520 C   0  0  0  0  0  0  0  0  0  0  0  0
    9.3909  -15.6458   17.5449 N   0  0  0  0  0  0  0  0  0  0  0  0
    9.9420  -15.1777   22.0611 C   0  0  0  0  0  0  0  0  0  0  0  0
   10.8027  -14.3380   22.3809 O   0  0  0  0  0  0  0  0  0  0  0  0
    8.8929  -15.6098   22.8811 N   0  0  0  0  0  0  0  0  0  0  0  0
    8.6604  -14.9096   24.1515 C   0  0  1  0  0  0  0  0  0  0  0  0
    7.1916  -14.5562   24.2724 C   0  0  0  0  0  0  0  0  0  0  0  0
    6.9235  -13.6336   25.3830 C   0  0  0  0  0  0  0  0  0  0  0  0
    7.3666  -12.3129   25.3075 C   0  0  0  0  0  0  0  0  0  0  0  0
    7.1394  -11.4081   26.3382 C   0  0  0  0  0  0  0  0  0  0  0  0
    6.4618  -11.8125   27.4664 C   0  0  0  0  0  0  0  0  0  0  0  0
    6.0190  -13.1019   27.5611 C   0  0  0  0  0  0  0  0  0  0  0  0
    6.2541  -13.9905   26.5246 C   0  0  0  0  0  0  0  0  0  0  0  0
    9.1799  -15.6772   25.2994 C   0  0  0  0  0  0  0  0  0  0  0  0
    8.9762  -16.9408   25.2347 O   0  0  0  0  0  0  0  0  0  0  0  0
    9.8611  -15.1144   26.4140 N   0  0  0  0  0  0  0  0  0  0  0  0
   10.1407  -13.7327   26.6170 C   0  0  0  0  0  0  0  0  0  0  0  0
   10.0349  -13.6600   28.1539 C   0  0  0  0  0  0  0  0  0  0  0  0
   10.8195  -14.9256   28.5484 C   0  0  0  0  0  0  0  0  0  0  0  0
   10.4435  -15.8885   27.4646 C   0  0  1  0  0  0  0  0  0  0  0  0
    9.5111  -16.9300   27.9784 C   0  0  0  0  0  0  0  0  0  0  0  0
    9.9773  -17.9058   28.8213 O   0  0  0  0  0  0  0  0  0  0  0  0
    8.3206  -16.9060   27.6397 O   0  0  0  0  0  0  0  0  0  0  0  0
  2  1  1  6
  3  2  1  0
  4  5  2  0
  4  3  1  0
  6  5  1  0
  7  8  2  0
  7  6  1  0
  8  4  1  0
  9  2  1  0
 10  9  2  0
 11  9  1  0
 12 11  1  0
 12 13  1  1
 13 14  1  0
 14 19  1  0
 14 15  2  0
 15 16  1  0
 16 17  2  0
 18 17  1  0
 19 18  2  0
 20 12  1  0
 21 20  2  0
 22 20  1  0
 22 26  1  0
 23 24  1  0
 23 22  1  0
 24 25  1  0
 25 26  1  0
 27 28  1  0
 26 27  1  1
 29 27  2  0
M  END
$$$$
