HFP.pdb
     RDKit          3D

 29 31  0  0  1  0  0  0  0  0999 V2000
    9.8420  -18.1533   21.2410 N   0  0  0  0  0  0  0  0  0  0  0  0
   10.9327  -17.2817   21.5355 C   0  0  1  0  0  0  0  0  0  0  0  0
   11.5321  -16.5986   20.3538 C   0  0  0  0  0  0  0  0  0  0  0  0
   11.1105  -17.2193   19.0711 C   0  0  0  0  0  0  0  0  0  0  0  0
   10.8106  -18.5504   18.8700 C   0  0  0  0  0  0  0  0  0  0  0  0
   10.4707  -18.7186   17.5709 N   0  0  0  0  0  0  0  0  0  0  0  0
   10.5504  -17.5388   16.9642 C   0  0  0  0  0  0  0  0  0  0  0  0
   10.9374  -16.6339   17.8731 N   0  0  0  0  0  0  0  0  0  0  0  0
   10.5588  -16.2057   22.5229 C   0  0  0  0  0  0  0  0  0  0  0  0
   11.4020  -15.3244   22.7685 O   0  0  0  0  0  0  0  0  0  0  0  0
    9.2819  -16.2813   23.0919 N   0  0  0  0  0  0  0  0  0  0  0  0
    8.9381  -15.3468   24.1720 C   0  0  1  0  0  0  0  0  0  0  0  0
    7.4933  -14.9134   24.0244 C   0  0  0  0  0  0  0  0  0  0  0  0
    7.1119  -13.8824   24.9982 C   0  0  0  0  0  0  0  0  0  0  0  0
    6.3493  -14.2321   26.1128 C   0  0  0  0  0  0  0  0  0  0  0  0
    5.9616  -13.2870   27.0558 C   0  0  0  0  0  0  0  0  0  0  0  0
    6.3327  -11.9707   26.8977 C   0  0  0  0  0  0  0  0  0  0  0  0
    7.0797  -11.6065   25.8128 C   0  0  0  0  0  0  0  0  0  0  0  0
    7.4574  -12.5611   24.8826 C   0  0  0  0  0  0  0  0  0  0  0  0
    9.2538  -15.9084   25.4992 C   0  0  0  0  0  0  0  0  0  0  0  0
    8.9338  -17.1403   25.6492 O   0  0  0  0  0  0  0  0  0  0  0  0
    9.8652  -15.1892   26.5633 N   0  0  0  0  0  0  0  0  0  0  0  0
   10.0820  -13.7824   26.6102 C   0  0  0  0  0  0  0  0  0  0  0  0
    9.9089  -13.5340   28.1224 C   0  0  0  0  0  0  0  0  0  0  0  0
   10.7248  -14.7089   28.6940 C   0  0  0  0  0  0  0  0  0  0  0  0
   10.4325  -15.8081   27.7197 C   0  0  1  0  0  0  0  0  0  0  0  0
    9.5204  -16.8216   28.3191 C   0  0  0  0  0  0  0  0  0  0  0  0
    8.2260  -16.9189   27.8779 O   0  0  0  0  0  0  0  0  0  0  0  0
    9.9395  -17.5691   29.2125 O   0  0  0  0  0  0  0  0  0  0  0  0
  2  1  1  6
  3  2  1  0
  4  5  2  0
  4  3  1  0
  6  5  1  0
  7  8  2  0
  7  6  1  0
  8  4  1  0
  9  2  1  0
 10  9  2  0
 11  9  1  0
 12 11  1  0
 12 13  1  1
 13 14  1  0
 14 19  1  0
 14 15  2  0
 15 16  1  0
 16 17  2  0
 18 17  1  0
 19 18  2  0
 20 12  1  0
 21 20  2  0
 22 20  1  0
 22 26  1  0
 23 24  1  0
 23 22  1  0
 24 25  1  0
 25 26  1  0
 27 28  1  0
 26 27  1  1
 29 27  2  0
M  END
$$$$
