HFP.pdb
     RDKit          3D

 29 31  0  0  1  0  0  0  0  0999 V2000
   11.1000  -16.8198   20.1788 N   0  0  0  0  0  0  0  0  0  0  0  0
   10.4198  -17.3460   21.3175 C   0  0  1  0  0  0  0  0  0  0  0  0
   11.0861  -18.5093   21.9694 C   0  0  0  0  0  0  0  0  0  0  0  0
   11.3046  -19.6350   21.0243 C   0  0  0  0  0  0  0  0  0  0  0  0
   10.4160  -20.6541   20.7517 C   0  0  0  0  0  0  0  0  0  0  0  0
   10.9816  -21.4797   19.8407 N   0  0  0  0  0  0  0  0  0  0  0  0
   12.1869  -21.0060   19.5421 C   0  0  0  0  0  0  0  0  0  0  0  0
   12.3800  -19.8908   20.2588 N   0  0  0  0  0  0  0  0  0  0  0  0
   10.2016  -16.3072   22.3880 C   0  0  0  0  0  0  0  0  0  0  0  0
   11.1184  -15.4941   22.6037 O   0  0  0  0  0  0  0  0  0  0  0  0
    8.9751  -16.3375   23.0621 N   0  0  0  0  0  0  0  0  0  0  0  0
    8.7282  -15.3437   24.1156 C   0  0  1  0  0  0  0  0  0  0  0  0
    7.3022  -14.8410   24.0119 C   0  0  0  0  0  0  0  0  0  0  0  0
    6.9891  -13.8218   25.0218 C   0  0  0  0  0  0  0  0  0  0  0  0
    6.2207  -14.1640   26.1347 C   0  0  0  0  0  0  0  0  0  0  0  0
    5.8962  -13.2292   27.1113 C   0  0  0  0  0  0  0  0  0  0  0  0
    6.3378  -11.9310   26.9892 C   0  0  0  0  0  0  0  0  0  0  0  0
    7.0919  -11.5743   25.9067 C   0  0  0  0  0  0  0  0  0  0  0  0
    7.4060  -12.5185   24.9427 C   0  0  0  0  0  0  0  0  0  0  0  0
    9.0743  -15.8679   25.4506 C   0  0  0  0  0  0  0  0  0  0  0  0
    8.6730  -17.0638   25.6768 O   0  0  0  0  0  0  0  0  0  0  0  0
    9.7948  -15.1505   26.4453 N   0  0  0  0  0  0  0  0  0  0  0  0
   10.1376  -13.7689   26.4013 C   0  0  0  0  0  0  0  0  0  0  0  0
   10.0560  -13.4237   27.9022 C   0  0  0  0  0  0  0  0  0  0  0  0
   10.7895  -14.6352   28.5080 C   0  0  0  0  0  0  0  0  0  0  0  0
   10.3568  -15.7546   27.6121 C   0  0  1  0  0  0  0  0  0  0  0  0
    9.3866  -16.6465   28.3059 C   0  0  0  0  0  0  0  0  0  0  0  0
    9.8346  -17.5463   29.2383 O   0  0  0  0  0  0  0  0  0  0  0  0
    8.1813  -16.5678   28.0345 O   0  0  0  0  0  0  0  0  0  0  0  0
  2  1  1  6
  3  2  1  0
  4  5  2  0
  4  3  1  0
  6  5  1  0
  7  8  2  0
  7  6  1  0
  8  4  1  0
  9  2  1  0
 10  9  2  0
 11  9  1  0
 12 11  1  0
 12 13  1  1
 13 14  1  0
 14 19  1  0
 14 15  2  0
 15 16  1  0
 16 17  2  0
 18 17  1  0
 19 18  2  0
 20 12  1  0
 21 20  2  0
 22 20  1  0
 22 26  1  0
 23 24  1  0
 23 22  1  0
 24 25  1  0
 25 26  1  0
 27 28  1  0
 26 27  1  1
 29 27  2  0
M  END
$$$$
