HFP.pdb
     RDKit          3D

 29 31  0  0  1  0  0  0  0  0999 V2000
   10.9335  -16.6967   20.0534 N   0  0  0  0  0  0  0  0  0  0  0  0
   10.3580  -17.2549   21.2339 C   0  0  1  0  0  0  0  0  0  0  0  0
   11.0809  -18.4326   21.7929 C   0  0  0  0  0  0  0  0  0  0  0  0
   10.9343  -19.6402   20.9393 C   0  0  0  0  0  0  0  0  0  0  0  0
    9.7671  -20.3377   20.7083 C   0  0  0  0  0  0  0  0  0  0  0  0
   10.0456  -21.3710   19.8799 N   0  0  0  0  0  0  0  0  0  0  0  0
   11.3425  -21.3353   19.5922 C   0  0  0  0  0  0  0  0  0  0  0  0
   11.8778  -20.2881   20.2337 N   0  0  0  0  0  0  0  0  0  0  0  0
   10.2349  -16.2453   22.3466 C   0  0  0  0  0  0  0  0  0  0  0  0
   11.2221  -15.5290   22.5926 O   0  0  0  0  0  0  0  0  0  0  0  0
    9.0103  -16.1909   23.0226 N   0  0  0  0  0  0  0  0  0  0  0  0
    8.8395  -15.1927   24.0869 C   0  0  1  0  0  0  0  0  0  0  0  0
    7.4573  -14.5791   23.9873 C   0  0  0  0  0  0  0  0  0  0  0  0
    7.2202  -13.5548   25.0126 C   0  0  0  0  0  0  0  0  0  0  0  0
    6.4404  -13.8604   26.1283 C   0  0  0  0  0  0  0  0  0  0  0  0
    6.1861  -12.9192   27.1193 C   0  0  0  0  0  0  0  0  0  0  0  0
    6.7107  -11.6511   27.0092 C   0  0  0  0  0  0  0  0  0  0  0  0
    7.4774  -11.3305   25.9243 C   0  0  0  0  0  0  0  0  0  0  0  0
    7.7208  -12.2806   24.9458 C   0  0  0  0  0  0  0  0  0  0  0  0
    9.1410  -15.7571   25.4164 C   0  0  0  0  0  0  0  0  0  0  0  0
    8.6890  -16.9405   25.6106 O   0  0  0  0  0  0  0  0  0  0  0  0
    9.8713  -15.0893   26.4380 N   0  0  0  0  0  0  0  0  0  0  0  0
   10.2307  -13.7112   26.4492 C   0  0  0  0  0  0  0  0  0  0  0  0
   10.1553  -13.4260   27.9630 C   0  0  0  0  0  0  0  0  0  0  0  0
   10.8749  -14.6697   28.5180 C   0  0  0  0  0  0  0  0  0  0  0  0
   10.4276  -15.7467   27.5783 C   0  0  1  0  0  0  0  0  0  0  0  0
    9.4476  -16.6542   28.2373 C   0  0  0  0  0  0  0  0  0  0  0  0
    9.8653  -17.5026   29.2301 O   0  0  0  0  0  0  0  0  0  0  0  0
    8.2617  -16.6350   27.8826 O   0  0  0  0  0  0  0  0  0  0  0  0
  2  1  1  6
  3  2  1  0
  4  5  2  0
  4  3  1  0
  6  5  1  0
  7  8  2  0
  7  6  1  0
  8  4  1  0
  9  2  1  0
 10  9  2  0
 11  9  1  0
 12 11  1  0
 12 13  1  1
 13 14  1  0
 14 19  1  0
 14 15  2  0
 15 16  1  0
 16 17  2  0
 18 17  1  0
 19 18  2  0
 20 12  1  0
 21 20  2  0
 22 20  1  0
 22 26  1  0
 23 24  1  0
 23 22  1  0
 24 25  1  0
 25 26  1  0
 27 28  1  0
 26 27  1  1
 29 27  2  0
M  END
$$$$
