HFP.pdb
     RDKit          3D

 29 31  0  0  1  0  0  0  0  0999 V2000
   11.5893  -16.8336   20.4638 N   0  0  0  0  0  0  0  0  0  0  0  0
   10.7623  -17.3327   21.5141 C   0  0  1  0  0  0  0  0  0  0  0  0
   11.2906  -18.5372   22.2157 C   0  0  0  0  0  0  0  0  0  0  0  0
   11.2799  -19.7437   21.3483 C   0  0  0  0  0  0  0  0  0  0  0  0
   10.8385  -19.8048   20.0431 C   0  0  0  0  0  0  0  0  0  0  0  0
   10.9920  -21.0746   19.6008 N   0  0  0  0  0  0  0  0  0  0  0  0
   11.5122  -21.7982   20.5867 C   0  0  0  0  0  0  0  0  0  0  0  0
   11.6854  -20.9915   21.6422 N   0  0  0  0  0  0  0  0  0  0  0  0
   10.4850  -16.2941   22.5709 C   0  0  0  0  0  0  0  0  0  0  0  0
   11.3611  -15.4374   22.7872 O   0  0  0  0  0  0  0  0  0  0  0  0
    9.2539  -16.3737   23.2326 N   0  0  0  0  0  0  0  0  0  0  0  0
    8.9256  -15.3471   24.2308 C   0  0  1  0  0  0  0  0  0  0  0  0
    7.4913  -14.8965   24.0394 C   0  0  0  0  0  0  0  0  0  0  0  0
    7.0906  -13.8659   25.0058 C   0  0  0  0  0  0  0  0  0  0  0  0
    6.2578  -14.2045   26.0727 C   0  0  0  0  0  0  0  0  0  0  0  0
    5.8498  -13.2592   27.0068 C   0  0  0  0  0  0  0  0  0  0  0  0
    6.2707  -11.9538   26.8877 C   0  0  0  0  0  0  0  0  0  0  0  0
    7.0868  -11.6005   25.8500 C   0  0  0  0  0  0  0  0  0  0  0  0
    7.4838  -12.5552   24.9279 C   0  0  0  0  0  0  0  0  0  0  0  0
    9.2231  -15.8053   25.6014 C   0  0  0  0  0  0  0  0  0  0  0  0
    8.9468  -17.0364   25.8261 O   0  0  0  0  0  0  0  0  0  0  0  0
    9.7739  -14.9921   26.6302 N   0  0  0  0  0  0  0  0  0  0  0  0
    9.8364  -13.5693   26.6330 C   0  0  0  0  0  0  0  0  0  0  0  0
    9.6684  -13.2958   28.1415 C   0  0  0  0  0  0  0  0  0  0  0  0
   10.6197  -14.3573   28.7258 C   0  0  0  0  0  0  0  0  0  0  0  0
   10.4293  -15.5106   27.7894 C   0  0  1  0  0  0  0  0  0  0  0  0
    9.6463  -16.5987   28.4382 C   0  0  0  0  0  0  0  0  0  0  0  0
    8.3562  -16.8395   28.0414 O   0  0  0  0  0  0  0  0  0  0  0  0
   10.1677  -17.2781   29.3321 O   0  0  0  0  0  0  0  0  0  0  0  0
  2  1  1  6
  3  2  1  0
  4  5  2  0
  4  3  1  0
  6  5  1  0
  7  8  2  0
  7  6  1  0
  8  4  1  0
  9  2  1  0
 10  9  2  0
 11  9  1  0
 12 11  1  0
 12 13  1  1
 13 14  1  0
 14 19  1  0
 14 15  2  0
 15 16  1  0
 16 17  2  0
 18 17  1  0
 19 18  2  0
 20 12  1  0
 21 20  2  0
 22 20  1  0
 22 26  1  0
 23 24  1  0
 23 22  1  0
 24 25  1  0
 25 26  1  0
 27 28  1  0
 26 27  1  1
 29 27  2  0
M  END
$$$$
