IHY.pdb
     RDKit          3D

 31 32  0  0  1  0  0  0  0  0999 V2000
    6.9029  -12.6281   18.7946 C   0  0  0  0  0  0  0  0  0  0  0  0
    7.4956  -13.9534   19.1307 C   0  0  0  0  0  0  0  0  0  0  0  0
    8.9964  -13.9721   19.2261 C   0  0  2  0  0  0  0  0  0  0  0  0
    9.5373  -13.5634   17.8753 C   0  0  0  0  0  0  0  0  0  0  0  0
    9.4825  -15.3090   19.6698 C   0  0  2  0  0  0  0  0  0  0  0  0
    9.0391  -16.3065   18.7170 N   0  0  0  0  0  0  0  0  0  0  0  0
    9.0627  -15.6559   21.0409 C   0  0  0  0  0  0  0  0  0  0  0  0
    9.1840  -14.9127   22.0267 O   0  0  0  0  0  0  0  0  0  0  0  0
    8.4679  -16.9358   21.2876 N   0  0  0  0  0  0  0  0  0  0  0  0
    7.9950  -17.3136   22.5905 C   0  0  1  0  0  0  0  0  0  0  0  0
    7.4186  -18.6426   22.7527 C   0  0  0  0  0  0  0  0  0  0  0  0
    6.9603  -19.1010   24.0522 C   0  0  0  0  0  0  0  0  0  0  0  0
    5.9589  -18.7456   24.8969 C   0  0  0  0  0  0  0  0  0  0  0  0
    5.9748  -19.5271   25.9832 N   0  0  0  0  0  0  0  0  0  0  0  0
    6.9969  -20.3781   25.8125 C   0  0  0  0  0  0  0  0  0  0  0  0
    7.6124  -20.1496   24.6594 N   0  0  0  0  0  0  0  0  0  0  0  0
    9.0234  -16.9555   23.6130 C   0  0  0  0  0  0  0  0  0  0  0  0
   10.2341  -17.0976   23.2445 O   0  0  0  0  0  0  0  0  0  0  0  0
    4.9072  -12.3889   27.3612 O   0  0  0  0  0  0  0  0  0  0  0  0
    6.1413  -12.9488   27.0439 C   0  0  0  0  0  0  0  0  0  0  0  0
    7.0915  -13.2363   27.9912 C   0  0  0  0  0  0  0  0  0  0  0  0
    8.3071  -13.7879   27.6785 C   0  0  0  0  0  0  0  0  0  0  0  0
    8.6243  -14.0792   26.3712 C   0  0  0  0  0  0  0  0  0  0  0  0
    9.9122  -14.6629   25.9603 C   0  0  0  0  0  0  0  0  0  0  0  0
    9.7666  -16.1556   25.8199 C   0  0  2  0  0  0  0  0  0  0  0  0
    8.7006  -16.4916   24.9001 N   0  0  0  0  0  0  0  0  0  0  0  0
    9.4674  -16.8016   27.1172 C   0  0  0  0  0  0  0  0  0  0  0  0
   10.4416  -16.7643   28.1356 O   0  0  0  0  0  0  0  0  0  0  0  0
    7.6597  -13.7884   25.4032 C   0  0  0  0  0  0  0  0  0  0  0  0
    6.4491  -13.2369   25.7339 C   0  0  0  0  0  0  0  0  0  0  0  0
    8.4023  -17.3952   27.4059 O   0  0  0  0  0  0  0  0  0  0  0  0
  2  1  1  0
  2  3  1  0
  3  4  1  6
  5  3  1  0
  5  6  1  6
  7  8  2  0
  7  5  1  0
  9  7  1  0
 10  9  1  0
 10 11  1  6
 12 11  1  0
 13 12  2  0
 14 15  1  0
 14 13  1  0
 15 16  2  0
 16 12  1  0
 17 10  1  0
 17 18  2  0
 19 20  1  0
 20 21  2  0
 21 22  1  0
 23 24  1  0
 23 22  2  0
 25 26  1  0
 25 24  1  1
 26 17  1  0
 27 25  1  0
 28 27  1  0
 29 23  1  0
 30 29  2  0
 30 20  1  0
 31 27  2  0
M  END
$$$$
