IHY.pdb
     RDKit          3D

 31 32  0  0  1  0  0  0  0  0999 V2000
    7.2013  -12.8171   23.6856 C   0  0  0  0  0  0  0  0  0  0  0  0
    7.1579  -14.0734   22.8852 C   0  0  0  0  0  0  0  0  0  0  0  0
    7.8897  -14.0157   21.5726 C   0  0  2  0  0  0  0  0  0  0  0  0
    7.2349  -12.9371   20.7406 C   0  0  0  0  0  0  0  0  0  0  0  0
    7.8887  -15.3486   20.9064 C   0  0  2  0  0  0  0  0  0  0  0  0
    6.5209  -15.7166   20.6009 N   0  0  0  0  0  0  0  0  0  0  0  0
    8.5596  -16.3965   21.6991 C   0  0  0  0  0  0  0  0  0  0  0  0
    7.9880  -17.3727   22.2081 O   0  0  0  0  0  0  0  0  0  0  0  0
    9.9733  -16.3117   21.9164 N   0  0  0  0  0  0  0  0  0  0  0  0
   10.6965  -17.3404   22.6114 C   0  0  1  0  0  0  0  0  0  0  0  0
   11.9084  -17.8641   21.9936 C   0  0  0  0  0  0  0  0  0  0  0  0
   11.8419  -18.6487   20.7734 C   0  0  0  0  0  0  0  0  0  0  0  0
   10.8518  -19.2759   20.0886 C   0  0  0  0  0  0  0  0  0  0  0  0
   11.3485  -19.8528   18.9879 N   0  0  0  0  0  0  0  0  0  0  0  0
   12.6616  -19.5813   18.9876 C   0  0  0  0  0  0  0  0  0  0  0  0
   12.9930  -18.8575   20.0492 N   0  0  0  0  0  0  0  0  0  0  0  0
   10.8498  -16.9541   24.0462 C   0  0  0  0  0  0  0  0  0  0  0  0
   11.2953  -15.7789   24.2519 O   0  0  0  0  0  0  0  0  0  0  0  0
    5.3906  -20.7990   26.4565 O   0  0  0  0  0  0  0  0  0  0  0  0
    6.3595  -19.8065   26.5725 C   0  0  0  0  0  0  0  0  0  0  0  0
    6.4629  -18.7632   25.6873 C   0  0  0  0  0  0  0  0  0  0  0  0
    7.4173  -17.7856   25.8016 C   0  0  0  0  0  0  0  0  0  0  0  0
    8.3274  -17.8178   26.8337 C   0  0  0  0  0  0  0  0  0  0  0  0
    9.3845  -16.8087   27.0142 C   0  0  0  0  0  0  0  0  0  0  0  0
   10.6856  -17.3400   26.4724 C   0  0  2  0  0  0  0  0  0  0  0  0
   10.5306  -17.8122   25.1129 N   0  0  0  0  0  0  0  0  0  0  0  0
   11.2010  -18.4627   27.2870 C   0  0  0  0  0  0  0  0  0  0  0  0
   11.5625  -18.2196   28.6279 O   0  0  0  0  0  0  0  0  0  0  0  0
    8.2258  -18.8783   27.7377 C   0  0  0  0  0  0  0  0  0  0  0  0
    7.2649  -19.8472   27.6081 C   0  0  0  0  0  0  0  0  0  0  0  0
   11.3515  -19.6414   26.8891 O   0  0  0  0  0  0  0  0  0  0  0  0
  2  1  1  0
  2  3  1  0
  3  4  1  6
  5  3  1  0
  5  6  1  1
  7  8  2  0
  7  5  1  0
  9  7  1  0
 10  9  1  0
 10 11  1  6
 12 11  1  0
 13 12  2  0
 14 15  1  0
 14 13  1  0
 15 16  2  0
 16 12  1  0
 17 10  1  0
 17 18  2  0
 19 20  1  0
 20 21  2  0
 21 22  1  0
 23 24  1  0
 23 22  2  0
 25 26  1  0
 25 24  1  1
 26 17  1  0
 27 25  1  0
 28 27  1  0
 29 23  1  0
 30 29  2  0
 30 20  1  0
 31 27  2  0
M  END
$$$$
