IHY.pdb
     RDKit          3D

 31 32  0  0  1  0  0  0  0  0999 V2000
    7.2055  -11.7744   18.7894 C   0  0  0  0  0  0  0  0  0  0  0  0
    8.0086  -12.9231   18.2833 C   0  0  0  0  0  0  0  0  0  0  0  0
    8.1975  -14.0472   19.2643 C   0  0  2  0  0  0  0  0  0  0  0  0
    8.8502  -13.4631   20.4961 C   0  0  0  0  0  0  0  0  0  0  0  0
    8.9860  -15.1552   18.6552 C   0  0  2  0  0  0  0  0  0  0  0  0
    8.2632  -15.6666   17.5082 N   0  0  0  0  0  0  0  0  0  0  0  0
    9.3073  -16.2341   19.6087 C   0  0  0  0  0  0  0  0  0  0  0  0
    8.5616  -17.1896   19.8726 O   0  0  0  0  0  0  0  0  0  0  0  0
   10.5633  -16.2076   20.2977 N   0  0  0  0  0  0  0  0  0  0  0  0
   10.9496  -17.2479   21.2102 C   0  0  1  0  0  0  0  0  0  0  0  0
   11.9611  -18.2026   20.7741 C   0  0  0  0  0  0  0  0  0  0  0  0
   11.7228  -19.0700   19.6340 C   0  0  0  0  0  0  0  0  0  0  0  0
   11.8996  -18.9620   18.2926 C   0  0  0  0  0  0  0  0  0  0  0  0
   11.5209  -20.0935   17.6865 N   0  0  0  0  0  0  0  0  0  0  0  0
   11.1044  -20.9145   18.6614 C   0  0  0  0  0  0  0  0  0  0  0  0
   11.2124  -20.3298   19.8476 N   0  0  0  0  0  0  0  0  0  0  0  0
   11.1972  -16.6559   22.5591 C   0  0  0  0  0  0  0  0  0  0  0  0
   12.3270  -16.0874   22.7081 O   0  0  0  0  0  0  0  0  0  0  0  0
   11.0333  -13.9940   30.8277 O   0  0  0  0  0  0  0  0  0  0  0  0
   10.6439  -14.5535   29.6142 C   0  0  0  0  0  0  0  0  0  0  0  0
   10.5860  -15.9086   29.4063 C   0  0  0  0  0  0  0  0  0  0  0  0
   10.2024  -16.4596   28.2109 C   0  0  0  0  0  0  0  0  0  0  0  0
    9.8539  -15.6526   27.1518 C   0  0  0  0  0  0  0  0  0  0  0  0
    9.4415  -16.1730   25.8374 C   0  0  0  0  0  0  0  0  0  0  0  0
   10.6284  -16.1972   24.9104 C   0  0  2  0  0  0  0  0  0  0  0  0
   10.2622  -16.7104   23.6073 N   0  0  0  0  0  0  0  0  0  0  0  0
   11.7210  -17.0427   25.4407 C   0  0  0  0  0  0  0  0  0  0  0  0
   11.5801  -18.4446   25.3923 O   0  0  0  0  0  0  0  0  0  0  0  0
    9.9112  -14.2720   27.3589 C   0  0  0  0  0  0  0  0  0  0  0  0
   10.2970  -13.7383   28.5611 C   0  0  0  0  0  0  0  0  0  0  0  0
   12.7890  -16.6212   25.9426 O   0  0  0  0  0  0  0  0  0  0  0  0
  2  1  1  0
  2  3  1  0
  3  4  1  1
  5  3  1  0
  5  6  1  6
  7  8  2  0
  7  5  1  0
  9  7  1  0
 10  9  1  0
 10 11  1  6
 12 11  1  0
 13 12  2  0
 14 15  1  0
 14 13  1  0
 15 16  2  0
 16 12  1  0
 17 10  1  0
 17 18  2  0
 19 20  1  0
 20 21  2  0
 21 22  1  0
 23 24  1  0
 23 22  2  0
 25 26  1  0
 25 24  1  1
 26 17  1  0
 27 25  1  0
 28 27  1  0
 29 23  1  0
 30 29  2  0
 30 20  1  0
 31 27  2  0
M  END
$$$$
