IHY.pdb
     RDKit          3D

 31 32  0  0  1  0  0  0  0  0999 V2000
    7.3396  -11.9418   21.3186 C   0  0  0  0  0  0  0  0  0  0  0  0
    7.4353  -13.3911   20.9853 C   0  0  0  0  0  0  0  0  0  0  0  0
    8.7327  -13.8128   20.3524 C   0  0  2  0  0  0  0  0  0  0  0  0
    8.9447  -12.9386   19.1378 C   0  0  0  0  0  0  0  0  0  0  0  0
    8.7164  -15.2675   20.0294 C   0  0  2  0  0  0  0  0  0  0  0  0
    7.6773  -15.5166   19.0507 N   0  0  0  0  0  0  0  0  0  0  0  0
    8.5486  -16.1261   21.2173 C   0  0  0  0  0  0  0  0  0  0  0  0
    7.4861  -16.6735   21.5494 O   0  0  0  0  0  0  0  0  0  0  0  0
    9.6736  -16.3662   22.0714 N   0  0  0  0  0  0  0  0  0  0  0  0
    9.6069  -17.2869   23.1722 C   0  0  1  0  0  0  0  0  0  0  0  0
   10.1900  -18.6112   22.9956 C   0  0  0  0  0  0  0  0  0  0  0  0
    9.7019  -19.5069   21.9620 C   0  0  0  0  0  0  0  0  0  0  0  0
    8.7398  -19.4365   21.0070 C   0  0  0  0  0  0  0  0  0  0  0  0
    8.7193  -20.5670   20.2910 N   0  0  0  0  0  0  0  0  0  0  0  0
    9.6792  -21.3491   20.8058 C   0  0  0  0  0  0  0  0  0  0  0  0
   10.2913  -20.7414   21.8142 N   0  0  0  0  0  0  0  0  0  0  0  0
   10.0221  -16.5896   24.4263 C   0  0  0  0  0  0  0  0  0  0  0  0
   11.0385  -15.8298   24.3190 O   0  0  0  0  0  0  0  0  0  0  0  0
    6.2710  -11.2476   25.0578 O   0  0  0  0  0  0  0  0  0  0  0  0
    6.8717  -12.3253   25.7018 C   0  0  0  0  0  0  0  0  0  0  0  0
    6.2848  -13.5630   25.7822 C   0  0  0  0  0  0  0  0  0  0  0  0
    6.8766  -14.6246   26.4166 C   0  0  0  0  0  0  0  0  0  0  0  0
    8.1105  -14.4818   27.0098 C   0  0  0  0  0  0  0  0  0  0  0  0
    8.8016  -15.5737   27.7158 C   0  0  0  0  0  0  0  0  0  0  0  0
    9.8969  -16.1251   26.8410 C   0  0  2  0  0  0  0  0  0  0  0  0
    9.3522  -16.7459   25.6522 N   0  0  0  0  0  0  0  0  0  0  0  0
   10.7079  -17.1387   27.5515 C   0  0  0  0  0  0  0  0  0  0  0  0
   10.7489  -18.4535   27.0442 O   0  0  0  0  0  0  0  0  0  0  0  0
    8.7121  -13.2233   26.9303 C   0  0  0  0  0  0  0  0  0  0  0  0
    8.1057  -12.1729   26.2916 C   0  0  0  0  0  0  0  0  0  0  0  0
   11.3803  -16.9357   28.5891 O   0  0  0  0  0  0  0  0  0  0  0  0
  2  1  1  0
  2  3  1  0
  3  4  1  6
  5  3  1  0
  5  6  1  6
  7  8  2  0
  7  5  1  0
  9  7  1  0
 10  9  1  0
 10 11  1  6
 12 11  1  0
 13 12  2  0
 14 15  1  0
 14 13  1  0
 15 16  2  0
 16 12  1  0
 17 10  1  0
 17 18  2  0
 19 20  1  0
 20 21  2  0
 21 22  1  0
 23 24  1  0
 23 22  2  0
 25 26  1  0
 25 24  1  1
 26 17  1  0
 27 25  1  0
 28 27  1  0
 29 23  1  0
 30 29  2  0
 30 20  1  0
 31 27  2  0
M  END
$$$$
