IHY.pdb
     RDKit          3D

 31 32  0  0  1  0  0  0  0  0999 V2000
    6.9894  -11.5404   19.4341 C   0  0  0  0  0  0  0  0  0  0  0  0
    7.4449  -12.8426   18.8708 C   0  0  0  0  0  0  0  0  0  0  0  0
    7.9047  -13.8491   19.8894 C   0  0  2  0  0  0  0  0  0  0  0  0
    9.0311  -13.2137   20.6716 C   0  0  0  0  0  0  0  0  0  0  0  0
    8.2986  -15.1268   19.2314 C   0  0  2  0  0  0  0  0  0  0  0  0
    7.1847  -15.6057   18.4380 N   0  0  0  0  0  0  0  0  0  0  0  0
    8.7572  -16.1553   20.1843 C   0  0  0  0  0  0  0  0  0  0  0  0
    8.0185  -16.7773   20.9630 O   0  0  0  0  0  0  0  0  0  0  0  0
   10.1505  -16.4847   20.2411 N   0  0  0  0  0  0  0  0  0  0  0  0
   10.6618  -17.4612   21.1626 C   0  0  1  0  0  0  0  0  0  0  0  0
   11.7804  -18.2910   20.7325 C   0  0  0  0  0  0  0  0  0  0  0  0
   12.3533  -19.2860   21.6217 C   0  0  0  0  0  0  0  0  0  0  0  0
   11.9184  -20.4515   22.1649 C   0  0  0  0  0  0  0  0  0  0  0  0
   12.8811  -20.9942   22.9198 N   0  0  0  0  0  0  0  0  0  0  0  0
   13.9263  -20.1576   22.8451 C   0  0  0  0  0  0  0  0  0  0  0  0
   13.6429  -19.1178   22.0710 N   0  0  0  0  0  0  0  0  0  0  0  0
   10.8391  -16.8297   22.5046 C   0  0  0  0  0  0  0  0  0  0  0  0
   11.5646  -15.7832   22.5254 O   0  0  0  0  0  0  0  0  0  0  0  0
   10.5600  -14.1426   30.7446 O   0  0  0  0  0  0  0  0  0  0  0  0
   10.2527  -14.7603   29.5358 C   0  0  0  0  0  0  0  0  0  0  0  0
   10.4185  -16.1063   29.3268 C   0  0  0  0  0  0  0  0  0  0  0  0
   10.1158  -16.7147   28.1361 C   0  0  0  0  0  0  0  0  0  0  0  0
    9.6231  -15.9780   27.0829 C   0  0  0  0  0  0  0  0  0  0  0  0
    9.2852  -16.5611   25.7736 C   0  0  0  0  0  0  0  0  0  0  0  0
   10.5355  -16.6953   24.9444 C   0  0  2  0  0  0  0  0  0  0  0  0
   10.2550  -17.3378   23.6779 N   0  0  0  0  0  0  0  0  0  0  0  0
   11.5708  -17.4927   25.6386 C   0  0  0  0  0  0  0  0  0  0  0  0
   12.6869  -16.8279   26.1861 O   0  0  0  0  0  0  0  0  0  0  0  0
    9.4524  -14.6070   27.2911 C   0  0  0  0  0  0  0  0  0  0  0  0
    9.7602  -14.0154   28.4887 C   0  0  0  0  0  0  0  0  0  0  0  0
   11.5509  -18.7363   25.7908 O   0  0  0  0  0  0  0  0  0  0  0  0
  2  1  1  0
  2  3  1  0
  3  4  1  6
  5  3  1  0
  5  6  1  1
  7  8  2  0
  7  5  1  0
  9  7  1  0
 10  9  1  0
 10 11  1  6
 12 11  1  0
 13 12  2  0
 14 15  1  0
 14 13  1  0
 15 16  2  0
 16 12  1  0
 17 10  1  0
 17 18  2  0
 19 20  1  0
 20 21  2  0
 21 22  1  0
 23 24  1  0
 23 22  2  0
 25 26  1  0
 25 24  1  1
 26 17  1  0
 27 25  1  0
 28 27  1  0
 29 23  1  0
 30 29  2  0
 30 20  1  0
 31 27  2  0
M  END
$$$$
