IHY.pdb
     RDKit          3D

 31 32  0  0  1  0  0  0  0  0999 V2000
    7.6589  -12.2047   21.5224 C   0  0  0  0  0  0  0  0  0  0  0  0
    7.4866  -13.5815   20.9790 C   0  0  0  0  0  0  0  0  0  0  0  0
    8.2171  -13.8526   19.6928 C   0  0  2  0  0  0  0  0  0  0  0  0
    7.6367  -12.9317   18.6441 C   0  0  0  0  0  0  0  0  0  0  0  0
    8.1217  -15.2929   19.3226 C   0  0  2  0  0  0  0  0  0  0  0  0
    6.7256  -15.6374   19.1446 N   0  0  0  0  0  0  0  0  0  0  0  0
    8.7732  -16.1890   20.2968 C   0  0  0  0  0  0  0  0  0  0  0  0
    8.1718  -16.8874   21.1271 O   0  0  0  0  0  0  0  0  0  0  0  0
   10.2028  -16.2839   20.3127 N   0  0  0  0  0  0  0  0  0  0  0  0
   10.8918  -17.2069   21.1715 C   0  0  1  0  0  0  0  0  0  0  0  0
   12.0750  -17.8785   20.6485 C   0  0  0  0  0  0  0  0  0  0  0  0
   11.9538  -18.9415   19.6665 C   0  0  0  0  0  0  0  0  0  0  0  0
   10.9180  -19.6149   19.1041 C   0  0  0  0  0  0  0  0  0  0  0  0
   11.3767  -20.5081   18.2193 N   0  0  0  0  0  0  0  0  0  0  0  0
   12.7123  -20.3889   18.2310 C   0  0  0  0  0  0  0  0  0  0  0  0
   13.0941  -19.4539   19.0917 N   0  0  0  0  0  0  0  0  0  0  0  0
   11.0759  -16.5866   22.5178 C   0  0  0  0  0  0  0  0  0  0  0  0
   10.7054  -15.3721   22.6161 O   0  0  0  0  0  0  0  0  0  0  0  0
   10.4738  -14.4007   30.7233 O   0  0  0  0  0  0  0  0  0  0  0  0
   10.4241  -14.8300   29.4003 C   0  0  0  0  0  0  0  0  0  0  0  0
   10.3488  -13.9617   28.3405 C   0  0  0  0  0  0  0  0  0  0  0  0
   10.2998  -14.3846   27.0373 C   0  0  0  0  0  0  0  0  0  0  0  0
   10.3247  -15.7283   26.7396 C   0  0  0  0  0  0  0  0  0  0  0  0
   10.2660  -16.2555   25.3660 C   0  0  0  0  0  0  0  0  0  0  0  0
   11.6519  -16.6316   24.9113 C   0  0  2  0  0  0  0  0  0  0  0  0
   11.6189  -17.2764   23.6157 N   0  0  0  0  0  0  0  0  0  0  0  0
   12.3086  -17.5562   25.8619 C   0  0  0  0  0  0  0  0  0  0  0  0
   13.2615  -17.0399   26.7636 O   0  0  0  0  0  0  0  0  0  0  0  0
   10.4015  -16.6163   27.8156 C   0  0  0  0  0  0  0  0  0  0  0  0
   10.4499  -16.1755   29.1127 C   0  0  0  0  0  0  0  0  0  0  0  0
   12.0938  -18.7879   25.9451 O   0  0  0  0  0  0  0  0  0  0  0  0
  2  1  1  0
  2  3  1  0
  3  4  1  6
  5  3  1  0
  5  6  1  1
  7  8  2  0
  7  5  1  0
  9  7  1  0
 10  9  1  0
 10 11  1  6
 12 11  1  0
 13 12  2  0
 14 15  1  0
 14 13  1  0
 15 16  2  0
 16 12  1  0
 17 10  1  0
 17 18  2  0
 19 20  1  0
 20 21  2  0
 21 22  1  0
 23 24  1  0
 23 22  2  0
 25 26  1  0
 25 24  1  1
 26 17  1  0
 27 25  1  0
 28 27  1  0
 29 23  1  0
 30 29  2  0
 30 20  1  0
 31 27  2  0
M  END
$$$$
