IHY.pdb
     RDKit          3D

 31 32  0  0  1  0  0  0  0  0999 V2000
    7.2390  -11.5983   19.1485 C   0  0  0  0  0  0  0  0  0  0  0  0
    7.8921  -12.8261   18.6130 C   0  0  0  0  0  0  0  0  0  0  0  0
    8.0490  -13.9459   19.6045 C   0  0  2  0  0  0  0  0  0  0  0  0
    8.8115  -13.3946   20.7874 C   0  0  0  0  0  0  0  0  0  0  0  0
    8.7160  -15.1208   18.9757 C   0  0  2  0  0  0  0  0  0  0  0  0
    7.9071  -15.5764   17.8632 N   0  0  0  0  0  0  0  0  0  0  0  0
    8.9829  -16.2168   19.9265 C   0  0  0  0  0  0  0  0  0  0  0  0
    8.1313  -17.0206   20.3359 O   0  0  0  0  0  0  0  0  0  0  0  0
   10.3109  -16.3948   20.4339 N   0  0  0  0  0  0  0  0  0  0  0  0
   10.6346  -17.4452   21.3591 C   0  0  1  0  0  0  0  0  0  0  0  0
   11.5642  -18.4803   20.9242 C   0  0  0  0  0  0  0  0  0  0  0  0
   11.2127  -19.3918   19.8496 C   0  0  0  0  0  0  0  0  0  0  0  0
   10.1081  -20.1099   19.5231 C   0  0  0  0  0  0  0  0  0  0  0  0
   10.3202  -20.7897   18.3900 N   0  0  0  0  0  0  0  0  0  0  0  0
   11.5701  -20.4910   18.0071 C   0  0  0  0  0  0  0  0  0  0  0  0
   12.1370  -19.6511   18.8638 N   0  0  0  0  0  0  0  0  0  0  0  0
   10.9497  -16.8502   22.6925 C   0  0  0  0  0  0  0  0  0  0  0  0
   11.8705  -15.9705   22.6954 O   0  0  0  0  0  0  0  0  0  0  0  0
   11.1822  -14.6490   31.1340 O   0  0  0  0  0  0  0  0  0  0  0  0
   10.7661  -15.0171   29.8579 C   0  0  0  0  0  0  0  0  0  0  0  0
   10.4592  -14.1004   28.8840 C   0  0  0  0  0  0  0  0  0  0  0  0
   10.0493  -14.4631   27.6270 C   0  0  0  0  0  0  0  0  0  0  0  0
    9.9282  -15.7922   27.2902 C   0  0  0  0  0  0  0  0  0  0  0  0
    9.4853  -16.2554   25.9644 C   0  0  0  0  0  0  0  0  0  0  0  0
   10.6864  -16.6140   25.1292 C   0  0  2  0  0  0  0  0  0  0  0  0
   10.2884  -17.2204   23.8765 N   0  0  0  0  0  0  0  0  0  0  0  0
   11.5779  -17.5644   25.8306 C   0  0  0  0  0  0  0  0  0  0  0  0
   12.7349  -17.0685   26.4655 O   0  0  0  0  0  0  0  0  0  0  0  0
   10.2398  -16.7293   28.2786 C   0  0  0  0  0  0  0  0  0  0  0  0
   10.6484  -16.3485   29.5305 C   0  0  0  0  0  0  0  0  0  0  0  0
   11.3989  -18.8015   25.9169 O   0  0  0  0  0  0  0  0  0  0  0  0
  2  1  1  0
  2  3  1  0
  3  4  1  1
  5  3  1  0
  5  6  1  6
  7  8  2  0
  7  5  1  0
  9  7  1  0
 10  9  1  0
 10 11  1  6
 12 11  1  0
 13 12  2  0
 14 15  1  0
 14 13  1  0
 15 16  2  0
 16 12  1  0
 17 10  1  0
 17 18  2  0
 19 20  1  0
 20 21  2  0
 21 22  1  0
 23 24  1  0
 23 22  2  0
 25 26  1  0
 25 24  1  1
 26 17  1  0
 27 25  1  0
 28 27  1  0
 29 23  1  0
 30 29  2  0
 30 20  1  0
 31 27  2  0
M  END
$$$$
