IHY.pdb
     RDKit          3D

 31 32  0  0  1  0  0  0  0  0999 V2000
    6.9009  -12.0666   18.9385 C   0  0  0  0  0  0  0  0  0  0  0  0
    8.1417  -12.8886   18.8651 C   0  0  0  0  0  0  0  0  0  0  0  0
    8.3044  -13.8930   19.9725 C   0  0  2  0  0  0  0  0  0  0  0  0
    8.2910  -13.1294   21.2768 C   0  0  0  0  0  0  0  0  0  0  0  0
    9.5435  -14.6981   19.7798 C   0  0  2  0  0  0  0  0  0  0  0  0
    9.5465  -15.2349   18.4340 N   0  0  0  0  0  0  0  0  0  0  0  0
    9.7046  -15.7683   20.7824 C   0  0  0  0  0  0  0  0  0  0  0  0
    9.0677  -15.8439   21.8442 O   0  0  0  0  0  0  0  0  0  0  0  0
   10.6568  -16.8121   20.5444 N   0  0  0  0  0  0  0  0  0  0  0  0
   10.9216  -17.8335   21.5195 C   0  0  1  0  0  0  0  0  0  0  0  0
   11.6384  -19.0265   21.0863 C   0  0  0  0  0  0  0  0  0  0  0  0
   11.1886  -19.7870   19.9338 C   0  0  0  0  0  0  0  0  0  0  0  0
   10.0100  -19.9229   19.2742 C   0  0  0  0  0  0  0  0  0  0  0  0
   10.1558  -20.7599   18.2402 N   0  0  0  0  0  0  0  0  0  0  0  0
   11.4390  -21.1486   18.2562 C   0  0  0  0  0  0  0  0  0  0  0  0
   12.0903  -20.5814   19.2635 N   0  0  0  0  0  0  0  0  0  0  0  0
   11.4612  -17.2035   22.7617 C   0  0  0  0  0  0  0  0  0  0  0  0
   11.7279  -15.9614   22.6739 O   0  0  0  0  0  0  0  0  0  0  0  0
   10.2983  -13.9974   30.5236 O   0  0  0  0  0  0  0  0  0  0  0  0
   10.3029  -14.6395   29.2886 C   0  0  0  0  0  0  0  0  0  0  0  0
   10.2409  -16.0043   29.1614 C   0  0  0  0  0  0  0  0  0  0  0  0
   10.2454  -16.6366   27.9449 C   0  0  0  0  0  0  0  0  0  0  0  0
   10.3143  -15.9061   26.7804 C   0  0  0  0  0  0  0  0  0  0  0  0
   10.3328  -16.5164   25.4404 C   0  0  0  0  0  0  0  0  0  0  0  0
   11.6568  -17.1987   25.2162 C   0  0  2  0  0  0  0  0  0  0  0  0
   11.6689  -17.9132   23.9573 N   0  0  0  0  0  0  0  0  0  0  0  0
   11.9630  -18.1683   26.2914 C   0  0  0  0  0  0  0  0  0  0  0  0
   11.4357  -19.4726   26.2006 O   0  0  0  0  0  0  0  0  0  0  0  0
   10.3774  -14.5159   26.9050 C   0  0  0  0  0  0  0  0  0  0  0  0
   10.3717  -13.9004   28.1298 C   0  0  0  0  0  0  0  0  0  0  0  0
   12.6651  -17.9354   27.3028 O   0  0  0  0  0  0  0  0  0  0  0  0
  2  1  1  0
  2  3  1  0
  3  4  1  1
  5  3  1  0
  5  6  1  6
  7  8  2  0
  7  5  1  0
  9  7  1  0
 10  9  1  0
 10 11  1  6
 12 11  1  0
 13 12  2  0
 14 15  1  0
 14 13  1  0
 15 16  2  0
 16 12  1  0
 17 10  1  0
 17 18  2  0
 19 20  1  0
 20 21  2  0
 21 22  1  0
 23 24  1  0
 23 22  2  0
 25 26  1  0
 25 24  1  1
 26 17  1  0
 27 25  1  0
 28 27  1  0
 29 23  1  0
 30 29  2  0
 30 20  1  0
 31 27  2  0
M  END
$$$$
