PAT.pdb
     RDKit          3D

 20 20  0  0  1  0  0  0  0  0999 V2000
   20.0016  -11.3792  -16.6421 N   0  0  0  0  0  0  0  0  0  0  0  0
   19.6210  -12.3545  -17.6634 C   0  0  0  0  0  0  0  0  0  0  0  0
   18.0973  -12.2457  -17.5926 C   0  0  0  0  0  0  0  0  0  0  0  0
   17.8211  -10.7992  -17.2021 C   0  0  0  0  0  0  0  0  0  0  0  0
   19.1959  -10.2491  -17.0014 C   0  0  1  0  0  0  0  0  0  0  0  0
   19.2600   -9.1514  -16.0227 C   0  0  0  0  0  0  0  0  0  0  0  0
   18.6431   -8.0903  -16.2862 O   0  0  0  0  0  0  0  0  0  0  0  0
   20.3390   -8.5752  -12.4580 C   0  0  0  0  0  0  0  0  0  0  0  0
   19.9067   -8.1086  -13.8379 C   0  0  2  0  0  0  0  0  0  0  0  0
   19.9756   -9.2133  -14.7964 N   0  0  0  0  0  0  0  0  0  0  0  0
   20.7989   -7.0356  -14.2921 C   0  0  0  0  0  0  0  0  0  0  0  0
   21.8507   -7.2246  -14.9734 O   0  0  0  0  0  0  0  0  0  0  0  0
   19.4009   -3.8497  -15.8898 C   0  0  0  0  0  0  0  0  0  0  0  0
   20.3772   -3.3956  -14.8533 C   0  0  1  0  0  0  0  0  0  0  0  0
   19.6275   -3.0709  -13.6997 O   0  0  0  0  0  0  0  0  0  0  0  0
   21.2641   -4.5589  -14.4484 C   0  0  2  0  0  0  0  0  0  0  0  0
   20.5029   -5.6784  -13.9696 N   0  0  0  0  0  0  0  0  0  0  0  0
   22.3490   -4.1535  -13.5511 C   0  0  0  0  0  0  0  0  0  0  0  0
   23.3089   -3.2675  -13.9826 O   0  0  0  0  0  0  0  0  0  0  0  0
   22.4105   -4.6071  -12.3927 O   0  0  0  0  0  0  0  0  0  0  0  0
  2  1  1  0
  3  2  1  0
  4  3  1  0
  4  5  1  0
  5  1  1  0
  5  6  1  1
  7  6  2  0
  9  8  1  1
  9 10  1  0
  9 11  1  0
 10  6  1  0
 11 17  1  0
 12 11  2  0
 14 13  1  6
 14 15  1  0
 16 14  1  0
 16 18  1  0
 16 17  1  1
 18 20  2  0
 18 19  1  0
M  END
$$$$
