PAT.pdb
     RDKit          3D

 20 20  0  0  1  0  0  0  0  0999 V2000
   24.4526  -22.0571  -12.3801 N   0  0  0  0  0  0  0  0  0  0  0  0
   23.6041  -21.4219  -13.3879 C   0  0  0  0  0  0  0  0  0  0  0  0
   23.2637  -20.1127  -12.6746 C   0  0  0  0  0  0  0  0  0  0  0  0
   24.4815  -19.8027  -11.8132 C   0  0  0  0  0  0  0  0  0  0  0  0
   25.3536  -20.9941  -12.0434 C   0  0  1  0  0  0  0  0  0  0  0  0
   26.2356  -21.3133  -10.9088 C   0  0  0  0  0  0  0  0  0  0  0  0
   25.8107  -22.1125  -10.0390 O   0  0  0  0  0  0  0  0  0  0  0  0
   29.7842  -20.7600   -9.7493 C   0  0  0  0  0  0  0  0  0  0  0  0
   28.3163  -21.0864   -9.5312 C   0  0  2  0  0  0  0  0  0  0  0  0
   27.5392  -20.7755  -10.7325 N   0  0  0  0  0  0  0  0  0  0  0  0
   27.7985  -20.2856   -8.4157 C   0  0  0  0  0  0  0  0  0  0  0  0
   27.1640  -19.1974   -8.5547 O   0  0  0  0  0  0  0  0  0  0  0  0
   25.5956  -21.3566   -5.6285 C   0  0  0  0  0  0  0  0  0  0  0  0
   26.7963  -20.7949   -4.9381 C   0  0  1  0  0  0  0  0  0  0  0  0
   27.6236  -21.8902   -4.6003 O   0  0  0  0  0  0  0  0  0  0  0  0
   27.6022  -19.9632   -5.9193 C   0  0  2  0  0  0  0  0  0  0  0  0
   27.9987  -20.7211   -7.0727 N   0  0  0  0  0  0  0  0  0  0  0  0
   28.7048  -19.2450   -5.2752 C   0  0  0  0  0  0  0  0  0  0  0  0
   30.0035  -19.4785   -5.6646 O   0  0  0  0  0  0  0  0  0  0  0  0
   28.4753  -18.4189   -4.3718 O   0  0  0  0  0  0  0  0  0  0  0  0
  2  1  1  0
  3  2  1  0
  4  3  1  0
  4  5  1  0
  5  1  1  0
  5  6  1  1
  7  6  2  0
  9  8  1  6
  9 10  1  0
  9 11  1  0
 10  6  1  0
 11 17  1  0
 12 11  2  0
 14 13  1  6
 14 15  1  0
 16 14  1  0
 16 18  1  0
 16 17  1  6
 18 20  2  0
 18 19  1  0
M  END
$$$$
