PAT.pdb
     RDKit          3D

 20 20  0  0  1  0  0  0  0  0999 V2000
   24.5387  -19.7421  -18.7059 N   0  0  0  0  0  0  0  0  0  0  0  0
   24.2076  -19.6591  -20.1280 C   0  0  0  0  0  0  0  0  0  0  0  0
   24.3719  -18.1567  -20.3608 C   0  0  0  0  0  0  0  0  0  0  0  0
   25.4639  -17.7225  -19.3912 C   0  0  0  0  0  0  0  0  0  0  0  0
   25.7534  -18.9832  -18.6429 C   0  0  1  0  0  0  0  0  0  0  0  0
   26.2334  -18.7621  -17.2690 C   0  0  0  0  0  0  0  0  0  0  0  0
   27.1944  -17.9721  -17.1006 O   0  0  0  0  0  0  0  0  0  0  0  0
   25.4205  -17.4445  -14.6434 C   0  0  0  0  0  0  0  0  0  0  0  0
   25.9584  -18.8589  -14.7802 C   0  0  2  0  0  0  0  0  0  0  0  0
   25.6798  -19.3851  -16.1179 N   0  0  0  0  0  0  0  0  0  0  0  0
   25.3100  -19.7259  -13.7894 C   0  0  0  0  0  0  0  0  0  0  0  0
   24.1324  -20.1801  -13.9028 O   0  0  0  0  0  0  0  0  0  0  0  0
   27.7390  -21.8912  -11.3378 C   0  0  0  0  0  0  0  0  0  0  0  0
   26.5238  -21.4229  -10.6045 C   0  0  1  0  0  0  0  0  0  0  0  0
   26.8962  -20.2559   -9.8989 O   0  0  0  0  0  0  0  0  0  0  0  0
   25.4704  -20.9767  -11.6021 C   0  0  2  0  0  0  0  0  0  0  0  0
   26.0121  -20.1071  -12.6082 N   0  0  0  0  0  0  0  0  0  0  0  0
   24.2664  -20.4524  -10.9524 C   0  0  0  0  0  0  0  0  0  0  0  0
   23.3988  -21.3062  -10.3114 O   0  0  0  0  0  0  0  0  0  0  0  0
   24.0196  -19.2318  -10.9753 O   0  0  0  0  0  0  0  0  0  0  0  0
  2  1  1  0
  3  2  1  0
  4  3  1  0
  4  5  1  0
  5  1  1  0
  5  6  1  1
  7  6  2  0
  9  8  1  6
  9 10  1  0
  9 11  1  0
 10  6  1  0
 11 17  1  0
 12 11  2  0
 14 13  1  6
 14 15  1  0
 16 14  1  0
 16 18  1  0
 16 17  1  6
 18 20  2  0
 18 19  1  0
M  END
$$$$
