PAT.pdb
     RDKit          3D

 20 20  0  0  1  0  0  0  0  0999 V2000
   23.7361  -12.1831  -18.3685 N   0  0  0  0  0  0  0  0  0  0  0  0
   23.9354  -13.0467  -19.5320 C   0  0  0  0  0  0  0  0  0  0  0  0
   22.5046  -13.5366  -19.7585 C   0  0  0  0  0  0  0  0  0  0  0  0
   21.6152  -12.3885  -19.2980 C   0  0  0  0  0  0  0  0  0  0  0  0
   22.6062  -11.3999  -18.7750 C   0  0  1  0  0  0  0  0  0  0  0  0
   22.0779  -10.5377  -17.7052 C   0  0  0  0  0  0  0  0  0  0  0  0
   21.1156   -9.7800  -17.9804 O   0  0  0  0  0  0  0  0  0  0  0  0
   22.1052  -10.3314  -13.9815 C   0  0  0  0  0  0  0  0  0  0  0  0
   21.9326   -9.6944  -15.3501 C   0  0  2  0  0  0  0  0  0  0  0  0
   22.5862  -10.5062  -16.3785 N   0  0  0  0  0  0  0  0  0  0  0  0
   22.5416   -8.3591  -15.3475 C   0  0  0  0  0  0  0  0  0  0  0  0
   23.7767   -8.1395  -15.5276 O   0  0  0  0  0  0  0  0  0  0  0  0
   21.6310   -5.6102  -17.5636 C   0  0  0  0  0  0  0  0  0  0  0  0
   21.4711   -5.0160  -16.2016 C   0  0  1  0  0  0  0  0  0  0  0  0
   20.1055   -5.1415  -15.8584 O   0  0  0  0  0  0  0  0  0  0  0  0
   22.2245   -5.8594  -15.1891 C   0  0  2  0  0  0  0  0  0  0  0  0
   21.7303   -7.2063  -15.1324 N   0  0  0  0  0  0  0  0  0  0  0  0
   22.3251   -5.2100  -13.8797 C   0  0  0  0  0  0  0  0  0  0  0  0
   23.0241   -4.0330  -13.7431 O   0  0  0  0  0  0  0  0  0  0  0  0
   21.7794   -5.7177  -12.8817 O   0  0  0  0  0  0  0  0  0  0  0  0
  2  1  1  0
  3  2  1  0
  4  3  1  0
  4  5  1  0
  5  1  1  0
  5  6  1  1
  7  6  2  0
  9  8  1  1
  9 10  1  0
  9 11  1  0
 10  6  1  0
 11 17  1  0
 12 11  2  0
 14 13  1  6
 14 15  1  0
 16 14  1  0
 16 18  1  0
 16 17  1  1
 18 20  2  0
 18 19  1  0
M  END
$$$$
