PAT.pdb
     RDKit          3D

 20 20  0  0  1  0  0  0  0  0999 V2000
   43.9794  -10.8819   -8.1260 N   0  0  0  0  0  0  0  0  0  0  0  0
   44.5578  -11.7854   -7.1319 C   0  0  0  0  0  0  0  0  0  0  0  0
   44.3296  -10.9728   -5.8567 C   0  0  0  0  0  0  0  0  0  0  0  0
   43.0501  -10.1861   -6.1118 C   0  0  0  0  0  0  0  0  0  0  0  0
   42.7216  -10.5497   -7.5235 C   0  0  1  0  0  0  0  0  0  0  0  0
   41.9838   -9.5038   -8.2505 C   0  0  0  0  0  0  0  0  0  0  0  0
   42.6154   -8.8074   -9.0824 O   0  0  0  0  0  0  0  0  0  0  0  0
   38.4739   -8.2843   -8.8408 C   0  0  0  0  0  0  0  0  0  0  0  0
   39.9770   -8.0858   -8.7410 C   0  0  2  0  0  0  0  0  0  0  0  0
   40.6008   -9.2294   -8.0726 N   0  0  0  0  0  0  0  0  0  0  0  0
   40.2587   -6.8745   -7.9617 C   0  0  0  0  0  0  0  0  0  0  0  0
   40.1978   -6.8110   -6.6975 O   0  0  0  0  0  0  0  0  0  0  0  0
   42.5767   -2.5718   -7.9394 C   0  0  0  0  0  0  0  0  0  0  0  0
   41.8718   -3.5642   -8.8065 C   0  0  1  0  0  0  0  0  0  0  0  0
   42.8652   -4.4094   -9.3517 O   0  0  0  0  0  0  0  0  0  0  0  0
   41.0015   -4.4615   -7.9456 C   0  0  2  0  0  0  0  0  0  0  0  0
   40.6283   -5.6688   -8.6275 N   0  0  0  0  0  0  0  0  0  0  0  0
   39.8713   -3.7449   -7.3493 C   0  0  0  0  0  0  0  0  0  0  0  0
   39.9608   -3.2574   -6.0659 O   0  0  0  0  0  0  0  0  0  0  0  0
   38.8225   -3.5717   -7.9986 O   0  0  0  0  0  0  0  0  0  0  0  0
  2  1  1  0
  3  2  1  0
  4  3  1  0
  4  5  1  0
  5  1  1  0
  5  6  1  6
  7  6  2  0
  9  8  1  1
  9 10  1  0
  9 11  1  0
 10  6  1  0
 11 17  1  0
 12 11  2  0
 14 13  1  1
 14 15  1  0
 16 14  1  0
 16 18  1  0
 16 17  1  6
 18 20  2  0
 18 19  1  0
M  END
$$$$
