PAT.pdb
     RDKit          3D

 20 20  0  0  1  0  0  0  0  0999 V2000
   43.6549  -15.5416   -8.3763 N   0  0  0  0  0  0  0  0  0  0  0  0
   44.2399  -16.8704   -8.5532 C   0  0  0  0  0  0  0  0  0  0  0  0
   43.1148  -17.5658   -9.3206 C   0  0  0  0  0  0  0  0  0  0  0  0
   42.4550  -16.4643  -10.1408 C   0  0  0  0  0  0  0  0  0  0  0  0
   43.1975  -15.2440   -9.7020 C   0  0  1  0  0  0  0  0  0  0  0  0
   42.4059  -14.0055   -9.7825 C   0  0  0  0  0  0  0  0  0  0  0  0
   42.0233  -13.6234  -10.9153 O   0  0  0  0  0  0  0  0  0  0  0  0
   40.1189  -11.9333   -7.8469 C   0  0  0  0  0  0  0  0  0  0  0  0
   41.2712  -11.9817   -8.8362 C   0  0  2  0  0  0  0  0  0  0  0  0
   42.0454  -13.2119   -8.6600 N   0  0  0  0  0  0  0  0  0  0  0  0
   42.1563  -10.8328   -8.6114 C   0  0  0  0  0  0  0  0  0  0  0  0
   42.9578  -10.7318   -7.6350 O   0  0  0  0  0  0  0  0  0  0  0  0
   44.0199   -8.9629  -11.5772 C   0  0  0  0  0  0  0  0  0  0  0  0
   43.3228   -7.9525  -10.7247 C   0  0  1  0  0  0  0  0  0  0  0  0
   42.0834   -7.6778  -11.3467 O   0  0  0  0  0  0  0  0  0  0  0  0
   42.9765   -8.5733   -9.3836 C   0  0  2  0  0  0  0  0  0  0  0  0
   42.1475   -9.7373   -9.5242 N   0  0  0  0  0  0  0  0  0  0  0  0
   42.4613   -7.5918   -8.4255 C   0  0  0  0  0  0  0  0  0  0  0  0
   43.2814   -6.5969   -7.9458 O   0  0  0  0  0  0  0  0  0  0  0  0
   41.2788   -7.6506   -8.0387 O   0  0  0  0  0  0  0  0  0  0  0  0
  2  1  1  0
  3  2  1  0
  4  3  1  0
  4  5  1  0
  5  1  1  0
  5  6  1  1
  7  6  2  0
  9  8  1  1
  9 10  1  0
  9 11  1  0
 10  6  1  0
 11 17  1  0
 12 11  2  0
 14 13  1  6
 14 15  1  0
 16 14  1  0
 16 18  1  0
 16 17  1  6
 18 20  2  0
 18 19  1  0
M  END
$$$$
