PAT.pdb
     RDKit          3D

 20 20  0  0  1  0  0  0  0  0999 V2000
   25.7120  -20.5272  -12.0705 N   0  0  0  0  0  0  0  0  0  0  0  0
   26.4831  -21.2322  -11.0470 C   0  0  0  0  0  0  0  0  0  0  0  0
   27.6992  -21.6633  -11.8679 C   0  0  0  0  0  0  0  0  0  0  0  0
   27.8773  -20.5714  -12.9154 C   0  0  0  0  0  0  0  0  0  0  0  0
   26.7083  -19.6779  -12.6549 C   0  0  1  0  0  0  0  0  0  0  0  0
   26.2342  -18.9562  -13.8471 C   0  0  0  0  0  0  0  0  0  0  0  0
   27.0123  -18.1302  -14.3839 O   0  0  0  0  0  0  0  0  0  0  0  0
   23.8700  -19.3569  -16.6202 C   0  0  0  0  0  0  0  0  0  0  0  0
   24.5893  -18.4238  -15.6608 C   0  0  2  0  0  0  0  0  0  0  0  0
   24.9512  -19.1331  -14.4321 N   0  0  0  0  0  0  0  0  0  0  0  0
   23.7061  -17.3040  -15.3147 C   0  0  0  0  0  0  0  0  0  0  0  0
   22.8616  -17.3288  -14.3701 O   0  0  0  0  0  0  0  0  0  0  0  0
   24.9804  -13.6467  -15.1162 C   0  0  0  0  0  0  0  0  0  0  0  0
   23.7587  -13.6412  -15.9771 C   0  0  1  0  0  0  0  0  0  0  0  0
   24.2032  -13.6865  -17.3183 O   0  0  0  0  0  0  0  0  0  0  0  0
   22.9814  -14.9272  -15.7621 C   0  0  2  0  0  0  0  0  0  0  0  0
   23.7675  -16.0908  -16.0618 N   0  0  0  0  0  0  0  0  0  0  0  0
   21.6731  -14.9107  -16.4214 C   0  0  0  0  0  0  0  0  0  0  0  0
   21.4180  -15.7594  -17.4736 O   0  0  0  0  0  0  0  0  0  0  0  0
   20.7833  -14.1295  -16.0348 O   0  0  0  0  0  0  0  0  0  0  0  0
  2  1  1  0
  3  2  1  0
  4  3  1  0
  4  5  1  0
  5  1  1  0
  5  6  1  6
  7  6  2  0
  9  8  1  6
  9 10  1  0
  9 11  1  0
 10  6  1  0
 11 17  1  0
 12 11  2  0
 14 13  1  1
 14 15  1  0
 16 14  1  0
 16 18  1  0
 16 17  1  6
 18 20  2  0
 18 19  1  0
M  END
$$$$
