PAT.pdb
     RDKit          3D

 20 20  0  0  1  0  0  0  0  0999 V2000
   19.1034  -11.2589  -18.2354 N   0  0  0  0  0  0  0  0  0  0  0  0
   18.1827  -12.3499  -18.5535 C   0  0  0  0  0  0  0  0  0  0  0  0
   18.8067  -13.4825  -17.7374 C   0  0  0  0  0  0  0  0  0  0  0  0
   19.4319  -12.8008  -16.5268 C   0  0  0  0  0  0  0  0  0  0  0  0
   19.1877  -11.3535  -16.8074 C   0  0  1  0  0  0  0  0  0  0  0  0
   20.1963  -10.4558  -16.2211 C   0  0  0  0  0  0  0  0  0  0  0  0
   20.3053  -10.4287  -14.9708 O   0  0  0  0  0  0  0  0  0  0  0  0
   23.0667   -8.2502  -17.2987 C   0  0  0  0  0  0  0  0  0  0  0  0
   22.0259   -8.7459  -16.3090 C   0  0  2  0  0  0  0  0  0  0  0  0
   21.0568   -9.6158  -16.9784 N   0  0  0  0  0  0  0  0  0  0  0  0
   21.3114   -7.5989  -15.7365 C   0  0  0  0  0  0  0  0  0  0  0  0
   20.4325   -6.9268  -16.3546 O   0  0  0  0  0  0  0  0  0  0  0  0
   19.4598   -7.7320  -12.6082 C   0  0  0  0  0  0  0  0  0  0  0  0
   20.3199   -6.5255  -12.4119 C   0  0  1  0  0  0  0  0  0  0  0  0
   21.4208   -6.9319  -11.6237 O   0  0  0  0  0  0  0  0  0  0  0  0
   20.9083   -6.1004  -13.7450 C   0  0  2  0  0  0  0  0  0  0  0  0
   21.5915   -7.1783  -14.4030 N   0  0  0  0  0  0  0  0  0  0  0  0
   21.6998   -4.8716  -13.6443 C   0  0  0  0  0  0  0  0  0  0  0  0
   21.0996   -3.6907  -13.2728 O   0  0  0  0  0  0  0  0  0  0  0  0
   22.9200   -4.8866  -13.8938 O   0  0  0  0  0  0  0  0  0  0  0  0
  2  1  1  0
  3  2  1  0
  4  3  1  0
  4  5  1  0
  5  1  1  0
  5  6  1  6
  7  6  2  0
  9  8  1  6
  9 10  1  0
  9 11  1  0
 10  6  1  0
 11 17  1  0
 12 11  2  0
 14 13  1  6
 14 15  1  0
 16 14  1  0
 16 18  1  0
 16 17  1  1
 18 20  2  0
 18 19  1  0
M  END
$$$$
