PAT.pdb
     RDKit          3D

 20 20  0  0  1  0  0  0  0  0999 V2000
   20.3937  -10.9865  -18.8341 N   0  0  0  0  0  0  0  0  0  0  0  0
   19.6882  -11.8107  -19.8150 C   0  0  0  0  0  0  0  0  0  0  0  0
   19.0774  -12.8690  -18.8956 C   0  0  0  0  0  0  0  0  0  0  0  0
   18.8200  -12.1485  -17.5781 C   0  0  0  0  0  0  0  0  0  0  0  0
   19.3833  -10.7887  -17.8365 C   0  0  1  0  0  0  0  0  0  0  0  0
   19.8807  -10.1118  -16.6276 C   0  0  0  0  0  0  0  0  0  0  0  0
   19.0381   -9.7120  -15.7874 O   0  0  0  0  0  0  0  0  0  0  0  0
   23.0642   -9.6724  -14.7080 C   0  0  0  0  0  0  0  0  0  0  0  0
   21.6616   -9.2367  -15.0975 C   0  0  2  0  0  0  0  0  0  0  0  0
   21.2547   -9.8804  -16.3481 N   0  0  0  0  0  0  0  0  0  0  0  0
   21.6376   -7.7817  -15.2879 C   0  0  0  0  0  0  0  0  0  0  0  0
   21.9919   -7.1973  -16.3551 O   0  0  0  0  0  0  0  0  0  0  0  0
   19.8680   -3.4316  -14.0700 C   0  0  0  0  0  0  0  0  0  0  0  0
   19.8027   -4.9243  -14.0347 C   0  0  1  0  0  0  0  0  0  0  0  0
   18.9982   -5.3245  -15.1261 O   0  0  0  0  0  0  0  0  0  0  0  0
   21.1801   -5.4986  -14.3120 C   0  0  2  0  0  0  0  0  0  0  0  0
   21.1947   -6.9321  -14.2317 N   0  0  0  0  0  0  0  0  0  0  0  0
   22.2295   -4.8506  -13.5211 C   0  0  0  0  0  0  0  0  0  0  0  0
   22.5282   -5.3104  -12.2594 O   0  0  0  0  0  0  0  0  0  0  0  0
   22.8582   -3.8802  -13.9843 O   0  0  0  0  0  0  0  0  0  0  0  0
  2  1  1  0
  3  2  1  0
  4  3  1  0
  4  5  1  0
  5  1  1  0
  5  6  1  1
  7  6  2  0
  9  8  1  6
  9 10  1  0
  9 11  1  0
 10  6  1  0
 11 17  1  0
 12 11  2  0
 14 13  1  6
 14 15  1  0
 16 14  1  0
 16 18  1  0
 16 17  1  1
 18 20  2  0
 18 19  1  0
M  END
$$$$
