PAT.pdb
     RDKit          3D

 20 20  0  0  1  0  0  0  0  0999 V2000
   15.1463  -11.4846  -13.8986 N   0  0  0  0  0  0  0  0  0  0  0  0
   13.8859  -11.7324  -13.1993 C   0  0  0  0  0  0  0  0  0  0  0  0
   14.0413  -10.7849  -12.0091 C   0  0  0  0  0  0  0  0  0  0  0  0
   14.8734   -9.6219  -12.5346 C   0  0  0  0  0  0  0  0  0  0  0  0
   15.1867  -10.0519  -13.9310 C   0  0  1  0  0  0  0  0  0  0  0  0
   16.4562   -9.5149  -14.4477 C   0  0  0  0  0  0  0  0  0  0  0  0
   17.5165  -10.1147  -14.1445 O   0  0  0  0  0  0  0  0  0  0  0  0
   17.7067   -7.0062  -16.9609 C   0  0  0  0  0  0  0  0  0  0  0  0
   17.8681   -7.9000  -15.7429 C   0  0  2  0  0  0  0  0  0  0  0  0
   16.5613   -8.3598  -15.2689 N   0  0  0  0  0  0  0  0  0  0  0  0
   18.5199   -7.1451  -14.6663 C   0  0  0  0  0  0  0  0  0  0  0  0
   17.8970   -6.4984  -13.7720 O   0  0  0  0  0  0  0  0  0  0  0  0
   20.6184   -8.3950  -12.1098 C   0  0  0  0  0  0  0  0  0  0  0  0
   21.4992   -7.3431  -12.7027 C   0  0  1  0  0  0  0  0  0  0  0  0
   22.3731   -7.9993  -13.5995 O   0  0  0  0  0  0  0  0  0  0  0  0
   20.6652   -6.4071  -13.5584 C   0  0  2  0  0  0  0  0  0  0  0  0
   19.9430   -7.1090  -14.5818 N   0  0  0  0  0  0  0  0  0  0  0  0
   21.4346   -5.2635  -14.0552 C   0  0  0  0  0  0  0  0  0  0  0  0
   21.9899   -4.3671  -13.1716 O   0  0  0  0  0  0  0  0  0  0  0  0
   21.5916   -5.0944  -15.2792 O   0  0  0  0  0  0  0  0  0  0  0  0
  2  1  1  0
  3  2  1  0
  4  3  1  0
  4  5  1  0
  5  1  1  0
  5  6  1  1
  7  6  2  0
  9  8  1  6
  9 10  1  0
  9 11  1  0
 10  6  1  0
 11 17  1  0
 12 11  2  0
 14 13  1  6
 14 15  1  0
 16 14  1  0
 16 18  1  0
 16 17  1  6
 18 20  2  0
 18 19  1  0
M  END
$$$$
