PAT.pdb
     RDKit          3D

 20 20  0  0  1  0  0  0  0  0999 V2000
   20.3325  -10.8717  -18.1169 N   0  0  0  0  0  0  0  0  0  0  0  0
   19.9222  -11.6213  -19.3038 C   0  0  0  0  0  0  0  0  0  0  0  0
   18.4024  -11.5874  -19.1382 C   0  0  0  0  0  0  0  0  0  0  0  0
   18.1099  -10.2683  -18.4341 C   0  0  0  0  0  0  0  0  0  0  0  0
   19.4787   -9.7222  -18.1865 C   0  0  1  0  0  0  0  0  0  0  0  0
   19.5674   -8.8559  -16.9997 C   0  0  0  0  0  0  0  0  0  0  0  0
   18.9057   -7.7891  -16.9981 O   0  0  0  0  0  0  0  0  0  0  0  0
   20.9290   -8.9640  -13.4773 C   0  0  0  0  0  0  0  0  0  0  0  0
   20.3195   -8.2683  -14.6828 C   0  0  2  0  0  0  0  0  0  0  0  0
   20.3543   -9.1479  -15.8529 N   0  0  0  0  0  0  0  0  0  0  0  0
   21.0859   -7.0536  -14.9846 C   0  0  0  0  0  0  0  0  0  0  0  0
   22.0393   -7.0019  -15.8179 O   0  0  0  0  0  0  0  0  0  0  0  0
   19.6074   -3.8802  -16.1141 C   0  0  0  0  0  0  0  0  0  0  0  0
   20.4233   -3.4812  -14.9272 C   0  0  1  0  0  0  0  0  0  0  0  0
   19.5420   -3.4320  -13.8229 O   0  0  0  0  0  0  0  0  0  0  0  0
   21.4195   -4.5801  -14.6045 C   0  0  2  0  0  0  0  0  0  0  0  0
   20.7728   -5.8305  -14.3218 N   0  0  0  0  0  0  0  0  0  0  0  0
   22.3946   -4.1749  -13.5888 C   0  0  0  0  0  0  0  0  0  0  0  0
   23.2620   -3.1366  -13.8379 O   0  0  0  0  0  0  0  0  0  0  0  0
   22.4456   -4.7665  -12.4939 O   0  0  0  0  0  0  0  0  0  0  0  0
  2  1  1  0
  3  2  1  0
  4  3  1  0
  4  5  1  0
  5  1  1  0
  5  6  1  1
  7  6  2  0
  9  8  1  1
  9 10  1  0
  9 11  1  0
 10  6  1  0
 11 17  1  0
 12 11  2  0
 14 13  1  6
 14 15  1  0
 16 14  1  0
 16 18  1  0
 16 17  1  1
 18 20  2  0
 18 19  1  0
M  END
$$$$
