PAT.pdb
     RDKit          3D

 20 20  0  0  1  0  0  0  0  0999 V2000
   21.9387  -12.5737  -16.0229 N   0  0  0  0  0  0  0  0  0  0  0  0
   22.4085  -13.8709  -15.5372 C   0  0  0  0  0  0  0  0  0  0  0  0
   23.9205  -13.6795  -15.6618 C   0  0  0  0  0  0  0  0  0  0  0  0
   24.1526  -12.1926  -15.4244 C   0  0  0  0  0  0  0  0  0  0  0  0
   22.7617  -11.6664  -15.2779 C   0  0  1  0  0  0  0  0  0  0  0  0
   22.6099  -10.2630  -15.6956 C   0  0  0  0  0  0  0  0  0  0  0  0
   23.2900   -9.3936  -15.0978 O   0  0  0  0  0  0  0  0  0  0  0  0
   20.9789   -8.2495  -18.4473 C   0  0  0  0  0  0  0  0  0  0  0  0
   21.6920   -8.4138  -17.1156 C   0  0  2  0  0  0  0  0  0  0  0  0
   21.7425   -9.8262  -16.7331 N   0  0  0  0  0  0  0  0  0  0  0  0
   20.9662   -7.6713  -16.0784 C   0  0  0  0  0  0  0  0  0  0  0  0
   19.9114   -8.0864  -15.5119 O   0  0  0  0  0  0  0  0  0  0  0  0
   22.0183   -6.9427  -12.8827 C   0  0  0  0  0  0  0  0  0  0  0  0
   21.7178   -5.5596  -13.3625 C   0  0  1  0  0  0  0  0  0  0  0  0
   22.9413   -5.0043  -13.8020 O   0  0  0  0  0  0  0  0  0  0  0  0
   20.8367   -5.6314  -14.5963 C   0  0  2  0  0  0  0  0  0  0  0  0
   21.4419   -6.3972  -15.6494 N   0  0  0  0  0  0  0  0  0  0  0  0
   20.3571   -4.3143  -15.0227 C   0  0  0  0  0  0  0  0  0  0  0  0
   19.5236   -3.5843  -14.2071 O   0  0  0  0  0  0  0  0  0  0  0  0
   20.6997   -3.8461  -16.1248 O   0  0  0  0  0  0  0  0  0  0  0  0
  2  1  1  0
  3  2  1  0
  4  3  1  0
  4  5  1  0
  5  1  1  0
  5  6  1  6
  7  6  2  0
  9  8  1  6
  9 10  1  0
  9 11  1  0
 10  6  1  0
 11 17  1  0
 12 11  2  0
 14 13  1  6
 14 15  1  0
 16 14  1  0
 16 18  1  0
 16 17  1  6
 18 20  2  0
 18 19  1  0
M  END
$$$$
