PAT.pdb
     RDKit          3D

 20 20  0  0  1  0  0  0  0  0999 V2000
   28.7467  -17.0916  -17.7186 N   0  0  0  0  0  0  0  0  0  0  0  0
   29.0937  -18.4081  -17.1842 C   0  0  0  0  0  0  0  0  0  0  0  0
   30.2382  -18.7924  -18.1228 C   0  0  0  0  0  0  0  0  0  0  0  0
   30.9038  -17.4739  -18.4966 C   0  0  0  0  0  0  0  0  0  0  0  0
   30.0333  -16.4669  -17.8175 C   0  0  1  0  0  0  0  0  0  0  0  0
   29.9975  -15.1598  -18.4934 C   0  0  0  0  0  0  0  0  0  0  0  0
   31.0697  -14.5130  -18.5825 O   0  0  0  0  0  0  0  0  0  0  0  0
   27.7344  -13.1978  -20.7570 C   0  0  0  0  0  0  0  0  0  0  0  0
   28.9015  -13.3179  -19.7915 C   0  0  2  0  0  0  0  0  0  0  0  0
   28.8269  -14.5801  -19.0532 N   0  0  0  0  0  0  0  0  0  0  0  0
   28.8574  -12.2084  -18.8319 C   0  0  0  0  0  0  0  0  0  0  0  0
   28.1293  -12.1926  -17.7947 O   0  0  0  0  0  0  0  0  0  0  0  0
   31.8097  -10.8051  -17.0722 C   0  0  0  0  0  0  0  0  0  0  0  0
   31.1837   -9.6267  -17.7453 C   0  0  1  0  0  0  0  0  0  0  0  0
   31.8614   -9.4493  -18.9732 O   0  0  0  0  0  0  0  0  0  0  0  0
   29.7494   -9.9576  -18.1160 C   0  0  2  0  0  0  0  0  0  0  0  0
   29.6686  -11.0541  -19.0395 N   0  0  0  0  0  0  0  0  0  0  0  0
   28.9889   -8.7763  -18.5316 C   0  0  0  0  0  0  0  0  0  0  0  0
   28.8168   -7.7236  -17.6629 O   0  0  0  0  0  0  0  0  0  0  0  0
   28.4931   -8.7163  -19.6727 O   0  0  0  0  0  0  0  0  0  0  0  0
  2  1  1  0
  3  2  1  0
  4  3  1  0
  4  5  1  0
  5  1  1  0
  5  6  1  6
  7  6  2  0
  9  8  1  6
  9 10  1  0
  9 11  1  0
 10  6  1  0
 11 17  1  0
 12 11  2  0
 14 13  1  6
 14 15  1  0
 16 14  1  0
 16 18  1  0
 16 17  1  6
 18 20  2  0
 18 19  1  0
M  END
$$$$
