QAA.pdb
     RDKit          3D

 20 19  0  0  1  0  0  0  0  0999 V2000
    7.2567  -12.7495   18.6252 N   0  0  0  0  0  0  0  0  0  0  0  0
    8.4220  -13.4314   18.1689 C   0  0  0  0  0  0  0  0  0  0  0  0
    8.8573  -13.2950   16.9911 O   0  0  0  0  0  0  0  0  0  0  0  0
    9.1222  -14.3242   19.1388 C   0  0  0  0  0  0  0  0  0  0  0  0
    8.3454  -14.3316   20.4373 C   0  0  0  0  0  0  0  0  0  0  0  0
    8.1582  -15.7553   20.8912 C   0  0  2  0  0  0  0  0  0  0  0  0
    7.1667  -16.3766   20.0615 N   0  0  0  0  0  0  0  0  0  0  0  0
    7.7845  -15.7456   22.3284 C   0  0  0  0  0  0  0  0  0  0  0  0
    6.7867  -15.0693   22.6660 O   0  0  0  0  0  0  0  0  0  0  0  0
    8.0455  -17.8987   25.2056 C   0  0  0  0  0  0  0  0  0  0  0  0
    8.0379  -16.4565   24.7105 C   0  0  2  0  0  0  0  0  0  0  0  0
    8.4814  -16.4484   23.3321 N   0  0  0  0  0  0  0  0  0  0  0  0
    8.9655  -15.6878   25.5473 C   0  0  0  0  0  0  0  0  0  0  0  0
   10.1917  -15.7488   25.3296 O   0  0  0  0  0  0  0  0  0  0  0  0
    8.7986  -12.9620   28.1596 C   0  0  0  0  0  0  0  0  0  0  0  0
    9.4668  -14.1269   27.4337 C   0  0  2  0  0  0  0  0  0  0  0  0
    8.5267  -14.8529   26.6246 N   0  0  0  0  0  0  0  0  0  0  0  0
   10.0315  -15.0220   28.4649 C   0  0  0  0  0  0  0  0  0  0  0  0
    9.5292  -16.1626   28.6984 O   0  0  0  0  0  0  0  0  0  0  0  0
   11.1289  -14.6341   29.2047 O   0  0  0  0  0  0  0  0  0  0  0  0
  2  1  1  0
  2  4  1  0
  3  2  2  0
  5  4  1  0
  5  6  1  0
  6  7  1  6
  8  6  1  0
  8 12  1  0
  9  8  2  0
 11 12  1  0
 11 13  1  0
 11 10  1  1
 13 17  1  0
 14 13  2  0
 16 15  1  1
 16 18  1  0
 17 16  1  0
 18 19  2  0
 18 20  1  0
M  END
$$$$
