QAA.pdb
     RDKit          3D

 20 19  0  0  1  0  0  0  0  0999 V2000
   12.0683  -18.5228   17.2034 N   0  0  0  0  0  0  0  0  0  0  0  0
   11.2277  -18.3753   18.3447 C   0  0  0  0  0  0  0  0  0  0  0  0
   11.4201  -19.0339   19.4052 O   0  0  0  0  0  0  0  0  0  0  0  0
   10.0973  -17.4055   18.2474 C   0  0  0  0  0  0  0  0  0  0  0  0
   10.1019  -16.7945   16.8631 C   0  0  0  0  0  0  0  0  0  0  0  0
    8.9023  -15.8959   16.7172 C   0  0  2  0  0  0  0  0  0  0  0  0
    8.8739  -15.3792   15.3794 N   0  0  0  0  0  0  0  0  0  0  0  0
    8.9858  -14.8287   17.7465 C   0  0  0  0  0  0  0  0  0  0  0  0
   10.0824  -14.2421   17.8893 O   0  0  0  0  0  0  0  0  0  0  0  0
    6.6897  -12.9669   20.0364 C   0  0  0  0  0  0  0  0  0  0  0  0
    8.0724  -13.4658   19.6312 C   0  0  2  0  0  0  0  0  0  0  0  0
    7.9105  -14.4370   18.5694 N   0  0  0  0  0  0  0  0  0  0  0  0
    8.6866  -14.0945   20.8056 C   0  0  0  0  0  0  0  0  0  0  0  0
    8.9118  -13.4140   21.8258 O   0  0  0  0  0  0  0  0  0  0  0  0
    9.1071  -17.5067   22.2175 C   0  0  0  0  0  0  0  0  0  0  0  0
    9.5981  -16.0735   22.0301 C   0  0  2  0  0  0  0  0  0  0  0  0
    9.0491  -15.4792   20.8421 N   0  0  0  0  0  0  0  0  0  0  0  0
   11.0712  -16.1231   21.9267 C   0  0  0  0  0  0  0  0  0  0  0  0
   11.6758  -15.7190   20.8879 O   0  0  0  0  0  0  0  0  0  0  0  0
   11.8305  -16.6148   22.9677 O   0  0  0  0  0  0  0  0  0  0  0  0
  2  1  1  0
  2  4  1  0
  3  2  2  0
  5  4  1  0
  5  6  1  0
  6  7  1  6
  8  6  1  0
  8 12  1  0
  9  8  2  0
 11 12  1  0
 11 13  1  0
 11 10  1  1
 13 17  1  0
 14 13  2  0
 16 15  1  6
 16 18  1  0
 17 16  1  0
 18 19  2  0
 18 20  1  0
M  END
$$$$
