QAA.pdb
     RDKit          3D

 20 19  0  0  1  0  0  0  0  0999 V2000
   13.0185  -13.8366   20.6395 N   0  0  0  0  0  0  0  0  0  0  0  0
   12.6796  -14.5080   19.4289 C   0  0  0  0  0  0  0  0  0  0  0  0
   13.5622  -14.9555   18.6439 O   0  0  0  0  0  0  0  0  0  0  0  0
   11.2297  -14.6685   19.1126 C   0  0  0  0  0  0  0  0  0  0  0  0
   10.4191  -14.0770   20.2450 C   0  0  0  0  0  0  0  0  0  0  0  0
    8.9730  -14.4581   20.0672 C   0  0  2  0  0  0  0  0  0  0  0  0
    8.3587  -13.5263   19.1661 N   0  0  0  0  0  0  0  0  0  0  0  0
    8.3250  -14.4820   21.4031 C   0  0  0  0  0  0  0  0  0  0  0  0
    7.8831  -13.4016   21.8552 O   0  0  0  0  0  0  0  0  0  0  0  0
    7.1315  -17.0108   23.8743 C   0  0  0  0  0  0  0  0  0  0  0  0
    7.5851  -15.6011   23.5112 C   0  0  2  0  0  0  0  0  0  0  0  0
    8.1774  -15.6418   22.1904 N   0  0  0  0  0  0  0  0  0  0  0  0
    8.5812  -15.1790   24.5019 C   0  0  0  0  0  0  0  0  0  0  0  0
    9.7703  -15.5315   24.3735 O   0  0  0  0  0  0  0  0  0  0  0  0
    8.8598  -12.7737   27.3945 C   0  0  0  0  0  0  0  0  0  0  0  0
    9.2382  -14.0370   26.6257 C   0  0  2  0  0  0  0  0  0  0  0  0
    8.2519  -14.3655   25.6333 N   0  0  0  0  0  0  0  0  0  0  0  0
    9.3409  -15.1358   27.6083 C   0  0  0  0  0  0  0  0  0  0  0  0
    8.4994  -16.0841   27.6311 O   0  0  0  0  0  0  0  0  0  0  0  0
   10.3643  -15.1559   28.5326 O   0  0  0  0  0  0  0  0  0  0  0  0
  2  1  1  0
  2  4  1  0
  3  2  2  0
  5  4  1  0
  5  6  1  0
  6  7  1  6
  8  6  1  0
  8 12  1  0
  9  8  2  0
 11 12  1  0
 11 13  1  0
 11 10  1  1
 13 17  1  0
 14 13  2  0
 16 15  1  1
 16 18  1  0
 17 16  1  0
 18 19  2  0
 18 20  1  0
M  END
$$$$
