QND.pdb
     RDKit          3D

 26 25  0  0  1  0  0  0  0  0999 V2000
   16.7371  -13.8647  -14.2585 N   0  0  0  0  0  0  0  0  0  0  0  0
   15.8494  -13.3708  -15.2401 C   0  0  0  0  0  0  0  0  0  0  0  0
   14.8541  -14.0438  -15.5718 O   0  0  0  0  0  0  0  0  0  0  0  0
   16.1096  -12.0590  -15.8654 C   0  0  0  0  0  0  0  0  0  0  0  0
   17.4190  -11.5266  -15.3265 C   0  0  0  0  0  0  0  0  0  0  0  0
   17.7659  -10.2142  -16.0409 C   0  0  2  0  0  0  0  0  0  0  0  0
   17.9755  -10.5426  -17.4338 N   0  0  0  0  0  0  0  0  0  0  0  0
   19.0305   -9.7404  -15.4575 C   0  0  0  0  0  0  0  0  0  0  0  0
   19.0784   -9.4932  -14.2270 O   0  0  0  0  0  0  0  0  0  0  0  0
   21.9520  -11.8289  -14.9188 N   0  0  0  0  0  0  0  0  0  0  0  0
   22.8021  -11.0681  -15.7547 C   0  0  0  0  0  0  0  0  0  0  0  0
   23.8491  -11.6701  -16.1831 O   0  0  0  0  0  0  0  0  0  0  0  0
   22.5993   -9.6778  -16.1699 C   0  0  0  0  0  0  0  0  0  0  0  0
   21.3657   -9.0171  -15.6164 C   0  0  2  0  0  0  0  0  0  0  0  0
   20.2134   -9.5523  -16.2560 N   0  0  0  0  0  0  0  0  0  0  0  0
   21.4673   -7.5318  -15.7558 C   0  0  0  0  0  0  0  0  0  0  0  0
   21.4102   -6.9418  -16.8693 O   0  0  0  0  0  0  0  0  0  0  0  0
   21.6360   -6.7059  -14.6135 N   0  0  0  0  0  0  0  0  0  0  0  0
   21.7658   -5.2459  -14.7011 C   0  0  1  0  0  0  0  0  0  0  0  0
   20.4494   -4.6132  -15.0173 C   0  0  0  0  0  0  0  0  0  0  0  0
   20.5628   -3.1565  -15.0005 C   0  0  0  0  0  0  0  0  0  0  0  0
   21.6366   -2.5814  -15.2310 O   0  0  0  0  0  0  0  0  0  0  0  0
   22.1707   -4.8398  -13.3293 C   0  0  0  0  0  0  0  0  0  0  0  0
   22.3970   -3.6575  -13.0122 O   0  0  0  0  0  0  0  0  0  0  0  0
   19.4452   -2.3881  -14.7200 O   0  0  0  0  0  0  0  0  0  0  0  0
   22.3189   -5.7803  -12.3148 O   0  0  0  0  0  0  0  0  0  0  0  0
  2  3  2  0
  2  1  1  0
  4  2  1  0
  5  4  1  0
  6  5  1  0
  6  7  1  6
  8  9  2  0
  8  6  1  0
 10 11  1  0
 11 12  2  0
 11 13  1  0
 14 13  1  6
 14 16  1  0
 14 15  1  0
 15  8  1  0
 16 18  1  0
 17 16  2  0
 18 19  1  0
 19 23  1  0
 19 20  1  1
 21 20  1  0
 22 21  2  0
 23 24  2  0
 23 26  1  0
 25 21  1  0
M  END
$$$$
