QND.pdb
     RDKit          3D

 26 25  0  0  1  0  0  0  0  0999 V2000
   14.0753  -20.6250    6.5747 N   0  0  0  0  0  0  0  0  0  0  0  0
   13.7508  -19.2812    6.2844 C   0  0  0  0  0  0  0  0  0  0  0  0
   12.9004  -18.6852    6.9739 O   0  0  0  0  0  0  0  0  0  0  0  0
   14.4233  -18.5936    5.1645 C   0  0  0  0  0  0  0  0  0  0  0  0
   15.6364  -17.8723    5.7090 C   0  0  0  0  0  0  0  0  0  0  0  0
   16.3484  -17.1407    4.5641 C   0  0  2  0  0  0  0  0  0  0  0  0
   16.9541  -18.1585    3.7340 N   0  0  0  0  0  0  0  0  0  0  0  0
   17.4051  -16.3240    5.1809 C   0  0  0  0  0  0  0  0  0  0  0  0
   18.5670  -16.7935    5.2640 O   0  0  0  0  0  0  0  0  0  0  0  0
   20.3174  -11.5436    5.3953 N   0  0  0  0  0  0  0  0  0  0  0  0
   19.2591  -11.9828    6.2244 C   0  0  0  0  0  0  0  0  0  0  0  0
   19.3053  -11.5912    7.4438 O   0  0  0  0  0  0  0  0  0  0  0  0
   18.1327  -12.8300    5.8245 C   0  0  0  0  0  0  0  0  0  0  0  0
   18.2415  -14.2748    6.2311 C   0  0  2  0  0  0  0  0  0  0  0  0
   17.1455  -15.0033    5.6915 N   0  0  0  0  0  0  0  0  0  0  0  0
   18.3349  -14.3881    7.7192 C   0  0  0  0  0  0  0  0  0  0  0  0
   17.3214  -14.4627    8.4664 O   0  0  0  0  0  0  0  0  0  0  0  0
   19.5980  -14.4169    8.3666 N   0  0  0  0  0  0  0  0  0  0  0  0
   19.7411  -14.5087    9.8251 C   0  0  1  0  0  0  0  0  0  0  0  0
   20.1642  -15.8829   10.2323 C   0  0  0  0  0  0  0  0  0  0  0  0
   20.1140  -16.0259   11.6855 C   0  0  0  0  0  0  0  0  0  0  0  0
   19.5548  -15.1866   12.4064 O   0  0  0  0  0  0  0  0  0  0  0  0
   20.8432  -13.5606   10.1368 C   0  0  0  0  0  0  0  0  0  0  0  0
   21.4510  -12.9174    9.2613 O   0  0  0  0  0  0  0  0  0  0  0  0
   20.7047  -17.1264   12.2839 O   0  0  0  0  0  0  0  0  0  0  0  0
   21.2558  -13.3428   11.4476 O   0  0  0  0  0  0  0  0  0  0  0  0
  2  3  2  0
  2  1  1  0
  4  2  1  0
  5  4  1  0
  6  5  1  0
  6  7  1  6
  8  9  2  0
  8  6  1  0
 10 11  1  0
 11 12  2  0
 11 13  1  0
 14 13  1  1
 14 16  1  0
 14 15  1  0
 15  8  1  0
 16 18  1  0
 17 16  2  0
 18 19  1  0
 19 23  1  0
 19 20  1  6
 21 20  1  0
 22 21  2  0
 23 24  2  0
 23 26  1  0
 25 21  1  0
M  END
$$$$
