QND.pdb
     RDKit          3D

 26 25  0  0  1  0  0  0  0  0999 V2000
   24.9667  -23.9562  -15.5817 N   0  0  0  0  0  0  0  0  0  0  0  0
   23.8905  -24.5123  -14.8552 C   0  0  0  0  0  0  0  0  0  0  0  0
   23.9966  -25.6531  -14.3644 O   0  0  0  0  0  0  0  0  0  0  0  0
   22.6470  -23.7352  -14.6836 C   0  0  0  0  0  0  0  0  0  0  0  0
   22.8516  -22.3686  -15.2991 C   0  0  0  0  0  0  0  0  0  0  0  0
   23.8573  -21.5765  -14.4540 C   0  0  2  0  0  0  0  0  0  0  0  0
   23.2520  -21.3915  -13.1536 N   0  0  0  0  0  0  0  0  0  0  0  0
   24.0157  -20.2680  -15.1072 C   0  0  0  0  0  0  0  0  0  0  0  0
   23.3475  -19.2919  -14.6851 O   0  0  0  0  0  0  0  0  0  0  0  0
   27.3579  -17.7679  -15.3004 N   0  0  0  0  0  0  0  0  0  0  0  0
   27.4311  -18.1687  -16.6547 C   0  0  0  0  0  0  0  0  0  0  0  0
   28.5962  -18.1288  -17.1870 O   0  0  0  0  0  0  0  0  0  0  0  0
   26.3161  -18.6186  -17.4919 C   0  0  0  0  0  0  0  0  0  0  0  0
   24.9999  -18.7712  -16.7784 C   0  0  2  0  0  0  0  0  0  0  0  0
   24.9138  -20.0747  -16.2155 N   0  0  0  0  0  0  0  0  0  0  0  0
   23.8689  -18.4664  -17.7078 C   0  0  0  0  0  0  0  0  0  0  0  0
   23.3152  -19.3439  -18.4251 O   0  0  0  0  0  0  0  0  0  0  0  0
   23.3605  -17.1460  -17.8232 N   0  0  0  0  0  0  0  0  0  0  0  0
   22.0491  -16.8485  -18.4128 C   0  0  1  0  0  0  0  0  0  0  0  0
   20.9516  -17.1328  -17.4391 C   0  0  0  0  0  0  0  0  0  0  0  0
   19.6520  -16.8037  -18.0201 C   0  0  0  0  0  0  0  0  0  0  0  0
   19.2160  -17.3898  -19.0217 O   0  0  0  0  0  0  0  0  0  0  0  0
   22.0937  -15.3837  -18.6638 C   0  0  0  0  0  0  0  0  0  0  0  0
   21.1609  -14.7604  -19.2034 O   0  0  0  0  0  0  0  0  0  0  0  0
   18.8780  -15.8108  -17.4429 O   0  0  0  0  0  0  0  0  0  0  0  0
   23.2018  -14.6248  -18.3005 O   0  0  0  0  0  0  0  0  0  0  0  0
  2  3  2  0
  2  1  1  0
  4  2  1  0
  5  4  1  0
  6  5  1  0
  6  7  1  1
  8  9  2  0
  8  6  1  0
 10 11  1  0
 11 12  2  0
 11 13  1  0
 14 13  1  6
 14 16  1  0
 14 15  1  0
 15  8  1  0
 16 18  1  0
 17 16  2  0
 18 19  1  0
 19 23  1  0
 19 20  1  1
 21 20  1  0
 22 21  2  0
 23 24  2  0
 23 26  1  0
 25 21  1  0
M  END
$$$$
