QND.pdb
     RDKit          3D

 26 25  0  0  1  0  0  0  0  0999 V2000
   26.9624  -21.0026  -14.7605 N   0  0  0  0  0  0  0  0  0  0  0  0
   28.1420  -20.2482  -14.9467 C   0  0  0  0  0  0  0  0  0  0  0  0
   29.2167  -20.8281  -15.1965 O   0  0  0  0  0  0  0  0  0  0  0  0
   28.0909  -18.7763  -14.8436 C   0  0  0  0  0  0  0  0  0  0  0  0
   26.6894  -18.3766  -14.4380 C   0  0  0  0  0  0  0  0  0  0  0  0
   25.7071  -18.7734  -15.5474 C   0  0  2  0  0  0  0  0  0  0  0  0
   26.2879  -18.3283  -16.7949 N   0  0  0  0  0  0  0  0  0  0  0  0
   24.4653  -18.0262  -15.2952 C   0  0  0  0  0  0  0  0  0  0  0  0
   23.8595  -18.2009  -14.2090 O   0  0  0  0  0  0  0  0  0  0  0  0
   20.3051  -14.7634  -15.5897 N   0  0  0  0  0  0  0  0  0  0  0  0
   21.2594  -14.5244  -16.6058 C   0  0  0  0  0  0  0  0  0  0  0  0
   21.0457  -13.4980  -17.3428 O   0  0  0  0  0  0  0  0  0  0  0  0
   22.4510  -15.3284  -16.8888 C   0  0  0  0  0  0  0  0  0  0  0  0
   22.6760  -16.4900  -15.9589 C   0  0  2  0  0  0  0  0  0  0  0  0
   23.9251  -17.1016  -16.2573 N   0  0  0  0  0  0  0  0  0  0  0  0
   21.5297  -17.4468  -16.0390 C   0  0  0  0  0  0  0  0  0  0  0  0
   21.3703  -18.2474  -17.0007 O   0  0  0  0  0  0  0  0  0  0  0  0
   20.5512  -17.4940  -15.0115 N   0  0  0  0  0  0  0  0  0  0  0  0
   19.4634  -18.4802  -14.9953 C   0  0  1  0  0  0  0  0  0  0  0  0
   18.9403  -18.6721  -13.6087 C   0  0  0  0  0  0  0  0  0  0  0  0
   17.7879  -19.5703  -13.6145 C   0  0  0  0  0  0  0  0  0  0  0  0
   17.5233  -20.2884  -14.5898 O   0  0  0  0  0  0  0  0  0  0  0  0
   18.3989  -17.8524  -15.8219 C   0  0  0  0  0  0  0  0  0  0  0  0
   17.5196  -18.5108  -16.4076 O   0  0  0  0  0  0  0  0  0  0  0  0
   16.9621  -19.6282  -12.5042 O   0  0  0  0  0  0  0  0  0  0  0  0
   18.3336  -16.4720  -15.9835 O   0  0  0  0  0  0  0  0  0  0  0  0
  2  3  2  0
  2  1  1  0
  4  2  1  0
  5  4  1  0
  6  5  1  0
  6  7  1  6
  8  9  2  0
  8  6  1  0
 10 11  1  0
 11 12  2  0
 11 13  1  0
 14 13  1  6
 14 16  1  0
 14 15  1  0
 15  8  1  0
 16 18  1  0
 17 16  2  0
 18 19  1  0
 19 23  1  0
 19 20  1  1
 21 20  1  0
 22 21  2  0
 23 24  2  0
 23 26  1  0
 25 21  1  0
M  END
$$$$
