QND.pdb
     RDKit          3D

 26 25  0  0  1  0  0  0  0  0999 V2000
   27.0900  -18.9615  -16.0379 N   0  0  0  0  0  0  0  0  0  0  0  0
   27.4307  -18.1014  -17.1053 C   0  0  0  0  0  0  0  0  0  0  0  0
   27.9738  -18.5650  -18.1269 O   0  0  0  0  0  0  0  0  0  0  0  0
   27.1397  -16.6578  -17.0006 C   0  0  0  0  0  0  0  0  0  0  0  0
   26.5381  -16.3915  -15.6384 C   0  0  0  0  0  0  0  0  0  0  0  0
   25.2334  -15.6021  -15.8051 C   0  0  2  0  0  0  0  0  0  0  0  0
   24.8711  -15.6893  -17.2026 N   0  0  0  0  0  0  0  0  0  0  0  0
   25.5433  -14.2038  -15.4694 C   0  0  0  0  0  0  0  0  0  0  0  0
   25.9260  -13.9275  -14.3056 O   0  0  0  0  0  0  0  0  0  0  0  0
   28.0383   -9.6304  -14.8402 N   0  0  0  0  0  0  0  0  0  0  0  0
   27.4300  -10.0294  -16.0531 C   0  0  0  0  0  0  0  0  0  0  0  0
   27.1972   -9.0927  -16.8960 O   0  0  0  0  0  0  0  0  0  0  0  0
   27.0479  -11.3929  -16.4291 C   0  0  0  0  0  0  0  0  0  0  0  0
   25.6696  -11.8146  -15.9963 C   0  0  2  0  0  0  0  0  0  0  0  0
   25.4203  -13.1441  -16.4361 N   0  0  0  0  0  0  0  0  0  0  0  0
   24.6502  -10.8401  -16.4936 C   0  0  0  0  0  0  0  0  0  0  0  0
   24.2646  -10.8036  -17.6940 O   0  0  0  0  0  0  0  0  0  0  0  0
   24.0613   -9.8943  -15.6138 N   0  0  0  0  0  0  0  0  0  0  0  0
   23.0389   -8.9342  -16.0487 C   0  0  1  0  0  0  0  0  0  0  0  0
   21.9610   -8.8038  -15.0219 C   0  0  0  0  0  0  0  0  0  0  0  0
   21.0307   -9.9272  -15.1088 C   0  0  0  0  0  0  0  0  0  0  0  0
   21.0348  -10.7067  -16.0728 O   0  0  0  0  0  0  0  0  0  0  0  0
   23.7728   -7.6439  -16.1335 C   0  0  0  0  0  0  0  0  0  0  0  0
   24.9667   -7.5210  -15.8029 O   0  0  0  0  0  0  0  0  0  0  0  0
   20.1149  -10.1353  -14.0909 O   0  0  0  0  0  0  0  0  0  0  0  0
   23.1480   -6.4897  -16.5953 O   0  0  0  0  0  0  0  0  0  0  0  0
  2  3  2  0
  2  1  1  0
  4  2  1  0
  5  4  1  0
  6  5  1  0
  6  7  1  6
  8  9  2  0
  8  6  1  0
 10 11  1  0
 11 12  2  0
 11 13  1  0
 14 13  1  6
 14 16  1  0
 14 15  1  0
 15  8  1  0
 16 18  1  0
 17 16  2  0
 18 19  1  0
 19 23  1  0
 19 20  1  1
 21 20  1  0
 22 21  2  0
 23 24  2  0
 23 26  1  0
 25 21  1  0
M  END
$$$$
