QND.pdb
     RDKit          3D

 26 25  0  0  1  0  0  0  0  0999 V2000
   15.4651  -11.9582  -13.7647 N   0  0  0  0  0  0  0  0  0  0  0  0
   14.8332  -11.7530  -15.0112 C   0  0  0  0  0  0  0  0  0  0  0  0
   14.0807  -12.6304  -15.4776 O   0  0  0  0  0  0  0  0  0  0  0  0
   15.0705  -10.4981  -15.7518 C   0  0  0  0  0  0  0  0  0  0  0  0
   15.9739   -9.6171  -14.9174 C   0  0  0  0  0  0  0  0  0  0  0  0
   17.3759   -9.5938  -15.5394 C   0  0  2  0  0  0  0  0  0  0  0  0
   17.9967  -10.8583  -15.2113 N   0  0  0  0  0  0  0  0  0  0  0  0
   18.1108   -8.5051  -14.8771 C   0  0  0  0  0  0  0  0  0  0  0  0
   17.7742   -8.1609  -13.7171 O   0  0  0  0  0  0  0  0  0  0  0  0
   21.4662   -4.5572  -13.7035 N   0  0  0  0  0  0  0  0  0  0  0  0
   22.0020   -5.7962  -14.1254 C   0  0  0  0  0  0  0  0  0  0  0  0
   23.2464   -5.9795  -13.8800 O   0  0  0  0  0  0  0  0  0  0  0  0
   21.2774   -6.8727  -14.8057 C   0  0  0  0  0  0  0  0  0  0  0  0
   19.7815   -6.7136  -14.8442 C   0  0  2  0  0  0  0  0  0  0  0  0
   19.2036   -7.8236  -15.5203 N   0  0  0  0  0  0  0  0  0  0  0  0
   19.4160   -5.4035  -15.4656 C   0  0  0  0  0  0  0  0  0  0  0  0
   19.5120   -5.1810  -16.7035 O   0  0  0  0  0  0  0  0  0  0  0  0
   18.9348   -4.3318  -14.6686 N   0  0  0  0  0  0  0  0  0  0  0  0
   18.4684   -3.0629  -15.2417 C   0  0  1  0  0  0  0  0  0  0  0  0
   17.2022   -2.6166  -14.5852 C   0  0  0  0  0  0  0  0  0  0  0  0
   16.7685   -1.3310  -15.1272 C   0  0  0  0  0  0  0  0  0  0  0  0
   16.9705   -1.0180  -16.3097 O   0  0  0  0  0  0  0  0  0  0  0  0
   19.5466   -2.0980  -14.8994 C   0  0  0  0  0  0  0  0  0  0  0  0
   20.4016   -2.3209  -14.0225 O   0  0  0  0  0  0  0  0  0  0  0  0
   16.1126   -0.4299  -14.3050 O   0  0  0  0  0  0  0  0  0  0  0  0
   19.6534   -0.8759  -15.5558 O   0  0  0  0  0  0  0  0  0  0  0  0
  2  3  2  0
  2  1  1  0
  4  2  1  0
  5  4  1  0
  6  5  1  0
  6  7  1  1
  8  9  2  0
  8  6  1  0
 10 11  1  0
 11 12  2  0
 11 13  1  0
 14 13  1  6
 14 16  1  0
 14 15  1  0
 15  8  1  0
 16 18  1  0
 17 16  2  0
 18 19  1  0
 19 23  1  0
 19 20  1  1
 21 20  1  0
 22 21  2  0
 23 24  2  0
 23 26  1  0
 25 21  1  0
M  END
$$$$
