QND.pdb
     RDKit          3D

 26 25  0  0  1  0  0  0  0  0999 V2000
   21.5862  -14.9828  -18.2922 N   0  0  0  0  0  0  0  0  0  0  0  0
   20.2914  -15.5318  -18.1611 C   0  0  0  0  0  0  0  0  0  0  0  0
   20.1311  -16.7662  -18.2253 O   0  0  0  0  0  0  0  0  0  0  0  0
   19.1371  -14.6361  -17.9488 C   0  0  0  0  0  0  0  0  0  0  0  0
   19.5803  -13.2161  -18.2234 C   0  0  0  0  0  0  0  0  0  0  0  0
   19.8145  -12.4908  -16.8921 C   0  0  2  0  0  0  0  0  0  0  0  0
   19.5823  -13.4606  -15.8446 N   0  0  0  0  0  0  0  0  0  0  0  0
   18.7982  -11.4307  -16.8074 C   0  0  0  0  0  0  0  0  0  0  0  0
   18.5932  -10.7022  -17.8097 O   0  0  0  0  0  0  0  0  0  0  0  0
   14.8835  -11.8305  -16.3846 N   0  0  0  0  0  0  0  0  0  0  0  0
   14.9627  -11.2368  -15.1034 C   0  0  0  0  0  0  0  0  0  0  0  0
   13.9969  -11.5023  -14.3039 O   0  0  0  0  0  0  0  0  0  0  0  0
   16.0299  -10.3609  -14.6132 C   0  0  0  0  0  0  0  0  0  0  0  0
   17.1418  -10.0960  -15.5922 C   0  0  2  0  0  0  0  0  0  0  0  0
   18.0328  -11.2046  -15.6093 N   0  0  0  0  0  0  0  0  0  0  0  0
   17.8266   -8.8085  -15.2617 C   0  0  0  0  0  0  0  0  0  0  0  0
   18.6974   -8.7079  -14.3546 O   0  0  0  0  0  0  0  0  0  0  0  0
   17.5171   -7.6191  -15.9723 N   0  0  0  0  0  0  0  0  0  0  0  0
   18.1806   -6.3373  -15.7025 C   0  0  1  0  0  0  0  0  0  0  0  0
   19.1314   -5.9891  -16.8017 C   0  0  0  0  0  0  0  0  0  0  0  0
   19.6771   -4.6484  -16.6028 C   0  0  0  0  0  0  0  0  0  0  0  0
   19.3739   -3.9581  -15.6187 O   0  0  0  0  0  0  0  0  0  0  0  0
   17.0682   -5.3508  -15.7065 C   0  0  0  0  0  0  0  0  0  0  0  0
   16.1524   -5.3664  -16.5495 O   0  0  0  0  0  0  0  0  0  0  0  0
   20.5586   -4.1252  -17.5341 O   0  0  0  0  0  0  0  0  0  0  0  0
   16.9963   -4.3435  -14.7494 O   0  0  0  0  0  0  0  0  0  0  0  0
  2  3  2  0
  2  1  1  0
  4  2  1  0
  5  4  1  0
  6  5  1  0
  6  7  1  1
  8  9  2  0
  8  6  1  0
 10 11  1  0
 11 12  2  0
 11 13  1  0
 14 13  1  1
 14 16  1  0
 14 15  1  0
 15  8  1  0
 16 18  1  0
 17 16  2  0
 18 19  1  0
 19 23  1  0
 19 20  1  6
 21 20  1  0
 22 21  2  0
 23 24  2  0
 23 26  1  0
 25 21  1  0
M  END
$$$$
