CMY.pdb
     RDKit          3D

 27 27  0  0  1  0  0  0  0  0999 V2000
    7.1580  -17.0701   19.2911 N   0  0  0  0  0  0  0  0  0  0  0  0
    6.8298  -17.0746   20.7030 C   0  0  1  0  0  0  0  0  0  0  0  0
    7.0255  -18.4625   21.3020 C   0  0  0  0  0  0  0  0  0  0  0  0
    6.7390  -18.4476   23.0855 S   0  0  0  0  0  0  0  0  0  0  0  0
    7.7120  -16.1519   21.4648 C   0  0  0  0  0  0  0  0  0  0  0  0
    8.8642  -15.9877   21.0547 O   0  0  0  0  0  0  0  0  0  0  0  0
    5.3170  -12.5175   26.3210 C   0  0  0  0  0  0  0  0  0  0  0  0
    6.8264  -11.5920   25.9434 S   0  0  0  0  0  0  0  0  0  0  0  0
    7.8847  -12.5308   24.8203 C   0  0  0  0  0  0  0  0  0  0  0  0
    7.0341  -13.6761   24.2509 C   0  0  0  0  0  0  0  0  0  0  0  0
    7.8928  -14.4730   23.3404 C   0  0  2  0  0  0  0  0  0  0  0  0
    7.2124  -15.4998   22.6191 N   0  0  0  0  0  0  0  0  0  0  0  0
    9.1483  -14.9835   23.9200 C   0  0  0  0  0  0  0  0  0  0  0  0
   10.0289  -14.2038   24.3364 O   0  0  0  0  0  0  0  0  0  0  0  0
   10.6222  -14.0435   30.3837 O   0  0  0  0  0  0  0  0  0  0  0  0
   10.4915  -14.9011   29.2842 C   0  0  0  0  0  0  0  0  0  0  0  0
   11.5652  -15.6641   28.8787 C   0  0  0  0  0  0  0  0  0  0  0  0
   11.4621  -16.5256   27.7877 C   0  0  0  0  0  0  0  0  0  0  0  0
   10.2856  -16.6439   27.0786 C   0  0  0  0  0  0  0  0  0  0  0  0
   10.1744  -17.5501   25.9253 C   0  0  0  0  0  0  0  0  0  0  0  0
   10.5611  -16.9427   24.6108 C   0  0  2  0  0  0  0  0  0  0  0  0
    9.3636  -16.3828   24.0082 N   0  0  0  0  0  0  0  0  0  0  0  0
   11.2859  -17.8312   23.7037 C   0  0  0  0  0  0  0  0  0  0  0  0
   12.5673  -18.2556   23.9983 O   0  0  0  0  0  0  0  0  0  0  0  0
    9.2220  -15.8739   27.4975 C   0  0  0  0  0  0  0  0  0  0  0  0
    9.3177  -15.0147   28.5821 C   0  0  0  0  0  0  0  0  0  0  0  0
   10.7522  -18.2194   22.6451 O   0  0  0  0  0  0  0  0  0  0  0  0
  2  1  1  6
  3  2  1  0
  3  4  1  0
  5  6  2  0
  5  2  1  0
  7  8  1  0
  8  9  1  0
 11 10  1  1
 10  9  1  0
 11 12  1  0
 12  5  1  0
 13 14  2  0
 13 11  1  0
 16 15  1  0
 17 16  2  0
 18 17  1  0
 19 25  1  0
 19 18  2  0
 20 19  1  0
 21 20  1  1
 21 22  1  0
 22 13  1  0
 23 21  1  0
 24 23  1  0
 25 26  2  0
 26 16  1  0
 27 23  2  0
M  END
$$$$
