CMY.pdb
     RDKit          3D

 27 27  0  0  1  0  0  0  0  0999 V2000
    9.6840  -16.2683   18.3720 N   0  0  0  0  0  0  0  0  0  0  0  0
    8.8782  -16.7480   19.4773 C   0  0  1  0  0  0  0  0  0  0  0  0
    9.1857  -18.2100   19.7798 C   0  0  0  0  0  0  0  0  0  0  0  0
    8.0159  -18.8862   20.9787 S   0  0  0  0  0  0  0  0  0  0  0  0
    9.1606  -15.9854   20.7217 C   0  0  0  0  0  0  0  0  0  0  0  0
   10.3398  -15.8538   21.0609 O   0  0  0  0  0  0  0  0  0  0  0  0
    6.3433  -11.0940   26.2248 C   0  0  0  0  0  0  0  0  0  0  0  0
    5.9697  -12.1443   24.7985 S   0  0  0  0  0  0  0  0  0  0  0  0
    7.3724  -13.2143   24.4109 C   0  0  0  0  0  0  0  0  0  0  0  0
    7.0315  -13.9497   23.1061 C   0  0  0  0  0  0  0  0  0  0  0  0
    8.2180  -14.7470   22.7084 C   0  0  2  0  0  0  0  0  0  0  0  0
    8.0864  -15.4417   21.4684 N   0  0  0  0  0  0  0  0  0  0  0  0
    8.7795  -15.6298   23.7468 C   0  0  0  0  0  0  0  0  0  0  0  0
    8.4323  -16.8251   23.8323 O   0  0  0  0  0  0  0  0  0  0  0  0
   12.2668  -17.2765   31.7623 O   0  0  0  0  0  0  0  0  0  0  0  0
   11.9078  -16.6894   30.5426 C   0  0  0  0  0  0  0  0  0  0  0  0
   12.3280  -17.2566   29.3589 C   0  0  0  0  0  0  0  0  0  0  0  0
   11.9848  -16.6926   28.1312 C   0  0  0  0  0  0  0  0  0  0  0  0
   11.2152  -15.5509   28.0588 C   0  0  0  0  0  0  0  0  0  0  0  0
   10.8537  -14.9518   26.7651 C   0  0  0  0  0  0  0  0  0  0  0  0
   10.2102  -15.8956   25.7948 C   0  0  2  0  0  0  0  0  0  0  0  0
    9.7305  -15.1170   24.6659 N   0  0  0  0  0  0  0  0  0  0  0  0
    9.1778  -16.7624   26.3610 C   0  0  0  0  0  0  0  0  0  0  0  0
    9.4538  -18.0764   26.6871 O   0  0  0  0  0  0  0  0  0  0  0  0
   10.8036  -14.9968   29.2518 C   0  0  0  0  0  0  0  0  0  0  0  0
   11.1414  -15.5528   30.4767 C   0  0  0  0  0  0  0  0  0  0  0  0
    8.0270  -16.3228   26.5576 O   0  0  0  0  0  0  0  0  0  0  0  0
  2  1  1  6
  3  2  1  0
  3  4  1  0
  5  6  2  0
  5  2  1  0
  7  8  1  0
  8  9  1  0
 11 10  1  1
 10  9  1  0
 11 12  1  0
 12  5  1  0
 13 14  2  0
 13 11  1  0
 16 15  1  0
 17 16  2  0
 18 17  1  0
 19 25  1  0
 19 18  2  0
 20 19  1  0
 21 20  1  1
 21 22  1  0
 22 13  1  0
 23 21  1  0
 24 23  1  0
 25 26  2  0
 26 16  1  0
 27 23  2  0
M  END
$$$$
