CMY.pdb
     RDKit          3D

 27 27  0  0  1  0  0  0  0  0999 V2000
    8.3287  -17.6042   19.2243 N   0  0  0  0  0  0  0  0  0  0  0  0
    7.8881  -17.5776   20.6050 C   0  0  1  0  0  0  0  0  0  0  0  0
    8.4337  -18.7760   21.3728 C   0  0  0  0  0  0  0  0  0  0  0  0
    8.6909  -20.1886   20.2768 S   0  0  0  0  0  0  0  0  0  0  0  0
    8.3797  -16.3617   21.3049 C   0  0  0  0  0  0  0  0  0  0  0  0
    9.4364  -15.8595   20.9126 O   0  0  0  0  0  0  0  0  0  0  0  0
    6.6479  -10.7451   26.6212 C   0  0  0  0  0  0  0  0  0  0  0  0
    6.1175  -12.2418   25.7518 S   0  0  0  0  0  0  0  0  0  0  0  0
    7.4199  -12.8324   24.6482 C   0  0  0  0  0  0  0  0  0  0  0  0
    6.8995  -14.1152   23.9828 C   0  0  0  0  0  0  0  0  0  0  0  0
    7.9771  -14.6471   23.1124 C   0  0  2  0  0  0  0  0  0  0  0  0
    7.6333  -15.8247   22.3827 N   0  0  0  0  0  0  0  0  0  0  0  0
    9.3031  -14.7883   23.7408 C   0  0  0  0  0  0  0  0  0  0  0  0
   10.0421  -13.7981   23.9143 O   0  0  0  0  0  0  0  0  0  0  0  0
   11.9971  -16.5797   31.6562 O   0  0  0  0  0  0  0  0  0  0  0  0
   11.4316  -16.3542   30.3950 C   0  0  0  0  0  0  0  0  0  0  0  0
   11.0068  -17.4215   29.6335 C   0  0  0  0  0  0  0  0  0  0  0  0
   10.4405  -17.2249   28.3749 C   0  0  0  0  0  0  0  0  0  0  0  0
   10.2863  -15.9594   27.8499 C   0  0  0  0  0  0  0  0  0  0  0  0
    9.6917  -15.7489   26.5212 C   0  0  0  0  0  0  0  0  0  0  0  0
   10.5150  -16.2594   25.3775 C   0  0  2  0  0  0  0  0  0  0  0  0
    9.7506  -16.0684   24.1569 N   0  0  0  0  0  0  0  0  0  0  0  0
   11.0064  -17.6283   25.5265 C   0  0  0  0  0  0  0  0  0  0  0  0
   12.2933  -17.8776   25.9634 O   0  0  0  0  0  0  0  0  0  0  0  0
   10.7164  -14.9036   28.6244 C   0  0  0  0  0  0  0  0  0  0  0  0
   11.2806  -15.0920   29.8774 C   0  0  0  0  0  0  0  0  0  0  0  0
   10.2644  -18.5947   25.2587 O   0  0  0  0  0  0  0  0  0  0  0  0
  2  1  1  6
  3  2  1  0
  3  4  1  0
  5  6  2  0
  5  2  1  0
  7  8  1  0
  8  9  1  0
 11 10  1  1
 10  9  1  0
 11 12  1  0
 12  5  1  0
 13 14  2  0
 13 11  1  0
 16 15  1  0
 17 16  2  0
 18 17  1  0
 19 25  1  0
 19 18  2  0
 20 19  1  0
 21 20  1  1
 21 22  1  0
 22 13  1  0
 23 21  1  0
 24 23  1  0
 25 26  2  0
 26 16  1  0
 27 23  2  0
M  END
$$$$
