CMY.pdb
     RDKit          3D

 27 27  0  0  1  0  0  0  0  0999 V2000
    8.8876  -18.4178   17.9132 N   0  0  0  0  0  0  0  0  0  0  0  0
    8.6111  -18.5023   19.3336 C   0  0  1  0  0  0  0  0  0  0  0  0
    9.3414  -19.6844   19.9602 C   0  0  0  0  0  0  0  0  0  0  0  0
    8.8192  -19.9393   21.6705 S   0  0  0  0  0  0  0  0  0  0  0  0
    9.0775  -17.2845   20.0474 C   0  0  0  0  0  0  0  0  0  0  0  0
   10.2211  -16.8835   19.8146 O   0  0  0  0  0  0  0  0  0  0  0  0
    7.3000  -11.8553   18.8830 C   0  0  0  0  0  0  0  0  0  0  0  0
    7.9504  -12.6591   20.3690 S   0  0  0  0  0  0  0  0  0  0  0  0
    6.9108  -14.0582   20.8428 C   0  0  0  0  0  0  0  0  0  0  0  0
    7.4795  -14.6185   22.1551 C   0  0  0  0  0  0  0  0  0  0  0  0
    8.5818  -15.5510   21.8132 C   0  0  2  0  0  0  0  0  0  0  0  0
    8.2104  -16.6318   20.9580 N   0  0  0  0  0  0  0  0  0  0  0  0
    9.3930  -16.0336   22.9455 C   0  0  0  0  0  0  0  0  0  0  0  0
    8.8728  -16.2748   24.0536 O   0  0  0  0  0  0  0  0  0  0  0  0
   11.2465  -19.3085   29.7628 O   0  0  0  0  0  0  0  0  0  0  0  0
   11.1878  -19.0138   28.3950 C   0  0  0  0  0  0  0  0  0  0  0  0
   12.3415  -19.0262   27.6410 C   0  0  0  0  0  0  0  0  0  0  0  0
   12.3111  -18.7366   26.2778 C   0  0  0  0  0  0  0  0  0  0  0  0
   11.1291  -18.4286   25.6383 C   0  0  0  0  0  0  0  0  0  0  0  0
   11.0942  -18.1199   24.2007 C   0  0  0  0  0  0  0  0  0  0  0  0
   11.6248  -16.7662   23.8366 C   0  0  2  0  0  0  0  0  0  0  0  0
   10.7880  -16.2287   22.7777 N   0  0  0  0  0  0  0  0  0  0  0  0
   13.0485  -16.7238   23.5065 C   0  0  0  0  0  0  0  0  0  0  0  0
   14.0088  -16.7392   24.4997 O   0  0  0  0  0  0  0  0  0  0  0  0
    9.9851  -18.4206   26.4069 C   0  0  0  0  0  0  0  0  0  0  0  0
   10.0082  -18.7078   27.7637 C   0  0  0  0  0  0  0  0  0  0  0  0
   13.4157  -16.6726   22.3154 O   0  0  0  0  0  0  0  0  0  0  0  0
  2  1  1  6
  3  2  1  0
  3  4  1  0
  5  6  2  0
  5  2  1  0
  7  8  1  0
  8  9  1  0
 11 10  1  1
 10  9  1  0
 11 12  1  0
 12  5  1  0
 13 14  2  0
 13 11  1  0
 16 15  1  0
 17 16  2  0
 18 17  1  0
 19 25  1  0
 19 18  2  0
 20 19  1  0
 21 20  1  6
 21 22  1  0
 22 13  1  0
 23 21  1  0
 24 23  1  0
 25 26  2  0
 26 16  1  0
 27 23  2  0
M  END
$$$$
