CMY.pdb
     RDKit          3D

 27 27  0  0  1  0  0  0  0  0999 V2000
    8.4031  -18.5170   21.1051 N   0  0  0  0  0  0  0  0  0  0  0  0
    9.0678  -17.4432   20.3936 C   0  0  1  0  0  0  0  0  0  0  0  0
    8.3720  -17.1570   19.0679 C   0  0  0  0  0  0  0  0  0  0  0  0
    6.6263  -16.7674   19.3203 S   0  0  0  0  0  0  0  0  0  0  0  0
    9.0369  -16.1785   21.1743 C   0  0  0  0  0  0  0  0  0  0  0  0
    9.6946  -15.2242   20.7503 O   0  0  0  0  0  0  0  0  0  0  0  0
    6.4789  -11.3126   26.3210 C   0  0  0  0  0  0  0  0  0  0  0  0
    6.2924  -12.3707   24.8640 S   0  0  0  0  0  0  0  0  0  0  0  0
    7.0495  -13.9858   25.1489 C   0  0  0  0  0  0  0  0  0  0  0  0
    6.8308  -14.8171   23.8758 C   0  0  0  0  0  0  0  0  0  0  0  0
    8.1388  -14.9509   23.1881 C   0  0  2  0  0  0  0  0  0  0  0  0
    8.2668  -16.1074   22.3613 N   0  0  0  0  0  0  0  0  0  0  0  0
    9.3333  -14.7766   24.0341 C   0  0  0  0  0  0  0  0  0  0  0  0
    9.5891  -13.6785   24.5684 O   0  0  0  0  0  0  0  0  0  0  0  0
   11.9459  -16.7968   31.8482 O   0  0  0  0  0  0  0  0  0  0  0  0
   11.4375  -16.6187   30.5555 C   0  0  0  0  0  0  0  0  0  0  0  0
   11.2239  -15.3458   30.0723 C   0  0  0  0  0  0  0  0  0  0  0  0
   10.7188  -15.1405   28.7893 C   0  0  0  0  0  0  0  0  0  0  0  0
   10.4164  -16.2010   27.9617 C   0  0  0  0  0  0  0  0  0  0  0  0
    9.8808  -15.9877   26.6085 C   0  0  0  0  0  0  0  0  0  0  0  0
   10.8975  -16.0744   25.5107 C   0  0  2  0  0  0  0  0  0  0  0  0
   10.2090  -15.8718   24.2476 N   0  0  0  0  0  0  0  0  0  0  0  0
   11.7191  -17.2838   25.5172 C   0  0  0  0  0  0  0  0  0  0  0  0
   13.0209  -17.2558   25.9792 O   0  0  0  0  0  0  0  0  0  0  0  0
   10.6361  -17.4668   28.4606 C   0  0  0  0  0  0  0  0  0  0  0  0
   11.1383  -17.6782   29.7360 C   0  0  0  0  0  0  0  0  0  0  0  0
   11.2512  -18.3632   25.1024 O   0  0  0  0  0  0  0  0  0  0  0  0
  2  1  1  1
  3  2  1  0
  3  4  1  0
  5  6  2  0
  5  2  1  0
  7  8  1  0
  8  9  1  0
 11 10  1  1
 10  9  1  0
 11 12  1  0
 12  5  1  0
 13 14  2  0
 13 11  1  0
 16 15  1  0
 17 16  2  0
 18 17  1  0
 19 25  1  0
 19 18  2  0
 20 19  1  0
 21 20  1  1
 21 22  1  0
 22 13  1  0
 23 21  1  0
 24 23  1  0
 25 26  2  0
 26 16  1  0
 27 23  2  0
M  END
$$$$
