CMY.pdb
     RDKit          3D

 27 27  0  0  1  0  0  0  0  0999 V2000
    9.2633  -16.3018   18.1752 N   0  0  0  0  0  0  0  0  0  0  0  0
    8.4225  -16.6035   19.3167 C   0  0  1  0  0  0  0  0  0  0  0  0
    8.3541  -18.1068   19.5592 C   0  0  0  0  0  0  0  0  0  0  0  0
    9.9487  -18.7496   20.1132 S   0  0  0  0  0  0  0  0  0  0  0  0
    8.9622  -15.9940   20.5606 C   0  0  0  0  0  0  0  0  0  0  0  0
   10.1794  -15.8019   20.6260 O   0  0  0  0  0  0  0  0  0  0  0  0
    7.2296  -11.9382   27.0954 C   0  0  0  0  0  0  0  0  0  0  0  0
    6.6063  -12.9014   25.6950 S   0  0  0  0  0  0  0  0  0  0  0  0
    7.9636  -13.7290   24.8371 C   0  0  0  0  0  0  0  0  0  0  0  0
    7.3547  -14.4640   23.6336 C   0  0  0  0  0  0  0  0  0  0  0  0
    8.4670  -15.0575   22.8512 C   0  0  2  0  0  0  0  0  0  0  0  0
    8.0785  -15.6575   21.6156 N   0  0  0  0  0  0  0  0  0  0  0  0
    9.3817  -15.9401   23.5976 C   0  0  0  0  0  0  0  0  0  0  0  0
    9.2336  -17.1789   23.5859 O   0  0  0  0  0  0  0  0  0  0  0  0
   10.0786  -15.4563   31.2777 O   0  0  0  0  0  0  0  0  0  0  0  0
   10.6016  -15.4468   29.9786 C   0  0  0  0  0  0  0  0  0  0  0  0
   10.5099  -14.3057   29.2111 C   0  0  0  0  0  0  0  0  0  0  0  0
   11.0222  -14.2694   27.9151 C   0  0  0  0  0  0  0  0  0  0  0  0
   11.6367  -15.3708   27.3579 C   0  0  0  0  0  0  0  0  0  0  0  0
   12.1758  -15.3364   25.9899 C   0  0  0  0  0  0  0  0  0  0  0  0
   11.4458  -16.2000   25.0061 C   0  0  2  0  0  0  0  0  0  0  0  0
   10.4493  -15.3769   24.3427 N   0  0  0  0  0  0  0  0  0  0  0  0
   10.8832  -17.4321   25.5568 C   0  0  0  0  0  0  0  0  0  0  0  0
   11.6691  -18.5543   25.7351 O   0  0  0  0  0  0  0  0  0  0  0  0
   11.7198  -16.5032   28.1390 C   0  0  0  0  0  0  0  0  0  0  0  0
   11.2123  -16.5463   29.4291 C   0  0  0  0  0  0  0  0  0  0  0  0
    9.6779  -17.4852   25.8742 O   0  0  0  0  0  0  0  0  0  0  0  0
  2  1  1  6
  3  2  1  0
  3  4  1  0
  5  6  2  0
  5  2  1  0
  7  8  1  0
  8  9  1  0
 11 10  1  1
 10  9  1  0
 11 12  1  0
 12  5  1  0
 13 14  2  0
 13 11  1  0
 16 15  1  0
 17 16  2  0
 18 17  1  0
 19 25  1  0
 19 18  2  0
 20 19  1  0
 21 20  1  1
 21 22  1  0
 22 13  1  0
 23 21  1  0
 24 23  1  0
 25 26  2  0
 26 16  1  0
 27 23  2  0
M  END
$$$$
