CMY.pdb
     RDKit          3D

 27 27  0  0  1  0  0  0  0  0999 V2000
    5.9829  -18.1620   23.5892 N   0  0  0  0  0  0  0  0  0  0  0  0
    6.1809  -17.7518   22.2131 C   0  0  1  0  0  0  0  0  0  0  0  0
    4.8447  -17.5683   21.5029 C   0  0  0  0  0  0  0  0  0  0  0  0
    3.5564  -18.5755   22.2703 S   0  0  0  0  0  0  0  0  0  0  0  0
    6.8889  -16.4470   22.1356 C   0  0  0  0  0  0  0  0  0  0  0  0
    7.1101  -15.9778   21.0159 O   0  0  0  0  0  0  0  0  0  0  0  0
    6.9646  -11.0419   26.0939 C   0  0  0  0  0  0  0  0  0  0  0  0
    5.9307  -12.5266   26.1572 S   0  0  0  0  0  0  0  0  0  0  0  0
    6.2306  -13.5732   24.7157 C   0  0  0  0  0  0  0  0  0  0  0  0
    7.7523  -13.7391   24.5877 C   0  0  0  0  0  0  0  0  0  0  0  0
    8.0212  -14.5725   23.3900 C   0  0  2  0  0  0  0  0  0  0  0  0
    7.2819  -15.7920   23.3289 N   0  0  0  0  0  0  0  0  0  0  0  0
    9.4416  -14.8041   23.0709 C   0  0  0  0  0  0  0  0  0  0  0  0
   10.1080  -13.9542   22.4463 O   0  0  0  0  0  0  0  0  0  0  0  0
   11.4375  -16.3539   31.1985 O   0  0  0  0  0  0  0  0  0  0  0  0
   11.0111  -16.2060   29.8728 C   0  0  0  0  0  0  0  0  0  0  0  0
   11.1165  -14.9803   29.2516 C   0  0  0  0  0  0  0  0  0  0  0  0
   10.6995  -14.8058   27.9329 C   0  0  0  0  0  0  0  0  0  0  0  0
   10.1688  -15.8506   27.2065 C   0  0  0  0  0  0  0  0  0  0  0  0
    9.7255  -15.6691   25.8159 C   0  0  0  0  0  0  0  0  0  0  0  0
   10.6950  -16.1527   24.7802 C   0  0  2  0  0  0  0  0  0  0  0  0
   10.0656  -16.0110   23.4786 N   0  0  0  0  0  0  0  0  0  0  0  0
   11.2281  -17.4954   25.0053 C   0  0  0  0  0  0  0  0  0  0  0  0
   10.4645  -18.6163   24.7418 O   0  0  0  0  0  0  0  0  0  0  0  0
   10.0706  -17.0692   27.8428 C   0  0  0  0  0  0  0  0  0  0  0  0
   10.4835  -17.2498   29.1545 C   0  0  0  0  0  0  0  0  0  0  0  0
   12.3871  -17.6461   25.4415 O   0  0  0  0  0  0  0  0  0  0  0  0
  2  1  1  1
  3  2  1  0
  3  4  1  0
  5  6  2  0
  5  2  1  0
  7  8  1  0
  8  9  1  0
 11 10  1  1
 10  9  1  0
 11 12  1  0
 12  5  1  0
 13 14  2  0
 13 11  1  0
 16 15  1  0
 17 16  2  0
 18 17  1  0
 19 25  1  0
 19 18  2  0
 20 19  1  0
 21 20  1  1
 21 22  1  0
 22 13  1  0
 23 21  1  0
 24 23  1  0
 25 26  2  0
 26 16  1  0
 27 23  2  0
M  END
$$$$
