CMY.pdb
     RDKit          3D

 27 27  0  0  1  0  0  0  0  0999 V2000
    7.5472  -17.9773   19.9202 N   0  0  0  0  0  0  0  0  0  0  0  0
    8.7044  -17.2453   19.4447 C   0  0  1  0  0  0  0  0  0  0  0  0
    8.4305  -16.6214   18.0812 C   0  0  0  0  0  0  0  0  0  0  0  0
    7.9502  -17.8779   16.8756 S   0  0  0  0  0  0  0  0  0  0  0  0
    9.0517  -16.1293   20.3634 C   0  0  0  0  0  0  0  0  0  0  0  0
   10.0893  -15.5003   20.1383 O   0  0  0  0  0  0  0  0  0  0  0  0
    6.7456  -11.5896   26.4080 C   0  0  0  0  0  0  0  0  0  0  0  0
    6.3835  -13.0259   25.3673 S   0  0  0  0  0  0  0  0  0  0  0  0
    7.7386  -13.3338   24.2131 C   0  0  0  0  0  0  0  0  0  0  0  0
    7.3412  -14.5518   23.3658 C   0  0  0  0  0  0  0  0  0  0  0  0
    8.4897  -14.8927   22.4904 C   0  0  2  0  0  0  0  0  0  0  0  0
    8.1961  -15.8261   21.4511 N   0  0  0  0  0  0  0  0  0  0  0  0
    9.7418  -15.2529   23.1800 C   0  0  0  0  0  0  0  0  0  0  0  0
   10.7436  -14.5113   23.1245 O   0  0  0  0  0  0  0  0  0  0  0  0
   11.4992  -15.6874   31.5449 O   0  0  0  0  0  0  0  0  0  0  0  0
   11.0883  -15.6681   30.2062 C   0  0  0  0  0  0  0  0  0  0  0  0
   10.5385  -14.5216   29.6745 C   0  0  0  0  0  0  0  0  0  0  0  0
   10.1213  -14.4755   28.3452 C   0  0  0  0  0  0  0  0  0  0  0  0
   10.2441  -15.5722   27.5186 C   0  0  0  0  0  0  0  0  0  0  0  0
    9.8024  -15.5275   26.1164 C   0  0  0  0  0  0  0  0  0  0  0  0
   10.4598  -16.5323   25.2194 C   0  0  2  0  0  0  0  0  0  0  0  0
    9.8139  -16.4609   23.9201 N   0  0  0  0  0  0  0  0  0  0  0  0
   10.5161  -17.8948   25.7467 C   0  0  0  0  0  0  0  0  0  0  0  0
    9.3645  -18.6393   25.9157 O   0  0  0  0  0  0  0  0  0  0  0  0
   10.7959  -16.7102   28.0664 C   0  0  0  0  0  0  0  0  0  0  0  0
   11.2130  -16.7630   29.3881 C   0  0  0  0  0  0  0  0  0  0  0  0
   11.6125  -18.4050   26.0528 O   0  0  0  0  0  0  0  0  0  0  0  0
  2  1  1  1
  3  2  1  0
  3  4  1  0
  5  6  2  0
  5  2  1  0
  7  8  1  0
  8  9  1  0
 11 10  1  1
 10  9  1  0
 11 12  1  0
 12  5  1  0
 13 14  2  0
 13 11  1  0
 16 15  1  0
 17 16  2  0
 18 17  1  0
 19 25  1  0
 19 18  2  0
 20 19  1  0
 21 20  1  1
 21 22  1  0
 22 13  1  0
 23 21  1  0
 24 23  1  0
 25 26  2  0
 26 16  1  0
 27 23  2  0
M  END
$$$$
