CMY.pdb
     RDKit          3D

 27 27  0  0  1  0  0  0  0  0999 V2000
    8.2512  -15.5504   18.1446 N   0  0  0  0  0  0  0  0  0  0  0  0
    7.8477  -16.2453   19.3511 C   0  0  1  0  0  0  0  0  0  0  0  0
    8.1248  -17.7398   19.2361 C   0  0  0  0  0  0  0  0  0  0  0  0
    7.6025  -18.6149   20.7275 S   0  0  0  0  0  0  0  0  0  0  0  0
    8.6072  -15.7595   20.5331 C   0  0  0  0  0  0  0  0  0  0  0  0
    9.8334  -15.6664   20.4308 O   0  0  0  0  0  0  0  0  0  0  0  0
    6.0605  -12.5830   26.2740 C   0  0  0  0  0  0  0  0  0  0  0  0
    7.1538  -12.0992   24.9147 S   0  0  0  0  0  0  0  0  0  0  0  0
    7.0080  -13.2584   23.5370 C   0  0  0  0  0  0  0  0  0  0  0  0
    7.5956  -14.5966   24.0097 C   0  0  0  0  0  0  0  0  0  0  0  0
    8.5287  -15.0805   22.9625 C   0  0  2  0  0  0  0  0  0  0  0  0
    7.9127  -15.4235   21.7214 N   0  0  0  0  0  0  0  0  0  0  0  0
    9.4823  -16.1240   23.3804 C   0  0  0  0  0  0  0  0  0  0  0  0
    9.1747  -17.3323   23.3361 O   0  0  0  0  0  0  0  0  0  0  0  0
   11.1392  -16.2077   31.6653 O   0  0  0  0  0  0  0  0  0  0  0  0
   10.9423  -15.9810   30.2974 C   0  0  0  0  0  0  0  0  0  0  0  0
   10.9099  -14.6907   29.8142 C   0  0  0  0  0  0  0  0  0  0  0  0
   10.7155  -14.4372   28.4573 C   0  0  0  0  0  0  0  0  0  0  0  0
   10.5494  -15.4657   27.5543 C   0  0  0  0  0  0  0  0  0  0  0  0
   10.3414  -15.2014   26.1224 C   0  0  0  0  0  0  0  0  0  0  0  0
   11.2073  -16.0087   25.2032 C   0  0  2  0  0  0  0  0  0  0  0  0
   10.7719  -15.7537   23.8409 N   0  0  0  0  0  0  0  0  0  0  0  0
   11.2832  -17.4356   25.5129 C   0  0  0  0  0  0  0  0  0  0  0  0
   10.1665  -18.2436   25.4176 O   0  0  0  0  0  0  0  0  0  0  0  0
   10.5845  -16.7496   28.0543 C   0  0  0  0  0  0  0  0  0  0  0  0
   10.7775  -17.0089   29.4030 C   0  0  0  0  0  0  0  0  0  0  0  0
   12.3649  -17.9443   25.8697 O   0  0  0  0  0  0  0  0  0  0  0  0
  2  1  1  6
  3  2  1  0
  3  4  1  0
  5  6  2  0
  5  2  1  0
  7  8  1  0
  8  9  1  0
 11 10  1  1
 10  9  1  0
 11 12  1  0
 12  5  1  0
 13 14  2  0
 13 11  1  0
 16 15  1  0
 17 16  2  0
 18 17  1  0
 19 25  1  0
 19 18  2  0
 20 19  1  0
 21 20  1  1
 21 22  1  0
 22 13  1  0
 23 21  1  0
 24 23  1  0
 25 26  2  0
 26 16  1  0
 27 23  2  0
M  END
$$$$
