MMQ.pdb
     RDKit          3D

 26 25  0  0  1  0  0  0  0  0999 V2000
   29.7458  -24.8023  -16.1585 C   0  0  0  0  0  0  0  0  0  0  0  0
   30.1737  -23.3861  -17.1481 S   0  0  0  0  0  0  0  0  0  0  0  0
   29.2220  -21.9119  -16.8736 C   0  0  0  0  0  0  0  0  0  0  0  0
   28.0846  -22.1646  -15.9297 C   0  0  0  0  0  0  0  0  0  0  0  0
   27.1606  -21.0082  -15.7309 C   0  0  2  0  0  0  0  0  0  0  0  0
   27.8774  -19.8286  -15.3077 N   0  0  0  0  0  0  0  0  0  0  0  0
   26.1786  -21.4258  -14.6724 C   0  0  0  0  0  0  0  0  0  0  0  0
   25.5361  -22.4713  -14.8553 O   0  0  0  0  0  0  0  0  0  0  0  0
   25.7881  -20.0313   -8.1044 C   0  0  0  0  0  0  0  0  0  0  0  0
   27.2333  -20.4947   -9.1004 S   0  0  0  0  0  0  0  0  0  0  0  0
   26.6366  -21.1894  -10.6655 C   0  0  0  0  0  0  0  0  0  0  0  0
   25.4874  -20.3441  -11.1884 C   0  0  0  0  0  0  0  0  0  0  0  0
   25.0396  -20.9601  -12.4856 C   0  0  2  0  0  0  0  0  0  0  0  0
   26.0036  -20.6451  -13.5142 N   0  0  0  0  0  0  0  0  0  0  0  0
   23.6771  -20.4796  -12.8902 C   0  0  0  0  0  0  0  0  0  0  0  0
   23.4896  -19.3083  -13.2806 O   0  0  0  0  0  0  0  0  0  0  0  0
   19.5765  -24.4991  -15.0406 N   0  0  0  0  0  0  0  0  0  0  0  0
   18.7382  -23.3360  -15.0554 C   0  0  0  0  0  0  0  0  0  0  0  0
   17.6129  -23.4031  -15.6073 O   0  0  0  0  0  0  0  0  0  0  0  0
   19.2536  -22.1253  -14.4177 C   0  0  0  0  0  0  0  0  0  0  0  0
   20.6410  -22.2636  -13.8994 C   0  0  0  0  0  0  0  0  0  0  0  0
   21.2489  -21.0352  -13.3135 C   0  0  2  0  0  0  0  0  0  0  0  0
   22.5855  -21.3830  -12.8246 N   0  0  0  0  0  0  0  0  0  0  0  0
   20.4591  -20.4870  -12.1920 C   0  0  0  0  0  0  0  0  0  0  0  0
   19.4031  -19.6159  -12.4479 O   0  0  0  0  0  0  0  0  0  0  0  0
   20.6818  -20.7610  -10.9915 O   0  0  0  0  0  0  0  0  0  0  0  0
  2  1  1  0
  3  2  1  0
  4  3  1  0
  4  5  1  0
  5  6  1  1
  7  5  1  0
  7  8  2  0
 10  9  1  0
 11 10  1  0
 12 11  1  0
 13 12  1  1
 13 14  1  0
 14  7  1  0
 15 13  1  0
 16 15  2  0
 18 17  1  0
 18 19  2  0
 20 18  1  0
 21 20  1  0
 22 21  1  1
 22 24  1  0
 22 23  1  0
 23 15  1  0
 24 25  1  0
 26 24  2  0
M  END
$$$$
