MMQ.pdb
     RDKit          3D

 26 25  0  0  1  0  0  0  0  0999 V2000
   27.4071  -21.0685   -7.8587 C   0  0  0  0  0  0  0  0  0  0  0  0
   28.8960  -21.0718   -8.8339 S   0  0  0  0  0  0  0  0  0  0  0  0
   28.6951  -21.2926  -10.5847 C   0  0  0  0  0  0  0  0  0  0  0  0
   27.4463  -20.6256  -11.0790 C   0  0  0  0  0  0  0  0  0  0  0  0
   27.1692  -20.8050  -12.5355 C   0  0  2  0  0  0  0  0  0  0  0  0
   28.3226  -20.4685  -13.3360 N   0  0  0  0  0  0  0  0  0  0  0  0
   26.0238  -19.8897  -12.8662 C   0  0  0  0  0  0  0  0  0  0  0  0
   25.9007  -18.8489  -12.2021 O   0  0  0  0  0  0  0  0  0  0  0  0
   26.7704  -17.5220  -17.5780 C   0  0  0  0  0  0  0  0  0  0  0  0
   26.0810  -16.3593  -16.3664 S   0  0  0  0  0  0  0  0  0  0  0  0
   25.3784  -17.3232  -15.0006 C   0  0  0  0  0  0  0  0  0  0  0  0
   24.6616  -18.5416  -15.5578 C   0  0  0  0  0  0  0  0  0  0  0  0
   24.1131  -19.3071  -14.3848 C   0  0  2  0  0  0  0  0  0  0  0  0
   25.1259  -20.2158  -13.9001 N   0  0  0  0  0  0  0  0  0  0  0  0
   22.8694  -20.0647  -14.7456 C   0  0  0  0  0  0  0  0  0  0  0  0
   22.9261  -21.1812  -15.3023 O   0  0  0  0  0  0  0  0  0  0  0  0
   17.8202  -19.3251  -11.3956 N   0  0  0  0  0  0  0  0  0  0  0  0
   17.2513  -20.1702  -12.4044 C   0  0  0  0  0  0  0  0  0  0  0  0
   16.0775  -20.5898  -12.2568 O   0  0  0  0  0  0  0  0  0  0  0  0
   18.0857  -20.4965  -13.5600 C   0  0  0  0  0  0  0  0  0  0  0  0
   19.4399  -19.8825  -13.5154 C   0  0  0  0  0  0  0  0  0  0  0  0
   20.3490  -20.2136  -14.6493 C   0  0  2  0  0  0  0  0  0  0  0  0
   21.6074  -19.4920  -14.4434 N   0  0  0  0  0  0  0  0  0  0  0  0
   19.7885  -19.8292  -15.9608 C   0  0  0  0  0  0  0  0  0  0  0  0
   18.9786  -20.7225  -16.6577 O   0  0  0  0  0  0  0  0  0  0  0  0
   19.9987  -18.7218  -16.5041 O   0  0  0  0  0  0  0  0  0  0  0  0
  2  1  1  0
  3  2  1  0
  4  3  1  0
  4  5  1  0
  5  6  1  6
  7  5  1  0
  7  8  2  0
 10  9  1  0
 11 10  1  0
 12 11  1  0
 13 12  1  6
 13 14  1  0
 14  7  1  0
 15 13  1  0
 16 15  2  0
 18 17  1  0
 18 19  2  0
 20 18  1  0
 21 20  1  0
 22 21  1  1
 22 24  1  0
 22 23  1  0
 23 15  1  0
 24 25  1  0
 26 24  2  0
M  END
$$$$
