MMQ.pdb
     RDKit          3D

 26 25  0  0  1  0  0  0  0  0999 V2000
   29.1450  -19.9443   -4.2664 C   0  0  0  0  0  0  0  0  0  0  0  0
   27.3672  -19.9562   -4.1804 S   0  0  0  0  0  0  0  0  0  0  0  0
   26.5057  -20.4012   -5.6684 C   0  0  0  0  0  0  0  0  0  0  0  0
   26.8286  -19.4581   -6.7886 C   0  0  0  0  0  0  0  0  0  0  0  0
   26.0853  -19.7095   -8.0593 C   0  0  2  0  0  0  0  0  0  0  0  0
   25.4295  -20.9955   -8.0398 N   0  0  0  0  0  0  0  0  0  0  0  0
   27.1038  -19.6636   -9.1638 C   0  0  0  0  0  0  0  0  0  0  0  0
   28.0907  -18.9267   -9.0144 O   0  0  0  0  0  0  0  0  0  0  0  0
   31.6535  -21.7116   -9.1938 C   0  0  0  0  0  0  0  0  0  0  0  0
   31.7891  -21.9354  -10.9902 S   0  0  0  0  0  0  0  0  0  0  0  0
   30.2250  -21.4077  -11.7409 C   0  0  0  0  0  0  0  0  0  0  0  0
   29.2065  -21.1331  -10.6473 C   0  0  0  0  0  0  0  0  0  0  0  0
   27.9638  -20.6171  -11.3196 C   0  0  2  0  0  0  0  0  0  0  0  0
   26.9304  -20.4382  -10.3263 N   0  0  0  0  0  0  0  0  0  0  0  0
   27.4877  -21.5440  -12.3990 C   0  0  0  0  0  0  0  0  0  0  0  0
   27.4741  -22.7819  -12.2344 O   0  0  0  0  0  0  0  0  0  0  0  0
   22.6382  -20.2250  -11.7237 N   0  0  0  0  0  0  0  0  0  0  0  0
   22.2476  -20.9738  -12.8823 C   0  0  0  0  0  0  0  0  0  0  0  0
   21.0337  -21.2445  -13.0520 O   0  0  0  0  0  0  0  0  0  0  0  0
   23.3028  -21.3827  -13.8082 C   0  0  0  0  0  0  0  0  0  0  0  0
   24.6767  -21.0833  -13.3230 C   0  0  0  0  0  0  0  0  0  0  0  0
   25.7890  -21.3988  -14.2638 C   0  0  2  0  0  0  0  0  0  0  0  0
   27.0453  -20.9925  -13.6287 N   0  0  0  0  0  0  0  0  0  0  0  0
   25.6595  -20.6957  -15.5564 C   0  0  0  0  0  0  0  0  0  0  0  0
   26.1006  -19.3803  -15.6778 O   0  0  0  0  0  0  0  0  0  0  0  0
   25.1654  -21.2182  -16.5805 O   0  0  0  0  0  0  0  0  0  0  0  0
  2  1  1  0
  3  2  1  0
  4  3  1  0
  4  5  1  0
  5  6  1  1
  7  5  1  0
  7  8  2  0
 10  9  1  0
 11 10  1  0
 12 11  1  0
 13 12  1  1
 13 14  1  0
 14  7  1  0
 15 13  1  0
 16 15  2  0
 18 17  1  0
 18 19  2  0
 20 18  1  0
 21 20  1  0
 22 21  1  1
 22 24  1  0
 22 23  1  0
 23 15  1  0
 24 25  1  0
 26 24  2  0
M  END
$$$$
