MMQ.pdb
     RDKit          3D

 26 25  0  0  1  0  0  0  0  0999 V2000
   16.8477  -25.1918    3.3801 C   0  0  0  0  0  0  0  0  0  0  0  0
   18.5499  -25.1012    2.8680 S   0  0  0  0  0  0  0  0  0  0  0  0
   19.7557  -24.9120    4.1583 C   0  0  0  0  0  0  0  0  0  0  0  0
   19.4460  -23.7282    5.0251 C   0  0  0  0  0  0  0  0  0  0  0  0
   20.3704  -23.5340    6.1819 C   0  0  2  0  0  0  0  0  0  0  0  0
   20.2254  -24.5910    7.1545 N   0  0  0  0  0  0  0  0  0  0  0  0
   20.0098  -22.2107    6.7967 C   0  0  0  0  0  0  0  0  0  0  0  0
   19.0387  -22.1731    7.5678 O   0  0  0  0  0  0  0  0  0  0  0  0
   22.4496  -15.0268    8.6360 C   0  0  0  0  0  0  0  0  0  0  0  0
   22.8896  -16.5852    7.8157 S   0  0  0  0  0  0  0  0  0  0  0  0
   21.3864  -17.5897    7.6761 C   0  0  0  0  0  0  0  0  0  0  0  0
   21.7336  -18.9373    7.0659 C   0  0  0  0  0  0  0  0  0  0  0  0
   20.4736  -19.7590    7.0620 C   0  0  2  0  0  0  0  0  0  0  0  0
   20.7598  -21.0575    6.4978 N   0  0  0  0  0  0  0  0  0  0  0  0
   19.3746  -19.0910    6.2894 C   0  0  0  0  0  0  0  0  0  0  0  0
   19.3330  -19.1405    5.0422 O   0  0  0  0  0  0  0  0  0  0  0  0
   13.8960  -20.3006    7.0213 N   0  0  0  0  0  0  0  0  0  0  0  0
   13.6516  -19.1871    6.1519 C   0  0  0  0  0  0  0  0  0  0  0  0
   12.4986  -19.0209    5.6842 O   0  0  0  0  0  0  0  0  0  0  0  0
   14.7770  -18.3008    5.8586 C   0  0  0  0  0  0  0  0  0  0  0  0
   16.0574  -18.7293    6.4827 C   0  0  0  0  0  0  0  0  0  0  0  0
   17.2073  -17.7929    6.3324 C   0  0  2  0  0  0  0  0  0  0  0  0
   18.3660  -18.3914    7.0002 N   0  0  0  0  0  0  0  0  0  0  0  0
   16.9454  -16.4674    6.9294 C   0  0  0  0  0  0  0  0  0  0  0  0
   16.1559  -15.5439    6.2487 O   0  0  0  0  0  0  0  0  0  0  0  0
   17.3988  -16.1077    8.0388 O   0  0  0  0  0  0  0  0  0  0  0  0
  2  1  1  0
  3  2  1  0
  4  3  1  0
  4  5  1  0
  5  6  1  1
  7  5  1  0
  7  8  2  0
 10  9  1  0
 11 10  1  0
 12 11  1  0
 13 12  1  6
 13 14  1  0
 14  7  1  0
 15 13  1  0
 16 15  2  0
 18 17  1  0
 18 19  2  0
 20 18  1  0
 21 20  1  0
 22 21  1  1
 22 24  1  0
 22 23  1  0
 23 15  1  0
 24 25  1  0
 26 24  2  0
M  END
$$$$
