MMQ.pdb
     RDKit          3D

 26 25  0  0  1  0  0  0  0  0999 V2000
   18.8849  -25.2812  -11.9749 C   0  0  0  0  0  0  0  0  0  0  0  0
   18.4545  -26.9126  -11.4084 S   0  0  0  0  0  0  0  0  0  0  0  0
   17.8835  -27.0434   -9.7316 C   0  0  0  0  0  0  0  0  0  0  0  0
   18.7953  -26.3191   -8.7868 C   0  0  0  0  0  0  0  0  0  0  0  0
   18.3346  -24.9565   -8.3850 C   0  0  2  0  0  0  0  0  0  0  0  0
   19.2604  -23.9382   -8.8211 N   0  0  0  0  0  0  0  0  0  0  0  0
   18.2414  -24.9644   -6.8849 C   0  0  0  0  0  0  0  0  0  0  0  0
   19.2836  -24.7837   -6.2366 O   0  0  0  0  0  0  0  0  0  0  0  0
   13.8781  -23.2414   -0.7506 C   0  0  0  0  0  0  0  0  0  0  0  0
   13.9303  -23.4115   -2.5571 S   0  0  0  0  0  0  0  0  0  0  0  0
   15.4525  -24.2949   -2.9937 C   0  0  0  0  0  0  0  0  0  0  0  0
   15.4993  -24.5091   -4.4973 C   0  0  0  0  0  0  0  0  0  0  0  0
   16.8329  -25.1283   -4.8147 C   0  0  2  0  0  0  0  0  0  0  0  0
   17.0030  -25.1715   -6.2484 N   0  0  0  0  0  0  0  0  0  0  0  0
   16.9589  -26.5075   -4.2379 C   0  0  0  0  0  0  0  0  0  0  0  0
   16.4830  -27.5033   -4.8224 O   0  0  0  0  0  0  0  0  0  0  0  0
   20.3299  -27.4890    0.9673 N   0  0  0  0  0  0  0  0  0  0  0  0
   19.7584  -28.7952    0.8166 C   0  0  0  0  0  0  0  0  0  0  0  0
   20.0579  -29.6904    1.6440 O   0  0  0  0  0  0  0  0  0  0  0  0
   18.8489  -29.0076   -0.3084 C   0  0  0  0  0  0  0  0  0  0  0  0
   18.6563  -27.8037   -1.1605 C   0  0  0  0  0  0  0  0  0  0  0  0
   17.8031  -27.9841   -2.3694 C   0  0  2  0  0  0  0  0  0  0  0  0
   17.6352  -26.6733   -3.0021 N   0  0  0  0  0  0  0  0  0  0  0  0
   16.4696  -28.5332   -2.0498 C   0  0  0  0  0  0  0  0  0  0  0  0
   15.4627  -27.6872   -1.5916 O   0  0  0  0  0  0  0  0  0  0  0  0
   16.1750  -29.7438   -2.1665 O   0  0  0  0  0  0  0  0  0  0  0  0
  2  1  1  0
  3  2  1  0
  4  3  1  0
  4  5  1  0
  5  6  1  1
  7  5  1  0
  7  8  2  0
 10  9  1  0
 11 10  1  0
 12 11  1  0
 13 12  1  6
 13 14  1  0
 14  7  1  0
 15 13  1  0
 16 15  2  0
 18 17  1  0
 18 19  2  0
 20 18  1  0
 21 20  1  0
 22 21  1  1
 22 24  1  0
 22 23  1  0
 23 15  1  0
 24 25  1  0
 26 24  2  0
M  END
$$$$
