MMQ.pdb
     RDKit          3D

 26 25  0  0  1  0  0  0  0  0999 V2000
   18.2049  -21.3529  -12.5191 C   0  0  0  0  0  0  0  0  0  0  0  0
   19.7785  -22.0094  -13.0293 S   0  0  0  0  0  0  0  0  0  0  0  0
   19.8731  -23.7714  -13.2317 C   0  0  0  0  0  0  0  0  0  0  0  0
   19.0981  -24.4855  -12.1649 C   0  0  0  0  0  0  0  0  0  0  0  0
   18.9915  -25.9642  -12.3450 C   0  0  2  0  0  0  0  0  0  0  0  0
   18.2005  -26.2972  -13.5059 N   0  0  0  0  0  0  0  0  0  0  0  0
   18.3373  -26.4978  -11.1014 C   0  0  0  0  0  0  0  0  0  0  0  0
   17.1899  -26.1084  -10.8351 O   0  0  0  0  0  0  0  0  0  0  0  0
   18.3941  -32.1481   -5.6948 C   0  0  0  0  0  0  0  0  0  0  0  0
   19.2819  -31.4338   -7.1079 S   0  0  0  0  0  0  0  0  0  0  0  0
   18.4972  -29.8524   -7.5222 C   0  0  0  0  0  0  0  0  0  0  0  0
   19.0911  -29.3164   -8.8140 C   0  0  0  0  0  0  0  0  0  0  0  0
   18.4320  -27.9922   -9.0879 C   0  0  2  0  0  0  0  0  0  0  0  0
   19.0174  -27.4110  -10.2736 N   0  0  0  0  0  0  0  0  0  0  0  0
   18.5702  -27.0500   -7.9286 C   0  0  0  0  0  0  0  0  0  0  0  0
   19.6297  -26.4213   -7.7238 O   0  0  0  0  0  0  0  0  0  0  0  0
   13.7803  -23.9553   -5.8013 N   0  0  0  0  0  0  0  0  0  0  0  0
   14.6257  -23.7525   -4.6612 C   0  0  0  0  0  0  0  0  0  0  0  0
   14.2139  -23.0346   -3.7175 O   0  0  0  0  0  0  0  0  0  0  0  0
   15.9349  -24.4035   -4.6683 C   0  0  0  0  0  0  0  0  0  0  0  0
   16.1751  -25.2564   -5.8630 C   0  0  0  0  0  0  0  0  0  0  0  0
   17.4996  -25.9370   -5.9289 C   0  0  2  0  0  0  0  0  0  0  0  0
   17.4681  -26.8765   -7.0527 N   0  0  0  0  0  0  0  0  0  0  0  0
   17.8204  -26.6817   -4.6941 C   0  0  0  0  0  0  0  0  0  0  0  0
   18.5058  -26.0483   -3.6604 O   0  0  0  0  0  0  0  0  0  0  0  0
   17.5083  -27.8792   -4.5089 O   0  0  0  0  0  0  0  0  0  0  0  0
  2  1  1  0
  3  2  1  0
  4  3  1  0
  4  5  1  0
  5  6  1  6
  7  5  1  0
  7  8  2  0
 10  9  1  0
 11 10  1  0
 12 11  1  0
 13 12  1  1
 13 14  1  0
 14  7  1  0
 15 13  1  0
 16 15  2  0
 18 17  1  0
 18 19  2  0
 20 18  1  0
 21 20  1  0
 22 21  1  1
 22 24  1  0
 22 23  1  0
 23 15  1  0
 24 25  1  0
 26 24  2  0
M  END
$$$$
