CES.pdb
     RDKit          3D

 22 21  0  0  1  0  0  0  0  0999 V2000
   16.6907  -13.2972  -15.4692 N   0  0  0  0  0  0  0  0  0  0  0  0
   16.5174  -11.9830  -14.9413 C   0  0  1  0  0  0  0  0  0  0  0  0
   16.5405  -11.9684  -13.4284 C   0  0  0  0  0  0  0  0  0  0  0  0
   15.0457  -12.7971  -12.8107 S   0  0  0  0  0  0  0  0  0  0  0  0
   17.5088  -11.0320  -15.4964 C   0  0  0  0  0  0  0  0  0  0  0  0
   18.6146  -11.4805  -15.8692 O   0  0  0  0  0  0  0  0  0  0  0  0
   17.2196   -9.6490  -15.6057 N   0  0  0  0  0  0  0  0  0  0  0  0
   18.1547   -8.6945  -16.2224 C   0  0  1  0  0  0  0  0  0  0  0  0
   17.5353   -8.0487  -17.4254 C   0  0  0  0  0  0  0  0  0  0  0  0
   18.3372   -6.9841  -18.0758 C   0  0  0  0  0  0  0  0  0  0  0  0
   17.5961   -6.4624  -19.2691 C   0  0  0  0  0  0  0  0  0  0  0  0
   17.9741   -5.4002  -19.8225 O   0  0  0  0  0  0  0  0  0  0  0  0
   18.6889   -7.7558  -15.2154 C   0  0  0  0  0  0  0  0  0  0  0  0
   17.9311   -7.1927  -14.3882 O   0  0  0  0  0  0  0  0  0  0  0  0
   16.4899   -7.0990  -19.8120 O   0  0  0  0  0  0  0  0  0  0  0  0
   22.5783   -5.4208  -13.2927 O   0  0  0  0  0  0  0  0  0  0  0  0
   22.0813   -6.3787  -14.1446 C   0  0  0  0  0  0  0  0  0  0  0  0
   20.5707   -6.4372  -14.1685 C   0  0  2  0  0  0  0  0  0  0  0  0
   20.0677   -7.4173  -15.0978 N   0  0  0  0  0  0  0  0  0  0  0  0
   20.0853   -5.0777  -14.5139 C   0  0  0  0  0  0  0  0  0  0  0  0
   20.0350   -4.7620  -15.7240 O   0  0  0  0  0  0  0  0  0  0  0  0
   19.6989   -4.1796  -13.5536 O   0  0  0  0  0  0  0  0  0  0  0  0
  2  1  1  6
  2  3  1  0
  3  4  1  0
  5  2  1  0
  5  7  1  0
  6  5  2  0
  8  7  1  0
  8 13  1  0
  8  9  1  6
 10  9  1  0
 10 11  1  0
 11 15  1  0
 11 12  2  0
 13 14  2  0
 13 19  1  0
 16 17  1  0
 18 17  1  6
 18 20  1  0
 19 18  1  0
 20 22  1  0
 21 20  2  0
M  END
$$$$
