CES.pdb
     RDKit          3D

 22 21  0  0  1  0  0  0  0  0999 V2000
   17.2423  -14.7369  -17.4431 N   0  0  0  0  0  0  0  0  0  0  0  0
   17.6911  -13.8715  -16.4012 C   0  0  1  0  0  0  0  0  0  0  0  0
   18.9550  -14.3797  -15.7424 C   0  0  0  0  0  0  0  0  0  0  0  0
   18.5306  -15.7728  -14.6551 S   0  0  0  0  0  0  0  0  0  0  0  0
   17.8642  -12.4796  -16.8785 C   0  0  0  0  0  0  0  0  0  0  0  0
   18.2774  -12.3011  -18.0448 O   0  0  0  0  0  0  0  0  0  0  0  0
   17.5716  -11.3738  -16.0419 N   0  0  0  0  0  0  0  0  0  0  0  0
   17.7244   -9.9815  -16.4935 C   0  0  1  0  0  0  0  0  0  0  0  0
   16.4423   -9.2242  -16.3175 C   0  0  0  0  0  0  0  0  0  0  0  0
   16.4801   -7.7888  -16.6887 C   0  0  0  0  0  0  0  0  0  0  0  0
   15.1212   -7.1888  -16.4923 C   0  0  0  0  0  0  0  0  0  0  0  0
   14.2899   -7.2063  -17.4336 O   0  0  0  0  0  0  0  0  0  0  0  0
   18.9097   -9.3547  -15.8749 C   0  0  0  0  0  0  0  0  0  0  0  0
   19.1751   -9.5285  -14.6604 O   0  0  0  0  0  0  0  0  0  0  0  0
   14.7172   -6.6005  -15.3030 O   0  0  0  0  0  0  0  0  0  0  0  0
   22.9588   -6.5988  -16.4040 O   0  0  0  0  0  0  0  0  0  0  0  0
   21.8100   -7.1191  -16.9517 C   0  0  0  0  0  0  0  0  0  0  0  0
   20.9794   -7.9112  -15.9675 C   0  0  2  0  0  0  0  0  0  0  0  0
   19.8274   -8.5236  -16.5798 N   0  0  0  0  0  0  0  0  0  0  0  0
   20.5749   -6.9788  -14.8859 C   0  0  0  0  0  0  0  0  0  0  0  0
   19.5869   -6.2376  -15.0886 O   0  0  0  0  0  0  0  0  0  0  0  0
   21.2480   -6.9146  -13.6938 O   0  0  0  0  0  0  0  0  0  0  0  0
  2  1  1  6
  2  3  1  0
  3  4  1  0
  5  2  1  0
  5  7  1  0
  6  5  2  0
  8  7  1  0
  8 13  1  0
  8  9  1  1
 10  9  1  0
 10 11  1  0
 11 15  1  0
 11 12  2  0
 13 14  2  0
 13 19  1  0
 16 17  1  0
 18 17  1  6
 18 20  1  0
 19 18  1  0
 20 22  1  0
 21 20  2  0
M  END
$$$$
