CES.pdb
     RDKit          3D

 22 21  0  0  1  0  0  0  0  0999 V2000
   15.8018  -12.4544  -11.4923 N   0  0  0  0  0  0  0  0  0  0  0  0
   15.1718  -11.1794  -11.6075 C   0  0  1  0  0  0  0  0  0  0  0  0
   13.7208  -11.2196  -11.1805 C   0  0  0  0  0  0  0  0  0  0  0  0
   12.8059  -12.3080  -12.3124 S   0  0  0  0  0  0  0  0  0  0  0  0
   15.9135  -10.1306  -10.8691 C   0  0  0  0  0  0  0  0  0  0  0  0
   16.3227  -10.3947   -9.7178 O   0  0  0  0  0  0  0  0  0  0  0  0
   16.1573   -8.8590  -11.4451 N   0  0  0  0  0  0  0  0  0  0  0  0
   16.8718   -7.7919  -10.7263 C   0  0  1  0  0  0  0  0  0  0  0  0
   17.9807   -7.2367  -11.5691 C   0  0  0  0  0  0  0  0  0  0  0  0
   19.1466   -8.1292  -11.7779 C   0  0  0  0  0  0  0  0  0  0  0  0
   20.1433   -7.4457  -12.6638 C   0  0  0  0  0  0  0  0  0  0  0  0
   19.8891   -6.3053  -13.1247 O   0  0  0  0  0  0  0  0  0  0  0  0
   15.9260   -6.7882  -10.1988 C   0  0  0  0  0  0  0  0  0  0  0  0
   15.0402   -6.2843  -10.9317 O   0  0  0  0  0  0  0  0  0  0  0  0
   21.3601   -8.0120  -13.0135 O   0  0  0  0  0  0  0  0  0  0  0  0
   14.1021   -4.3534   -6.3387 O   0  0  0  0  0  0  0  0  0  0  0  0
   14.9411   -5.3207   -6.8393 C   0  0  0  0  0  0  0  0  0  0  0  0
   15.0153   -5.3299   -8.3494 C   0  0  2  0  0  0  0  0  0  0  0  0
   15.9352   -6.3181   -8.8539 N   0  0  0  0  0  0  0  0  0  0  0  0
   15.4131   -3.9652   -8.7765 C   0  0  0  0  0  0  0  0  0  0  0  0
   14.5849   -3.0386   -8.6276 O   0  0  0  0  0  0  0  0  0  0  0  0
   16.6441   -3.7049   -9.3196 O   0  0  0  0  0  0  0  0  0  0  0  0
  2  1  1  1
  2  3  1  0
  3  4  1  0
  5  2  1  0
  5  7  1  0
  6  5  2  0
  8  7  1  0
  8 13  1  0
  8  9  1  6
 10  9  1  0
 10 11  1  0
 11 15  1  0
 11 12  2  0
 13 14  2  0
 13 19  1  0
 16 17  1  0
 18 17  1  1
 18 20  1  0
 19 18  1  0
 20 22  1  0
 21 20  2  0
M  END
$$$$
