CES.pdb
     RDKit          3D

 22 21  0  0  1  0  0  0  0  0999 V2000
   16.8860  -11.8435  -14.7502 N   0  0  0  0  0  0  0  0  0  0  0  0
   16.6219  -10.4413  -14.7480 C   0  0  1  0  0  0  0  0  0  0  0  0
   15.1410  -10.1398  -14.8205 C   0  0  0  0  0  0  0  0  0  0  0  0
   14.5094  -10.6848  -16.4351 S   0  0  0  0  0  0  0  0  0  0  0  0
   17.2448   -9.7661  -13.5855 C   0  0  0  0  0  0  0  0  0  0  0  0
   17.1207  -10.2932  -12.4587 O   0  0  0  0  0  0  0  0  0  0  0  0
   17.9641   -8.5546  -13.7377 N   0  0  0  0  0  0  0  0  0  0  0  0
   18.5303   -7.8248  -12.5920 C   0  0  1  0  0  0  0  0  0  0  0  0
   19.7839   -7.1048  -12.9902 C   0  0  0  0  0  0  0  0  0  0  0  0
   20.3576   -6.1898  -11.9738 C   0  0  0  0  0  0  0  0  0  0  0  0
   21.5803   -5.5289  -12.5337 C   0  0  0  0  0  0  0  0  0  0  0  0
   22.0633   -4.5220  -11.9591 O   0  0  0  0  0  0  0  0  0  0  0  0
   17.5045   -6.9817  -11.9461 C   0  0  0  0  0  0  0  0  0  0  0  0
   16.8033   -6.1857  -12.6172 O   0  0  0  0  0  0  0  0  0  0  0  0
   22.2261   -5.9745  -13.6774 O   0  0  0  0  0  0  0  0  0  0  0  0
   15.1380   -5.6452   -7.8375 O   0  0  0  0  0  0  0  0  0  0  0  0
   16.0332   -6.4797   -8.4641 C   0  0  0  0  0  0  0  0  0  0  0  0
   16.2634   -6.1327   -9.9176 C   0  0  2  0  0  0  0  0  0  0  0  0
   17.2291   -6.9968  -10.5483 N   0  0  0  0  0  0  0  0  0  0  0  0
   16.7051   -4.7165   -9.9650 C   0  0  0  0  0  0  0  0  0  0  0  0
   17.9316   -4.4809   -9.8837 O   0  0  0  0  0  0  0  0  0  0  0  0
   15.8146   -3.6827  -10.0934 O   0  0  0  0  0  0  0  0  0  0  0  0
  2  1  1  1
  2  3  1  0
  3  4  1  0
  5  2  1  0
  5  7  1  0
  6  5  2  0
  8  7  1  0
  8 13  1  0
  8  9  1  6
 10  9  1  0
 10 11  1  0
 11 15  1  0
 11 12  2  0
 13 14  2  0
 13 19  1  0
 16 17  1  0
 18 17  1  1
 18 20  1  0
 19 18  1  0
 20 22  1  0
 21 20  2  0
M  END
$$$$
