CES.pdb
     RDKit          3D

 22 21  0  0  1  0  0  0  0  0999 V2000
   17.2840  -12.2885  -15.0470 N   0  0  0  0  0  0  0  0  0  0  0  0
   17.2392  -10.9189  -15.4448 C   0  0  1  0  0  0  0  0  0  0  0  0
   16.1781  -10.1421  -14.6965 C   0  0  0  0  0  0  0  0  0  0  0  0
   14.5440  -10.7983  -15.1460 S   0  0  0  0  0  0  0  0  0  0  0  0
   18.5632  -10.2659  -15.3185 C   0  0  0  0  0  0  0  0  0  0  0  0
   19.1972  -10.4153  -14.2515 O   0  0  0  0  0  0  0  0  0  0  0  0
   19.1041   -9.4906  -16.3742 N   0  0  0  0  0  0  0  0  0  0  0  0
   20.4072   -8.8149  -16.2684 C   0  0  1  0  0  0  0  0  0  0  0  0
   21.1227   -8.8352  -17.5860 C   0  0  0  0  0  0  0  0  0  0  0  0
   21.6538  -10.1514  -18.0159 C   0  0  0  0  0  0  0  0  0  0  0  0
   22.2950  -10.0126  -19.3631 C   0  0  0  0  0  0  0  0  0  0  0  0
   23.0554  -10.9175  -19.7880 O   0  0  0  0  0  0  0  0  0  0  0  0
   20.2588   -7.4780  -15.6592 C   0  0  0  0  0  0  0  0  0  0  0  0
   19.2487   -6.7693  -15.8895 O   0  0  0  0  0  0  0  0  0  0  0  0
   22.0935   -8.9167  -20.1890 O   0  0  0  0  0  0  0  0  0  0  0  0
   21.3174   -6.6351  -11.8997 O   0  0  0  0  0  0  0  0  0  0  0  0
   21.6982   -5.6154  -12.7396 C   0  0  0  0  0  0  0  0  0  0  0  0
   21.0056   -5.6520  -14.0831 C   0  0  2  0  0  0  0  0  0  0  0  0
   21.2188   -6.8932  -14.7839 N   0  0  0  0  0  0  0  0  0  0  0  0
   21.5158   -4.5017  -14.8702 C   0  0  0  0  0  0  0  0  0  0  0  0
   22.1749   -4.7452  -15.9060 O   0  0  0  0  0  0  0  0  0  0  0  0
   21.2842   -3.2047  -14.4930 O   0  0  0  0  0  0  0  0  0  0  0  0
  2  1  1  1
  2  3  1  0
  3  4  1  0
  5  2  1  0
  5  7  1  0
  6  5  2  0
  8  7  1  0
  8 13  1  0
  8  9  1  6
 10  9  1  0
 10 11  1  0
 11 15  1  0
 11 12  2  0
 13 14  2  0
 13 19  1  0
 16 17  1  0
 18 17  1  1
 18 20  1  0
 19 18  1  0
 20 22  1  0
 21 20  2  0
M  END
$$$$
