CES.pdb
     RDKit          3D

 22 21  0  0  1  0  0  0  0  0999 V2000
   25.2941  -11.1791  -17.0720 N   0  0  0  0  0  0  0  0  0  0  0  0
   24.9273  -10.1710  -16.1312 C   0  0  1  0  0  0  0  0  0  0  0  0
   26.0799   -9.2453  -15.8088 C   0  0  0  0  0  0  0  0  0  0  0  0
   27.3428  -10.1775  -14.8929 S   0  0  0  0  0  0  0  0  0  0  0  0
   23.7410   -9.4052  -16.5800 C   0  0  0  0  0  0  0  0  0  0  0  0
   23.6272   -9.1510  -17.7987 O   0  0  0  0  0  0  0  0  0  0  0  0
   22.7564   -8.9686  -15.6590 N   0  0  0  0  0  0  0  0  0  0  0  0
   21.5133   -8.3081  -16.0883 C   0  0  1  0  0  0  0  0  0  0  0  0
   20.3154   -9.0469  -15.5710 C   0  0  0  0  0  0  0  0  0  0  0  0
   20.0100  -10.3359  -16.2377 C   0  0  0  0  0  0  0  0  0  0  0  0
   18.7541  -10.9106  -15.6567 C   0  0  0  0  0  0  0  0  0  0  0  0
   18.8050  -11.5651  -14.5859 O   0  0  0  0  0  0  0  0  0  0  0  0
   21.5448   -6.8672  -15.7670 C   0  0  0  0  0  0  0  0  0  0  0  0
   21.9577   -6.4604  -14.6536 O   0  0  0  0  0  0  0  0  0  0  0  0
   17.5077  -10.7587  -16.2460 O   0  0  0  0  0  0  0  0  0  0  0  0
   22.3530   -4.0212  -18.4896 O   0  0  0  0  0  0  0  0  0  0  0  0
   21.3604   -3.5993  -17.6368 C   0  0  0  0  0  0  0  0  0  0  0  0
   21.2488   -4.4363  -16.3826 C   0  0  2  0  0  0  0  0  0  0  0  0
   21.1227   -5.8441  -16.6642 N   0  0  0  0  0  0  0  0  0  0  0  0
   20.0731   -3.9372  -15.6265 C   0  0  0  0  0  0  0  0  0  0  0  0
   19.0892   -4.7004  -15.4999 O   0  0  0  0  0  0  0  0  0  0  0  0
   20.0442   -2.6828  -15.0753 O   0  0  0  0  0  0  0  0  0  0  0  0
  2  1  1  6
  2  3  1  0
  3  4  1  0
  5  2  1  0
  5  7  1  0
  6  5  2  0
  8  7  1  0
  8 13  1  0
  8  9  1  1
 10  9  1  0
 10 11  1  0
 11 15  1  0
 11 12  2  0
 13 14  2  0
 13 19  1  0
 16 17  1  0
 18 17  1  6
 18 20  1  0
 19 18  1  0
 20 22  1  0
 21 20  2  0
M  END
$$$$
