CES.pdb
     RDKit          3D

 22 21  0  0  1  0  0  0  0  0999 V2000
   15.4857  -12.3481  -10.4659 N   0  0  0  0  0  0  0  0  0  0  0  0
   14.9922  -11.0583  -10.8248 C   0  0  1  0  0  0  0  0  0  0  0  0
   13.5452  -10.8697  -10.4249 C   0  0  0  0  0  0  0  0  0  0  0  0
   12.5543  -12.2036  -11.1609 S   0  0  0  0  0  0  0  0  0  0  0  0
   15.8399   -9.9732  -10.2776 C   0  0  0  0  0  0  0  0  0  0  0  0
   16.0235   -9.9320   -9.0417 O   0  0  0  0  0  0  0  0  0  0  0  0
   16.4307   -9.0035  -11.1254 N   0  0  0  0  0  0  0  0  0  0  0  0
   17.2139   -7.8722  -10.6033 C   0  0  1  0  0  0  0  0  0  0  0  0
   18.4412   -7.6492  -11.4353 C   0  0  0  0  0  0  0  0  0  0  0  0
   19.2506   -6.4551  -11.0911 C   0  0  0  0  0  0  0  0  0  0  0  0
   20.3721   -6.3145  -12.0748 C   0  0  0  0  0  0  0  0  0  0  0  0
   20.1483   -6.4656  -13.3015 O   0  0  0  0  0  0  0  0  0  0  0  0
   16.3601   -6.6817  -10.4185 C   0  0  0  0  0  0  0  0  0  0  0  0
   15.6848   -6.2149  -11.3680 O   0  0  0  0  0  0  0  0  0  0  0  0
   21.6751   -6.0200  -11.7017 O   0  0  0  0  0  0  0  0  0  0  0  0
   14.4518   -3.3184   -7.3726 O   0  0  0  0  0  0  0  0  0  0  0  0
   15.1674   -4.4779   -7.5567 C   0  0  0  0  0  0  0  0  0  0  0  0
   15.3929   -4.8212   -9.0118 C   0  0  2  0  0  0  0  0  0  0  0  0
   16.2318   -5.9802   -9.1851 N   0  0  0  0  0  0  0  0  0  0  0  0
   15.9954   -3.6270   -9.6551 C   0  0  0  0  0  0  0  0  0  0  0  0
   17.2408   -3.5896   -9.7742 O   0  0  0  0  0  0  0  0  0  0  0  0
   15.2307   -2.5855  -10.1119 O   0  0  0  0  0  0  0  0  0  0  0  0
  2  1  1  1
  2  3  1  0
  3  4  1  0
  5  2  1  0
  5  7  1  0
  6  5  2  0
  8  7  1  0
  8 13  1  0
  8  9  1  6
 10  9  1  0
 10 11  1  0
 11 15  1  0
 11 12  2  0
 13 14  2  0
 13 19  1  0
 16 17  1  0
 18 17  1  1
 18 20  1  0
 19 18  1  0
 20 22  1  0
 21 20  2  0
M  END
$$$$
