SFH.pdb
     RDKit          3D

 28 29  0  0  1  0  0  0  0  0999 V2000
   23.6903   -4.9735  -21.1845 O   0  0  0  0  0  0  0  0  0  0  0  0
   22.9918   -5.4490  -20.0988 C   0  0  0  0  0  0  0  0  0  0  0  0
   23.4707   -6.8029  -19.6302 C   0  0  2  0  0  0  0  0  0  0  0  0
   23.2846   -7.7651  -20.6928 N   0  0  0  0  0  0  0  0  0  0  0  0
   22.7835   -7.2344  -18.3914 C   0  0  0  0  0  0  0  0  0  0  0  0
   22.0119   -8.2236  -18.4415 O   0  0  0  0  0  0  0  0  0  0  0  0
   22.9307   -6.6080  -17.1351 N   0  0  0  0  0  0  0  0  0  0  0  0
   22.3711   -7.0801  -15.8986 C   0  0  1  0  0  0  0  0  0  0  0  0
   23.3097   -7.2538  -14.7881 C   0  0  0  0  0  0  0  0  0  0  0  0
   24.3198   -8.3119  -14.9615 C   0  0  0  0  0  0  0  0  0  0  0  0
   25.4629   -8.1460  -15.7028 C   0  0  0  0  0  0  0  0  0  0  0  0
   26.3947   -9.1813  -15.8257 C   0  0  0  0  0  0  0  0  0  0  0  0
   26.1710  -10.3964  -15.1954 C   0  0  0  0  0  0  0  0  0  0  0  0
   25.0413  -10.5597  -14.4646 C   0  0  0  0  0  0  0  0  0  0  0  0
   24.1052   -9.5188  -14.3410 C   0  0  0  0  0  0  0  0  0  0  0  0
   21.2107   -6.2747  -15.4625 C   0  0  0  0  0  0  0  0  0  0  0  0
   21.2942   -5.0304  -15.3780 O   0  0  0  0  0  0  0  0  0  0  0  0
   20.0092   -6.9176  -15.1455 N   0  0  0  0  0  0  0  0  0  0  0  0
   18.7464   -6.1869  -14.9714 C   0  0  1  0  0  0  0  0  0  0  0  0
   18.4893   -5.5455  -16.3334 C   0  0  0  0  0  0  0  0  0  0  0  0
   17.2240   -4.8031  -16.3545 C   0  0  0  0  0  0  0  0  0  0  0  0
   17.0784   -3.4777  -15.9378 C   0  0  0  0  0  0  0  0  0  0  0  0
   15.7876   -3.1365  -16.1054 N   0  0  0  0  0  0  0  0  0  0  0  0
   15.1119   -4.1864  -16.6076 C   0  0  0  0  0  0  0  0  0  0  0  0
   16.0001   -5.1898  -16.7531 N   0  0  0  0  0  0  0  0  0  0  0  0
   17.6837   -7.1554  -14.6260 C   0  0  0  0  0  0  0  0  0  0  0  0
   17.9463   -8.5016  -14.8181 O   0  0  0  0  0  0  0  0  0  0  0  0
   16.5552   -6.8443  -14.1690 O   0  0  0  0  0  0  0  0  0  0  0  0
  1  2  1  0
  3  5  1  0
  3  2  1  0
  3  4  1  6
  5  6  2  0
  5  7  1  0
  7  8  1  0
  8  9  1  1
  9 10  1  0
 10 15  1  0
 11 10  2  0
 11 12  1  0
 12 13  2  0
 13 14  1  0
 15 14  2  0
 16 17  2  0
 16  8  1  0
 18 16  1  0
 19 18  1  0
 19 20  1  6
 21 25  1  0
 21 20  1  0
 22 21  2  0
 23 22  1  0
 23 24  1  0
 24 25  2  0
 26 19  1  0
 27 26  1  0
 28 26  2  0
M  END
$$$$
