SFH.pdb
     RDKit          3D

 28 29  0  0  1  0  0  0  0  0999 V2000
   35.7836  -35.9448    2.0051 O   0  0  0  0  0  0  0  0  0  0  0  0
   34.8884  -34.9196    2.2060 C   0  0  0  0  0  0  0  0  0  0  0  0
   35.3351  -33.9391    3.2647 C   0  0  2  0  0  0  0  0  0  0  0  0
   36.3345  -34.5662    4.0997 N   0  0  0  0  0  0  0  0  0  0  0  0
   34.1982  -33.4417    4.0729 C   0  0  0  0  0  0  0  0  0  0  0  0
   34.0949  -33.8177    5.2664 O   0  0  0  0  0  0  0  0  0  0  0  0
   33.2025  -32.5618    3.5969 N   0  0  0  0  0  0  0  0  0  0  0  0
   32.1544  -31.9823    4.3912 C   0  0  1  0  0  0  0  0  0  0  0  0
   31.6316  -30.6938    3.9319 C   0  0  0  0  0  0  0  0  0  0  0  0
   30.5803  -30.0926    4.7703 C   0  0  0  0  0  0  0  0  0  0  0  0
   30.8468  -29.2634    5.8310 C   0  0  0  0  0  0  0  0  0  0  0  0
   29.8090  -28.7107    6.5879 C   0  0  0  0  0  0  0  0  0  0  0  0
   28.4893  -28.9978    6.2724 C   0  0  0  0  0  0  0  0  0  0  0  0
   28.2271  -29.8176    5.2255 C   0  0  0  0  0  0  0  0  0  0  0  0
   29.2703  -30.3727    4.4648 C   0  0  0  0  0  0  0  0  0  0  0  0
   31.0424  -32.9264    4.6303 C   0  0  0  0  0  0  0  0  0  0  0  0
   30.4458  -33.4643    3.6727 O   0  0  0  0  0  0  0  0  0  0  0  0
   30.6608  -33.2187    5.9443 N   0  0  0  0  0  0  0  0  0  0  0  0
   29.5822  -34.1652    6.2598 C   0  0  1  0  0  0  0  0  0  0  0  0
   30.2370  -35.1916    7.1821 C   0  0  0  0  0  0  0  0  0  0  0  0
   31.0216  -36.1764    6.4292 C   0  0  0  0  0  0  0  0  0  0  0  0
   30.6414  -36.7152    5.1977 C   0  0  0  0  0  0  0  0  0  0  0  0
   31.6037  -37.5734    4.8129 N   0  0  0  0  0  0  0  0  0  0  0  0
   32.5731  -37.6017    5.7459 C   0  0  0  0  0  0  0  0  0  0  0  0
   32.2034  -36.7468    6.7202 N   0  0  0  0  0  0  0  0  0  0  0  0
   28.5000  -33.4345    6.9538 C   0  0  0  0  0  0  0  0  0  0  0  0
   27.4076  -34.1615    7.3965 O   0  0  0  0  0  0  0  0  0  0  0  0
   28.4999  -32.1970    7.1717 O   0  0  0  0  0  0  0  0  0  0  0  0
  1  2  1  0
  3  5  1  0
  3  2  1  0
  3  4  1  1
  5  6  2  0
  5  7  1  0
  7  8  1  0
  8  9  1  6
  9 10  1  0
 10 15  1  0
 11 10  2  0
 11 12  1  0
 12 13  2  0
 13 14  1  0
 15 14  2  0
 16 17  2  0
 16  8  1  0
 18 16  1  0
 19 18  1  0
 19 20  1  1
 21 25  1  0
 21 20  1  0
 22 21  2  0
 23 22  1  0
 23 24  1  0
 24 25  2  0
 26 19  1  0
 27 26  1  0
 28 26  2  0
M  END
$$$$
