SFH.pdb
     RDKit          3D

 28 29  0  0  1  0  0  0  0  0999 V2000
   28.5743  -11.1243  -20.2687 O   0  0  0  0  0  0  0  0  0  0  0  0
   29.0494  -10.0613  -19.5359 C   0  0  0  0  0  0  0  0  0  0  0  0
   30.0550  -10.4666  -18.4840 C   0  0  2  0  0  0  0  0  0  0  0  0
   29.4337  -11.3958  -17.5677 N   0  0  0  0  0  0  0  0  0  0  0  0
   30.6067   -9.2949  -17.7657 C   0  0  0  0  0  0  0  0  0  0  0  0
   30.0274   -8.8960  -16.7256 O   0  0  0  0  0  0  0  0  0  0  0  0
   31.7542   -8.5777  -18.1671 N   0  0  0  0  0  0  0  0  0  0  0  0
   32.3423   -7.4791  -17.4513 C   0  0  1  0  0  0  0  0  0  0  0  0
   33.7620   -7.6103  -17.1173 C   0  0  0  0  0  0  0  0  0  0  0  0
   34.1117   -8.7350  -16.2328 C   0  0  0  0  0  0  0  0  0  0  0  0
   34.0844  -10.0463  -16.6371 C   0  0  0  0  0  0  0  0  0  0  0  0
   34.4367  -11.0754  -15.7584 C   0  0  0  0  0  0  0  0  0  0  0  0
   34.8196  -10.7791  -14.4586 C   0  0  0  0  0  0  0  0  0  0  0  0
   34.8451   -9.4839  -14.0599 C   0  0  0  0  0  0  0  0  0  0  0  0
   34.4913   -8.4500  -14.9434 C   0  0  0  0  0  0  0  0  0  0  0  0
   32.0928   -6.1800  -18.1110 C   0  0  0  0  0  0  0  0  0  0  0  0
   31.9553   -6.1110  -19.3514 O   0  0  0  0  0  0  0  0  0  0  0  0
   32.0080   -5.0202  -17.3330 N   0  0  0  0  0  0  0  0  0  0  0  0
   31.6715   -3.7097  -17.9059 C   0  0  1  0  0  0  0  0  0  0  0  0
   30.2371   -3.8718  -18.4048 C   0  0  0  0  0  0  0  0  0  0  0  0
   29.7132   -2.6225  -18.9681 C   0  0  0  0  0  0  0  0  0  0  0  0
   30.5045   -1.6063  -19.5088 C   0  0  0  0  0  0  0  0  0  0  0  0
   29.6818   -0.6274  -19.9280 N   0  0  0  0  0  0  0  0  0  0  0  0
   28.4077   -0.9789  -19.6752 C   0  0  0  0  0  0  0  0  0  0  0  0
   28.4453   -2.1939  -19.0926 N   0  0  0  0  0  0  0  0  0  0  0  0
   31.7553   -2.6911  -16.8372 C   0  0  0  0  0  0  0  0  0  0  0  0
   31.5497   -1.3669  -17.1865 O   0  0  0  0  0  0  0  0  0  0  0  0
   32.0005   -2.9410  -15.6304 O   0  0  0  0  0  0  0  0  0  0  0  0
  1  2  1  0
  3  5  1  0
  3  2  1  0
  3  4  1  1
  5  6  2  0
  5  7  1  0
  7  8  1  0
  8  9  1  6
  9 10  1  0
 10 15  1  0
 11 10  2  0
 11 12  1  0
 12 13  2  0
 13 14  1  0
 15 14  2  0
 16 17  2  0
 16  8  1  0
 18 16  1  0
 19 18  1  0
 19 20  1  1
 21 25  1  0
 21 20  1  0
 22 21  2  0
 23 22  1  0
 23 24  1  0
 24 25  2  0
 26 19  1  0
 27 26  1  0
 28 26  2  0
M  END
$$$$
