SFH.pdb
     RDKit          3D

 28 29  0  0  1  0  0  0  0  0999 V2000
   26.4108  -19.5999  -17.9477 O   0  0  0  0  0  0  0  0  0  0  0  0
   27.6502  -20.1672  -17.7617 C   0  0  0  0  0  0  0  0  0  0  0  0
   27.5844  -21.5715  -17.2089 C   0  0  2  0  0  0  0  0  0  0  0  0
   26.9996  -22.4445  -18.2015 N   0  0  0  0  0  0  0  0  0  0  0  0
   26.8315  -21.6297  -15.9350 C   0  0  0  0  0  0  0  0  0  0  0  0
   25.8069  -22.3527  -15.8710 O   0  0  0  0  0  0  0  0  0  0  0  0
   27.1821  -20.9218  -14.7653 N   0  0  0  0  0  0  0  0  0  0  0  0
   26.4199  -20.8966  -13.5473 C   0  0  1  0  0  0  0  0  0  0  0  0
   27.0976  -20.3475  -12.3710 C   0  0  0  0  0  0  0  0  0  0  0  0
   26.3623  -20.4537  -11.0991 C   0  0  0  0  0  0  0  0  0  0  0  0
   26.2976  -21.6098  -10.3623 C   0  0  0  0  0  0  0  0  0  0  0  0
   25.5936  -21.6524   -9.1549 C   0  0  0  0  0  0  0  0  0  0  0  0
   24.9477  -20.5179   -8.6863 C   0  0  0  0  0  0  0  0  0  0  0  0
   25.0112  -19.3771   -9.4153 C   0  0  0  0  0  0  0  0  0  0  0  0
   25.7191  -19.3345  -10.6285 C   0  0  0  0  0  0  0  0  0  0  0  0
   25.1014  -20.2513  -13.7221 C   0  0  0  0  0  0  0  0  0  0  0  0
   25.0136  -19.1006  -14.2020 O   0  0  0  0  0  0  0  0  0  0  0  0
   23.9440  -20.9423  -13.3472 N   0  0  0  0  0  0  0  0  0  0  0  0
   22.6042  -20.3474  -13.4456 C   0  0  1  0  0  0  0  0  0  0  0  0
   21.8090  -21.3427  -14.2880 C   0  0  0  0  0  0  0  0  0  0  0  0
   21.8611  -21.0099  -15.7159 C   0  0  0  0  0  0  0  0  0  0  0  0
   22.5124  -19.8924  -16.2437 C   0  0  0  0  0  0  0  0  0  0  0  0
   22.3521  -19.9195  -17.5794 N   0  0  0  0  0  0  0  0  0  0  0  0
   21.6284  -21.0021  -17.9185 C   0  0  0  0  0  0  0  0  0  0  0  0
   21.3393  -21.6534  -16.7743 N   0  0  0  0  0  0  0  0  0  0  0  0
   22.0396  -20.2263  -12.0842 C   0  0  0  0  0  0  0  0  0  0  0  0
   22.3495  -21.2138  -11.1640 O   0  0  0  0  0  0  0  0  0  0  0  0
   21.2963  -19.2887  -11.7005 O   0  0  0  0  0  0  0  0  0  0  0  0
  1  2  1  0
  3  5  1  0
  3  2  1  0
  3  4  1  6
  5  6  2  0
  5  7  1  0
  7  8  1  0
  8  9  1  1
  9 10  1  0
 10 15  1  0
 11 10  2  0
 11 12  1  0
 12 13  2  0
 13 14  1  0
 15 14  2  0
 16 17  2  0
 16  8  1  0
 18 16  1  0
 19 18  1  0
 19 20  1  6
 21 25  1  0
 21 20  1  0
 22 21  2  0
 23 22  1  0
 23 24  1  0
 24 25  2  0
 26 19  1  0
 27 26  1  0
 28 26  2  0
M  END
$$$$
