PKC.pdb
     RDKit          3D

 23 23  0  0  1  0  0  0  0  0999 V2000
    8.2635  -14.9669   19.6062 N   0  0  0  0  0  0  0  0  0  0  0  0
    8.3248  -14.1261   18.4224 C   0  0  0  0  0  0  0  0  0  0  0  0
    7.4615  -12.9234   18.7432 C   0  0  0  0  0  0  0  0  0  0  0  0
    7.2040  -13.0375   20.2348 C   0  0  0  0  0  0  0  0  0  0  0  0
    8.3231  -13.9691   20.6562 C   0  0  1  0  0  0  0  0  0  0  0  0
    8.1041  -14.5403   21.9972 C   0  0  0  0  0  0  0  0  0  0  0  0
    8.0125  -13.7337   22.9586 O   0  0  0  0  0  0  0  0  0  0  0  0
    7.9905  -15.9199   22.2785 N   0  0  0  0  0  0  0  0  0  0  0  0
    7.7837  -16.3964   23.6304 C   0  0  1  0  0  0  0  0  0  0  0  0
    7.4720  -17.8806   23.6527 C   0  0  0  0  0  0  0  0  0  0  0  0
    6.1671  -18.0633   22.9066 C   0  0  0  0  0  0  0  0  0  0  0  0
    5.7331  -19.4971   22.8390 C   0  0  0  0  0  0  0  0  0  0  0  0
    4.4138  -19.6042   22.1401 C   0  0  0  0  0  0  0  0  0  0  0  0
    4.1200  -21.0376   22.0047 N   0  0  0  0  0  0  0  0  0  0  0  0
    8.9360  -16.0586   24.5009 C   0  0  0  0  0  0  0  0  0  0  0  0
    9.9461  -15.4196   24.1120 O   0  0  0  0  0  0  0  0  0  0  0  0
    8.9451  -16.4597   25.8646 N   0  0  0  0  0  0  0  0  0  0  0  0
    9.6214  -15.7688   26.9064 C   0  0  1  0  0  0  0  0  0  0  0  0
    8.9319  -14.4106   27.0851 C   0  0  0  0  0  0  0  0  0  0  0  0
    9.7196  -13.4528   28.3888 S   0  0  0  0  0  0  0  0  0  0  0  0
    9.6820  -16.4482   28.1844 C   0  0  0  0  0  0  0  0  0  0  0  0
    8.9652  -17.6085   28.3963 O   0  0  0  0  0  0  0  0  0  0  0  0
   10.3790  -16.0063   29.1223 O   0  0  0  0  0  0  0  0  0  0  0  0
  1  5  1  0
  1  2  1  0
  2  3  1  0
  4  3  1  0
  5  4  1  0
  6  8  1  0
  5  6  1  1
  7  6  2  0
  9  8  1  0
  9 10  1  6
 10 11  1  0
 11 12  1  0
 13 12  1  0
 14 13  1  0
 15  9  1  0
 16 15  2  0
 17 15  1  0
 18 17  1  0
 18 21  1  0
 18 19  1  1
 20 19  1  0
 21 22  1  0
 23 21  2  0
M  END
$$$$
