PKC.pdb
     RDKit          3D

 23 23  0  0  1  0  0  0  0  0999 V2000
   11.0178  -25.6651   24.9847 N   0  0  0  0  0  0  0  0  0  0  0  0
   11.0816  -25.7985   23.5390 C   0  0  0  0  0  0  0  0  0  0  0  0
   10.1328  -24.7478   23.0000 C   0  0  0  0  0  0  0  0  0  0  0  0
    9.8151  -23.8804   24.2046 C   0  0  0  0  0  0  0  0  0  0  0  0
   10.9686  -24.2231   25.1265 C   0  0  1  0  0  0  0  0  0  0  0  0
   10.7240  -23.7959   26.5157 C   0  0  0  0  0  0  0  0  0  0  0  0
   10.7089  -22.5584   26.7432 O   0  0  0  0  0  0  0  0  0  0  0  0
   10.5067  -24.6707   27.6032 N   0  0  0  0  0  0  0  0  0  0  0  0
   10.2512  -24.1640   28.9357 C   0  0  1  0  0  0  0  0  0  0  0  0
    9.4596  -25.1581   29.7637 C   0  0  0  0  0  0  0  0  0  0  0  0
   10.3276  -26.3896   29.9137 C   0  0  0  0  0  0  0  0  0  0  0  0
    9.6989  -27.4410   30.7787 C   0  0  0  0  0  0  0  0  0  0  0  0
   10.6129  -28.6197   30.9045 C   0  0  0  0  0  0  0  0  0  0  0  0
    9.9187  -29.6080   31.7415 N   0  0  0  0  0  0  0  0  0  0  0  0
   11.5104  -23.7608   29.6075 C   0  0  0  0  0  0  0  0  0  0  0  0
   12.5543  -24.4608   29.6207 O   0  0  0  0  0  0  0  0  0  0  0  0
   11.5911  -22.5170   30.2909 N   0  0  0  0  0  0  0  0  0  0  0  0
   12.7344  -22.0548   30.9972 C   0  0  1  0  0  0  0  0  0  0  0  0
   12.8986  -20.5620   30.6865 C   0  0  0  0  0  0  0  0  0  0  0  0
   12.8147  -20.2577   28.9151 S   0  0  0  0  0  0  0  0  0  0  0  0
   12.7151  -22.2470   32.4329 C   0  0  0  0  0  0  0  0  0  0  0  0
   11.5978  -22.7654   33.0558 O   0  0  0  0  0  0  0  0  0  0  0  0
   13.7009  -21.9513   33.1410 O   0  0  0  0  0  0  0  0  0  0  0  0
  1  5  1  0
  1  2  1  0
  2  3  1  0
  4  3  1  0
  5  4  1  0
  6  8  1  0
  5  6  1  1
  7  6  2  0
  9  8  1  0
  9 10  1  1
 10 11  1  0
 11 12  1  0
 13 12  1  0
 14 13  1  0
 15  9  1  0
 16 15  2  0
 17 15  1  0
 18 17  1  0
 18 21  1  0
 18 19  1  1
 20 19  1  0
 21 22  1  0
 23 21  2  0
M  END
$$$$
