PKC.pdb
     RDKit          3D

 23 23  0  0  1  0  0  0  0  0999 V2000
    8.3706  -15.0170   19.5550 N   0  0  0  0  0  0  0  0  0  0  0  0
    8.3719  -14.1624   18.3795 C   0  0  0  0  0  0  0  0  0  0  0  0
    7.5179  -12.9687   18.7543 C   0  0  0  0  0  0  0  0  0  0  0  0
    7.3311  -13.1013   20.2548 C   0  0  0  0  0  0  0  0  0  0  0  0
    8.4738  -14.0309   20.6127 C   0  0  1  0  0  0  0  0  0  0  0  0
    8.3209  -14.6186   21.9557 C   0  0  0  0  0  0  0  0  0  0  0  0
    8.3589  -13.8311   22.9364 O   0  0  0  0  0  0  0  0  0  0  0  0
    8.1360  -15.9940   22.2189 N   0  0  0  0  0  0  0  0  0  0  0  0
    7.8543  -16.4716   23.5568 C   0  0  1  0  0  0  0  0  0  0  0  0
    7.6055  -17.9678   23.5696 C   0  0  0  0  0  0  0  0  0  0  0  0
    7.2788  -18.3432   24.9996 C   0  0  0  0  0  0  0  0  0  0  0  0
    6.9956  -19.8065   25.1653 C   0  0  0  0  0  0  0  0  0  0  0  0
    6.6468  -20.1064   26.5897 C   0  0  0  0  0  0  0  0  0  0  0  0
    6.4364  -21.5580   26.6789 N   0  0  0  0  0  0  0  0  0  0  0  0
    8.9262  -16.0794   24.5038 C   0  0  0  0  0  0  0  0  0  0  0  0
   10.1332  -16.4043   24.3715 O   0  0  0  0  0  0  0  0  0  0  0  0
    8.6199  -15.2888   25.6447 N   0  0  0  0  0  0  0  0  0  0  0  0
    9.5747  -14.8359   26.5950 C   0  0  1  0  0  0  0  0  0  0  0  0
    8.9809  -13.6103   27.3002 C   0  0  0  0  0  0  0  0  0  0  0  0
   10.1482  -12.9152   28.4800 S   0  0  0  0  0  0  0  0  0  0  0  0
    9.9926  -15.8051   27.5873 C   0  0  0  0  0  0  0  0  0  0  0  0
    9.0889  -16.7085   28.1091 O   0  0  0  0  0  0  0  0  0  0  0  0
   11.1727  -15.8495   27.9948 O   0  0  0  0  0  0  0  0  0  0  0  0
  1  5  1  0
  1  2  1  0
  2  3  1  0
  4  3  1  0
  5  4  1  0
  6  8  1  0
  5  6  1  1
  7  6  2  0
  9  8  1  0
  9 10  1  6
 10 11  1  0
 11 12  1  0
 13 12  1  0
 14 13  1  0
 15  9  1  0
 16 15  2  0
 17 15  1  0
 18 17  1  0
 18 21  1  0
 18 19  1  1
 20 19  1  0
 21 22  1  0
 23 21  2  0
M  END
$$$$
