PKC.pdb
     RDKit          3D

 23 23  0  0  1  0  0  0  0  0999 V2000
    8.6057  -15.2426   19.1287 N   0  0  0  0  0  0  0  0  0  0  0  0
    8.7589  -14.5200   17.8771 C   0  0  0  0  0  0  0  0  0  0  0  0
    7.7044  -13.4331   17.9133 C   0  0  0  0  0  0  0  0  0  0  0  0
    7.2123  -13.4398   19.3493 C   0  0  0  0  0  0  0  0  0  0  0  0
    8.3542  -14.1505   20.0484 C   0  0  1  0  0  0  0  0  0  0  0  0
    7.9850  -14.6160   21.3973 C   0  0  0  0  0  0  0  0  0  0  0  0
    7.6683  -13.7391   22.2422 O   0  0  0  0  0  0  0  0  0  0  0  0
    7.9613  -15.9677   21.8067 N   0  0  0  0  0  0  0  0  0  0  0  0
    7.4739  -16.3475   23.1165 C   0  0  1  0  0  0  0  0  0  0  0  0
    7.7427  -17.8124   23.4039 C   0  0  0  0  0  0  0  0  0  0  0  0
    7.2282  -18.0840   24.8018 C   0  0  0  0  0  0  0  0  0  0  0  0
    7.3554  -19.5249   25.1973 C   0  0  0  0  0  0  0  0  0  0  0  0
    6.7298  -19.7488   26.5385 C   0  0  0  0  0  0  0  0  0  0  0  0
    6.9963  -21.1471   26.9035 N   0  0  0  0  0  0  0  0  0  0  0  0
    8.0269  -15.4646   24.1721 C   0  0  0  0  0  0  0  0  0  0  0  0
    9.2554  -15.2657   24.3485 O   0  0  0  0  0  0  0  0  0  0  0  0
    7.1554  -14.7803   25.0625 N   0  0  0  0  0  0  0  0  0  0  0  0
    7.5654  -13.7844   25.9897 C   0  0  1  0  0  0  0  0  0  0  0  0
    6.3702  -12.8534   26.2282 C   0  0  0  0  0  0  0  0  0  0  0  0
    6.8150  -11.4994   27.3265 S   0  0  0  0  0  0  0  0  0  0  0  0
    8.0598  -14.2666   27.2631 C   0  0  0  0  0  0  0  0  0  0  0  0
    7.8662  -15.5808   27.6381 O   0  0  0  0  0  0  0  0  0  0  0  0
    8.6699  -13.5127   28.0504 O   0  0  0  0  0  0  0  0  0  0  0  0
  1  5  1  0
  1  2  1  0
  2  3  1  0
  4  3  1  0
  5  4  1  0
  6  8  1  0
  5  6  1  1
  7  6  2  0
  9  8  1  0
  9 10  1  1
 10 11  1  0
 11 12  1  0
 13 12  1  0
 14 13  1  0
 15  9  1  0
 16 15  2  0
 17 15  1  0
 18 17  1  0
 18 21  1  0
 18 19  1  1
 20 19  1  0
 21 22  1  0
 23 21  2  0
M  END
$$$$
