PKC.pdb
     RDKit          3D

 23 23  0  0  1  0  0  0  0  0999 V2000
    8.2637  -15.1065   19.3357 N   0  0  0  0  0  0  0  0  0  0  0  0
    8.4406  -14.4005   18.0778 C   0  0  0  0  0  0  0  0  0  0  0  0
    7.6263  -13.1307   18.2161 C   0  0  0  0  0  0  0  0  0  0  0  0
    7.2750  -13.0728   19.6917 C   0  0  0  0  0  0  0  0  0  0  0  0
    8.3150  -14.0066   20.2786 C   0  0  1  0  0  0  0  0  0  0  0  0
    7.9862  -14.4206   21.6545 C   0  0  0  0  0  0  0  0  0  0  0  0
    7.9437  -13.5198   22.5321 O   0  0  0  0  0  0  0  0  0  0  0  0
    7.7171  -15.7479   22.0558 N   0  0  0  0  0  0  0  0  0  0  0  0
    7.4336  -16.0718   23.4386 C   0  0  1  0  0  0  0  0  0  0  0  0
    7.6232  -17.5519   23.7107 C   0  0  0  0  0  0  0  0  0  0  0  0
    7.3509  -17.7626   25.1851 C   0  0  0  0  0  0  0  0  0  0  0  0
    7.4118  -19.2064   25.5860 C   0  0  0  0  0  0  0  0  0  0  0  0
    6.9571  -19.3679   27.0030 C   0  0  0  0  0  0  0  0  0  0  0  0
    7.1025  -20.7917   27.3360 N   0  0  0  0  0  0  0  0  0  0  0  0
    8.2338  -15.2312   24.3620 C   0  0  0  0  0  0  0  0  0  0  0  0
    9.4861  -15.1337   24.3156 O   0  0  0  0  0  0  0  0  0  0  0  0
    7.5915  -14.4714   25.3773 N   0  0  0  0  0  0  0  0  0  0  0  0
    8.2634  -13.6322   26.3068 C   0  0  1  0  0  0  0  0  0  0  0  0
    7.3907  -12.3899   26.5241 C   0  0  0  0  0  0  0  0  0  0  0  0
    5.6918  -12.8509   26.8968 S   0  0  0  0  0  0  0  0  0  0  0  0
    8.5778  -14.2282   27.5892 C   0  0  0  0  0  0  0  0  0  0  0  0
    9.2978  -13.5231   28.5323 O   0  0  0  0  0  0  0  0  0  0  0  0
    8.2089  -15.3871   27.8745 O   0  0  0  0  0  0  0  0  0  0  0  0
  1  5  1  0
  1  2  1  0
  2  3  1  0
  4  3  1  0
  5  4  1  0
  6  8  1  0
  5  6  1  1
  7  6  2  0
  9  8  1  0
  9 10  1  6
 10 11  1  0
 11 12  1  0
 13 12  1  0
 14 13  1  0
 15  9  1  0
 16 15  2  0
 17 15  1  0
 18 17  1  0
 18 21  1  0
 18 19  1  1
 20 19  1  0
 21 22  1  0
 23 21  2  0
M  END
$$$$
