PKC.pdb
     RDKit          3D

 23 23  0  0  1  0  0  0  0  0999 V2000
    8.1660  -15.0965   19.7587 N   0  0  0  0  0  0  0  0  0  0  0  0
    8.2530  -14.2364   18.5905 C   0  0  0  0  0  0  0  0  0  0  0  0
    7.5598  -12.9503   18.9905 C   0  0  0  0  0  0  0  0  0  0  0  0
    7.3835  -13.0745   20.4931 C   0  0  0  0  0  0  0  0  0  0  0  0
    8.4083  -14.1418   20.8224 C   0  0  1  0  0  0  0  0  0  0  0  0
    8.2067  -14.7202   22.1630 C   0  0  0  0  0  0  0  0  0  0  0  0
    8.4107  -13.9682   23.1511 O   0  0  0  0  0  0  0  0  0  0  0  0
    7.8034  -16.0500   22.4165 N   0  0  0  0  0  0  0  0  0  0  0  0
    7.6121  -16.5323   23.7686 C   0  0  1  0  0  0  0  0  0  0  0  0
    7.3878  -18.0322   23.7948 C   0  0  0  0  0  0  0  0  0  0  0  0
    7.3187  -18.4373   25.2521 C   0  0  0  0  0  0  0  0  0  0  0  0
    6.7470  -19.8099   25.4465 C   0  0  0  0  0  0  0  0  0  0  0  0
    6.6905  -20.1435   26.9046 C   0  0  0  0  0  0  0  0  0  0  0  0
    8.0660  -20.4443   27.3251 N   0  0  0  0  0  0  0  0  0  0  0  0
    8.7342  -16.1238   24.6482 C   0  0  0  0  0  0  0  0  0  0  0  0
    9.9454  -16.1956   24.3200 O   0  0  0  0  0  0  0  0  0  0  0  0
    8.4751  -15.6144   25.9497 N   0  0  0  0  0  0  0  0  0  0  0  0
    9.4762  -15.2190   26.8776 C   0  0  1  0  0  0  0  0  0  0  0  0
    8.9069  -14.0623   27.7083 C   0  0  0  0  0  0  0  0  0  0  0  0
   10.0929  -13.5087   28.9431 S   0  0  0  0  0  0  0  0  0  0  0  0
    9.9633  -16.2540   27.7665 C   0  0  0  0  0  0  0  0  0  0  0  0
   11.1864  -16.1223   28.3923 O   0  0  0  0  0  0  0  0  0  0  0  0
    9.2952  -17.2858   27.9893 O   0  0  0  0  0  0  0  0  0  0  0  0
  1  5  1  0
  1  2  1  0
  2  3  1  0
  4  3  1  0
  5  4  1  0
  6  8  1  0
  5  6  1  1
  7  6  2  0
  9  8  1  0
  9 10  1  6
 10 11  1  0
 11 12  1  0
 13 12  1  0
 14 13  1  0
 15  9  1  0
 16 15  2  0
 17 15  1  0
 18 17  1  0
 18 21  1  0
 18 19  1  1
 20 19  1  0
 21 22  1  0
 23 21  2  0
M  END
$$$$
