PKC.pdb
     RDKit          3D

 23 23  0  0  1  0  0  0  0  0999 V2000
    9.2102  -14.7093   19.3391 N   0  0  0  0  0  0  0  0  0  0  0  0
    9.0397  -13.8437   18.1842 C   0  0  0  0  0  0  0  0  0  0  0  0
    7.7592  -13.0780   18.4462 C   0  0  0  0  0  0  0  0  0  0  0  0
    7.4464  -13.3639   19.9038 C   0  0  0  0  0  0  0  0  0  0  0  0
    8.7992  -13.8235   20.4105 C   0  0  1  0  0  0  0  0  0  0  0  0
    8.7088  -14.5086   21.7124 C   0  0  0  0  0  0  0  0  0  0  0  0
    8.2472  -13.8488   22.6793 O   0  0  0  0  0  0  0  0  0  0  0  0
    9.1009  -15.8445   21.9507 N   0  0  0  0  0  0  0  0  0  0  0  0
    8.9014  -16.4668   23.2431 C   0  0  1  0  0  0  0  0  0  0  0  0
    9.0709  -17.9721   23.1650 C   0  0  0  0  0  0  0  0  0  0  0  0
   10.5510  -18.2353   22.9841 C   0  0  0  0  0  0  0  0  0  0  0  0
   10.8675  -19.6939   22.8387 C   0  0  0  0  0  0  0  0  0  0  0  0
   12.3481  -19.8938   22.7472 C   0  0  0  0  0  0  0  0  0  0  0  0
   12.5769  -21.3432   22.6671 N   0  0  0  0  0  0  0  0  0  0  0  0
    9.7821  -15.8622   24.2719 C   0  0  0  0  0  0  0  0  0  0  0  0
   10.9954  -15.5914   24.0862 O   0  0  0  0  0  0  0  0  0  0  0  0
    9.2694  -15.5520   25.5609 N   0  0  0  0  0  0  0  0  0  0  0  0
   10.0279  -14.9765   26.6161 C   0  0  1  0  0  0  0  0  0  0  0  0
    9.0894  -14.0672   27.4186 C   0  0  0  0  0  0  0  0  0  0  0  0
    9.9654  -13.2676   28.7718 S   0  0  0  0  0  0  0  0  0  0  0  0
   10.6765  -15.9096   27.5146 C   0  0  0  0  0  0  0  0  0  0  0  0
   11.9268  -15.6330   28.0296 O   0  0  0  0  0  0  0  0  0  0  0  0
   10.1266  -16.9814   27.8453 O   0  0  0  0  0  0  0  0  0  0  0  0
  1  5  1  0
  1  2  1  0
  2  3  1  0
  4  3  1  0
  5  4  1  0
  6  8  1  0
  5  6  1  1
  7  6  2  0
  9  8  1  0
  9 10  1  6
 10 11  1  0
 11 12  1  0
 13 12  1  0
 14 13  1  0
 15  9  1  0
 16 15  2  0
 17 15  1  0
 18 17  1  0
 18 21  1  0
 18 19  1  1
 20 19  1  0
 21 22  1  0
 23 21  2  0
M  END
$$$$
