PKC.pdb
     RDKit          3D

 23 23  0  0  1  0  0  0  0  0999 V2000
    8.7523  -14.9379   19.5327 N   0  0  0  0  0  0  0  0  0  0  0  0
    8.9467  -14.0785   18.3770 C   0  0  0  0  0  0  0  0  0  0  0  0
    7.9076  -12.9849   18.5149 C   0  0  0  0  0  0  0  0  0  0  0  0
    7.3805  -13.1486   19.9289 C   0  0  0  0  0  0  0  0  0  0  0  0
    8.4945  -13.9550   20.5667 C   0  0  1  0  0  0  0  0  0  0  0  0
    8.0856  -14.5664   21.8440 C   0  0  0  0  0  0  0  0  0  0  0  0
    7.8013  -13.7872   22.7902 O   0  0  0  0  0  0  0  0  0  0  0  0
    7.9907  -15.9558   22.0803 N   0  0  0  0  0  0  0  0  0  0  0  0
    7.7182  -16.4758   23.4042 C   0  0  1  0  0  0  0  0  0  0  0  0
    7.4979  -17.9762   23.3752 C   0  0  0  0  0  0  0  0  0  0  0  0
    7.2554  -18.4090   24.8058 C   0  0  0  0  0  0  0  0  0  0  0  0
    7.0117  -19.8832   24.9327 C   0  0  0  0  0  0  0  0  0  0  0  0
    6.7082  -20.2352   26.3556 C   0  0  0  0  0  0  0  0  0  0  0  0
    6.4857  -21.6872   26.3957 N   0  0  0  0  0  0  0  0  0  0  0  0
    8.7826  -16.0899   24.3623 C   0  0  0  0  0  0  0  0  0  0  0  0
   10.0124  -16.2013   24.1276 O   0  0  0  0  0  0  0  0  0  0  0  0
    8.4416  -15.5573   25.6353 N   0  0  0  0  0  0  0  0  0  0  0  0
    9.3820  -15.1393   26.6155 C   0  0  1  0  0  0  0  0  0  0  0  0
    8.7687  -13.9530   27.3695 C   0  0  0  0  0  0  0  0  0  0  0  0
    9.9095  -13.3135   28.6053 S   0  0  0  0  0  0  0  0  0  0  0  0
    9.7993  -16.1488   27.5669 C   0  0  0  0  0  0  0  0  0  0  0  0
   11.0903  -16.1609   28.0552 O   0  0  0  0  0  0  0  0  0  0  0  0
    9.0090  -17.0290   27.9683 O   0  0  0  0  0  0  0  0  0  0  0  0
  1  5  1  0
  1  2  1  0
  2  3  1  0
  4  3  1  0
  5  4  1  0
  6  8  1  0
  5  6  1  1
  7  6  2  0
  9  8  1  0
  9 10  1  6
 10 11  1  0
 11 12  1  0
 13 12  1  0
 14 13  1  0
 15  9  1  0
 16 15  2  0
 17 15  1  0
 18 17  1  0
 18 21  1  0
 18 19  1  1
 20 19  1  0
 21 22  1  0
 23 21  2  0
M  END
$$$$
