PKC.pdb
     RDKit          3D

 23 23  0  0  1  0  0  0  0  0999 V2000
    7.5403  -15.0328   19.0312 N   0  0  0  0  0  0  0  0  0  0  0  0
    8.0282  -14.2553   17.9045 C   0  0  0  0  0  0  0  0  0  0  0  0
    8.0399  -12.8194   18.3871 C   0  0  0  0  0  0  0  0  0  0  0  0
    7.8285  -12.9290   19.8862 C   0  0  0  0  0  0  0  0  0  0  0  0
    8.2140  -14.3741   20.1330 C   0  0  1  0  0  0  0  0  0  0  0  0
    7.7615  -14.8598   21.4489 C   0  0  0  0  0  0  0  0  0  0  0  0
    6.5592  -14.6524   21.7568 O   0  0  0  0  0  0  0  0  0  0  0  0
    8.5759  -15.5373   22.3833 N   0  0  0  0  0  0  0  0  0  0  0  0
    8.0704  -15.9124   23.6876 C   0  0  1  0  0  0  0  0  0  0  0  0
    8.2591  -17.3944   23.9494 C   0  0  0  0  0  0  0  0  0  0  0  0
    7.3307  -18.1260   23.0032 C   0  0  0  0  0  0  0  0  0  0  0  0
    7.3420  -19.6110   23.2115 C   0  0  0  0  0  0  0  0  0  0  0  0
    6.4687  -20.2808   22.1970 C   0  0  0  0  0  0  0  0  0  0  0  0
    6.5469  -21.7251   22.4566 N   0  0  0  0  0  0  0  0  0  0  0  0
    8.6726  -15.0792   24.7567 C   0  0  0  0  0  0  0  0  0  0  0  0
    9.9008  -14.8261   24.8415 O   0  0  0  0  0  0  0  0  0  0  0  0
    7.8525  -14.5107   25.7691 N   0  0  0  0  0  0  0  0  0  0  0  0
    8.3360  -13.7620   26.8760 C   0  0  1  0  0  0  0  0  0  0  0  0
    7.1861  -12.8788   27.3756 C   0  0  0  0  0  0  0  0  0  0  0  0
    6.2459  -12.2022   25.9987 S   0  0  0  0  0  0  0  0  0  0  0  0
    8.8646  -14.5332   27.9825 C   0  0  0  0  0  0  0  0  0  0  0  0
    9.4982  -13.9049   29.0356 O   0  0  0  0  0  0  0  0  0  0  0  0
    8.7625  -15.7778   28.0140 O   0  0  0  0  0  0  0  0  0  0  0  0
  1  5  1  0
  1  2  1  0
  2  3  1  0
  4  3  1  0
  5  4  1  0
  6  8  1  0
  5  6  1  1
  7  6  2  0
  9  8  1  0
  9 10  1  1
 10 11  1  0
 11 12  1  0
 13 12  1  0
 14 13  1  0
 15  9  1  0
 16 15  2  0
 17 15  1  0
 18 17  1  0
 18 21  1  0
 18 19  1  1
 20 19  1  0
 21 22  1  0
 23 21  2  0
M  END
$$$$
