PKC.pdb
     RDKit          3D

 23 23  0  0  1  0  0  0  0  0999 V2000
    8.7150  -14.7787   19.1974 N   0  0  0  0  0  0  0  0  0  0  0  0
    8.8775  -13.9095   18.0441 C   0  0  0  0  0  0  0  0  0  0  0  0
    7.8689  -12.7963   18.2393 C   0  0  0  0  0  0  0  0  0  0  0  0
    7.4001  -12.9663   19.6730 C   0  0  0  0  0  0  0  0  0  0  0  0
    8.5232  -13.8033   20.2527 C   0  0  1  0  0  0  0  0  0  0  0  0
    8.1570  -14.4217   21.5395 C   0  0  0  0  0  0  0  0  0  0  0  0
    7.7928  -13.6513   22.4654 O   0  0  0  0  0  0  0  0  0  0  0  0
    8.1854  -15.8085   21.8061 N   0  0  0  0  0  0  0  0  0  0  0  0
    7.8695  -16.3275   23.1208 C   0  0  1  0  0  0  0  0  0  0  0  0
    7.7799  -17.8416   23.1114 C   0  0  0  0  0  0  0  0  0  0  0  0
    6.3912  -18.1931   22.6209 C   0  0  0  0  0  0  0  0  0  0  0  0
    6.1287  -19.6696   22.6308 C   0  0  0  0  0  0  0  0  0  0  0  0
    4.7063  -19.9431   22.2534 C   0  0  0  0  0  0  0  0  0  0  0  0
    4.5264  -21.4006   22.3031 N   0  0  0  0  0  0  0  0  0  0  0  0
    8.8303  -15.8350   24.1376 C   0  0  0  0  0  0  0  0  0  0  0  0
   10.0691  -15.7421   23.9460 O   0  0  0  0  0  0  0  0  0  0  0  0
    8.3709  -15.4321   25.4210 N   0  0  0  0  0  0  0  0  0  0  0  0
    9.2139  -15.0309   26.4926 C   0  0  1  0  0  0  0  0  0  0  0  0
    8.4642  -13.9613   27.2962 C   0  0  0  0  0  0  0  0  0  0  0  0
    9.5075  -13.2781   28.5933 S   0  0  0  0  0  0  0  0  0  0  0  0
    9.6507  -16.0843   27.3861 C   0  0  0  0  0  0  0  0  0  0  0  0
   10.9302  -16.0788   27.9037 O   0  0  0  0  0  0  0  0  0  0  0  0
    8.8877  -17.0188   27.7102 O   0  0  0  0  0  0  0  0  0  0  0  0
  1  5  1  0
  1  2  1  0
  2  3  1  0
  4  3  1  0
  5  4  1  0
  6  8  1  0
  5  6  1  1
  7  6  2  0
  9  8  1  0
  9 10  1  6
 10 11  1  0
 11 12  1  0
 13 12  1  0
 14 13  1  0
 15  9  1  0
 16 15  2  0
 17 15  1  0
 18 17  1  0
 18 21  1  0
 18 19  1  1
 20 19  1  0
 21 22  1  0
 23 21  2  0
M  END
$$$$
