PKC.pdb
     RDKit          3D

 23 23  0  0  1  0  0  0  0  0999 V2000
    8.5512  -15.1356   19.6580 N   0  0  0  0  0  0  0  0  0  0  0  0
    8.6768  -14.4494   18.3831 C   0  0  0  0  0  0  0  0  0  0  0  0
    7.6010  -13.3831   18.3973 C   0  0  0  0  0  0  0  0  0  0  0  0
    7.1241  -13.3548   19.8381 C   0  0  0  0  0  0  0  0  0  0  0  0
    8.2874  -14.0206   20.5462 C   0  0  1  0  0  0  0  0  0  0  0  0
    7.9417  -14.4512   21.9128 C   0  0  0  0  0  0  0  0  0  0  0  0
    7.6284  -13.5536   22.7372 O   0  0  0  0  0  0  0  0  0  0  0  0
    7.9369  -15.7909   22.3605 N   0  0  0  0  0  0  0  0  0  0  0  0
    7.5525  -16.1290   23.7152 C   0  0  1  0  0  0  0  0  0  0  0  0
    7.7649  -17.6036   23.9994 C   0  0  0  0  0  0  0  0  0  0  0  0
    7.2930  -17.8469   25.4174 C   0  0  0  0  0  0  0  0  0  0  0  0
    7.4808  -19.2686   25.8558 C   0  0  0  0  0  0  0  0  0  0  0  0
    6.8503  -19.4826   27.1964 C   0  0  0  0  0  0  0  0  0  0  0  0
    6.9890  -20.9120   27.5076 N   0  0  0  0  0  0  0  0  0  0  0  0
    8.2490  -15.2681   24.7018 C   0  0  0  0  0  0  0  0  0  0  0  0
    9.4988  -15.1587   24.7793 O   0  0  0  0  0  0  0  0  0  0  0  0
    7.5018  -14.5012   25.6368 N   0  0  0  0  0  0  0  0  0  0  0  0
    8.0697  -13.6339   26.6089 C   0  0  1  0  0  0  0  0  0  0  0  0
    6.9304  -12.7997   27.2073 C   0  0  0  0  0  0  0  0  0  0  0  0
    5.7704  -12.2821   25.9329 S   0  0  0  0  0  0  0  0  0  0  0  0
    8.8082  -14.2745   27.6780 C   0  0  0  0  0  0  0  0  0  0  0  0
    9.4817  -13.5182   28.6159 O   0  0  0  0  0  0  0  0  0  0  0  0
    8.8556  -15.5187   27.7796 O   0  0  0  0  0  0  0  0  0  0  0  0
  1  5  1  0
  1  2  1  0
  2  3  1  0
  4  3  1  0
  5  4  1  0
  6  8  1  0
  5  6  1  1
  7  6  2  0
  9  8  1  0
  9 10  1  1
 10 11  1  0
 11 12  1  0
 13 12  1  0
 14 13  1  0
 15  9  1  0
 16 15  2  0
 17 15  1  0
 18 17  1  0
 18 21  1  0
 18 19  1  1
 20 19  1  0
 21 22  1  0
 23 21  2  0
M  END
$$$$
