EVS.pdb
     RDKit          3D

 23 22  0  0  1  0  0  0  0  0999 V2000
   19.3938  -13.1026  -16.2742 N   0  0  0  0  0  0  0  0  0  0  0  0
   19.0585  -11.7029  -16.4338 C   0  0  1  0  0  0  0  0  0  0  0  0
   17.8250  -11.4100  -15.6095 C   0  0  0  0  0  0  0  0  0  0  0  0
   16.6834  -12.1967  -16.2603 C   0  0  0  0  0  0  0  0  0  0  0  0
   15.7253  -12.6113  -15.2032 C   0  0  0  0  0  0  0  0  0  0  0  0
   14.9612  -11.8065  -14.6197 O   0  0  0  0  0  0  0  0  0  0  0  0
   20.2177  -10.8751  -15.9865 C   0  0  0  0  0  0  0  0  0  0  0  0
   20.8608  -11.1896  -14.9342 O   0  0  0  0  0  0  0  0  0  0  0  0
   15.6691  -13.9441  -14.8422 O   0  0  0  0  0  0  0  0  0  0  0  0
   24.1122   -8.2289  -16.9848 C   0  0  0  0  0  0  0  0  0  0  0  0
   22.9209   -9.0904  -17.2236 C   0  0  2  0  0  0  0  0  0  0  0  0
   22.4785   -8.8342  -18.6691 C   0  0  0  0  0  0  0  0  0  0  0  0
   21.7721   -8.8989  -16.2700 C   0  0  2  0  0  0  0  0  0  0  0  0
   20.6323   -9.7280  -16.7111 N   0  0  0  0  0  0  0  0  0  0  0  0
   21.3271   -7.4891  -16.1416 C   0  0  0  0  0  0  0  0  0  0  0  0
   20.6802   -6.9380  -17.1105 O   0  0  0  0  0  0  0  0  0  0  0  0
   21.3319   -5.4446  -12.5750 O   0  0  0  0  0  0  0  0  0  0  0  0
   20.4900   -4.9986  -13.5841 C   0  0  0  0  0  0  0  0  0  0  0  0
   21.1192   -5.2775  -14.9551 C   0  0  2  0  0  0  0  0  0  0  0  0
   21.5477   -6.6602  -15.0206 N   0  0  0  0  0  0  0  0  0  0  0  0
   22.2910   -4.3841  -15.0595 C   0  0  0  0  0  0  0  0  0  0  0  0
   23.4365   -4.8857  -15.1041 O   0  0  0  0  0  0  0  0  0  0  0  0
   22.1417   -3.0148  -15.1084 O   0  0  0  0  0  0  0  0  0  0  0  0
  2  1  1  1
  2  7  1  0
  3  2  1  0
  4  3  1  0
  5  4  1  0
  6  5  2  0
  7  8  2  0
  9  5  1  0
 11 10  1  1
 11 12  1  0
 13 11  1  0
 14  7  1  0
 13 14  1  6
 15 16  2  0
 15 13  1  0
 18 17  1  0
 19 18  1  1
 19 20  1  0
 20 15  1  0
 21 23  1  0
 21 19  1  0
 22 21  2  0
M  END
$$$$
