EVS.pdb
     RDKit          3D

 23 22  0  0  1  0  0  0  0  0999 V2000
   18.0612  -11.9877  -16.2308 N   0  0  0  0  0  0  0  0  0  0  0  0
   18.6948  -10.7957  -16.7547 C   0  0  1  0  0  0  0  0  0  0  0  0
   17.6237   -9.9028  -17.3397 C   0  0  0  0  0  0  0  0  0  0  0  0
   17.2484  -10.5199  -18.6903 C   0  0  0  0  0  0  0  0  0  0  0  0
   18.1509   -9.9698  -19.7344 C   0  0  0  0  0  0  0  0  0  0  0  0
   17.7743   -9.1391  -20.5946 O   0  0  0  0  0  0  0  0  0  0  0  0
   19.4249  -10.1109  -15.6468 C   0  0  0  0  0  0  0  0  0  0  0  0
   18.8936  -10.0130  -14.4944 O   0  0  0  0  0  0  0  0  0  0  0  0
   19.4673  -10.3893  -19.7638 O   0  0  0  0  0  0  0  0  0  0  0  0
   23.6733   -9.5471  -15.7190 C   0  0  0  0  0  0  0  0  0  0  0  0
   22.7662   -9.5068  -14.5384 C   0  0  2  0  0  0  0  0  0  0  0  0
   22.5893  -10.9569  -14.0729 C   0  0  0  0  0  0  0  0  0  0  0  0
   21.4307   -8.8489  -14.7604 C   0  0  2  0  0  0  0  0  0  0  0  0
   20.7157   -9.5558  -15.8422 N   0  0  0  0  0  0  0  0  0  0  0  0
   21.5207   -7.4068  -15.0984 C   0  0  0  0  0  0  0  0  0  0  0  0
   21.9426   -7.0540  -16.2639 O   0  0  0  0  0  0  0  0  0  0  0  0
   19.0967   -4.6455  -15.3094 O   0  0  0  0  0  0  0  0  0  0  0  0
   20.0379   -4.1912  -14.3964 C   0  0  0  0  0  0  0  0  0  0  0  0
   21.3597   -4.9466  -14.5843 C   0  0  2  0  0  0  0  0  0  0  0  0
   21.1751   -6.3418  -14.2389 N   0  0  0  0  0  0  0  0  0  0  0  0
   22.3252   -4.3238  -13.6559 C   0  0  0  0  0  0  0  0  0  0  0  0
   22.6967   -4.9623  -12.6458 O   0  0  0  0  0  0  0  0  0  0  0  0
   22.8197   -3.0578  -13.8846 O   0  0  0  0  0  0  0  0  0  0  0  0
  2  1  1  1
  2  7  1  0
  3  2  1  0
  4  3  1  0
  5  4  1  0
  6  5  2  0
  7  8  2  0
  9  5  1  0
 11 10  1  6
 11 12  1  0
 13 11  1  0
 14  7  1  0
 13 14  1  6
 15 16  2  0
 15 13  1  0
 18 17  1  0
 19 18  1  1
 19 20  1  0
 20 15  1  0
 21 23  1  0
 21 19  1  0
 22 21  2  0
M  END
$$$$
