EVS.pdb
     RDKit          3D

 23 22  0  0  1  0  0  0  0  0999 V2000
   18.2063  -12.0861  -15.9177 N   0  0  0  0  0  0  0  0  0  0  0  0
   18.5794  -10.7814  -16.4232 C   0  0  1  0  0  0  0  0  0  0  0  0
   17.3249  -10.0659  -16.8715 C   0  0  0  0  0  0  0  0  0  0  0  0
   16.9144  -10.7188  -18.1948 C   0  0  0  0  0  0  0  0  0  0  0  0
   15.7790   -9.9546  -18.7728 C   0  0  0  0  0  0  0  0  0  0  0  0
   15.8787   -9.2676  -19.8168 O   0  0  0  0  0  0  0  0  0  0  0  0
   19.2760  -10.0256  -15.3403 C   0  0  0  0  0  0  0  0  0  0  0  0
   18.8490  -10.0834  -14.1427 O   0  0  0  0  0  0  0  0  0  0  0  0
   14.5540   -9.9991  -18.1346 O   0  0  0  0  0  0  0  0  0  0  0  0
   23.3573   -9.0668  -15.5873 C   0  0  0  0  0  0  0  0  0  0  0  0
   22.5019   -9.0567  -14.3680 C   0  0  2  0  0  0  0  0  0  0  0  0
   22.4366  -10.5044  -13.8674 C   0  0  0  0  0  0  0  0  0  0  0  0
   21.1195   -8.4873  -14.5422 C   0  0  2  0  0  0  0  0  0  0  0  0
   20.4198   -9.2307  -15.6095 N   0  0  0  0  0  0  0  0  0  0  0  0
   21.1031   -7.0395  -14.8670 C   0  0  0  0  0  0  0  0  0  0  0  0
   21.3319   -6.6586  -16.0767 O   0  0  0  0  0  0  0  0  0  0  0  0
   19.9304   -2.4642  -13.8129 O   0  0  0  0  0  0  0  0  0  0  0  0
   19.8759   -3.8116  -13.4848 C   0  0  0  0  0  0  0  0  0  0  0  0
   20.9148   -4.5931  -14.2992 C   0  0  2  0  0  0  0  0  0  0  0  0
   20.8500   -5.9977  -13.9488 N   0  0  0  0  0  0  0  0  0  0  0  0
   22.2326   -4.0426  -13.9217 C   0  0  0  0  0  0  0  0  0  0  0  0
   22.8660   -4.5712  -12.9809 O   0  0  0  0  0  0  0  0  0  0  0  0
   22.7711   -2.9621  -14.5867 O   0  0  0  0  0  0  0  0  0  0  0  0
  2  1  1  1
  2  7  1  0
  3  2  1  0
  4  3  1  0
  5  4  1  0
  6  5  2  0
  7  8  2  0
  9  5  1  0
 11 10  1  6
 11 12  1  0
 13 11  1  0
 14  7  1  0
 13 14  1  6
 15 16  2  0
 15 13  1  0
 18 17  1  0
 19 18  1  1
 19 20  1  0
 20 15  1  0
 21 23  1  0
 21 19  1  0
 22 21  2  0
M  END
$$$$
