EVS.pdb
     RDKit          3D

 23 22  0  0  1  0  0  0  0  0999 V2000
   21.7585  -13.5381  -18.6407 N   0  0  0  0  0  0  0  0  0  0  0  0
   22.0990  -12.1537  -18.8945 C   0  0  1  0  0  0  0  0  0  0  0  0
   20.9332  -11.4960  -19.5983 C   0  0  0  0  0  0  0  0  0  0  0  0
   20.8645  -12.1322  -20.9898 C   0  0  0  0  0  0  0  0  0  0  0  0
   19.8210  -11.4336  -21.7837 C   0  0  0  0  0  0  0  0  0  0  0  0
   19.1528  -10.4712  -21.3374 O   0  0  0  0  0  0  0  0  0  0  0  0
   22.3941  -11.4831  -17.5936 C   0  0  0  0  0  0  0  0  0  0  0  0
   21.7085  -11.7638  -16.5587 O   0  0  0  0  0  0  0  0  0  0  0  0
   19.5708  -11.8597  -23.0743 O   0  0  0  0  0  0  0  0  0  0  0  0
   25.6951   -9.4100  -14.6321 C   0  0  0  0  0  0  0  0  0  0  0  0
   25.1869  -10.1190  -15.8394 C   0  0  2  0  0  0  0  0  0  0  0  0
   26.1034   -9.7169  -17.0010 C   0  0  0  0  0  0  0  0  0  0  0  0
   23.7432   -9.8709  -16.1856 C   0  0  2  0  0  0  0  0  0  0  0  0
   23.4338  -10.5255  -17.4728 N   0  0  0  0  0  0  0  0  0  0  0  0
   23.3851   -8.4335  -16.2725 C   0  0  0  0  0  0  0  0  0  0  0  0
   23.7830   -7.7412  -17.2841 O   0  0  0  0  0  0  0  0  0  0  0  0
   20.0568   -6.8730  -15.0843 O   0  0  0  0  0  0  0  0  0  0  0  0
   20.9022   -6.0716  -15.8387 C   0  0  0  0  0  0  0  0  0  0  0  0
   22.3589   -6.2995  -15.4151 C   0  0  2  0  0  0  0  0  0  0  0  0
   22.6211   -7.7216  -15.3228 N   0  0  0  0  0  0  0  0  0  0  0  0
   22.5027   -5.6758  -14.0837 C   0  0  0  0  0  0  0  0  0  0  0  0
   22.6824   -6.4081  -13.0851 O   0  0  0  0  0  0  0  0  0  0  0  0
   22.4422   -4.3079  -13.9266 O   0  0  0  0  0  0  0  0  0  0  0  0
  2  1  1  1
  2  7  1  0
  3  2  1  0
  4  3  1  0
  5  4  1  0
  6  5  2  0
  7  8  2  0
  9  5  1  0
 11 10  1  1
 11 12  1  0
 13 11  1  0
 14  7  1  0
 13 14  1  6
 15 16  2  0
 15 13  1  0
 18 17  1  0
 19 18  1  1
 19 20  1  0
 20 15  1  0
 21 23  1  0
 21 19  1  0
 22 21  2  0
M  END
$$$$
