EVS.pdb
     RDKit          3D

 23 22  0  0  1  0  0  0  0  0999 V2000
   30.5536  -24.9589  -16.7877 N   0  0  0  0  0  0  0  0  0  0  0  0
   29.1065  -24.9226  -16.8287 C   0  0  1  0  0  0  0  0  0  0  0  0
   28.5762  -26.0812  -16.0143 C   0  0  0  0  0  0  0  0  0  0  0  0
   28.7872  -27.3333  -16.8708 C   0  0  0  0  0  0  0  0  0  0  0  0
   27.6861  -27.4242  -17.8640 C   0  0  0  0  0  0  0  0  0  0  0  0
   27.8788  -27.3954  -19.1025 O   0  0  0  0  0  0  0  0  0  0  0  0
   28.6408  -23.6155  -16.2777 C   0  0  0  0  0  0  0  0  0  0  0  0
   29.4539  -22.8544  -15.6616 O   0  0  0  0  0  0  0  0  0  0  0  0
   26.3873  -27.5462  -17.4076 O   0  0  0  0  0  0  0  0  0  0  0  0
   26.3801  -19.5149  -16.7530 C   0  0  0  0  0  0  0  0  0  0  0  0
   26.8994  -20.8765  -17.0610 C   0  0  2  0  0  0  0  0  0  0  0  0
   26.1094  -21.3820  -18.2739 C   0  0  0  0  0  0  0  0  0  0  0  0
   26.8416  -21.8706  -15.9321 C   0  0  2  0  0  0  0  0  0  0  0  0
   27.2960  -23.1877  -16.4220 N   0  0  0  0  0  0  0  0  0  0  0  0
   25.4940  -22.0149  -15.3277 C   0  0  0  0  0  0  0  0  0  0  0  0
   24.5947  -22.7045  -15.9414 O   0  0  0  0  0  0  0  0  0  0  0  0
   22.3901  -21.0700  -11.6626 O   0  0  0  0  0  0  0  0  0  0  0  0
   23.6497  -20.8796  -12.2132 C   0  0  0  0  0  0  0  0  0  0  0  0
   23.7367  -21.5733  -13.5787 C   0  0  2  0  0  0  0  0  0  0  0  0
   25.0835  -21.4529  -14.0997 N   0  0  0  0  0  0  0  0  0  0  0  0
   22.7915  -20.8613  -14.4630 C   0  0  0  0  0  0  0  0  0  0  0  0
   23.1437  -19.7800  -14.9850 O   0  0  0  0  0  0  0  0  0  0  0  0
   21.5356  -21.3676  -14.7196 O   0  0  0  0  0  0  0  0  0  0  0  0
  2  1  1  1
  2  7  1  0
  3  2  1  0
  4  3  1  0
  5  4  1  0
  6  5  2  0
  7  8  2  0
  9  5  1  0
 11 10  1  1
 11 12  1  0
 13 11  1  0
 14  7  1  0
 13 14  1  6
 15 16  2  0
 15 13  1  0
 18 17  1  0
 19 18  1  1
 19 20  1  0
 20 15  1  0
 21 23  1  0
 21 19  1  0
 22 21  2  0
M  END
$$$$
