TIE.pdb
     RDKit          3D

 25 24  0  0  1  0  0  0  0  0999 V2000
   17.5406   -8.4258  -16.0896 C   0  0  0  0  0  0  0  0  0  0  0  0
   17.0928   -8.6300  -14.6806 C   0  0  1  0  0  0  0  0  0  0  0  0
   15.7865   -9.1229  -14.5975 O   0  0  0  0  0  0  0  0  0  0  0  0
   17.9778   -9.6357  -13.9335 C   0  0  2  0  0  0  0  0  0  0  0  0
   17.4248   -9.7085  -12.5832 N   0  0  0  0  0  0  0  0  0  0  0  0
   19.3341   -9.0261  -13.9040 C   0  0  0  0  0  0  0  0  0  0  0  0
   19.5706   -8.1685  -13.0195 O   0  0  0  0  0  0  0  0  0  0  0  0
   23.6403  -12.0757  -14.4538 C   0  0  0  0  0  0  0  0  0  0  0  0
   22.6839  -10.9856  -14.1480 C   0  0  0  0  0  0  0  0  0  0  0  0
   22.6803   -9.8003  -15.0224 C   0  0  2  0  0  0  0  0  0  0  0  0
   24.0716   -9.3272  -15.4096 C   0  0  0  0  0  0  0  0  0  0  0  0
   21.7010   -8.7063  -14.7692 C   0  0  2  0  0  0  0  0  0  0  0  0
   20.3568   -9.3559  -14.8060 N   0  0  0  0  0  0  0  0  0  0  0  0
   21.6982   -7.5362  -15.6263 C   0  0  0  0  0  0  0  0  0  0  0  0
   21.5582   -7.6755  -16.9073 O   0  0  0  0  0  0  0  0  0  0  0  0
   21.8248   -6.1717  -15.2512 N   0  0  0  0  0  0  0  0  0  0  0  0
   21.8695   -5.0951  -16.2468 C   0  0  1  0  0  0  0  0  0  0  0  0
   20.4413   -4.6694  -16.5510 C   0  0  0  0  0  0  0  0  0  0  0  0
   19.7168   -4.0771  -15.3986 C   0  0  0  0  0  0  0  0  0  0  0  0
   18.2789   -4.5095  -15.4724 C   0  0  0  0  0  0  0  0  0  0  0  0
   17.5388   -4.0417  -16.3704 O   0  0  0  0  0  0  0  0  0  0  0  0
   22.7325   -3.9781  -15.8448 C   0  0  0  0  0  0  0  0  0  0  0  0
   22.9417   -2.8527  -16.6493 O   0  0  0  0  0  0  0  0  0  0  0  0
   17.7355   -5.4134  -14.5778 O   0  0  0  0  0  0  0  0  0  0  0  0
   23.3384   -3.9668  -14.7499 O   0  0  0  0  0  0  0  0  0  0  0  0
  2  1  1  6
  3  2  1  0
  4  2  1  0
  4  6  1  0
  4  5  1  1
  6 13  1  0
  6  7  2  0
  9  8  1  0
 10  9  1  0
 10 11  1  1
 12 10  1  0
 12 13  1  6
 14 16  1  0
 14 12  1  0
 15 14  2  0
 17 22  1  0
 17 16  1  0
 17 18  1  1
 18 19  1  0
 19 20  1  0
 20 21  2  0
 22 23  1  0
 24 20  1  0
 25 22  2  0
M  END
$$$$
