TIE.pdb
     RDKit          3D

 25 24  0  0  1  0  0  0  0  0999 V2000
   26.4940  -11.2358  -15.5174 C   0  0  0  0  0  0  0  0  0  0  0  0
   26.7261  -12.0518  -16.7453 C   0  0  1  0  0  0  0  0  0  0  0  0
   27.8835  -12.8324  -16.6615 O   0  0  0  0  0  0  0  0  0  0  0  0
   25.5725  -13.0252  -17.0184 C   0  0  2  0  0  0  0  0  0  0  0  0
   25.9542  -13.7463  -18.2303 N   0  0  0  0  0  0  0  0  0  0  0  0
   24.3842  -12.1696  -17.2792 C   0  0  0  0  0  0  0  0  0  0  0  0
   24.3060  -11.6019  -18.3952 O   0  0  0  0  0  0  0  0  0  0  0  0
   20.8796  -14.3829  -17.6586 C   0  0  0  0  0  0  0  0  0  0  0  0
   20.8455  -12.9174  -17.8775 C   0  0  0  0  0  0  0  0  0  0  0  0
   21.0053  -12.0373  -16.7074 C   0  0  2  0  0  0  0  0  0  0  0  0
   19.6961  -11.4515  -16.2050 C   0  0  0  0  0  0  0  0  0  0  0  0
   22.1664  -11.1059  -16.6446 C   0  0  2  0  0  0  0  0  0  0  0  0
   23.3526  -11.9642  -16.3508 N   0  0  0  0  0  0  0  0  0  0  0  0
   22.1368   -9.9867  -15.7223 C   0  0  0  0  0  0  0  0  0  0  0  0
   22.2642  -10.1965  -14.4496 O   0  0  0  0  0  0  0  0  0  0  0  0
   21.9885   -8.6056  -16.0207 N   0  0  0  0  0  0  0  0  0  0  0  0
   21.9107   -7.5888  -14.9661 C   0  0  1  0  0  0  0  0  0  0  0  0
   22.6003   -6.3295  -15.4680 C   0  0  0  0  0  0  0  0  0  0  0  0
   22.4929   -5.1635  -14.5556 C   0  0  0  0  0  0  0  0  0  0  0  0
   23.0947   -3.9694  -15.2426 C   0  0  0  0  0  0  0  0  0  0  0  0
   24.2975   -4.0020  -15.5967 O   0  0  0  0  0  0  0  0  0  0  0  0
   20.5395   -7.3503  -14.5000 C   0  0  0  0  0  0  0  0  0  0  0  0
   20.2400   -6.9602  -13.1901 O   0  0  0  0  0  0  0  0  0  0  0  0
   22.3643   -2.8241  -15.5019 O   0  0  0  0  0  0  0  0  0  0  0  0
   19.5488   -7.4841  -15.2528 O   0  0  0  0  0  0  0  0  0  0  0  0
  2  1  1  1
  3  2  1  0
  4  2  1  0
  4  6  1  0
  4  5  1  6
  6 13  1  0
  6  7  2  0
  9  8  1  0
 10  9  1  0
 10 11  1  6
 12 10  1  0
 12 13  1  1
 14 16  1  0
 14 12  1  0
 15 14  2  0
 17 22  1  0
 17 16  1  0
 17 18  1  6
 18 19  1  0
 19 20  1  0
 20 21  2  0
 22 23  1  0
 24 20  1  0
 25 22  2  0
M  END
$$$$
