TIE.pdb
     RDKit          3D

 25 24  0  0  1  0  0  0  0  0999 V2000
   19.1626   -9.5995  -17.9571 C   0  0  0  0  0  0  0  0  0  0  0  0
   18.8688  -10.9434  -17.3783 C   0  0  1  0  0  0  0  0  0  0  0  0
   17.9679  -11.6785  -18.1555 O   0  0  0  0  0  0  0  0  0  0  0  0
   20.1304  -11.8070  -17.2542 C   0  0  2  0  0  0  0  0  0  0  0  0
   19.6959  -13.0321  -16.5874 N   0  0  0  0  0  0  0  0  0  0  0  0
   21.0522  -11.0394  -16.3747 C   0  0  0  0  0  0  0  0  0  0  0  0
   20.7413  -10.9187  -15.1654 O   0  0  0  0  0  0  0  0  0  0  0  0
   26.9198  -10.1891  -15.3909 C   0  0  0  0  0  0  0  0  0  0  0  0
   25.5805   -9.5604  -15.3029 C   0  0  0  0  0  0  0  0  0  0  0  0
   24.4619  -10.2091  -16.0080 C   0  0  2  0  0  0  0  0  0  0  0  0
   24.8409  -10.7562  -17.3742 C   0  0  0  0  0  0  0  0  0  0  0  0
   23.1021   -9.6044  -15.9371 C   0  0  2  0  0  0  0  0  0  0  0  0
   22.2428  -10.4468  -16.8215 N   0  0  0  0  0  0  0  0  0  0  0  0
   22.9227   -8.2055  -16.2758 C   0  0  0  0  0  0  0  0  0  0  0  0
   22.7815   -7.8553  -17.5157 O   0  0  0  0  0  0  0  0  0  0  0  0
   22.8657   -7.0892  -15.3988 N   0  0  0  0  0  0  0  0  0  0  0  0
   22.6567   -5.7242  -15.8942 C   0  0  1  0  0  0  0  0  0  0  0  0
   21.3647   -5.1929  -15.2927 C   0  0  0  0  0  0  0  0  0  0  0  0
   21.0839   -3.7676  -15.5983 C   0  0  0  0  0  0  0  0  0  0  0  0
   19.8151   -3.3749  -14.8941 C   0  0  0  0  0  0  0  0  0  0  0  0
   19.8788   -2.8119  -13.7751 O   0  0  0  0  0  0  0  0  0  0  0  0
   23.8085   -4.8459  -15.6576 C   0  0  0  0  0  0  0  0  0  0  0  0
   24.0834   -3.7248  -16.4482 O   0  0  0  0  0  0  0  0  0  0  0  0
   18.5668   -3.6135  -15.4393 O   0  0  0  0  0  0  0  0  0  0  0  0
   24.6206   -5.0505  -14.7276 O   0  0  0  0  0  0  0  0  0  0  0  0
  2  1  1  6
  3  2  1  0
  4  2  1  0
  4  6  1  0
  4  5  1  1
  6 13  1  0
  6  7  2  0
  9  8  1  0
 10  9  1  0
 10 11  1  6
 12 10  1  0
 12 13  1  6
 14 16  1  0
 14 12  1  0
 15 14  2  0
 17 22  1  0
 17 16  1  0
 17 18  1  1
 18 19  1  0
 19 20  1  0
 20 21  2  0
 22 23  1  0
 24 20  1  0
 25 22  2  0
M  END
$$$$
