TIE.pdb
     RDKit          3D

 25 24  0  0  1  0  0  0  0  0999 V2000
   21.6602   -8.8824  -20.2452 C   0  0  0  0  0  0  0  0  0  0  0  0
   21.2195  -10.2982  -20.4154 C   0  0  1  0  0  0  0  0  0  0  0  0
   21.5597  -10.8206  -21.6673 O   0  0  0  0  0  0  0  0  0  0  0  0
   21.8555  -11.2298  -19.3760 C   0  0  2  0  0  0  0  0  0  0  0  0
   21.2836  -12.5484  -19.6377 N   0  0  0  0  0  0  0  0  0  0  0  0
   21.3988  -10.7216  -18.0548 C   0  0  0  0  0  0  0  0  0  0  0  0
   20.1899  -10.8739  -17.7560 O   0  0  0  0  0  0  0  0  0  0  0  0
   23.7828  -12.2862  -14.2772 C   0  0  0  0  0  0  0  0  0  0  0  0
   22.5189  -11.6149  -14.6626 C   0  0  0  0  0  0  0  0  0  0  0  0
   22.5191  -10.1461  -14.7725 C   0  0  2  0  0  0  0  0  0  0  0  0
   22.4556   -9.4369  -13.4299 C   0  0  0  0  0  0  0  0  0  0  0  0
   21.7343   -9.4926  -15.8572 C   0  0  2  0  0  0  0  0  0  0  0  0
   22.2410  -10.0854  -17.1307 N   0  0  0  0  0  0  0  0  0  0  0  0
   21.7280   -8.0460  -15.9638 C   0  0  0  0  0  0  0  0  0  0  0  0
   22.8218   -7.4166  -16.2596 O   0  0  0  0  0  0  0  0  0  0  0  0
   20.6336   -7.1567  -15.7911 N   0  0  0  0  0  0  0  0  0  0  0  0
   20.7814   -5.7058  -15.9496 C   0  0  1  0  0  0  0  0  0  0  0  0
   19.5976   -5.1925  -16.7549 C   0  0  0  0  0  0  0  0  0  0  0  0
   19.6151   -3.7304  -17.0113 C   0  0  0  0  0  0  0  0  0  0  0  0
   18.3231   -3.3532  -17.6810 C   0  0  0  0  0  0  0  0  0  0  0  0
   18.1024   -2.1514  -17.9642 O   0  0  0  0  0  0  0  0  0  0  0  0
   20.9593   -5.0048  -14.6724 C   0  0  0  0  0  0  0  0  0  0  0  0
   21.7630   -3.8678  -14.5359 O   0  0  0  0  0  0  0  0  0  0  0  0
   17.3584   -4.2912  -18.0001 O   0  0  0  0  0  0  0  0  0  0  0  0
   20.3986   -5.3869  -13.6208 O   0  0  0  0  0  0  0  0  0  0  0  0
  2  1  1  6
  3  2  1  0
  4  2  1  0
  4  6  1  0
  4  5  1  6
  6 13  1  0
  6  7  2  0
  9  8  1  0
 10  9  1  0
 10 11  1  1
 12 10  1  0
 12 13  1  6
 14 16  1  0
 14 12  1  0
 15 14  2  0
 17 22  1  0
 17 16  1  0
 17 18  1  1
 18 19  1  0
 19 20  1  0
 20 21  2  0
 22 23  1  0
 24 20  1  0
 25 22  2  0
M  END
$$$$
