TIE.pdb
     RDKit          3D

 25 24  0  0  1  0  0  0  0  0999 V2000
   19.7052   -8.6873  -19.5627 C   0  0  0  0  0  0  0  0  0  0  0  0
   19.0761  -10.0279  -19.3769 C   0  0  1  0  0  0  0  0  0  0  0  0
   18.5247  -10.5319  -20.5593 O   0  0  0  0  0  0  0  0  0  0  0  0
   20.0853  -11.0774  -18.8942 C   0  0  2  0  0  0  0  0  0  0  0  0
   19.3080  -12.2984  -18.6961 N   0  0  0  0  0  0  0  0  0  0  0  0
   20.5925  -10.5708  -17.5910 C   0  0  0  0  0  0  0  0  0  0  0  0
   19.8032  -10.5725  -16.6159 O   0  0  0  0  0  0  0  0  0  0  0  0
   25.2072  -12.2762  -15.7899 C   0  0  0  0  0  0  0  0  0  0  0  0
   23.8494  -11.6916  -15.8956 C   0  0  0  0  0  0  0  0  0  0  0  0
   23.7227  -10.2243  -15.8799 C   0  0  2  0  0  0  0  0  0  0  0  0
   24.5888   -9.5514  -14.8280 C   0  0  0  0  0  0  0  0  0  0  0  0
   22.3821   -9.6028  -16.0701 C   0  0  2  0  0  0  0  0  0  0  0  0
   21.8973  -10.0943  -17.3943 N   0  0  0  0  0  0  0  0  0  0  0  0
   22.2473   -8.1598  -16.0091 C   0  0  0  0  0  0  0  0  0  0  0  0
   22.7964   -7.4218  -16.9221 O   0  0  0  0  0  0  0  0  0  0  0  0
   21.5532   -7.3820  -15.0438 N   0  0  0  0  0  0  0  0  0  0  0  0
   21.5235   -5.9166  -15.1053 C   0  0  1  0  0  0  0  0  0  0  0  0
   20.0740   -5.4756  -15.2391 C   0  0  0  0  0  0  0  0  0  0  0  0
   19.8792   -4.0045  -15.2781 C   0  0  0  0  0  0  0  0  0  0  0  0
   18.4078   -3.7265  -15.4109 C   0  0  0  0  0  0  0  0  0  0  0  0
   17.6027   -4.6853  -15.4875 O   0  0  0  0  0  0  0  0  0  0  0  0
   22.2193   -5.2815  -13.9797 C   0  0  0  0  0  0  0  0  0  0  0  0
   22.7649   -3.9952  -14.0528 O   0  0  0  0  0  0  0  0  0  0  0  0
   17.9027   -2.4398  -15.4522 O   0  0  0  0  0  0  0  0  0  0  0  0
   22.3681   -5.8586  -12.8793 O   0  0  0  0  0  0  0  0  0  0  0  0
  2  1  1  6
  3  2  1  0
  4  2  1  0
  4  6  1  0
  4  5  1  1
  6 13  1  0
  6  7  2  0
  9  8  1  0
 10  9  1  0
 10 11  1  1
 12 10  1  0
 12 13  1  6
 14 16  1  0
 14 12  1  0
 15 14  2  0
 17 22  1  0
 17 16  1  0
 17 18  1  1
 18 19  1  0
 19 20  1  0
 20 21  2  0
 22 23  1  0
 24 20  1  0
 25 22  2  0
M  END
$$$$
