TIE.pdb
     RDKit          3D

 25 24  0  0  1  0  0  0  0  0999 V2000
   26.2136  -13.0877  -15.4173 C   0  0  0  0  0  0  0  0  0  0  0  0
   25.1512  -12.2203  -16.0060 C   0  0  1  0  0  0  0  0  0  0  0  0
   25.4290  -11.8503  -17.3258 O   0  0  0  0  0  0  0  0  0  0  0  0
   23.7861  -12.9193  -16.0360 C   0  0  2  0  0  0  0  0  0  0  0  0
   23.8563  -13.8560  -17.1549 N   0  0  0  0  0  0  0  0  0  0  0  0
   22.7967  -11.8462  -16.3222 C   0  0  0  0  0  0  0  0  0  0  0  0
   22.4983  -11.6308  -17.5215 O   0  0  0  0  0  0  0  0  0  0  0  0
   17.8810  -12.1353  -15.4436 C   0  0  0  0  0  0  0  0  0  0  0  0
   19.1609  -11.5967  -15.9616 C   0  0  0  0  0  0  0  0  0  0  0  0
   19.8639  -10.5836  -15.1561 C   0  0  2  0  0  0  0  0  0  0  0  0
   18.9355   -9.5617  -14.5211 C   0  0  0  0  0  0  0  0  0  0  0  0
   21.1573  -10.0281  -15.6443 C   0  0  2  0  0  0  0  0  0  0  0  0
   22.1831  -11.0668  -15.3300 N   0  0  0  0  0  0  0  0  0  0  0  0
   21.6095   -8.7374  -15.1608 C   0  0  0  0  0  0  0  0  0  0  0  0
   22.0317   -8.6176  -13.9413 O   0  0  0  0  0  0  0  0  0  0  0  0
   21.6727   -7.5069  -15.8682 N   0  0  0  0  0  0  0  0  0  0  0  0
   22.2704   -6.3039  -15.2785 C   0  0  1  0  0  0  0  0  0  0  0  0
   22.3555   -5.2368  -16.3591 C   0  0  0  0  0  0  0  0  0  0  0  0
   22.9059   -3.9372  -15.8989 C   0  0  0  0  0  0  0  0  0  0  0  0
   22.9394   -2.9970  -17.0714 C   0  0  0  0  0  0  0  0  0  0  0  0
   21.9257   -2.3088  -17.3402 O   0  0  0  0  0  0  0  0  0  0  0  0
   21.5708   -5.8492  -14.0710 C   0  0  0  0  0  0  0  0  0  0  0  0
   22.2390   -5.3322  -12.9558 O   0  0  0  0  0  0  0  0  0  0  0  0
   24.0575   -2.8606  -17.8736 O   0  0  0  0  0  0  0  0  0  0  0  0
   20.3247   -5.8989  -13.9663 O   0  0  0  0  0  0  0  0  0  0  0  0
  2  1  1  6
  3  2  1  0
  4  2  1  0
  4  6  1  0
  4  5  1  6
  6 13  1  0
  6  7  2  0
  9  8  1  0
 10  9  1  0
 10 11  1  6
 12 10  1  0
 12 13  1  1
 14 16  1  0
 14 12  1  0
 15 14  2  0
 17 22  1  0
 17 16  1  0
 17 18  1  6
 18 19  1  0
 19 20  1  0
 20 21  2  0
 22 23  1  0
 24 20  1  0
 25 22  2  0
M  END
$$$$
