TIE.pdb
     RDKit          3D

 25 24  0  0  1  0  0  0  0  0999 V2000
   20.5498  -33.1097   -7.7965 C   0  0  0  0  0  0  0  0  0  0  0  0
   20.2996  -33.7293   -9.1310 C   0  0  1  0  0  0  0  0  0  0  0  0
   19.1552  -33.2210   -9.7540 O   0  0  0  0  0  0  0  0  0  0  0  0
   21.4595  -33.4894  -10.1056 C   0  0  2  0  0  0  0  0  0  0  0  0
   21.1328  -34.2720  -11.2952 N   0  0  0  0  0  0  0  0  0  0  0  0
   22.6639  -34.0478   -9.4348 C   0  0  0  0  0  0  0  0  0  0  0  0
   22.7900  -35.2955   -9.4036 O   0  0  0  0  0  0  0  0  0  0  0  0
   27.4016  -32.7584  -10.8501 C   0  0  0  0  0  0  0  0  0  0  0  0
   26.3156  -33.5216  -10.1908 C   0  0  0  0  0  0  0  0  0  0  0  0
   26.0344  -33.2432   -8.7721 C   0  0  2  0  0  0  0  0  0  0  0  0
   27.2781  -33.2248   -7.8990 C   0  0  0  0  0  0  0  0  0  0  0  0
   24.8346  -33.8501   -8.1303 C   0  0  2  0  0  0  0  0  0  0  0  0
   23.6600  -33.2598   -8.8389 N   0  0  0  0  0  0  0  0  0  0  0  0
   24.6498  -33.7253   -6.6970 C   0  0  0  0  0  0  0  0  0  0  0  0
   24.4060  -32.5634   -6.1771 O   0  0  0  0  0  0  0  0  0  0  0  0
   24.6891  -34.7497   -5.7134 N   0  0  0  0  0  0  0  0  0  0  0  0
   24.5560  -34.4555   -4.2823 C   0  0  1  0  0  0  0  0  0  0  0  0
   23.2407  -35.0447   -3.7962 C   0  0  0  0  0  0  0  0  0  0  0  0
   23.0155  -34.9245   -2.3338 C   0  0  0  0  0  0  0  0  0  0  0  0
   21.6000  -34.4705   -2.1099 C   0  0  0  0  0  0  0  0  0  0  0  0
   20.8307  -34.3403   -3.0920 O   0  0  0  0  0  0  0  0  0  0  0  0
   25.7135  -34.8985   -3.4960 C   0  0  0  0  0  0  0  0  0  0  0  0
   26.0171  -34.3787   -2.2331 O   0  0  0  0  0  0  0  0  0  0  0  0
   21.1087  -34.1878   -0.8485 O   0  0  0  0  0  0  0  0  0  0  0  0
   26.5046  -35.7738   -3.9131 O   0  0  0  0  0  0  0  0  0  0  0  0
  2  1  1  1
  3  2  1  0
  4  2  1  0
  4  6  1  0
  4  5  1  6
  6 13  1  0
  6  7  2  0
  9  8  1  0
 10  9  1  0
 10 11  1  1
 12 10  1  0
 12 13  1  6
 14 16  1  0
 14 12  1  0
 15 14  2  0
 17 22  1  0
 17 16  1  0
 17 18  1  1
 18 19  1  0
 19 20  1  0
 20 21  2  0
 22 23  1  0
 24 20  1  0
 25 22  2  0
M  END
$$$$
