TIE.pdb
     RDKit          3D

 25 24  0  0  1  0  0  0  0  0999 V2000
   19.4837   -9.2418  -18.3285 C   0  0  0  0  0  0  0  0  0  0  0  0
   19.0478  -10.6421  -18.0515 C   0  0  1  0  0  0  0  0  0  0  0  0
   18.4570  -11.2514  -19.1631 O   0  0  0  0  0  0  0  0  0  0  0  0
   20.2211  -11.5420  -17.6436 C   0  0  2  0  0  0  0  0  0  0  0  0
   19.6224  -12.8350  -17.3213 N   0  0  0  0  0  0  0  0  0  0  0  0
   20.7933  -10.9185  -16.4204 C   0  0  0  0  0  0  0  0  0  0  0  0
   20.1189  -10.9769  -15.3642 O   0  0  0  0  0  0  0  0  0  0  0  0
   26.3497  -10.3870  -15.5182 C   0  0  0  0  0  0  0  0  0  0  0  0
   24.9931   -9.8973  -15.8593 C   0  0  0  0  0  0  0  0  0  0  0  0
   23.8990  -10.1681  -14.9111 C   0  0  2  0  0  0  0  0  0  0  0  0
   23.8841  -11.5967  -14.3933 C   0  0  0  0  0  0  0  0  0  0  0  0
   22.5512   -9.5848  -15.1619 C   0  0  2  0  0  0  0  0  0  0  0  0
   22.0384  -10.2729  -16.3840 N   0  0  0  0  0  0  0  0  0  0  0  0
   22.4105   -8.1496  -15.3178 C   0  0  0  0  0  0  0  0  0  0  0  0
   22.7674   -7.5836  -16.4278 O   0  0  0  0  0  0  0  0  0  0  0  0
   21.9001   -7.2098  -14.3825 N   0  0  0  0  0  0  0  0  0  0  0  0
   21.8031   -5.7797  -14.6951 C   0  0  1  0  0  0  0  0  0  0  0  0
   20.3329   -5.4285  -14.8637 C   0  0  0  0  0  0  0  0  0  0  0  0
   20.0734   -4.0027  -15.1849 C   0  0  0  0  0  0  0  0  0  0  0  0
   18.5875   -3.8083  -15.3034 C   0  0  0  0  0  0  0  0  0  0  0  0
   17.9492   -4.4443  -16.1760 O   0  0  0  0  0  0  0  0  0  0  0  0
   22.4916   -4.9309  -13.7154 C   0  0  0  0  0  0  0  0  0  0  0  0
   22.8448   -3.6027  -13.9770 O   0  0  0  0  0  0  0  0  0  0  0  0
   17.8900   -2.9455  -14.4779 O   0  0  0  0  0  0  0  0  0  0  0  0
   22.8070   -5.3492  -12.5789 O   0  0  0  0  0  0  0  0  0  0  0  0
  2  1  1  6
  3  2  1  0
  4  2  1  0
  4  6  1  0
  4  5  1  1
  6 13  1  0
  6  7  2  0
  9  8  1  0
 10  9  1  0
 10 11  1  6
 12 10  1  0
 12 13  1  6
 14 16  1  0
 14 12  1  0
 15 14  2  0
 17 22  1  0
 17 16  1  0
 17 18  1  1
 18 19  1  0
 19 20  1  0
 20 21  2  0
 22 23  1  0
 24 20  1  0
 25 22  2  0
M  END
$$$$
