QGC.pdb
     RDKit          3D

 20 19  0  0  1  0  0  0  0  0999 V2000
   13.5127  -14.5148  -11.1491 N   0  0  0  0  0  0  0  0  0  0  0  0
   13.8839  -15.3426  -12.2368 C   0  0  0  0  0  0  0  0  0  0  0  0
   13.1560  -16.3100  -12.5386 O   0  0  0  0  0  0  0  0  0  0  0  0
   15.1078  -15.0607  -12.9928 C   0  0  0  0  0  0  0  0  0  0  0  0
   15.8743  -13.8680  -12.5383 C   0  0  0  0  0  0  0  0  0  0  0  0
   15.6348  -12.6303  -13.3344 C   0  0  2  0  0  0  0  0  0  0  0  0
   16.1353  -12.8892  -14.6944 N   0  0  0  0  0  0  0  0  0  0  0  0
   16.3717  -11.4709  -12.7905 C   0  0  0  0  0  0  0  0  0  0  0  0
   17.5470  -11.1774  -13.1281 O   0  0  0  0  0  0  0  0  0  0  0  0
   15.7712  -10.6097  -11.8347 N   0  0  0  0  0  0  0  0  0  0  0  0
   16.4128   -9.3985  -11.3636 C   0  0  0  0  0  0  0  0  0  0  0  0
   15.5246   -8.6720  -10.4356 C   0  0  0  0  0  0  0  0  0  0  0  0
   14.3302   -9.0514  -10.3258 O   0  0  0  0  0  0  0  0  0  0  0  0
   15.9202   -7.5707   -9.6534 N   0  0  0  0  0  0  0  0  0  0  0  0
   15.0052   -6.7829   -8.8535 C   0  0  1  0  0  0  0  0  0  0  0  0
   15.1194   -7.1150   -7.3803 C   0  0  0  0  0  0  0  0  0  0  0  0
   13.9091   -6.0586   -6.5120 S   0  0  0  0  0  0  0  0  0  0  0  0
   15.3126   -5.3484   -8.9997 C   0  0  0  0  0  0  0  0  0  0  0  0
   14.3886   -4.5149   -8.9630 O   0  0  0  0  0  0  0  0  0  0  0  0
   16.6085   -4.9360   -9.1748 O   0  0  0  0  0  0  0  0  0  0  0  0
  2  3  2  0
  2  1  1  0
  4  2  1  0
  5  4  1  0
  6  5  1  0
  6  7  1  6
  8  6  1  0
  8 10  1  0
  9  8  2  0
 11 10  1  0
 12 11  1  0
 13 12  2  0
 14 12  1  0
 15 14  1  0
 15 16  1  1
 16 17  1  0
 18 15  1  0
 19 18  2  0
 20 18  1  0
M  END
$$$$
