QGC.pdb
     RDKit          3D

 20 19  0  0  1  0  0  0  0  0999 V2000
   20.8954  -15.4857  -17.9408 N   0  0  0  0  0  0  0  0  0  0  0  0
   19.5002  -15.3795  -18.1606 C   0  0  0  0  0  0  0  0  0  0  0  0
   18.8020  -16.4133  -18.1353 O   0  0  0  0  0  0  0  0  0  0  0  0
   18.8920  -14.0700  -18.4140 C   0  0  0  0  0  0  0  0  0  0  0  0
   19.8359  -12.9186  -18.4022 C   0  0  0  0  0  0  0  0  0  0  0  0
   19.3046  -11.6813  -17.7619 C   0  0  2  0  0  0  0  0  0  0  0  0
   18.2066  -11.1934  -18.6123 N   0  0  0  0  0  0  0  0  0  0  0  0
   20.3264  -10.6171  -17.6814 C   0  0  0  0  0  0  0  0  0  0  0  0
   21.4060  -10.6439  -18.3260 O   0  0  0  0  0  0  0  0  0  0  0  0
   20.1325   -9.4828  -16.8499 N   0  0  0  0  0  0  0  0  0  0  0  0
   21.1311   -8.4426  -16.7033 C   0  0  0  0  0  0  0  0  0  0  0  0
   20.7131   -7.4675  -15.6775 C   0  0  0  0  0  0  0  0  0  0  0  0
   19.5350   -7.0280  -15.7106 O   0  0  0  0  0  0  0  0  0  0  0  0
   21.5467   -6.9861  -14.6505 N   0  0  0  0  0  0  0  0  0  0  0  0
   21.1319   -5.9994  -13.6748 C   0  0  1  0  0  0  0  0  0  0  0  0
   21.4200   -6.4546  -12.2594 C   0  0  0  0  0  0  0  0  0  0  0  0
   20.4432   -7.9739  -11.9908 S   0  0  0  0  0  0  0  0  0  0  0  0
   21.8700   -4.7404  -13.8841 C   0  0  0  0  0  0  0  0  0  0  0  0
   22.8600   -4.7265  -14.6388 O   0  0  0  0  0  0  0  0  0  0  0  0
   21.4677   -3.5927  -13.2509 O   0  0  0  0  0  0  0  0  0  0  0  0
  2  3  2  0
  2  1  1  0
  4  2  1  0
  5  4  1  0
  6  5  1  0
  6  7  1  6
  8  6  1  0
  8 10  1  0
  9  8  2  0
 11 10  1  0
 12 11  1  0
 13 12  2  0
 14 12  1  0
 15 14  1  0
 15 16  1  1
 16 17  1  0
 18 15  1  0
 19 18  2  0
 20 18  1  0
M  END
$$$$
