QGC.pdb
     RDKit          3D

 20 19  0  0  1  0  0  0  0  0999 V2000
   16.4468  -12.4598  -13.8930 N   0  0  0  0  0  0  0  0  0  0  0  0
   16.5513  -12.1386  -15.2685 C   0  0  0  0  0  0  0  0  0  0  0  0
   15.8407  -12.7522  -16.0902 O   0  0  0  0  0  0  0  0  0  0  0  0
   17.4841  -11.0988  -15.7133 C   0  0  0  0  0  0  0  0  0  0  0  0
   18.2304  -10.4080  -14.6258 C   0  0  0  0  0  0  0  0  0  0  0  0
   18.3612   -8.9326  -14.7969 C   0  0  2  0  0  0  0  0  0  0  0  0
   19.4832   -8.7039  -15.7219 N   0  0  0  0  0  0  0  0  0  0  0  0
   18.6750   -8.2533  -13.5228 C   0  0  0  0  0  0  0  0  0  0  0  0
   19.8369   -8.1745  -13.0482 O   0  0  0  0  0  0  0  0  0  0  0  0
   17.6515   -7.6404  -12.7530 N   0  0  0  0  0  0  0  0  0  0  0  0
   17.8830   -7.1191  -11.4207 C   0  0  0  0  0  0  0  0  0  0  0  0
   16.6526   -6.5035  -10.8869 C   0  0  0  0  0  0  0  0  0  0  0  0
   15.7605   -6.1428  -11.6972 O   0  0  0  0  0  0  0  0  0  0  0  0
   16.3997   -6.2871   -9.5192 N   0  0  0  0  0  0  0  0  0  0  0  0
   15.1810   -5.6912   -9.0117 C   0  0  1  0  0  0  0  0  0  0  0  0
   14.9823   -5.9876   -7.5399 C   0  0  0  0  0  0  0  0  0  0  0  0
   15.0521   -7.8035   -7.3593 S   0  0  0  0  0  0  0  0  0  0  0  0
   15.2378   -4.2249   -9.1548 C   0  0  0  0  0  0  0  0  0  0  0  0
   16.3394   -3.6639   -9.3017 O   0  0  0  0  0  0  0  0  0  0  0  0
   14.0839   -3.4849   -9.1262 O   0  0  0  0  0  0  0  0  0  0  0  0
  2  3  2  0
  2  1  1  0
  4  2  1  0
  5  4  1  0
  6  5  1  0
  6  7  1  6
  8  6  1  0
  8 10  1  0
  9  8  2  0
 11 10  1  0
 12 11  1  0
 13 12  2  0
 14 12  1  0
 15 14  1  0
 15 16  1  1
 16 17  1  0
 18 15  1  0
 19 18  2  0
 20 18  1  0
M  END
$$$$
