QGC.pdb
     RDKit          3D

 20 19  0  0  1  0  0  0  0  0999 V2000
   22.4635  -21.0833  -13.2426 N   0  0  0  0  0  0  0  0  0  0  0  0
   22.5387  -22.0201  -12.1830 C   0  0  0  0  0  0  0  0  0  0  0  0
   21.5745  -22.1270  -11.3984 O   0  0  0  0  0  0  0  0  0  0  0  0
   23.7364  -22.8488  -12.0162 C   0  0  0  0  0  0  0  0  0  0  0  0
   24.8027  -22.6356  -13.0332 C   0  0  0  0  0  0  0  0  0  0  0  0
   25.8728  -21.6804  -12.6262 C   0  0  2  0  0  0  0  0  0  0  0  0
   25.2628  -20.7247  -11.6873 N   0  0  0  0  0  0  0  0  0  0  0  0
   26.3998  -20.9168  -13.7761 C   0  0  0  0  0  0  0  0  0  0  0  0
   27.1323  -21.4216  -14.6650 O   0  0  0  0  0  0  0  0  0  0  0  0
   26.0958  -19.5392  -13.9362 N   0  0  0  0  0  0  0  0  0  0  0  0
   26.5978  -18.7530  -15.0455 C   0  0  0  0  0  0  0  0  0  0  0  0
   25.8751  -17.4695  -15.1365 C   0  0  0  0  0  0  0  0  0  0  0  0
   24.8188  -17.3258  -14.4686 O   0  0  0  0  0  0  0  0  0  0  0  0
   26.2858  -16.3791  -15.9262 N   0  0  0  0  0  0  0  0  0  0  0  0
   25.5669  -15.1239  -15.9994 C   0  0  1  0  0  0  0  0  0  0  0  0
   26.3905  -14.0441  -16.6697 C   0  0  0  0  0  0  0  0  0  0  0  0
   27.8676  -13.7912  -15.6262 S   0  0  0  0  0  0  0  0  0  0  0  0
   24.3388  -15.2908  -16.7979 C   0  0  0  0  0  0  0  0  0  0  0  0
   24.3312  -16.0872  -17.7547 O   0  0  0  0  0  0  0  0  0  0  0  0
   23.2126  -14.5728  -16.4876 O   0  0  0  0  0  0  0  0  0  0  0  0
  2  3  2  0
  2  1  1  0
  4  2  1  0
  5  4  1  0
  6  5  1  0
  6  7  1  1
  8  6  1  0
  8 10  1  0
  9  8  2  0
 11 10  1  0
 12 11  1  0
 13 12  2  0
 14 12  1  0
 15 14  1  0
 15 16  1  6
 16 17  1  0
 18 15  1  0
 19 18  2  0
 20 18  1  0
M  END
$$$$
