QGC.pdb
     RDKit          3D

 20 19  0  0  1  0  0  0  0  0999 V2000
   22.7277  -17.5332  -16.2070 N   0  0  0  0  0  0  0  0  0  0  0  0
   22.7610  -18.8672  -15.7320 C   0  0  0  0  0  0  0  0  0  0  0  0
   21.7097  -19.5392  -15.7373 O   0  0  0  0  0  0  0  0  0  0  0  0
   24.0167  -19.4434  -15.2420 C   0  0  0  0  0  0  0  0  0  0  0  0
   25.1913  -18.5292  -15.2776 C   0  0  0  0  0  0  0  0  0  0  0  0
   26.5078  -19.2091  -15.4441 C   0  0  2  0  0  0  0  0  0  0  0  0
   26.2337  -20.5553  -15.9729 N   0  0  0  0  0  0  0  0  0  0  0  0
   27.2192  -19.3606  -14.1580 C   0  0  0  0  0  0  0  0  0  0  0  0
   27.5697  -18.3878  -13.4421 O   0  0  0  0  0  0  0  0  0  0  0  0
   27.5498  -20.6467  -13.6557 N   0  0  0  0  0  0  0  0  0  0  0  0
   28.1977  -20.8412  -12.3739 C   0  0  0  0  0  0  0  0  0  0  0  0
   27.2010  -21.1745  -11.3378 C   0  0  0  0  0  0  0  0  0  0  0  0
   26.1875  -21.8410  -11.6709 O   0  0  0  0  0  0  0  0  0  0  0  0
   27.3019  -20.7966   -9.9856 N   0  0  0  0  0  0  0  0  0  0  0  0
   26.3320  -21.1629   -8.9743 C   0  0  1  0  0  0  0  0  0  0  0  0
   26.7452  -20.6798   -7.5997 C   0  0  0  0  0  0  0  0  0  0  0  0
   26.8938  -18.8630   -7.7080 S   0  0  0  0  0  0  0  0  0  0  0  0
   25.0282  -20.5449   -9.2772 C   0  0  0  0  0  0  0  0  0  0  0  0
   23.9992  -20.9802   -8.7280 O   0  0  0  0  0  0  0  0  0  0  0  0
   24.9506  -19.4973  -10.1585 O   0  0  0  0  0  0  0  0  0  0  0  0
  2  3  2  0
  2  1  1  0
  4  2  1  0
  5  4  1  0
  6  5  1  0
  6  7  1  1
  8  6  1  0
  8 10  1  0
  9  8  2  0
 11 10  1  0
 12 11  1  0
 13 12  2  0
 14 12  1  0
 15 14  1  0
 15 16  1  1
 16 17  1  0
 18 15  1  0
 19 18  2  0
 20 18  1  0
M  END
$$$$
