QGC.pdb
     RDKit          3D

 20 19  0  0  1  0  0  0  0  0999 V2000
   28.4473  -17.6796  -16.8518 N   0  0  0  0  0  0  0  0  0  0  0  0
   28.0205  -18.9658  -17.2638 C   0  0  0  0  0  0  0  0  0  0  0  0
   27.1570  -19.0601  -18.1594 O   0  0  0  0  0  0  0  0  0  0  0  0
   28.5898  -20.1650  -16.6419 C   0  0  0  0  0  0  0  0  0  0  0  0
   27.6632  -20.9209  -15.7548 C   0  0  0  0  0  0  0  0  0  0  0  0
   27.0338  -20.1109  -14.6728 C   0  0  2  0  0  0  0  0  0  0  0  0
   28.0718  -19.8672  -13.6578 N   0  0  0  0  0  0  0  0  0  0  0  0
   25.9187  -20.8287  -14.0213 C   0  0  0  0  0  0  0  0  0  0  0  0
   24.8986  -21.2290  -14.6385 O   0  0  0  0  0  0  0  0  0  0  0  0
   25.9468  -21.1082  -12.6296 N   0  0  0  0  0  0  0  0  0  0  0  0
   24.8818  -21.8239  -11.9556 C   0  0  0  0  0  0  0  0  0  0  0  0
   23.6076  -21.0901  -12.0813 C   0  0  0  0  0  0  0  0  0  0  0  0
   23.3366  -20.2057  -11.2288 O   0  0  0  0  0  0  0  0  0  0  0  0
   22.6597  -21.3097  -13.0985 N   0  0  0  0  0  0  0  0  0  0  0  0
   21.3749  -20.6437  -13.1573 C   0  0  1  0  0  0  0  0  0  0  0  0
   21.1214  -20.0332  -14.5198 C   0  0  0  0  0  0  0  0  0  0  0  0
   22.3985  -18.7508  -14.7628 S   0  0  0  0  0  0  0  0  0  0  0  0
   20.2918  -21.6124  -12.9079 C   0  0  0  0  0  0  0  0  0  0  0  0
   19.1851  -21.2072  -12.5069 O   0  0  0  0  0  0  0  0  0  0  0  0
   20.5033  -22.9510  -13.1167 O   0  0  0  0  0  0  0  0  0  0  0  0
  2  3  2  0
  2  1  1  0
  4  2  1  0
  5  4  1  0
  6  5  1  0
  6  7  1  1
  8  6  1  0
  8 10  1  0
  9  8  2  0
 11 10  1  0
 12 11  1  0
 13 12  2  0
 14 12  1  0
 15 14  1  0
 15 16  1  6
 16 17  1  0
 18 15  1  0
 19 18  2  0
 20 18  1  0
M  END
$$$$
