QGC.pdb
     RDKit          3D

 20 19  0  0  1  0  0  0  0  0999 V2000
   24.7626  -15.7802  -15.6209 N   0  0  0  0  0  0  0  0  0  0  0  0
   23.4499  -16.2943  -15.7585 C   0  0  0  0  0  0  0  0  0  0  0  0
   23.2661  -17.5238  -15.6530 O   0  0  0  0  0  0  0  0  0  0  0  0
   22.3279  -15.3883  -16.0217 C   0  0  0  0  0  0  0  0  0  0  0  0
   22.6851  -13.9459  -16.1157 C   0  0  0  0  0  0  0  0  0  0  0  0
   21.5474  -13.0404  -16.4453 C   0  0  2  0  0  0  0  0  0  0  0  0
   21.1828  -13.2995  -17.8477 N   0  0  0  0  0  0  0  0  0  0  0  0
   21.9215  -11.6159  -16.3271 C   0  0  0  0  0  0  0  0  0  0  0  0
   22.3319  -11.0943  -15.2589 O   0  0  0  0  0  0  0  0  0  0  0  0
   21.8329  -10.7447  -17.4447 N   0  0  0  0  0  0  0  0  0  0  0  0
   22.1463   -9.3321  -17.3599 C   0  0  0  0  0  0  0  0  0  0  0  0
   20.9086   -8.5284  -17.3635 C   0  0  0  0  0  0  0  0  0  0  0  0
   19.9342   -8.9282  -18.0513 O   0  0  0  0  0  0  0  0  0  0  0  0
   20.7352   -7.3308  -16.6443 N   0  0  0  0  0  0  0  0  0  0  0  0
   19.5248   -6.5366  -16.6857 C   0  0  1  0  0  0  0  0  0  0  0  0
   18.4179   -7.1577  -15.8596 C   0  0  0  0  0  0  0  0  0  0  0  0
   17.0284   -5.9729  -15.8739 S   0  0  0  0  0  0  0  0  0  0  0  0
   19.7810   -5.1957  -16.1289 C   0  0  0  0  0  0  0  0  0  0  0  0
   20.6945   -5.0396  -15.2975 O   0  0  0  0  0  0  0  0  0  0  0  0
   19.0174   -4.1280  -16.5249 O   0  0  0  0  0  0  0  0  0  0  0  0
  2  3  2  0
  2  1  1  0
  4  2  1  0
  5  4  1  0
  6  5  1  0
  6  7  1  6
  8  6  1  0
  8 10  1  0
  9  8  2  0
 11 10  1  0
 12 11  1  0
 13 12  2  0
 14 12  1  0
 15 14  1  0
 15 16  1  1
 16 17  1  0
 18 15  1  0
 19 18  2  0
 20 18  1  0
M  END
$$$$
