DAW.pdb
     RDKit          3D

 28 29  0  0  1  0  0  0  0  0999 V2000
   16.0808  -14.8570  -16.6231 N   0  0  0  0  0  0  0  0  0  0  0  0
   15.1652  -13.9051  -16.0880 C   0  0  1  0  0  0  0  0  0  0  0  0
   14.7889  -14.2942  -14.6793 C   0  0  0  0  0  0  0  0  0  0  0  0
   14.0458  -15.5735  -14.7609 C   0  0  0  0  0  0  0  0  0  0  0  0
   12.9861  -15.6012  -15.4289 O   0  0  0  0  0  0  0  0  0  0  0  0
   15.5663  -12.5053  -16.2402 C   0  0  0  0  0  0  0  0  0  0  0  0
   16.7486  -12.1772  -15.9146 O   0  0  0  0  0  0  0  0  0  0  0  0
   14.4567  -16.7390  -14.1409 O   0  0  0  0  0  0  0  0  0  0  0  0
   14.2042   -9.1843  -17.4884 C   0  0  0  0  0  0  0  0  0  0  0  0
   15.2180  -10.0844  -16.8465 C   0  0  2  0  0  0  0  0  0  0  0  0
   14.7531  -11.4527  -16.7246 N   0  0  0  0  0  0  0  0  0  0  0  0
   15.6840   -9.5529  -15.5318 C   0  0  0  0  0  0  0  0  0  0  0  0
   15.0530   -9.7911  -14.4549 O   0  0  0  0  0  0  0  0  0  0  0  0
   16.8496   -8.7557  -15.4017 N   0  0  0  0  0  0  0  0  0  0  0  0
   17.3061   -8.1516  -14.1655 C   0  0  1  0  0  0  0  0  0  0  0  0
   18.3678   -8.9377  -13.4858 C   0  0  0  0  0  0  0  0  0  0  0  0
   19.0046   -8.2774  -12.3159 C   0  0  0  0  0  0  0  0  0  0  0  0
   18.5873   -8.4358  -10.9806 C   0  0  0  0  0  0  0  0  0  0  0  0
   19.3975   -7.7228  -10.1988 N   0  0  0  0  0  0  0  0  0  0  0  0
   20.3325   -7.0945  -10.9189 C   0  0  0  0  0  0  0  0  0  0  0  0
   21.3645   -6.2572  -10.5791 C   0  0  0  0  0  0  0  0  0  0  0  0
   22.2127   -5.7119  -11.5182 C   0  0  0  0  0  0  0  0  0  0  0  0
   21.9701   -6.0521  -12.8251 C   0  0  0  0  0  0  0  0  0  0  0  0
   20.9297   -6.8976  -13.1776 C   0  0  0  0  0  0  0  0  0  0  0  0
   20.0912   -7.4364  -12.2355 C   0  0  0  0  0  0  0  0  0  0  0  0
   17.5403   -6.7121  -14.2312 C   0  0  0  0  0  0  0  0  0  0  0  0
   17.1286   -5.9047  -13.1923 O   0  0  0  0  0  0  0  0  0  0  0  0
   18.1051   -6.1861  -15.2143 O   0  0  0  0  0  0  0  0  0  0  0  0
  2  1  1  1
  2  3  1  0
  4  3  1  0
  4  5  2  0
  6  2  1  0
  7  6  2  0
  8  4  1  0
 10  9  1  1
 10 12  1  0
 10 11  1  0
 11  6  1  0
 12 13  2  0
 14 15  1  0
 14 12  1  0
 15 16  1  6
 16 17  1  0
 17 25  1  0
 18 17  2  0
 18 19  1  0
 19 20  1  0
 20 21  1  0
 21 22  2  0
 23 22  1  0
 24 23  2  0
 25 20  2  0
 25 24  1  0
 26 27  1  0
 26 15  1  0
 28 26  2  0
M  END
$$$$
