DAW.pdb
     RDKit          3D

 28 29  0  0  1  0  0  0  0  0999 V2000
   40.5053  -21.0972   11.2142 N   0  0  0  0  0  0  0  0  0  0  0  0
   39.1678  -21.0389   11.7028 C   0  0  1  0  0  0  0  0  0  0  0  0
   38.6059  -19.6547   11.4894 C   0  0  0  0  0  0  0  0  0  0  0  0
   39.3852  -18.7280   12.3434 C   0  0  0  0  0  0  0  0  0  0  0  0
   39.7565  -19.1318   13.4700 O   0  0  0  0  0  0  0  0  0  0  0  0
   38.2936  -22.1214   11.2475 C   0  0  0  0  0  0  0  0  0  0  0  0
   38.1573  -22.3025    9.9984 O   0  0  0  0  0  0  0  0  0  0  0  0
   39.7257  -17.4421   11.9666 O   0  0  0  0  0  0  0  0  0  0  0  0
   36.2522  -25.0269   12.5608 C   0  0  0  0  0  0  0  0  0  0  0  0
   36.6089  -23.9693   11.5587 C   0  0  2  0  0  0  0  0  0  0  0  0
   37.5658  -23.0097   12.0752 N   0  0  0  0  0  0  0  0  0  0  0  0
   35.3991  -23.2859   11.0132 C   0  0  0  0  0  0  0  0  0  0  0  0
   35.1904  -22.0471   11.2036 O   0  0  0  0  0  0  0  0  0  0  0  0
   34.4147  -23.9690   10.2546 N   0  0  0  0  0  0  0  0  0  0  0  0
   33.3664  -23.3258    9.4875 C   0  0  1  0  0  0  0  0  0  0  0  0
   33.8620  -22.2173    8.6314 C   0  0  0  0  0  0  0  0  0  0  0  0
   32.8188  -21.4769    7.8739 C   0  0  0  0  0  0  0  0  0  0  0  0
   31.9182  -20.5555    8.4414 C   0  0  0  0  0  0  0  0  0  0  0  0
   31.1476  -20.0670    7.4700 N   0  0  0  0  0  0  0  0  0  0  0  0
   31.4692  -20.5985    6.2860 C   0  0  0  0  0  0  0  0  0  0  0  0
   30.9720  -20.4235    5.0197 C   0  0  0  0  0  0  0  0  0  0  0  0
   31.4705  -21.1040    3.9301 C   0  0  0  0  0  0  0  0  0  0  0  0
   32.5006  -21.9755    4.1785 C   0  0  0  0  0  0  0  0  0  0  0  0
   33.0095  -22.1586    5.4548 C   0  0  0  0  0  0  0  0  0  0  0  0
   32.5073  -21.4758    6.5331 C   0  0  0  0  0  0  0  0  0  0  0  0
   32.4232  -24.2367    8.8456 C   0  0  0  0  0  0  0  0  0  0  0  0
   31.0727  -23.9622    8.8862 O   0  0  0  0  0  0  0  0  0  0  0  0
   32.8094  -25.2703    8.2585 O   0  0  0  0  0  0  0  0  0  0  0  0
  2  1  1  6
  2  3  1  0
  4  3  1  0
  4  5  2  0
  6  2  1  0
  7  6  2  0
  8  4  1  0
 10  9  1  1
 10 12  1  0
 10 11  1  0
 11  6  1  0
 12 13  2  0
 14 15  1  0
 14 12  1  0
 15 16  1  6
 16 17  1  0
 17 25  1  0
 18 17  2  0
 18 19  1  0
 19 20  1  0
 20 21  1  0
 21 22  2  0
 23 22  1  0
 24 23  2  0
 25 20  2  0
 25 24  1  0
 26 27  1  0
 26 15  1  0
 28 26  2  0
M  END
$$$$
