DAW.pdb
     RDKit          3D

 28 29  0  0  1  0  0  0  0  0999 V2000
   17.1842  -15.2361  -16.5484 N   0  0  0  0  0  0  0  0  0  0  0  0
   16.4215  -14.1074  -16.1301 C   0  0  1  0  0  0  0  0  0  0  0  0
   16.1932  -14.1691  -14.6396 C   0  0  0  0  0  0  0  0  0  0  0  0
   15.5347  -15.4643  -14.3495 C   0  0  0  0  0  0  0  0  0  0  0  0
   14.5005  -15.7598  -14.9922 O   0  0  0  0  0  0  0  0  0  0  0  0
   16.9114  -12.8147  -16.6121 C   0  0  0  0  0  0  0  0  0  0  0  0
   18.1592  -12.5861  -16.5645 O   0  0  0  0  0  0  0  0  0  0  0  0
   15.9979  -16.3656  -13.4090 O   0  0  0  0  0  0  0  0  0  0  0  0
   15.6725   -9.6671  -18.3321 C   0  0  0  0  0  0  0  0  0  0  0  0
   16.6748  -10.5080  -17.5985 C   0  0  2  0  0  0  0  0  0  0  0  0
   16.1194  -11.7663  -17.1387 N   0  0  0  0  0  0  0  0  0  0  0  0
   17.3185   -9.7602  -16.4785 C   0  0  0  0  0  0  0  0  0  0  0  0
   16.8388   -9.7786  -15.3020 O   0  0  0  0  0  0  0  0  0  0  0  0
   18.4953   -8.9885  -16.6540 N   0  0  0  0  0  0  0  0  0  0  0  0
   19.1036   -8.1613  -15.6308 C   0  0  1  0  0  0  0  0  0  0  0  0
   20.5596   -7.9495  -15.8368 C   0  0  0  0  0  0  0  0  0  0  0  0
   21.2091   -7.0015  -14.8936 C   0  0  0  0  0  0  0  0  0  0  0  0
   21.7486   -7.3583  -13.6431 C   0  0  0  0  0  0  0  0  0  0  0  0
   22.2703   -6.2674  -13.0829 N   0  0  0  0  0  0  0  0  0  0  0  0
   22.1178   -5.1996  -13.8729 C   0  0  0  0  0  0  0  0  0  0  0  0
   22.4728   -3.8816  -13.7377 C   0  0  0  0  0  0  0  0  0  0  0  0
   22.1959   -2.9394  -14.7043 C   0  0  0  0  0  0  0  0  0  0  0  0
   21.5396   -3.3910  -15.8214 C   0  0  0  0  0  0  0  0  0  0  0  0
   21.1772   -4.7211  -15.9666 C   0  0  0  0  0  0  0  0  0  0  0  0
   21.4580   -5.6519  -14.9993 C   0  0  0  0  0  0  0  0  0  0  0  0
   18.3441   -6.9683  -15.2687 C   0  0  0  0  0  0  0  0  0  0  0  0
   18.2065   -6.6225  -13.9412 O   0  0  0  0  0  0  0  0  0  0  0  0
   17.8066   -6.2474  -16.1368 O   0  0  0  0  0  0  0  0  0  0  0  0
  2  1  1  1
  2  3  1  0
  4  3  1  0
  4  5  2  0
  6  2  1  0
  7  6  2  0
  8  4  1  0
 10  9  1  1
 10 12  1  0
 10 11  1  0
 11  6  1  0
 12 13  2  0
 14 15  1  0
 14 12  1  0
 15 16  1  6
 16 17  1  0
 17 25  1  0
 18 17  2  0
 18 19  1  0
 19 20  1  0
 20 21  1  0
 21 22  2  0
 23 22  1  0
 24 23  2  0
 25 20  2  0
 25 24  1  0
 26 27  1  0
 26 15  1  0
 28 26  2  0
M  END
$$$$
