DAW.pdb
     RDKit          3D

 28 29  0  0  1  0  0  0  0  0999 V2000
   27.4522  -19.1522  -16.3830 N   0  0  0  0  0  0  0  0  0  0  0  0
   26.7310  -19.1632  -15.1540 C   0  0  1  0  0  0  0  0  0  0  0  0
   25.2487  -19.1052  -15.4310 C   0  0  0  0  0  0  0  0  0  0  0  0
   24.9271  -17.7094  -15.8100 C   0  0  0  0  0  0  0  0  0  0  0  0
   24.1432  -17.0625  -15.0771 O   0  0  0  0  0  0  0  0  0  0  0  0
   27.1278  -20.2108  -14.2114 C   0  0  0  0  0  0  0  0  0  0  0  0
   26.7038  -21.3912  -14.4072 O   0  0  0  0  0  0  0  0  0  0  0  0
   25.4438  -17.0805  -16.9275 O   0  0  0  0  0  0  0  0  0  0  0  0
   29.6047  -20.8828  -11.4626 C   0  0  0  0  0  0  0  0  0  0  0  0
   28.3148  -21.1295  -12.1874 C   0  0  2  0  0  0  0  0  0  0  0  0
   27.9556  -20.0410  -13.0758 N   0  0  0  0  0  0  0  0  0  0  0  0
   27.1996  -21.4517  -11.2491 C   0  0  0  0  0  0  0  0  0  0  0  0
   27.2766  -22.4192  -10.4291 O   0  0  0  0  0  0  0  0  0  0  0  0
   25.9941  -20.7056  -11.2130 N   0  0  0  0  0  0  0  0  0  0  0  0
   24.8347  -21.0432  -10.4109 C   0  0  1  0  0  0  0  0  0  0  0  0
   24.6232  -20.1186   -9.2674 C   0  0  0  0  0  0  0  0  0  0  0  0
   25.8597  -19.6049   -8.6214 C   0  0  0  0  0  0  0  0  0  0  0  0
   26.6005  -18.4971   -9.0754 C   0  0  0  0  0  0  0  0  0  0  0  0
   27.6253  -18.3069   -8.2449 N   0  0  0  0  0  0  0  0  0  0  0  0
   27.6241  -19.2133   -7.2620 C   0  0  0  0  0  0  0  0  0  0  0  0
   28.4566  -19.4312   -6.1939 C   0  0  0  0  0  0  0  0  0  0  0  0
   28.2543  -20.4579   -5.2975 C   0  0  0  0  0  0  0  0  0  0  0  0
   27.1661  -21.2606   -5.5298 C   0  0  0  0  0  0  0  0  0  0  0  0
   26.3193  -21.0477   -6.6064 C   0  0  0  0  0  0  0  0  0  0  0  0
   26.5283  -20.0222   -7.4929 C   0  0  0  0  0  0  0  0  0  0  0  0
   23.6350  -21.3809  -11.1711 C   0  0  0  0  0  0  0  0  0  0  0  0
   23.6437  -21.2724  -12.5455 O   0  0  0  0  0  0  0  0  0  0  0  0
   22.5890  -21.7650  -10.6048 O   0  0  0  0  0  0  0  0  0  0  0  0
  2  1  1  6
  2  3  1  0
  4  3  1  0
  4  5  2  0
  6  2  1  0
  7  6  2  0
  8  4  1  0
 10  9  1  1
 10 12  1  0
 10 11  1  0
 11  6  1  0
 12 13  2  0
 14 15  1  0
 14 12  1  0
 15 16  1  1
 16 17  1  0
 17 25  1  0
 18 17  2  0
 18 19  1  0
 19 20  1  0
 20 21  1  0
 21 22  2  0
 23 22  1  0
 24 23  2  0
 25 20  2  0
 25 24  1  0
 26 27  1  0
 26 15  1  0
 28 26  2  0
M  END
$$$$
