DAW.pdb
     RDKit          3D

 28 29  0  0  1  0  0  0  0  0999 V2000
   26.7206  -20.4373  -16.6801 N   0  0  0  0  0  0  0  0  0  0  0  0
   26.8931  -21.1924  -15.4839 C   0  0  1  0  0  0  0  0  0  0  0  0
   28.3507  -21.5401  -15.3050 C   0  0  0  0  0  0  0  0  0  0  0  0
   28.7451  -22.3850  -16.4564 C   0  0  0  0  0  0  0  0  0  0  0  0
   29.7919  -22.0881  -17.0777 O   0  0  0  0  0  0  0  0  0  0  0  0
   26.2586  -20.6226  -14.2939 C   0  0  0  0  0  0  0  0  0  0  0  0
   26.9848  -19.9904  -13.4666 O   0  0  0  0  0  0  0  0  0  0  0  0
   28.0223  -23.4834  -16.8838 O   0  0  0  0  0  0  0  0  0  0  0  0
   22.8193  -20.0198  -12.8235 C   0  0  0  0  0  0  0  0  0  0  0  0
   24.3175  -20.0807  -12.7812 C   0  0  2  0  0  0  0  0  0  0  0  0
   24.8853  -20.7050  -13.9606 N   0  0  0  0  0  0  0  0  0  0  0  0
   24.8151  -20.7309  -11.5331 C   0  0  0  0  0  0  0  0  0  0  0  0
   24.8334  -21.9945  -11.4014 O   0  0  0  0  0  0  0  0  0  0  0  0
   25.2946  -19.9871  -10.4250 N   0  0  0  0  0  0  0  0  0  0  0  0
   25.6862  -20.5578   -9.1513 C   0  0  1  0  0  0  0  0  0  0  0  0
   26.6466  -19.7098   -8.3991 C   0  0  0  0  0  0  0  0  0  0  0  0
   27.1103  -20.2644   -7.1001 C   0  0  0  0  0  0  0  0  0  0  0  0
   26.7814  -21.5431   -6.6112 C   0  0  0  0  0  0  0  0  0  0  0  0
   27.3892  -21.7143   -5.4376 N   0  0  0  0  0  0  0  0  0  0  0  0
   28.1052  -20.6358   -5.1034 C   0  0  0  0  0  0  0  0  0  0  0  0
   28.8832  -20.3339   -4.0148 C   0  0  0  0  0  0  0  0  0  0  0  0
   29.5327  -19.1258   -3.8836 C   0  0  0  0  0  0  0  0  0  0  0  0
   29.3600  -18.2297   -4.9081 C   0  0  0  0  0  0  0  0  0  0  0  0
   28.5758  -18.5262   -6.0121 C   0  0  0  0  0  0  0  0  0  0  0  0
   27.9339  -19.7321   -6.1342 C   0  0  0  0  0  0  0  0  0  0  0  0
   24.5918  -21.1136   -8.3609 C   0  0  0  0  0  0  0  0  0  0  0  0
   24.7820  -22.2849   -7.6591 O   0  0  0  0  0  0  0  0  0  0  0  0
   23.4756  -20.5539   -8.3058 O   0  0  0  0  0  0  0  0  0  0  0  0
  2  1  1  6
  2  3  1  0
  4  3  1  0
  4  5  2  0
  6  2  1  0
  7  6  2  0
  8  4  1  0
 10  9  1  6
 10 12  1  0
 10 11  1  0
 11  6  1  0
 12 13  2  0
 14 15  1  0
 14 12  1  0
 15 16  1  1
 16 17  1  0
 17 25  1  0
 18 17  2  0
 18 19  1  0
 19 20  1  0
 20 21  1  0
 21 22  2  0
 23 22  1  0
 24 23  2  0
 25 20  2  0
 25 24  1  0
 26 27  1  0
 26 15  1  0
 28 26  2  0
M  END
$$$$
