PRY.pdb
     RDKit          3D

 31 32  0  0  1  0  0  0  0  0999 V2000
    8.8702  -13.5034   18.0156 N   0  0  0  0  0  0  0  0  0  0  0  0
    7.6443  -13.7902   17.3399 C   0  0  0  0  0  0  0  0  0  0  0  0
    6.6524  -12.8557   17.9876 C   0  0  0  0  0  0  0  0  0  0  0  0
    7.0730  -12.9791   19.4564 C   0  0  0  0  0  0  0  0  0  0  0  0
    8.5788  -13.2277   19.3870 C   0  0  1  0  0  0  0  0  0  0  0  0
    8.9434  -14.3687   20.2824 C   0  0  0  0  0  0  0  0  0  0  0  0
    8.6130  -14.3295   21.5136 O   0  0  0  0  0  0  0  0  0  0  0  0
   13.3993  -14.4824   17.9927 N   0  0  0  0  0  0  0  0  0  0  0  0
   14.4842  -15.0868   18.6804 C   0  0  0  0  0  0  0  0  0  0  0  0
   15.4683  -14.4022   19.1834 N   0  0  0  0  0  0  0  0  0  0  0  0
   14.5720  -16.5114   18.8715 N   0  0  0  0  0  0  0  0  0  0  0  0
   13.4132  -17.3176   19.1106 C   0  0  0  0  0  0  0  0  0  0  0  0
   12.3116  -16.5647   19.8531 C   0  0  0  0  0  0  0  0  0  0  0  0
   11.1069  -17.4013   20.0555 C   0  0  0  0  0  0  0  0  0  0  0  0
    9.9653  -16.6438   20.7284 C   0  0  2  0  0  0  0  0  0  0  0  0
    9.6403  -15.4989   19.8341 N   0  0  0  0  0  0  0  0  0  0  0  0
   10.3505  -16.1062   22.0327 C   0  0  0  0  0  0  0  0  0  0  0  0
   11.3144  -15.2889   22.0819 O   0  0  0  0  0  0  0  0  0  0  0  0
   16.2160  -14.9513   19.6643 O   0  0  0  0  0  0  0  0  0  0  0  0
   10.7683  -14.3855   30.8082 C   0  0  0  0  0  0  0  0  0  0  0  0
   10.3871  -14.6988   29.5163 C   0  0  0  0  0  0  0  0  0  0  0  0
   10.1731  -13.6808   28.6129 C   0  0  0  0  0  0  0  0  0  0  0  0
    9.7932  -13.9851   27.3234 C   0  0  0  0  0  0  0  0  0  0  0  0
    9.6049  -15.2631   26.8522 C   0  0  0  0  0  0  0  0  0  0  0  0
    9.2003  -15.4828   25.4685 C   0  0  1  0  0  0  0  0  0  0  0  0
   10.2710  -15.9628   24.5535 N   0  0  0  0  0  0  0  0  0  0  0  0
    9.7408  -16.4081   23.2810 C   0  0  0  0  0  0  0  0  0  0  0  0
   11.0885  -17.0369   25.1229 O   0  0  0  0  0  0  0  0  0  0  0  0
   10.8611  -18.2655   24.8988 C   0  0  0  0  0  0  0  0  0  0  0  0
    9.8260  -16.2773   27.7799 C   0  0  0  0  0  0  0  0  0  0  0  0
   10.2071  -15.9912   29.0762 O   0  0  0  0  0  0  0  0  0  0  0  0
  1  2  1  0
  3  2  1  0
  4  3  1  0
  5  4  1  0
  5  1  1  0
  6  7  2  0
  5  6  1  1
  9 11  1  0
  9  8  1  0
 10  9  2  0
 12 13  1  0
 12 11  1  0
 15 14  1  6
 14 13  1  0
 15 16  1  0
 16  6  1  0
 17 26  1  0
 17 15  1  0
 18 17  2  0
 20 19  1  0
 21 20  2  0
 22 21  1  0
 23 22  2  0
 23 29  1  0
 24 23  1  0
 25 24  1  6
 25 26  1  0
 27 31  1  0
 27 25  1  0
 28 27  2  0
 29 30  2  0
 30 20  1  0
M  END
$$$$
