PRY.pdb
     RDKit          3D

 31 32  0  0  1  0  0  0  0  0999 V2000
    9.2478  -13.8332   19.1088 N   0  0  0  0  0  0  0  0  0  0  0  0
    8.3758  -13.9323   17.9813 C   0  0  0  0  0  0  0  0  0  0  0  0
    7.4014  -12.7979   18.1826 C   0  0  0  0  0  0  0  0  0  0  0  0
    7.1527  -12.9099   19.6910 C   0  0  0  0  0  0  0  0  0  0  0  0
    8.4785  -13.4304   20.2436 C   0  0  1  0  0  0  0  0  0  0  0  0
    8.2225  -14.5647   21.1840 C   0  0  0  0  0  0  0  0  0  0  0  0
    7.3938  -14.4103   22.1412 O   0  0  0  0  0  0  0  0  0  0  0  0
    8.9482  -22.8895   23.2429 N   0  0  0  0  0  0  0  0  0  0  0  0
    8.6815  -22.7088   21.8604 C   0  0  0  0  0  0  0  0  0  0  0  0
    8.0450  -23.5882   21.1450 N   0  0  0  0  0  0  0  0  0  0  0  0
    9.0994  -21.5297   21.1470 N   0  0  0  0  0  0  0  0  0  0  0  0
    9.9466  -20.5421   21.7445 C   0  0  0  0  0  0  0  0  0  0  0  0
    9.1678  -19.3509   22.2977 C   0  0  0  0  0  0  0  0  0  0  0  0
    9.3291  -18.1432   21.4565 C   0  0  0  0  0  0  0  0  0  0  0  0
    8.6005  -16.9262   22.0204 C   0  0  2  0  0  0  0  0  0  0  0  0
    8.8544  -15.8102   21.0684 N   0  0  0  0  0  0  0  0  0  0  0  0
    9.1149  -16.5311   23.3310 C   0  0  0  0  0  0  0  0  0  0  0  0
   10.2751  -16.0312   23.3926 O   0  0  0  0  0  0  0  0  0  0  0  0
    7.9630  -23.3826   20.1239 O   0  0  0  0  0  0  0  0  0  0  0  0
    6.3267  -10.3623   25.5195 C   0  0  0  0  0  0  0  0  0  0  0  0
    6.7830  -11.6334   25.8177 C   0  0  0  0  0  0  0  0  0  0  0  0
    5.8706  -12.6489   26.0034 C   0  0  0  0  0  0  0  0  0  0  0  0
    6.3176  -13.9183   26.3006 C   0  0  0  0  0  0  0  0  0  0  0  0
    7.6425  -14.2626   26.4307 C   0  0  0  0  0  0  0  0  0  0  0  0
    8.0158  -15.6358   26.7492 C   0  0  2  0  0  0  0  0  0  0  0  0
    9.0164  -16.2579   25.8404 N   0  0  0  0  0  0  0  0  0  0  0  0
    8.4331  -16.6477   24.5731 C   0  0  0  0  0  0  0  0  0  0  0  0
    9.6926  -17.4198   26.4229 O   0  0  0  0  0  0  0  0  0  0  0  0
    9.5749  -18.5916   25.9491 C   0  0  0  0  0  0  0  0  0  0  0  0
    8.5484  -13.2230   26.2395 C   0  0  0  0  0  0  0  0  0  0  0  0
    8.1187  -11.9448   25.9410 O   0  0  0  0  0  0  0  0  0  0  0  0
  1  2  1  0
  3  2  1  0
  4  3  1  0
  5  4  1  0
  5  1  1  0
  6  7  2  0
  5  6  1  1
  9 11  1  0
  9  8  1  0
 10  9  2  0
 12 13  1  0
 12 11  1  0
 15 14  1  6
 14 13  1  0
 15 16  1  0
 16  6  1  0
 17 26  1  0
 17 15  1  0
 18 17  2  0
 20 19  1  0
 21 20  2  0
 22 21  1  0
 23 22  2  0
 23 29  1  0
 24 23  1  0
 25 24  1  6
 25 26  1  0
 27 31  1  0
 27 25  1  0
 28 27  2  0
 29 30  2  0
 30 20  1  0
M  END
$$$$
