PRY.pdb
     RDKit          3D

 31 32  0  0  1  0  0  0  0  0999 V2000
    8.8450  -14.7562   17.9093 N   0  0  0  0  0  0  0  0  0  0  0  0
    7.7542  -14.6606   16.9914 C   0  0  0  0  0  0  0  0  0  0  0  0
    7.3764  -13.2004   17.0367 C   0  0  0  0  0  0  0  0  0  0  0  0
    7.4832  -12.9326   18.5422 C   0  0  0  0  0  0  0  0  0  0  0  0
    8.5962  -13.8718   19.0036 C   0  0  1  0  0  0  0  0  0  0  0  0
    8.1615  -14.6032   20.2335 C   0  0  0  0  0  0  0  0  0  0  0  0
    7.8409  -13.9415   21.2757 O   0  0  0  0  0  0  0  0  0  0  0  0
    7.4307  -21.7687   23.3311 N   0  0  0  0  0  0  0  0  0  0  0  0
    6.2039  -21.3895   23.9364 C   0  0  0  0  0  0  0  0  0  0  0  0
    5.5391  -22.1737   24.7322 N   0  0  0  0  0  0  0  0  0  0  0  0
    5.6046  -20.0995   23.7109 N   0  0  0  0  0  0  0  0  0  0  0  0
    5.8997  -19.3190   22.5474 C   0  0  0  0  0  0  0  0  0  0  0  0
    7.3937  -19.0550   22.3753 C   0  0  0  0  0  0  0  0  0  0  0  0
    7.6748  -18.2038   21.1969 C   0  0  0  0  0  0  0  0  0  0  0  0
    7.5605  -16.7126   21.5018 C   0  0  2  0  0  0  0  0  0  0  0  0
    8.0854  -16.0007   20.3043 N   0  0  0  0  0  0  0  0  0  0  0  0
    8.3696  -16.3195   22.6548 C   0  0  0  0  0  0  0  0  0  0  0  0
    9.6251  -16.4504   22.5772 O   0  0  0  0  0  0  0  0  0  0  0  0
    4.6040  -21.8294   25.0466 O   0  0  0  0  0  0  0  0  0  0  0  0
   10.8461  -14.5897   31.0584 C   0  0  0  0  0  0  0  0  0  0  0  0
   10.1236  -14.7414   29.8889 C   0  0  0  0  0  0  0  0  0  0  0  0
   10.2122  -13.7725   28.9135 C   0  0  0  0  0  0  0  0  0  0  0  0
    9.4954  -13.9166   27.7452 C   0  0  0  0  0  0  0  0  0  0  0  0
    8.6734  -14.9833   27.4670 C   0  0  0  0  0  0  0  0  0  0  0  0
    7.9541  -15.0444   26.1999 C   0  0  1  0  0  0  0  0  0  0  0  0
    8.7176  -15.6066   25.0530 N   0  0  0  0  0  0  0  0  0  0  0  0
    7.8851  -15.7897   23.8819 C   0  0  0  0  0  0  0  0  0  0  0  0
    9.3826  -16.8756   25.3592 O   0  0  0  0  0  0  0  0  0  0  0  0
   10.6261  -16.9585   25.6005 C   0  0  0  0  0  0  0  0  0  0  0  0
    8.5974  -15.9512   28.4647 C   0  0  0  0  0  0  0  0  0  0  0  0
    9.3086  -15.8235   29.6417 O   0  0  0  0  0  0  0  0  0  0  0  0
  1  2  1  0
  3  2  1  0
  4  3  1  0
  5  4  1  0
  5  1  1  0
  6  7  2  0
  5  6  1  1
  9 11  1  0
  9  8  1  0
 10  9  2  0
 12 13  1  0
 12 11  1  0
 15 14  1  6
 14 13  1  0
 15 16  1  0
 16  6  1  0
 17 26  1  0
 17 15  1  0
 18 17  2  0
 20 19  1  0
 21 20  2  0
 22 21  1  0
 23 22  2  0
 23 29  1  0
 24 23  1  0
 25 24  1  6
 25 26  1  0
 27 31  1  0
 27 25  1  0
 28 27  2  0
 29 30  2  0
 30 20  1  0
M  END
$$$$
