PRY.pdb
     RDKit          3D

 31 32  0  0  1  0  0  0  0  0999 V2000
    9.2265  -14.1897   19.5118 N   0  0  0  0  0  0  0  0  0  0  0  0
    8.4471  -14.0167   18.3267 C   0  0  0  0  0  0  0  0  0  0  0  0
    7.9550  -12.5938   18.4274 C   0  0  0  0  0  0  0  0  0  0  0  0
    7.5956  -12.5291   19.9162 C   0  0  0  0  0  0  0  0  0  0  0  0
    8.5980  -13.4739   20.5768 C   0  0  1  0  0  0  0  0  0  0  0  0
    7.8842  -14.3838   21.5250 C   0  0  0  0  0  0  0  0  0  0  0  0
    7.0380  -13.8956   22.3450 O   0  0  0  0  0  0  0  0  0  0  0  0
    9.9777  -19.2267   18.0885 N   0  0  0  0  0  0  0  0  0  0  0  0
    8.6559  -19.3195   17.5792 C   0  0  0  0  0  0  0  0  0  0  0  0
    8.3865  -19.2802   16.3079 N   0  0  0  0  0  0  0  0  0  0  0  0
    7.5112  -19.4656   18.4408 N   0  0  0  0  0  0  0  0  0  0  0  0
    7.6279  -19.4427   19.8676 C   0  0  0  0  0  0  0  0  0  0  0  0
    7.4742  -18.0402   20.4514 C   0  0  0  0  0  0  0  0  0  0  0  0
    7.4300  -18.0567   21.9312 C   0  0  0  0  0  0  0  0  0  0  0  0
    7.4115  -16.6568   22.5395 C   0  0  2  0  0  0  0  0  0  0  0  0
    8.0979  -15.7683   21.5619 N   0  0  0  0  0  0  0  0  0  0  0  0
    8.1438  -16.5927   23.8036 C   0  0  0  0  0  0  0  0  0  0  0  0
    9.4029  -16.4806   23.7606 O   0  0  0  0  0  0  0  0  0  0  0  0
    7.3785  -19.3638   16.0455 O   0  0  0  0  0  0  0  0  0  0  0  0
    5.6743  -10.6097   25.4223 C   0  0  0  0  0  0  0  0  0  0  0  0
    6.1921  -11.8064   25.8831 C   0  0  0  0  0  0  0  0  0  0  0  0
    5.3460  -12.8774   26.0706 C   0  0  0  0  0  0  0  0  0  0  0  0
    5.8546  -14.0734   26.5293 C   0  0  0  0  0  0  0  0  0  0  0  0
    7.1803  -14.2895   26.8240 C   0  0  0  0  0  0  0  0  0  0  0  0
    7.6216  -15.5931   27.3062 C   0  0  2  0  0  0  0  0  0  0  0  0
    8.3492  -16.4327   26.3163 N   0  0  0  0  0  0  0  0  0  0  0  0
    7.5787  -16.6403   25.1073 C   0  0  0  0  0  0  0  0  0  0  0  0
    8.7560  -17.7377   26.8434 O   0  0  0  0  0  0  0  0  0  0  0  0
    8.3103  -18.8335   26.3829 C   0  0  0  0  0  0  0  0  0  0  0  0
    8.0188  -13.1956   26.6281 C   0  0  0  0  0  0  0  0  0  0  0  0
    7.5268  -11.9895   26.1690 O   0  0  0  0  0  0  0  0  0  0  0  0
  1  2  1  0
  3  2  1  0
  4  3  1  0
  5  4  1  0
  5  1  1  0
  6  7  2  0
  5  6  1  1
  9 11  1  0
  9  8  1  0
 10  9  2  0
 12 13  1  0
 12 11  1  0
 15 14  1  6
 14 13  1  0
 15 16  1  0
 16  6  1  0
 17 26  1  0
 17 15  1  0
 18 17  2  0
 20 19  1  0
 21 20  2  0
 22 21  1  0
 23 22  2  0
 23 29  1  0
 24 23  1  0
 25 24  1  6
 25 26  1  0
 27 31  1  0
 27 25  1  0
 28 27  2  0
 29 30  2  0
 30 20  1  0
M  END
$$$$
