PRY.pdb
     RDKit          3D

 31 32  0  0  1  0  0  0  0  0999 V2000
    8.7675  -14.8978   19.4200 N   0  0  0  0  0  0  0  0  0  0  0  0
    7.7925  -14.7378   18.3878 C   0  0  0  0  0  0  0  0  0  0  0  0
    7.4454  -13.2706   18.4489 C   0  0  0  0  0  0  0  0  0  0  0  0
    7.3836  -13.0628   19.9663 C   0  0  0  0  0  0  0  0  0  0  0  0
    8.4142  -14.0489   20.5137 C   0  0  1  0  0  0  0  0  0  0  0  0
    7.8237  -14.8140   21.6549 C   0  0  0  0  0  0  0  0  0  0  0  0
    7.3750  -14.1819   22.6677 O   0  0  0  0  0  0  0  0  0  0  0  0
    5.7722  -23.6072   22.3007 N   0  0  0  0  0  0  0  0  0  0  0  0
    5.1349  -22.9399   23.3794 C   0  0  0  0  0  0  0  0  0  0  0  0
    4.3586  -23.5501   24.2252 N   0  0  0  0  0  0  0  0  0  0  0  0
    5.3048  -21.5295   23.6157 N   0  0  0  0  0  0  0  0  0  0  0  0
    6.0901  -20.7043   22.7483 C   0  0  0  0  0  0  0  0  0  0  0  0
    6.2226  -19.2703   23.2559 C   0  0  0  0  0  0  0  0  0  0  0  0
    6.9262  -18.4008   22.2857 C   0  0  0  0  0  0  0  0  0  0  0  0
    7.0456  -16.9558   22.7626 C   0  0  2  0  0  0  0  0  0  0  0  0
    7.7346  -16.2125   21.6721 N   0  0  0  0  0  0  0  0  0  0  0  0
    7.8553  -16.8378   23.9746 C   0  0  0  0  0  0  0  0  0  0  0  0
    9.1136  -16.8951   23.8614 O   0  0  0  0  0  0  0  0  0  0  0  0
    3.9870  -22.9723   25.0125 O   0  0  0  0  0  0  0  0  0  0  0  0
    6.7694  -10.2624   25.0648 C   0  0  0  0  0  0  0  0  0  0  0  0
    7.0362  -11.4996   25.6224 C   0  0  0  0  0  0  0  0  0  0  0  0
    5.9934  -12.3669   25.8646 C   0  0  0  0  0  0  0  0  0  0  0  0
    6.2513  -13.6016   26.4198 C   0  0  0  0  0  0  0  0  0  0  0  0
    7.5051  -14.0508   26.7620 C   0  0  0  0  0  0  0  0  0  0  0  0
    7.6755  -15.3759   27.3466 C   0  0  2  0  0  0  0  0  0  0  0  0
    8.2303  -16.4142   26.4365 N   0  0  0  0  0  0  0  0  0  0  0  0
    7.3683  -16.6574   25.2980 C   0  0  0  0  0  0  0  0  0  0  0  0
    8.5002  -17.6911   27.1021 O   0  0  0  0  0  0  0  0  0  0  0  0
    7.9280  -18.7740   26.7682 C   0  0  0  0  0  0  0  0  0  0  0  0
    8.5450  -13.1602   26.5096 C   0  0  0  0  0  0  0  0  0  0  0  0
    8.3054  -11.9189   25.9537 O   0  0  0  0  0  0  0  0  0  0  0  0
  1  2  1  0
  3  2  1  0
  4  3  1  0
  5  4  1  0
  5  1  1  0
  6  7  2  0
  5  6  1  1
  9 11  1  0
  9  8  1  0
 10  9  2  0
 12 13  1  0
 12 11  1  0
 15 14  1  6
 14 13  1  0
 15 16  1  0
 16  6  1  0
 17 26  1  0
 17 15  1  0
 18 17  2  0
 20 19  1  0
 21 20  2  0
 22 21  1  0
 23 22  2  0
 23 29  1  0
 24 23  1  0
 25 24  1  6
 25 26  1  0
 27 31  1  0
 27 25  1  0
 28 27  2  0
 29 30  2  0
 30 20  1  0
M  END
$$$$
