PRY.pdb
     RDKit          3D

 31 32  0  0  1  0  0  0  0  0999 V2000
    9.3412  -13.7786   19.1064 N   0  0  0  0  0  0  0  0  0  0  0  0
    8.5674  -13.9767   17.9217 C   0  0  0  0  0  0  0  0  0  0  0  0
    7.4357  -12.9890   18.0650 C   0  0  0  0  0  0  0  0  0  0  0  0
    7.1055  -13.1590   19.5522 C   0  0  0  0  0  0  0  0  0  0  0  0
    8.4506  -13.5032   20.1894 C   0  0  1  0  0  0  0  0  0  0  0  0
    8.2908  -14.6774   21.1018 C   0  0  0  0  0  0  0  0  0  0  0  0
    7.3522  -14.6768   21.9653 O   0  0  0  0  0  0  0  0  0  0  0  0
    9.6654  -21.7267   24.1179 N   0  0  0  0  0  0  0  0  0  0  0  0
    9.7691  -22.3049   22.8256 C   0  0  0  0  0  0  0  0  0  0  0  0
    9.3724  -23.5144   22.5611 N   0  0  0  0  0  0  0  0  0  0  0  0
   10.3246  -21.5873   21.7074 N   0  0  0  0  0  0  0  0  0  0  0  0
   10.9194  -20.2934   21.8562 C   0  0  0  0  0  0  0  0  0  0  0  0
    9.9293  -19.2401   22.3478 C   0  0  0  0  0  0  0  0  0  0  0  0
    9.9708  -18.0114   21.5228 C   0  0  0  0  0  0  0  0  0  0  0  0
    8.9621  -16.9589   21.9754 C   0  0  2  0  0  0  0  0  0  0  0  0
    9.1308  -15.7982   21.0585 N   0  0  0  0  0  0  0  0  0  0  0  0
    9.2157  -16.4999   23.3405 C   0  0  0  0  0  0  0  0  0  0  0  0
   10.2559  -15.8140   23.5575 O   0  0  0  0  0  0  0  0  0  0  0  0
    9.5299  -23.8501   21.5843 O   0  0  0  0  0  0  0  0  0  0  0  0
    6.0050  -10.3521   26.2822 C   0  0  0  0  0  0  0  0  0  0  0  0
    6.4077  -11.6733   26.3523 C   0  0  0  0  0  0  0  0  0  0  0  0
    5.4758  -12.6710   26.1670 C   0  0  0  0  0  0  0  0  0  0  0  0
    5.8694  -13.9900   26.2351 C   0  0  0  0  0  0  0  0  0  0  0  0
    7.1580  -14.4024   26.4810 C   0  0  0  0  0  0  0  0  0  0  0  0
    7.4754  -15.8247   26.5353 C   0  0  2  0  0  0  0  0  0  0  0  0
    8.7007  -16.2391   25.7997 N   0  0  0  0  0  0  0  0  0  0  0  0
    8.3969  -16.7446   24.4767 C   0  0  0  0  0  0  0  0  0  0  0  0
    9.5001  -17.2390   26.5120 O   0  0  0  0  0  0  0  0  0  0  0  0
    9.5685  -18.4522   26.1446 C   0  0  0  0  0  0  0  0  0  0  0  0
    8.0844  -13.3797   26.6654 C   0  0  0  0  0  0  0  0  0  0  0  0
    7.7081  -12.0525   26.6005 O   0  0  0  0  0  0  0  0  0  0  0  0
  1  2  1  0
  3  2  1  0
  4  3  1  0
  5  4  1  0
  5  1  1  0
  6  7  2  0
  5  6  1  1
  9 11  1  0
  9  8  1  0
 10  9  2  0
 12 13  1  0
 12 11  1  0
 15 14  1  6
 14 13  1  0
 15 16  1  0
 16  6  1  0
 17 26  1  0
 17 15  1  0
 18 17  2  0
 20 19  1  0
 21 20  2  0
 22 21  1  0
 23 22  2  0
 23 29  1  0
 24 23  1  0
 25 24  1  6
 25 26  1  0
 27 31  1  0
 27 25  1  0
 28 27  2  0
 29 30  2  0
 30 20  1  0
M  END
$$$$
