PRY.pdb
     RDKit          3D

 31 32  0  0  1  0  0  0  0  0999 V2000
    9.0377  -14.0400   19.2045 N   0  0  0  0  0  0  0  0  0  0  0  0
    8.2761  -13.8798   18.0061 C   0  0  0  0  0  0  0  0  0  0  0  0
    7.8115  -12.4454   18.0674 C   0  0  0  0  0  0  0  0  0  0  0  0
    7.4357  -12.3385   19.5496 C   0  0  0  0  0  0  0  0  0  0  0  0
    8.4110  -13.2870   20.2446 C   0  0  1  0  0  0  0  0  0  0  0  0
    7.6678  -14.1600   21.2049 C   0  0  0  0  0  0  0  0  0  0  0  0
    6.8892  -13.6268   22.0629 O   0  0  0  0  0  0  0  0  0  0  0  0
    9.6684  -21.2023   22.0032 N   0  0  0  0  0  0  0  0  0  0  0  0
    9.9556  -20.9233   20.6413 C   0  0  0  0  0  0  0  0  0  0  0  0
   11.0957  -21.2136   20.0879 N   0  0  0  0  0  0  0  0  0  0  0  0
    8.9972  -20.2947   19.7693 N   0  0  0  0  0  0  0  0  0  0  0  0
    7.7991  -19.6905   20.2688 C   0  0  0  0  0  0  0  0  0  0  0  0
    8.0566  -18.3607   20.9736 C   0  0  0  0  0  0  0  0  0  0  0  0
    6.8059  -17.7470   21.4750 C   0  0  0  0  0  0  0  0  0  0  0  0
    7.0407  -16.4132   22.1791 C   0  0  2  0  0  0  0  0  0  0  0  0
    7.7820  -15.5567   21.2131 N   0  0  0  0  0  0  0  0  0  0  0  0
    7.8618  -16.5583   23.3804 C   0  0  0  0  0  0  0  0  0  0  0  0
    7.5230  -17.4266   24.2354 O   0  0  0  0  0  0  0  0  0  0  0  0
   11.2083  -20.9364   19.0868 O   0  0  0  0  0  0  0  0  0  0  0  0
    6.4826  -10.3817   26.2123 C   0  0  0  0  0  0  0  0  0  0  0  0
    6.9760  -11.6737   26.2100 C   0  0  0  0  0  0  0  0  0  0  0  0
    8.1505  -11.9436   25.5423 C   0  0  0  0  0  0  0  0  0  0  0  0
    8.6487  -13.2286   25.5357 C   0  0  0  0  0  0  0  0  0  0  0  0
    8.0483  -14.2958   26.1615 C   0  0  0  0  0  0  0  0  0  0  0  0
    8.6539  -15.6207   26.0956 C   0  0  2  0  0  0  0  0  0  0  0  0
    9.6483  -15.8201   25.0067 N   0  0  0  0  0  0  0  0  0  0  0  0
    9.0303  -15.8128   23.6966 C   0  0  0  0  0  0  0  0  0  0  0  0
   10.4322  -17.0496   25.1489 O   0  0  0  0  0  0  0  0  0  0  0  0
   10.5260  -17.9149   24.2248 C   0  0  0  0  0  0  0  0  0  0  0  0
    6.8630  -14.0026   26.8303 C   0  0  0  0  0  0  0  0  0  0  0  0
    6.3490  -12.7208   26.8477 O   0  0  0  0  0  0  0  0  0  0  0  0
  1  2  1  0
  3  2  1  0
  4  3  1  0
  5  4  1  0
  5  1  1  0
  6  7  2  0
  5  6  1  1
  9 11  1  0
  9  8  1  0
 10  9  2  0
 12 13  1  0
 12 11  1  0
 15 14  1  6
 14 13  1  0
 15 16  1  0
 16  6  1  0
 17 26  1  0
 17 15  1  0
 18 17  2  0
 20 19  1  0
 21 20  2  0
 22 21  1  0
 23 22  2  0
 23 29  1  0
 24 23  1  0
 25 24  1  6
 25 26  1  0
 27 31  1  0
 27 25  1  0
 28 27  2  0
 29 30  2  0
 30 20  1  0
M  END
$$$$
