AAK.pdb
     RDKit          3D

 20 19  0  0  1  0  0  0  0  0999 V2000
    6.5954  -18.4903   18.2805 C   0  0  0  0  0  0  0  0  0  0  0  0
    7.1340  -17.1505   17.8245 C   0  0  2  0  0  0  0  0  0  0  0  0
    7.9378  -17.3691   16.6520 N   0  0  0  0  0  0  0  0  0  0  0  0
    7.9184  -16.5459   18.9362 C   0  0  0  0  0  0  0  0  0  0  0  0
    9.0988  -16.9343   19.0986 O   0  0  0  0  0  0  0  0  0  0  0  0
    7.3295  -13.7166   21.4059 C   0  0  0  0  0  0  0  0  0  0  0  0
    8.0792  -14.8550   20.7641 C   0  0  2  0  0  0  0  0  0  0  0  0
    7.3320  -15.5631   19.7745 N   0  0  0  0  0  0  0  0  0  0  0  0
    8.5867  -15.8299   21.7757 C   0  0  0  0  0  0  0  0  0  0  0  0
    7.9181  -16.8049   22.1934 O   0  0  0  0  0  0  0  0  0  0  0  0
    9.8939  -15.6887   22.3264 N   0  0  0  0  0  0  0  0  0  0  0  0
   10.3913  -16.6328   23.3437 C   0  0  1  0  0  0  0  0  0  0  0  0
   11.7336  -17.1160   22.9278 C   0  0  0  0  0  0  0  0  0  0  0  0
   12.4255  -18.0622   23.8325 C   0  0  0  0  0  0  0  0  0  0  0  0
   13.7352  -18.6038   23.4015 C   0  0  0  0  0  0  0  0  0  0  0  0
   14.3460  -19.5503   24.4221 C   0  0  0  0  0  0  0  0  0  0  0  0
   15.5642  -20.1337   23.9102 N   0  0  0  0  0  0  0  0  0  0  0  0
   10.2711  -16.0293   24.6623 C   0  0  0  0  0  0  0  0  0  0  0  0
   10.3365  -16.8509   25.8114 O   0  0  0  0  0  0  0  0  0  0  0  0
   10.1111  -14.8153   24.9074 O   0  0  0  0  0  0  0  0  0  0  0  0
  2  1  1  1
  2  3  1  0
  4  5  2  0
  4  2  1  0
  7  6  1  1
  7  8  1  0
  8  4  1  0
  9 10  2  0
  9  7  1  0
 11  9  1  0
 12 13  1  6
 12 11  1  0
 13 14  1  0
 14 15  1  0
 15 16  1  0
 16 17  1  0
 18 12  1  0
 19 18  1  0
 20 18  2  0
M  END
$$$$
