AAK.pdb
     RDKit          3D

 20 19  0  0  1  0  0  0  0  0999 V2000
    7.7254  -16.8523   15.4485 C   0  0  0  0  0  0  0  0  0  0  0  0
    7.7773  -15.3436   15.3285 C   0  0  2  0  0  0  0  0  0  0  0  0
    8.3153  -15.0178   14.0351 N   0  0  0  0  0  0  0  0  0  0  0  0
    8.6140  -14.8033   16.4351 C   0  0  0  0  0  0  0  0  0  0  0  0
    9.8567  -14.9424   16.3511 O   0  0  0  0  0  0  0  0  0  0  0  0
    7.9591  -12.7103   19.5366 C   0  0  0  0  0  0  0  0  0  0  0  0
    8.7672  -13.5677   18.5975 C   0  0  2  0  0  0  0  0  0  0  0  0
    8.0067  -14.1550   17.5412 N   0  0  0  0  0  0  0  0  0  0  0  0
    9.5032  -14.6476   19.3211 C   0  0  0  0  0  0  0  0  0  0  0  0
    9.0699  -15.8176   19.4444 O   0  0  0  0  0  0  0  0  0  0  0  0
   10.7694  -14.3853   19.9209 N   0  0  0  0  0  0  0  0  0  0  0  0
   11.5351  -15.4639   20.5721 C   0  0  1  0  0  0  0  0  0  0  0  0
   12.9785  -15.1124   20.5332 C   0  0  0  0  0  0  0  0  0  0  0  0
   13.6091  -14.9772   19.2003 C   0  0  0  0  0  0  0  0  0  0  0  0
   15.0150  -14.5141   19.1407 C   0  0  0  0  0  0  0  0  0  0  0  0
   15.4683  -14.1878   17.7270 C   0  0  0  0  0  0  0  0  0  0  0  0
   16.8045  -13.6391   17.7347 N   0  0  0  0  0  0  0  0  0  0  0  0
   10.9477  -15.7571   21.8706 C   0  0  0  0  0  0  0  0  0  0  0  0
   11.3263  -16.9353   22.5548 O   0  0  0  0  0  0  0  0  0  0  0  0
   10.1115  -15.0564   22.4784 O   0  0  0  0  0  0  0  0  0  0  0  0
  2  1  1  1
  2  3  1  0
  4  5  2  0
  4  2  1  0
  7  6  1  1
  7  8  1  0
  8  4  1  0
  9 10  2  0
  9  7  1  0
 11  9  1  0
 12 13  1  1
 12 11  1  0
 13 14  1  0
 14 15  1  0
 15 16  1  0
 16 17  1  0
 18 12  1  0
 19 18  1  0
 20 18  2  0
M  END
$$$$
