AAK.pdb
     RDKit          3D

 20 19  0  0  1  0  0  0  0  0999 V2000
   10.9082  -23.3327   17.9996 C   0  0  0  0  0  0  0  0  0  0  0  0
   11.2759  -23.1951   19.4622 C   0  0  2  0  0  0  0  0  0  0  0  0
   10.0579  -23.1504   20.2256 N   0  0  0  0  0  0  0  0  0  0  0  0
   12.0918  -21.9621   19.6372 C   0  0  0  0  0  0  0  0  0  0  0  0
   13.2496  -21.9532   19.1575 O   0  0  0  0  0  0  0  0  0  0  0  0
   11.7687  -18.4068   20.0239 C   0  0  0  0  0  0  0  0  0  0  0  0
   12.3330  -19.6760   20.6077 C   0  0  2  0  0  0  0  0  0  0  0  0
   11.5592  -20.8430   20.3276 N   0  0  0  0  0  0  0  0  0  0  0  0
   12.5319  -19.5710   22.0844 C   0  0  0  0  0  0  0  0  0  0  0  0
   11.6788  -19.0860   22.8648 O   0  0  0  0  0  0  0  0  0  0  0  0
   13.7380  -20.0325   22.6880 N   0  0  0  0  0  0  0  0  0  0  0  0
   13.8737  -20.0934   24.1548 C   0  0  1  0  0  0  0  0  0  0  0  0
   12.7909  -20.9547   24.6970 C   0  0  0  0  0  0  0  0  0  0  0  0
   12.9285  -22.4171   24.5107 C   0  0  0  0  0  0  0  0  0  0  0  0
   11.8696  -23.2910   25.0670 C   0  0  0  0  0  0  0  0  0  0  0  0
   12.1775  -24.7700   24.8985 C   0  0  0  0  0  0  0  0  0  0  0  0
   11.0957  -25.5771   25.4131 N   0  0  0  0  0  0  0  0  0  0  0  0
   15.2449  -20.4379   24.4990 C   0  0  0  0  0  0  0  0  0  0  0  0
   15.6577  -20.3810   25.8503 O   0  0  0  0  0  0  0  0  0  0  0  0
   16.1388  -20.7953   23.7035 O   0  0  0  0  0  0  0  0  0  0  0  0
  2  1  1  6
  2  3  1  0
  4  5  2  0
  4  2  1  0
  7  6  1  1
  7  8  1  0
  8  4  1  0
  9 10  2  0
  9  7  1  0
 11  9  1  0
 12 13  1  6
 12 11  1  0
 13 14  1  0
 14 15  1  0
 15 16  1  0
 16 17  1  0
 18 12  1  0
 19 18  1  0
 20 18  2  0
M  END
$$$$
