AAK.pdb
     RDKit          3D

 20 19  0  0  1  0  0  0  0  0999 V2000
    8.1086  -18.1653   17.6208 C   0  0  0  0  0  0  0  0  0  0  0  0
    7.3176  -17.8575   18.8748 C   0  0  2  0  0  0  0  0  0  0  0  0
    5.9661  -17.5555   18.4864 N   0  0  0  0  0  0  0  0  0  0  0  0
    7.9646  -16.7183   19.5821 C   0  0  0  0  0  0  0  0  0  0  0  0
    9.1262  -16.8859   20.0218 O   0  0  0  0  0  0  0  0  0  0  0  0
    7.0909  -13.0901   20.2708 C   0  0  0  0  0  0  0  0  0  0  0  0
    7.8222  -14.3918   20.4727 C   0  0  2  0  0  0  0  0  0  0  0  0
    7.2733  -15.4901   19.7437 N   0  0  0  0  0  0  0  0  0  0  0  0
    7.9088  -14.7653   21.9165 C   0  0  0  0  0  0  0  0  0  0  0  0
    6.9123  -14.8352   22.6742 O   0  0  0  0  0  0  0  0  0  0  0  0
    9.1678  -15.0675   22.5127 N   0  0  0  0  0  0  0  0  0  0  0  0
    9.2485  -15.5559   23.9015 C   0  0  1  0  0  0  0  0  0  0  0  0
    8.3387  -16.7216   24.0490 C   0  0  0  0  0  0  0  0  0  0  0  0
    8.3555  -17.4368   25.3454 C   0  0  0  0  0  0  0  0  0  0  0  0
    7.4724  -18.6161   25.4997 C   0  0  0  0  0  0  0  0  0  0  0  0
    7.4860  -19.1818   26.9106 C   0  0  0  0  0  0  0  0  0  0  0  0
    6.6309  -20.3423   27.0021 N   0  0  0  0  0  0  0  0  0  0  0  0
   10.6444  -15.7400   24.2683 C   0  0  0  0  0  0  0  0  0  0  0  0
   11.6467  -15.6030   23.2803 O   0  0  0  0  0  0  0  0  0  0  0  0
   11.0792  -16.0158   25.4061 O   0  0  0  0  0  0  0  0  0  0  0  0
  2  1  1  6
  2  3  1  0
  4  5  2  0
  4  2  1  0
  7  6  1  1
  7  8  1  0
  8  4  1  0
  9 10  2  0
  9  7  1  0
 11  9  1  0
 12 13  1  6
 12 11  1  0
 13 14  1  0
 14 15  1  0
 15 16  1  0
 16 17  1  0
 18 12  1  0
 19 18  1  0
 20 18  2  0
M  END
$$$$
