AAK.pdb
     RDKit          3D

 20 19  0  0  1  0  0  0  0  0999 V2000
    7.3717  -16.4743   15.5550 C   0  0  0  0  0  0  0  0  0  0  0  0
    8.0007  -15.1001   15.4594 C   0  0  2  0  0  0  0  0  0  0  0  0
    8.9587  -15.1221   14.3869 N   0  0  0  0  0  0  0  0  0  0  0  0
    8.6316  -14.7698   16.7669 C   0  0  0  0  0  0  0  0  0  0  0  0
    9.8072  -15.1567   16.9640 O   0  0  0  0  0  0  0  0  0  0  0  0
    7.6285  -12.7514   19.8275 C   0  0  0  0  0  0  0  0  0  0  0  0
    8.4663  -13.7074   19.0186 C   0  0  2  0  0  0  0  0  0  0  0  0
    7.9099  -14.0398   17.7462 N   0  0  0  0  0  0  0  0  0  0  0  0
    8.7519  -14.9690   19.7656 C   0  0  0  0  0  0  0  0  0  0  0  0
    8.0059  -15.9762   19.7336 O   0  0  0  0  0  0  0  0  0  0  0  0
    9.9217  -15.0849   20.5718 N   0  0  0  0  0  0  0  0  0  0  0  0
   10.2512  -16.3534   21.2474 C   0  0  1  0  0  0  0  0  0  0  0  0
   11.5912  -16.8024   20.7879 C   0  0  0  0  0  0  0  0  0  0  0  0
   12.1199  -18.0607   21.3622 C   0  0  0  0  0  0  0  0  0  0  0  0
   13.4726  -18.4992   20.9472 C   0  0  0  0  0  0  0  0  0  0  0  0
   13.8200  -19.8917   21.4482 C   0  0  0  0  0  0  0  0  0  0  0  0
   15.0894  -20.3239   20.9112 N   0  0  0  0  0  0  0  0  0  0  0  0
   10.0449  -16.2052   22.6801 C   0  0  0  0  0  0  0  0  0  0  0  0
    9.8698  -14.9131   23.2272 O   0  0  0  0  0  0  0  0  0  0  0  0
   10.0012  -17.1287   23.5196 O   0  0  0  0  0  0  0  0  0  0  0  0
  2  1  1  1
  2  3  1  0
  4  5  2  0
  4  2  1  0
  7  6  1  1
  7  8  1  0
  8  4  1  0
  9 10  2  0
  9  7  1  0
 11  9  1  0
 12 13  1  1
 12 11  1  0
 13 14  1  0
 14 15  1  0
 15 16  1  0
 16 17  1  0
 18 12  1  0
 19 18  1  0
 20 18  2  0
M  END
$$$$
