AAK.pdb
     RDKit          3D

 20 19  0  0  1  0  0  0  0  0999 V2000
    9.0061  -17.1442   17.0724 C   0  0  0  0  0  0  0  0  0  0  0  0
    8.9228  -17.2191   18.5826 C   0  0  2  0  0  0  0  0  0  0  0  0
    7.6811  -17.8566   18.9293 N   0  0  0  0  0  0  0  0  0  0  0  0
    9.0182  -15.8406   19.1368 C   0  0  0  0  0  0  0  0  0  0  0  0
   10.1322  -15.2681   19.0938 O   0  0  0  0  0  0  0  0  0  0  0  0
    6.7360  -13.0661   20.1087 C   0  0  0  0  0  0  0  0  0  0  0  0
    7.9385  -13.9427   20.3444 C   0  0  2  0  0  0  0  0  0  0  0  0
    7.8743  -15.2112   19.6918 N   0  0  0  0  0  0  0  0  0  0  0  0
    8.1938  -14.1606   21.8000 C   0  0  0  0  0  0  0  0  0  0  0  0
    7.3914  -13.8213   22.7017 O   0  0  0  0  0  0  0  0  0  0  0  0
    9.3985  -14.7831   22.2393 N   0  0  0  0  0  0  0  0  0  0  0  0
    9.4563  -15.4890   23.5325 C   0  0  1  0  0  0  0  0  0  0  0  0
    8.3427  -16.4713   23.5879 C   0  0  0  0  0  0  0  0  0  0  0  0
    8.3378  -17.4299   24.7165 C   0  0  0  0  0  0  0  0  0  0  0  0
    7.2582  -18.4432   24.7626 C   0  0  0  0  0  0  0  0  0  0  0  0
    7.2882  -19.2785   26.0323 C   0  0  0  0  0  0  0  0  0  0  0  0
    6.1126  -20.1131   26.1205 N   0  0  0  0  0  0  0  0  0  0  0  0
   10.8058  -15.9872   23.7507 C   0  0  0  0  0  0  0  0  0  0  0  0
   11.6596  -16.1908   22.6419 O   0  0  0  0  0  0  0  0  0  0  0  0
   11.3208  -16.2670   24.8535 O   0  0  0  0  0  0  0  0  0  0  0  0
  2  1  1  6
  2  3  1  0
  4  5  2  0
  4  2  1  0
  7  6  1  1
  7  8  1  0
  8  4  1  0
  9 10  2  0
  9  7  1  0
 11  9  1  0
 12 13  1  6
 12 11  1  0
 13 14  1  0
 14 15  1  0
 15 16  1  0
 16 17  1  0
 18 12  1  0
 19 18  1  0
 20 18  2  0
M  END
$$$$
