AAK.pdb
     RDKit          3D

 20 19  0  0  1  0  0  0  0  0999 V2000
    7.1760  -19.4774   18.6709 C   0  0  0  0  0  0  0  0  0  0  0  0
    7.4277  -19.2854   20.1517 C   0  0  2  0  0  0  0  0  0  0  0  0
    6.2474  -18.7042   20.7327 N   0  0  0  0  0  0  0  0  0  0  0  0
    8.6237  -18.4159   20.3258 C   0  0  0  0  0  0  0  0  0  0  0  0
    9.7398  -18.8833   19.9995 O   0  0  0  0  0  0  0  0  0  0  0  0
    9.3075  -14.7938   20.5969 C   0  0  0  0  0  0  0  0  0  0  0  0
    9.5951  -16.2177   20.9970 C   0  0  2  0  0  0  0  0  0  0  0  0
    8.4851  -17.1032   20.8456 N   0  0  0  0  0  0  0  0  0  0  0  0
   10.1009  -16.3122   22.3993 C   0  0  0  0  0  0  0  0  0  0  0  0
    9.4199  -15.9960   23.4034 O   0  0  0  0  0  0  0  0  0  0  0  0
   11.4209  -16.7806   22.6637 N   0  0  0  0  0  0  0  0  0  0  0  0
   11.9149  -16.9074   24.0471 C   0  0  1  0  0  0  0  0  0  0  0  0
   11.5866  -18.2681   24.5462 C   0  0  0  0  0  0  0  0  0  0  0  0
   11.9950  -18.6010   25.9300 C   0  0  0  0  0  0  0  0  0  0  0  0
   11.7600  -19.9825   26.4103 C   0  0  0  0  0  0  0  0  0  0  0  0
   12.2961  -20.2177   27.8131 C   0  0  0  0  0  0  0  0  0  0  0  0
   11.9813  -21.5544   28.2610 N   0  0  0  0  0  0  0  0  0  0  0  0
   13.3066  -16.4867   24.1033 C   0  0  0  0  0  0  0  0  0  0  0  0
   13.9895  -16.1811   22.9033 O   0  0  0  0  0  0  0  0  0  0  0  0
   13.9982  -16.3571   25.1351 O   0  0  0  0  0  0  0  0  0  0  0  0
  2  1  1  6
  2  3  1  0
  4  5  2  0
  4  2  1  0
  7  6  1  1
  7  8  1  0
  8  4  1  0
  9 10  2  0
  9  7  1  0
 11  9  1  0
 12 13  1  6
 12 11  1  0
 13 14  1  0
 14 15  1  0
 15 16  1  0
 16 17  1  0
 18 12  1  0
 19 18  1  0
 20 18  2  0
M  END
$$$$
