AAK.pdb
     RDKit          3D

 20 19  0  0  1  0  0  0  0  0999 V2000
   -0.9544  -20.9126   17.9902 C   0  0  0  0  0  0  0  0  0  0  0  0
   -0.7951  -21.9308   19.0997 C   0  0  2  0  0  0  0  0  0  0  0  0
   -2.0849  -22.1407   19.7004 N   0  0  0  0  0  0  0  0  0  0  0  0
    0.2023  -21.4195   20.0797 C   0  0  0  0  0  0  0  0  0  0  0  0
    1.4130  -21.4610   19.7585 O   0  0  0  0  0  0  0  0  0  0  0  0
    0.0327  -19.3726   23.2440 C   0  0  0  0  0  0  0  0  0  0  0  0
    0.6830  -20.3157   22.2653 C   0  0  2  0  0  0  0  0  0  0  0  0
   -0.2225  -20.9056   21.3319 N   0  0  0  0  0  0  0  0  0  0  0  0
    1.4406  -21.4020   22.9560 C   0  0  0  0  0  0  0  0  0  0  0  0
    2.3733  -21.1881   23.7661 O   0  0  0  0  0  0  0  0  0  0  0  0
    1.1254  -22.7713   22.7158 N   0  0  0  0  0  0  0  0  0  0  0  0
    1.8445  -23.8475   23.4220 C   0  0  1  0  0  0  0  0  0  0  0  0
    0.8692  -24.6123   24.2418 C   0  0  0  0  0  0  0  0  0  0  0  0
    1.0952  -24.6523   25.7046 C   0  0  0  0  0  0  0  0  0  0  0  0
    0.1030  -25.3663   26.5415 C   0  0  0  0  0  0  0  0  0  0  0  0
    0.4194  -25.2880   28.0262 C   0  0  0  0  0  0  0  0  0  0  0  0
   -0.5763  -25.9958   28.7970 N   0  0  0  0  0  0  0  0  0  0  0  0
    2.6550  -24.5919   22.4702 C   0  0  0  0  0  0  0  0  0  0  0  0
    2.6104  -24.2470   21.0995 O   0  0  0  0  0  0  0  0  0  0  0  0
    3.4209  -25.5419   22.7360 O   0  0  0  0  0  0  0  0  0  0  0  0
  2  1  1  6
  2  3  1  0
  4  5  2  0
  4  2  1  0
  7  6  1  1
  7  8  1  0
  8  4  1  0
  9 10  2  0
  9  7  1  0
 11  9  1  0
 12 13  1  6
 12 11  1  0
 13 14  1  0
 14 15  1  0
 15 16  1  0
 16 17  1  0
 18 12  1  0
 19 18  1  0
 20 18  2  0
M  END
$$$$
