AAK.pdb
     RDKit          3D

 20 19  0  0  1  0  0  0  0  0999 V2000
   -5.6336  -27.0701   23.6372 C   0  0  0  0  0  0  0  0  0  0  0  0
   -5.7290  -25.6287   24.0918 C   0  0  2  0  0  0  0  0  0  0  0  0
   -4.4435  -25.0140   23.8968 N   0  0  0  0  0  0  0  0  0  0  0  0
   -6.1509  -25.6034   25.5193 C   0  0  0  0  0  0  0  0  0  0  0  0
   -7.3104  -25.9916   25.7941 O   0  0  0  0  0  0  0  0  0  0  0  0
   -4.4193  -25.1636   28.8403 C   0  0  0  0  0  0  0  0  0  0  0  0
   -5.6024  -25.1340   27.9078 C   0  0  2  0  0  0  0  0  0  0  0  0
   -5.2558  -25.1511   26.5227 N   0  0  0  0  0  0  0  0  0  0  0  0
   -6.4901  -23.9615   28.1694 C   0  0  0  0  0  0  0  0  0  0  0  0
   -6.3127  -22.8312   27.6568 O   0  0  0  0  0  0  0  0  0  0  0  0
   -7.6122  -24.0819   29.0403 N   0  0  0  0  0  0  0  0  0  0  0  0
   -8.5094  -22.9367   29.2796 C   0  0  1  0  0  0  0  0  0  0  0  0
   -9.8021  -23.4474   29.8054 C   0  0  0  0  0  0  0  0  0  0  0  0
  -10.6150  -24.2949   28.9036 C   0  0  0  0  0  0  0  0  0  0  0  0
  -11.8700  -24.8731   29.4377 C   0  0  0  0  0  0  0  0  0  0  0  0
  -12.5294  -25.8438   28.4715 C   0  0  0  0  0  0  0  0  0  0  0  0
  -13.7334  -26.3963   29.0473 N   0  0  0  0  0  0  0  0  0  0  0  0
   -7.8110  -21.9325   30.0675 C   0  0  0  0  0  0  0  0  0  0  0  0
   -8.1815  -20.5731   29.9472 O   0  0  0  0  0  0  0  0  0  0  0  0
   -6.8815  -22.1418   30.8749 O   0  0  0  0  0  0  0  0  0  0  0  0
  2  1  1  1
  2  3  1  0
  4  5  2  0
  4  2  1  0
  7  6  1  1
  7  8  1  0
  8  4  1  0
  9 10  2  0
  9  7  1  0
 11  9  1  0
 12 13  1  1
 12 11  1  0
 13 14  1  0
 14 15  1  0
 15 16  1  0
 16 17  1  0
 18 12  1  0
 19 18  1  0
 20 18  2  0
M  END
$$$$
