AAK.pdb
     RDKit          3D

 20 19  0  0  1  0  0  0  0  0999 V2000
    7.3000  -16.5466   16.5180 C   0  0  0  0  0  0  0  0  0  0  0  0
    7.9843  -15.2022   16.3863 C   0  0  2  0  0  0  0  0  0  0  0  0
    8.9852  -15.3104   15.3592 N   0  0  0  0  0  0  0  0  0  0  0  0
    8.5716  -14.8323   17.7035 C   0  0  0  0  0  0  0  0  0  0  0  0
    9.6789  -15.3319   18.0119 O   0  0  0  0  0  0  0  0  0  0  0  0
    7.6469  -12.4053   20.4803 C   0  0  0  0  0  0  0  0  0  0  0  0
    8.4437  -13.4901   19.8031 C   0  0  2  0  0  0  0  0  0  0  0  0
    7.8856  -13.9416   18.5687 N   0  0  0  0  0  0  0  0  0  0  0  0
    8.6556  -14.6679   20.6970 C   0  0  0  0  0  0  0  0  0  0  0  0
    7.8629  -15.6370   20.7645 O   0  0  0  0  0  0  0  0  0  0  0  0
    9.8043  -14.7424   21.5378 N   0  0  0  0  0  0  0  0  0  0  0  0
   10.1242  -15.9801   22.2723 C   0  0  1  0  0  0  0  0  0  0  0  0
   10.3142  -17.0796   21.2908 C   0  0  0  0  0  0  0  0  0  0  0  0
   10.6163  -18.4257   21.8286 C   0  0  0  0  0  0  0  0  0  0  0  0
   10.8506  -19.5235   20.8618 C   0  0  0  0  0  0  0  0  0  0  0  0
   11.1329  -20.8547   21.5392 C   0  0  0  0  0  0  0  0  0  0  0  0
   11.3710  -21.8858   20.5560 N   0  0  0  0  0  0  0  0  0  0  0  0
   11.2060  -15.7194   23.2098 C   0  0  0  0  0  0  0  0  0  0  0  0
   11.2864  -16.4709   24.4049 O   0  0  0  0  0  0  0  0  0  0  0  0
   12.1129  -14.8716   23.0742 O   0  0  0  0  0  0  0  0  0  0  0  0
  2  1  1  1
  2  3  1  0
  4  5  2  0
  4  2  1  0
  7  6  1  1
  7  8  1  0
  8  4  1  0
  9 10  2  0
  9  7  1  0
 11  9  1  0
 12 13  1  6
 12 11  1  0
 13 14  1  0
 14 15  1  0
 15 16  1  0
 16 17  1  0
 18 12  1  0
 19 18  1  0
 20 18  2  0
M  END
$$$$
