WIC.pdb
     RDKit          3D

 29 30  0  0  1  0  0  0  0  0999 V2000
    6.2915  -18.5026   24.9694 N   0  0  0  0  0  0  0  0  0  0  0  0
    6.5903  -17.1998   24.4580 C   0  0  1  0  0  0  0  0  0  0  0  0
    7.4662  -16.4760   25.4726 C   0  0  0  0  0  0  0  0  0  0  0  0
    6.7587  -15.2704   25.9754 C   0  0  0  0  0  0  0  0  0  0  0  0
    5.4092  -15.0766   26.1857 C   0  0  0  0  0  0  0  0  0  0  0  0
    5.2181  -13.8265   26.6502 N   0  0  0  0  0  0  0  0  0  0  0  0
    6.3878  -13.1796   26.7576 C   0  0  0  0  0  0  0  0  0  0  0  0
    6.7096  -11.9059   27.1766 C   0  0  0  0  0  0  0  0  0  0  0  0
    8.0598  -11.5721   27.1537 C   0  0  0  0  0  0  0  0  0  0  0  0
    9.0373  -12.4414   26.7421 C   0  0  0  0  0  0  0  0  0  0  0  0
    8.6878  -13.7243   26.3227 C   0  0  0  0  0  0  0  0  0  0  0  0
    7.3566  -14.0685   26.3401 C   0  0  0  0  0  0  0  0  0  0  0  0
    7.3581  -17.2400   23.1881 C   0  0  0  0  0  0  0  0  0  0  0  0
    7.6182  -18.3372   22.6669 O   0  0  0  0  0  0  0  0  0  0  0  0
    7.1154  -12.5472   20.3952 C   0  0  0  0  0  0  0  0  0  0  0  0
    7.0883  -13.9998   20.7639 C   0  0  0  0  0  0  0  0  0  0  0  0
    8.4843  -14.5761   20.7819 C   0  0  2  0  0  0  0  0  0  0  0  0
    9.1251  -14.5810   19.4215 C   0  0  0  0  0  0  0  0  0  0  0  0
    8.4769  -15.9774   21.3168 C   0  0  2  0  0  0  0  0  0  0  0  0
    7.7838  -16.0322   22.5870 N   0  0  0  0  0  0  0  0  0  0  0  0
    9.8359  -16.5542   21.4297 C   0  0  0  0  0  0  0  0  0  0  0  0
   10.4375  -16.8585   20.3789 O   0  0  0  0  0  0  0  0  0  0  0  0
   10.4623  -16.7671   22.6726 N   0  0  0  0  0  0  0  0  0  0  0  0
   11.8028  -17.3038   22.7120 C   0  0  1  0  0  0  0  0  0  0  0  0
   12.6490  -16.4130   23.5911 C   0  0  0  0  0  0  0  0  0  0  0  0
   12.5039  -14.7131   22.9186 S   0  0  0  0  0  0  0  0  0  0  0  0
   11.7659  -18.7088   23.1532 C   0  0  0  0  0  0  0  0  0  0  0  0
   10.6673  -19.2241   23.4522 O   0  0  0  0  0  0  0  0  0  0  0  0
   12.9416  -19.4319   23.2302 O   0  0  0  0  0  0  0  0  0  0  0  0
  2  1  1  1
  3  4  1  0
  3  2  1  0
  4 12  1  0
  5  4  2  0
  5  6  1  0
  6  7  1  0
  7  8  1  0
  8  9  2  0
 10  9  1  0
 11 10  2  0
 12  7  2  0
 12 11  1  0
 13 20  1  0
 13  2  1  0
 14 13  2  0
 16 15  1  0
 17 16  1  0
 17 18  1  6
 19 17  1  0
 19 20  1  1
 21 19  1  0
 22 21  2  0
 23 21  1  0
 24 27  1  0
 24 23  1  0
 24 25  1  1
 26 25  1  0
 27 29  1  0
 28 27  2  0
M  END
$$$$
