WIC.pdb
     RDKit          3D

 29 30  0  0  1  0  0  0  0  0999 V2000
    6.0039  -17.9280   24.6535 N   0  0  0  0  0  0  0  0  0  0  0  0
    6.6120  -16.6690   24.3478 C   0  0  1  0  0  0  0  0  0  0  0  0
    7.3851  -16.2001   25.5737 C   0  0  0  0  0  0  0  0  0  0  0  0
    6.6863  -15.0459   26.1954 C   0  0  0  0  0  0  0  0  0  0  0  0
    5.4623  -15.0078   26.8304 C   0  0  0  0  0  0  0  0  0  0  0  0
    5.2257  -13.7464   27.2401 N   0  0  0  0  0  0  0  0  0  0  0  0
    6.2444  -12.9423   26.9028 C   0  0  0  0  0  0  0  0  0  0  0  0
    6.4679  -11.5955   27.0965 C   0  0  0  0  0  0  0  0  0  0  0  0
    7.6652  -11.0915   26.5989 C   0  0  0  0  0  0  0  0  0  0  0  0
    8.5895  -11.8679   25.9483 C   0  0  0  0  0  0  0  0  0  0  0  0
    8.3415  -13.2275   25.7642 C   0  0  0  0  0  0  0  0  0  0  0  0
    7.1619  -13.7399   26.2508 C   0  0  0  0  0  0  0  0  0  0  0  0
    7.5923  -16.7558   23.2365 C   0  0  0  0  0  0  0  0  0  0  0  0
    8.0995  -17.8542   22.9547 O   0  0  0  0  0  0  0  0  0  0  0  0
    7.1650  -12.6016   20.0090 C   0  0  0  0  0  0  0  0  0  0  0  0
    7.4340  -14.0659   20.1831 C   0  0  0  0  0  0  0  0  0  0  0  0
    8.8433  -14.2990   20.6738 C   0  0  2  0  0  0  0  0  0  0  0  0
    9.8443  -14.3519   19.5527 C   0  0  0  0  0  0  0  0  0  0  0  0
    8.9313  -15.5736   21.4597 C   0  0  2  0  0  0  0  0  0  0  0  0
    7.9373  -15.5904   22.5125 N   0  0  0  0  0  0  0  0  0  0  0  0
   10.2858  -15.8167   22.0062 C   0  0  0  0  0  0  0  0  0  0  0  0
   10.8273  -14.9074   22.6686 O   0  0  0  0  0  0  0  0  0  0  0  0
   10.9728  -17.0288   21.8033 N   0  0  0  0  0  0  0  0  0  0  0  0
   12.3283  -17.1681   22.2827 C   0  0  1  0  0  0  0  0  0  0  0  0
   12.4800  -18.5404   22.8963 C   0  0  0  0  0  0  0  0  0  0  0  0
   11.4776  -18.5477   24.4320 S   0  0  0  0  0  0  0  0  0  0  0  0
   13.2760  -16.9011   21.1869 C   0  0  0  0  0  0  0  0  0  0  0  0
   14.4742  -16.6747   21.4603 O   0  0  0  0  0  0  0  0  0  0  0  0
   12.8271  -16.9040   19.8795 O   0  0  0  0  0  0  0  0  0  0  0  0
  2  1  1  1
  3  4  1  0
  3  2  1  0
  4 12  1  0
  5  4  2  0
  5  6  1  0
  6  7  1  0
  7  8  1  0
  8  9  2  0
 10  9  1  0
 11 10  2  0
 12  7  2  0
 12 11  1  0
 13 20  1  0
 13  2  1  0
 14 13  2  0
 16 15  1  0
 17 16  1  0
 17 18  1  6
 19 17  1  0
 19 20  1  1
 21 19  1  0
 22 21  2  0
 23 21  1  0
 24 27  1  0
 24 23  1  0
 24 25  1  6
 26 25  1  0
 27 29  1  0
 28 27  2  0
M  END
$$$$
