WIC.pdb
     RDKit          3D

 29 30  0  0  1  0  0  0  0  0999 V2000
    5.8143  -18.0531   24.0995 N   0  0  0  0  0  0  0  0  0  0  0  0
    6.4768  -16.8191   23.8053 C   0  0  1  0  0  0  0  0  0  0  0  0
    7.5187  -16.5648   24.8870 C   0  0  0  0  0  0  0  0  0  0  0  0
    7.0213  -15.5283   25.8278 C   0  0  0  0  0  0  0  0  0  0  0  0
    6.0753  -15.6394   26.8256 C   0  0  0  0  0  0  0  0  0  0  0  0
    5.9398  -14.4427   27.4295 N   0  0  0  0  0  0  0  0  0  0  0  0
    6.7587  -13.5384   26.8729 C   0  0  0  0  0  0  0  0  0  0  0  0
    6.9824  -12.2031   27.1343 C   0  0  0  0  0  0  0  0  0  0  0  0
    7.9282  -11.5687   26.3355 C   0  0  0  0  0  0  0  0  0  0  0  0
    8.6143  -12.2110   25.3369 C   0  0  0  0  0  0  0  0  0  0  0  0
    8.3711  -13.5617   25.0911 C   0  0  0  0  0  0  0  0  0  0  0  0
    7.4388  -14.2021   25.8730 C   0  0  0  0  0  0  0  0  0  0  0  0
    7.2066  -16.8493   22.5130 C   0  0  0  0  0  0  0  0  0  0  0  0
    7.3299  -17.9266   21.9068 O   0  0  0  0  0  0  0  0  0  0  0  0
    7.1539  -12.1296   20.0155 C   0  0  0  0  0  0  0  0  0  0  0  0
    7.1230  -13.6270   20.0756 C   0  0  0  0  0  0  0  0  0  0  0  0
    8.5181  -14.1883   20.2172 C   0  0  2  0  0  0  0  0  0  0  0  0
    9.2821  -14.1716   18.9220 C   0  0  0  0  0  0  0  0  0  0  0  0
    8.4776  -15.5954   20.7354 C   0  0  2  0  0  0  0  0  0  0  0  0
    7.7523  -15.6546   21.9872 N   0  0  0  0  0  0  0  0  0  0  0  0
    9.8252  -16.1927   20.8754 C   0  0  0  0  0  0  0  0  0  0  0  0
   10.4914  -16.3966   19.8394 O   0  0  0  0  0  0  0  0  0  0  0  0
   10.3710  -16.5334   22.1277 N   0  0  0  0  0  0  0  0  0  0  0  0
   11.7007  -17.0936   22.1967 C   0  0  1  0  0  0  0  0  0  0  0  0
   12.4024  -16.5132   23.4022 C   0  0  0  0  0  0  0  0  0  0  0  0
   12.3379  -14.6890   23.2253 S   0  0  0  0  0  0  0  0  0  0  0  0
   11.6234  -18.5646   22.2076 C   0  0  0  0  0  0  0  0  0  0  0  0
   10.5044  -19.1158   22.1304 O   0  0  0  0  0  0  0  0  0  0  0  0
   12.7842  -19.3092   22.3034 O   0  0  0  0  0  0  0  0  0  0  0  0
  2  1  1  1
  3  4  1  0
  3  2  1  0
  4 12  1  0
  5  4  2  0
  5  6  1  0
  6  7  1  0
  7  8  1  0
  8  9  2  0
 10  9  1  0
 11 10  2  0
 12  7  2  0
 12 11  1  0
 13 20  1  0
 13  2  1  0
 14 13  2  0
 16 15  1  0
 17 16  1  0
 17 18  1  6
 19 17  1  0
 19 20  1  1
 21 19  1  0
 22 21  2  0
 23 21  1  0
 24 27  1  0
 24 23  1  0
 24 25  1  1
 26 25  1  0
 27 29  1  0
 28 27  2  0
M  END
$$$$
