WIC.pdb
     RDKit          3D

 29 30  0  0  1  0  0  0  0  0999 V2000
    5.9444  -18.3225   24.5501 N   0  0  0  0  0  0  0  0  0  0  0  0
    6.4391  -16.9909   24.3768 C   0  0  1  0  0  0  0  0  0  0  0  0
    7.0330  -16.5244   25.6997 C   0  0  0  0  0  0  0  0  0  0  0  0
    6.3309  -15.2985   26.1595 C   0  0  0  0  0  0  0  0  0  0  0  0
    4.9946  -15.1171   26.4497 C   0  0  0  0  0  0  0  0  0  0  0  0
    4.8036  -13.8393   26.8314 N   0  0  0  0  0  0  0  0  0  0  0  0
    5.9607  -13.1621   26.8069 C   0  0  0  0  0  0  0  0  0  0  0  0
    6.2775  -11.8536   27.1054 C   0  0  0  0  0  0  0  0  0  0  0  0
    7.6138  -11.4948   26.9619 C   0  0  0  0  0  0  0  0  0  0  0  0
    8.5828  -12.3727   26.5486 C   0  0  0  0  0  0  0  0  0  0  0  0
    8.2385  -13.6910   26.2524 C   0  0  0  0  0  0  0  0  0  0  0  0
    6.9211  -14.0602   26.3897 C   0  0  0  0  0  0  0  0  0  0  0  0
    7.5271  -16.9054   23.3705 C   0  0  0  0  0  0  0  0  0  0  0  0
    8.2507  -17.8947   23.1688 O   0  0  0  0  0  0  0  0  0  0  0  0
    7.1355  -12.4129   20.1623 C   0  0  0  0  0  0  0  0  0  0  0  0
    7.2551  -13.8611   20.5297 C   0  0  0  0  0  0  0  0  0  0  0  0
    8.6509  -14.1801   21.0108 C   0  0  2  0  0  0  0  0  0  0  0  0
    9.6770  -14.0779   19.9163 C   0  0  0  0  0  0  0  0  0  0  0  0
    8.7106  -15.5579   21.6010 C   0  0  2  0  0  0  0  0  0  0  0  0
    7.7275  -15.7019   22.6543 N   0  0  0  0  0  0  0  0  0  0  0  0
   10.0631  -15.9144   22.0866 C   0  0  0  0  0  0  0  0  0  0  0  0
   10.5366  -15.2676   23.0437 O   0  0  0  0  0  0  0  0  0  0  0  0
   10.8221  -16.9494   21.5075 N   0  0  0  0  0  0  0  0  0  0  0  0
   12.1306  -17.2554   22.0373 C   0  0  1  0  0  0  0  0  0  0  0  0
   12.1791  -18.7280   22.3712 C   0  0  0  0  0  0  0  0  0  0  0  0
   13.8949  -19.0939   22.9055 S   0  0  0  0  0  0  0  0  0  0  0  0
   13.1685  -16.8299   21.0824 C   0  0  0  0  0  0  0  0  0  0  0  0
   12.9495  -16.9392   19.8569 O   0  0  0  0  0  0  0  0  0  0  0  0
   14.3635  -16.3197   21.5544 O   0  0  0  0  0  0  0  0  0  0  0  0
  2  1  1  1
  3  4  1  0
  3  2  1  0
  4 12  1  0
  5  4  2  0
  5  6  1  0
  6  7  1  0
  7  8  1  0
  8  9  2  0
 10  9  1  0
 11 10  2  0
 12  7  2  0
 12 11  1  0
 13 20  1  0
 13  2  1  0
 14 13  2  0
 16 15  1  0
 17 16  1  0
 17 18  1  6
 19 17  1  0
 19 20  1  1
 21 19  1  0
 22 21  2  0
 23 21  1  0
 24 27  1  0
 24 23  1  0
 24 25  1  6
 26 25  1  0
 27 29  1  0
 28 27  2  0
M  END
$$$$
