WIC.pdb
     RDKit          3D

 29 30  0  0  1  0  0  0  0  0999 V2000
    5.7617  -18.3109   24.5799 N   0  0  0  0  0  0  0  0  0  0  0  0
    6.3407  -17.0171   24.3824 C   0  0  1  0  0  0  0  0  0  0  0  0
    7.0168  -16.5916   25.6795 C   0  0  0  0  0  0  0  0  0  0  0  0
    6.5058  -15.2608   26.0976 C   0  0  0  0  0  0  0  0  0  0  0  0
    5.2044  -14.8535   26.3059 C   0  0  0  0  0  0  0  0  0  0  0  0
    5.2099  -13.5585   26.6775 N   0  0  0  0  0  0  0  0  0  0  0  0
    6.4643  -13.0871   26.7251 C   0  0  0  0  0  0  0  0  0  0  0  0
    6.9793  -11.8485   27.0447 C   0  0  0  0  0  0  0  0  0  0  0  0
    8.3633  -11.7221   26.9839 C   0  0  0  0  0  0  0  0  0  0  0  0
    9.1928  -12.7548   26.6290 C   0  0  0  0  0  0  0  0  0  0  0  0
    8.6490  -13.9983   26.3100 C   0  0  0  0  0  0  0  0  0  0  0  0
    7.2822  -14.1382   26.3658 C   0  0  0  0  0  0  0  0  0  0  0  0
    7.3919  -17.0087   23.3343 C   0  0  0  0  0  0  0  0  0  0  0  0
    8.0218  -18.0519   23.0936 O   0  0  0  0  0  0  0  0  0  0  0  0
    7.1229  -12.5919   20.1841 C   0  0  0  0  0  0  0  0  0  0  0  0
    7.2976  -14.0610   20.4251 C   0  0  0  0  0  0  0  0  0  0  0  0
    8.6733  -14.3557   20.9747 C   0  0  2  0  0  0  0  0  0  0  0  0
    9.7419  -14.3004   19.9180 C   0  0  0  0  0  0  0  0  0  0  0  0
    8.7097  -15.7057   21.6276 C   0  0  2  0  0  0  0  0  0  0  0  0
    7.6641  -15.8164   22.6231 N   0  0  0  0  0  0  0  0  0  0  0  0
   10.0328  -16.0236   22.2115 C   0  0  0  0  0  0  0  0  0  0  0  0
   10.4205  -15.3571   23.1934 O   0  0  0  0  0  0  0  0  0  0  0  0
   10.8566  -17.0434   21.6980 N   0  0  0  0  0  0  0  0  0  0  0  0
   12.1205  -17.3276   22.3371 C   0  0  1  0  0  0  0  0  0  0  0  0
   12.2837  -18.8268   22.4287 C   0  0  0  0  0  0  0  0  0  0  0  0
   13.9254  -19.1357   23.1852 S   0  0  0  0  0  0  0  0  0  0  0  0
   13.2109  -16.6564   21.6088 C   0  0  0  0  0  0  0  0  0  0  0  0
   13.1810  -16.6275   20.3598 O   0  0  0  0  0  0  0  0  0  0  0  0
   14.2462  -16.0726   22.3148 O   0  0  0  0  0  0  0  0  0  0  0  0
  2  1  1  1
  3  4  1  0
  3  2  1  0
  4 12  1  0
  5  4  2  0
  5  6  1  0
  6  7  1  0
  7  8  1  0
  8  9  2  0
 10  9  1  0
 11 10  2  0
 12  7  2  0
 12 11  1  0
 13 20  1  0
 13  2  1  0
 14 13  2  0
 16 15  1  0
 17 16  1  0
 17 18  1  6
 19 17  1  0
 19 20  1  1
 21 19  1  0
 22 21  2  0
 23 21  1  0
 24 27  1  0
 24 23  1  0
 24 25  1  6
 26 25  1  0
 27 29  1  0
 28 27  2  0
M  END
$$$$
