WIC.pdb
     RDKit          3D

 29 30  0  0  1  0  0  0  0  0999 V2000
    6.5165  -17.5611   25.5697 N   0  0  0  0  0  0  0  0  0  0  0  0
    6.9715  -16.3297   25.0000 C   0  0  1  0  0  0  0  0  0  0  0  0
    8.3669  -16.0395   25.5379 C   0  0  0  0  0  0  0  0  0  0  0  0
    8.2791  -15.0728   26.6626 C   0  0  0  0  0  0  0  0  0  0  0  0
    8.8024  -15.1675   27.9354 C   0  0  0  0  0  0  0  0  0  0  0  0
    8.4756  -14.0555   28.6221 N   0  0  0  0  0  0  0  0  0  0  0  0
    7.7548  -13.2234   27.8564 C   0  0  0  0  0  0  0  0  0  0  0  0
    7.1971  -11.9860   28.0998 C   0  0  0  0  0  0  0  0  0  0  0  0
    6.5004  -11.4057   27.0448 C   0  0  0  0  0  0  0  0  0  0  0  0
    6.3604  -12.0081   25.8209 C   0  0  0  0  0  0  0  0  0  0  0  0
    6.9332  -13.2596   25.5983 C   0  0  0  0  0  0  0  0  0  0  0  0
    7.6250  -13.8456   26.6321 C   0  0  0  0  0  0  0  0  0  0  0  0
    7.0911  -16.3867   23.5214 C   0  0  0  0  0  0  0  0  0  0  0  0
    6.9602  -17.4768   22.9403 O   0  0  0  0  0  0  0  0  0  0  0  0
    7.3876  -12.3048   18.8414 C   0  0  0  0  0  0  0  0  0  0  0  0
    7.4193  -13.7179   19.3402 C   0  0  0  0  0  0  0  0  0  0  0  0
    7.4033  -13.7555   20.8501 C   0  0  2  0  0  0  0  0  0  0  0  0
    8.5309  -12.9692   21.4598 C   0  0  0  0  0  0  0  0  0  0  0  0
    7.4745  -15.1680   21.3500 C   0  0  2  0  0  0  0  0  0  0  0  0
    7.3520  -15.2027   22.7923 N   0  0  0  0  0  0  0  0  0  0  0  0
    8.6992  -15.8714   20.9054 C   0  0  0  0  0  0  0  0  0  0  0  0
    8.7759  -16.2261   19.7108 O   0  0  0  0  0  0  0  0  0  0  0  0
    9.7673  -16.1487   21.7799 N   0  0  0  0  0  0  0  0  0  0  0  0
   11.0480  -16.5402   21.2385 C   0  0  1  0  0  0  0  0  0  0  0  0
   11.7271  -15.3114   20.6803 C   0  0  0  0  0  0  0  0  0  0  0  0
   13.3364  -15.8613   19.9942 S   0  0  0  0  0  0  0  0  0  0  0  0
   11.8359  -17.2350   22.2712 C   0  0  0  0  0  0  0  0  0  0  0  0
   11.4663  -17.1725   23.4633 O   0  0  0  0  0  0  0  0  0  0  0  0
   12.9673  -17.9412   21.9075 O   0  0  0  0  0  0  0  0  0  0  0  0
  2  1  1  1
  3  4  1  0
  3  2  1  0
  4 12  1  0
  5  4  2  0
  5  6  1  0
  6  7  1  0
  7  8  1  0
  8  9  2  0
 10  9  1  0
 11 10  2  0
 12  7  2  0
 12 11  1  0
 13 20  1  0
 13  2  1  0
 14 13  2  0
 16 15  1  0
 17 16  1  0
 17 18  1  1
 19 17  1  0
 19 20  1  1
 21 19  1  0
 22 21  2  0
 23 21  1  0
 24 27  1  0
 24 23  1  0
 24 25  1  1
 26 25  1  0
 27 29  1  0
 28 27  2  0
M  END
$$$$
