WIC.pdb
     RDKit          3D

 29 30  0  0  1  0  0  0  0  0999 V2000
    5.8170  -17.8664   24.6879 N   0  0  0  0  0  0  0  0  0  0  0  0
    6.4726  -16.6542   24.3020 C   0  0  1  0  0  0  0  0  0  0  0  0
    7.2588  -16.1329   25.4982 C   0  0  0  0  0  0  0  0  0  0  0  0
    6.5619  -14.9581   26.0821 C   0  0  0  0  0  0  0  0  0  0  0  0
    5.2990  -14.8786   26.6314 C   0  0  0  0  0  0  0  0  0  0  0  0
    5.0817  -13.6124   27.0369 N   0  0  0  0  0  0  0  0  0  0  0  0
    6.1506  -12.8449   26.7793 C   0  0  0  0  0  0  0  0  0  0  0  0
    6.4102  -11.5091   27.0021 C   0  0  0  0  0  0  0  0  0  0  0  0
    7.6571  -11.0469   26.5939 C   0  0  0  0  0  0  0  0  0  0  0  0
    8.5948  -11.8527   26.0006 C   0  0  0  0  0  0  0  0  0  0  0  0
    8.3097  -13.2004   25.7856 C   0  0  0  0  0  0  0  0  0  0  0  0
    7.0809  -13.6715   26.1840 C   0  0  0  0  0  0  0  0  0  0  0  0
    7.4526  -16.8517   23.2047 C   0  0  0  0  0  0  0  0  0  0  0  0
    7.9832  -17.9647   23.0534 O   0  0  0  0  0  0  0  0  0  0  0  0
    8.5808  -12.3941   19.7257 C   0  0  0  0  0  0  0  0  0  0  0  0
    8.7817  -13.4543   20.7661 C   0  0  0  0  0  0  0  0  0  0  0  0
    8.4299  -14.8176   20.2193 C   0  0  2  0  0  0  0  0  0  0  0  0
    6.9939  -14.9123   19.7828 C   0  0  0  0  0  0  0  0  0  0  0  0
    8.6961  -15.8864   21.2375 C   0  0  2  0  0  0  0  0  0  0  0  0
    7.7709  -15.7736   22.3456 N   0  0  0  0  0  0  0  0  0  0  0  0
   10.0975  -15.8852   21.7155 C   0  0  0  0  0  0  0  0  0  0  0  0
   10.4352  -15.0231   22.5530 O   0  0  0  0  0  0  0  0  0  0  0  0
   11.0492  -16.8169   21.2588 N   0  0  0  0  0  0  0  0  0  0  0  0
   12.4079  -16.7433   21.7438 C   0  0  1  0  0  0  0  0  0  0  0  0
   12.7479  -18.0534   22.4149 C   0  0  0  0  0  0  0  0  0  0  0  0
   11.8057  -18.1033   23.9874 S   0  0  0  0  0  0  0  0  0  0  0  0
   13.3150  -16.3912   20.6378 C   0  0  0  0  0  0  0  0  0  0  0  0
   14.4574  -15.9586   20.9019 O   0  0  0  0  0  0  0  0  0  0  0  0
   12.8904  -16.5431   19.3310 O   0  0  0  0  0  0  0  0  0  0  0  0
  2  1  1  1
  3  4  1  0
  3  2  1  0
  4 12  1  0
  5  4  2  0
  5  6  1  0
  6  7  1  0
  7  8  1  0
  8  9  2  0
 10  9  1  0
 11 10  2  0
 12  7  2  0
 12 11  1  0
 13 20  1  0
 13  2  1  0
 14 13  2  0
 16 15  1  0
 17 16  1  0
 17 18  1  1
 19 17  1  0
 19 20  1  1
 21 19  1  0
 22 21  2  0
 23 21  1  0
 24 27  1  0
 24 23  1  0
 24 25  1  6
 26 25  1  0
 27 29  1  0
 28 27  2  0
M  END
$$$$
