WIC.pdb
     RDKit          3D

 29 30  0  0  1  0  0  0  0  0999 V2000
    5.9734  -18.0220   24.3985 N   0  0  0  0  0  0  0  0  0  0  0  0
    6.5777  -16.7481   24.1535 C   0  0  1  0  0  0  0  0  0  0  0  0
    7.3245  -16.3222   25.4110 C   0  0  0  0  0  0  0  0  0  0  0  0
    6.6302  -15.1691   26.0397 C   0  0  0  0  0  0  0  0  0  0  0  0
    5.3986  -15.1264   26.6595 C   0  0  0  0  0  0  0  0  0  0  0  0
    5.1704  -13.8681   27.0837 N   0  0  0  0  0  0  0  0  0  0  0  0
    6.2021  -13.0708   26.7707 C   0  0  0  0  0  0  0  0  0  0  0  0
    6.4376  -11.7293   26.9860 C   0  0  0  0  0  0  0  0  0  0  0  0
    7.6466  -11.2317   26.5109 C   0  0  0  0  0  0  0  0  0  0  0  0
    8.5708  -12.0092   25.8614 C   0  0  0  0  0  0  0  0  0  0  0  0
    8.3105  -13.3634   25.6552 C   0  0  0  0  0  0  0  0  0  0  0  0
    7.1192  -13.8693   26.1195 C   0  0  0  0  0  0  0  0  0  0  0  0
    7.5790  -16.7849   23.0583 C   0  0  0  0  0  0  0  0  0  0  0  0
    8.1766  -17.8461   22.8133 O   0  0  0  0  0  0  0  0  0  0  0  0
    7.1464  -12.5278   19.7243 C   0  0  0  0  0  0  0  0  0  0  0  0
    7.3193  -13.9676   20.1033 C   0  0  0  0  0  0  0  0  0  0  0  0
    8.7431  -14.2456   20.5240 C   0  0  2  0  0  0  0  0  0  0  0  0
    9.6943  -14.2765   19.3596 C   0  0  0  0  0  0  0  0  0  0  0  0
    8.8380  -15.5496   21.2593 C   0  0  2  0  0  0  0  0  0  0  0  0
    7.8413  -15.6149   22.3076 N   0  0  0  0  0  0  0  0  0  0  0  0
   10.1926  -15.8046   21.7999 C   0  0  0  0  0  0  0  0  0  0  0  0
   10.7260  -14.9184   22.4992 O   0  0  0  0  0  0  0  0  0  0  0  0
   10.8888  -17.0029   21.5515 N   0  0  0  0  0  0  0  0  0  0  0  0
   12.2211  -17.1759   22.0821 C   0  0  1  0  0  0  0  0  0  0  0  0
   12.2742  -18.4922   22.8219 C   0  0  0  0  0  0  0  0  0  0  0  0
   11.1619  -18.3307   24.2709 S   0  0  0  0  0  0  0  0  0  0  0  0
   13.2099  -17.0666   20.9957 C   0  0  0  0  0  0  0  0  0  0  0  0
   14.4253  -17.0153   21.2820 O   0  0  0  0  0  0  0  0  0  0  0  0
   12.7802  -17.0216   19.6826 O   0  0  0  0  0  0  0  0  0  0  0  0
  2  1  1  1
  3  4  1  0
  3  2  1  0
  4 12  1  0
  5  4  2  0
  5  6  1  0
  6  7  1  0
  7  8  1  0
  8  9  2  0
 10  9  1  0
 11 10  2  0
 12  7  2  0
 12 11  1  0
 13 20  1  0
 13  2  1  0
 14 13  2  0
 16 15  1  0
 17 16  1  0
 17 18  1  6
 19 17  1  0
 19 20  1  1
 21 19  1  0
 22 21  2  0
 23 21  1  0
 24 27  1  0
 24 23  1  0
 24 25  1  6
 26 25  1  0
 27 29  1  0
 28 27  2  0
M  END
$$$$
