WIC.pdb
     RDKit          3D

 29 30  0  0  1  0  0  0  0  0999 V2000
    5.9322  -18.0409   24.7192 N   0  0  0  0  0  0  0  0  0  0  0  0
    6.5381  -16.8142   24.2994 C   0  0  1  0  0  0  0  0  0  0  0  0
    7.4399  -16.3166   25.4217 C   0  0  0  0  0  0  0  0  0  0  0  0
    6.8419  -15.1089   26.0468 C   0  0  0  0  0  0  0  0  0  0  0  0
    5.5903  -14.9452   26.6033 C   0  0  0  0  0  0  0  0  0  0  0  0
    5.4774  -13.6796   27.0512 N   0  0  0  0  0  0  0  0  0  0  0  0
    6.6050  -12.9936   26.8148 C   0  0  0  0  0  0  0  0  0  0  0  0
    6.9728  -11.6914   27.0805 C   0  0  0  0  0  0  0  0  0  0  0  0
    8.2528  -11.3191   26.6828 C   0  0  0  0  0  0  0  0  0  0  0  0
    9.1210  -12.1783   26.0596 C   0  0  0  0  0  0  0  0  0  0  0  0
    8.7267  -13.4905   25.8015 C   0  0  0  0  0  0  0  0  0  0  0  0
    7.4641  -13.8730   26.1890 C   0  0  0  0  0  0  0  0  0  0  0  0
    7.4015  -16.9764   23.1028 C   0  0  0  0  0  0  0  0  0  0  0  0
    8.0382  -18.0318   22.9483 O   0  0  0  0  0  0  0  0  0  0  0  0
    7.7880  -12.5258   19.4898 C   0  0  0  0  0  0  0  0  0  0  0  0
    8.2315  -13.5443   20.4960 C   0  0  0  0  0  0  0  0  0  0  0  0
    7.9709  -14.9449   19.9940 C   0  0  2  0  0  0  0  0  0  0  0  0
    6.5274  -15.1723   19.6389 C   0  0  0  0  0  0  0  0  0  0  0  0
    8.3829  -15.9635   21.0151 C   0  0  2  0  0  0  0  0  0  0  0  0
    7.4896  -15.9305   22.1541 N   0  0  0  0  0  0  0  0  0  0  0  0
    9.7920  -15.8080   21.4425 C   0  0  0  0  0  0  0  0  0  0  0  0
   10.0757  -14.8651   22.2100 O   0  0  0  0  0  0  0  0  0  0  0  0
   10.8093  -16.6820   21.0138 N   0  0  0  0  0  0  0  0  0  0  0  0
   12.1763  -16.4318   21.4080 C   0  0  1  0  0  0  0  0  0  0  0  0
   12.6987  -17.6546   22.1252 C   0  0  0  0  0  0  0  0  0  0  0  0
   11.7012  -17.8394   23.6528 S   0  0  0  0  0  0  0  0  0  0  0  0
   12.9742  -16.0496   20.2302 C   0  0  0  0  0  0  0  0  0  0  0  0
   12.4181  -15.9872   19.1127 O   0  0  0  0  0  0  0  0  0  0  0  0
   14.3195  -15.7683   20.3782 O   0  0  0  0  0  0  0  0  0  0  0  0
  2  1  1  1
  3  4  1  0
  3  2  1  0
  4 12  1  0
  5  4  2  0
  5  6  1  0
  6  7  1  0
  7  8  1  0
  8  9  2  0
 10  9  1  0
 11 10  2  0
 12  7  2  0
 12 11  1  0
 13 20  1  0
 13  2  1  0
 14 13  2  0
 16 15  1  0
 17 16  1  0
 17 18  1  1
 19 17  1  0
 19 20  1  1
 21 19  1  0
 22 21  2  0
 23 21  1  0
 24 27  1  0
 24 23  1  0
 24 25  1  6
 26 25  1  0
 27 29  1  0
 28 27  2  0
M  END
$$$$
