FLM.pdb
     RDKit          3D

 28 28  0  0  1  0  0  0  0  0999 V2000
   27.3455  -20.3389  -11.3413 N   0  0  0  0  0  0  0  0  0  0  0  0
   26.1872  -21.1333  -10.8963 C   0  0  1  0  0  0  0  0  0  0  0  0
   25.7023  -20.5315   -9.5901 C   0  0  0  0  0  0  0  0  0  0  0  0
   26.7549  -20.4823   -8.5579 C   0  0  0  0  0  0  0  0  0  0  0  0
   27.8022  -21.3629   -8.5397 C   0  0  0  0  0  0  0  0  0  0  0  0
   28.8072  -21.3201   -7.5761 C   0  0  0  0  0  0  0  0  0  0  0  0
   28.7249  -20.3397   -6.6071 C   0  0  0  0  0  0  0  0  0  0  0  0
   27.6796  -19.4487   -6.6129 C   0  0  0  0  0  0  0  0  0  0  0  0
   26.6771  -19.5052   -7.5879 C   0  0  0  0  0  0  0  0  0  0  0  0
   25.1056  -20.8910  -11.8803 C   0  0  0  0  0  0  0  0  0  0  0  0
   24.4780  -19.8073  -11.8728 O   0  0  0  0  0  0  0  0  0  0  0  0
   26.0071  -20.8517  -16.7924 C   0  0  0  0  0  0  0  0  0  0  0  0
   25.3103  -20.6178  -15.4412 C   0  0  1  0  0  0  0  0  0  0  0  0
   24.6237  -19.2772  -15.5529 C   0  0  0  0  0  0  0  0  0  0  0  0
   24.2493  -21.6684  -15.2197 C   0  0  0  0  0  0  0  0  0  0  0  0
   23.6658  -21.5348  -13.8476 C   0  0  2  0  0  0  0  0  0  0  0  0
   24.7178  -21.8378  -12.8686 N   0  0  0  0  0  0  0  0  0  0  0  0
   22.4989  -22.3899  -13.6141 C   0  0  0  0  0  0  0  0  0  0  0  0
   22.6811  -23.6424  -13.5980 O   0  0  0  0  0  0  0  0  0  0  0  0
   18.2068  -22.7647   -9.0996 C   0  0  0  0  0  0  0  0  0  0  0  0
   18.1142  -24.3540  -10.0071 S   0  0  0  0  0  0  0  0  0  0  0  0
   18.4889  -23.9851  -11.7593 C   0  0  0  0  0  0  0  0  0  0  0  0
   19.6747  -23.0588  -11.8639 C   0  0  0  0  0  0  0  0  0  0  0  0
   20.0266  -22.8191  -13.2862 C   0  0  2  0  0  0  0  0  0  0  0  0
   21.1879  -21.9310  -13.4073 N   0  0  0  0  0  0  0  0  0  0  0  0
   18.9226  -22.3801  -14.1081 C   0  0  0  0  0  0  0  0  0  0  0  0
   18.8207  -21.1164  -14.3222 O   0  0  0  0  0  0  0  0  0  0  0  0
   17.9424  -23.1332  -14.7130 O   0  0  0  0  0  0  0  0  0  0  0  0
  2  1  1  6
  3  2  1  0
  4  9  2  0
  4  3  1  0
  5  4  1  0
  6  7  1  0
  6  5  2  0
  7  8  2  0
  8  9  1  0
 10 17  1  0
 10  2  1  0
 11 10  2  0
 13 12  1  6
 14 13  1  0
 16 15  1  6
 15 13  1  0
 16 17  1  0
 18 16  1  0
 19 18  2  0
 21 20  1  0
 21 22  1  0
 22 23  1  0
 24 23  1  1
 24 26  1  0
 24 25  1  0
 25 18  1  0
 26 28  1  0
 27 26  2  0
M  END
$$$$
