FLM.pdb
     RDKit          3D

 28 28  0  0  1  0  0  0  0  0999 V2000
   26.0752  -18.6056   -8.3070 N   0  0  0  0  0  0  0  0  0  0  0  0
   26.9079  -19.6261   -8.9672 C   0  0  1  0  0  0  0  0  0  0  0  0
   27.0372  -20.7937   -8.0062 C   0  0  0  0  0  0  0  0  0  0  0  0
   27.8558  -20.4713   -6.8222 C   0  0  0  0  0  0  0  0  0  0  0  0
   29.2237  -20.4638   -6.8595 C   0  0  0  0  0  0  0  0  0  0  0  0
   30.0070  -20.1514   -5.7509 C   0  0  0  0  0  0  0  0  0  0  0  0
   29.3562  -19.8386   -4.5738 C   0  0  0  0  0  0  0  0  0  0  0  0
   27.9836  -19.8417   -4.5214 C   0  0  0  0  0  0  0  0  0  0  0  0
   27.2106  -20.1584   -5.6442 C   0  0  0  0  0  0  0  0  0  0  0  0
   26.1223  -20.1330  -10.1173 C   0  0  0  0  0  0  0  0  0  0  0  0
   24.8708  -20.1408  -10.0712 O   0  0  0  0  0  0  0  0  0  0  0  0
   28.9522  -19.3131  -14.8152 C   0  0  0  0  0  0  0  0  0  0  0  0
   27.8268  -19.2194  -13.7709 C   0  0  1  0  0  0  0  0  0  0  0  0
   26.8616  -18.1803  -14.2904 C   0  0  0  0  0  0  0  0  0  0  0  0
   27.0932  -20.5357  -13.6843 C   0  0  0  0  0  0  0  0  0  0  0  0
   26.0481  -20.4773  -12.6140 C   0  0  2  0  0  0  0  0  0  0  0  0
   26.7127  -20.6282  -11.3131 N   0  0  0  0  0  0  0  0  0  0  0  0
   24.9930  -21.4837  -12.7605 C   0  0  0  0  0  0  0  0  0  0  0  0
   25.3098  -22.6973  -12.5900 O   0  0  0  0  0  0  0  0  0  0  0  0
   19.0122  -21.2506  -10.8892 C   0  0  0  0  0  0  0  0  0  0  0  0
   18.6869  -22.4464  -12.2391 S   0  0  0  0  0  0  0  0  0  0  0  0
   20.3156  -22.9568  -12.8974 C   0  0  0  0  0  0  0  0  0  0  0  0
   21.3314  -21.8579  -12.7085 C   0  0  0  0  0  0  0  0  0  0  0  0
   22.6401  -22.2508  -13.2892 C   0  0  2  0  0  0  0  0  0  0  0  0
   23.6527  -21.2105  -13.0780 N   0  0  0  0  0  0  0  0  0  0  0  0
   22.5780  -22.6721  -14.6696 C   0  0  0  0  0  0  0  0  0  0  0  0
   22.8170  -21.7795  -15.5636 O   0  0  0  0  0  0  0  0  0  0  0  0
   22.2975  -23.9185  -15.1812 O   0  0  0  0  0  0  0  0  0  0  0  0
  2  1  1  1
  3  2  1  0
  4  9  2  0
  4  3  1  0
  5  4  1  0
  6  7  1  0
  6  5  2  0
  7  8  2  0
  8  9  1  0
 10 17  1  0
 10  2  1  0
 11 10  2  0
 13 12  1  6
 14 13  1  0
 16 15  1  6
 15 13  1  0
 16 17  1  0
 18 16  1  0
 19 18  2  0
 21 20  1  0
 21 22  1  0
 22 23  1  0
 24 23  1  6
 24 26  1  0
 24 25  1  0
 25 18  1  0
 26 28  1  0
 27 26  2  0
M  END
$$$$
