FLM.pdb
     RDKit          3D

 28 28  0  0  1  0  0  0  0  0999 V2000
   28.4179  -20.7068   -8.7430 N   0  0  0  0  0  0  0  0  0  0  0  0
   26.9575  -20.7556   -8.5544 C   0  0  1  0  0  0  0  0  0  0  0  0
   26.5962  -19.6790   -7.5476 C   0  0  0  0  0  0  0  0  0  0  0  0
   27.3665  -19.7870   -6.2942 C   0  0  0  0  0  0  0  0  0  0  0  0
   27.3572  -20.9193   -5.5259 C   0  0  0  0  0  0  0  0  0  0  0  0
   28.0881  -21.0367   -4.3460 C   0  0  0  0  0  0  0  0  0  0  0  0
   28.8483  -19.9530   -3.9525 C   0  0  0  0  0  0  0  0  0  0  0  0
   28.8677  -18.8099   -4.7137 C   0  0  0  0  0  0  0  0  0  0  0  0
   28.1272  -18.7075   -5.8968 C   0  0  0  0  0  0  0  0  0  0  0  0
   26.3513  -20.3298   -9.8381 C   0  0  0  0  0  0  0  0  0  0  0  0
   26.1419  -19.1159  -10.0641 O   0  0  0  0  0  0  0  0  0  0  0  0
   28.7257  -21.1422  -14.1874 C   0  0  0  0  0  0  0  0  0  0  0  0
   27.7446  -20.5424  -13.1658 C   0  0  1  0  0  0  0  0  0  0  0  0
   27.5113  -19.1149  -13.6005 C   0  0  0  0  0  0  0  0  0  0  0  0
   26.4243  -21.2712  -13.2298 C   0  0  0  0  0  0  0  0  0  0  0  0
   25.4976  -20.7592  -12.1714 C   0  0  2  0  0  0  0  0  0  0  0  0
   25.9783  -21.2368  -10.8685 N   0  0  0  0  0  0  0  0  0  0  0  0
   24.0994  -21.1519  -12.3675 C   0  0  0  0  0  0  0  0  0  0  0  0
   23.7575  -22.3137  -11.9991 O   0  0  0  0  0  0  0  0  0  0  0  0
   18.5315  -18.8324  -10.2845 C   0  0  0  0  0  0  0  0  0  0  0  0
   18.1994  -18.8877  -12.0858 S   0  0  0  0  0  0  0  0  0  0  0  0
   19.3429  -20.1260  -12.7966 C   0  0  0  0  0  0  0  0  0  0  0  0
   20.7760  -19.7397  -12.5279 C   0  0  0  0  0  0  0  0  0  0  0  0
   21.7042  -20.7572  -13.0822 C   0  0  2  0  0  0  0  0  0  0  0  0
   23.1032  -20.3412  -12.9352 N   0  0  0  0  0  0  0  0  0  0  0  0
   21.4016  -21.1673  -14.4340 C   0  0  0  0  0  0  0  0  0  0  0  0
   21.9947  -20.5338  -15.3827 O   0  0  0  0  0  0  0  0  0  0  0  0
   20.5546  -22.1620  -14.8664 O   0  0  0  0  0  0  0  0  0  0  0  0
  2  1  1  6
  3  2  1  0
  4  9  2  0
  4  3  1  0
  5  4  1  0
  6  7  1  0
  6  5  2  0
  7  8  2  0
  8  9  1  0
 10 17  1  0
 10  2  1  0
 11 10  2  0
 13 12  1  6
 14 13  1  0
 16 15  1  6
 15 13  1  0
 16 17  1  0
 18 16  1  0
 19 18  2  0
 21 20  1  0
 21 22  1  0
 22 23  1  0
 24 23  1  6
 24 26  1  0
 24 25  1  0
 25 18  1  0
 26 28  1  0
 27 26  2  0
M  END
$$$$
