FLM.pdb
     RDKit          3D

 28 28  0  0  1  0  0  0  0  0999 V2000
   27.1184  -20.6455  -12.5240 N   0  0  0  0  0  0  0  0  0  0  0  0
   27.0612  -19.7548  -11.3517 C   0  0  1  0  0  0  0  0  0  0  0  0
   25.5985  -19.4456  -11.0908 C   0  0  0  0  0  0  0  0  0  0  0  0
   24.6927  -20.1330  -12.0304 C   0  0  0  0  0  0  0  0  0  0  0  0
   24.3040  -21.4329  -11.8521 C   0  0  0  0  0  0  0  0  0  0  0  0
   23.4414  -22.0893  -12.7270 C   0  0  0  0  0  0  0  0  0  0  0  0
   22.9695  -21.3804  -13.8141 C   0  0  0  0  0  0  0  0  0  0  0  0
   23.3507  -20.0749  -14.0058 C   0  0  0  0  0  0  0  0  0  0  0  0
   24.2187  -19.4295  -13.1177 C   0  0  0  0  0  0  0  0  0  0  0  0
   27.5197  -20.5543  -10.1910 C   0  0  0  0  0  0  0  0  0  0  0  0
   27.3975  -21.8007  -10.1965 O   0  0  0  0  0  0  0  0  0  0  0  0
   29.5026  -20.2446   -4.5840 C   0  0  0  0  0  0  0  0  0  0  0  0
   28.8226  -19.5799   -5.7930 C   0  0  1  0  0  0  0  0  0  0  0  0
   29.0428  -18.0946   -5.6304 C   0  0  0  0  0  0  0  0  0  0  0  0
   29.5007  -20.0152   -7.0693 C   0  0  0  0  0  0  0  0  0  0  0  0
   28.5581  -20.8202   -7.9087 C   0  0  2  0  0  0  0  0  0  0  0  0
   28.1110  -19.9836   -9.0298 N   0  0  0  0  0  0  0  0  0  0  0  0
   27.4010  -21.3357   -7.1719 C   0  0  0  0  0  0  0  0  0  0  0  0
   27.6007  -22.2710   -6.3427 O   0  0  0  0  0  0  0  0  0  0  0  0
   25.4464  -19.9863   -2.4126 C   0  0  0  0  0  0  0  0  0  0  0  0
   23.8242  -20.8064   -2.6446 S   0  0  0  0  0  0  0  0  0  0  0  0
   23.7648  -21.3793   -4.3809 C   0  0  0  0  0  0  0  0  0  0  0  0
   24.9657  -20.8802   -5.1450 C   0  0  0  0  0  0  0  0  0  0  0  0
   24.9524  -21.3988   -6.5360 C   0  0  2  0  0  0  0  0  0  0  0  0
   26.0817  -20.8757   -7.3125 N   0  0  0  0  0  0  0  0  0  0  0  0
   23.6952  -21.2241   -7.2260 C   0  0  0  0  0  0  0  0  0  0  0  0
   23.6893  -20.4283   -8.2358 O   0  0  0  0  0  0  0  0  0  0  0  0
   22.4746  -21.8002   -6.9575 O   0  0  0  0  0  0  0  0  0  0  0  0
  2  1  1  6
  3  2  1  0
  4  9  2  0
  4  3  1  0
  5  4  1  0
  6  7  1  0
  6  5  2  0
  7  8  2  0
  8  9  1  0
 10 17  1  0
 10  2  1  0
 11 10  2  0
 13 12  1  1
 14 13  1  0
 16 15  1  1
 15 13  1  0
 16 17  1  0
 18 16  1  0
 19 18  2  0
 21 20  1  0
 21 22  1  0
 22 23  1  0
 24 23  1  1
 24 26  1  0
 24 25  1  0
 25 18  1  0
 26 28  1  0
 27 26  2  0
M  END
$$$$
