FLM.pdb
     RDKit          3D

 28 28  0  0  1  0  0  0  0  0999 V2000
   25.3768  -20.4915  -17.0196 N   0  0  0  0  0  0  0  0  0  0  0  0
   24.5137  -19.6266  -16.1964 C   0  0  1  0  0  0  0  0  0  0  0  0
   23.3636  -19.1694  -17.0748 C   0  0  0  0  0  0  0  0  0  0  0  0
   23.7703  -18.1573  -18.0678 C   0  0  0  0  0  0  0  0  0  0  0  0
   23.9432  -16.8400  -17.7400 C   0  0  0  0  0  0  0  0  0  0  0  0
   24.3365  -15.8772  -18.6665 C   0  0  0  0  0  0  0  0  0  0  0  0
   24.5564  -16.2900  -19.9658 C   0  0  0  0  0  0  0  0  0  0  0  0
   24.3870  -17.6091  -20.3096 C   0  0  0  0  0  0  0  0  0  0  0  0
   23.9909  -18.5645  -19.3668 C   0  0  0  0  0  0  0  0  0  0  0  0
   23.9104  -20.4963  -15.1590 C   0  0  0  0  0  0  0  0  0  0  0  0
   23.5494  -21.6609  -15.4450 O   0  0  0  0  0  0  0  0  0  0  0  0
   25.7697  -20.2092  -10.1003 C   0  0  0  0  0  0  0  0  0  0  0  0
   25.2223  -20.7043  -11.4498 C   0  0  1  0  0  0  0  0  0  0  0  0
   25.5895  -22.1667  -11.5371 C   0  0  0  0  0  0  0  0  0  0  0  0
   23.7166  -20.5997  -11.4648 C   0  0  0  0  0  0  0  0  0  0  0  0
   23.1815  -21.0117  -12.8009 C   0  0  2  0  0  0  0  0  0  0  0  0
   23.7065  -20.0855  -13.8125 N   0  0  0  0  0  0  0  0  0  0  0  0
   21.7181  -21.0525  -12.8662 C   0  0  0  0  0  0  0  0  0  0  0  0
   21.0992  -19.9485  -12.8885 O   0  0  0  0  0  0  0  0  0  0  0  0
   18.1097  -25.9406  -14.9505 C   0  0  0  0  0  0  0  0  0  0  0  0
   16.7676  -25.0782  -14.0488 S   0  0  0  0  0  0  0  0  0  0  0  0
   17.4357  -23.4556  -13.5317 C   0  0  0  0  0  0  0  0  0  0  0  0
   18.9396  -23.5099  -13.4294 C   0  0  0  0  0  0  0  0  0  0  0  0
   19.4752  -22.2233  -12.9176 C   0  0  2  0  0  0  0  0  0  0  0  0
   20.9421  -22.2222  -12.9046 N   0  0  0  0  0  0  0  0  0  0  0  0
   18.9234  -21.8100  -11.6481 C   0  0  0  0  0  0  0  0  0  0  0  0
   19.6087  -22.0865  -10.5960 O   0  0  0  0  0  0  0  0  0  0  0  0
   17.7458  -21.1450  -11.3929 O   0  0  0  0  0  0  0  0  0  0  0  0
  2  1  1  6
  3  2  1  0
  4  9  2  0
  4  3  1  0
  5  4  1  0
  6  7  1  0
  6  5  2  0
  7  8  2  0
  8  9  1  0
 10 17  1  0
 10  2  1  0
 11 10  2  0
 13 12  1  1
 14 13  1  0
 16 15  1  1
 15 13  1  0
 16 17  1  0
 18 16  1  0
 19 18  2  0
 21 20  1  0
 21 22  1  0
 22 23  1  0
 24 23  1  1
 24 26  1  0
 24 25  1  0
 25 18  1  0
 26 28  1  0
 27 26  2  0
M  END
$$$$
