FLM.pdb
     RDKit          3D

 28 28  0  0  1  0  0  0  0  0999 V2000
   23.9989  -19.2802  -13.5518 N   0  0  0  0  0  0  0  0  0  0  0  0
   24.3004  -20.3045  -14.5670 C   0  0  1  0  0  0  0  0  0  0  0  0
   24.5272  -19.5829  -15.8827 C   0  0  0  0  0  0  0  0  0  0  0  0
   23.2751  -19.0911  -16.4880 C   0  0  0  0  0  0  0  0  0  0  0  0
   23.0672  -17.7668  -16.7629 C   0  0  0  0  0  0  0  0  0  0  0  0
   21.8934  -17.2919  -17.3432 C   0  0  0  0  0  0  0  0  0  0  0  0
   20.9102  -18.2129  -17.6467 C   0  0  0  0  0  0  0  0  0  0  0  0
   21.1049  -19.5455  -17.3768 C   0  0  0  0  0  0  0  0  0  0  0  0
   22.2901  -20.0069  -16.7927 C   0  0  0  0  0  0  0  0  0  0  0  0
   25.6092  -20.8936  -14.1970 C   0  0  0  0  0  0  0  0  0  0  0  0
   26.1345  -21.7682  -14.9233 O   0  0  0  0  0  0  0  0  0  0  0  0
   30.1118  -19.2181  -11.2023 C   0  0  0  0  0  0  0  0  0  0  0  0
   28.6869  -19.7943  -11.2637 C   0  0  1  0  0  0  0  0  0  0  0  0
   27.7929  -18.6513  -11.6827 C   0  0  0  0  0  0  0  0  0  0  0  0
   28.6083  -20.8622  -12.3275 C   0  0  0  0  0  0  0  0  0  0  0  0
   27.2377  -21.4635  -12.3583 C   0  0  2  0  0  0  0  0  0  0  0  0
   26.3364  -20.5203  -13.0329 N   0  0  0  0  0  0  0  0  0  0  0  0
   26.7104  -21.8049  -11.0343 C   0  0  0  0  0  0  0  0  0  0  0  0
   27.3058  -22.7098  -10.3794 O   0  0  0  0  0  0  0  0  0  0  0  0
   29.2115  -19.7121   -7.1458 C   0  0  0  0  0  0  0  0  0  0  0  0
   27.7570  -19.4277   -6.0680 S   0  0  0  0  0  0  0  0  0  0  0  0
   26.3420  -20.2807   -6.8532 C   0  0  0  0  0  0  0  0  0  0  0  0
   26.5627  -20.4151   -8.3393 C   0  0  0  0  0  0  0  0  0  0  0  0
   25.4128  -21.1035   -8.9781 C   0  0  2  0  0  0  0  0  0  0  0  0
   25.5919  -21.2083  -10.4303 N   0  0  0  0  0  0  0  0  0  0  0  0
   24.1218  -20.5560   -8.6310 C   0  0  0  0  0  0  0  0  0  0  0  0
   23.7709  -20.6262   -7.3960 O   0  0  0  0  0  0  0  0  0  0  0  0
   23.1913  -19.9528   -9.4460 O   0  0  0  0  0  0  0  0  0  0  0  0
  2  1  1  1
  3  2  1  0
  4  9  2  0
  4  3  1  0
  5  4  1  0
  6  7  1  0
  6  5  2  0
  7  8  2  0
  8  9  1  0
 10 17  1  0
 10  2  1  0
 11 10  2  0
 13 12  1  6
 14 13  1  0
 16 15  1  1
 15 13  1  0
 16 17  1  0
 18 16  1  0
 19 18  2  0
 21 20  1  0
 21 22  1  0
 22 23  1  0
 24 23  1  6
 24 26  1  0
 24 25  1  0
 25 18  1  0
 26 28  1  0
 27 26  2  0
M  END
$$$$
