FLM.pdb
     RDKit          3D

 28 28  0  0  1  0  0  0  0  0999 V2000
   23.8841  -20.1817  -15.9851 N   0  0  0  0  0  0  0  0  0  0  0  0
   24.1628  -19.7086  -14.6179 C   0  0  1  0  0  0  0  0  0  0  0  0
   22.8341  -19.6267  -13.8891 C   0  0  0  0  0  0  0  0  0  0  0  0
   21.8546  -18.7680  -14.5814 C   0  0  0  0  0  0  0  0  0  0  0  0
   20.6249  -19.2271  -14.9682 C   0  0  0  0  0  0  0  0  0  0  0  0
   19.6881  -18.4232  -15.6135 C   0  0  0  0  0  0  0  0  0  0  0  0
   20.0344  -17.1100  -15.8639 C   0  0  0  0  0  0  0  0  0  0  0  0
   21.2651  -16.6351  -15.4810 C   0  0  0  0  0  0  0  0  0  0  0  0
   22.1957  -17.4559  -14.8339 C   0  0  0  0  0  0  0  0  0  0  0  0
   24.9279  -20.7855  -13.9459 C   0  0  0  0  0  0  0  0  0  0  0  0
   24.5305  -21.9717  -14.0045 O   0  0  0  0  0  0  0  0  0  0  0  0
   30.3372  -20.0201  -12.9346 C   0  0  0  0  0  0  0  0  0  0  0  0
   28.8089  -20.1011  -12.7802 C   0  0  1  0  0  0  0  0  0  0  0  0
   28.2349  -19.1709  -13.8225 C   0  0  0  0  0  0  0  0  0  0  0  0
   28.3331  -21.4996  -13.0901 C   0  0  0  0  0  0  0  0  0  0  0  0
   26.9090  -21.6697  -12.6610 C   0  0  2  0  0  0  0  0  0  0  0  0
   26.1257  -20.5570  -13.2134 N   0  0  0  0  0  0  0  0  0  0  0  0
   26.7321  -21.7378  -11.2078 C   0  0  0  0  0  0  0  0  0  0  0  0
   27.0579  -22.8133  -10.6253 O   0  0  0  0  0  0  0  0  0  0  0  0
   29.1804  -19.4716   -6.2040 C   0  0  0  0  0  0  0  0  0  0  0  0
   27.4740  -19.1430   -5.6226 S   0  0  0  0  0  0  0  0  0  0  0  0
   26.3555  -20.1320   -6.6796 C   0  0  0  0  0  0  0  0  0  0  0  0
   26.7033  -19.9491   -8.1359 C   0  0  0  0  0  0  0  0  0  0  0  0
   25.8982  -20.8636   -8.9842 C   0  0  2  0  0  0  0  0  0  0  0  0
   26.2264  -20.7026  -10.4049 N   0  0  0  0  0  0  0  0  0  0  0  0
   24.4746  -20.7983   -8.7477 C   0  0  0  0  0  0  0  0  0  0  0  0
   24.0631  -21.1161   -7.5718 O   0  0  0  0  0  0  0  0  0  0  0  0
   23.4701  -20.4341   -9.6151 O   0  0  0  0  0  0  0  0  0  0  0  0
  2  1  1  6
  3  2  1  0
  4  9  2  0
  4  3  1  0
  5  4  1  0
  6  7  1  0
  6  5  2  0
  7  8  2  0
  8  9  1  0
 10 17  1  0
 10  2  1  0
 11 10  2  0
 13 12  1  6
 14 13  1  0
 16 15  1  1
 15 13  1  0
 16 17  1  0
 18 16  1  0
 19 18  2  0
 21 20  1  0
 21 22  1  0
 22 23  1  0
 24 23  1  1
 24 26  1  0
 24 25  1  0
 25 18  1  0
 26 28  1  0
 27 26  2  0
M  END
$$$$
