MER.pdb
     RDKit          3D

 29 28  0  0  1  0  0  0  0  0999 V2000
   28.8692  -21.2035  -10.0108 C   0  0  0  0  0  0  0  0  0  0  0  0
   29.7449  -21.3970  -11.5861 S   0  0  0  0  0  0  0  0  0  0  0  0
   28.5557  -21.2136  -12.9370 C   0  0  0  0  0  0  0  0  0  0  0  0
   27.1367  -21.0934  -12.4032 C   0  0  0  0  0  0  0  0  0  0  0  0
   26.2145  -20.8749  -13.6018 C   0  0  2  0  0  0  0  0  0  0  0  0
   26.7339  -19.7276  -14.3203 N   0  0  0  0  0  0  0  0  0  0  0  0
   24.8674  -20.6039  -13.0412 C   0  0  0  0  0  0  0  0  0  0  0  0
   24.7395  -20.2607  -11.8401 O   0  0  0  0  0  0  0  0  0  0  0  0
   23.6543  -20.7148  -13.8195 N   0  0  0  0  0  0  0  0  0  0  0  0
   22.3623  -20.5332  -13.2589 C   0  0  1  0  0  0  0  0  0  0  0  0
   21.5773  -19.3968  -13.8200 C   0  0  0  0  0  0  0  0  0  0  0  0
   20.2158  -19.1539  -13.3072 C   0  0  0  0  0  0  0  0  0  0  0  0
   19.5088  -18.0721  -13.9879 C   0  0  0  0  0  0  0  0  0  0  0  0
   20.0232  -16.9525  -14.1730 O   0  0  0  0  0  0  0  0  0  0  0  0
   21.5161  -21.7540  -13.3469 C   0  0  0  0  0  0  0  0  0  0  0  0
   21.4545  -22.3596  -14.4511 O   0  0  0  0  0  0  0  0  0  0  0  0
   18.1923  -18.2529  -14.4722 O   0  0  0  0  0  0  0  0  0  0  0  0
   18.7656  -24.7127   -7.0339 N   0  0  0  0  0  0  0  0  0  0  0  0
   17.5732  -25.1013   -7.7045 C   0  0  0  0  0  0  0  0  0  0  0  0
   16.4560  -24.8866   -7.1292 N   0  0  0  0  0  0  0  0  0  0  0  0
   17.6757  -25.7084   -8.9795 N   0  0  0  0  0  0  0  0  0  0  0  0
   18.9551  -25.8337   -9.6051 C   0  0  0  0  0  0  0  0  0  0  0  0
   18.8601  -25.2660  -11.0295 C   0  0  0  0  0  0  0  0  0  0  0  0
   19.7875  -24.0958  -11.0705 C   0  0  0  0  0  0  0  0  0  0  0  0
   19.8849  -23.4472  -12.4351 C   0  0  2  0  0  0  0  0  0  0  0  0
   20.7650  -22.2987  -12.2788 N   0  0  0  0  0  0  0  0  0  0  0  0
   18.5016  -22.9995  -12.7829 C   0  0  0  0  0  0  0  0  0  0  0  0
   17.6393  -23.7584  -13.5344 O   0  0  0  0  0  0  0  0  0  0  0  0
   18.1047  -21.8782  -12.3713 O   0  0  0  0  0  0  0  0  0  0  0  0
  2  1  1  0
  3  2  1  0
  4  5  1  0
  4  3  1  0
  5  6  1  1
  7  5  1  0
  7  8  2  0
  9  7  1  0
 10  9  1  0
 10 11  1  6
 12 11  1  0
 12 13  1  0
 13 17  1  0
 13 14  2  0
 15 10  1  0
 16 15  2  0
 18 19  1  0
 19 20  2  0
 19 21  1  0
 21 22  1  0
 22 23  1  0
 23 24  1  0
 25 24  1  1
 25 26  1  0
 25 27  1  0
 26 15  1  0
 27 28  1  0
 29 27  2  0
M  END
$$$$
