MER.pdb
     RDKit          3D

 29 28  0  0  1  0  0  0  0  0999 V2000
   28.3055  -18.1606   -5.4220 C   0  0  0  0  0  0  0  0  0  0  0  0
   28.2911  -19.8618   -4.7965 S   0  0  0  0  0  0  0  0  0  0  0  0
   28.1735  -20.9954   -6.2014 C   0  0  0  0  0  0  0  0  0  0  0  0
   27.4174  -20.3574   -7.3565 C   0  0  0  0  0  0  0  0  0  0  0  0
   27.3387  -21.3918   -8.4782 C   0  0  2  0  0  0  0  0  0  0  0  0
   28.7022  -21.6547   -8.8957 N   0  0  0  0  0  0  0  0  0  0  0  0
   26.5469  -20.7626   -9.5643 C   0  0  0  0  0  0  0  0  0  0  0  0
   26.8118  -19.5961   -9.9458 O   0  0  0  0  0  0  0  0  0  0  0  0
   25.4534  -21.4332  -10.2309 N   0  0  0  0  0  0  0  0  0  0  0  0
   24.9419  -21.0084  -11.4857 C   0  0  1  0  0  0  0  0  0  0  0  0
   25.2206  -21.9217  -12.6305 C   0  0  0  0  0  0  0  0  0  0  0  0
   26.6019  -22.0205  -13.1387 C   0  0  0  0  0  0  0  0  0  0  0  0
   26.9076  -21.0807  -14.2143 C   0  0  0  0  0  0  0  0  0  0  0  0
   26.0519  -20.3096  -14.6889 O   0  0  0  0  0  0  0  0  0  0  0  0
   23.4762  -20.7537  -11.4571 C   0  0  0  0  0  0  0  0  0  0  0  0
   22.8040  -21.2394  -10.5073 O   0  0  0  0  0  0  0  0  0  0  0  0
   28.2063  -21.0059  -14.7696 O   0  0  0  0  0  0  0  0  0  0  0  0
   17.7834  -17.7272  -17.3638 N   0  0  0  0  0  0  0  0  0  0  0  0
   17.2793  -17.1632  -16.1595 C   0  0  0  0  0  0  0  0  0  0  0  0
   16.1527  -16.5676  -16.1934 N   0  0  0  0  0  0  0  0  0  0  0  0
   18.0469  -17.2864  -14.9761 N   0  0  0  0  0  0  0  0  0  0  0  0
   19.3270  -17.9212  -15.0235 C   0  0  0  0  0  0  0  0  0  0  0  0
   19.4912  -18.7844  -13.7631 C   0  0  0  0  0  0  0  0  0  0  0  0
   20.9594  -19.0092  -13.6048 C   0  0  0  0  0  0  0  0  0  0  0  0
   21.3134  -19.8973  -12.4308 C   0  0  2  0  0  0  0  0  0  0  0  0
   22.7651  -20.0010  -12.4211 N   0  0  0  0  0  0  0  0  0  0  0  0
   20.6983  -21.2296  -12.7163 C   0  0  0  0  0  0  0  0  0  0  0  0
   19.4770  -21.6091  -12.2176 O   0  0  0  0  0  0  0  0  0  0  0  0
   21.3232  -22.0434  -13.4454 O   0  0  0  0  0  0  0  0  0  0  0  0
  2  1  1  0
  3  2  1  0
  4  5  1  0
  4  3  1  0
  5  6  1  6
  7  5  1  0
  7  8  2  0
  9  7  1  0
 10  9  1  0
 10 11  1  6
 12 11  1  0
 12 13  1  0
 13 17  1  0
 13 14  2  0
 15 10  1  0
 16 15  2  0
 18 19  1  0
 19 20  2  0
 19 21  1  0
 21 22  1  0
 22 23  1  0
 23 24  1  0
 25 24  1  6
 25 26  1  0
 25 27  1  0
 26 15  1  0
 27 28  1  0
 29 27  2  0
M  END
$$$$
