MER.pdb
     RDKit          3D

 29 28  0  0  1  0  0  0  0  0999 V2000
   20.7087  -11.8886    4.8569 C   0  0  0  0  0  0  0  0  0  0  0  0
   18.9830  -11.8377    4.3045 S   0  0  0  0  0  0  0  0  0  0  0  0
   17.9636  -12.7293    5.5039 C   0  0  0  0  0  0  0  0  0  0  0  0
   18.3179  -14.2081    5.5298 C   0  0  0  0  0  0  0  0  0  0  0  0
   17.4867  -14.8579    6.6350 C   0  0  2  0  0  0  0  0  0  0  0  0
   18.0038  -14.3544    7.8926 N   0  0  0  0  0  0  0  0  0  0  0  0
   17.6989  -16.3209    6.5041 C   0  0  0  0  0  0  0  0  0  0  0  0
   18.7894  -16.7653    6.0682 O   0  0  0  0  0  0  0  0  0  0  0  0
   16.6933  -17.2968    6.8593 N   0  0  0  0  0  0  0  0  0  0  0  0
   16.9121  -18.6964    6.7607 C   0  0  1  0  0  0  0  0  0  0  0  0
   16.7907  -19.4528    8.0396 C   0  0  0  0  0  0  0  0  0  0  0  0
   16.9884  -20.9144    8.0204 C   0  0  0  0  0  0  0  0  0  0  0  0
   16.8492  -21.5499    9.3282 C   0  0  0  0  0  0  0  0  0  0  0  0
   16.1318  -22.5523    9.5092 O   0  0  0  0  0  0  0  0  0  0  0  0
   16.0252  -19.3521    5.7620 C   0  0  0  0  0  0  0  0  0  0  0  0
   14.8062  -19.0300    5.7432 O   0  0  0  0  0  0  0  0  0  0  0  0
   17.5327  -21.0466   10.4596 O   0  0  0  0  0  0  0  0  0  0  0  0
   16.0189  -23.7087   -0.7048 N   0  0  0  0  0  0  0  0  0  0  0  0
   15.0158  -22.8990   -1.3052 C   0  0  0  0  0  0  0  0  0  0  0  0
   14.2663  -23.4212   -2.1945 N   0  0  0  0  0  0  0  0  0  0  0  0
   14.8908  -21.5506   -0.8917 N   0  0  0  0  0  0  0  0  0  0  0  0
   15.7401  -21.0433    0.1404 C   0  0  0  0  0  0  0  0  0  0  0  0
   15.1856  -21.5006    1.4983 C   0  0  0  0  0  0  0  0  0  0  0  0
   16.0174  -20.8191    2.5349 C   0  0  0  0  0  0  0  0  0  0  0  0
   15.5160  -21.0283    3.9481 C   0  0  2  0  0  0  0  0  0  0  0  0
   16.4427  -20.3203    4.8187 N   0  0  0  0  0  0  0  0  0  0  0  0
   15.5856  -22.5001    4.2009 C   0  0  0  0  0  0  0  0  0  0  0  0
   16.7648  -23.1603    4.4414 O   0  0  0  0  0  0  0  0  0  0  0  0
   14.5191  -23.1686    4.1941 O   0  0  0  0  0  0  0  0  0  0  0  0
  2  1  1  0
  3  2  1  0
  4  5  1  0
  4  3  1  0
  5  6  1  1
  7  5  1  0
  7  8  2  0
  9  7  1  0
 10  9  1  0
 10 11  1  1
 12 11  1  0
 12 13  1  0
 13 17  1  0
 13 14  2  0
 15 10  1  0
 16 15  2  0
 18 19  1  0
 19 20  2  0
 19 21  1  0
 21 22  1  0
 22 23  1  0
 23 24  1  0
 25 24  1  6
 25 26  1  0
 25 27  1  0
 26 15  1  0
 27 28  1  0
 29 27  2  0
M  END
$$$$
