MER.pdb
     RDKit          3D

 29 28  0  0  1  0  0  0  0  0999 V2000
   29.8670  -20.4942   -6.9494 C   0  0  0  0  0  0  0  0  0  0  0  0
   28.7791  -19.3993   -5.9990 S   0  0  0  0  0  0  0  0  0  0  0  0
   27.1275  -19.4406   -6.7359 C   0  0  0  0  0  0  0  0  0  0  0  0
   27.1961  -19.8056   -8.2107 C   0  0  0  0  0  0  0  0  0  0  0  0
   25.7679  -19.7865   -8.7532 C   0  0  2  0  0  0  0  0  0  0  0  0
   25.0493  -20.8414   -8.0653 N   0  0  0  0  0  0  0  0  0  0  0  0
   25.8760  -20.0585  -10.2081 C   0  0  0  0  0  0  0  0  0  0  0  0
   26.5048  -19.2683  -10.9543 O   0  0  0  0  0  0  0  0  0  0  0  0
   25.2818  -21.2157  -10.8386 N   0  0  0  0  0  0  0  0  0  0  0  0
   25.1735  -21.3522  -12.2479 C   0  0  1  0  0  0  0  0  0  0  0  0
   25.3356  -22.7395  -12.7689 C   0  0  0  0  0  0  0  0  0  0  0  0
   25.3025  -22.9575  -14.2274 C   0  0  0  0  0  0  0  0  0  0  0  0
   25.6141  -24.3264  -14.6306 C   0  0  0  0  0  0  0  0  0  0  0  0
   25.6046  -24.6887  -15.8226 O   0  0  0  0  0  0  0  0  0  0  0  0
   23.8944  -20.8143  -12.7851 C   0  0  0  0  0  0  0  0  0  0  0  0
   22.8302  -21.0658  -12.1572 O   0  0  0  0  0  0  0  0  0  0  0  0
   25.9444  -25.3116  -13.6710 O   0  0  0  0  0  0  0  0  0  0  0  0
   20.1978  -15.8276  -17.7026 N   0  0  0  0  0  0  0  0  0  0  0  0
   21.5853  -15.5422  -17.5770 C   0  0  0  0  0  0  0  0  0  0  0  0
   21.9396  -14.3375  -17.3573 N   0  0  0  0  0  0  0  0  0  0  0  0
   22.5131  -16.6046  -17.7003 N   0  0  0  0  0  0  0  0  0  0  0  0
   22.0413  -17.9393  -17.8998 C   0  0  0  0  0  0  0  0  0  0  0  0
   21.5573  -18.4931  -16.5508 C   0  0  0  0  0  0  0  0  0  0  0  0
   22.7792  -18.9759  -15.8402 C   0  0  0  0  0  0  0  0  0  0  0  0
   22.4887  -19.6045  -14.4938 C   0  0  2  0  0  0  0  0  0  0  0  0
   23.7723  -20.0330  -13.9583 N   0  0  0  0  0  0  0  0  0  0  0  0
   21.6171  -20.7881  -14.7663 C   0  0  0  0  0  0  0  0  0  0  0  0
   20.2629  -20.7843  -14.5412 O   0  0  0  0  0  0  0  0  0  0  0  0
   22.1423  -21.8370  -15.2223 O   0  0  0  0  0  0  0  0  0  0  0  0
  2  1  1  0
  3  2  1  0
  4  5  1  0
  4  3  1  0
  5  6  1  1
  7  5  1  0
  7  8  2  0
  9  7  1  0
 10  9  1  0
 10 11  1  1
 12 11  1  0
 12 13  1  0
 13 17  1  0
 13 14  2  0
 15 10  1  0
 16 15  2  0
 18 19  1  0
 19 20  2  0
 19 21  1  0
 21 22  1  0
 22 23  1  0
 23 24  1  0
 25 24  1  6
 25 26  1  0
 25 27  1  0
 26 15  1  0
 27 28  1  0
 29 27  2  0
M  END
$$$$
