MER.pdb
     RDKit          3D

 29 28  0  0  1  0  0  0  0  0999 V2000
   17.3490  -12.0858  -17.9897 C   0  0  0  0  0  0  0  0  0  0  0  0
   17.9453  -13.5492  -18.8777 S   0  0  0  0  0  0  0  0  0  0  0  0
   19.7455  -13.6305  -18.7187 C   0  0  0  0  0  0  0  0  0  0  0  0
   20.2653  -12.5196  -17.8193 C   0  0  0  0  0  0  0  0  0  0  0  0
   21.7880  -12.6392  -17.7789 C   0  0  2  0  0  0  0  0  0  0  0  0
   22.0878  -13.8872  -17.1044 N   0  0  0  0  0  0  0  0  0  0  0  0
   22.2727  -11.4698  -17.0043 C   0  0  0  0  0  0  0  0  0  0  0  0
   22.0739  -11.4049  -15.7662 O   0  0  0  0  0  0  0  0  0  0  0  0
   22.9827  -10.3651  -17.6085 N   0  0  0  0  0  0  0  0  0  0  0  0
   23.3509   -9.2001  -16.8847 C   0  0  1  0  0  0  0  0  0  0  0  0
   24.5579   -8.4880  -17.3929 C   0  0  0  0  0  0  0  0  0  0  0  0
   25.8512   -9.1975  -17.3953 C   0  0  0  0  0  0  0  0  0  0  0  0
   26.9312   -8.4615  -18.0475 C   0  0  0  0  0  0  0  0  0  0  0  0
   27.9378   -9.0289  -18.5134 O   0  0  0  0  0  0  0  0  0  0  0  0
   22.2476   -8.2065  -16.7869 C   0  0  0  0  0  0  0  0  0  0  0  0
   21.4372   -8.1173  -17.7488 O   0  0  0  0  0  0  0  0  0  0  0  0
   26.8785   -7.0543  -18.1792 O   0  0  0  0  0  0  0  0  0  0  0  0
   16.7474  -10.9447  -13.6657 N   0  0  0  0  0  0  0  0  0  0  0  0
   16.5506   -9.6466  -13.1191 C   0  0  0  0  0  0  0  0  0  0  0  0
   15.5873   -9.4716  -12.3028 N   0  0  0  0  0  0  0  0  0  0  0  0
   17.4303   -8.6055  -13.5026 N   0  0  0  0  0  0  0  0  0  0  0  0
   17.3782   -8.0867  -14.8338 C   0  0  0  0  0  0  0  0  0  0  0  0
   18.3871   -6.9337  -14.9487 C   0  0  0  0  0  0  0  0  0  0  0  0
   19.7033   -7.5663  -15.2623 C   0  0  0  0  0  0  0  0  0  0  0  0
   20.8101   -6.5661  -15.5213 C   0  0  2  0  0  0  0  0  0  0  0  0
   22.0300   -7.3419  -15.6883 N   0  0  0  0  0  0  0  0  0  0  0  0
   20.8979   -5.7156  -14.2950 C   0  0  0  0  0  0  0  0  0  0  0  0
   20.1493   -4.5781  -14.1214 O   0  0  0  0  0  0  0  0  0  0  0  0
   21.6914   -6.0524  -13.3778 O   0  0  0  0  0  0  0  0  0  0  0  0
  2  1  1  0
  3  2  1  0
  4  5  1  0
  4  3  1  0
  5  6  1  1
  7  5  1  0
  7  8  2  0
  9  7  1  0
 10  9  1  0
 10 11  1  6
 12 11  1  0
 12 13  1  0
 13 17  1  0
 13 14  2  0
 15 10  1  0
 16 15  2  0
 18 19  1  0
 19 20  2  0
 19 21  1  0
 21 22  1  0
 22 23  1  0
 23 24  1  0
 25 24  1  1
 25 26  1  0
 25 27  1  0
 26 15  1  0
 27 28  1  0
 29 27  2  0
M  END
$$$$
