MER.pdb
     RDKit          3D

 29 28  0  0  1  0  0  0  0  0999 V2000
   22.2156  -20.6087  -15.7662 C   0  0  0  0  0  0  0  0  0  0  0  0
   22.3098  -22.1816  -16.6621 S   0  0  0  0  0  0  0  0  0  0  0  0
   20.9272  -23.2273  -16.1448 C   0  0  0  0  0  0  0  0  0  0  0  0
   20.6494  -23.0697  -14.6579 C   0  0  0  0  0  0  0  0  0  0  0  0
   19.5382  -24.0532  -14.2938 C   0  0  2  0  0  0  0  0  0  0  0  0
   18.3942  -23.7084  -15.1152 N   0  0  0  0  0  0  0  0  0  0  0  0
   19.2580  -23.8429  -12.8516 C   0  0  0  0  0  0  0  0  0  0  0  0
   20.1288  -24.1217  -11.9910 O   0  0  0  0  0  0  0  0  0  0  0  0
   18.0025  -23.3199  -12.3620 N   0  0  0  0  0  0  0  0  0  0  0  0
   17.7479  -23.0981  -10.9827 C   0  0  1  0  0  0  0  0  0  0  0  0
   16.6889  -22.0928  -10.6829 C   0  0  0  0  0  0  0  0  0  0  0  0
   15.3411  -22.2927  -11.2481 C   0  0  0  0  0  0  0  0  0  0  0  0
   14.3588  -21.3068  -10.8047 C   0  0  0  0  0  0  0  0  0  0  0  0
   13.1739  -21.6077  -10.5649 O   0  0  0  0  0  0  0  0  0  0  0  0
   17.4065  -24.3468  -10.2489 C   0  0  0  0  0  0  0  0  0  0  0  0
   16.8210  -25.2687  -10.8790 O   0  0  0  0  0  0  0  0  0  0  0  0
   14.7170  -19.9502  -10.6266 O   0  0  0  0  0  0  0  0  0  0  0  0
   18.9972  -26.5066   -1.8777 N   0  0  0  0  0  0  0  0  0  0  0  0
   18.2608  -27.6345   -2.3336 C   0  0  0  0  0  0  0  0  0  0  0  0
   18.1107  -28.6219   -1.5413 N   0  0  0  0  0  0  0  0  0  0  0  0
   17.7261  -27.6144   -3.6445 N   0  0  0  0  0  0  0  0  0  0  0  0
   18.1519  -26.6107   -4.5693 C   0  0  0  0  0  0  0  0  0  0  0  0
   17.4096  -26.8238   -5.8975 C   0  0  0  0  0  0  0  0  0  0  0  0
   17.8376  -25.7079   -6.7935 C   0  0  0  0  0  0  0  0  0  0  0  0
   17.2281  -25.7744   -8.1779 C   0  0  2  0  0  0  0  0  0  0  0  0
   17.6889  -24.5880   -8.8837 N   0  0  0  0  0  0  0  0  0  0  0  0
   15.7468  -25.7220   -7.9835 C   0  0  0  0  0  0  0  0  0  0  0  0
   14.9652  -26.8476   -7.9024 O   0  0  0  0  0  0  0  0  0  0  0  0
   15.1859  -24.5991   -7.8892 O   0  0  0  0  0  0  0  0  0  0  0  0
  2  1  1  0
  3  2  1  0
  4  5  1  0
  4  3  1  0
  5  6  1  6
  7  5  1  0
  7  8  2  0
  9  7  1  0
 10  9  1  0
 10 11  1  6
 12 11  1  0
 12 13  1  0
 13 17  1  0
 13 14  2  0
 15 10  1  0
 16 15  2  0
 18 19  1  0
 19 20  2  0
 19 21  1  0
 21 22  1  0
 22 23  1  0
 23 24  1  0
 25 24  1  1
 25 26  1  0
 25 27  1  0
 26 15  1  0
 27 28  1  0
 29 27  2  0
M  END
$$$$
