MER.pdb
     RDKit          3D

 29 28  0  0  1  0  0  0  0  0999 V2000
   20.9614  -18.6993  -23.0245 C   0  0  0  0  0  0  0  0  0  0  0  0
   21.7253  -19.9355  -21.9410 S   0  0  0  0  0  0  0  0  0  0  0  0
   21.7699  -19.2808  -20.2552 C   0  0  0  0  0  0  0  0  0  0  0  0
   20.7565  -18.1609  -20.0770 C   0  0  0  0  0  0  0  0  0  0  0  0
   21.1663  -17.3666  -18.8377 C   0  0  2  0  0  0  0  0  0  0  0  0
   21.6095  -18.3345  -17.8532 N   0  0  0  0  0  0  0  0  0  0  0  0
   19.9483  -16.6482  -18.3873 C   0  0  0  0  0  0  0  0  0  0  0  0
   19.4102  -15.7893  -19.1285 O   0  0  0  0  0  0  0  0  0  0  0  0
   19.3239  -16.8850  -17.1052 N   0  0  0  0  0  0  0  0  0  0  0  0
   18.1548  -16.1994  -16.6815 C   0  0  1  0  0  0  0  0  0  0  0  0
   17.3650  -16.8823  -15.6174 C   0  0  0  0  0  0  0  0  0  0  0  0
   16.7207  -18.1719  -15.9300 C   0  0  0  0  0  0  0  0  0  0  0  0
   15.9639  -18.7425  -14.8186 C   0  0  0  0  0  0  0  0  0  0  0  0
   15.8972  -18.1896  -13.7041 O   0  0  0  0  0  0  0  0  0  0  0  0
   18.4325  -14.8128  -16.2187 C   0  0  0  0  0  0  0  0  0  0  0  0
   19.4773  -14.6064  -15.5437 O   0  0  0  0  0  0  0  0  0  0  0  0
   15.2654  -19.9638  -14.9633 O   0  0  0  0  0  0  0  0  0  0  0  0
   18.1205   -7.6280  -20.6390 N   0  0  0  0  0  0  0  0  0  0  0  0
   18.3670   -7.0820  -19.3492 C   0  0  0  0  0  0  0  0  0  0  0  0
   18.6258   -5.8372  -19.2565 N   0  0  0  0  0  0  0  0  0  0  0  0
   18.3145   -7.9406  -18.2245 N   0  0  0  0  0  0  0  0  0  0  0  0
   18.0264   -9.3294  -18.4048 C   0  0  0  0  0  0  0  0  0  0  0  0
   18.1239  -10.0296  -17.0407 C   0  0  0  0  0  0  0  0  0  0  0  0
   17.8799  -11.4797  -17.3025 C   0  0  0  0  0  0  0  0  0  0  0  0
   17.9572  -12.3413  -16.0599 C   0  0  2  0  0  0  0  0  0  0  0  0
   17.6095  -13.6914  -16.4774 N   0  0  0  0  0  0  0  0  0  0  0  0
   16.9272  -11.8064  -15.1176 C   0  0  0  0  0  0  0  0  0  0  0  0
   17.2036  -10.8429  -14.1797 O   0  0  0  0  0  0  0  0  0  0  0  0
   15.7531  -12.2554  -15.1825 O   0  0  0  0  0  0  0  0  0  0  0  0
  2  1  1  0
  3  2  1  0
  4  5  1  0
  4  3  1  0
  5  6  1  1
  7  5  1  0
  7  8  2  0
  9  7  1  0
 10  9  1  0
 10 11  1  1
 12 11  1  0
 12 13  1  0
 13 17  1  0
 13 14  2  0
 15 10  1  0
 16 15  2  0
 18 19  1  0
 19 20  2  0
 19 21  1  0
 21 22  1  0
 22 23  1  0
 23 24  1  0
 25 24  1  6
 25 26  1  0
 25 27  1  0
 26 15  1  0
 27 28  1  0
 29 27  2  0
M  END
$$$$
