MER.pdb
     RDKit          3D

 29 28  0  0  1  0  0  0  0  0999 V2000
   22.2837  -18.8056  -14.1441 C   0  0  0  0  0  0  0  0  0  0  0  0
   20.8230  -19.5124  -13.3363 S   0  0  0  0  0  0  0  0  0  0  0  0
   21.3437  -20.9176  -12.3230 C   0  0  0  0  0  0  0  0  0  0  0  0
   20.1611  -21.5292  -11.5879 C   0  0  0  0  0  0  0  0  0  0  0  0
   19.6365  -22.6807  -12.4443 C   0  0  2  0  0  0  0  0  0  0  0  0
   18.7988  -22.0872  -13.4683 N   0  0  0  0  0  0  0  0  0  0  0  0
   18.8511  -23.5484  -11.5318 C   0  0  0  0  0  0  0  0  0  0  0  0
   17.7173  -23.1847  -11.1332 O   0  0  0  0  0  0  0  0  0  0  0  0
   19.3281  -24.8283  -11.0586 N   0  0  0  0  0  0  0  0  0  0  0  0
   18.5692  -25.6588  -10.1921 C   0  0  1  0  0  0  0  0  0  0  0  0
   19.0193  -27.0777  -10.1120 C   0  0  0  0  0  0  0  0  0  0  0  0
   18.2508  -28.0191   -9.2759 C   0  0  0  0  0  0  0  0  0  0  0  0
   18.7462  -29.3925   -9.3192 C   0  0  0  0  0  0  0  0  0  0  0  0
   19.7842  -29.7457   -8.7275 O   0  0  0  0  0  0  0  0  0  0  0  0
   18.4927  -25.1298   -8.8034 C   0  0  0  0  0  0  0  0  0  0  0  0
   19.5314  -24.6229   -8.2993 O   0  0  0  0  0  0  0  0  0  0  0  0
   18.0585  -30.3930  -10.0449 O   0  0  0  0  0  0  0  0  0  0  0  0
   14.5476  -23.5669   -1.8476 N   0  0  0  0  0  0  0  0  0  0  0  0
   13.9825  -22.5719   -2.6921 C   0  0  0  0  0  0  0  0  0  0  0  0
   13.7181  -21.4297   -2.1914 N   0  0  0  0  0  0  0  0  0  0  0  0
   13.7379  -22.8898   -4.0500 N   0  0  0  0  0  0  0  0  0  0  0  0
   14.1400  -24.1615   -4.5647 C   0  0  0  0  0  0  0  0  0  0  0  0
   15.6574  -24.1341   -4.8041 C   0  0  0  0  0  0  0  0  0  0  0  0
   15.8643  -24.6253   -6.1994 C   0  0  0  0  0  0  0  0  0  0  0  0
   17.3170  -24.6449   -6.6258 C   0  0  2  0  0  0  0  0  0  0  0  0
   17.3345  -25.1488   -7.9911 N   0  0  0  0  0  0  0  0  0  0  0  0
   18.0072  -25.6027   -5.7086 C   0  0  0  0  0  0  0  0  0  0  0  0
   17.9737  -26.9631   -5.8888 O   0  0  0  0  0  0  0  0  0  0  0  0
   18.6489  -25.1474   -4.7262 O   0  0  0  0  0  0  0  0  0  0  0  0
  2  1  1  0
  3  2  1  0
  4  5  1  0
  4  3  1  0
  5  6  1  6
  7  5  1  0
  7  8  2  0
  9  7  1  0
 10  9  1  0
 10 11  1  1
 12 11  1  0
 12 13  1  0
 13 17  1  0
 13 14  2  0
 15 10  1  0
 16 15  2  0
 18 19  1  0
 19 20  2  0
 19 21  1  0
 21 22  1  0
 22 23  1  0
 23 24  1  0
 25 24  1  1
 25 26  1  0
 25 27  1  0
 26 15  1  0
 27 28  1  0
 29 27  2  0
M  END
$$$$
