MER.pdb
     RDKit          3D

 29 28  0  0  1  0  0  0  0  0999 V2000
   29.7315  -19.7586  -11.2119 C   0  0  0  0  0  0  0  0  0  0  0  0
   29.5031  -21.4262  -10.5390 S   0  0  0  0  0  0  0  0  0  0  0  0
   27.8444  -22.0040  -10.9719 C   0  0  0  0  0  0  0  0  0  0  0  0
   26.9622  -20.8483  -11.4179 C   0  0  0  0  0  0  0  0  0  0  0  0
   25.5743  -21.4180  -11.7074 C   0  0  2  0  0  0  0  0  0  0  0  0
   25.7787  -22.7226  -12.3063 N   0  0  0  0  0  0  0  0  0  0  0  0
   24.9320  -20.4758  -12.6572 C   0  0  0  0  0  0  0  0  0  0  0  0
   24.3147  -19.4694  -12.2297 O   0  0  0  0  0  0  0  0  0  0  0  0
   24.9753  -20.6524  -14.0913 N   0  0  0  0  0  0  0  0  0  0  0  0
   24.3539  -19.7512  -14.9957 C   0  0  1  0  0  0  0  0  0  0  0  0
   25.2642  -19.1179  -15.9920 C   0  0  0  0  0  0  0  0  0  0  0  0
   24.7037  -18.1398  -16.9434 C   0  0  0  0  0  0  0  0  0  0  0  0
   25.7027  -17.5012  -17.7964 C   0  0  0  0  0  0  0  0  0  0  0  0
   26.1461  -18.0452  -18.8258 O   0  0  0  0  0  0  0  0  0  0  0  0
   23.2247  -20.3678  -15.7432 C   0  0  0  0  0  0  0  0  0  0  0  0
   23.3918  -21.5155  -16.2379 O   0  0  0  0  0  0  0  0  0  0  0  0
   26.2158  -16.2205  -17.4849 O   0  0  0  0  0  0  0  0  0  0  0  0
   19.0725  -17.8587  -12.2421 N   0  0  0  0  0  0  0  0  0  0  0  0
   18.1335  -17.2188  -13.0973 C   0  0  0  0  0  0  0  0  0  0  0  0
   17.8746  -15.9862  -12.8998 N   0  0  0  0  0  0  0  0  0  0  0  0
   17.5272  -17.9744  -14.1298 N   0  0  0  0  0  0  0  0  0  0  0  0
   18.0617  -19.2530  -14.4811 C   0  0  0  0  0  0  0  0  0  0  0  0
   19.3130  -19.0384  -15.3463 C   0  0  0  0  0  0  0  0  0  0  0  0
   19.6671  -20.3796  -15.9003 C   0  0  0  0  0  0  0  0  0  0  0  0
   20.9156  -20.3712  -16.7568 C   0  0  2  0  0  0  0  0  0  0  0  0
   21.9615  -19.7641  -15.9471 N   0  0  0  0  0  0  0  0  0  0  0  0
   20.6046  -19.5087  -17.9376 C   0  0  0  0  0  0  0  0  0  0  0  0
   21.1270  -18.2496  -18.0992 O   0  0  0  0  0  0  0  0  0  0  0  0
   19.8304  -19.9511  -18.8258 O   0  0  0  0  0  0  0  0  0  0  0  0
  2  1  1  0
  3  2  1  0
  4  5  1  0
  4  3  1  0
  5  6  1  6
  7  5  1  0
  7  8  2  0
  9  7  1  0
 10  9  1  0
 10 11  1  6
 12 11  1  0
 12 13  1  0
 13 17  1  0
 13 14  2  0
 15 10  1  0
 16 15  2  0
 18 19  1  0
 19 20  2  0
 19 21  1  0
 21 22  1  0
 22 23  1  0
 23 24  1  0
 25 24  1  1
 25 26  1  0
 25 27  1  0
 26 15  1  0
 27 28  1  0
 29 27  2  0
M  END
$$$$
