MER.pdb
     RDKit          3D

 29 28  0  0  1  0  0  0  0  0999 V2000
   30.5220  -20.6839  -11.6469 C   0  0  0  0  0  0  0  0  0  0  0  0
   30.1439  -21.1324   -9.9319 S   0  0  0  0  0  0  0  0  0  0  0  0
   28.4135  -21.6512   -9.8360 C   0  0  0  0  0  0  0  0  0  0  0  0
   27.5586  -20.8900  -10.8373 C   0  0  0  0  0  0  0  0  0  0  0  0
   26.1442  -21.4625  -10.7590 C   0  0  2  0  0  0  0  0  0  0  0  0
   26.2476  -22.8694  -11.0944 N   0  0  0  0  0  0  0  0  0  0  0  0
   25.3427  -20.7194  -11.7631 C   0  0  0  0  0  0  0  0  0  0  0  0
   25.0249  -19.5221  -11.5581 O   0  0  0  0  0  0  0  0  0  0  0  0
   24.8909  -21.3100  -13.0027 N   0  0  0  0  0  0  0  0  0  0  0  0
   24.1109  -20.5994  -13.9531 C   0  0  1  0  0  0  0  0  0  0  0  0
   24.1855  -21.1121  -15.3510 C   0  0  0  0  0  0  0  0  0  0  0  0
   24.8895  -20.3052  -16.3654 C   0  0  0  0  0  0  0  0  0  0  0  0
   24.9097  -20.9091  -17.6953 C   0  0  0  0  0  0  0  0  0  0  0  0
   25.9604  -21.0406  -18.3518 O   0  0  0  0  0  0  0  0  0  0  0  0
   22.6734  -20.5182  -13.5776 C   0  0  0  0  0  0  0  0  0  0  0  0
   22.1856  -21.4465  -12.8774 O   0  0  0  0  0  0  0  0  0  0  0  0
   23.7204  -21.3763  -18.3018 O   0  0  0  0  0  0  0  0  0  0  0  0
   15.3885  -20.9410  -15.0847 N   0  0  0  0  0  0  0  0  0  0  0  0
   15.1594  -19.5460  -14.9302 C   0  0  0  0  0  0  0  0  0  0  0  0
   14.0629  -19.0596  -15.3619 N   0  0  0  0  0  0  0  0  0  0  0  0
   16.1552  -18.7573  -14.3049 N   0  0  0  0  0  0  0  0  0  0  0  0
   17.5333  -18.9769  -14.6156 C   0  0  0  0  0  0  0  0  0  0  0  0
   18.3784  -17.9579  -13.8359 C   0  0  0  0  0  0  0  0  0  0  0  0
   19.7978  -18.2165  -14.2225 C   0  0  0  0  0  0  0  0  0  0  0  0
   20.3976  -19.4323  -13.5482 C   0  0  2  0  0  0  0  0  0  0  0  0
   21.7970  -19.4706  -13.9464 N   0  0  0  0  0  0  0  0  0  0  0  0
   19.6676  -20.6156  -14.0975 C   0  0  0  0  0  0  0  0  0  0  0  0
   18.7365  -21.3188  -13.3743 O   0  0  0  0  0  0  0  0  0  0  0  0
   19.9132  -20.9881  -15.2745 O   0  0  0  0  0  0  0  0  0  0  0  0
  2  1  1  0
  3  2  1  0
  4  5  1  0
  4  3  1  0
  5  6  1  6
  7  5  1  0
  7  8  2  0
  9  7  1  0
 10  9  1  0
 10 11  1  6
 12 11  1  0
 12 13  1  0
 13 17  1  0
 13 14  2  0
 15 10  1  0
 16 15  2  0
 18 19  1  0
 19 20  2  0
 19 21  1  0
 21 22  1  0
 22 23  1  0
 23 24  1  0
 25 24  1  6
 25 26  1  0
 25 27  1  0
 26 15  1  0
 27 28  1  0
 29 27  2  0
M  END
$$$$
