FWN.pdb
     RDKit          3D

 34 36  0  0  1  0  0  0  0  0999 V2000
   26.3788  -21.2497  -14.7112 N   0  0  0  0  0  0  0  0  0  0  0  0
   25.6138  -20.2347  -13.9711 C   0  0  1  0  0  0  0  0  0  0  0  0
   24.3570  -19.9101  -14.7740 C   0  0  0  0  0  0  0  0  0  0  0  0
   24.7306  -19.2653  -16.0670 C   0  0  0  0  0  0  0  0  0  0  0  0
   25.3171  -18.0177  -16.0514 C   0  0  0  0  0  0  0  0  0  0  0  0
   25.6863  -17.3821  -17.2262 C   0  0  0  0  0  0  0  0  0  0  0  0
   25.4829  -17.9680  -18.4524 C   0  0  0  0  0  0  0  0  0  0  0  0
   24.8939  -19.2211  -18.4759 C   0  0  0  0  0  0  0  0  0  0  0  0
   24.5305  -19.8443  -17.2971 C   0  0  0  0  0  0  0  0  0  0  0  0
   25.2542  -20.8335  -12.6607 C   0  0  0  0  0  0  0  0  0  0  0  0
   24.5044  -21.8095  -12.5009 O   0  0  0  0  0  0  0  0  0  0  0  0
   25.8410  -20.2091  -11.5020 N   0  0  0  0  0  0  0  0  0  0  0  0
   25.5344  -20.6665  -10.1682 C   0  0  1  0  0  0  0  0  0  0  0  0
   26.5612  -19.9467   -9.2735 C   0  0  0  0  0  0  0  0  0  0  0  0
   26.4476  -20.3827   -7.8794 C   0  0  0  0  0  0  0  0  0  0  0  0
   25.6587  -21.4206   -7.4352 C   0  0  0  0  0  0  0  0  0  0  0  0
   25.8584  -21.4753   -6.0845 N   0  0  0  0  0  0  0  0  0  0  0  0
   26.7238  -20.5236   -5.7100 C   0  0  0  0  0  0  0  0  0  0  0  0
   27.2284  -20.1869   -4.4877 C   0  0  0  0  0  0  0  0  0  0  0  0
   28.1292  -19.1435   -4.3435 C   0  0  0  0  0  0  0  0  0  0  0  0
   28.5411  -18.4124   -5.4470 C   0  0  0  0  0  0  0  0  0  0  0  0
   28.0204  -18.7687   -6.6674 C   0  0  0  0  0  0  0  0  0  0  0  0
   27.1211  -19.8081   -6.8221 C   0  0  0  0  0  0  0  0  0  0  0  0
   24.1711  -20.3425   -9.7750 C   0  0  0  0  0  0  0  0  0  0  0  0
   23.6787  -19.1656   -9.8987 O   0  0  0  0  0  0  0  0  0  0  0  0
   19.0842  -20.7887   -9.0182 N   0  0  0  0  0  0  0  0  0  0  0  0
   19.6833  -21.3987  -10.1541 C   0  0  0  0  0  0  0  0  0  0  0  0
   18.8344  -21.7874  -11.0314 O   0  0  0  0  0  0  0  0  0  0  0  0
   21.1373  -21.5610  -10.2949 C   0  0  0  0  0  0  0  0  0  0  0  0
   21.8628  -21.0062   -9.1071 C   0  0  2  0  0  0  0  0  0  0  0  0
   23.3162  -21.3289   -9.2335 N   0  0  0  0  0  0  0  0  0  0  0  0
   21.4088  -21.7446   -7.8996 C   0  0  0  0  0  0  0  0  0  0  0  0
   22.2952  -22.5195   -7.1189 O   0  0  0  0  0  0  0  0  0  0  0  0
   20.2297  -21.7474   -7.4755 O   0  0  0  0  0  0  0  0  0  0  0  0
  2  1  1  6
  2  3  1  0
  4  5  2  0
  4  3  1  0
  6  5  1  0
  7  6  2  0
  8  7  1  0
  8  9  2  0
  9  4  1  0
 10  2  1  0
 11 10  2  0
 12 10  1  0
 13 12  1  0
 13 14  1  1
 15 14  1  0
 16 15  2  0
 17 18  1  0
 17 16  1  0
 18 23  2  0
 19 20  2  0
 19 18  1  0
 20 21  1  0
 21 22  2  0
 23 15  1  0
 23 22  1  0
 24 13  1  0
 24 25  2  0
 26 27  1  0
 27 28  2  0
 27 29  1  0
 30 29  1  6
 30 31  1  0
 31 24  1  0
 32 30  1  0
 33 32  1  0
 34 32  2  0
M  END
$$$$
