FWN.pdb
     RDKit          3D

 34 36  0  0  1  0  0  0  0  0999 V2000
   25.2057  -20.8280  -13.9610 N   0  0  0  0  0  0  0  0  0  0  0  0
   24.3498  -20.0988  -13.0129 C   0  0  1  0  0  0  0  0  0  0  0  0
   22.9605  -19.9697  -13.6316 C   0  0  0  0  0  0  0  0  0  0  0  0
   22.9792  -18.9460  -14.7174 C   0  0  0  0  0  0  0  0  0  0  0  0
   21.8664  -18.7935  -15.5168 C   0  0  0  0  0  0  0  0  0  0  0  0
   21.8351  -17.8525  -16.5336 C   0  0  0  0  0  0  0  0  0  0  0  0
   22.9099  -17.0346  -16.7864 C   0  0  0  0  0  0  0  0  0  0  0  0
   24.0314  -17.1822  -15.9874 C   0  0  0  0  0  0  0  0  0  0  0  0
   24.0498  -18.1244  -14.9766 C   0  0  0  0  0  0  0  0  0  0  0  0
   24.2928  -20.9086  -11.7696 C   0  0  0  0  0  0  0  0  0  0  0  0
   24.1974  -22.1453  -11.7242 O   0  0  0  0  0  0  0  0  0  0  0  0
   24.3577  -20.1694  -10.5343 N   0  0  0  0  0  0  0  0  0  0  0  0
   24.2328  -20.8306   -9.2578 C   0  0  1  0  0  0  0  0  0  0  0  0
   25.0319  -19.9395   -8.2879 C   0  0  0  0  0  0  0  0  0  0  0  0
   26.4677  -20.2187   -8.3722 C   0  0  0  0  0  0  0  0  0  0  0  0
   27.0754  -20.9532   -9.3662 C   0  0  0  0  0  0  0  0  0  0  0  0
   28.4053  -20.9577   -9.0520 N   0  0  0  0  0  0  0  0  0  0  0  0
   28.6124  -20.2641   -7.9247 C   0  0  0  0  0  0  0  0  0  0  0  0
   29.7514  -19.9903   -7.2248 C   0  0  0  0  0  0  0  0  0  0  0  0
   29.7181  -19.2363   -6.0623 C   0  0  0  0  0  0  0  0  0  0  0  0
   28.5170  -18.7394   -5.5805 C   0  0  0  0  0  0  0  0  0  0  0  0
   27.3831  -19.0272   -6.3010 C   0  0  0  0  0  0  0  0  0  0  0  0
   27.4055  -19.7785   -7.4620 C   0  0  0  0  0  0  0  0  0  0  0  0
   22.8454  -20.9583   -8.8376 C   0  0  0  0  0  0  0  0  0  0  0  0
   22.0299  -19.9694   -8.8399 O   0  0  0  0  0  0  0  0  0  0  0  0
   19.9321  -21.1795  -10.2978 N   0  0  0  0  0  0  0  0  0  0  0  0
   19.6767  -22.5469  -10.0041 C   0  0  0  0  0  0  0  0  0  0  0  0
   19.0141  -23.1500  -10.9199 O   0  0  0  0  0  0  0  0  0  0  0  0
   20.1345  -23.1929   -8.7659 C   0  0  0  0  0  0  0  0  0  0  0  0
   20.9170  -22.2404   -7.9142 C   0  0  2  0  0  0  0  0  0  0  0  0
   22.3279  -22.2000   -8.4042 N   0  0  0  0  0  0  0  0  0  0  0  0
   21.0026  -22.8071   -6.5427 C   0  0  0  0  0  0  0  0  0  0  0  0
   22.1073  -23.5792   -6.1195 O   0  0  0  0  0  0  0  0  0  0  0  0
   20.1257  -22.6559   -5.6603 O   0  0  0  0  0  0  0  0  0  0  0  0
  2  1  1  6
  2  3  1  0
  4  5  2  0
  4  3  1  0
  6  5  1  0
  7  6  2  0
  8  7  1  0
  8  9  2  0
  9  4  1  0
 10  2  1  0
 11 10  2  0
 12 10  1  0
 13 12  1  0
 13 14  1  1
 15 14  1  0
 16 15  2  0
 17 18  1  0
 17 16  1  0
 18 23  2  0
 19 20  2  0
 19 18  1  0
 20 21  1  0
 21 22  2  0
 23 15  1  0
 23 22  1  0
 24 13  1  0
 24 25  2  0
 26 27  1  0
 27 28  2  0
 27 29  1  0
 30 29  1  6
 30 31  1  0
 31 24  1  0
 32 30  1  0
 33 32  1  0
 34 32  2  0
M  END
$$$$
