FWN.pdb
     RDKit          3D

 34 36  0  0  1  0  0  0  0  0999 V2000
   20.5934  -20.1284  -10.3766 N   0  0  0  0  0  0  0  0  0  0  0  0
   20.8069  -20.5106  -11.7807 C   0  0  1  0  0  0  0  0  0  0  0  0
   19.7562  -19.8004  -12.6299 C   0  0  0  0  0  0  0  0  0  0  0  0
   18.4113  -20.3979  -12.3818 C   0  0  0  0  0  0  0  0  0  0  0  0
   17.4120  -19.6086  -11.8534 C   0  0  0  0  0  0  0  0  0  0  0  0
   16.1461  -20.1177  -11.6111 C   0  0  0  0  0  0  0  0  0  0  0  0
   15.8356  -21.4276  -11.8867 C   0  0  0  0  0  0  0  0  0  0  0  0
   16.8346  -22.2265  -12.4175 C   0  0  0  0  0  0  0  0  0  0  0  0
   18.0929  -21.7066  -12.6545 C   0  0  0  0  0  0  0  0  0  0  0  0
   22.1707  -20.0547  -12.1512 C   0  0  0  0  0  0  0  0  0  0  0  0
   22.6934  -18.9896  -11.7866 O   0  0  0  0  0  0  0  0  0  0  0  0
   22.9214  -20.9438  -13.0012 N   0  0  0  0  0  0  0  0  0  0  0  0
   24.2757  -20.6385  -13.3948 C   0  0  1  0  0  0  0  0  0  0  0  0
   25.1021  -21.8274  -12.8688 C   0  0  0  0  0  0  0  0  0  0  0  0
   25.9510  -21.4265  -11.7438 C   0  0  0  0  0  0  0  0  0  0  0  0
   25.5205  -21.2586  -10.4464 C   0  0  0  0  0  0  0  0  0  0  0  0
   26.6308  -20.8881   -9.7412 N   0  0  0  0  0  0  0  0  0  0  0  0
   27.6928  -20.8291  -10.5559 C   0  0  0  0  0  0  0  0  0  0  0  0
   28.9990  -20.5115  -10.3213 C   0  0  0  0  0  0  0  0  0  0  0  0
   29.9362  -20.5195  -11.3423 C   0  0  0  0  0  0  0  0  0  0  0  0
   29.5645  -20.8532  -12.6355 C   0  0  0  0  0  0  0  0  0  0  0  0
   28.2446  -21.1694  -12.8487 C   0  0  0  0  0  0  0  0  0  0  0  0
   27.3016  -21.1644  -11.8369 C   0  0  0  0  0  0  0  0  0  0  0  0
   24.4111  -20.4971  -14.8369 C   0  0  0  0  0  0  0  0  0  0  0  0
   23.9045  -21.3360  -15.6630 O   0  0  0  0  0  0  0  0  0  0  0  0
   23.7852  -15.9671  -16.2095 N   0  0  0  0  0  0  0  0  0  0  0  0
   23.8851  -17.1746  -16.9533 C   0  0  0  0  0  0  0  0  0  0  0  0
   22.7517  -17.6323  -17.3374 O   0  0  0  0  0  0  0  0  0  0  0  0
   25.1708  -17.8240  -17.2458 C   0  0  0  0  0  0  0  0  0  0  0  0
   25.1384  -19.2781  -16.8864 C   0  0  2  0  0  0  0  0  0  0  0  0
   25.1164  -19.4085  -15.3981 N   0  0  0  0  0  0  0  0  0  0  0  0
   26.4268  -19.8889  -17.3065 C   0  0  0  0  0  0  0  0  0  0  0  0
   26.6463  -20.3386  -18.6276 O   0  0  0  0  0  0  0  0  0  0  0  0
   27.4095  -20.0564  -16.5473 O   0  0  0  0  0  0  0  0  0  0  0  0
  2  1  1  1
  2  3  1  0
  4  5  2  0
  4  3  1  0
  6  5  1  0
  7  6  2  0
  8  7  1  0
  8  9  2  0
  9  4  1  0
 10  2  1  0
 11 10  2  0
 12 10  1  0
 13 12  1  0
 13 14  1  6
 15 14  1  0
 16 15  2  0
 17 18  1  0
 17 16  1  0
 18 23  2  0
 19 20  2  0
 19 18  1  0
 20 21  1  0
 21 22  2  0
 23 15  1  0
 23 22  1  0
 24 13  1  0
 24 25  2  0
 26 27  1  0
 27 28  2  0
 27 29  1  0
 30 29  1  1
 30 31  1  0
 31 24  1  0
 32 30  1  0
 33 32  1  0
 34 32  2  0
M  END
$$$$
