FWN.pdb
     RDKit          3D

 34 36  0  0  1  0  0  0  0  0999 V2000
   31.4305  -24.8584  -16.5184 N   0  0  0  0  0  0  0  0  0  0  0  0
   30.1524  -24.8021  -17.2440 C   0  0  1  0  0  0  0  0  0  0  0  0
   29.3203  -26.0137  -16.8326 C   0  0  0  0  0  0  0  0  0  0  0  0
   28.0135  -26.0030  -17.5532 C   0  0  0  0  0  0  0  0  0  0  0  0
   27.9903  -26.2599  -18.9075 C   0  0  0  0  0  0  0  0  0  0  0  0
   26.8004  -26.2665  -19.6178 C   0  0  0  0  0  0  0  0  0  0  0  0
   25.5972  -26.0173  -19.0026 C   0  0  0  0  0  0  0  0  0  0  0  0
   25.6128  -25.7583  -17.6423 C   0  0  0  0  0  0  0  0  0  0  0  0
   26.8062  -25.7548  -16.9455 C   0  0  0  0  0  0  0  0  0  0  0  0
   29.4774  -23.5441  -16.8356 C   0  0  0  0  0  0  0  0  0  0  0  0
   29.3111  -23.1682  -15.6645 O   0  0  0  0  0  0  0  0  0  0  0  0
   28.9898  -22.7152  -17.9089 N   0  0  0  0  0  0  0  0  0  0  0  0
   28.3473  -21.4502  -17.6462 C   0  0  1  0  0  0  0  0  0  0  0  0
   28.8657  -20.5214  -18.7605 C   0  0  0  0  0  0  0  0  0  0  0  0
   28.3335  -19.1646  -18.6101 C   0  0  0  0  0  0  0  0  0  0  0  0
   28.7578  -18.2457  -17.6760 C   0  0  0  0  0  0  0  0  0  0  0  0
   27.9995  -17.1301  -17.8947 N   0  0  0  0  0  0  0  0  0  0  0  0
   27.1509  -17.3441  -18.9090 C   0  0  0  0  0  0  0  0  0  0  0  0
   26.2098  -16.5435  -19.4882 C   0  0  0  0  0  0  0  0  0  0  0  0
   25.4360  -16.9922  -20.5468 C   0  0  0  0  0  0  0  0  0  0  0  0
   25.6021  -18.2751  -21.0452 C   0  0  0  0  0  0  0  0  0  0  0  0
   26.5551  -19.0636  -20.4470 C   0  0  0  0  0  0  0  0  0  0  0  0
   27.3324  -18.6255  -19.3903 C   0  0  0  0  0  0  0  0  0  0  0  0
   26.8959  -21.5534  -17.6762 C   0  0  0  0  0  0  0  0  0  0  0  0
   26.1299  -20.6565  -17.1745 O   0  0  0  0  0  0  0  0  0  0  0  0
   25.0557  -22.3087  -21.9926 N   0  0  0  0  0  0  0  0  0  0  0  0
   24.3802  -22.1550  -20.7512 C   0  0  0  0  0  0  0  0  0  0  0  0
   23.7869  -21.0259  -20.6298 O   0  0  0  0  0  0  0  0  0  0  0  0
   24.3715  -23.1986  -19.7163 C   0  0  0  0  0  0  0  0  0  0  0  0
   24.7679  -22.6433  -18.3823 C   0  0  2  0  0  0  0  0  0  0  0  0
   26.2578  -22.6645  -18.2725 N   0  0  0  0  0  0  0  0  0  0  0  0
   24.2917  -23.5789  -17.3301 C   0  0  0  0  0  0  0  0  0  0  0  0
   23.0482  -23.4065  -16.6823 O   0  0  0  0  0  0  0  0  0  0  0  0
   24.9330  -24.5791  -16.9319 O   0  0  0  0  0  0  0  0  0  0  0  0
  2  1  1  1
  2  3  1  0
  4  5  2  0
  4  3  1  0
  6  5  1  0
  7  6  2  0
  8  7  1  0
  8  9  2  0
  9  4  1  0
 10  2  1  0
 11 10  2  0
 12 10  1  0
 13 12  1  0
 13 14  1  6
 15 14  1  0
 16 15  2  0
 17 18  1  0
 17 16  1  0
 18 23  2  0
 19 20  2  0
 19 18  1  0
 20 21  1  0
 21 22  2  0
 23 15  1  0
 23 22  1  0
 24 13  1  0
 24 25  2  0
 26 27  1  0
 27 28  2  0
 27 29  1  0
 30 29  1  6
 30 31  1  0
 31 24  1  0
 32 30  1  0
 33 32  1  0
 34 32  2  0
M  END
$$$$
