FWN.pdb
     RDKit          3D

 34 36  0  0  1  0  0  0  0  0999 V2000
   27.6728  -21.4785  -15.5038 N   0  0  0  0  0  0  0  0  0  0  0  0
   27.8745  -20.5356  -14.3932 C   0  0  1  0  0  0  0  0  0  0  0  0
   27.3881  -19.1611  -14.8445 C   0  0  0  0  0  0  0  0  0  0  0  0
   28.3100  -18.6088  -15.8800 C   0  0  0  0  0  0  0  0  0  0  0  0
   27.8352  -18.3919  -17.1560 C   0  0  0  0  0  0  0  0  0  0  0  0
   28.6522  -17.8753  -18.1490 C   0  0  0  0  0  0  0  0  0  0  0  0
   29.9667  -17.5592  -17.9031 C   0  0  0  0  0  0  0  0  0  0  0  0
   30.4507  -17.7747  -16.6236 C   0  0  0  0  0  0  0  0  0  0  0  0
   29.6255  -18.2902  -15.6423 C   0  0  0  0  0  0  0  0  0  0  0  0
   27.0598  -21.0278  -13.2535 C   0  0  0  0  0  0  0  0  0  0  0  0
   26.0099  -21.6823  -13.3537 O   0  0  0  0  0  0  0  0  0  0  0  0
   27.5562  -20.7046  -11.9399 N   0  0  0  0  0  0  0  0  0  0  0  0
   26.7590  -20.9358  -10.7596 C   0  0  1  0  0  0  0  0  0  0  0  0
   27.7084  -20.6140   -9.5899 C   0  0  0  0  0  0  0  0  0  0  0  0
   27.0007  -20.6494   -8.3075 C   0  0  0  0  0  0  0  0  0  0  0  0
   25.6910  -21.0391   -8.1353 C   0  0  0  0  0  0  0  0  0  0  0  0
   25.4504  -20.9195   -6.7955 N   0  0  0  0  0  0  0  0  0  0  0  0
   26.5503  -20.4797   -6.1696 C   0  0  0  0  0  0  0  0  0  0  0  0
   26.7988  -20.2092   -4.8554 C   0  0  0  0  0  0  0  0  0  0  0  0
   28.0394  -19.7553   -4.4361 C   0  0  0  0  0  0  0  0  0  0  0  0
   29.0641  -19.5642   -5.3501 C   0  0  0  0  0  0  0  0  0  0  0  0
   28.7917  -19.8427   -6.6676 C   0  0  0  0  0  0  0  0  0  0  0  0
   27.5573  -20.2961   -7.0963 C   0  0  0  0  0  0  0  0  0  0  0  0
   25.5718  -20.0947  -10.7239 C   0  0  0  0  0  0  0  0  0  0  0  0
   25.5912  -18.8590  -11.0636 O   0  0  0  0  0  0  0  0  0  0  0  0
   22.5490  -18.2002  -12.9157 N   0  0  0  0  0  0  0  0  0  0  0  0
   23.0585  -19.4329  -13.4075 C   0  0  0  0  0  0  0  0  0  0  0  0
   23.2458  -19.4380  -14.6750 O   0  0  0  0  0  0  0  0  0  0  0  0
   23.3387  -20.5820  -12.5349 C   0  0  0  0  0  0  0  0  0  0  0  0
   23.1106  -20.2379  -11.0946 C   0  0  2  0  0  0  0  0  0  0  0  0
   24.3246  -20.6141  -10.3090 N   0  0  0  0  0  0  0  0  0  0  0  0
   22.0290  -21.1143  -10.5737 C   0  0  0  0  0  0  0  0  0  0  0  0
   22.2387  -22.4864  -10.3111 O   0  0  0  0  0  0  0  0  0  0  0  0
   20.8633  -20.7264  -10.3269 O   0  0  0  0  0  0  0  0  0  0  0  0
  2  1  1  6
  2  3  1  0
  4  5  2  0
  4  3  1  0
  6  5  1  0
  7  6  2  0
  8  7  1  0
  8  9  2  0
  9  4  1  0
 10  2  1  0
 11 10  2  0
 12 10  1  0
 13 12  1  0
 13 14  1  1
 15 14  1  0
 16 15  2  0
 17 18  1  0
 17 16  1  0
 18 23  2  0
 19 20  2  0
 19 18  1  0
 20 21  1  0
 21 22  2  0
 23 15  1  0
 23 22  1  0
 24 13  1  0
 24 25  2  0
 26 27  1  0
 27 28  2  0
 27 29  1  0
 30 29  1  6
 30 31  1  0
 31 24  1  0
 32 30  1  0
 33 32  1  0
 34 32  2  0
M  END
$$$$
