THA.pdb
     RDKit          3D

 23 23  0  0  1  0  0  0  0  0999 V2000
    7.1886  -13.0891   18.9931 C   0  0  0  0  0  0  0  0  0  0  0  0
    8.4669  -13.4854   18.3145 C   0  0  1  0  0  0  0  0  0  0  0  0
    8.8117  -12.6053   17.3178 O   0  0  0  0  0  0  0  0  0  0  0  0
    9.5825  -13.5871   19.3365 C   0  0  2  0  0  0  0  0  0  0  0  0
   10.8222  -13.7407   18.6149 N   0  0  0  0  0  0  0  0  0  0  0  0
    9.3954  -14.7224   20.2645 C   0  0  0  0  0  0  0  0  0  0  0  0
    8.3738  -14.8530   20.9803 O   0  0  0  0  0  0  0  0  0  0  0  0
   10.3929  -15.7261   20.3778 N   0  0  0  0  0  0  0  0  0  0  0  0
   10.3456  -16.8262   21.2787 C   0  0  1  0  0  0  0  0  0  0  0  0
   10.9985  -18.0251   20.6726 C   0  0  0  0  0  0  0  0  0  0  0  0
   10.1833  -18.6250   19.5900 C   0  0  0  0  0  0  0  0  0  0  0  0
    8.8851  -18.3218   19.2747 C   0  0  0  0  0  0  0  0  0  0  0  0
    8.5525  -19.1001   18.2320 N   0  0  0  0  0  0  0  0  0  0  0  0
    9.5899  -19.8785   17.8814 C   0  0  0  0  0  0  0  0  0  0  0  0
   10.5917  -19.5772   18.7261 N   0  0  0  0  0  0  0  0  0  0  0  0
   10.8453  -16.5117   22.6329 C   0  0  0  0  0  0  0  0  0  0  0  0
   11.9456  -15.9162   22.7536 O   0  0  0  0  0  0  0  0  0  0  0  0
    9.3336  -16.2639   25.9587 C   0  0  0  0  0  0  0  0  0  0  0  0
   10.5758  -16.5823   25.1414 C   0  0  2  0  0  0  0  0  0  0  0  0
   10.1216  -16.8614   23.7924 N   0  0  0  0  0  0  0  0  0  0  0  0
   11.3079  -17.7380   25.7215 C   0  0  0  0  0  0  0  0  0  0  0  0
   12.0455  -17.4973   26.8738 O   0  0  0  0  0  0  0  0  0  0  0  0
   11.2542  -18.8681   25.1878 O   0  0  0  0  0  0  0  0  0  0  0  0
  2  1  1  1
  2  4  1  0
  3  2  1  0
  4  5  1  6
  6  8  1  0
  6  4  1  0
  7  6  2  0
  9  8  1  0
  9 16  1  0
  9 10  1  6
 11 10  1  0
 11 15  1  0
 12 11  2  0
 13 12  1  0
 13 14  1  0
 14 15  2  0
 16 20  1  0
 17 16  2  0
 19 21  1  0
 19 18  1  1
 20 19  1  0
 21 22  1  0
 23 21  2  0
M  END
$$$$
