THA.pdb
     RDKit          3D

 23 23  0  0  1  0  0  0  0  0999 V2000
    7.4397  -12.0024   19.3622 C   0  0  0  0  0  0  0  0  0  0  0  0
    8.3851  -13.1125   19.7166 C   0  0  1  0  0  0  0  0  0  0  0  0
    7.7363  -14.1672   20.3111 O   0  0  0  0  0  0  0  0  0  0  0  0
    9.1206  -13.5787   18.4751 C   0  0  2  0  0  0  0  0  0  0  0  0
    8.1402  -14.1169   17.5639 N   0  0  0  0  0  0  0  0  0  0  0  0
   10.1439  -14.6018   18.7767 C   0  0  0  0  0  0  0  0  0  0  0  0
    9.9641  -15.8249   18.5652 O   0  0  0  0  0  0  0  0  0  0  0  0
   11.3947  -14.2217   19.3303 N   0  0  0  0  0  0  0  0  0  0  0  0
   12.4002  -15.1257   19.7728 C   0  0  1  0  0  0  0  0  0  0  0  0
   13.7487  -14.4895   19.6851 C   0  0  0  0  0  0  0  0  0  0  0  0
   14.4127  -14.7508   18.3861 C   0  0  0  0  0  0  0  0  0  0  0  0
   13.9241  -15.5023   17.3501 C   0  0  0  0  0  0  0  0  0  0  0  0
   14.8514  -15.4649   16.3793 N   0  0  0  0  0  0  0  0  0  0  0  0
   15.9010  -14.7204   16.7654 C   0  0  0  0  0  0  0  0  0  0  0  0
   15.6199  -14.2843   18.0058 N   0  0  0  0  0  0  0  0  0  0  0  0
   12.1237  -15.7273   21.0935 C   0  0  0  0  0  0  0  0  0  0  0  0
   11.9033  -14.9718   22.0734 O   0  0  0  0  0  0  0  0  0  0  0  0
   11.1616  -19.1042   22.2178 C   0  0  0  0  0  0  0  0  0  0  0  0
   11.7937  -17.7617   22.5503 C   0  0  2  0  0  0  0  0  0  0  0  0
   12.1005  -17.1252   21.2836 N   0  0  0  0  0  0  0  0  0  0  0  0
   13.0130  -17.9430   23.3802 C   0  0  0  0  0  0  0  0  0  0  0  0
   12.8180  -18.2645   24.7175 O   0  0  0  0  0  0  0  0  0  0  0  0
   14.1543  -17.8097   22.8858 O   0  0  0  0  0  0  0  0  0  0  0  0
  2  1  1  6
  2  4  1  0
  3  2  1  0
  4  5  1  6
  6  8  1  0
  6  4  1  0
  7  6  2  0
  9  8  1  0
  9 16  1  0
  9 10  1  1
 11 10  1  0
 11 15  1  0
 12 11  2  0
 13 12  1  0
 13 14  1  0
 14 15  2  0
 16 20  1  0
 17 16  2  0
 19 21  1  0
 19 18  1  6
 20 19  1  0
 21 22  1  0
 23 21  2  0
M  END
$$$$
