THA.pdb
     RDKit          3D

 23 23  0  0  1  0  0  0  0  0999 V2000
    8.3282  -20.6854   19.0506 C   0  0  0  0  0  0  0  0  0  0  0  0
    8.8397  -19.6518   20.0107 C   0  0  1  0  0  0  0  0  0  0  0  0
    9.9785  -20.0702   20.6546 O   0  0  0  0  0  0  0  0  0  0  0  0
    9.0974  -18.3501   19.2769 C   0  0  2  0  0  0  0  0  0  0  0  0
   10.1261  -18.5985   18.2965 N   0  0  0  0  0  0  0  0  0  0  0  0
    9.5194  -17.2639   20.1864 C   0  0  0  0  0  0  0  0  0  0  0  0
   10.7217  -16.9506   20.3578 O   0  0  0  0  0  0  0  0  0  0  0  0
    8.5515  -16.5227   20.9136 N   0  0  0  0  0  0  0  0  0  0  0  0
    8.8470  -15.5195   21.8781 C   0  0  1  0  0  0  0  0  0  0  0  0
    7.8652  -14.3980   21.7817 C   0  0  0  0  0  0  0  0  0  0  0  0
    7.8481  -13.7770   20.4361 C   0  0  0  0  0  0  0  0  0  0  0  0
    6.7852  -13.7130   19.5742 C   0  0  0  0  0  0  0  0  0  0  0  0
    7.2175  -13.0642   18.4806 N   0  0  0  0  0  0  0  0  0  0  0  0
    8.5081  -12.7191   18.6228 C   0  0  0  0  0  0  0  0  0  0  0  0
    8.8877  -13.1639   19.8335 N   0  0  0  0  0  0  0  0  0  0  0  0
    9.0058  -16.0394   23.2519 C   0  0  0  0  0  0  0  0  0  0  0  0
    7.9876  -16.1632   23.9783 O   0  0  0  0  0  0  0  0  0  0  0  0
    9.6514  -18.3553   24.9806 C   0  0  0  0  0  0  0  0  0  0  0  0
   10.4566  -17.0668   25.0434 C   0  0  2  0  0  0  0  0  0  0  0  0
   10.2679  -16.4000   23.7691 N   0  0  0  0  0  0  0  0  0  0  0  0
   11.8915  -17.3527   25.3032 C   0  0  0  0  0  0  0  0  0  0  0  0
   12.7959  -16.9552   24.3266 O   0  0  0  0  0  0  0  0  0  0  0  0
   12.2541  -17.9246   26.3550 O   0  0  0  0  0  0  0  0  0  0  0  0
  2  1  1  6
  2  4  1  0
  3  2  1  0
  4  5  1  6
  6  8  1  0
  6  4  1  0
  7  6  2  0
  9  8  1  0
  9 16  1  0
  9 10  1  1
 11 10  1  0
 11 15  1  0
 12 11  2  0
 13 12  1  0
 13 14  1  0
 14 15  2  0
 16 20  1  0
 17 16  2  0
 19 21  1  0
 19 18  1  6
 20 19  1  0
 21 22  1  0
 23 21  2  0
M  END
$$$$
