THA.pdb
     RDKit          3D

 23 23  0  0  1  0  0  0  0  0999 V2000
   10.6552  -19.7847   19.6310 C   0  0  0  0  0  0  0  0  0  0  0  0
   11.3746  -19.1097   18.5003 C   0  0  1  0  0  0  0  0  0  0  0  0
   11.6338  -19.9776   17.4677 O   0  0  0  0  0  0  0  0  0  0  0  0
   10.5622  -17.9290   18.0048 C   0  0  2  0  0  0  0  0  0  0  0  0
   11.1689  -17.4653   16.7809 N   0  0  0  0  0  0  0  0  0  0  0  0
   10.5089  -16.8281   18.9898 C   0  0  0  0  0  0  0  0  0  0  0  0
   11.4629  -16.0349   19.1739 O   0  0  0  0  0  0  0  0  0  0  0  0
    9.3457  -16.6296   19.7790 N   0  0  0  0  0  0  0  0  0  0  0  0
    9.2139  -15.6566   20.8085 C   0  0  1  0  0  0  0  0  0  0  0  0
    7.9161  -14.9292   20.6756 C   0  0  0  0  0  0  0  0  0  0  0  0
    7.7706  -14.2709   19.3558 C   0  0  0  0  0  0  0  0  0  0  0  0
    8.1200  -12.9855   19.0358 C   0  0  0  0  0  0  0  0  0  0  0  0
    7.8157  -12.8176   17.7385 N   0  0  0  0  0  0  0  0  0  0  0  0
    7.2898  -13.9459   17.2330 C   0  0  0  0  0  0  0  0  0  0  0  0
    7.2664  -14.8368   18.2398 N   0  0  0  0  0  0  0  0  0  0  0  0
    9.4484  -16.1880   22.1669 C   0  0  0  0  0  0  0  0  0  0  0  0
    8.4919  -16.7155   22.7886 O   0  0  0  0  0  0  0  0  0  0  0  0
   10.7792  -18.2055   23.9303 C   0  0  0  0  0  0  0  0  0  0  0  0
   11.0177  -16.7105   24.0733 C   0  0  2  0  0  0  0  0  0  0  0  0
   10.7155  -16.1194   22.7837 N   0  0  0  0  0  0  0  0  0  0  0  0
   12.4187  -16.4361   24.4853 C   0  0  0  0  0  0  0  0  0  0  0  0
   12.7780  -16.8133   25.7731 O   0  0  0  0  0  0  0  0  0  0  0  0
   13.2259  -15.8910   23.7004 O   0  0  0  0  0  0  0  0  0  0  0  0
  2  1  1  1
  2  4  1  0
  3  2  1  0
  4  5  1  6
  6  8  1  0
  6  4  1  0
  7  6  2  0
  9  8  1  0
  9 16  1  0
  9 10  1  1
 11 10  1  0
 11 15  1  0
 12 11  2  0
 13 12  1  0
 13 14  1  0
 14 15  2  0
 16 20  1  0
 17 16  2  0
 19 21  1  0
 19 18  1  6
 20 19  1  0
 21 22  1  0
 23 21  2  0
M  END
$$$$
