THA.pdb
     RDKit          3D

 23 23  0  0  1  0  0  0  0  0999 V2000
    7.4308  -12.7719   19.7388 C   0  0  0  0  0  0  0  0  0  0  0  0
    7.4753  -14.1429   20.3473 C   0  0  1  0  0  0  0  0  0  0  0  0
    7.4406  -15.1286   19.3914 O   0  0  0  0  0  0  0  0  0  0  0  0
    8.7169  -14.2852   21.2061 C   0  0  2  0  0  0  0  0  0  0  0  0
    9.5494  -15.2981   20.6043 N   0  0  0  0  0  0  0  0  0  0  0  0
    8.3985  -14.6575   22.6007 C   0  0  0  0  0  0  0  0  0  0  0  0
    7.6543  -13.9650   23.3353 O   0  0  0  0  0  0  0  0  0  0  0  0
    8.9400  -15.8414   23.1669 N   0  0  0  0  0  0  0  0  0  0  0  0
    8.6795  -16.3092   24.4850 C   0  0  1  0  0  0  0  0  0  0  0  0
    8.6095  -17.8011   24.5045 C   0  0  0  0  0  0  0  0  0  0  0  0
    7.4686  -18.3231   23.7158 C   0  0  0  0  0  0  0  0  0  0  0  0
    6.1958  -18.5546   24.1663 C   0  0  0  0  0  0  0  0  0  0  0  0
    5.4973  -19.0207   23.1182 N   0  0  0  0  0  0  0  0  0  0  0  0
    6.2813  -19.0906   22.0293 C   0  0  0  0  0  0  0  0  0  0  0  0
    7.4962  -18.6576   22.4092 N   0  0  0  0  0  0  0  0  0  0  0  0
    9.5905  -15.7543   25.5071 C   0  0  0  0  0  0  0  0  0  0  0  0
   10.8172  -16.0193   25.4387 O   0  0  0  0  0  0  0  0  0  0  0  0
    9.1561  -13.3741   28.3533 C   0  0  0  0  0  0  0  0  0  0  0  0
    9.9589  -14.4469   27.6343 C   0  0  2  0  0  0  0  0  0  0  0  0
    9.1208  -14.9363   26.5563 N   0  0  0  0  0  0  0  0  0  0  0  0
   10.3391  -15.5376   28.5691 C   0  0  0  0  0  0  0  0  0  0  0  0
    9.6671  -16.7453   28.4284 O   0  0  0  0  0  0  0  0  0  0  0  0
   11.2234  -15.3635   29.4364 O   0  0  0  0  0  0  0  0  0  0  0  0
  2  1  1  6
  2  4  1  0
  3  2  1  0
  4  5  1  6
  6  8  1  0
  6  4  1  0
  7  6  2  0
  9  8  1  0
  9 16  1  0
  9 10  1  6
 11 10  1  0
 11 15  1  0
 12 11  2  0
 13 12  1  0
 13 14  1  0
 14 15  2  0
 16 20  1  0
 17 16  2  0
 19 21  1  0
 19 18  1  1
 20 19  1  0
 21 22  1  0
 23 21  2  0
M  END
$$$$
