THA.pdb
     RDKit          3D

 23 23  0  0  1  0  0  0  0  0999 V2000
   12.0192  -20.0232   20.6628 C   0  0  0  0  0  0  0  0  0  0  0  0
   12.6825  -19.1529   19.6359 C   0  0  1  0  0  0  0  0  0  0  0  0
   13.2022  -19.8893   18.5994 O   0  0  0  0  0  0  0  0  0  0  0  0
   11.6936  -18.1300   19.1115 C   0  0  2  0  0  0  0  0  0  0  0  0
   12.3097  -17.4628   17.9906 N   0  0  0  0  0  0  0  0  0  0  0  0
   11.3090  -17.1391   20.1388 C   0  0  0  0  0  0  0  0  0  0  0  0
   12.1077  -16.2835   20.5896 O   0  0  0  0  0  0  0  0  0  0  0  0
    9.9891  -17.1253   20.6612 N   0  0  0  0  0  0  0  0  0  0  0  0
    9.5260  -16.2549   21.6869 C   0  0  1  0  0  0  0  0  0  0  0  0
    8.0957  -15.8916   21.4563 C   0  0  0  0  0  0  0  0  0  0  0  0
    7.9330  -14.9066   20.3611 C   0  0  0  0  0  0  0  0  0  0  0  0
    8.9268  -14.3629   19.5907 C   0  0  0  0  0  0  0  0  0  0  0  0
    8.3278  -13.5262   18.7275 N   0  0  0  0  0  0  0  0  0  0  0  0
    6.9991  -13.5239   18.9262 C   0  0  0  0  0  0  0  0  0  0  0  0
    6.7659  -14.3795   19.9369 N   0  0  0  0  0  0  0  0  0  0  0  0
    9.7895  -16.7490   23.0541 C   0  0  0  0  0  0  0  0  0  0  0  0
    9.9740  -17.9794   23.2326 O   0  0  0  0  0  0  0  0  0  0  0  0
    9.9870  -15.0801   26.4016 C   0  0  0  0  0  0  0  0  0  0  0  0
   10.0882  -16.3168   25.5227 C   0  0  2  0  0  0  0  0  0  0  0  0
    9.8393  -15.8779   24.1628 N   0  0  0  0  0  0  0  0  0  0  0  0
    9.1103  -17.3505   25.9507 C   0  0  0  0  0  0  0  0  0  0  0  0
    7.9543  -17.4720   25.1900 O   0  0  0  0  0  0  0  0  0  0  0  0
    9.3297  -18.0703   26.9500 O   0  0  0  0  0  0  0  0  0  0  0  0
  2  1  1  1
  2  4  1  0
  3  2  1  0
  4  5  1  6
  6  8  1  0
  6  4  1  0
  7  6  2  0
  9  8  1  0
  9 16  1  0
  9 10  1  1
 11 10  1  0
 11 15  1  0
 12 11  2  0
 13 12  1  0
 13 14  1  0
 14 15  2  0
 16 20  1  0
 17 16  2  0
 19 21  1  0
 19 18  1  1
 20 19  1  0
 21 22  1  0
 23 21  2  0
M  END
$$$$
