THA.pdb
     RDKit          3D

 23 23  0  0  1  0  0  0  0  0999 V2000
    7.5841  -11.7627   19.2029 C   0  0  0  0  0  0  0  0  0  0  0  0
    8.5127  -12.8771   19.5867 C   0  0  1  0  0  0  0  0  0  0  0  0
    7.8818  -13.8295   20.3493 O   0  0  0  0  0  0  0  0  0  0  0  0
    9.1041  -13.5069   18.3405 C   0  0  2  0  0  0  0  0  0  0  0  0
    8.0139  -14.0487   17.5665 N   0  0  0  0  0  0  0  0  0  0  0  0
   10.0778  -14.5736   18.6554 C   0  0  0  0  0  0  0  0  0  0  0  0
    9.7659  -15.7878   18.6942 O   0  0  0  0  0  0  0  0  0  0  0  0
   11.4317  -14.2480   18.9316 N   0  0  0  0  0  0  0  0  0  0  0  0
   12.4158  -15.1682   19.3886 C   0  0  1  0  0  0  0  0  0  0  0  0
   13.7509  -14.8353   18.8075 C   0  0  0  0  0  0  0  0  0  0  0  0
   13.8921  -15.3081   17.4100 C   0  0  0  0  0  0  0  0  0  0  0  0
   13.1285  -16.2566   16.7825 C   0  0  0  0  0  0  0  0  0  0  0  0
   13.6047  -16.3654   15.5314 N   0  0  0  0  0  0  0  0  0  0  0  0
   14.6358  -15.5233   15.3501 C   0  0  0  0  0  0  0  0  0  0  0  0
   14.8050  -14.8754   16.5160 N   0  0  0  0  0  0  0  0  0  0  0  0
   12.4432  -15.3341   20.8564 C   0  0  0  0  0  0  0  0  0  0  0  0
   13.1131  -14.5269   21.5486 O   0  0  0  0  0  0  0  0  0  0  0  0
   10.3510  -17.2156   23.2429 C   0  0  0  0  0  0  0  0  0  0  0  0
   11.6755  -16.5322   22.9409 C   0  0  2  0  0  0  0  0  0  0  0  0
   11.7384  -16.3728   21.5005 N   0  0  0  0  0  0  0  0  0  0  0  0
   12.8144  -17.3385   23.4516 C   0  0  0  0  0  0  0  0  0  0  0  0
   13.6440  -17.9219   22.5023 O   0  0  0  0  0  0  0  0  0  0  0  0
   13.0058  -17.4772   24.6800 O   0  0  0  0  0  0  0  0  0  0  0  0
  2  1  1  6
  2  4  1  0
  3  2  1  0
  4  5  1  6
  6  8  1  0
  6  4  1  0
  7  6  2  0
  9  8  1  0
  9 16  1  0
  9 10  1  1
 11 10  1  0
 11 15  1  0
 12 11  2  0
 13 12  1  0
 13 14  1  0
 14 15  2  0
 16 20  1  0
 17 16  2  0
 19 21  1  0
 19 18  1  6
 20 19  1  0
 21 22  1  0
 23 21  2  0
M  END
$$$$
