THA.pdb
     RDKit          3D

 23 23  0  0  1  0  0  0  0  0999 V2000
    8.9584  -20.3020   17.7171 C   0  0  0  0  0  0  0  0  0  0  0  0
    9.3282  -19.5668   18.9718 C   0  0  1  0  0  0  0  0  0  0  0  0
   10.3988  -20.1462   19.6080 O   0  0  0  0  0  0  0  0  0  0  0  0
    9.6292  -18.1161   18.6490 C   0  0  2  0  0  0  0  0  0  0  0  0
   10.7627  -18.0942   17.7569 N   0  0  0  0  0  0  0  0  0  0  0  0
    9.9238  -17.3185   19.8582 C   0  0  0  0  0  0  0  0  0  0  0  0
   11.0912  -17.0241   20.2096 O   0  0  0  0  0  0  0  0  0  0  0  0
    8.8665  -16.8494   20.6812 N   0  0  0  0  0  0  0  0  0  0  0  0
    9.0343  -16.0838   21.8686 C   0  0  1  0  0  0  0  0  0  0  0  0
    7.9458  -15.0686   21.9927 C   0  0  0  0  0  0  0  0  0  0  0  0
    7.8965  -14.1490   20.8315 C   0  0  0  0  0  0  0  0  0  0  0  0
    8.5646  -12.9608   20.6955 C   0  0  0  0  0  0  0  0  0  0  0  0
    8.2291  -12.4684   19.4919 N   0  0  0  0  0  0  0  0  0  0  0  0
    7.3778  -13.3001   18.8685 C   0  0  0  0  0  0  0  0  0  0  0  0
    7.1791  -14.3345   19.7043 N   0  0  0  0  0  0  0  0  0  0  0  0
    9.2117  -16.9010   23.0865 C   0  0  0  0  0  0  0  0  0  0  0  0
    8.2447  -17.5838   23.5087 O   0  0  0  0  0  0  0  0  0  0  0  0
   12.1789  -18.0865   24.9304 C   0  0  0  0  0  0  0  0  0  0  0  0
   10.6871  -17.7920   24.9303 C   0  0  2  0  0  0  0  0  0  0  0  0
   10.4359  -16.9352   23.7872 N   0  0  0  0  0  0  0  0  0  0  0  0
   10.2771  -17.1410   26.2016 C   0  0  0  0  0  0  0  0  0  0  0  0
    9.7987  -15.8398   26.1128 O   0  0  0  0  0  0  0  0  0  0  0  0
   10.3637  -17.7467   27.2926 O   0  0  0  0  0  0  0  0  0  0  0  0
  2  1  1  6
  2  4  1  0
  3  2  1  0
  4  5  1  6
  6  8  1  0
  6  4  1  0
  7  6  2  0
  9  8  1  0
  9 16  1  0
  9 10  1  1
 11 10  1  0
 11 15  1  0
 12 11  2  0
 13 12  1  0
 13 14  1  0
 14 15  2  0
 16 20  1  0
 17 16  2  0
 19 21  1  0
 19 18  1  1
 20 19  1  0
 21 22  1  0
 23 21  2  0
M  END
$$$$
