PKD.pdb
     RDKit          3D

 25 25  0  0  1  0  0  0  0  0999 V2000
    7.8913  -14.7180   18.7863 N   0  0  0  0  0  0  0  0  0  0  0  0
    7.8427  -13.5508   17.8850 C   0  0  0  0  0  0  0  0  0  0  0  0
    7.0883  -12.5139   18.7291 C   0  0  0  0  0  0  0  0  0  0  0  0
    7.2512  -12.9917   20.1432 C   0  0  0  0  0  0  0  0  0  0  0  0
    8.3524  -14.0528   19.9914 C   0  0  1  0  0  0  0  0  0  0  0  0
    8.2721  -14.9039   21.1818 C   0  0  0  0  0  0  0  0  0  0  0  0
    8.4839  -14.4917   22.3482 O   0  0  0  0  0  0  0  0  0  0  0  0
    7.9342  -16.2714   21.0089 N   0  0  0  0  0  0  0  0  0  0  0  0
    7.8394  -17.1569   22.1571 C   0  0  1  0  0  0  0  0  0  0  0  0
    6.8945  -18.2735   21.7858 C   0  0  0  0  0  0  0  0  0  0  0  0
    5.4772  -17.8428   21.5703 C   0  0  0  0  0  0  0  0  0  0  0  0
    4.5976  -18.9605   21.0783 C   0  0  0  0  0  0  0  0  0  0  0  0
    3.2010  -18.4852   20.7904 C   0  0  0  0  0  0  0  0  0  0  0  0
    2.3945  -19.5556   20.2204 N   0  0  0  0  0  0  0  0  0  0  0  0
    9.1659  -17.7235   22.4985 C   0  0  0  0  0  0  0  0  0  0  0  0
    9.8475  -18.3258   21.6340 O   0  0  0  0  0  0  0  0  0  0  0  0
    9.7082  -17.6059   23.8006 N   0  0  0  0  0  0  0  0  0  0  0  0
   11.1587  -17.7145   23.9763 C   0  0  1  0  0  0  0  0  0  0  0  0
   11.8938  -16.6494   23.2412 C   0  0  0  0  0  0  0  0  0  0  0  0
   13.2756  -16.9820   22.8485 C   0  0  0  0  0  0  0  0  0  0  0  0
   13.4987  -18.1485   22.4157 O   0  0  0  0  0  0  0  0  0  0  0  0
   11.5076  -17.6697   25.4101 C   0  0  0  0  0  0  0  0  0  0  0  0
   12.6386  -17.8550   25.8773 O   0  0  0  0  0  0  0  0  0  0  0  0
   14.3612  -16.1357   22.9098 O   0  0  0  0  0  0  0  0  0  0  0  0
   10.4705  -17.3959   26.3185 O   0  0  0  0  0  0  0  0  0  0  0  0
  1  2  1  0
  3  2  1  0
  4  5  1  0
  4  3  1  0
  5  1  1  0
  5  6  1  1
  7  6  2  0
  8  6  1  0
  9  8  1  0
 10 11  1  0
  9 10  1  6
 11 12  1  0
 12 13  1  0
 13 14  1  0
 15  9  1  0
 15 17  1  0
 16 15  2  0
 18 17  1  0
 18 22  1  0
 18 19  1  6
 20 19  1  0
 21 20  2  0
 22 25  1  0
 23 22  2  0
 24 20  1  0
M  END
$$$$
