PKD.pdb
     RDKit          3D

 25 25  0  0  1  0  0  0  0  0999 V2000
    7.6701  -14.9633   18.5946 N   0  0  0  0  0  0  0  0  0  0  0  0
    7.6598  -13.9337   17.5377 C   0  0  0  0  0  0  0  0  0  0  0  0
    7.1715  -12.6902   18.2939 C   0  0  0  0  0  0  0  0  0  0  0  0
    7.4553  -12.9935   19.7368 C   0  0  0  0  0  0  0  0  0  0  0  0
    8.3732  -14.2210   19.6251 C   0  0  1  0  0  0  0  0  0  0  0  0
    8.3380  -14.8826   20.9324 C   0  0  0  0  0  0  0  0  0  0  0  0
    8.7672  -14.3595   21.9895 O   0  0  0  0  0  0  0  0  0  0  0  0
    7.7864  -16.1879   21.0106 N   0  0  0  0  0  0  0  0  0  0  0  0
    7.6910  -16.8711   22.2894 C   0  0  1  0  0  0  0  0  0  0  0  0
    6.6275  -17.9331   22.1525 C   0  0  0  0  0  0  0  0  0  0  0  0
    5.3116  -17.4333   21.6435 C   0  0  0  0  0  0  0  0  0  0  0  0
    4.3208  -18.5409   21.4056 C   0  0  0  0  0  0  0  0  0  0  0  0
    2.9816  -18.0086   20.9784 C   0  0  0  0  0  0  0  0  0  0  0  0
    2.0647  -19.0965   20.6674 N   0  0  0  0  0  0  0  0  0  0  0  0
    8.9818  -17.5059   22.6471 C   0  0  0  0  0  0  0  0  0  0  0  0
    9.7254  -17.9907   21.7600 O   0  0  0  0  0  0  0  0  0  0  0  0
    9.4198  -17.5868   23.9906 N   0  0  0  0  0  0  0  0  0  0  0  0
   10.8526  -17.7296   24.2611 C   0  0  1  0  0  0  0  0  0  0  0  0
   11.6518  -16.6381   23.6405 C   0  0  0  0  0  0  0  0  0  0  0  0
   13.1145  -16.7564   23.7849 C   0  0  0  0  0  0  0  0  0  0  0  0
   13.5645  -17.7661   24.3982 O   0  0  0  0  0  0  0  0  0  0  0  0
   11.0995  -17.7700   25.7161 C   0  0  0  0  0  0  0  0  0  0  0  0
   10.5471  -17.0478   26.5558 O   0  0  0  0  0  0  0  0  0  0  0  0
   14.0501  -15.8620   23.3128 O   0  0  0  0  0  0  0  0  0  0  0  0
   12.0397  -18.7035   26.1855 O   0  0  0  0  0  0  0  0  0  0  0  0
  1  2  1  0
  3  2  1  0
  4  5  1  0
  4  3  1  0
  5  1  1  0
  5  6  1  1
  7  6  2  0
  8  6  1  0
  9  8  1  0
 10 11  1  0
  9 10  1  6
 11 12  1  0
 12 13  1  0
 13 14  1  0
 15  9  1  0
 15 17  1  0
 16 15  2  0
 18 17  1  0
 18 22  1  0
 18 19  1  1
 20 19  1  0
 21 20  2  0
 22 25  1  0
 23 22  2  0
 24 20  1  0
M  END
$$$$
