PKD.pdb
     RDKit          3D

 25 25  0  0  1  0  0  0  0  0999 V2000
    8.5322  -16.6120   17.0411 N   0  0  0  0  0  0  0  0  0  0  0  0
    8.5352  -17.4556   15.8305 C   0  0  0  0  0  0  0  0  0  0  0  0
    9.8479  -18.2379   15.9773 C   0  0  0  0  0  0  0  0  0  0  0  0
   10.1711  -18.1563   17.4414 C   0  0  0  0  0  0  0  0  0  0  0  0
    8.8507  -17.6301   18.0257 C   0  0  1  0  0  0  0  0  0  0  0  0
    9.1753  -17.0724   19.3416 C   0  0  0  0  0  0  0  0  0  0  0  0
    9.6949  -15.9424   19.5102 O   0  0  0  0  0  0  0  0  0  0  0  0
    8.8851  -17.8512   20.4919 N   0  0  0  0  0  0  0  0  0  0  0  0
    9.2469  -17.3725   21.8153 C   0  0  1  0  0  0  0  0  0  0  0  0
    8.4270  -18.1519   22.8141 C   0  0  0  0  0  0  0  0  0  0  0  0
    8.7844  -17.8979   24.2453 C   0  0  0  0  0  0  0  0  0  0  0  0
    8.0530  -18.8049   25.1978 C   0  0  0  0  0  0  0  0  0  0  0  0
    8.4850  -18.5842   26.6205 C   0  0  0  0  0  0  0  0  0  0  0  0
    7.7855  -19.4884   27.5227 N   0  0  0  0  0  0  0  0  0  0  0  0
   10.6889  -17.5906   22.0803 C   0  0  0  0  0  0  0  0  0  0  0  0
   11.2376  -18.6795   21.7836 O   0  0  0  0  0  0  0  0  0  0  0  0
   11.4930  -16.5871   22.6715 N   0  0  0  0  0  0  0  0  0  0  0  0
   12.9295  -16.8302   22.8262 C   0  0  1  0  0  0  0  0  0  0  0  0
   13.7261  -15.5787   22.7053 C   0  0  0  0  0  0  0  0  0  0  0  0
   15.1688  -15.7614   22.4614 C   0  0  0  0  0  0  0  0  0  0  0  0
   15.6005  -16.9442   22.3493 O   0  0  0  0  0  0  0  0  0  0  0  0
   13.2043  -17.4789   24.1236 C   0  0  0  0  0  0  0  0  0  0  0  0
   12.5819  -17.2718   25.1731 O   0  0  0  0  0  0  0  0  0  0  0  0
   16.1042  -14.7565   22.3443 O   0  0  0  0  0  0  0  0  0  0  0  0
   14.2597  -18.4061   24.1709 O   0  0  0  0  0  0  0  0  0  0  0  0
  1  2  1  0
  3  2  1  0
  4  5  1  0
  4  3  1  0
  5  1  1  0
  5  6  1  1
  7  6  2  0
  8  6  1  0
  9  8  1  0
 10 11  1  0
  9 10  1  1
 11 12  1  0
 12 13  1  0
 13 14  1  0
 15  9  1  0
 15 17  1  0
 16 15  2  0
 18 17  1  0
 18 22  1  0
 18 19  1  1
 20 19  1  0
 21 20  2  0
 22 25  1  0
 23 22  2  0
 24 20  1  0
M  END
$$$$
