PKD.pdb
     RDKit          3D

 25 25  0  0  1  0  0  0  0  0999 V2000
    7.7953  -14.8302   18.3070 N   0  0  0  0  0  0  0  0  0  0  0  0
    7.7657  -13.8150   17.2367 C   0  0  0  0  0  0  0  0  0  0  0  0
    7.3141  -12.5557   17.9896 C   0  0  0  0  0  0  0  0  0  0  0  0
    7.6367  -12.8427   19.4276 C   0  0  0  0  0  0  0  0  0  0  0  0
    8.5368  -14.0823   19.3062 C   0  0  1  0  0  0  0  0  0  0  0  0
    8.5326  -14.7258   20.6229 C   0  0  0  0  0  0  0  0  0  0  0  0
    9.0164  -14.2017   21.6557 O   0  0  0  0  0  0  0  0  0  0  0  0
    7.9476  -16.0134   20.7401 N   0  0  0  0  0  0  0  0  0  0  0  0
    8.0551  -16.7605   21.9818 C   0  0  1  0  0  0  0  0  0  0  0  0
    7.1547  -17.9654   21.8600 C   0  0  0  0  0  0  0  0  0  0  0  0
    5.6913  -17.6506   21.8595 C   0  0  0  0  0  0  0  0  0  0  0  0
    4.8394  -18.8430   21.5169 C   0  0  0  0  0  0  0  0  0  0  0  0
    3.3923  -18.4679   21.3608 C   0  0  0  0  0  0  0  0  0  0  0  0
    2.5910  -19.6275   20.9946 N   0  0  0  0  0  0  0  0  0  0  0  0
    9.4502  -17.2057   22.2115 C   0  0  0  0  0  0  0  0  0  0  0  0
   10.2842  -17.2105   21.2739 O   0  0  0  0  0  0  0  0  0  0  0  0
    9.8892  -17.6370   23.4861 N   0  0  0  0  0  0  0  0  0  0  0  0
   11.3230  -17.8374   23.7110 C   0  0  1  0  0  0  0  0  0  0  0  0
   12.1109  -16.6043   23.4389 C   0  0  0  0  0  0  0  0  0  0  0  0
   13.5627  -16.7093   23.6749 C   0  0  0  0  0  0  0  0  0  0  0  0
   13.9615  -17.5717   24.5086 O   0  0  0  0  0  0  0  0  0  0  0  0
   11.5674  -18.2967   25.0926 C   0  0  0  0  0  0  0  0  0  0  0  0
   11.0317  -17.8313   26.1066 O   0  0  0  0  0  0  0  0  0  0  0  0
   14.5389  -15.9485   23.0695 O   0  0  0  0  0  0  0  0  0  0  0  0
   12.4843  -19.3471   25.2709 O   0  0  0  0  0  0  0  0  0  0  0  0
  1  2  1  0
  3  2  1  0
  4  5  1  0
  4  3  1  0
  5  1  1  0
  5  6  1  1
  7  6  2  0
  8  6  1  0
  9  8  1  0
 10 11  1  0
  9 10  1  6
 11 12  1  0
 12 13  1  0
 13 14  1  0
 15  9  1  0
 15 17  1  0
 16 15  2  0
 18 17  1  0
 18 22  1  0
 18 19  1  1
 20 19  1  0
 21 20  2  0
 22 25  1  0
 23 22  2  0
 24 20  1  0
M  END
$$$$
