PKD.pdb
     RDKit          3D

 25 25  0  0  1  0  0  0  0  0999 V2000
    7.6618  -15.2407   19.4274 N   0  0  0  0  0  0  0  0  0  0  0  0
    7.3923  -14.5486   18.1524 C   0  0  0  0  0  0  0  0  0  0  0  0
    7.2708  -13.0829   18.5924 C   0  0  0  0  0  0  0  0  0  0  0  0
    7.9788  -13.0288   19.9154 C   0  0  0  0  0  0  0  0  0  0  0  0
    8.7141  -14.3782   19.9335 C   0  0  1  0  0  0  0  0  0  0  0  0
    9.0497  -14.6462   21.3348 C   0  0  0  0  0  0  0  0  0  0  0  0
    9.9130  -14.0024   21.9796 O   0  0  0  0  0  0  0  0  0  0  0  0
    8.3601  -15.6910   22.0033 N   0  0  0  0  0  0  0  0  0  0  0  0
    8.7141  -16.0529   23.3653 C   0  0  1  0  0  0  0  0  0  0  0  0
    7.5907  -16.9001   23.9109 C   0  0  0  0  0  0  0  0  0  0  0  0
    7.8622  -17.5028   25.2539 C   0  0  0  0  0  0  0  0  0  0  0  0
    6.7651  -18.4266   25.7099 C   0  0  0  0  0  0  0  0  0  0  0  0
    7.0369  -18.9811   27.0803 C   0  0  0  0  0  0  0  0  0  0  0  0
    5.9802  -19.8955   27.4903 N   0  0  0  0  0  0  0  0  0  0  0  0
    9.9778  -16.8270   23.3950 C   0  0  0  0  0  0  0  0  0  0  0  0
   10.1169  -17.8546   22.6882 O   0  0  0  0  0  0  0  0  0  0  0  0
   11.0650  -16.4383   24.2136 N   0  0  0  0  0  0  0  0  0  0  0  0
   12.2488  -17.2993   24.2750 C   0  0  1  0  0  0  0  0  0  0  0  0
   13.5141  -16.5192   24.1976 C   0  0  0  0  0  0  0  0  0  0  0  0
   13.9105  -16.0778   22.8477 C   0  0  0  0  0  0  0  0  0  0  0  0
   13.4307  -16.7046   21.8603 O   0  0  0  0  0  0  0  0  0  0  0  0
   12.2315  -18.1099   25.5087 C   0  0  0  0  0  0  0  0  0  0  0  0
   11.4081  -17.9993   26.4260 O   0  0  0  0  0  0  0  0  0  0  0  0
   14.7648  -15.0376   22.5538 O   0  0  0  0  0  0  0  0  0  0  0  0
   13.2327  -19.0858   25.6539 O   0  0  0  0  0  0  0  0  0  0  0  0
  1  2  1  0
  3  2  1  0
  4  5  1  0
  4  3  1  0
  5  1  1  0
  5  6  1  1
  7  6  2  0
  8  6  1  0
  9  8  1  0
 10 11  1  0
  9 10  1  6
 11 12  1  0
 12 13  1  0
 13 14  1  0
 15  9  1  0
 15 17  1  0
 16 15  2  0
 18 17  1  0
 18 22  1  0
 18 19  1  1
 20 19  1  0
 21 20  2  0
 22 25  1  0
 23 22  2  0
 24 20  1  0
M  END
$$$$
