PKD.pdb
     RDKit          3D

 25 25  0  0  1  0  0  0  0  0999 V2000
    7.2227  -14.8930   19.4725 N   0  0  0  0  0  0  0  0  0  0  0  0
    7.0149  -14.5925   18.0429 C   0  0  0  0  0  0  0  0  0  0  0  0
    7.5044  -13.1414   17.9367 C   0  0  0  0  0  0  0  0  0  0  0  0
    8.3917  -12.9566   19.1338 C   0  0  0  0  0  0  0  0  0  0  0  0
    8.5831  -14.4053   19.6096 C   0  0  1  0  0  0  0  0  0  0  0  0
    9.0252  -14.3263   21.0047 C   0  0  0  0  0  0  0  0  0  0  0  0
   10.2203  -14.1551   21.3479 O   0  0  0  0  0  0  0  0  0  0  0  0
    8.0488  -14.4482   22.0273 N   0  0  0  0  0  0  0  0  0  0  0  0
    8.4176  -14.2727   23.4218 C   0  0  1  0  0  0  0  0  0  0  0  0
    7.2347  -13.6522   24.1241 C   0  0  0  0  0  0  0  0  0  0  0  0
    7.4249  -13.4407   25.5937 C   0  0  0  0  0  0  0  0  0  0  0  0
    6.3257  -12.6183   26.2105 C   0  0  0  0  0  0  0  0  0  0  0  0
    6.5334  -12.4280   27.6870 C   0  0  0  0  0  0  0  0  0  0  0  0
    5.5158  -11.5491   28.2463 N   0  0  0  0  0  0  0  0  0  0  0  0
    8.7400  -15.5754   24.0512 C   0  0  0  0  0  0  0  0  0  0  0  0
    7.9405  -16.5396   23.9747 O   0  0  0  0  0  0  0  0  0  0  0  0
    9.9515  -15.7781   24.7543 N   0  0  0  0  0  0  0  0  0  0  0  0
   10.2695  -17.1215   25.2449 C   0  0  1  0  0  0  0  0  0  0  0  0
   11.5388  -17.6430   24.6683 C   0  0  0  0  0  0  0  0  0  0  0  0
   12.0140  -18.9233   25.2245 C   0  0  0  0  0  0  0  0  0  0  0  0
   11.1461  -19.7933   25.5210 O   0  0  0  0  0  0  0  0  0  0  0  0
   10.3469  -17.1255   26.7191 C   0  0  0  0  0  0  0  0  0  0  0  0
   10.3072  -16.1204   27.4404 O   0  0  0  0  0  0  0  0  0  0  0  0
   13.3276  -19.2675   25.4574 O   0  0  0  0  0  0  0  0  0  0  0  0
   10.4780  -18.3720   27.3553 O   0  0  0  0  0  0  0  0  0  0  0  0
  1  2  1  0
  3  2  1  0
  4  5  1  0
  4  3  1  0
  5  1  1  0
  5  6  1  1
  7  6  2  0
  8  6  1  0
  9  8  1  0
 10 11  1  0
  9 10  1  1
 11 12  1  0
 12 13  1  0
 13 14  1  0
 15  9  1  0
 15 17  1  0
 16 15  2  0
 18 17  1  0
 18 22  1  0
 18 19  1  6
 20 19  1  0
 21 20  2  0
 22 25  1  0
 23 22  2  0
 24 20  1  0
M  END
$$$$
