PKD.pdb
     RDKit          3D

 25 25  0  0  1  0  0  0  0  0999 V2000
    7.5929  -14.8988   18.7019 N   0  0  0  0  0  0  0  0  0  0  0  0
    7.4144  -13.8705   17.6589 C   0  0  0  0  0  0  0  0  0  0  0  0
    7.1380  -12.6070   18.4858 C   0  0  0  0  0  0  0  0  0  0  0  0
    7.6910  -12.9208   19.8460 C   0  0  0  0  0  0  0  0  0  0  0  0
    8.5171  -14.1859   19.5650 C   0  0  1  0  0  0  0  0  0  0  0  0
    8.7160  -14.8444   20.8591 C   0  0  0  0  0  0  0  0  0  0  0  0
    9.4672  -14.3975   21.7598 O   0  0  0  0  0  0  0  0  0  0  0  0
    8.0199  -16.0552   21.1113 N   0  0  0  0  0  0  0  0  0  0  0  0
    8.1631  -16.7343   22.3879 C   0  0  1  0  0  0  0  0  0  0  0  0
    7.2000  -17.8962   22.3886 C   0  0  0  0  0  0  0  0  0  0  0  0
    7.2985  -18.7847   23.5892 C   0  0  0  0  0  0  0  0  0  0  0  0
    6.3430  -19.9461   23.5338 C   0  0  0  0  0  0  0  0  0  0  0  0
    6.4504  -20.8152   24.7555 C   0  0  0  0  0  0  0  0  0  0  0  0
    5.4603  -21.8826   24.7232 N   0  0  0  0  0  0  0  0  0  0  0  0
    9.5460  -17.2371   22.5669 C   0  0  0  0  0  0  0  0  0  0  0  0
   10.1645  -17.7661   21.6117 O   0  0  0  0  0  0  0  0  0  0  0  0
   10.2143  -17.1386   23.8107 N   0  0  0  0  0  0  0  0  0  0  0  0
   11.6574  -17.3862   23.8610 C   0  0  1  0  0  0  0  0  0  0  0  0
   12.4451  -16.2005   23.4261 C   0  0  0  0  0  0  0  0  0  0  0  0
   13.9107  -16.3566   23.4702 C   0  0  0  0  0  0  0  0  0  0  0  0
   14.5324  -15.8007   24.4201 O   0  0  0  0  0  0  0  0  0  0  0  0
   12.0629  -17.7885   25.2223 C   0  0  0  0  0  0  0  0  0  0  0  0
   13.2110  -18.0997   25.5643 O   0  0  0  0  0  0  0  0  0  0  0  0
   14.6785  -17.0560   22.5648 O   0  0  0  0  0  0  0  0  0  0  0  0
   11.0633  -17.8223   26.2100 O   0  0  0  0  0  0  0  0  0  0  0  0
  1  2  1  0
  3  2  1  0
  4  5  1  0
  4  3  1  0
  5  1  1  0
  5  6  1  1
  7  6  2  0
  8  6  1  0
  9  8  1  0
 10 11  1  0
  9 10  1  6
 11 12  1  0
 12 13  1  0
 13 14  1  0
 15  9  1  0
 15 17  1  0
 16 15  2  0
 18 17  1  0
 18 22  1  0
 18 19  1  1
 20 19  1  0
 21 20  2  0
 22 25  1  0
 23 22  2  0
 24 20  1  0
M  END
$$$$
