PKD.pdb
     RDKit          3D

 25 25  0  0  1  0  0  0  0  0999 V2000
    7.0009  -14.8903   19.2316 N   0  0  0  0  0  0  0  0  0  0  0  0
    6.7826  -14.6282   17.7961 C   0  0  0  0  0  0  0  0  0  0  0  0
    7.4292  -13.2482   17.6110 C   0  0  0  0  0  0  0  0  0  0  0  0
    8.3698  -13.1160   18.7740 C   0  0  0  0  0  0  0  0  0  0  0  0
    8.4114  -14.5559   19.3095 C   0  0  1  0  0  0  0  0  0  0  0  0
    8.9042  -14.4696   20.6870 C   0  0  0  0  0  0  0  0  0  0  0  0
   10.1123  -14.3052   20.9855 O   0  0  0  0  0  0  0  0  0  0  0  0
    7.9645  -14.5758   21.7451 N   0  0  0  0  0  0  0  0  0  0  0  0
    8.3563  -14.2711   23.1108 C   0  0  1  0  0  0  0  0  0  0  0  0
    7.1126  -13.8396   23.8487 C   0  0  0  0  0  0  0  0  0  0  0  0
    7.3481  -13.3998   25.2600 C   0  0  0  0  0  0  0  0  0  0  0  0
    6.0936  -12.9156   25.9359 C   0  0  0  0  0  0  0  0  0  0  0  0
    6.3685  -12.4076   27.3236 C   0  0  0  0  0  0  0  0  0  0  0  0
    5.1306  -12.0437   27.9989 N   0  0  0  0  0  0  0  0  0  0  0  0
    8.9364  -15.4638   23.7728 C   0  0  0  0  0  0  0  0  0  0  0  0
    8.3484  -16.5715   23.7277 O   0  0  0  0  0  0  0  0  0  0  0  0
   10.1646  -15.3977   24.4730 N   0  0  0  0  0  0  0  0  0  0  0  0
   10.8805  -16.6419   24.7664 C   0  0  1  0  0  0  0  0  0  0  0  0
   12.3456  -16.5131   24.5375 C   0  0  0  0  0  0  0  0  0  0  0  0
   13.1430  -17.7232   24.8096 C   0  0  0  0  0  0  0  0  0  0  0  0
   13.1529  -18.1663   25.9935 O   0  0  0  0  0  0  0  0  0  0  0  0
   10.6234  -17.0674   26.1565 C   0  0  0  0  0  0  0  0  0  0  0  0
   11.0279  -18.1187   26.6693 O   0  0  0  0  0  0  0  0  0  0  0  0
   13.8894  -18.4256   23.8887 O   0  0  0  0  0  0  0  0  0  0  0  0
    9.8554  -16.2094   26.9626 O   0  0  0  0  0  0  0  0  0  0  0  0
  1  2  1  0
  3  2  1  0
  4  5  1  0
  4  3  1  0
  5  1  1  0
  5  6  1  1
  7  6  2  0
  8  6  1  0
  9  8  1  0
 10 11  1  0
  9 10  1  1
 11 12  1  0
 12 13  1  0
 13 14  1  0
 15  9  1  0
 15 17  1  0
 16 15  2  0
 18 17  1  0
 18 22  1  0
 18 19  1  1
 20 19  1  0
 21 20  2  0
 22 25  1  0
 23 22  2  0
 24 20  1  0
M  END
$$$$
