TVY.pdb
     RDKit          3D

 27 27  0  0  1  0  0  0  0  0999 V2000
   26.7190  -11.6820  -15.3987 C   0  0  0  0  0  0  0  0  0  0  0  0
   26.7875  -12.7503  -16.4908 C   0  0  1  0  0  0  0  0  0  0  0  0
   27.9133  -13.5214  -16.2021 O   0  0  0  0  0  0  0  0  0  0  0  0
   25.5879  -13.6543  -16.4016 C   0  0  2  0  0  0  0  0  0  0  0  0
   25.7804  -14.7657  -17.3131 N   0  0  0  0  0  0  0  0  0  0  0  0
   24.3193  -12.9446  -16.7031 C   0  0  0  0  0  0  0  0  0  0  0  0
   24.0541  -12.5937  -17.8813 O   0  0  0  0  0  0  0  0  0  0  0  0
   19.6850  -11.6638  -15.7286 C   0  0  0  0  0  0  0  0  0  0  0  0
   20.9024  -12.5670  -15.5744 C   0  0  1  0  0  0  0  0  0  0  0  0
   20.7065  -13.8733  -16.2662 C   0  0  0  0  0  0  0  0  0  0  0  0
   22.1672  -11.8474  -15.9911 C   0  0  2  0  0  0  0  0  0  0  0  0
   23.3512  -12.6252  -15.7103 N   0  0  0  0  0  0  0  0  0  0  0  0
   22.1855  -10.5056  -15.4079 C   0  0  0  0  0  0  0  0  0  0  0  0
   22.3056  -10.2557  -14.1824 O   0  0  0  0  0  0  0  0  0  0  0  0
   22.2827   -1.5947  -15.5209 O   0  0  0  0  0  0  0  0  0  0  0  0
   22.3125   -2.9390  -15.8511 C   0  0  0  0  0  0  0  0  0  0  0  0
   21.2139   -3.5895  -16.3754 C   0  0  0  0  0  0  0  0  0  0  0  0
   21.2443   -4.9189  -16.7018 C   0  0  0  0  0  0  0  0  0  0  0  0
   22.3964   -5.6762  -16.5162 C   0  0  0  0  0  0  0  0  0  0  0  0
   22.4204   -7.0965  -16.8573 C   0  0  0  0  0  0  0  0  0  0  0  0
   22.0886   -8.0324  -15.7223 C   0  0  2  0  0  0  0  0  0  0  0  0
   22.0584   -9.3964  -16.2896 N   0  0  0  0  0  0  0  0  0  0  0  0
   20.7426   -7.6875  -15.2090 C   0  0  0  0  0  0  0  0  0  0  0  0
   19.6944   -8.0635  -15.8239 O   0  0  0  0  0  0  0  0  0  0  0  0
   23.4867   -5.0155  -15.9918 C   0  0  0  0  0  0  0  0  0  0  0  0
   23.4526   -3.6738  -15.6636 C   0  0  0  0  0  0  0  0  0  0  0  0
   20.5396   -6.9532  -14.0553 O   0  0  0  0  0  0  0  0  0  0  0  0
  2  1  1  1
  2  4  1  0
  3  2  1  0
  4  6  1  0
  4  5  1  6
  6  7  2  0
  9 11  1  0
  9  8  1  6
 10  9  1  0
 11 12  1  1
 12  6  1  0
 13 14  2  0
 13 11  1  0
 15 16  1  0
 16 26  2  0
 16 17  1  0
 17 18  2  0
 18 19  1  0
 19 20  1  0
 21 20  1  6
 21 23  1  0
 21 22  1  0
 22 13  1  0
 23 27  1  0
 24 23  2  0
 25 19  2  0
 26 25  1  0
M  END
$$$$
