TVY.pdb
     RDKit          3D

 27 27  0  0  1  0  0  0  0  0999 V2000
   25.7776  -14.1940  -16.9528 C   0  0  0  0  0  0  0  0  0  0  0  0
   24.7334  -13.1020  -17.1895 C   0  0  1  0  0  0  0  0  0  0  0  0
   24.4989  -13.0879  -18.5643 O   0  0  0  0  0  0  0  0  0  0  0  0
   23.4399  -13.4729  -16.5161 C   0  0  2  0  0  0  0  0  0  0  0  0
   22.9318  -14.6840  -17.1309 N   0  0  0  0  0  0  0  0  0  0  0  0
   22.4308  -12.3866  -16.5890 C   0  0  0  0  0  0  0  0  0  0  0  0
   21.8445  -12.1381  -17.6735 O   0  0  0  0  0  0  0  0  0  0  0  0
   18.9338   -9.6008  -14.7221 C   0  0  0  0  0  0  0  0  0  0  0  0
   19.8262  -10.8311  -14.8303 C   0  0  1  0  0  0  0  0  0  0  0  0
   19.0922  -11.9907  -15.4133 C   0  0  0  0  0  0  0  0  0  0  0  0
   21.1132  -10.5046  -15.5573 C   0  0  2  0  0  0  0  0  0  0  0  0
   22.0721  -11.5811  -15.4721 N   0  0  0  0  0  0  0  0  0  0  0  0
   21.6258   -9.2141  -15.0959 C   0  0  0  0  0  0  0  0  0  0  0  0
   22.1336   -9.0045  -13.9660 O   0  0  0  0  0  0  0  0  0  0  0  0
   23.6050   -0.5450  -15.7454 O   0  0  0  0  0  0  0  0  0  0  0  0
   23.2287   -1.8537  -15.9954 C   0  0  0  0  0  0  0  0  0  0  0  0
   21.9048   -2.2265  -16.1107 C   0  0  0  0  0  0  0  0  0  0  0  0
   21.5336   -3.5209  -16.3581 C   0  0  0  0  0  0  0  0  0  0  0  0
   22.4862   -4.5241  -16.5050 C   0  0  0  0  0  0  0  0  0  0  0  0
   22.0842   -5.9053  -16.7594 C   0  0  0  0  0  0  0  0  0  0  0  0
   22.0633   -6.7992  -15.5451 C   0  0  2  0  0  0  0  0  0  0  0  0
   21.5463   -8.1100  -15.9896 N   0  0  0  0  0  0  0  0  0  0  0  0
   21.1307   -6.2183  -14.5517 C   0  0  0  0  0  0  0  0  0  0  0  0
   21.5682   -5.6539  -13.4990 O   0  0  0  0  0  0  0  0  0  0  0  0
   23.8047   -4.1395  -16.3875 C   0  0  0  0  0  0  0  0  0  0  0  0
   24.1759   -2.8322  -16.1379 C   0  0  0  0  0  0  0  0  0  0  0  0
   19.7562   -6.2483  -14.6984 O   0  0  0  0  0  0  0  0  0  0  0  0
  2  1  1  6
  2  4  1  0
  3  2  1  0
  4  6  1  0
  4  5  1  6
  6  7  2  0
  9 11  1  0
  9  8  1  6
 10  9  1  0
 11 12  1  1
 12  6  1  0
 13 14  2  0
 13 11  1  0
 15 16  1  0
 16 26  2  0
 16 17  1  0
 17 18  2  0
 18 19  1  0
 19 20  1  0
 21 20  1  6
 21 23  1  0
 21 22  1  0
 22 13  1  0
 23 27  1  0
 24 23  2  0
 25 19  2  0
 26 25  1  0
M  END
$$$$
