TVY.pdb
     RDKit          3D

 27 27  0  0  1  0  0  0  0  0999 V2000
   28.5043  -19.7062  -17.0679 C   0  0  0  0  0  0  0  0  0  0  0  0
   27.3443  -20.0453  -16.1308 C   0  0  1  0  0  0  0  0  0  0  0  0
   26.2981  -20.4643  -16.9525 O   0  0  0  0  0  0  0  0  0  0  0  0
   27.7176  -21.2067  -15.2499 C   0  0  2  0  0  0  0  0  0  0  0  0
   27.9453  -22.3667  -16.0898 N   0  0  0  0  0  0  0  0  0  0  0  0
   26.6827  -21.4975  -14.2261 C   0  0  0  0  0  0  0  0  0  0  0  0
   25.9277  -22.4952  -14.3539 O   0  0  0  0  0  0  0  0  0  0  0  0
   24.5320  -20.5461   -9.8217 C   0  0  0  0  0  0  0  0  0  0  0  0
   25.7284  -20.4011  -10.7540 C   0  0  1  0  0  0  0  0  0  0  0  0
   26.9544  -21.0191  -10.1721 C   0  0  0  0  0  0  0  0  0  0  0  0
   25.3983  -20.9074  -12.1419 C   0  0  2  0  0  0  0  0  0  0  0  0
   26.4837  -20.6923  -13.0698 N   0  0  0  0  0  0  0  0  0  0  0  0
   24.1209  -20.3444  -12.5806 C   0  0  0  0  0  0  0  0  0  0  0  0
   23.9086  -19.1250  -12.7961 O   0  0  0  0  0  0  0  0  0  0  0  0
   15.7956  -20.1416  -15.6048 O   0  0  0  0  0  0  0  0  0  0  0  0
   17.0730  -20.5108  -15.2189 C   0  0  0  0  0  0  0  0  0  0  0  0
   17.2996  -21.5153  -14.3000 C   0  0  0  0  0  0  0  0  0  0  0  0
   18.5632  -21.8799  -13.9190 C   0  0  0  0  0  0  0  0  0  0  0  0
   19.6823  -21.2455  -14.4486 C   0  0  0  0  0  0  0  0  0  0  0  0
   21.0280  -21.6319  -14.0314 C   0  0  0  0  0  0  0  0  0  0  0  0
   21.6981  -20.6806  -13.0722 C   0  0  2  0  0  0  0  0  0  0  0  0
   23.0339  -21.2403  -12.7802 N   0  0  0  0  0  0  0  0  0  0  0  0
   20.9033  -20.6377  -11.8230 C   0  0  0  0  0  0  0  0  0  0  0  0
   20.9876  -21.5724  -10.9643 O   0  0  0  0  0  0  0  0  0  0  0  0
   19.4432  -20.2438  -15.3649 C   0  0  0  0  0  0  0  0  0  0  0  0
   18.1667  -19.8786  -15.7472 C   0  0  0  0  0  0  0  0  0  0  0  0
   20.0387  -19.6042  -11.5130 O   0  0  0  0  0  0  0  0  0  0  0  0
  2  1  1  6
  2  4  1  0
  3  2  1  0
  4  6  1  0
  4  5  1  6
  6  7  2  0
  9 11  1  0
  9  8  1  1
 10  9  1  0
 11 12  1  6
 12  6  1  0
 13 14  2  0
 13 11  1  0
 15 16  1  0
 16 26  2  0
 16 17  1  0
 17 18  2  0
 18 19  1  0
 19 20  1  0
 21 20  1  6
 21 23  1  0
 21 22  1  0
 22 13  1  0
 23 27  1  0
 24 23  2  0
 25 19  2  0
 26 25  1  0
M  END
$$$$
