TVY.pdb
     RDKit          3D

 27 27  0  0  1  0  0  0  0  0999 V2000
   28.2890  -22.0406  -10.0239 C   0  0  0  0  0  0  0  0  0  0  0  0
   27.1860  -21.5900  -10.9826 C   0  0  1  0  0  0  0  0  0  0  0  0
   25.9893  -22.0484  -10.4321 O   0  0  0  0  0  0  0  0  0  0  0  0
   27.1183  -20.0872  -11.0184 C   0  0  2  0  0  0  0  0  0  0  0  0
   26.7877  -19.6096   -9.6897 N   0  0  0  0  0  0  0  0  0  0  0  0
   26.1362  -19.5873  -12.0131 C   0  0  0  0  0  0  0  0  0  0  0  0
   25.0740  -19.0325  -11.6312 O   0  0  0  0  0  0  0  0  0  0  0  0
   24.8926  -18.6586  -16.7733 C   0  0  0  0  0  0  0  0  0  0  0  0
   25.9397  -19.1377  -15.7754 C   0  0  1  0  0  0  0  0  0  0  0  0
   27.1820  -18.3162  -15.8481 C   0  0  0  0  0  0  0  0  0  0  0  0
   25.3575  -19.2288  -14.3811 C   0  0  2  0  0  0  0  0  0  0  0  0
   26.3261  -19.6995  -13.4189 N   0  0  0  0  0  0  0  0  0  0  0  0
   24.1224  -20.0127  -14.4132 C   0  0  0  0  0  0  0  0  0  0  0  0
   24.0632  -21.2541  -14.5971 O   0  0  0  0  0  0  0  0  0  0  0  0
   15.5704  -21.6298  -12.5664 O   0  0  0  0  0  0  0  0  0  0  0  0
   16.8157  -21.0560  -12.7593 C   0  0  0  0  0  0  0  0  0  0  0  0
   17.8550  -21.2444  -11.8710 C   0  0  0  0  0  0  0  0  0  0  0  0
   19.0862  -20.6768  -12.0626 C   0  0  0  0  0  0  0  0  0  0  0  0
   19.3423  -19.8783  -13.1727 C   0  0  0  0  0  0  0  0  0  0  0  0
   20.6549  -19.2673  -13.3672 C   0  0  0  0  0  0  0  0  0  0  0  0
   21.6453  -20.1093  -14.1316 C   0  0  2  0  0  0  0  0  0  0  0  0
   22.8929  -19.3229  -14.2221 N   0  0  0  0  0  0  0  0  0  0  0  0
   21.1124  -20.3376  -15.4947 C   0  0  0  0  0  0  0  0  0  0  0  0
   21.1403  -19.4138  -16.3687 O   0  0  0  0  0  0  0  0  0  0  0  0
   18.2965  -19.6974  -14.0523 C   0  0  0  0  0  0  0  0  0  0  0  0
   17.0553  -20.2719  -13.8559 C   0  0  0  0  0  0  0  0  0  0  0  0
   20.5637  -21.5403  -15.8994 O   0  0  0  0  0  0  0  0  0  0  0  0
  2  1  1  1
  2  4  1  0
  3  2  1  0
  4  6  1  0
  4  5  1  1
  6  7  2  0
  9 11  1  0
  9  8  1  6
 10  9  1  0
 11 12  1  1
 12  6  1  0
 13 14  2  0
 13 11  1  0
 15 16  1  0
 16 26  2  0
 16 17  1  0
 17 18  2  0
 18 19  1  0
 19 20  1  0
 21 20  1  1
 21 23  1  0
 21 22  1  0
 22 13  1  0
 23 27  1  0
 24 23  2  0
 25 19  2  0
 26 25  1  0
M  END
$$$$
