TVY.pdb
     RDKit          3D

 27 27  0  0  1  0  0  0  0  0999 V2000
   26.5053  -19.1114  -18.6896 C   0  0  0  0  0  0  0  0  0  0  0  0
   25.4303  -18.5382  -17.7650 C   0  0  1  0  0  0  0  0  0  0  0  0
   24.6278  -17.7274  -18.5674 O   0  0  0  0  0  0  0  0  0  0  0  0
   24.5625  -19.6477  -17.2359 C   0  0  2  0  0  0  0  0  0  0  0  0
   23.9791  -20.3522  -18.3612 N   0  0  0  0  0  0  0  0  0  0  0  0
   23.5021  -19.1519  -16.3229 C   0  0  0  0  0  0  0  0  0  0  0  0
   23.8093  -18.5368  -15.2698 O   0  0  0  0  0  0  0  0  0  0  0  0
   19.0443  -17.5191  -15.2753 C   0  0  0  0  0  0  0  0  0  0  0  0
   20.1160  -17.9410  -16.2730 C   0  0  1  0  0  0  0  0  0  0  0  0
   20.7783  -16.7600  -16.8975 C   0  0  0  0  0  0  0  0  0  0  0  0
   21.0885  -18.9154  -15.6438 C   0  0  2  0  0  0  0  0  0  0  0  0
   22.1129  -19.3343  -16.5715 N   0  0  0  0  0  0  0  0  0  0  0  0
   20.3513  -20.0220  -15.0330 C   0  0  0  0  0  0  0  0  0  0  0  0
   19.4603  -20.6962  -15.6073 O   0  0  0  0  0  0  0  0  0  0  0  0
   18.4626  -26.0760   -8.7784 O   0  0  0  0  0  0  0  0  0  0  0  0
   19.0322  -25.0706   -9.5412 C   0  0  0  0  0  0  0  0  0  0  0  0
   19.1662  -23.7801   -9.0707 C   0  0  0  0  0  0  0  0  0  0  0  0
   19.7298  -22.7865   -9.8257 C   0  0  0  0  0  0  0  0  0  0  0  0
   20.1954  -23.0403  -11.1118 C   0  0  0  0  0  0  0  0  0  0  0  0
   20.7872  -21.9744  -11.9165 C   0  0  0  0  0  0  0  0  0  0  0  0
   19.9273  -21.4773  -13.0513 C   0  0  2  0  0  0  0  0  0  0  0  0
   20.6628  -20.3652  -13.6879 N   0  0  0  0  0  0  0  0  0  0  0  0
   18.6581  -20.9631  -12.4868 C   0  0  0  0  0  0  0  0  0  0  0  0
   17.5806  -21.6314  -12.5899 O   0  0  0  0  0  0  0  0  0  0  0  0
   20.0558  -24.3327  -11.5705 C   0  0  0  0  0  0  0  0  0  0  0  0
   19.4867  -25.3330  -10.8059 C   0  0  0  0  0  0  0  0  0  0  0  0
   18.5612  -19.7529  -11.8251 O   0  0  0  0  0  0  0  0  0  0  0  0
  2  1  1  6
  2  4  1  0
  3  2  1  0
  4  6  1  0
  4  5  1  6
  6  7  2  0
  9 11  1  0
  9  8  1  1
 10  9  1  0
 11 12  1  6
 12  6  1  0
 13 14  2  0
 13 11  1  0
 15 16  1  0
 16 26  2  0
 16 17  1  0
 17 18  2  0
 18 19  1  0
 19 20  1  0
 21 20  1  1
 21 23  1  0
 21 22  1  0
 22 13  1  0
 23 27  1  0
 24 23  2  0
 25 19  2  0
 26 25  1  0
M  END
$$$$
