TVY.pdb
     RDKit          3D

 27 27  0  0  1  0  0  0  0  0999 V2000
   22.9740  -23.2859  -15.8395 C   0  0  0  0  0  0  0  0  0  0  0  0
   22.9413  -24.3568  -16.9308 C   0  0  1  0  0  0  0  0  0  0  0  0
   24.1845  -24.3000  -17.5605 O   0  0  0  0  0  0  0  0  0  0  0  0
   22.8139  -25.7210  -16.3086 C   0  0  2  0  0  0  0  0  0  0  0  0
   22.7912  -26.7100  -17.3689 N   0  0  0  0  0  0  0  0  0  0  0  0
   21.6069  -25.8437  -15.4532 C   0  0  0  0  0  0  0  0  0  0  0  0
   20.4610  -25.6909  -15.9486 O   0  0  0  0  0  0  0  0  0  0  0  0
   19.4699  -27.0491  -11.1069 C   0  0  0  0  0  0  0  0  0  0  0  0
   20.6962  -27.0691  -12.0111 C   0  0  1  0  0  0  0  0  0  0  0  0
   21.0986  -28.4625  -12.3577 C   0  0  0  0  0  0  0  0  0  0  0  0
   20.4923  -26.1817  -13.2203 C   0  0  2  0  0  0  0  0  0  0  0  0
   21.6654  -26.1331  -14.0612 N   0  0  0  0  0  0  0  0  0  0  0  0
   20.0136  -24.8672  -12.7915 C   0  0  0  0  0  0  0  0  0  0  0  0
   20.6357  -24.0904  -12.0245 O   0  0  0  0  0  0  0  0  0  0  0  0
   14.4795  -23.7444  -18.0002 O   0  0  0  0  0  0  0  0  0  0  0  0
   15.3752  -23.3708  -17.0126 C   0  0  0  0  0  0  0  0  0  0  0  0
   16.7108  -23.7143  -17.0664 C   0  0  0  0  0  0  0  0  0  0  0  0
   17.5959  -23.3444  -16.0895 C   0  0  0  0  0  0  0  0  0  0  0  0
   17.1802  -22.5990  -14.9908 C   0  0  0  0  0  0  0  0  0  0  0  0
   18.1269  -22.2151  -13.9465 C   0  0  0  0  0  0  0  0  0  0  0  0
   18.1978  -23.1563  -12.7703 C   0  0  2  0  0  0  0  0  0  0  0  0
   18.7496  -24.4301  -13.2763 N   0  0  0  0  0  0  0  0  0  0  0  0
   16.8226  -23.3849  -12.2697 C   0  0  0  0  0  0  0  0  0  0  0  0
   16.2354  -24.4969  -12.4617 O   0  0  0  0  0  0  0  0  0  0  0  0
   15.8442  -22.2624  -14.9482 C   0  0  0  0  0  0  0  0  0  0  0  0
   14.9537  -22.6373  -15.9360 C   0  0  0  0  0  0  0  0  0  0  0  0
   16.1028  -22.4297  -11.5761 O   0  0  0  0  0  0  0  0  0  0  0  0
  2  1  1  1
  2  4  1  0
  3  2  1  0
  4  6  1  0
  4  5  1  6
  6  7  2  0
  9 11  1  0
  9  8  1  6
 10  9  1  0
 11 12  1  1
 12  6  1  0
 13 14  2  0
 13 11  1  0
 15 16  1  0
 16 26  2  0
 16 17  1  0
 17 18  2  0
 18 19  1  0
 19 20  1  0
 21 20  1  6
 21 23  1  0
 21 22  1  0
 22 13  1  0
 23 27  1  0
 24 23  2  0
 25 19  2  0
 26 25  1  0
M  END
$$$$
