TVY.pdb
     RDKit          3D

 27 27  0  0  1  0  0  0  0  0999 V2000
   19.6042  -16.2646  -16.0899 C   0  0  0  0  0  0  0  0  0  0  0  0
   19.9542  -17.4284  -15.1615 C   0  0  1  0  0  0  0  0  0  0  0  0
   19.2123  -18.5181  -15.6170 O   0  0  0  0  0  0  0  0  0  0  0  0
   21.4094  -17.7823  -15.3070 C   0  0  2  0  0  0  0  0  0  0  0  0
   21.6779  -18.9630  -14.5089 N   0  0  0  0  0  0  0  0  0  0  0  0
   22.3065  -16.6680  -14.9103 C   0  0  0  0  0  0  0  0  0  0  0  0
   22.4153  -16.3422  -13.7005 O   0  0  0  0  0  0  0  0  0  0  0  0
   26.0577  -13.5869  -15.8529 C   0  0  0  0  0  0  0  0  0  0  0  0
   25.2959  -14.8922  -16.0470 C   0  0  1  0  0  0  0  0  0  0  0  0
   26.0762  -16.0610  -15.5488 C   0  0  0  0  0  0  0  0  0  0  0  0
   23.9046  -14.8003  -15.4577 C   0  0  2  0  0  0  0  0  0  0  0  0
   23.0775  -15.9195  -15.8431 N   0  0  0  0  0  0  0  0  0  0  0  0
   23.3221  -13.4951  -15.7711 C   0  0  0  0  0  0  0  0  0  0  0  0
   22.6657  -13.2313  -16.8094 O   0  0  0  0  0  0  0  0  0  0  0  0
   20.9579   -5.0528  -14.1757 O   0  0  0  0  0  0  0  0  0  0  0  0
   21.5209   -6.3165  -14.1204 C   0  0  0  0  0  0  0  0  0  0  0  0
   22.7785   -6.5813  -14.6234 C   0  0  0  0  0  0  0  0  0  0  0  0
   23.3345   -7.8313  -14.5683 C   0  0  0  0  0  0  0  0  0  0  0  0
   22.6468   -8.8970  -13.9967 C   0  0  0  0  0  0  0  0  0  0  0  0
   23.2409  -10.2307  -13.9490 C   0  0  0  0  0  0  0  0  0  0  0  0
   22.8900  -11.1288  -15.1086 C   0  0  2  0  0  0  0  0  0  0  0  0
   23.5095  -12.4417  -14.8335 N   0  0  0  0  0  0  0  0  0  0  0  0
   23.4834  -10.5577  -16.3397 C   0  0  0  0  0  0  0  0  0  0  0  0
   24.7303  -10.6592  -16.5701 O   0  0  0  0  0  0  0  0  0  0  0  0
   21.3918   -8.6201  -13.4981 C   0  0  0  0  0  0  0  0  0  0  0  0
   20.8337   -7.3574  -13.5554 C   0  0  0  0  0  0  0  0  0  0  0  0
   22.7407   -9.8934  -17.2982 O   0  0  0  0  0  0  0  0  0  0  0  0
  2  1  1  6
  2  4  1  0
  3  2  1  0
  4  6  1  0
  4  5  1  1
  6  7  2  0
  9 11  1  0
  9  8  1  1
 10  9  1  0
 11 12  1  6
 12  6  1  0
 13 14  2  0
 13 11  1  0
 15 16  1  0
 16 26  2  0
 16 17  1  0
 17 18  2  0
 18 19  1  0
 19 20  1  0
 21 20  1  1
 21 23  1  0
 21 22  1  0
 22 13  1  0
 23 27  1  0
 24 23  2  0
 25 19  2  0
 26 25  1  0
M  END
$$$$
