VHT.pdb
     RDKit          3D

 25 25  0  0  1  0  0  0  0  0999 V2000
    7.2802  -13.4419   20.2943 C   0  0  0  0  0  0  0  0  0  0  0  0
    8.4908  -13.3218   19.4387 C   0  0  2  0  0  0  0  0  0  0  0  0
    8.2623  -12.2393   18.3748 C   0  0  0  0  0  0  0  0  0  0  0  0
    8.9615  -14.5737   18.7773 C   0  0  2  0  0  0  0  0  0  0  0  0
    7.8992  -14.9992   17.8377 N   0  0  0  0  0  0  0  0  0  0  0  0
    9.3100  -15.6761   19.6881 C   0  0  0  0  0  0  0  0  0  0  0  0
    8.4430  -16.5639   19.9120 O   0  0  0  0  0  0  0  0  0  0  0  0
   10.5527  -15.7765   20.3065 N   0  0  0  0  0  0  0  0  0  0  0  0
   10.9053  -16.8686   21.2261 C   0  0  1  0  0  0  0  0  0  0  0  0
   12.3457  -17.2425   20.8473 C   0  0  0  0  0  0  0  0  0  0  0  0
   12.3567  -18.1122   19.6485 C   0  0  0  0  0  0  0  0  0  0  0  0
   12.1584  -19.4781   19.5653 C   0  0  0  0  0  0  0  0  0  0  0  0
   12.2578  -19.8452   18.2679 N   0  0  0  0  0  0  0  0  0  0  0  0
   12.5121  -18.7495   17.5402 C   0  0  0  0  0  0  0  0  0  0  0  0
   12.5697  -17.7046   18.3897 N   0  0  0  0  0  0  0  0  0  0  0  0
   10.9073  -16.3184   22.6030 C   0  0  0  0  0  0  0  0  0  0  0  0
   11.6065  -15.3188   22.9022 O   0  0  0  0  0  0  0  0  0  0  0  0
    8.1417  -14.7753   24.4647 C   0  0  0  0  0  0  0  0  0  0  0  0
    8.5932  -15.9385   25.3233 C   0  0  1  0  0  0  0  0  0  0  0  0
    7.7390  -17.0179   25.2686 O   0  0  0  0  0  0  0  0  0  0  0  0
   10.0195  -16.2881   24.9733 C   0  0  2  0  0  0  0  0  0  0  0  0
   10.1312  -16.8768   23.6568 N   0  0  0  0  0  0  0  0  0  0  0  0
   10.6303  -17.2031   25.9503 C   0  0  0  0  0  0  0  0  0  0  0  0
   11.0113  -16.8130   27.2278 O   0  0  0  0  0  0  0  0  0  0  0  0
   10.8328  -18.4006   25.6525 O   0  0  0  0  0  0  0  0  0  0  0  0
  2  1  1  6
  2  3  1  0
  4  6  1  0
  4  2  1  0
  4  5  1  6
  6  7  2  0
  8  9  1  0
  8  6  1  0
  9 10  1  6
 10 11  1  0
 11 12  2  0
 13 12  1  0
 14 13  1  0
 15 14  2  0
 15 11  1  0
 16  9  1  0
 17 16  2  0
 19 18  1  6
 19 20  1  0
 19 21  1  0
 21 22  1  6
 22 16  1  0
 23 21  1  0
 23 24  1  0
 25 23  2  0
M  END
$$$$
