VHT.pdb
     RDKit          3D

 25 25  0  0  1  0  0  0  0  0999 V2000
    7.3853  -12.4634   18.6819 C   0  0  0  0  0  0  0  0  0  0  0  0
    7.7508  -13.5297   19.6522 C   0  0  2  0  0  0  0  0  0  0  0  0
    8.6089  -12.9302   20.7747 C   0  0  0  0  0  0  0  0  0  0  0  0
    8.4385  -14.7289   19.0907 C   0  0  2  0  0  0  0  0  0  0  0  0
    7.5283  -15.3265   18.0874 N   0  0  0  0  0  0  0  0  0  0  0  0
    8.8475  -15.7416   20.0774 C   0  0  0  0  0  0  0  0  0  0  0  0
    7.9607  -16.4935   20.5656 O   0  0  0  0  0  0  0  0  0  0  0  0
   10.1675  -15.9013   20.4883 N   0  0  0  0  0  0  0  0  0  0  0  0
   10.5758  -16.8690   21.5177 C   0  0  1  0  0  0  0  0  0  0  0  0
   12.0755  -17.0870   21.2695 C   0  0  0  0  0  0  0  0  0  0  0  0
   12.2831  -18.1103   20.2190 C   0  0  0  0  0  0  0  0  0  0  0  0
   11.3417  -18.8709   19.5502 C   0  0  0  0  0  0  0  0  0  0  0  0
   11.9867  -19.6749   18.6754 N   0  0  0  0  0  0  0  0  0  0  0  0
   13.3013  -19.4384   18.7788 C   0  0  0  0  0  0  0  0  0  0  0  0
   13.4679  -18.4869   19.7188 N   0  0  0  0  0  0  0  0  0  0  0  0
   10.4058  -16.2216   22.8408 C   0  0  0  0  0  0  0  0  0  0  0  0
   11.0286  -15.1712   23.1349 O   0  0  0  0  0  0  0  0  0  0  0  0
    7.6350  -14.4724   24.3163 C   0  0  0  0  0  0  0  0  0  0  0  0
    7.8833  -15.6225   25.2699 C   0  0  1  0  0  0  0  0  0  0  0  0
    6.9604  -16.6381   25.1483 O   0  0  0  0  0  0  0  0  0  0  0  0
    9.3102  -16.0918   25.1190 C   0  0  2  0  0  0  0  0  0  0  0  0
    9.5416  -16.7385   23.8460 N   0  0  0  0  0  0  0  0  0  0  0  0
    9.7166  -17.0110   26.1935 C   0  0  0  0  0  0  0  0  0  0  0  0
   10.0710  -18.3357   25.9721 O   0  0  0  0  0  0  0  0  0  0  0  0
    9.7576  -16.6166   27.3795 O   0  0  0  0  0  0  0  0  0  0  0  0
  2  1  1  6
  2  3  1  0
  4  6  1  0
  4  2  1  0
  4  5  1  6
  6  7  2  0
  8  9  1  0
  8  6  1  0
  9 10  1  6
 10 11  1  0
 11 12  2  0
 13 12  1  0
 14 13  1  0
 15 14  2  0
 15 11  1  0
 16  9  1  0
 17 16  2  0
 19 18  1  6
 19 20  1  0
 19 21  1  0
 21 22  1  6
 22 16  1  0
 23 21  1  0
 23 24  1  0
 25 23  2  0
M  END
$$$$
