VHT.pdb
     RDKit          3D

 25 25  0  0  1  0  0  0  0  0999 V2000
    7.7311  -12.4281   18.4688 C   0  0  0  0  0  0  0  0  0  0  0  0
    7.9268  -13.5117   19.4685 C   0  0  2  0  0  0  0  0  0  0  0  0
    8.5706  -12.9314   20.7352 C   0  0  0  0  0  0  0  0  0  0  0  0
    8.7098  -14.6980   19.0149 C   0  0  2  0  0  0  0  0  0  0  0  0
    7.9921  -15.2808   17.8584 N   0  0  0  0  0  0  0  0  0  0  0  0
    8.9478  -15.7269   20.0402 C   0  0  0  0  0  0  0  0  0  0  0  0
    8.0029  -16.5086   20.3338 O   0  0  0  0  0  0  0  0  0  0  0  0
   10.1686  -15.8702   20.6928 N   0  0  0  0  0  0  0  0  0  0  0  0
   10.4182  -16.9026   21.7099 C   0  0  1  0  0  0  0  0  0  0  0  0
   11.8880  -17.2980   21.5061 C   0  0  0  0  0  0  0  0  0  0  0  0
   12.0263  -18.1895   20.3315 C   0  0  0  0  0  0  0  0  0  0  0  0
   11.6551  -19.5149   20.1994 C   0  0  0  0  0  0  0  0  0  0  0  0
   11.9723  -19.9241   18.9505 N   0  0  0  0  0  0  0  0  0  0  0  0
   12.5298  -18.8939   18.3004 C   0  0  0  0  0  0  0  0  0  0  0  0
   12.5568  -17.8473   19.1494 N   0  0  0  0  0  0  0  0  0  0  0  0
   10.2809  -16.2677   23.0428 C   0  0  0  0  0  0  0  0  0  0  0  0
   10.9573  -15.2559   23.3532 O   0  0  0  0  0  0  0  0  0  0  0  0
    7.6261  -14.3413   24.5594 C   0  0  0  0  0  0  0  0  0  0  0  0
    7.7727  -15.5597   25.4470 C   0  0  1  0  0  0  0  0  0  0  0  0
    6.7976  -16.5089   25.2322 O   0  0  0  0  0  0  0  0  0  0  0  0
    9.1746  -16.1038   25.3136 C   0  0  2  0  0  0  0  0  0  0  0  0
    9.3900  -16.7543   24.0397 N   0  0  0  0  0  0  0  0  0  0  0  0
    9.5153  -17.0499   26.3876 C   0  0  0  0  0  0  0  0  0  0  0  0
    9.7945  -18.3920   26.1633 O   0  0  0  0  0  0  0  0  0  0  0  0
    9.5662  -16.6639   27.5760 O   0  0  0  0  0  0  0  0  0  0  0  0
  2  1  1  6
  2  3  1  0
  4  6  1  0
  4  2  1  0
  4  5  1  6
  6  7  2  0
  8  9  1  0
  8  6  1  0
  9 10  1  6
 10 11  1  0
 11 12  2  0
 13 12  1  0
 14 13  1  0
 15 14  2  0
 15 11  1  0
 16  9  1  0
 17 16  2  0
 19 18  1  6
 19 20  1  0
 19 21  1  0
 21 22  1  6
 22 16  1  0
 23 21  1  0
 23 24  1  0
 25 23  2  0
M  END
$$$$
