VHT.pdb
     RDKit          3D

 25 25  0  0  1  0  0  0  0  0999 V2000
    9.8600  -18.8200   20.7872 C   0  0  0  0  0  0  0  0  0  0  0  0
    8.8845  -17.8673   20.1932 C   0  0  2  0  0  0  0  0  0  0  0  0
    8.5997  -18.2645   18.7383 C   0  0  0  0  0  0  0  0  0  0  0  0
    9.2521  -16.4223   20.2485 C   0  0  2  0  0  0  0  0  0  0  0  0
   10.5243  -16.2649   19.5077 N   0  0  0  0  0  0  0  0  0  0  0  0
    9.3739  -15.8533   21.6005 C   0  0  0  0  0  0  0  0  0  0  0  0
   10.5160  -15.8179   22.1339 O   0  0  0  0  0  0  0  0  0  0  0  0
    8.2840  -15.3543   22.3075 N   0  0  0  0  0  0  0  0  0  0  0  0
    8.3834  -14.8546   23.6871 C   0  0  1  0  0  0  0  0  0  0  0  0
    7.0135  -14.2199   23.9675 C   0  0  0  0  0  0  0  0  0  0  0  0
    7.0013  -13.5842   25.3052 C   0  0  0  0  0  0  0  0  0  0  0  0
    7.9856  -13.5869   26.2764 C   0  0  0  0  0  0  0  0  0  0  0  0
    7.5393  -12.8784   27.3378 N   0  0  0  0  0  0  0  0  0  0  0  0
    6.3068  -12.4343   27.0574 C   0  0  0  0  0  0  0  0  0  0  0  0
    5.9921  -12.8694   25.8212 N   0  0  0  0  0  0  0  0  0  0  0  0
    8.5530  -16.0250   24.5816 C   0  0  0  0  0  0  0  0  0  0  0  0
    7.7076  -16.9536   24.6038 O   0  0  0  0  0  0  0  0  0  0  0  0
   10.7701  -18.6037   24.2526 C   0  0  0  0  0  0  0  0  0  0  0  0
   11.1065  -18.1461   25.6567 C   0  0  1  0  0  0  0  0  0  0  0  0
   12.3013  -17.4648   25.7346 O   0  0  0  0  0  0  0  0  0  0  0  0
    9.9394  -17.3699   26.2175 C   0  0  2  0  0  0  0  0  0  0  0  0
    9.6647  -16.1701   25.4577 N   0  0  0  0  0  0  0  0  0  0  0  0
   10.1365  -16.9982   27.6274 C   0  0  0  0  0  0  0  0  0  0  0  0
   10.2000  -17.9249   28.6601 O   0  0  0  0  0  0  0  0  0  0  0  0
   10.2573  -15.7966   27.9522 O   0  0  0  0  0  0  0  0  0  0  0  0
  2  1  1  6
  2  3  1  0
  4  6  1  0
  4  2  1  0
  4  5  1  1
  6  7  2  0
  8  9  1  0
  8  6  1  0
  9 10  1  1
 10 11  1  0
 11 12  2  0
 13 12  1  0
 14 13  1  0
 15 14  2  0
 15 11  1  0
 16  9  1  0
 17 16  2  0
 19 18  1  6
 19 20  1  0
 19 21  1  0
 21 22  1  6
 22 16  1  0
 23 21  1  0
 23 24  1  0
 25 23  2  0
M  END
$$$$
