VHT.pdb
     RDKit          3D

 25 25  0  0  1  0  0  0  0  0999 V2000
    7.6685  -12.5243   21.0728 C   0  0  0  0  0  0  0  0  0  0  0  0
    8.4709  -13.5733   20.3889 C   0  0  2  0  0  0  0  0  0  0  0  0
    8.7246  -13.1581   18.9332 C   0  0  0  0  0  0  0  0  0  0  0  0
    7.9147  -14.9575   20.4186 C   0  0  2  0  0  0  0  0  0  0  0  0
    6.7181  -14.9680   19.5468 N   0  0  0  0  0  0  0  0  0  0  0  0
    7.5780  -15.4738   21.7552 C   0  0  0  0  0  0  0  0  0  0  0  0
    6.4238  -15.2484   22.2103 O   0  0  0  0  0  0  0  0  0  0  0  0
    8.4786  -16.1982   22.5305 N   0  0  0  0  0  0  0  0  0  0  0  0
    8.1425  -16.7382   23.8565 C   0  0  1  0  0  0  0  0  0  0  0  0
    8.4587  -18.2374   23.7544 C   0  0  0  0  0  0  0  0  0  0  0  0
    8.1901  -18.9124   25.0451 C   0  0  0  0  0  0  0  0  0  0  0  0
    7.6888  -18.3763   26.2170 C   0  0  0  0  0  0  0  0  0  0  0  0
    7.6104  -19.3631   27.1379 N   0  0  0  0  0  0  0  0  0  0  0  0
    8.0477  -20.4976   26.5754 C   0  0  0  0  0  0  0  0  0  0  0  0
    8.3964  -20.2106   25.3054 N   0  0  0  0  0  0  0  0  0  0  0  0
    9.0666  -16.1271   24.8419 C   0  0  0  0  0  0  0  0  0  0  0  0
   10.2117  -15.7372   24.5037 O   0  0  0  0  0  0  0  0  0  0  0  0
    9.7621  -13.2194   28.5933 C   0  0  0  0  0  0  0  0  0  0  0  0
    8.8306  -13.9730   27.6668 C   0  0  1  0  0  0  0  0  0  0  0  0
    8.3083  -13.1862   26.6637 O   0  0  0  0  0  0  0  0  0  0  0  0
    9.5339  -15.2060   27.1529 C   0  0  2  0  0  0  0  0  0  0  0  0
    8.7230  -15.9455   26.2107 N   0  0  0  0  0  0  0  0  0  0  0  0
    9.9409  -16.1142   28.2365 C   0  0  0  0  0  0  0  0  0  0  0  0
   11.0972  -15.9392   28.9861 O   0  0  0  0  0  0  0  0  0  0  0  0
    9.2361  -17.1054   28.5273 O   0  0  0  0  0  0  0  0  0  0  0  0
  2  1  1  6
  2  3  1  0
  4  6  1  0
  4  2  1  0
  4  5  1  6
  6  7  2  0
  8  9  1  0
  8  6  1  0
  9 10  1  6
 10 11  1  0
 11 12  2  0
 13 12  1  0
 14 13  1  0
 15 14  2  0
 15 11  1  0
 16  9  1  0
 17 16  2  0
 19 18  1  6
 19 20  1  0
 19 21  1  0
 21 22  1  6
 22 16  1  0
 23 21  1  0
 23 24  1  0
 25 23  2  0
M  END
$$$$
