VHT.pdb
     RDKit          3D

 25 25  0  0  1  0  0  0  0  0999 V2000
    7.8458  -13.9823   20.3874 C   0  0  0  0  0  0  0  0  0  0  0  0
    8.3725  -13.0780   19.3305 C   0  0  2  0  0  0  0  0  0  0  0  0
    7.2520  -12.1481   18.8452 C   0  0  0  0  0  0  0  0  0  0  0  0
    9.0133  -13.7360   18.1546 C   0  0  2  0  0  0  0  0  0  0  0  0
    7.9727  -14.5508   17.4871 N   0  0  0  0  0  0  0  0  0  0  0  0
   10.1926  -14.5625   18.4589 C   0  0  0  0  0  0  0  0  0  0  0  0
   10.0347  -15.8073   18.5833 O   0  0  0  0  0  0  0  0  0  0  0  0
   11.4677  -14.0261   18.6118 N   0  0  0  0  0  0  0  0  0  0  0  0
   12.6534  -14.8461   18.9025 C   0  0  1  0  0  0  0  0  0  0  0  0
   13.8382  -13.9961   18.4212 C   0  0  0  0  0  0  0  0  0  0  0  0
   15.0762  -14.8082   18.3822 C   0  0  0  0  0  0  0  0  0  0  0  0
   15.2587  -16.1302   18.7443 C   0  0  0  0  0  0  0  0  0  0  0  0
   16.5559  -16.4525   18.5417 N   0  0  0  0  0  0  0  0  0  0  0  0
   17.1872  -15.3716   18.0644 C   0  0  0  0  0  0  0  0  0  0  0  0
   16.2783  -14.3806   17.9723 N   0  0  0  0  0  0  0  0  0  0  0  0
   12.7490  -14.9984   20.3743 C   0  0  0  0  0  0  0  0  0  0  0  0
   12.8507  -13.9971   21.1258 O   0  0  0  0  0  0  0  0  0  0  0  0
   10.4489  -15.9871   22.9821 C   0  0  0  0  0  0  0  0  0  0  0  0
   11.5478  -17.0283   23.0302 C   0  0  1  0  0  0  0  0  0  0  0  0
   11.1891  -18.2242   22.4479 O   0  0  0  0  0  0  0  0  0  0  0  0
   12.8131  -16.4399   22.4540 C   0  0  2  0  0  0  0  0  0  0  0  0
   12.7320  -16.2660   21.0204 N   0  0  0  0  0  0  0  0  0  0  0  0
   14.0016  -17.2507   22.7623 C   0  0  0  0  0  0  0  0  0  0  0  0
   14.5326  -17.3728   24.0400 O   0  0  0  0  0  0  0  0  0  0  0  0
   14.5914  -17.8765   21.8544 O   0  0  0  0  0  0  0  0  0  0  0  0
  2  1  1  1
  2  3  1  0
  4  6  1  0
  4  2  1  0
  4  5  1  1
  6  7  2  0
  8  9  1  0
  8  6  1  0
  9 10  1  1
 10 11  1  0
 11 12  2  0
 13 12  1  0
 14 13  1  0
 15 14  2  0
 15 11  1  0
 16  9  1  0
 17 16  2  0
 19 18  1  6
 19 20  1  0
 19 21  1  0
 21 22  1  6
 22 16  1  0
 23 21  1  0
 23 24  1  0
 25 23  2  0
M  END
$$$$
