VHT.pdb
     RDKit          3D

 25 25  0  0  1  0  0  0  0  0999 V2000
    7.1306  -12.7020   20.4925 C   0  0  0  0  0  0  0  0  0  0  0  0
    8.4151  -13.2338   19.9640 C   0  0  2  0  0  0  0  0  0  0  0  0
    8.6408  -12.7088   18.5395 C   0  0  0  0  0  0  0  0  0  0  0  0
    8.5725  -14.7175   19.9750 C   0  0  2  0  0  0  0  0  0  0  0  0
    7.6490  -15.2639   18.9549 N   0  0  0  0  0  0  0  0  0  0  0  0
    8.3403  -15.3672   21.2752 C   0  0  0  0  0  0  0  0  0  0  0  0
    7.2165  -15.8991   21.4859 O   0  0  0  0  0  0  0  0  0  0  0  0
    9.3080  -15.4181   22.2741 N   0  0  0  0  0  0  0  0  0  0  0  0
    9.0899  -16.0794   23.5694 C   0  0  1  0  0  0  0  0  0  0  0  0
   10.1607  -17.1785   23.6270 C   0  0  0  0  0  0  0  0  0  0  0  0
    9.5783  -18.4889   23.2567 C   0  0  0  0  0  0  0  0  0  0  0  0
    8.2743  -18.7925   22.9109 C   0  0  0  0  0  0  0  0  0  0  0  0
    8.1995  -20.1171   22.6510 N   0  0  0  0  0  0  0  0  0  0  0  0
    9.4173  -20.6481   22.8242 C   0  0  0  0  0  0  0  0  0  0  0  0
   10.2448  -19.6496   23.1917 N   0  0  0  0  0  0  0  0  0  0  0  0
    9.3721  -15.0894   24.6366 C   0  0  0  0  0  0  0  0  0  0  0  0
   10.4252  -14.4049   24.6257 O   0  0  0  0  0  0  0  0  0  0  0  0
    7.5378  -11.9830   25.6855 C   0  0  0  0  0  0  0  0  0  0  0  0
    7.5635  -12.9010   26.8898 C   0  0  1  0  0  0  0  0  0  0  0  0
    6.3574  -13.5246   27.1235 O   0  0  0  0  0  0  0  0  0  0  0  0
    8.7170  -13.8652   26.7531 C   0  0  2  0  0  0  0  0  0  0  0  0
    8.4843  -14.8540   25.7233 N   0  0  0  0  0  0  0  0  0  0  0  0
    9.0202  -14.5618   28.0131 C   0  0  0  0  0  0  0  0  0  0  0  0
    9.4617  -13.9115   29.1583 O   0  0  0  0  0  0  0  0  0  0  0  0
    8.8860  -15.8023   28.0965 O   0  0  0  0  0  0  0  0  0  0  0  0
  2  1  1  6
  2  3  1  0
  4  6  1  0
  4  2  1  0
  4  5  1  6
  6  7  2  0
  8  9  1  0
  8  6  1  0
  9 10  1  1
 10 11  1  0
 11 12  2  0
 13 12  1  0
 14 13  1  0
 15 14  2  0
 15 11  1  0
 16  9  1  0
 17 16  2  0
 19 18  1  6
 19 20  1  0
 19 21  1  0
 21 22  1  6
 22 16  1  0
 23 21  1  0
 23 24  1  0
 25 23  2  0
M  END
$$$$
