MRD.pdb
     RDKit          3D

 28 27  0  0  1  0  0  0  0  0999 V2000
   13.7267  -23.8781   -6.1754 C   0  0  0  0  0  0  0  0  0  0  0  0
   14.1396  -24.6104   -4.5598 S   0  0  0  0  0  0  0  0  0  0  0  0
   15.6495  -25.5967   -4.6724 C   0  0  0  0  0  0  0  0  0  0  0  0
   16.4565  -25.0840   -5.8444 C   0  0  0  0  0  0  0  0  0  0  0  0
   17.7862  -25.8081   -5.9378 C   0  0  2  0  0  0  0  0  0  0  0  0
   18.6178  -25.5212   -4.8061 N   0  0  0  0  0  0  0  0  0  0  0  0
   18.4022  -25.5328   -7.2466 C   0  0  0  0  0  0  0  0  0  0  0  0
   19.1215  -24.5307   -7.3753 O   0  0  0  0  0  0  0  0  0  0  0  0
   21.9368  -28.4806  -13.6372 N   0  0  0  0  0  0  0  0  0  0  0  0
   21.3168  -29.3781  -12.7158 C   0  0  0  0  0  0  0  0  0  0  0  0
   22.0432  -30.2520  -12.1141 N   0  0  0  0  0  0  0  0  0  0  0  0
   19.9413  -29.3528  -12.4268 N   0  0  0  0  0  0  0  0  0  0  0  0
   19.0124  -28.3221  -12.8291 C   0  0  0  0  0  0  0  0  0  0  0  0
   19.0931  -27.0604  -12.0338 C   0  0  0  0  0  0  0  0  0  0  0  0
   18.6366  -27.3066  -10.6254 C   0  0  0  0  0  0  0  0  0  0  0  0
   18.6954  -26.1600   -9.6939 C   0  0  2  0  0  0  0  0  0  0  0  0
   18.2081  -26.3617   -8.3648 N   0  0  0  0  0  0  0  0  0  0  0  0
   18.0360  -24.9729  -10.3490 C   0  0  0  0  0  0  0  0  0  0  0  0
   16.7979  -24.7809  -10.2630 O   0  0  0  0  0  0  0  0  0  0  0  0
   21.6313  -30.9366  -11.4604 N   0  0  0  0  0  0  0  0  0  0  0  0
   18.7870  -24.0092  -11.0990 C   0  0  2  0  0  0  0  0  0  0  0  0
   18.1539  -22.8662  -11.7327 C   0  0  0  0  0  0  0  0  0  0  0  0
   19.2657  -21.8840  -12.0622 C   0  0  0  0  0  0  0  0  0  0  0  0
   18.6842  -20.7221  -12.7378 O   0  0  0  0  0  0  0  0  0  0  0  0
   17.4503  -20.5773  -12.8852 C   0  0  0  0  0  0  0  0  0  0  0  0
   17.4565  -23.3148  -12.9495 O   0  0  0  0  0  0  0  0  0  0  0  0
   16.2331  -22.8052  -13.3425 O   0  0  0  0  0  0  0  0  0  0  0  0
   19.5332  -19.7405  -13.2353 O   0  0  0  0  0  0  0  0  0  0  0  0
  2  1  1  0
  3  2  1  0
  4  3  1  0
  4  5  1  0
  5  6  1  1
  7  8  2  0
  7  5  1  0
  9 10  1  0
 10 11  2  0
 12 10  1  0
 12 13  1  0
 13 14  1  0
 15 14  1  0
 16 15  1  6
 16 17  1  0
 17  7  1  0
 18 20  1  0
 18 16  1  0
 19 18  2  0
 21 20  1  0
 21 25  1  0
 21 22  1  1
 23 22  1  0
 24 23  2  0
 25 26  1  0
 27 23  1  0
 28 25  2  0
M  END
$$$$
