MRD.pdb
     RDKit          3D

 28 27  0  0  1  0  0  0  0  0999 V2000
   28.4314  -19.2165   -5.5426 C   0  0  0  0  0  0  0  0  0  0  0  0
   29.8580  -20.3482   -5.5724 S   0  0  0  0  0  0  0  0  0  0  0  0
   29.7624  -21.4593   -6.9943 C   0  0  0  0  0  0  0  0  0  0  0  0
   28.7271  -20.9084   -7.9493 C   0  0  0  0  0  0  0  0  0  0  0  0
   28.6324  -21.7709   -9.1936 C   0  0  2  0  0  0  0  0  0  0  0  0
   29.9321  -22.1171   -9.6893 N   0  0  0  0  0  0  0  0  0  0  0  0
   27.7472  -21.1200  -10.1738 C   0  0  0  0  0  0  0  0  0  0  0  0
   26.5529  -20.9483   -9.8866 O   0  0  0  0  0  0  0  0  0  0  0  0
   28.9371  -21.9228  -16.1010 N   0  0  0  0  0  0  0  0  0  0  0  0
   28.1014  -21.3145  -17.0862 C   0  0  0  0  0  0  0  0  0  0  0  0
   27.6214  -22.0432  -18.0307 N   0  0  0  0  0  0  0  0  0  0  0  0
   27.7702  -19.9484  -17.0746 N   0  0  0  0  0  0  0  0  0  0  0  0
   28.1606  -18.9930  -16.0637 C   0  0  0  0  0  0  0  0  0  0  0  0
   27.3713  -19.0624  -14.7976 C   0  0  0  0  0  0  0  0  0  0  0  0
   28.0677  -19.9430  -13.8016 C   0  0  0  0  0  0  0  0  0  0  0  0
   27.4261  -20.0920  -12.4778 C   0  0  2  0  0  0  0  0  0  0  0  0
   28.1998  -20.6826  -11.4304 N   0  0  0  0  0  0  0  0  0  0  0  0
   26.1086  -20.8022  -12.6584 C   0  0  0  0  0  0  0  0  0  0  0  0
   25.9105  -21.9469  -12.1812 O   0  0  0  0  0  0  0  0  0  0  0  0
   27.0516  -21.6354  -18.7888 N   0  0  0  0  0  0  0  0  0  0  0  0
   25.0218  -20.2082  -13.3804 C   0  0  1  0  0  0  0  0  0  0  0  0
   23.7058  -20.8203  -13.4287 C   0  0  0  0  0  0  0  0  0  0  0  0
   23.1822  -20.8321  -12.0021 C   0  0  0  0  0  0  0  0  0  0  0  0
   21.8221  -21.3749  -12.0030 O   0  0  0  0  0  0  0  0  0  0  0  0
   21.4877  -22.3511  -12.7104 C   0  0  0  0  0  0  0  0  0  0  0  0
   22.8368  -20.0255  -14.3125 O   0  0  0  0  0  0  0  0  0  0  0  0
   23.2553  -18.8569  -14.9207 O   0  0  0  0  0  0  0  0  0  0  0  0
   20.8634  -20.7851  -11.1876 O   0  0  0  0  0  0  0  0  0  0  0  0
  2  1  1  0
  3  2  1  0
  4  3  1  0
  4  5  1  0
  5  6  1  6
  7  8  2  0
  7  5  1  0
  9 10  1  0
 10 11  2  0
 12 10  1  0
 12 13  1  0
 13 14  1  0
 15 14  1  0
 16 15  1  6
 16 17  1  0
 17  7  1  0
 18 20  1  0
 18 16  1  0
 19 18  2  0
 21 20  1  0
 21 25  1  0
 21 22  1  6
 23 22  1  0
 24 23  2  0
 25 26  1  0
 27 23  1  0
 28 25  2  0
M  END
$$$$
