MRD.pdb
     RDKit          3D

 28 27  0  0  1  0  0  0  0  0999 V2000
   24.6913  -14.5030  -19.9429 C   0  0  0  0  0  0  0  0  0  0  0  0
   25.7797  -15.2588  -21.1923 S   0  0  0  0  0  0  0  0  0  0  0  0
   25.1354  -16.8647  -21.7132 C   0  0  0  0  0  0  0  0  0  0  0  0
   24.7162  -17.6245  -20.4744 C   0  0  0  0  0  0  0  0  0  0  0  0
   25.8860  -18.4012  -19.9002 C   0  0  2  0  0  0  0  0  0  0  0  0
   26.5279  -19.1971  -20.9047 N   0  0  0  0  0  0  0  0  0  0  0  0
   25.4421  -19.1444  -18.7091 C   0  0  0  0  0  0  0  0  0  0  0  0
   24.9698  -20.2825  -18.8502 O   0  0  0  0  0  0  0  0  0  0  0  0
   25.7617  -22.0852  -11.8668 N   0  0  0  0  0  0  0  0  0  0  0  0
   25.6232  -21.0024  -10.9462 C   0  0  0  0  0  0  0  0  0  0  0  0
   25.1880  -21.2454   -9.7609 N   0  0  0  0  0  0  0  0  0  0  0  0
   25.9448  -19.6730  -11.2706 N   0  0  0  0  0  0  0  0  0  0  0  0
   26.3511  -19.1955  -12.5722 C   0  0  0  0  0  0  0  0  0  0  0  0
   25.4177  -19.5409  -13.6859 C   0  0  0  0  0  0  0  0  0  0  0  0
   25.8796  -18.9043  -14.9641 C   0  0  0  0  0  0  0  0  0  0  0  0
   25.1185  -19.2344  -16.1880 C   0  0  2  0  0  0  0  0  0  0  0  0
   25.5299  -18.6159  -17.4098 N   0  0  0  0  0  0  0  0  0  0  0  0
   23.6526  -19.0056  -15.9201 C   0  0  0  0  0  0  0  0  0  0  0  0
   23.2079  -17.8650  -15.6398 O   0  0  0  0  0  0  0  0  0  0  0  0
   25.0908  -20.4950   -9.0587 N   0  0  0  0  0  0  0  0  0  0  0  0
   22.6985  -20.0743  -15.9720 C   0  0  2  0  0  0  0  0  0  0  0  0
   21.2890  -19.8599  -15.6959 C   0  0  0  0  0  0  0  0  0  0  0  0
   20.5569  -21.0907  -16.2044 C   0  0  0  0  0  0  0  0  0  0  0  0
   19.1165  -20.8848  -16.0397 O   0  0  0  0  0  0  0  0  0  0  0  0
   18.6400  -19.8562  -15.5102 C   0  0  0  0  0  0  0  0  0  0  0  0
   21.1030  -19.6862  -14.2455 O   0  0  0  0  0  0  0  0  0  0  0  0
   20.2125  -18.7755  -13.7085 O   0  0  0  0  0  0  0  0  0  0  0  0
   18.2423  -21.8680  -16.4879 O   0  0  0  0  0  0  0  0  0  0  0  0
  2  1  1  0
  3  2  1  0
  4  3  1  0
  4  5  1  0
  5  6  1  6
  7  8  2  0
  7  5  1  0
  9 10  1  0
 10 11  2  0
 12 10  1  0
 12 13  1  0
 13 14  1  0
 15 14  1  0
 16 15  1  1
 16 17  1  0
 17  7  1  0
 18 20  1  0
 18 16  1  0
 19 18  2  0
 21 20  1  0
 21 25  1  0
 21 22  1  6
 23 22  1  0
 24 23  2  0
 25 26  1  0
 27 23  1  0
 28 25  2  0
M  END
$$$$
