MRD.pdb
     RDKit          3D

 28 27  0  0  1  0  0  0  0  0999 V2000
   23.7868  -16.7824  -17.8162 C   0  0  0  0  0  0  0  0  0  0  0  0
   25.2532  -17.1231  -18.8411 S   0  0  0  0  0  0  0  0  0  0  0  0
   26.2195  -18.4809  -18.1424 C   0  0  0  0  0  0  0  0  0  0  0  0
   25.3595  -19.1886  -17.1191 C   0  0  0  0  0  0  0  0  0  0  0  0
   26.1450  -20.2846  -16.4241 C   0  0  2  0  0  0  0  0  0  0  0  0
   26.6951  -21.2121  -17.3684 N   0  0  0  0  0  0  0  0  0  0  0  0
   25.3127  -20.8905  -15.3714 C   0  0  0  0  0  0  0  0  0  0  0  0
   24.6186  -21.8807  -15.6471 O   0  0  0  0  0  0  0  0  0  0  0  0
   29.2290  -20.6603  -11.6553 N   0  0  0  0  0  0  0  0  0  0  0  0
   29.2477  -21.2640  -10.3614 C   0  0  0  0  0  0  0  0  0  0  0  0
   30.3710  -21.6565   -9.8742 N   0  0  0  0  0  0  0  0  0  0  0  0
   28.0912  -21.4495   -9.5839 N   0  0  0  0  0  0  0  0  0  0  0  0
   26.7621  -20.9981   -9.9257 C   0  0  0  0  0  0  0  0  0  0  0  0
   26.3240  -21.3332  -11.3137 C   0  0  0  0  0  0  0  0  0  0  0  0
   24.9964  -20.6967  -11.6050 C   0  0  0  0  0  0  0  0  0  0  0  0
   24.4632  -20.8598  -12.9743 C   0  0  2  0  0  0  0  0  0  0  0  0
   25.2694  -20.3913  -14.0584 N   0  0  0  0  0  0  0  0  0  0  0  0
   23.0759  -20.2718  -13.0242 C   0  0  0  0  0  0  0  0  0  0  0  0
   22.8725  -19.1077  -13.4494 O   0  0  0  0  0  0  0  0  0  0  0  0
   30.4202  -22.1689   -8.9794 N   0  0  0  0  0  0  0  0  0  0  0  0
   21.9257  -21.0096  -12.5908 C   0  0  2  0  0  0  0  0  0  0  0  0
   20.6210  -20.8277  -13.2021 C   0  0  0  0  0  0  0  0  0  0  0  0
   20.8031  -21.0747  -14.6905 C   0  0  0  0  0  0  0  0  0  0  0  0
   20.2183  -19.9541  -15.4300 O   0  0  0  0  0  0  0  0  0  0  0  0
   20.2917  -18.7715  -15.0284 C   0  0  0  0  0  0  0  0  0  0  0  0
   19.6738  -21.7876  -12.6110 O   0  0  0  0  0  0  0  0  0  0  0  0
   19.9887  -23.1168  -12.3993 O   0  0  0  0  0  0  0  0  0  0  0  0
   19.5557  -20.2110  -16.6244 O   0  0  0  0  0  0  0  0  0  0  0  0
  2  1  1  0
  3  2  1  0
  4  3  1  0
  4  5  1  0
  5  6  1  6
  7  8  2  0
  7  5  1  0
  9 10  1  0
 10 11  2  0
 12 10  1  0
 12 13  1  0
 13 14  1  0
 15 14  1  0
 16 15  1  1
 16 17  1  0
 17  7  1  0
 18 20  1  0
 18 16  1  0
 19 18  2  0
 21 20  1  0
 21 25  1  0
 21 22  1  1
 23 22  1  0
 24 23  2  0
 25 26  1  0
 27 23  1  0
 28 25  2  0
M  END
$$$$
