MRD.pdb
     RDKit          3D

 28 27  0  0  1  0  0  0  0  0999 V2000
   21.6485  -19.7859   -7.8334 C   0  0  0  0  0  0  0  0  0  0  0  0
   22.7761  -21.1907   -7.5657 S   0  0  0  0  0  0  0  0  0  0  0  0
   24.2052  -21.0816   -8.6662 C   0  0  0  0  0  0  0  0  0  0  0  0
   23.7424  -20.4822   -9.9755 C   0  0  0  0  0  0  0  0  0  0  0  0
   24.8176  -20.6175  -11.0371 C   0  0  2  0  0  0  0  0  0  0  0  0
   26.0663  -20.0757  -10.5878 N   0  0  0  0  0  0  0  0  0  0  0  0
   24.3221  -20.0639  -12.3083 C   0  0  0  0  0  0  0  0  0  0  0  0
   24.1566  -18.8388  -12.4084 O   0  0  0  0  0  0  0  0  0  0  0  0
   28.2549  -21.6594  -17.7473 N   0  0  0  0  0  0  0  0  0  0  0  0
   28.3883  -22.2613  -16.4592 C   0  0  0  0  0  0  0  0  0  0  0  0
   29.1452  -23.2927  -16.3298 N   0  0  0  0  0  0  0  0  0  0  0  0
   27.7319  -21.7776  -15.3141 N   0  0  0  0  0  0  0  0  0  0  0  0
   26.3030  -21.7636  -15.1019 C   0  0  0  0  0  0  0  0  0  0  0  0
   25.5138  -21.1168  -16.1927 C   0  0  0  0  0  0  0  0  0  0  0  0
   24.0467  -21.1965  -15.8867 C   0  0  0  0  0  0  0  0  0  0  0  0
   23.5682  -20.4439  -14.7074 C   0  0  2  0  0  0  0  0  0  0  0  0
   24.0253  -20.8694  -13.4211 N   0  0  0  0  0  0  0  0  0  0  0  0
   22.0633  -20.3698  -14.7615 C   0  0  0  0  0  0  0  0  0  0  0  0
   21.3442  -21.2459  -14.2206 O   0  0  0  0  0  0  0  0  0  0  0  0
   29.2754  -23.7537  -15.4154 N   0  0  0  0  0  0  0  0  0  0  0  0
   21.3824  -19.2999  -15.4300 C   0  0  1  0  0  0  0  0  0  0  0  0
   19.9334  -19.2054  -15.4502 C   0  0  0  0  0  0  0  0  0  0  0  0
   19.5988  -17.7862  -15.8783 C   0  0  0  0  0  0  0  0  0  0  0  0
   19.5982  -16.9239  -14.6947 O   0  0  0  0  0  0  0  0  0  0  0  0
   19.7986  -17.3646  -13.5411 C   0  0  0  0  0  0  0  0  0  0  0  0
   19.3993  -20.1930  -16.4029 O   0  0  0  0  0  0  0  0  0  0  0  0
   20.2064  -20.9280  -17.2509 O   0  0  0  0  0  0  0  0  0  0  0  0
   19.3663  -15.5630  -14.8558 O   0  0  0  0  0  0  0  0  0  0  0  0
  2  1  1  0
  3  2  1  0
  4  3  1  0
  4  5  1  0
  5  6  1  1
  7  8  2  0
  7  5  1  0
  9 10  1  0
 10 11  2  0
 12 10  1  0
 12 13  1  0
 13 14  1  0
 15 14  1  0
 16 15  1  6
 16 17  1  0
 17  7  1  0
 18 20  1  0
 18 16  1  0
 19 18  2  0
 21 20  1  0
 21 25  1  0
 21 22  1  1
 23 22  1  0
 24 23  2  0
 25 26  1  0
 27 23  1  0
 28 25  2  0
M  END
$$$$
