MRD.pdb
     RDKit          3D

 28 27  0  0  1  0  0  0  0  0999 V2000
   12.2045   -8.6507  -17.4340 C   0  0  0  0  0  0  0  0  0  0  0  0
   14.0152   -8.4661  -17.3691 S   0  0  0  0  0  0  0  0  0  0  0  0
   14.7896   -9.9771  -16.7505 C   0  0  0  0  0  0  0  0  0  0  0  0
   16.2895   -9.7934  -16.8139 C   0  0  0  0  0  0  0  0  0  0  0  0
   17.0038  -11.0543  -16.3651 C   0  0  2  0  0  0  0  0  0  0  0  0
   16.1452  -11.8882  -15.5763 N   0  0  0  0  0  0  0  0  0  0  0  0
   18.2784  -10.6922  -15.7232 C   0  0  0  0  0  0  0  0  0  0  0  0
   18.2938  -10.4525  -14.5064 O   0  0  0  0  0  0  0  0  0  0  0  0
   26.9376  -12.4721  -17.5186 N   0  0  0  0  0  0  0  0  0  0  0  0
   26.7629  -12.1735  -16.1332 C   0  0  0  0  0  0  0  0  0  0  0  0
   27.7902  -12.1849  -15.3599 N   0  0  0  0  0  0  0  0  0  0  0  0
   25.5150  -11.8609  -15.5665 N   0  0  0  0  0  0  0  0  0  0  0  0
   24.2440  -11.8919  -16.2526 C   0  0  0  0  0  0  0  0  0  0  0  0
   23.2647  -10.8568  -15.8051 C   0  0  0  0  0  0  0  0  0  0  0  0
   21.9222  -11.1122  -16.4255 C   0  0  0  0  0  0  0  0  0  0  0  0
   20.7867  -10.3162  -15.9125 C   0  0  2  0  0  0  0  0  0  0  0  0
   19.4872  -10.6046  -16.4348 N   0  0  0  0  0  0  0  0  0  0  0  0
   21.1238   -8.8531  -16.0484 C   0  0  0  0  0  0  0  0  0  0  0  0
   21.1245   -8.2820  -17.1670 O   0  0  0  0  0  0  0  0  0  0  0  0
   27.7342  -11.8499  -14.3852 N   0  0  0  0  0  0  0  0  0  0  0  0
   21.4584   -8.0453  -14.9123 C   0  0  1  0  0  0  0  0  0  0  0  0
   21.6810   -6.6147  -15.0256 C   0  0  0  0  0  0  0  0  0  0  0  0
   20.3558   -6.0034  -15.4492 C   0  0  0  0  0  0  0  0  0  0  0  0
   20.4946   -4.5458  -15.4733 O   0  0  0  0  0  0  0  0  0  0  0  0
   21.5469   -3.9760  -15.8385 C   0  0  0  0  0  0  0  0  0  0  0  0
   22.1211   -6.0908  -13.7218 O   0  0  0  0  0  0  0  0  0  0  0  0
   22.5720   -4.7956  -13.5487 O   0  0  0  0  0  0  0  0  0  0  0  0
   19.4176   -3.7623  -15.0758 O   0  0  0  0  0  0  0  0  0  0  0  0
  2  1  1  0
  3  2  1  0
  4  3  1  0
  4  5  1  0
  5  6  1  1
  7  8  2  0
  7  5  1  0
  9 10  1  0
 10 11  2  0
 12 10  1  0
 12 13  1  0
 13 14  1  0
 15 14  1  0
 16 15  1  6
 16 17  1  0
 17  7  1  0
 18 20  1  0
 18 16  1  0
 19 18  2  0
 21 20  1  0
 21 25  1  0
 21 22  1  1
 23 22  1  0
 24 23  2  0
 25 26  1  0
 27 23  1  0
 28 25  2  0
M  END
$$$$
