MRD.pdb
     RDKit          3D

 28 27  0  0  1  0  0  0  0  0999 V2000
   24.4399   -2.3195    1.8216 C   0  0  0  0  0  0  0  0  0  0  0  0
   25.4877   -1.5873    0.5243 S   0  0  0  0  0  0  0  0  0  0  0  0
   24.9812    0.1124    0.1778 C   0  0  0  0  0  0  0  0  0  0  0  0
   25.7897    0.6103   -0.9995 C   0  0  0  0  0  0  0  0  0  0  0  0
   25.4878    2.0706   -1.2783 C   0  0  2  0  0  0  0  0  0  0  0  0
   25.0015    2.7365   -0.1058 N   0  0  0  0  0  0  0  0  0  0  0  0
   24.6129    2.1725   -2.4581 C   0  0  0  0  0  0  0  0  0  0  0  0
   23.7241    1.3237   -2.6245 O   0  0  0  0  0  0  0  0  0  0  0  0
   19.9997    5.5253   -8.0492 N   0  0  0  0  0  0  0  0  0  0  0  0
   19.4279    5.8487   -6.7813 C   0  0  0  0  0  0  0  0  0  0  0  0
   18.1560    5.7408   -6.6267 N   0  0  0  0  0  0  0  0  0  0  0  0
   20.1913    6.2791   -5.6821 N   0  0  0  0  0  0  0  0  0  0  0  0
   21.6337    6.3352   -5.6253 C   0  0  0  0  0  0  0  0  0  0  0  0
   22.3183    5.0153   -5.7670 C   0  0  0  0  0  0  0  0  0  0  0  0
   23.1494    4.7304   -4.5501 C   0  0  0  0  0  0  0  0  0  0  0  0
   23.8958    3.4542   -4.5346 C   0  0  2  0  0  0  0  0  0  0  0  0
   24.7427    3.1968   -3.4116 N   0  0  0  0  0  0  0  0  0  0  0  0
   24.6474    3.3200   -5.8347 C   0  0  0  0  0  0  0  0  0  0  0  0
   25.7514    3.8909   -6.0153 O   0  0  0  0  0  0  0  0  0  0  0  0
   17.7083    5.9116   -5.7123 N   0  0  0  0  0  0  0  0  0  0  0  0
   24.1409    2.5373   -6.9237 C   0  0  2  0  0  0  0  0  0  0  0  0
   24.8932    2.3524   -8.1520 C   0  0  0  0  0  0  0  0  0  0  0  0
   24.0987    1.3753   -9.0025 C   0  0  0  0  0  0  0  0  0  0  0  0
   24.8506    1.0960  -10.2276 O   0  0  0  0  0  0  0  0  0  0  0  0
   26.0693    1.3546  -10.3429 C   0  0  0  0  0  0  0  0  0  0  0  0
   25.0419    3.6528   -8.8265 O   0  0  0  0  0  0  0  0  0  0  0  0
   24.0335    4.5976   -8.8621 O   0  0  0  0  0  0  0  0  0  0  0  0
   24.1879    0.5214  -11.3057 O   0  0  0  0  0  0  0  0  0  0  0  0
  2  1  1  0
  3  2  1  0
  4  3  1  0
  4  5  1  0
  5  6  1  1
  7  8  2  0
  7  5  1  0
  9 10  1  0
 10 11  2  0
 12 10  1  0
 12 13  1  0
 13 14  1  0
 15 14  1  0
 16 15  1  1
 16 17  1  0
 17  7  1  0
 18 20  1  0
 18 16  1  0
 19 18  2  0
 21 20  1  0
 21 25  1  0
 21 22  1  1
 23 22  1  0
 24 23  2  0
 25 26  1  0
 27 23  1  0
 28 25  2  0
M  END
$$$$
