PQA.pdb
     RDKit          3D

 22 22  0  0  1  0  0  0  0  0999 V2000
   36.1117  -24.5906    7.2643 N   0  0  0  0  0  0  0  0  0  0  0  0
   36.4554  -25.6253    6.3351 C   0  0  0  0  0  0  0  0  0  0  0  0
   36.4422  -24.9747    4.9666 C   0  0  0  0  0  0  0  0  0  0  0  0
   35.2913  -24.0035    5.1370 C   0  0  0  0  0  0  0  0  0  0  0  0
   35.6044  -23.4698    6.5377 C   0  0  1  0  0  0  0  0  0  0  0  0
   34.3910  -22.8943    7.1663 C   0  0  0  0  0  0  0  0  0  0  0  0
   33.7925  -21.9626    6.5343 O   0  0  0  0  0  0  0  0  0  0  0  0
   29.9850  -25.4376   10.5121 N   0  0  0  0  0  0  0  0  0  0  0  0
   29.9581  -25.2639    9.1105 C   0  0  0  0  0  0  0  0  0  0  0  0
   29.1566  -25.9232    8.4172 O   0  0  0  0  0  0  0  0  0  0  0  0
   30.9112  -24.2744    8.4897 C   0  0  0  0  0  0  0  0  0  0  0  0
   31.8072  -23.6980    9.5463 C   0  0  0  0  0  0  0  0  0  0  0  0
   32.7785  -22.6740    9.0220 C   0  0  2  0  0  0  0  0  0  0  0  0
   33.9209  -23.3496    8.3961 N   0  0  0  0  0  0  0  0  0  0  0  0
   33.2481  -21.8231   10.1418 C   0  0  0  0  0  0  0  0  0  0  0  0
   34.1069  -22.2430   10.9462 O   0  0  0  0  0  0  0  0  0  0  0  0
   33.1401  -18.2715   11.2816 C   0  0  0  0  0  0  0  0  0  0  0  0
   33.1957  -19.7719   11.5065 C   0  0  2  0  0  0  0  0  0  0  0  0
   32.7472  -20.5035   10.3489 N   0  0  0  0  0  0  0  0  0  0  0  0
   32.3038  -20.0554   12.6559 C   0  0  0  0  0  0  0  0  0  0  0  0
   32.5839  -19.5638   13.7751 O   0  0  0  0  0  0  0  0  0  0  0  0
   31.1677  -20.8415   12.5577 O   0  0  0  0  0  0  0  0  0  0  0  0
  1  2  1  0
  2  3  1  0
  4  3  1  0
  5  1  1  0
  5  6  1  1
  5  4  1  0
  6 14  1  0
  7  6  2  0
  9 11  1  0
  9  8  1  0
 10  9  2  0
 12 11  1  0
 13 12  1  1
 14 13  1  0
 15 13  1  0
 16 15  2  0
 18 17  1  6
 18 20  1  0
 18 19  1  0
 19 15  1  0
 20 22  1  0
 21 20  2  0
M  END
$$$$
