PQA.pdb
     RDKit          3D

 22 22  0  0  1  0  0  0  0  0999 V2000
   27.3142  -21.3177  -17.1034 N   0  0  0  0  0  0  0  0  0  0  0  0
   27.5504  -21.0101  -18.4825 C   0  0  0  0  0  0  0  0  0  0  0  0
   28.3773  -19.7402  -18.4883 C   0  0  0  0  0  0  0  0  0  0  0  0
   27.7760  -19.0174  -17.2997 C   0  0  0  0  0  0  0  0  0  0  0  0
   27.6687  -20.1824  -16.3117 C   0  0  1  0  0  0  0  0  0  0  0  0
   26.6627  -19.8925  -15.2616 C   0  0  0  0  0  0  0  0  0  0  0  0
   26.8885  -18.8983  -14.4959 O   0  0  0  0  0  0  0  0  0  0  0  0
   20.7247  -21.6462  -15.3599 N   0  0  0  0  0  0  0  0  0  0  0  0
   20.7101  -20.8100  -14.2215 C   0  0  0  0  0  0  0  0  0  0  0  0
   19.6266  -20.5310  -13.6684 O   0  0  0  0  0  0  0  0  0  0  0  0
   22.0215  -20.2749  -13.7050 C   0  0  0  0  0  0  0  0  0  0  0  0
   23.1399  -20.7110  -14.6053 C   0  0  0  0  0  0  0  0  0  0  0  0
   24.5012  -20.2740  -14.1329 C   0  0  2  0  0  0  0  0  0  0  0  0
   25.5172  -20.6714  -15.1141 N   0  0  0  0  0  0  0  0  0  0  0  0
   24.7925  -20.9038  -12.8225 C   0  0  0  0  0  0  0  0  0  0  0  0
   24.9848  -22.1351  -12.7346 O   0  0  0  0  0  0  0  0  0  0  0  0
   26.0470  -20.0348   -9.4740 C   0  0  0  0  0  0  0  0  0  0  0  0
   25.1305  -20.8344  -10.3826 C   0  0  2  0  0  0  0  0  0  0  0  0
   24.8654  -20.1423  -11.6184 N   0  0  0  0  0  0  0  0  0  0  0  0
   23.8656  -21.0278   -9.6346 C   0  0  0  0  0  0  0  0  0  0  0  0
   23.9004  -21.6191   -8.5291 O   0  0  0  0  0  0  0  0  0  0  0  0
   22.6368  -20.5861  -10.0964 O   0  0  0  0  0  0  0  0  0  0  0  0
  1  2  1  0
  2  3  1  0
  4  3  1  0
  5  1  1  0
  5  6  1  1
  5  4  1  0
  6 14  1  0
  7  6  2  0
  9 11  1  0
  9  8  1  0
 10  9  2  0
 12 11  1  0
 13 12  1  6
 14 13  1  0
 15 13  1  0
 16 15  2  0
 18 17  1  1
 18 20  1  0
 18 19  1  0
 19 15  1  0
 20 22  1  0
 21 20  2  0
M  END
$$$$
