PQA.pdb
     RDKit          3D

 22 22  0  0  1  0  0  0  0  0999 V2000
   20.3131  -30.9071  -11.2894 N   0  0  0  0  0  0  0  0  0  0  0  0
   21.4905  -31.2481  -12.0307 C   0  0  0  0  0  0  0  0  0  0  0  0
   22.6408  -30.5649  -11.3192 C   0  0  0  0  0  0  0  0  0  0  0  0
   21.9659  -29.2814  -10.8788 C   0  0  0  0  0  0  0  0  0  0  0  0
   20.6285  -29.8437  -10.3887 C   0  0  1  0  0  0  0  0  0  0  0  0
   19.5859  -28.7894  -10.3759 C   0  0  0  0  0  0  0  0  0  0  0  0
   18.6683  -28.8657  -11.2578 O   0  0  0  0  0  0  0  0  0  0  0  0
   18.3346  -24.9646   -5.6277 N   0  0  0  0  0  0  0  0  0  0  0  0
   17.3370  -24.5428   -6.5345 C   0  0  0  0  0  0  0  0  0  0  0  0
   16.5090  -23.6751   -6.1890 O   0  0  0  0  0  0  0  0  0  0  0  0
   17.3046  -25.1628   -7.9083 C   0  0  0  0  0  0  0  0  0  0  0  0
   18.4478  -26.1226   -8.0613 C   0  0  0  0  0  0  0  0  0  0  0  0
   18.4899  -26.8031   -9.4037 C   0  0  2  0  0  0  0  0  0  0  0  0
   19.6044  -27.7568   -9.4410 N   0  0  0  0  0  0  0  0  0  0  0  0
   18.6632  -25.7837  -10.4665 C   0  0  0  0  0  0  0  0  0  0  0  0
   19.7603  -25.2076  -10.6258 O   0  0  0  0  0  0  0  0  0  0  0  0
   16.8571  -24.5869  -13.5262 C   0  0  0  0  0  0  0  0  0  0  0  0
   17.8719  -24.4800  -12.4021 C   0  0  2  0  0  0  0  0  0  0  0  0
   17.5990  -25.4192  -11.3438 N   0  0  0  0  0  0  0  0  0  0  0  0
   17.7748  -23.0956  -11.8817 C   0  0  0  0  0  0  0  0  0  0  0  0
   18.2096  -22.1527  -12.5851 O   0  0  0  0  0  0  0  0  0  0  0  0
   17.2244  -22.7861  -10.6490 O   0  0  0  0  0  0  0  0  0  0  0  0
  1  2  1  0
  2  3  1  0
  4  3  1  0
  5  1  1  0
  5  6  1  6
  5  4  1  0
  6 14  1  0
  7  6  2  0
  9 11  1  0
  9  8  1  0
 10  9  2  0
 12 11  1  0
 13 12  1  1
 14 13  1  0
 15 13  1  0
 16 15  2  0
 18 17  1  6
 18 20  1  0
 18 19  1  0
 19 15  1  0
 20 22  1  0
 21 20  2  0
M  END
$$$$
