PQA.pdb
     RDKit          3D

 22 22  0  0  1  0  0  0  0  0999 V2000
   45.1706  -12.9355   -7.0393 N   0  0  0  0  0  0  0  0  0  0  0  0
   45.1853  -14.3556   -7.2273 C   0  0  0  0  0  0  0  0  0  0  0  0
   46.3035  -14.6318   -8.2121 C   0  0  0  0  0  0  0  0  0  0  0  0
   46.1834  -13.4164   -9.1095 C   0  0  0  0  0  0  0  0  0  0  0  0
   45.9764  -12.3291   -8.0514 C   0  0  1  0  0  0  0  0  0  0  0  0
   45.3302  -11.1330   -8.6435 C   0  0  0  0  0  0  0  0  0  0  0  0
   45.9384  -10.5571   -9.6047 O   0  0  0  0  0  0  0  0  0  0  0  0
   40.4125  -11.9915  -11.9381 N   0  0  0  0  0  0  0  0  0  0  0  0
   40.6543  -11.0455  -10.9172 C   0  0  0  0  0  0  0  0  0  0  0  0
   39.7028  -10.4070  -10.4227 O   0  0  0  0  0  0  0  0  0  0  0  0
   42.0730  -10.8356  -10.4522 C   0  0  0  0  0  0  0  0  0  0  0  0
   42.0935   -9.8843   -9.2919 C   0  0  0  0  0  0  0  0  0  0  0  0
   43.4808   -9.5106   -8.8416 C   0  0  2  0  0  0  0  0  0  0  0  0
   44.1095  -10.6551   -8.1722 N   0  0  0  0  0  0  0  0  0  0  0  0
   43.4017   -8.3618   -7.9075 C   0  0  0  0  0  0  0  0  0  0  0  0
   43.0335   -8.5246   -6.7248 O   0  0  0  0  0  0  0  0  0  0  0  0
   44.4762   -4.7637   -7.7639 C   0  0  0  0  0  0  0  0  0  0  0  0
   43.6829   -5.9829   -7.3291 C   0  0  2  0  0  0  0  0  0  0  0  0
   43.7381   -7.0356   -8.3116 N   0  0  0  0  0  0  0  0  0  0  0  0
   42.2820   -5.5303   -7.1568 C   0  0  0  0  0  0  0  0  0  0  0  0
   42.0265   -4.6740   -6.2769 O   0  0  0  0  0  0  0  0  0  0  0  0
   41.2318   -6.0075   -7.9233 O   0  0  0  0  0  0  0  0  0  0  0  0
  1  2  1  0
  2  3  1  0
  4  3  1  0
  5  1  1  0
  5  6  1  6
  5  4  1  0
  6 14  1  0
  7  6  2  0
  9 11  1  0
  9  8  1  0
 10  9  2  0
 12 11  1  0
 13 12  1  1
 14 13  1  0
 15 13  1  0
 16 15  2  0
 18 17  1  6
 18 20  1  0
 18 19  1  0
 19 15  1  0
 20 22  1  0
 21 20  2  0
M  END
$$$$
