PQA.pdb
     RDKit          3D

 22 22  0  0  1  0  0  0  0  0999 V2000
   25.9795  -13.3654  -15.7877 N   0  0  0  0  0  0  0  0  0  0  0  0
   26.5162  -14.6936  -15.7992 C   0  0  0  0  0  0  0  0  0  0  0  0
   27.1514  -14.8723  -17.1633 C   0  0  0  0  0  0  0  0  0  0  0  0
   26.1833  -14.0825  -18.0210 C   0  0  0  0  0  0  0  0  0  0  0  0
   25.9768  -12.8589  -17.1237 C   0  0  1  0  0  0  0  0  0  0  0  0
   24.7099  -12.1658  -17.4601 C   0  0  0  0  0  0  0  0  0  0  0  0
   24.6644  -11.5395  -18.5698 O   0  0  0  0  0  0  0  0  0  0  0  0
   19.1745  -14.1290  -15.8831 N   0  0  0  0  0  0  0  0  0  0  0  0
   18.7886  -13.0000  -16.6394 C   0  0  0  0  0  0  0  0  0  0  0  0
   17.5843  -12.8142  -16.9092 O   0  0  0  0  0  0  0  0  0  0  0  0
   19.8584  -12.0439  -17.1019 C   0  0  0  0  0  0  0  0  0  0  0  0
   21.2028  -12.5181  -16.6337 C   0  0  0  0  0  0  0  0  0  0  0  0
   22.3382  -11.6203  -17.0484 C   0  0  2  0  0  0  0  0  0  0  0  0
   23.6126  -12.1952  -16.6025 N   0  0  0  0  0  0  0  0  0  0  0  0
   22.1511  -10.2796  -16.4434 C   0  0  0  0  0  0  0  0  0  0  0  0
   22.4496  -10.0710  -15.2483 O   0  0  0  0  0  0  0  0  0  0  0  0
   21.4637   -6.7686  -17.5868 C   0  0  0  0  0  0  0  0  0  0  0  0
   21.5886   -7.8834  -16.5639 C   0  0  2  0  0  0  0  0  0  0  0  0
   21.6286   -9.1813  -17.1888 N   0  0  0  0  0  0  0  0  0  0  0  0
   20.3958   -7.7839  -15.6897 C   0  0  0  0  0  0  0  0  0  0  0  0
   19.5468   -8.7066  -15.7168 O   0  0  0  0  0  0  0  0  0  0  0  0
   20.1677   -6.7163  -14.8375 O   0  0  0  0  0  0  0  0  0  0  0  0
  1  2  1  0
  2  3  1  0
  4  3  1  0
  5  1  1  0
  5  6  1  6
  5  4  1  0
  6 14  1  0
  7  6  2  0
  9 11  1  0
  9  8  1  0
 10  9  2  0
 12 11  1  0
 13 12  1  1
 14 13  1  0
 15 13  1  0
 16 15  2  0
 18 17  1  6
 18 20  1  0
 18 19  1  0
 19 15  1  0
 20 22  1  0
 21 20  2  0
M  END
$$$$
