PQA.pdb
     RDKit          3D

 22 22  0  0  1  0  0  0  0  0999 V2000
   22.3760  -13.3060  -18.2731 N   0  0  0  0  0  0  0  0  0  0  0  0
   22.3907  -14.7307  -18.4221 C   0  0  0  0  0  0  0  0  0  0  0  0
   21.8920  -15.0059  -19.8263 C   0  0  0  0  0  0  0  0  0  0  0  0
   20.8575  -13.9075  -19.9689 C   0  0  0  0  0  0  0  0  0  0  0  0
   21.6303  -12.7385  -19.3516 C   0  0  1  0  0  0  0  0  0  0  0  0
   20.7028  -11.6750  -18.8960 C   0  0  0  0  0  0  0  0  0  0  0  0
   20.0180  -11.0762  -19.7894 O   0  0  0  0  0  0  0  0  0  0  0  0
   17.1354  -11.7762  -14.0585 N   0  0  0  0  0  0  0  0  0  0  0  0
   16.8190  -12.2645  -15.3458 C   0  0  0  0  0  0  0  0  0  0  0  0
   15.8774  -13.0707  -15.4912 O   0  0  0  0  0  0  0  0  0  0  0  0
   17.6402  -11.7892  -16.5173 C   0  0  0  0  0  0  0  0  0  0  0  0
   18.7333  -10.8798  -16.0381 C   0  0  0  0  0  0  0  0  0  0  0  0
   19.5938  -10.3333  -17.1463 C   0  0  2  0  0  0  0  0  0  0  0  0
   20.5816  -11.3408  -17.5491 N   0  0  0  0  0  0  0  0  0  0  0  0
   20.2856   -9.1100  -16.6737 C   0  0  0  0  0  0  0  0  0  0  0  0
   21.2705   -9.1885  -15.9091 O   0  0  0  0  0  0  0  0  0  0  0  0
   20.1593   -5.3799  -17.2618 C   0  0  0  0  0  0  0  0  0  0  0  0
   20.6306   -6.6707  -16.6163 C   0  0  2  0  0  0  0  0  0  0  0  0
   19.8637   -7.8049  -17.0657 N   0  0  0  0  0  0  0  0  0  0  0  0
   20.4569   -6.4948  -15.1549 C   0  0  0  0  0  0  0  0  0  0  0  0
   19.5790   -7.1680  -14.5643 O   0  0  0  0  0  0  0  0  0  0  0  0
   21.2198   -5.6184  -14.4011 O   0  0  0  0  0  0  0  0  0  0  0  0
  1  2  1  0
  2  3  1  0
  4  3  1  0
  5  1  1  0
  5  6  1  1
  5  4  1  0
  6 14  1  0
  7  6  2  0
  9 11  1  0
  9  8  1  0
 10  9  2  0
 12 11  1  0
 13 12  1  1
 14 13  1  0
 15 13  1  0
 16 15  2  0
 18 17  1  6
 18 20  1  0
 18 19  1  0
 19 15  1  0
 20 22  1  0
 21 20  2  0
M  END
$$$$
