PQA.pdb
     RDKit          3D

 22 22  0  0  1  0  0  0  0  0999 V2000
   27.8051  -21.0964  -15.1467 N   0  0  0  0  0  0  0  0  0  0  0  0
   27.7725  -21.0436  -16.5779 C   0  0  0  0  0  0  0  0  0  0  0  0
   28.1800  -19.6323  -16.9501 C   0  0  0  0  0  0  0  0  0  0  0  0
   27.5390  -18.8553  -15.8177 C   0  0  0  0  0  0  0  0  0  0  0  0
   27.9004  -19.7641  -14.6393 C   0  0  1  0  0  0  0  0  0  0  0  0
   26.9873  -19.5314  -13.4944 C   0  0  0  0  0  0  0  0  0  0  0  0
   26.9205  -18.3446  -13.0334 O   0  0  0  0  0  0  0  0  0  0  0  0
   21.3340  -20.6631  -11.6890 N   0  0  0  0  0  0  0  0  0  0  0  0
   21.8010  -20.2325  -12.9507 C   0  0  0  0  0  0  0  0  0  0  0  0
   21.0048  -19.7310  -13.7707 O   0  0  0  0  0  0  0  0  0  0  0  0
   23.2655  -20.3949  -13.2697 C   0  0  0  0  0  0  0  0  0  0  0  0
   23.9920  -20.9298  -12.0707 C   0  0  0  0  0  0  0  0  0  0  0  0
   25.3239  -20.2709  -11.8277 C   0  0  2  0  0  0  0  0  0  0  0  0
   26.2321  -20.5637  -12.9424 N   0  0  0  0  0  0  0  0  0  0  0  0
   25.9007  -20.7807  -10.5605 C   0  0  0  0  0  0  0  0  0  0  0  0
   26.2247  -21.9817  -10.4440 O   0  0  0  0  0  0  0  0  0  0  0  0
   26.9603  -19.5370   -7.1677 C   0  0  0  0  0  0  0  0  0  0  0  0
   26.4091  -20.5443   -8.1609 C   0  0  2  0  0  0  0  0  0  0  0  0
   26.1090  -19.9341   -9.4314 N   0  0  0  0  0  0  0  0  0  0  0  0
   25.1681  -21.0877   -7.5596 C   0  0  0  0  0  0  0  0  0  0  0  0
   24.0712  -20.8554   -8.1214 O   0  0  0  0  0  0  0  0  0  0  0  0
   25.1564  -21.8450   -6.4000 O   0  0  0  0  0  0  0  0  0  0  0  0
  1  2  1  0
  2  3  1  0
  4  3  1  0
  5  1  1  0
  5  6  1  1
  5  4  1  0
  6 14  1  0
  7  6  2  0
  9 11  1  0
  9  8  1  0
 10  9  2  0
 12 11  1  0
 13 12  1  6
 14 13  1  0
 15 13  1  0
 16 15  2  0
 18 17  1  1
 18 20  1  0
 18 19  1  0
 19 15  1  0
 20 22  1  0
 21 20  2  0
M  END
$$$$
