YMP.pdb
     RDKit          3D

 28 29  0  0  1  0  0  0  0  0999 V2000
   17.4319  -24.9668  -16.6245 O   0  0  0  0  0  0  0  0  0  0  0  0
   18.1409  -23.8300  -16.2604 C   0  0  0  0  0  0  0  0  0  0  0  0
   17.5358  -22.7716  -15.6096 C   0  0  0  0  0  0  0  0  0  0  0  0
   18.2359  -21.6459  -15.2485 C   0  0  0  0  0  0  0  0  0  0  0  0
   19.5829  -21.5236  -15.5223 C   0  0  0  0  0  0  0  0  0  0  0  0
   20.3388  -20.2929  -15.1247 C   0  0  0  0  0  0  0  0  0  0  0  0
   21.1527  -20.6499  -13.9198 C   0  0  2  0  0  0  0  0  0  0  0  0
   20.3573  -20.4535  -12.7367 N   0  0  0  0  0  0  0  0  0  0  0  0
   22.4573  -19.9685  -13.8381 C   0  0  0  0  0  0  0  0  0  0  0  0
   22.5647  -18.8103  -13.4152 O   0  0  0  0  0  0  0  0  0  0  0  0
   20.1823  -22.5842  -16.1727 C   0  0  0  0  0  0  0  0  0  0  0  0
   19.4857  -23.7180  -16.5385 C   0  0  0  0  0  0  0  0  0  0  0  0
   27.0026  -21.7943  -10.7029 C   0  0  0  0  0  0  0  0  0  0  0  0
   28.1847  -21.0318  -11.8435 S   0  0  0  0  0  0  0  0  0  0  0  0
   27.2777  -20.1036  -13.1621 C   0  0  0  0  0  0  0  0  0  0  0  0
   25.9264  -20.6253  -13.2973 C   0  0  0  0  0  0  0  0  0  0  0  0
   24.9531  -20.0743  -14.2703 C   0  0  2  0  0  0  0  0  0  0  0  0
   23.6457  -20.6607  -14.2615 N   0  0  0  0  0  0  0  0  0  0  0  0
   25.4215  -19.7177  -15.5801 C   0  0  0  0  0  0  0  0  0  0  0  0
   24.7629  -20.1612  -16.6188 O   0  0  0  0  0  0  0  0  0  0  0  0
   26.5160  -18.9458  -15.9107 N   0  0  0  0  0  0  0  0  0  0  0  0
   27.4953  -18.2608  -15.1234 C   0  0  0  0  0  0  0  0  0  0  0  0
   27.3416  -16.8466  -15.7280 C   0  0  0  0  0  0  0  0  0  0  0  0
   27.1572  -17.1436  -17.2201 C   0  0  0  0  0  0  0  0  0  0  0  0
   26.9275  -18.6212  -17.2883 C   0  0  1  0  0  0  0  0  0  0  0  0
   28.1741  -19.3155  -17.6665 C   0  0  0  0  0  0  0  0  0  0  0  0
   28.7798  -20.0839  -16.8428 O   0  0  0  0  0  0  0  0  0  0  0  0
   28.7853  -19.2028  -18.9048 O   0  0  0  0  0  0  0  0  0  0  0  0
  2  1  1  0
  3  2  2  0
  4  3  1  0
  5 11  1  0
  5  4  2  0
  6  5  1  0
  7  6  1  0
  7  8  1  1
  9 18  1  0
  9  7  1  0
 10  9  2  0
 11 12  2  0
 12  2  1  0
 13 14  1  0
 14 15  1  0
 17 16  1  6
 16 15  1  0
 17 18  1  0
 19 17  1  0
 20 19  2  0
 21 22  1  0
 21 19  1  0
 23 22  1  0
 24 23  1  0
 24 25  1  0
 25 26  1  1
 25 21  1  0
 26 28  1  0
 27 26  2  0
M  END
$$$$
