YMP.pdb
     RDKit          3D

 28 29  0  0  1  0  0  0  0  0999 V2000
   17.5893  -25.3144  -12.0041 O   0  0  0  0  0  0  0  0  0  0  0  0
   18.4918  -24.3366  -12.4005 C   0  0  0  0  0  0  0  0  0  0  0  0
   19.8243  -24.6243  -12.6273 C   0  0  0  0  0  0  0  0  0  0  0  0
   20.7188  -23.6580  -13.0196 C   0  0  0  0  0  0  0  0  0  0  0  0
   20.3215  -22.3496  -13.2052 C   0  0  0  0  0  0  0  0  0  0  0  0
   21.3032  -21.3023  -13.6335 C   0  0  0  0  0  0  0  0  0  0  0  0
   22.2078  -21.0483  -12.4677 C   0  0  2  0  0  0  0  0  0  0  0  0
   21.4459  -20.4615  -11.3970 N   0  0  0  0  0  0  0  0  0  0  0  0
   23.4165  -20.2681  -12.7890 C   0  0  0  0  0  0  0  0  0  0  0  0
   23.3981  -19.0325  -12.8578 O   0  0  0  0  0  0  0  0  0  0  0  0
   18.9889  -22.0678  -12.9772 C   0  0  0  0  0  0  0  0  0  0  0  0
   18.0847  -23.0330  -12.5831 C   0  0  0  0  0  0  0  0  0  0  0  0
   28.9111  -22.2704  -10.6825 C   0  0  0  0  0  0  0  0  0  0  0  0
   29.5342  -20.7221  -11.3855 S   0  0  0  0  0  0  0  0  0  0  0  0
   28.3837  -20.1218  -12.7041 C   0  0  0  0  0  0  0  0  0  0  0  0
   27.0305  -20.5800  -12.4295 C   0  0  0  0  0  0  0  0  0  0  0  0
   25.8922  -20.2910  -13.3342 C   0  0  2  0  0  0  0  0  0  0  0  0
   24.6580  -20.9537  -13.0330 N   0  0  0  0  0  0  0  0  0  0  0  0
   26.1520  -20.1570  -14.7401 C   0  0  0  0  0  0  0  0  0  0  0  0
   25.5851  -21.0018  -15.5613 O   0  0  0  0  0  0  0  0  0  0  0  0
   26.9521  -19.2277  -15.3722 N   0  0  0  0  0  0  0  0  0  0  0  0
   27.8886  -18.2610  -14.8859 C   0  0  0  0  0  0  0  0  0  0  0  0
   27.2983  -16.9987  -15.5546 C   0  0  0  0  0  0  0  0  0  0  0  0
   26.8879  -17.5183  -16.9366 C   0  0  0  0  0  0  0  0  0  0  0  0
   26.9913  -19.0077  -16.8291 C   0  0  1  0  0  0  0  0  0  0  0  0
   28.2599  -19.4764  -17.4207 C   0  0  0  0  0  0  0  0  0  0  0  0
   29.1396  -20.0753  -16.7114 O   0  0  0  0  0  0  0  0  0  0  0  0
   28.6062  -19.3156  -18.7525 O   0  0  0  0  0  0  0  0  0  0  0  0
  2  1  1  0
  3  2  2  0
  4  3  1  0
  5 11  1  0
  5  4  2  0
  6  5  1  0
  7  6  1  0
  7  8  1  1
  9 18  1  0
  9  7  1  0
 10  9  2  0
 11 12  2  0
 12  2  1  0
 13 14  1  0
 14 15  1  0
 17 16  1  1
 16 15  1  0
 17 18  1  0
 19 17  1  0
 20 19  2  0
 21 22  1  0
 21 19  1  0
 23 22  1  0
 24 23  1  0
 24 25  1  0
 25 26  1  1
 25 21  1  0
 26 28  1  0
 27 26  2  0
M  END
$$$$
