YMP.pdb
     RDKit          3D

 28 29  0  0  1  0  0  0  0  0999 V2000
   26.3272  -17.0461  -17.6342 O   0  0  0  0  0  0  0  0  0  0  0  0
   26.7147  -17.6306  -16.4359 C   0  0  0  0  0  0  0  0  0  0  0  0
   26.7472  -19.0024  -16.2717 C   0  0  0  0  0  0  0  0  0  0  0  0
   27.1303  -19.5824  -15.0866 C   0  0  0  0  0  0  0  0  0  0  0  0
   27.5016  -18.8141  -14.0021 C   0  0  0  0  0  0  0  0  0  0  0  0
   27.9184  -19.4547  -12.7137 C   0  0  0  0  0  0  0  0  0  0  0  0
   26.6712  -19.9445  -12.0455 C   0  0  2  0  0  0  0  0  0  0  0  0
   25.6506  -18.9355  -12.1516 N   0  0  0  0  0  0  0  0  0  0  0  0
   26.8606  -20.4070  -10.6588 C   0  0  0  0  0  0  0  0  0  0  0  0
   27.5988  -21.3614  -10.3828 O   0  0  0  0  0  0  0  0  0  0  0  0
   27.4672  -17.4440  -14.1719 C   0  0  0  0  0  0  0  0  0  0  0  0
   27.0836  -16.8542  -15.3591 C   0  0  0  0  0  0  0  0  0  0  0  0
   29.6066  -20.1830   -4.6088 C   0  0  0  0  0  0  0  0  0  0  0  0
   28.4977  -18.8334   -5.0871 S   0  0  0  0  0  0  0  0  0  0  0  0
   26.9782  -19.5213   -5.8876 C   0  0  0  0  0  0  0  0  0  0  0  0
   27.1716  -19.6106   -7.3268 C   0  0  0  0  0  0  0  0  0  0  0  0
   26.1565  -20.2001   -8.2322 C   0  0  2  0  0  0  0  0  0  0  0  0
   26.1705  -19.7373   -9.5883 N   0  0  0  0  0  0  0  0  0  0  0  0
   24.8395  -20.4471   -7.7158 C   0  0  0  0  0  0  0  0  0  0  0  0
   23.8467  -19.7299   -8.1735 O   0  0  0  0  0  0  0  0  0  0  0  0
   24.4591  -21.3687   -6.7623 N   0  0  0  0  0  0  0  0  0  0  0  0
   25.1997  -22.2607   -5.9233 C   0  0  0  0  0  0  0  0  0  0  0  0
   24.4989  -23.5846   -6.3044 C   0  0  0  0  0  0  0  0  0  0  0  0
   23.0304  -23.1609   -6.4155 C   0  0  0  0  0  0  0  0  0  0  0  0
   23.0634  -21.6646   -6.3922 C   0  0  1  0  0  0  0  0  0  0  0  0
   22.7367  -21.1669   -5.0414 C   0  0  0  0  0  0  0  0  0  0  0  0
   21.5315  -21.1557   -4.6138 O   0  0  0  0  0  0  0  0  0  0  0  0
   23.6713  -20.6801   -4.1419 O   0  0  0  0  0  0  0  0  0  0  0  0
  2  1  1  0
  3  2  2  0
  4  3  1  0
  5 11  1  0
  5  4  2  0
  6  5  1  0
  7  6  1  0
  7  8  1  1
  9 18  1  0
  9  7  1  0
 10  9  2  0
 11 12  2  0
 12  2  1  0
 13 14  1  0
 14 15  1  0
 17 16  1  1
 16 15  1  0
 17 18  1  0
 19 17  1  0
 20 19  2  0
 21 22  1  0
 21 19  1  0
 23 22  1  0
 24 23  1  0
 24 25  1  0
 25 26  1  1
 25 21  1  0
 26 28  1  0
 27 26  2  0
M  END
$$$$
