YMP.pdb
     RDKit          3D

 28 29  0  0  1  0  0  0  0  0999 V2000
   28.7717  -12.5926  -17.5512 O   0  0  0  0  0  0  0  0  0  0  0  0
   28.2012  -13.8251  -17.2630 C   0  0  0  0  0  0  0  0  0  0  0  0
   27.7589  -14.6740  -18.2598 C   0  0  0  0  0  0  0  0  0  0  0  0
   27.1942  -15.8939  -17.9764 C   0  0  0  0  0  0  0  0  0  0  0  0
   27.0436  -16.3267  -16.6747 C   0  0  0  0  0  0  0  0  0  0  0  0
   26.4271  -17.6585  -16.3746 C   0  0  0  0  0  0  0  0  0  0  0  0
   27.5318  -18.5574  -15.9126 C   0  0  2  0  0  0  0  0  0  0  0  0
   28.3280  -18.9489  -17.0458 N   0  0  0  0  0  0  0  0  0  0  0  0
   27.0870  -19.7135  -15.1135 C   0  0  0  0  0  0  0  0  0  0  0  0
   26.7979  -20.7974  -15.6363 O   0  0  0  0  0  0  0  0  0  0  0  0
   27.4873  -15.4744  -15.6827 C   0  0  0  0  0  0  0  0  0  0  0  0
   28.0555  -14.2477  -15.9596 C   0  0  0  0  0  0  0  0  0  0  0  0
   25.0952  -21.4446   -7.4964 C   0  0  0  0  0  0  0  0  0  0  0  0
   26.1877  -20.6653   -8.7125 S   0  0  0  0  0  0  0  0  0  0  0  0
   25.5744  -21.0128  -10.4230 C   0  0  0  0  0  0  0  0  0  0  0  0
   26.4535  -20.3920  -11.4020 C   0  0  0  0  0  0  0  0  0  0  0  0
   26.1945  -20.4571  -12.8602 C   0  0  2  0  0  0  0  0  0  0  0  0
   26.9810  -19.5876  -13.6839 N   0  0  0  0  0  0  0  0  0  0  0  0
   24.8394  -20.6140  -13.3085 C   0  0  0  0  0  0  0  0  0  0  0  0
   24.2366  -19.5832  -13.8412 O   0  0  0  0  0  0  0  0  0  0  0  0
   24.0495  -21.7435  -13.2495 N   0  0  0  0  0  0  0  0  0  0  0  0
   24.2547  -23.0443  -12.6892 C   0  0  0  0  0  0  0  0  0  0  0  0
   23.9557  -23.8952  -13.9444 C   0  0  0  0  0  0  0  0  0  0  0  0
   22.7698  -23.1540  -14.5711 C   0  0  0  0  0  0  0  0  0  0  0  0
   22.7001  -21.8543  -13.8318 C   0  0  1  0  0  0  0  0  0  0  0  0
   21.6561  -21.9140  -12.7899 C   0  0  0  0  0  0  0  0  0  0  0  0
   21.9617  -22.0076  -11.5515 O   0  0  0  0  0  0  0  0  0  0  0  0
   20.2950  -21.8778  -13.0458 O   0  0  0  0  0  0  0  0  0  0  0  0
  2  1  1  0
  3  2  2  0
  4  3  1  0
  5 11  1  0
  5  4  2  0
  6  5  1  0
  7  6  1  0
  7  8  1  6
  9 18  1  0
  9  7  1  0
 10  9  2  0
 11 12  2  0
 12  2  1  0
 13 14  1  0
 14 15  1  0
 17 16  1  1
 16 15  1  0
 17 18  1  0
 19 17  1  0
 20 19  2  0
 21 22  1  0
 21 19  1  0
 23 22  1  0
 24 23  1  0
 24 25  1  0
 25 26  1  1
 25 21  1  0
 26 28  1  0
 27 26  2  0
M  END
$$$$
