YMP.pdb
     RDKit          3D

 28 29  0  0  1  0  0  0  0  0999 V2000
   30.8001  -15.7071  -18.7753 O   0  0  0  0  0  0  0  0  0  0  0  0
   29.7653  -16.4938  -18.2877 C   0  0  0  0  0  0  0  0  0  0  0  0
   29.1370  -17.4404  -19.0746 C   0  0  0  0  0  0  0  0  0  0  0  0
   28.1129  -18.2198  -18.5937 C   0  0  0  0  0  0  0  0  0  0  0  0
   27.6648  -18.0896  -17.2950 C   0  0  0  0  0  0  0  0  0  0  0  0
   26.5478  -18.9437  -16.7786 C   0  0  0  0  0  0  0  0  0  0  0  0
   27.1651  -19.9849  -15.8973 C   0  0  2  0  0  0  0  0  0  0  0  0
   27.9422  -20.8877  -16.7049 N   0  0  0  0  0  0  0  0  0  0  0  0
   26.2109  -20.6927  -15.0247 C   0  0  0  0  0  0  0  0  0  0  0  0
   25.6734  -21.7534  -15.3682 O   0  0  0  0  0  0  0  0  0  0  0  0
   28.2962  -17.1422  -16.5133 C   0  0  0  0  0  0  0  0  0  0  0  0
   29.3255  -16.3557  -16.9893 C   0  0  0  0  0  0  0  0  0  0  0  0
   26.7886  -20.2928   -7.9236 C   0  0  0  0  0  0  0  0  0  0  0  0
   25.3753  -20.9709   -8.8306 S   0  0  0  0  0  0  0  0  0  0  0  0
   25.8231  -21.2038  -10.6105 C   0  0  0  0  0  0  0  0  0  0  0  0
   24.9628  -20.3850  -11.4508 C   0  0  0  0  0  0  0  0  0  0  0  0
   24.8180  -20.6166  -12.9079 C   0  0  2  0  0  0  0  0  0  0  0  0
   25.8872  -20.1418  -13.7354 N   0  0  0  0  0  0  0  0  0  0  0  0
   23.5171  -20.4706  -13.4983 C   0  0  0  0  0  0  0  0  0  0  0  0
   23.2875  -19.4242  -14.2478 O   0  0  0  0  0  0  0  0  0  0  0  0
   22.4293  -21.3104  -13.3773 N   0  0  0  0  0  0  0  0  0  0  0  0
   22.2409  -22.5675  -12.7200 C   0  0  0  0  0  0  0  0  0  0  0  0
   21.7068  -23.3859  -13.9176 C   0  0  0  0  0  0  0  0  0  0  0  0
   20.7934  -22.3788  -14.6247 C   0  0  0  0  0  0  0  0  0  0  0  0
   21.1083  -21.0637  -13.9828 C   0  0  1  0  0  0  0  0  0  0  0  0
   20.0911  -20.7348  -12.9649 C   0  0  0  0  0  0  0  0  0  0  0  0
   18.9108  -20.3747  -13.3010 O   0  0  0  0  0  0  0  0  0  0  0  0
   20.3114  -20.7816  -11.5979 O   0  0  0  0  0  0  0  0  0  0  0  0
  2  1  1  0
  3  2  2  0
  4  3  1  0
  5 11  1  0
  5  4  2  0
  6  5  1  0
  7  6  1  0
  7  8  1  6
  9 18  1  0
  9  7  1  0
 10  9  2  0
 11 12  2  0
 12  2  1  0
 13 14  1  0
 14 15  1  0
 17 16  1  1
 16 15  1  0
 17 18  1  0
 19 17  1  0
 20 19  2  0
 21 22  1  0
 21 19  1  0
 23 22  1  0
 24 23  1  0
 24 25  1  0
 25 26  1  1
 25 21  1  0
 26 28  1  0
 27 26  2  0
M  END
$$$$
