YMP.pdb
     RDKit          3D

 28 29  0  0  1  0  0  0  0  0999 V2000
   13.3683  -14.8201  -18.2905 O   0  0  0  0  0  0  0  0  0  0  0  0
   14.3920  -14.0726  -17.7239 C   0  0  0  0  0  0  0  0  0  0  0  0
   15.1011  -14.5229  -16.6265 C   0  0  0  0  0  0  0  0  0  0  0  0
   16.1143  -13.7845  -16.0645 C   0  0  0  0  0  0  0  0  0  0  0  0
   16.4696  -12.5530  -16.5758 C   0  0  0  0  0  0  0  0  0  0  0  0
   17.5759  -11.7547  -15.9572 C   0  0  0  0  0  0  0  0  0  0  0  0
   18.7450  -11.8320  -16.8895 C   0  0  2  0  0  0  0  0  0  0  0  0
   19.2722  -13.1711  -16.8767 N   0  0  0  0  0  0  0  0  0  0  0  0
   19.7867  -10.8168  -16.6509 C   0  0  0  0  0  0  0  0  0  0  0  0
   20.7075  -11.0016  -15.8448 O   0  0  0  0  0  0  0  0  0  0  0  0
   15.7576  -12.1081  -17.6724 C   0  0  0  0  0  0  0  0  0  0  0  0
   14.7387  -12.8441  -18.2423 C   0  0  0  0  0  0  0  0  0  0  0  0
   20.3937   -5.5898  -20.6784 C   0  0  0  0  0  0  0  0  0  0  0  0
   21.6172   -6.9210  -20.7819 S   0  0  0  0  0  0  0  0  0  0  0  0
   21.0555   -8.3711  -19.7797 C   0  0  0  0  0  0  0  0  0  0  0  0
   21.5599   -8.2608  -18.4196 C   0  0  0  0  0  0  0  0  0  0  0  0
   20.7147   -8.5303  -17.2319 C   0  0  2  0  0  0  0  0  0  0  0  0
   19.7396   -9.5711  -17.3698 N   0  0  0  0  0  0  0  0  0  0  0  0
   20.2690   -7.4171  -16.4419 C   0  0  0  0  0  0  0  0  0  0  0  0
   18.9846   -7.1869  -16.3595 O   0  0  0  0  0  0  0  0  0  0  0  0
   21.0363   -6.5162  -15.7329 N   0  0  0  0  0  0  0  0  0  0  0  0
   22.4457   -6.4027  -15.5119 C   0  0  0  0  0  0  0  0  0  0  0  0
   22.4437   -6.3705  -13.9666 C   0  0  0  0  0  0  0  0  0  0  0  0
   21.2192   -5.5030  -13.6559 C   0  0  0  0  0  0  0  0  0  0  0  0
   20.4983   -5.3808  -14.9621 C   0  0  1  0  0  0  0  0  0  0  0  0
   20.8116   -4.0871  -15.6000 C   0  0  0  0  0  0  0  0  0  0  0  0
   21.5761   -4.0216  -16.6232 O   0  0  0  0  0  0  0  0  0  0  0  0
   20.3260   -2.8645  -15.1651 O   0  0  0  0  0  0  0  0  0  0  0  0
  2  1  1  0
  3  2  2  0
  4  3  1  0
  5 11  1  0
  5  4  2  0
  6  5  1  0
  7  6  1  0
  7  8  1  1
  9 18  1  0
  9  7  1  0
 10  9  2  0
 11 12  2  0
 12  2  1  0
 13 14  1  0
 14 15  1  0
 17 16  1  6
 16 15  1  0
 17 18  1  0
 19 17  1  0
 20 19  2  0
 21 22  1  0
 21 19  1  0
 23 22  1  0
 24 23  1  0
 24 25  1  0
 25 26  1  6
 25 21  1  0
 26 28  1  0
 27 26  2  0
M  END
$$$$
