YMP.pdb
     RDKit          3D

 28 29  0  0  1  0  0  0  0  0999 V2000
   24.9151  -23.9831  -16.3023 O   0  0  0  0  0  0  0  0  0  0  0  0
   25.2381  -23.1792  -15.2174 C   0  0  0  0  0  0  0  0  0  0  0  0
   25.2751  -21.8013  -15.3174 C   0  0  0  0  0  0  0  0  0  0  0  0
   25.5946  -21.0043  -14.2449 C   0  0  0  0  0  0  0  0  0  0  0  0
   25.8943  -21.5498  -13.0133 C   0  0  0  0  0  0  0  0  0  0  0  0
   26.2413  -20.6734  -11.8490 C   0  0  0  0  0  0  0  0  0  0  0  0
   25.2379  -20.9566  -10.7743 C   0  0  2  0  0  0  0  0  0  0  0  0
   23.9243  -20.6135  -11.2517 N   0  0  0  0  0  0  0  0  0  0  0  0
   25.5421  -20.3343   -9.4731 C   0  0  0  0  0  0  0  0  0  0  0  0
   25.6365  -19.1074   -9.3412 O   0  0  0  0  0  0  0  0  0  0  0  0
   25.8559  -22.9271  -12.9192 C   0  0  0  0  0  0  0  0  0  0  0  0
   25.5358  -23.7341  -13.9919 C   0  0  0  0  0  0  0  0  0  0  0  0
   23.1204  -19.8742   -3.1796 C   0  0  0  0  0  0  0  0  0  0  0  0
   24.2507  -21.2749   -3.3796 S   0  0  0  0  0  0  0  0  0  0  0  0
   25.6408  -20.8057   -4.5067 C   0  0  0  0  0  0  0  0  0  0  0  0
   25.2615  -21.0459   -5.8905 C   0  0  0  0  0  0  0  0  0  0  0  0
   26.1326  -20.6753   -7.0314 C   0  0  2  0  0  0  0  0  0  0  0  0
   25.7382  -21.1691   -8.3175 N   0  0  0  0  0  0  0  0  0  0  0  0
   27.5539  -20.6522   -6.8284 C   0  0  0  0  0  0  0  0  0  0  0  0
   28.2995  -21.4434   -7.5549 O   0  0  0  0  0  0  0  0  0  0  0  0
   28.2729  -19.8855   -5.9349 N   0  0  0  0  0  0  0  0  0  0  0  0
   27.9077  -18.8111   -5.0630 C   0  0  0  0  0  0  0  0  0  0  0  0
   28.9361  -17.7588   -5.5364 C   0  0  0  0  0  0  0  0  0  0  0  0
   30.1959  -18.6034   -5.7556 C   0  0  0  0  0  0  0  0  0  0  0  0
   29.7198  -20.0209   -5.6885 C   0  0  1  0  0  0  0  0  0  0  0  0
   29.9983  -20.5914   -4.3558 C   0  0  0  0  0  0  0  0  0  0  0  0
   29.0485  -20.9384   -3.5728 O   0  0  0  0  0  0  0  0  0  0  0  0
   31.2696  -20.7958   -3.8445 O   0  0  0  0  0  0  0  0  0  0  0  0
  2  1  1  0
  3  2  2  0
  4  3  1  0
  5 11  1  0
  5  4  2  0
  6  5  1  0
  7  6  1  0
  7  8  1  6
  9 18  1  0
  9  7  1  0
 10  9  2  0
 11 12  2  0
 12  2  1  0
 13 14  1  0
 14 15  1  0
 17 16  1  1
 16 15  1  0
 17 18  1  0
 19 17  1  0
 20 19  2  0
 21 22  1  0
 21 19  1  0
 23 22  1  0
 24 23  1  0
 24 25  1  0
 25 26  1  1
 25 21  1  0
 26 28  1  0
 27 26  2  0
M  END
$$$$
