YMP.pdb
     RDKit          3D

 28 29  0  0  1  0  0  0  0  0999 V2000
   16.2167  -20.8648  -18.5434 O   0  0  0  0  0  0  0  0  0  0  0  0
   17.4411  -20.3742  -18.1101 C   0  0  0  0  0  0  0  0  0  0  0  0
   17.6974  -19.0182  -18.0360 C   0  0  0  0  0  0  0  0  0  0  0  0
   18.9084  -18.5310  -17.6075 C   0  0  0  0  0  0  0  0  0  0  0  0
   19.9278  -19.3812  -17.2302 C   0  0  0  0  0  0  0  0  0  0  0  0
   21.2451  -18.8415  -16.7639 C   0  0  0  0  0  0  0  0  0  0  0  0
   21.2472  -18.9251  -15.2689 C   0  0  2  0  0  0  0  0  0  0  0  0
   20.3050  -17.9741  -14.7408 N   0  0  0  0  0  0  0  0  0  0  0  0
   22.5791  -18.7978  -14.6504 C   0  0  0  0  0  0  0  0  0  0  0  0
   23.1888  -17.7209  -14.6266 O   0  0  0  0  0  0  0  0  0  0  0  0
   19.6661  -20.7351  -17.3063 C   0  0  0  0  0  0  0  0  0  0  0  0
   18.4523  -21.2319  -17.7357 C   0  0  0  0  0  0  0  0  0  0  0  0
   22.5302  -21.5056   -9.8197 C   0  0  0  0  0  0  0  0  0  0  0  0
   24.2680  -21.0086   -9.7070 S   0  0  0  0  0  0  0  0  0  0  0  0
   24.6833  -19.8540  -11.0916 C   0  0  0  0  0  0  0  0  0  0  0  0
   24.8498  -20.6009  -12.3289 C   0  0  0  0  0  0  0  0  0  0  0  0
   24.5734  -20.0098  -13.6600 C   0  0  2  0  0  0  0  0  0  0  0  0
   23.1974  -19.9532  -14.0559 N   0  0  0  0  0  0  0  0  0  0  0  0
   25.4771  -20.2979  -14.7381 C   0  0  0  0  0  0  0  0  0  0  0  0
   24.9861  -20.7787  -15.8504 O   0  0  0  0  0  0  0  0  0  0  0  0
   26.8470  -20.1373  -14.7652 N   0  0  0  0  0  0  0  0  0  0  0  0
   27.8019  -19.7677  -13.7654 C   0  0  0  0  0  0  0  0  0  0  0  0
   28.4682  -18.5810  -14.4980 C   0  0  0  0  0  0  0  0  0  0  0  0
   28.5442  -19.0856  -15.9431 C   0  0  0  0  0  0  0  0  0  0  0  0
   27.6882  -20.3134  -15.9626 C   0  0  1  0  0  0  0  0  0  0  0  0
   28.5281  -21.5238  -15.8699 C   0  0  0  0  0  0  0  0  0  0  0  0
   28.5637  -22.2243  -14.8004 O   0  0  0  0  0  0  0  0  0  0  0  0
   29.3303  -21.9976  -16.8953 O   0  0  0  0  0  0  0  0  0  0  0  0
  2  1  1  0
  3  2  2  0
  4  3  1  0
  5 11  1  0
  5  4  2  0
  6  5  1  0
  7  6  1  0
  7  8  1  1
  9 18  1  0
  9  7  1  0
 10  9  2  0
 11 12  2  0
 12  2  1  0
 13 14  1  0
 14 15  1  0
 17 16  1  1
 16 15  1  0
 17 18  1  0
 19 17  1  0
 20 19  2  0
 21 22  1  0
 21 19  1  0
 23 22  1  0
 24 23  1  0
 24 25  1  0
 25 26  1  1
 25 21  1  0
 26 28  1  0
 27 26  2  0
M  END
$$$$
