YMP.pdb
     RDKit          3D

 28 29  0  0  1  0  0  0  0  0999 V2000
   17.0825  -25.7167  -14.0014 O   0  0  0  0  0  0  0  0  0  0  0  0
   18.1399  -24.8395  -14.2017 C   0  0  0  0  0  0  0  0  0  0  0  0
   17.9657  -23.6197  -14.8275 C   0  0  0  0  0  0  0  0  0  0  0  0
   19.0108  -22.7505  -15.0266 C   0  0  0  0  0  0  0  0  0  0  0  0
   20.2883  -23.0608  -14.6071 C   0  0  0  0  0  0  0  0  0  0  0  0
   21.4221  -22.1071  -14.8278 C   0  0  0  0  0  0  0  0  0  0  0  0
   21.4584  -21.1897  -13.6450 C   0  0  2  0  0  0  0  0  0  0  0  0
   20.3233  -20.3066  -13.6967 N   0  0  0  0  0  0  0  0  0  0  0  0
   22.7284  -20.4614  -13.4736 C   0  0  0  0  0  0  0  0  0  0  0  0
   22.9019  -19.3298  -13.9439 O   0  0  0  0  0  0  0  0  0  0  0  0
   20.4566  -24.2810  -13.9824 C   0  0  0  0  0  0  0  0  0  0  0  0
   19.4117  -25.1592  -13.7788 C   0  0  0  0  0  0  0  0  0  0  0  0
   26.6009  -20.2363   -7.4599 C   0  0  0  0  0  0  0  0  0  0  0  0
   26.9474  -20.9714   -9.0783 S   0  0  0  0  0  0  0  0  0  0  0  0
   25.6663  -20.4345  -10.3005 C   0  0  0  0  0  0  0  0  0  0  0  0
   26.0104  -20.9212  -11.6275 C   0  0  0  0  0  0  0  0  0  0  0  0
   25.1701  -20.6504  -12.8185 C   0  0  2  0  0  0  0  0  0  0  0  0
   23.8040  -21.0759  -12.7413 N   0  0  0  0  0  0  0  0  0  0  0  0
   25.7558  -20.8088  -14.1200 C   0  0  0  0  0  0  0  0  0  0  0  0
   25.1469  -21.5742  -14.9876 O   0  0  0  0  0  0  0  0  0  0  0  0
   26.9205  -20.2485  -14.6022 N   0  0  0  0  0  0  0  0  0  0  0  0
   27.9698  -19.5011  -13.9789 C   0  0  0  0  0  0  0  0  0  0  0  0
   27.9559  -18.2579  -14.8971 C   0  0  0  0  0  0  0  0  0  0  0  0
   27.7317  -18.8731  -16.2827 C   0  0  0  0  0  0  0  0  0  0  0  0
   27.3530  -20.2954  -16.0105 C   0  0  1  0  0  0  0  0  0  0  0  0
   28.5201  -21.1799  -16.1967 C   0  0  0  0  0  0  0  0  0  0  0  0
   29.0147  -21.3874  -17.3577 O   0  0  0  0  0  0  0  0  0  0  0  0
   29.1658  -21.8470  -15.1683 O   0  0  0  0  0  0  0  0  0  0  0  0
  2  1  1  0
  3  2  2  0
  4  3  1  0
  5 11  1  0
  5  4  2  0
  6  5  1  0
  7  6  1  0
  7  8  1  6
  9 18  1  0
  9  7  1  0
 10  9  2  0
 11 12  2  0
 12  2  1  0
 13 14  1  0
 14 15  1  0
 17 16  1  1
 16 15  1  0
 17 18  1  0
 19 17  1  0
 20 19  2  0
 21 22  1  0
 21 19  1  0
 23 22  1  0
 24 23  1  0
 24 25  1  0
 25 26  1  1
 25 21  1  0
 26 28  1  0
 27 26  2  0
M  END
$$$$
