YMP.pdb
     RDKit          3D

 28 29  0  0  1  0  0  0  0  0999 V2000
   16.3175  -17.6801  -18.6293 O   0  0  0  0  0  0  0  0  0  0  0  0
   17.5858  -17.5480  -18.0800 C   0  0  0  0  0  0  0  0  0  0  0  0
   18.6397  -18.3474  -18.4803 C   0  0  0  0  0  0  0  0  0  0  0  0
   19.8953  -18.2181  -17.9378 C   0  0  0  0  0  0  0  0  0  0  0  0
   20.1593  -17.2775  -16.9632 C   0  0  0  0  0  0  0  0  0  0  0  0
   21.5315  -17.1430  -16.3774 C   0  0  0  0  0  0  0  0  0  0  0  0
   22.0819  -18.5277  -16.2308 C   0  0  2  0  0  0  0  0  0  0  0  0
   21.1924  -19.3056  -15.4095 N   0  0  0  0  0  0  0  0  0  0  0  0
   23.4767  -18.5853  -15.7575 C   0  0  0  0  0  0  0  0  0  0  0  0
   24.3753  -17.9198  -16.2880 O   0  0  0  0  0  0  0  0  0  0  0  0
   19.1026  -16.4815  -16.5671 C   0  0  0  0  0  0  0  0  0  0  0  0
   17.8388  -16.6055  -17.1073 C   0  0  0  0  0  0  0  0  0  0  0  0
   25.0148  -20.2824   -9.8450 C   0  0  0  0  0  0  0  0  0  0  0  0
   26.4953  -21.0510  -10.5502 S   0  0  0  0  0  0  0  0  0  0  0  0
   26.6458  -20.6027  -12.3388 C   0  0  0  0  0  0  0  0  0  0  0  0
   25.3443  -20.2252  -12.8679 C   0  0  0  0  0  0  0  0  0  0  0  0
   25.1566  -19.7537  -14.2608 C   0  0  2  0  0  0  0  0  0  0  0  0
   23.8137  -19.4382  -14.6485 N   0  0  0  0  0  0  0  0  0  0  0  0
   25.9334  -20.3663  -15.3016 C   0  0  0  0  0  0  0  0  0  0  0  0
   25.3344  -21.1875  -16.1241 O   0  0  0  0  0  0  0  0  0  0  0  0
   27.2785  -20.2084  -15.5639 N   0  0  0  0  0  0  0  0  0  0  0  0
   28.3127  -19.4589  -14.9183 C   0  0  0  0  0  0  0  0  0  0  0  0
   28.8155  -18.6484  -16.1346 C   0  0  0  0  0  0  0  0  0  0  0  0
   28.7629  -19.6820  -17.2648 C   0  0  0  0  0  0  0  0  0  0  0  0
   27.9910  -20.8306  -16.6942 C   0  0  1  0  0  0  0  0  0  0  0  0
   28.9123  -21.8926  -16.2443 C   0  0  0  0  0  0  0  0  0  0  0  0
   28.9650  -22.2466  -15.0164 O   0  0  0  0  0  0  0  0  0  0  0  0
   29.7778  -22.5804  -17.0794 O   0  0  0  0  0  0  0  0  0  0  0  0
  2  1  1  0
  3  2  2  0
  4  3  1  0
  5 11  1  0
  5  4  2  0
  6  5  1  0
  7  6  1  0
  7  8  1  1
  9 18  1  0
  9  7  1  0
 10  9  2  0
 11 12  2  0
 12  2  1  0
 13 14  1  0
 14 15  1  0
 17 16  1  1
 16 15  1  0
 17 18  1  0
 19 17  1  0
 20 19  2  0
 21 22  1  0
 21 19  1  0
 23 22  1  0
 24 23  1  0
 24 25  1  0
 25 26  1  1
 25 21  1  0
 26 28  1  0
 27 26  2  0
M  END
$$$$
