YMP.pdb
     RDKit          3D

 28 29  0  0  1  0  0  0  0  0999 V2000
   14.4511  -19.2581  -17.9439 O   0  0  0  0  0  0  0  0  0  0  0  0
   15.5199  -18.4806  -17.5188 C   0  0  0  0  0  0  0  0  0  0  0  0
   16.6647  -19.0441  -16.9879 C   0  0  0  0  0  0  0  0  0  0  0  0
   17.7233  -18.2763  -16.5667 C   0  0  0  0  0  0  0  0  0  0  0  0
   17.6881  -16.8997  -16.6565 C   0  0  0  0  0  0  0  0  0  0  0  0
   18.8470  -16.0702  -16.1952 C   0  0  0  0  0  0  0  0  0  0  0  0
   19.7523  -15.8900  -17.3741 C   0  0  2  0  0  0  0  0  0  0  0  0
   20.3380  -17.1586  -17.7187 N   0  0  0  0  0  0  0  0  0  0  0  0
   20.7643  -14.8303  -17.2129 C   0  0  0  0  0  0  0  0  0  0  0  0
   21.8974  -15.0693  -16.7762 O   0  0  0  0  0  0  0  0  0  0  0  0
   16.5418  -16.3421  -17.1877 C   0  0  0  0  0  0  0  0  0  0  0  0
   15.4745  -17.1068  -17.6129 C   0  0  0  0  0  0  0  0  0  0  0  0
   19.9547   -9.7935  -22.2114 C   0  0  0  0  0  0  0  0  0  0  0  0
   21.2742  -10.2747  -21.0682 S   0  0  0  0  0  0  0  0  0  0  0  0
   20.5559  -11.1796  -19.6233 C   0  0  0  0  0  0  0  0  0  0  0  0
   21.6216  -11.6540  -18.7540 C   0  0  0  0  0  0  0  0  0  0  0  0
   21.3548  -12.3805  -17.4896 C   0  0  2  0  0  0  0  0  0  0  0  0
   20.4342  -13.4757  -17.5690 N   0  0  0  0  0  0  0  0  0  0  0  0
   21.2546  -11.6239  -16.2733 C   0  0  0  0  0  0  0  0  0  0  0  0
   20.1547  -11.7150  -15.5723 O   0  0  0  0  0  0  0  0  0  0  0  0
   22.1913  -10.7757  -15.7199 N   0  0  0  0  0  0  0  0  0  0  0  0
   23.5010  -10.3726  -16.1326 C   0  0  0  0  0  0  0  0  0  0  0  0
   24.2809  -10.7456  -14.8514 C   0  0  0  0  0  0  0  0  0  0  0  0
   23.3117  -10.3262  -13.7409 C   0  0  0  0  0  0  0  0  0  0  0  0
   22.0199  -10.0537  -14.4464 C   0  0  1  0  0  0  0  0  0  0  0  0
   21.8485   -8.6028  -14.6570 C   0  0  0  0  0  0  0  0  0  0  0  0
   22.0234   -8.0761  -15.8093 O   0  0  0  0  0  0  0  0  0  0  0  0
   21.4966   -7.7058  -13.6615 O   0  0  0  0  0  0  0  0  0  0  0  0
  2  1  1  0
  3  2  2  0
  4  3  1  0
  5 11  1  0
  5  4  2  0
  6  5  1  0
  7  6  1  0
  7  8  1  1
  9 18  1  0
  9  7  1  0
 10  9  2  0
 11 12  2  0
 12  2  1  0
 13 14  1  0
 14 15  1  0
 17 16  1  6
 16 15  1  0
 17 18  1  0
 19 17  1  0
 20 19  2  0
 21 22  1  0
 21 19  1  0
 23 22  1  0
 24 23  1  0
 24 25  1  0
 25 26  1  6
 25 21  1  0
 26 28  1  0
 27 26  2  0
M  END
$$$$
