VVC.pdb
     RDKit          3D

 21 20  0  0  1  0  0  0  0  0999 V2000
   18.6060  -15.0274  -17.6068 C   0  0  0  0  0  0  0  0  0  0  0  0
   19.8413  -14.5200  -18.3240 C   0  0  2  0  0  0  0  0  0  0  0  0
   20.8678  -15.6540  -18.2582 C   0  0  0  0  0  0  0  0  0  0  0  0
   20.4672  -13.3442  -17.6088 C   0  0  2  0  0  0  0  0  0  0  0  0
   20.7391  -13.7686  -16.2505 N   0  0  0  0  0  0  0  0  0  0  0  0
   19.5866  -12.1478  -17.6129 C   0  0  0  0  0  0  0  0  0  0  0  0
   19.3273  -11.5694  -18.6802 O   0  0  0  0  0  0  0  0  0  0  0  0
   16.1080  -11.5321  -17.0273 C   0  0  0  0  0  0  0  0  0  0  0  0
   16.8562  -10.7718  -15.9966 C   0  0  2  0  0  0  0  0  0  0  0  0
   16.0092   -9.5952  -15.5726 C   0  0  0  0  0  0  0  0  0  0  0  0
   18.2596  -10.4091  -16.3362 C   0  0  2  0  0  0  0  0  0  0  0  0
   19.0331  -11.6537  -16.4013 N   0  0  0  0  0  0  0  0  0  0  0  0
   18.8789   -9.4589  -15.4004 C   0  0  0  0  0  0  0  0  0  0  0  0
   18.9924   -9.8054  -14.1693 O   0  0  0  0  0  0  0  0  0  0  0  0
   19.3679   -8.1969  -15.7138 N   0  0  0  0  0  0  0  0  0  0  0  0
   19.9784   -7.2877  -14.7376 C   0  0  1  0  0  0  0  0  0  0  0  0
   21.3006   -6.8474  -15.3785 C   0  0  0  0  0  0  0  0  0  0  0  0
   22.4975   -8.1986  -15.3761 S   0  0  0  0  0  0  0  0  0  0  0  0
   19.1636   -6.1030  -14.5002 C   0  0  0  0  0  0  0  0  0  0  0  0
   19.2772   -5.3926  -13.3232 O   0  0  0  0  0  0  0  0  0  0  0  0
   18.3484   -5.7120  -15.3610 O   0  0  0  0  0  0  0  0  0  0  0  0
  2  1  1  1
  3  2  1  0
  4  2  1  0
  4  5  1  1
  6  4  1  0
  7  6  2  0
  9  8  1  6
  9 11  1  0
 10  9  1  0
 11 12  1  1
 12  6  1  0
 13 11  1  0
 13 15  1  0
 14 13  2  0
 16 15  1  0
 16 17  1  6
 16 19  1  0
 18 17  1  0
 19 21  2  0
 19 20  1  0
M  END
$$$$
