VVC.pdb
     RDKit          3D

 21 20  0  0  1  0  0  0  0  0999 V2000
   18.0692  -14.8917  -20.2471 C   0  0  0  0  0  0  0  0  0  0  0  0
   18.6186  -15.6224  -19.0380 C   0  0  2  0  0  0  0  0  0  0  0  0
   17.5998  -16.7146  -18.7013 C   0  0  0  0  0  0  0  0  0  0  0  0
   18.6927  -14.7271  -17.8219 C   0  0  2  0  0  0  0  0  0  0  0  0
   17.3427  -14.2854  -17.5365 N   0  0  0  0  0  0  0  0  0  0  0  0
   19.5872  -13.5602  -18.0344 C   0  0  0  0  0  0  0  0  0  0  0  0
   20.8106  -13.7285  -18.1596 O   0  0  0  0  0  0  0  0  0  0  0  0
   18.1398  -10.0439  -19.7858 C   0  0  0  0  0  0  0  0  0  0  0  0
   19.5495  -10.4714  -19.6113 C   0  0  2  0  0  0  0  0  0  0  0  0
   19.9250  -11.3448  -20.7850 C   0  0  0  0  0  0  0  0  0  0  0  0
   19.8997  -11.0600  -18.2894 C   0  0  2  0  0  0  0  0  0  0  0  0
   19.0558  -12.2442  -18.0966 N   0  0  0  0  0  0  0  0  0  0  0  0
   19.7581  -10.1295  -17.1597 C   0  0  0  0  0  0  0  0  0  0  0  0
   18.5825   -9.9229  -16.6867 O   0  0  0  0  0  0  0  0  0  0  0  0
   20.7853   -9.4350  -16.5333 N   0  0  0  0  0  0  0  0  0  0  0  0
   20.5831   -8.4924  -15.4273 C   0  0  1  0  0  0  0  0  0  0  0  0
   21.3022   -9.1260  -14.2297 C   0  0  0  0  0  0  0  0  0  0  0  0
   21.2798   -8.0166  -12.8060 S   0  0  0  0  0  0  0  0  0  0  0  0
   21.1853   -7.1919  -15.6919 C   0  0  0  0  0  0  0  0  0  0  0  0
   20.6350   -6.0399  -15.1694 O   0  0  0  0  0  0  0  0  0  0  0  0
   22.2113   -7.1006  -16.3973 O   0  0  0  0  0  0  0  0  0  0  0  0
  2  1  1  6
  3  2  1  0
  4  2  1  0
  4  5  1  6
  6  4  1  0
  7  6  2  0
  9  8  1  1
  9 11  1  0
 10  9  1  0
 11 12  1  1
 12  6  1  0
 13 11  1  0
 13 15  1  0
 14 13  2  0
 16 15  1  0
 16 17  1  1
 16 19  1  0
 18 17  1  0
 19 21  2  0
 19 20  1  0
M  END
$$$$
