VVC.pdb
     RDKit          3D

 21 20  0  0  1  0  0  0  0  0999 V2000
   27.6022  -12.2236  -15.8678 C   0  0  0  0  0  0  0  0  0  0  0  0
   26.5661  -11.2271  -16.3486 C   0  0  2  0  0  0  0  0  0  0  0  0
   26.5482  -10.0987  -15.3138 C   0  0  0  0  0  0  0  0  0  0  0  0
   25.1738  -11.8165  -16.3520 C   0  0  2  0  0  0  0  0  0  0  0  0
   25.1829  -12.9230  -17.2873 N   0  0  0  0  0  0  0  0  0  0  0  0
   24.1406  -10.8204  -16.7357 C   0  0  0  0  0  0  0  0  0  0  0  0
   24.0769  -10.4087  -17.9051 O   0  0  0  0  0  0  0  0  0  0  0  0
   20.5177  -11.0369  -16.8475 C   0  0  0  0  0  0  0  0  0  0  0  0
   20.8688   -9.9461  -15.9056 C   0  0  2  0  0  0  0  0  0  0  0  0
   19.7282   -8.9561  -15.8860 C   0  0  0  0  0  0  0  0  0  0  0  0
   22.2051   -9.3178  -16.0953 C   0  0  2  0  0  0  0  0  0  0  0  0
   23.2175  -10.3295  -15.7739 N   0  0  0  0  0  0  0  0  0  0  0  0
   22.4155   -8.0990  -15.3003 C   0  0  0  0  0  0  0  0  0  0  0  0
   22.4115   -8.2004  -14.0204 O   0  0  0  0  0  0  0  0  0  0  0  0
   22.6250   -6.8190  -15.7979 N   0  0  0  0  0  0  0  0  0  0  0  0
   22.9003   -5.6473  -14.9590 C   0  0  1  0  0  0  0  0  0  0  0  0
   23.8752   -4.7927  -15.7788 C   0  0  0  0  0  0  0  0  0  0  0  0
   25.4125   -5.6874  -16.0860 S   0  0  0  0  0  0  0  0  0  0  0  0
   21.7022   -4.8594  -14.6990 C   0  0  0  0  0  0  0  0  0  0  0  0
   21.6514   -3.9821  -13.6357 O   0  0  0  0  0  0  0  0  0  0  0  0
   20.7010   -4.9666  -15.4370 O   0  0  0  0  0  0  0  0  0  0  0  0
  2  1  1  1
  3  2  1  0
  4  2  1  0
  4  5  1  6
  6  4  1  0
  7  6  2  0
  9  8  1  6
  9 11  1  0
 10  9  1  0
 11 12  1  1
 12  6  1  0
 13 11  1  0
 13 15  1  0
 14 13  2  0
 16 15  1  0
 16 17  1  6
 16 19  1  0
 18 17  1  0
 19 21  2  0
 19 20  1  0
M  END
$$$$
