VVC.pdb
     RDKit          3D

 21 20  0  0  1  0  0  0  0  0999 V2000
   20.5789  -20.7460  -16.4915 C   0  0  0  0  0  0  0  0  0  0  0  0
   21.0471  -19.4339  -15.8941 C   0  0  2  0  0  0  0  0  0  0  0  0
   20.7899  -18.3650  -16.9596 C   0  0  0  0  0  0  0  0  0  0  0  0
   22.5381  -19.4272  -15.6431 C   0  0  2  0  0  0  0  0  0  0  0  0
   22.8042  -20.4349  -14.6367 N   0  0  0  0  0  0  0  0  0  0  0  0
   23.0279  -18.0995  -15.1913 C   0  0  0  0  0  0  0  0  0  0  0  0
   22.7192  -17.6716  -14.0677 O   0  0  0  0  0  0  0  0  0  0  0  0
   26.4741  -17.0825  -14.7262 C   0  0  0  0  0  0  0  0  0  0  0  0
   25.8643  -16.0917  -15.6464 C   0  0  2  0  0  0  0  0  0  0  0  0
   26.5574  -14.7661  -15.4368 C   0  0  0  0  0  0  0  0  0  0  0  0
   24.3784  -16.0015  -15.6251 C   0  0  2  0  0  0  0  0  0  0  0  0
   23.8516  -17.3076  -16.0354 N   0  0  0  0  0  0  0  0  0  0  0  0
   23.8284  -14.9295  -16.4679 C   0  0  0  0  0  0  0  0  0  0  0  0
   23.9645  -15.0273  -17.7408 O   0  0  0  0  0  0  0  0  0  0  0  0
   23.1594  -13.7960  -16.0235 N   0  0  0  0  0  0  0  0  0  0  0  0
   22.5929  -12.7760  -16.9129 C   0  0  1  0  0  0  0  0  0  0  0  0
   21.4763  -12.1135  -16.0961 C   0  0  0  0  0  0  0  0  0  0  0  0
   20.2839  -13.3414  -15.5229 S   0  0  0  0  0  0  0  0  0  0  0  0
   23.5675  -11.7550  -17.2752 C   0  0  0  0  0  0  0  0  0  0  0  0
   23.3024  -10.8527  -18.2844 O   0  0  0  0  0  0  0  0  0  0  0  0
   24.6602  -11.6812  -16.6758 O   0  0  0  0  0  0  0  0  0  0  0  0
  2  1  1  6
  3  2  1  0
  4  2  1  0
  4  5  1  1
  6  4  1  0
  7  6  2  0
  9  8  1  1
  9 11  1  0
 10  9  1  0
 11 12  1  6
 12  6  1  0
 13 11  1  0
 13 15  1  0
 14 13  2  0
 16 15  1  0
 16 17  1  1
 16 19  1  0
 18 17  1  0
 19 21  2  0
 19 20  1  0
M  END
$$$$
