VVC.pdb
     RDKit          3D

 21 20  0  0  1  0  0  0  0  0999 V2000
   18.0902  -14.3552  -16.5760 C   0  0  0  0  0  0  0  0  0  0  0  0
   17.3180  -13.2366  -15.9051 C   0  0  2  0  0  0  0  0  0  0  0  0
   16.1305  -12.9297  -16.8216 C   0  0  0  0  0  0  0  0  0  0  0  0
   18.1265  -11.9616  -15.8232 C   0  0  2  0  0  0  0  0  0  0  0  0
   19.2426  -12.2223  -14.9370 N   0  0  0  0  0  0  0  0  0  0  0  0
   17.3234  -10.8158  -15.3242 C   0  0  0  0  0  0  0  0  0  0  0  0
   16.3576  -10.3987  -15.9831 O   0  0  0  0  0  0  0  0  0  0  0  0
   17.6681   -9.6303  -11.2217 C   0  0  0  0  0  0  0  0  0  0  0  0
   16.5277   -9.4009  -12.1422 C   0  0  2  0  0  0  0  0  0  0  0  0
   15.5764  -10.5668  -12.0124 C   0  0  0  0  0  0  0  0  0  0  0  0
   16.8759   -9.0647  -13.5501 C   0  0  2  0  0  0  0  0  0  0  0  0
   17.6494  -10.1867  -14.0928 N   0  0  0  0  0  0  0  0  0  0  0  0
   17.6128   -7.8015  -13.7027 C   0  0  0  0  0  0  0  0  0  0  0  0
   18.8110   -7.7382  -13.2456 O   0  0  0  0  0  0  0  0  0  0  0  0
   17.1406   -6.6420  -14.3047 N   0  0  0  0  0  0  0  0  0  0  0  0
   17.8938   -5.3846  -14.3672 C   0  0  1  0  0  0  0  0  0  0  0  0
   18.1039   -5.1222  -15.8639 C   0  0  0  0  0  0  0  0  0  0  0  0
   18.8457   -3.4988  -16.1339 S   0  0  0  0  0  0  0  0  0  0  0  0
   17.1503   -4.2657  -13.8025 C   0  0  0  0  0  0  0  0  0  0  0  0
   15.7887   -4.3537  -13.5996 O   0  0  0  0  0  0  0  0  0  0  0  0
   17.7361   -3.2076  -13.4929 O   0  0  0  0  0  0  0  0  0  0  0  0
  2  1  1  6
  3  2  1  0
  4  2  1  0
  4  5  1  1
  6  4  1  0
  7  6  2  0
  9  8  1  1
  9 11  1  0
 10  9  1  0
 11 12  1  1
 12  6  1  0
 13 11  1  0
 13 15  1  0
 14 13  2  0
 16 15  1  0
 16 17  1  6
 16 19  1  0
 18 17  1  0
 19 21  2  0
 19 20  1  0
M  END
$$$$
