VVC.pdb
     RDKit          3D

 21 20  0  0  1  0  0  0  0  0999 V2000
   25.6479  -21.9883  -11.2926 C   0  0  0  0  0  0  0  0  0  0  0  0
   25.0532  -20.6161  -11.0456 C   0  0  2  0  0  0  0  0  0  0  0  0
   24.8940  -20.4879   -9.5282 C   0  0  0  0  0  0  0  0  0  0  0  0
   23.6630  -20.4896  -11.6264 C   0  0  2  0  0  0  0  0  0  0  0  0
   22.8442  -21.5038  -10.9937 N   0  0  0  0  0  0  0  0  0  0  0  0
   23.6510  -20.6583  -13.1023 C   0  0  0  0  0  0  0  0  0  0  0  0
   23.3646  -21.7586  -13.6006 O   0  0  0  0  0  0  0  0  0  0  0  0
   21.6336  -18.9582  -15.6851 C   0  0  0  0  0  0  0  0  0  0  0  0
   23.0652  -18.7284  -15.9980 C   0  0  2  0  0  0  0  0  0  0  0  0
   23.1988  -18.5587  -17.4929 C   0  0  0  0  0  0  0  0  0  0  0  0
   24.0303  -19.7014  -15.4162 C   0  0  2  0  0  0  0  0  0  0  0  0
   23.9652  -19.5679  -13.9569 N   0  0  0  0  0  0  0  0  0  0  0  0
   25.4114  -19.5380  -15.8935 C   0  0  0  0  0  0  0  0  0  0  0  0
   25.9756  -18.3948  -15.7406 O   0  0  0  0  0  0  0  0  0  0  0  0
   26.1903  -20.5121  -16.5052 N   0  0  0  0  0  0  0  0  0  0  0  0
   27.6061  -20.3355  -16.8470 C   0  0  1  0  0  0  0  0  0  0  0  0
   28.2853  -21.6396  -16.4100 C   0  0  0  0  0  0  0  0  0  0  0  0
   27.9417  -21.9927  -14.6734 S   0  0  0  0  0  0  0  0  0  0  0  0
   27.8122  -20.1656  -18.2796 C   0  0  0  0  0  0  0  0  0  0  0  0
   29.0683  -19.9025  -18.7856 O   0  0  0  0  0  0  0  0  0  0  0  0
   26.8524  -20.2559  -19.0728 O   0  0  0  0  0  0  0  0  0  0  0  0
  2  1  1  1
  3  2  1  0
  4  2  1  0
  4  5  1  1
  6  4  1  0
  7  6  2  0
  9  8  1  6
  9 11  1  0
 10  9  1  0
 11 12  1  1
 12  6  1  0
 13 11  1  0
 13 15  1  0
 14 13  2  0
 16 15  1  0
 16 17  1  6
 16 19  1  0
 18 17  1  0
 19 21  2  0
 19 20  1  0
M  END
$$$$
