VVC.pdb
     RDKit          3D

 21 20  0  0  1  0  0  0  0  0999 V2000
   25.3973  -22.5847  -11.0254 C   0  0  0  0  0  0  0  0  0  0  0  0
   25.9748  -21.2367  -10.6419 C   0  0  2  0  0  0  0  0  0  0  0  0
   25.9383  -21.1772   -9.1124 C   0  0  0  0  0  0  0  0  0  0  0  0
   25.1128  -20.0935  -11.1278 C   0  0  2  0  0  0  0  0  0  0  0  0
   23.7834  -20.3063  -10.5926 N   0  0  0  0  0  0  0  0  0  0  0  0
   25.0689  -20.0110  -12.6105 C   0  0  0  0  0  0  0  0  0  0  0  0
   26.1133  -20.1258  -13.2715 O   0  0  0  0  0  0  0  0  0  0  0  0
   22.1142  -21.4676  -14.9849 C   0  0  0  0  0  0  0  0  0  0  0  0
   22.4181  -20.0300  -15.1877 C   0  0  2  0  0  0  0  0  0  0  0  0
   22.1110  -19.6823  -16.6251 C   0  0  0  0  0  0  0  0  0  0  0  0
   23.7593  -19.5705  -14.7329 C   0  0  2  0  0  0  0  0  0  0  0  0
   23.8371  -19.8010  -13.2864 N   0  0  0  0  0  0  0  0  0  0  0  0
   24.0551  -18.1663  -15.0536 C   0  0  0  0  0  0  0  0  0  0  0  0
   23.2800  -17.2588  -14.5802 O   0  0  0  0  0  0  0  0  0  0  0  0
   25.1100  -17.7055  -15.8312 N   0  0  0  0  0  0  0  0  0  0  0  0
   25.3393  -16.2915  -16.1482 C   0  0  1  0  0  0  0  0  0  0  0  0
   26.6034  -15.9100  -15.3677 C   0  0  0  0  0  0  0  0  0  0  0  0
   27.1484  -14.2446  -15.8011 S   0  0  0  0  0  0  0  0  0  0  0  0
   25.5907  -16.0765  -17.5674 C   0  0  0  0  0  0  0  0  0  0  0  0
   25.2879  -14.8696  -18.1629 O   0  0  0  0  0  0  0  0  0  0  0  0
   26.0856  -16.9839  -18.2677 O   0  0  0  0  0  0  0  0  0  0  0  0
  2  1  1  1
  3  2  1  0
  4  2  1  0
  4  5  1  6
  6  4  1  0
  7  6  2  0
  9  8  1  6
  9 11  1  0
 10  9  1  0
 11 12  1  1
 12  6  1  0
 13 11  1  0
 13 15  1  0
 14 13  2  0
 16 15  1  0
 16 17  1  1
 16 19  1  0
 18 17  1  0
 19 21  2  0
 19 20  1  0
M  END
$$$$
