VVC.pdb
     RDKit          3D

 21 20  0  0  1  0  0  0  0  0999 V2000
   22.6263  -12.8875  -20.0326 C   0  0  0  0  0  0  0  0  0  0  0  0
   22.4360  -11.6464  -20.8818 C   0  0  2  0  0  0  0  0  0  0  0  0
   23.2688  -11.8649  -22.1479 C   0  0  0  0  0  0  0  0  0  0  0  0
   23.0010  -10.4129  -20.2146 C   0  0  2  0  0  0  0  0  0  0  0  0
   24.4271  -10.6236  -20.0694 N   0  0  0  0  0  0  0  0  0  0  0  0
   22.3772  -10.1513  -18.8920 C   0  0  0  0  0  0  0  0  0  0  0  0
   21.1641   -9.8997  -18.8148 O   0  0  0  0  0  0  0  0  0  0  0  0
   22.4473  -12.3592  -15.8297 C   0  0  0  0  0  0  0  0  0  0  0  0
   22.9820  -11.0206  -15.4797 C   0  0  2  0  0  0  0  0  0  0  0  0
   22.6818  -10.7603  -14.0225 C   0  0  0  0  0  0  0  0  0  0  0  0
   22.5944   -9.9010  -16.3812 C   0  0  2  0  0  0  0  0  0  0  0  0
   23.1575  -10.1861  -17.7054 N   0  0  0  0  0  0  0  0  0  0  0  0
   23.0178   -8.5742  -15.9095 C   0  0  0  0  0  0  0  0  0  0  0  0
   24.2661   -8.2793  -15.9659 O   0  0  0  0  0  0  0  0  0  0  0  0
   22.1913   -7.5812  -15.3987 N   0  0  0  0  0  0  0  0  0  0  0  0
   22.6711   -6.2796  -14.9212 C   0  0  1  0  0  0  0  0  0  0  0  0
   22.8731   -5.4415  -16.1899 C   0  0  0  0  0  0  0  0  0  0  0  0
   23.3145   -3.7414  -15.7738 S   0  0  0  0  0  0  0  0  0  0  0  0
   21.6944   -5.6068  -14.0744 C   0  0  0  0  0  0  0  0  0  0  0  0
   22.0913   -4.6548  -13.1583 O   0  0  0  0  0  0  0  0  0  0  0  0
   20.4802   -5.8825  -14.1656 O   0  0  0  0  0  0  0  0  0  0  0  0
  2  1  1  1
  3  2  1  0
  4  2  1  0
  4  5  1  1
  6  4  1  0
  7  6  2  0
  9  8  1  6
  9 11  1  0
 10  9  1  0
 11 12  1  6
 12  6  1  0
 13 11  1  0
 13 15  1  0
 14 13  2  0
 16 15  1  0
 16 17  1  6
 16 19  1  0
 18 17  1  0
 19 21  2  0
 19 20  1  0
M  END
$$$$
