FCY.pdb
     RDKit          3D

 30 31  0  0  1  0  0  0  0  0999 V2000
   27.2912    1.5203   -2.4890 N   0  0  0  0  0  0  0  0  0  0  0  0
   26.0093    1.3332   -3.1366 C   0  0  1  0  0  0  0  0  0  0  0  0
   24.8968    1.2196   -2.1169 C   0  0  0  0  0  0  0  0  0  0  0  0
   25.1114   -0.0305   -1.3522 C   0  0  0  0  0  0  0  0  0  0  0  0
   25.6406    0.0413   -0.0882 C   0  0  0  0  0  0  0  0  0  0  0  0
   25.8567   -1.1127    0.6609 C   0  0  0  0  0  0  0  0  0  0  0  0
   25.5324   -2.3435    0.1203 C   0  0  0  0  0  0  0  0  0  0  0  0
   25.0052   -2.4335   -1.1351 C   0  0  0  0  0  0  0  0  0  0  0  0
   24.8038   -1.2750   -1.8499 C   0  0  0  0  0  0  0  0  0  0  0  0
   25.7810    2.3955   -4.1163 C   0  0  0  0  0  0  0  0  0  0  0  0
   26.6667    3.2623   -4.3124 O   0  0  0  0  0  0  0  0  0  0  0  0
   24.5874    2.5221   -4.8893 N   0  0  0  0  0  0  0  0  0  0  0  0
   24.4201    3.5285   -5.9199 C   0  0  1  0  0  0  0  0  0  0  0  0
   25.4986    3.2993   -6.9566 C   0  0  0  0  0  0  0  0  0  0  0  0
   25.2297    4.5557   -8.2620 S   0  0  0  0  0  0  0  0  0  0  0  0
   23.0660    3.4887   -6.4971 C   0  0  0  0  0  0  0  0  0  0  0  0
   22.6552    2.3949   -6.9648 O   0  0  0  0  0  0  0  0  0  0  0  0
   19.9550    0.5570   -1.9719 O   0  0  0  0  0  0  0  0  0  0  0  0
   19.9079    1.5429   -2.9472 C   0  0  0  0  0  0  0  0  0  0  0  0
   19.1389    1.4468   -4.0883 C   0  0  0  0  0  0  0  0  0  0  0  0
   19.1382    2.4626   -5.0165 C   0  0  0  0  0  0  0  0  0  0  0  0
   19.8920    3.6249   -4.8725 C   0  0  0  0  0  0  0  0  0  0  0  0
   19.8609    4.6707   -5.8955 C   0  0  0  0  0  0  0  0  0  0  0  0
   20.8119    4.4969   -7.0309 C   0  0  2  0  0  0  0  0  0  0  0  0
   22.2043    4.5910   -6.5593 N   0  0  0  0  0  0  0  0  0  0  0  0
   20.5719    5.4862   -8.1097 C   0  0  0  0  0  0  0  0  0  0  0  0
   21.4091    6.3509   -8.4597 O   0  0  0  0  0  0  0  0  0  0  0  0
   20.6606    3.7071   -3.7199 C   0  0  0  0  0  0  0  0  0  0  0  0
   20.6574    2.6880   -2.7947 C   0  0  0  0  0  0  0  0  0  0  0  0
   19.3557    5.4922   -8.8042 O   0  0  0  0  0  0  0  0  0  0  0  0
  2  3  1  0
  2  1  1  1
  3  4  1  0
  4  9  2  0
  5  6  2  0
  5  4  1  0
  6  7  1  0
  7  8  2  0
  9  8  1  0
 10 12  1  0
 10  2  1  0
 11 10  2  0
 13 14  1  6
 13 12  1  0
 14 15  1  0
 16 13  1  0
 16 17  2  0
 18 19  1  0
 19 29  2  0
 20 19  1  0
 20 21  2  0
 21 22  1  0
 22 28  2  0
 22 23  1  0
 24 23  1  1
 24 26  1  0
 24 25  1  0
 25 16  1  0
 26 30  1  0
 27 26  2  0
 29 28  1  0
M  END
$$$$
