FCY.pdb
     RDKit          3D

 30 31  0  0  1  0  0  0  0  0999 V2000
   30.1069   -4.8058  -18.3640 N   0  0  0  0  0  0  0  0  0  0  0  0
   30.2078   -5.9808  -19.2048 C   0  0  1  0  0  0  0  0  0  0  0  0
   31.4536   -6.7762  -18.8796 C   0  0  0  0  0  0  0  0  0  0  0  0
   32.6227   -5.9924  -19.3409 C   0  0  0  0  0  0  0  0  0  0  0  0
   32.9101   -5.9467  -20.6819 C   0  0  0  0  0  0  0  0  0  0  0  0
   34.0009   -5.2203  -21.1529 C   0  0  0  0  0  0  0  0  0  0  0  0
   34.8012   -4.5383  -20.2546 C   0  0  0  0  0  0  0  0  0  0  0  0
   34.5301   -4.5728  -18.9177 C   0  0  0  0  0  0  0  0  0  0  0  0
   33.4450   -5.2995  -18.4839 C   0  0  0  0  0  0  0  0  0  0  0  0
   28.9820   -6.7737  -19.1102 C   0  0  0  0  0  0  0  0  0  0  0  0
   28.2795   -6.7124  -18.0724 O   0  0  0  0  0  0  0  0  0  0  0  0
   28.5121   -7.6389  -20.1441 N   0  0  0  0  0  0  0  0  0  0  0  0
   27.2498   -8.3482  -20.0636 C   0  0  1  0  0  0  0  0  0  0  0  0
   26.1593   -7.3142  -19.8855 C   0  0  0  0  0  0  0  0  0  0  0  0
   26.3219   -6.1507  -21.2908 S   0  0  0  0  0  0  0  0  0  0  0  0
   27.0330   -9.1980  -21.2466 C   0  0  0  0  0  0  0  0  0  0  0  0
   27.2651   -8.7028  -22.3801 O   0  0  0  0  0  0  0  0  0  0  0  0
   22.2159  -16.0132  -20.7865 O   0  0  0  0  0  0  0  0  0  0  0  0
   23.3106  -15.2321  -21.1284 C   0  0  0  0  0  0  0  0  0  0  0  0
   23.6800  -14.9701  -22.4314 C   0  0  0  0  0  0  0  0  0  0  0  0
   24.7782  -14.1862  -22.7009 C   0  0  0  0  0  0  0  0  0  0  0  0
   25.5705  -13.6191  -21.7056 C   0  0  0  0  0  0  0  0  0  0  0  0
   26.7336  -12.8001  -22.0485 C   0  0  0  0  0  0  0  0  0  0  0  0
   26.4482  -11.3758  -22.3857 C   0  0  2  0  0  0  0  0  0  0  0  0
   26.5846  -10.5236  -21.1918 N   0  0  0  0  0  0  0  0  0  0  0  0
   25.0996  -11.2077  -22.9797 C   0  0  0  0  0  0  0  0  0  0  0  0
   24.0997  -10.8125  -22.3353 O   0  0  0  0  0  0  0  0  0  0  0  0
   25.1868  -13.8916  -20.4000 C   0  0  0  0  0  0  0  0  0  0  0  0
   24.0872  -14.6764  -20.1363 C   0  0  0  0  0  0  0  0  0  0  0  0
   24.8837  -11.4947  -24.3334 O   0  0  0  0  0  0  0  0  0  0  0  0
  2  3  1  0
  2  1  1  1
  3  4  1  0
  4  9  2  0
  5  6  2  0
  5  4  1  0
  6  7  1  0
  7  8  2  0
  9  8  1  0
 10 12  1  0
 10  2  1  0
 11 10  2  0
 13 14  1  6
 13 12  1  0
 14 15  1  0
 16 13  1  0
 16 17  2  0
 18 19  1  0
 19 29  2  0
 20 19  1  0
 20 21  2  0
 21 22  1  0
 22 28  2  0
 22 23  1  0
 24 23  1  1
 24 26  1  0
 24 25  1  0
 25 16  1  0
 26 30  1  0
 27 26  2  0
 29 28  1  0
M  END
$$$$
