FCY.pdb
     RDKit          3D

 30 31  0  0  1  0  0  0  0  0999 V2000
   23.3814  -11.3519  -16.1078 N   0  0  0  0  0  0  0  0  0  0  0  0
   23.7352  -10.0192  -15.6646 C   0  0  1  0  0  0  0  0  0  0  0  0
   24.5474   -9.2945  -16.7161 C   0  0  0  0  0  0  0  0  0  0  0  0
   25.8000  -10.0571  -16.9237 C   0  0  0  0  0  0  0  0  0  0  0  0
   25.7960  -11.1289  -17.7806 C   0  0  0  0  0  0  0  0  0  0  0  0
   26.9544  -11.8698  -18.0011 C   0  0  0  0  0  0  0  0  0  0  0  0
   28.1204  -11.5175  -17.3463 C   0  0  0  0  0  0  0  0  0  0  0  0
   28.1425  -10.4547  -16.4907 C   0  0  0  0  0  0  0  0  0  0  0  0
   26.9814   -9.7426  -16.2942 C   0  0  0  0  0  0  0  0  0  0  0  0
   22.5337   -9.2867  -15.2646 C   0  0  0  0  0  0  0  0  0  0  0  0
   21.4894   -9.3800  -15.9538 O   0  0  0  0  0  0  0  0  0  0  0  0
   22.4601   -8.4475  -14.1118 N   0  0  0  0  0  0  0  0  0  0  0  0
   21.2717   -7.6939  -13.7615 C   0  0  1  0  0  0  0  0  0  0  0  0
   20.7403   -8.2627  -12.4637 C   0  0  0  0  0  0  0  0  0  0  0  0
   19.2704   -7.2602  -12.0286 S   0  0  0  0  0  0  0  0  0  0  0  0
   21.5556   -6.2518  -13.6704 C   0  0  0  0  0  0  0  0  0  0  0  0
   22.6546   -5.8966  -13.1705 O   0  0  0  0  0  0  0  0  0  0  0  0
   23.6586    1.8698  -15.7052 O   0  0  0  0  0  0  0  0  0  0  0  0
   23.3185    0.5471  -15.4600 C   0  0  0  0  0  0  0  0  0  0  0  0
   22.8984    0.0860  -14.2296 C   0  0  0  0  0  0  0  0  0  0  0  0
   22.5759   -1.2401  -14.0547 C   0  0  0  0  0  0  0  0  0  0  0  0
   22.6490   -2.1821  -15.0781 C   0  0  0  0  0  0  0  0  0  0  0  0
   22.3025   -3.5827  -14.8346 C   0  0  0  0  0  0  0  0  0  0  0  0
   21.0297   -3.8174  -14.0938 C   0  0  2  0  0  0  0  0  0  0  0  0
   20.6804   -5.2484  -14.1048 N   0  0  0  0  0  0  0  0  0  0  0  0
   19.9113   -3.0162  -14.6483 C   0  0  0  0  0  0  0  0  0  0  0  0
   19.8546   -1.7654  -14.5881 O   0  0  0  0  0  0  0  0  0  0  0  0
   23.0733   -1.7036  -16.3098 C   0  0  0  0  0  0  0  0  0  0  0  0
   23.3945   -0.3759  -16.4791 C   0  0  0  0  0  0  0  0  0  0  0  0
   18.8362   -3.6499  -15.2838 O   0  0  0  0  0  0  0  0  0  0  0  0
  2  3  1  0
  2  1  1  6
  3  4  1  0
  4  9  2  0
  5  6  2  0
  5  4  1  0
  6  7  1  0
  7  8  2  0
  9  8  1  0
 10 12  1  0
 10  2  1  0
 11 10  2  0
 13 14  1  1
 13 12  1  0
 14 15  1  0
 16 13  1  0
 16 17  2  0
 18 19  1  0
 19 29  2  0
 20 19  1  0
 20 21  2  0
 21 22  1  0
 22 28  2  0
 22 23  1  0
 24 23  1  6
 24 26  1  0
 24 25  1  0
 25 16  1  0
 26 30  1  0
 27 26  2  0
 29 28  1  0
M  END
$$$$
