FCY.pdb
     RDKit          3D

 30 31  0  0  1  0  0  0  0  0999 V2000
   18.9777  -10.1264  -14.1552 N   0  0  0  0  0  0  0  0  0  0  0  0
   17.6336   -9.6214  -13.9650 C   0  0  1  0  0  0  0  0  0  0  0  0
   16.7581  -10.6501  -13.2825 C   0  0  0  0  0  0  0  0  0  0  0  0
   16.4349  -11.6989  -14.2771 C   0  0  0  0  0  0  0  0  0  0  0  0
   17.1295  -12.8820  -14.2510 C   0  0  0  0  0  0  0  0  0  0  0  0
   16.8535  -13.8912  -15.1701 C   0  0  0  0  0  0  0  0  0  0  0  0
   15.8666  -13.6942  -16.1186 C   0  0  0  0  0  0  0  0  0  0  0  0
   15.1660  -12.5240  -16.1591 C   0  0  0  0  0  0  0  0  0  0  0  0
   15.4624  -11.5462  -15.2372 C   0  0  0  0  0  0  0  0  0  0  0  0
   17.6725   -8.3425  -13.2558 C   0  0  0  0  0  0  0  0  0  0  0  0
   18.4493   -8.1942  -12.2817 O   0  0  0  0  0  0  0  0  0  0  0  0
   16.8666   -7.2159  -13.6016 N   0  0  0  0  0  0  0  0  0  0  0  0
   16.9603   -5.9411  -12.9167 C   0  0  1  0  0  0  0  0  0  0  0  0
   16.9854   -4.8589  -13.9742 C   0  0  0  0  0  0  0  0  0  0  0  0
   15.4939   -5.1158  -15.0059 S   0  0  0  0  0  0  0  0  0  0  0  0
   15.8591   -5.7640  -11.9551 C   0  0  0  0  0  0  0  0  0  0  0  0
   14.7511   -6.2985  -12.2209 O   0  0  0  0  0  0  0  0  0  0  0  0
   11.1358   -4.1005   -4.5912 O   0  0  0  0  0  0  0  0  0  0  0  0
   12.0658   -4.4318   -5.5663 C   0  0  0  0  0  0  0  0  0  0  0  0
   11.8772   -5.4450   -6.4833 C   0  0  0  0  0  0  0  0  0  0  0  0
   12.8413   -5.7214   -7.4253 C   0  0  0  0  0  0  0  0  0  0  0  0
   14.0399   -5.0178   -7.5160 C   0  0  0  0  0  0  0  0  0  0  0  0
   15.0353   -5.3598   -8.5326 C   0  0  0  0  0  0  0  0  0  0  0  0
   14.8154   -4.7654   -9.8825 C   0  0  2  0  0  0  0  0  0  0  0  0
   15.9652   -5.0382  -10.7620 N   0  0  0  0  0  0  0  0  0  0  0  0
   14.5655   -3.3052   -9.8097 C   0  0  0  0  0  0  0  0  0  0  0  0
   15.4729   -2.4412   -9.8468 O   0  0  0  0  0  0  0  0  0  0  0  0
   14.2154   -4.0019   -6.5870 C   0  0  0  0  0  0  0  0  0  0  0  0
   13.2476   -3.7296   -5.6469 C   0  0  0  0  0  0  0  0  0  0  0  0
   13.2578   -2.8178   -9.6925 O   0  0  0  0  0  0  0  0  0  0  0  0
  2  3  1  0
  2  1  1  1
  3  4  1  0
  4  9  2  0
  5  6  2  0
  5  4  1  0
  6  7  1  0
  7  8  2  0
  9  8  1  0
 10 12  1  0
 10  2  1  0
 11 10  2  0
 13 14  1  6
 13 12  1  0
 14 15  1  0
 16 13  1  0
 16 17  2  0
 18 19  1  0
 19 29  2  0
 20 19  1  0
 20 21  2  0
 21 22  1  0
 22 28  2  0
 22 23  1  0
 24 23  1  1
 24 26  1  0
 24 25  1  0
 25 16  1  0
 26 30  1  0
 27 26  2  0
 29 28  1  0
M  END
$$$$
