FCY.pdb
     RDKit          3D

 30 31  0  0  1  0  0  0  0  0999 V2000
   26.0240  -18.7804   -8.0847 N   0  0  0  0  0  0  0  0  0  0  0  0
   26.9792  -19.7103   -8.6509 C   0  0  1  0  0  0  0  0  0  0  0  0
   27.1286  -20.9360   -7.7758 C   0  0  0  0  0  0  0  0  0  0  0  0
   27.8301  -20.5241   -6.5381 C   0  0  0  0  0  0  0  0  0  0  0  0
   29.1738  -20.2507   -6.5906 C   0  0  0  0  0  0  0  0  0  0  0  0
   29.8672  -19.8607   -5.4475 C   0  0  0  0  0  0  0  0  0  0  0  0
   29.1892  -19.7490   -4.2474 C   0  0  0  0  0  0  0  0  0  0  0  0
   27.8532  -20.0171   -4.1769 C   0  0  0  0  0  0  0  0  0  0  0  0
   27.1965  -20.4002   -5.3240 C   0  0  0  0  0  0  0  0  0  0  0  0
   26.6106  -20.0331  -10.0294 C   0  0  0  0  0  0  0  0  0  0  0  0
   25.4009  -20.0532  -10.3617 O   0  0  0  0  0  0  0  0  0  0  0  0
   27.5556  -20.3362  -11.0557 N   0  0  0  0  0  0  0  0  0  0  0  0
   27.2061  -20.3688  -12.4627 C   0  0  1  0  0  0  0  0  0  0  0  0
   28.4878  -20.5617  -13.2439 C   0  0  0  0  0  0  0  0  0  0  0  0
   28.0518  -20.3339  -15.0082 S   0  0  0  0  0  0  0  0  0  0  0  0
   26.2101  -21.4157  -12.7464 C   0  0  0  0  0  0  0  0  0  0  0  0
   26.1273  -22.3842  -11.9470 O   0  0  0  0  0  0  0  0  0  0  0  0
   17.7451  -20.9768  -11.7847 O   0  0  0  0  0  0  0  0  0  0  0  0
   19.1022  -20.8555  -12.0472 C   0  0  0  0  0  0  0  0  0  0  0  0
   19.6132  -20.0689  -13.0586 C   0  0  0  0  0  0  0  0  0  0  0  0
   20.9715  -19.9933  -13.2647 C   0  0  0  0  0  0  0  0  0  0  0  0
   21.8983  -20.6857  -12.4890 C   0  0  0  0  0  0  0  0  0  0  0  0
   23.3324  -20.5761  -12.7577 C   0  0  0  0  0  0  0  0  0  0  0  0
   23.8879  -21.5604  -13.7306 C   0  0  2  0  0  0  0  0  0  0  0  0
   25.3478  -21.4033  -13.8498 N   0  0  0  0  0  0  0  0  0  0  0  0
   23.2521  -21.4381  -15.0651 C   0  0  0  0  0  0  0  0  0  0  0  0
   23.6032  -20.6004  -15.9289 O   0  0  0  0  0  0  0  0  0  0  0  0
   21.3693  -21.4729  -11.4758 C   0  0  0  0  0  0  0  0  0  0  0  0
   20.0097  -21.5447  -11.2740 C   0  0  0  0  0  0  0  0  0  0  0  0
   22.1963  -22.2851  -15.4243 O   0  0  0  0  0  0  0  0  0  0  0  0
  2  3  1  0
  2  1  1  1
  3  4  1  0
  4  9  2  0
  5  6  2  0
  5  4  1  0
  6  7  1  0
  7  8  2  0
  9  8  1  0
 10 12  1  0
 10  2  1  0
 11 10  2  0
 13 14  1  6
 13 12  1  0
 14 15  1  0
 16 13  1  0
 16 17  2  0
 18 19  1  0
 19 29  2  0
 20 19  1  0
 20 21  2  0
 21 22  1  0
 22 28  2  0
 22 23  1  0
 24 23  1  1
 24 26  1  0
 24 25  1  0
 25 16  1  0
 26 30  1  0
 27 26  2  0
 29 28  1  0
M  END
$$$$
