FCY.pdb
     RDKit          3D

 30 31  0  0  1  0  0  0  0  0999 V2000
   17.3135  -13.7704    7.4513 N   0  0  0  0  0  0  0  0  0  0  0  0
   16.4375  -14.6208    6.6720 C   0  0  1  0  0  0  0  0  0  0  0  0
   16.0378  -13.9475    5.3768 C   0  0  0  0  0  0  0  0  0  0  0  0
   17.2677  -13.7380    4.5787 C   0  0  0  0  0  0  0  0  0  0  0  0
   17.5942  -14.6455    3.6027 C   0  0  0  0  0  0  0  0  0  0  0  0
   18.7427  -14.4818    2.8322 C   0  0  0  0  0  0  0  0  0  0  0  0
   19.5609  -13.3898    3.0571 C   0  0  0  0  0  0  0  0  0  0  0  0
   19.2516  -12.4775    4.0235 C   0  0  0  0  0  0  0  0  0  0  0  0
   18.1098  -12.6675    4.7679 C   0  0  0  0  0  0  0  0  0  0  0  0
   17.0581  -15.9299    6.4684 C   0  0  0  0  0  0  0  0  0  0  0  0
   18.1903  -16.1646    6.9554 O   0  0  0  0  0  0  0  0  0  0  0  0
   16.4509  -16.9927    5.7334 N   0  0  0  0  0  0  0  0  0  0  0  0
   17.0787  -18.2883    5.5594 C   0  0  1  0  0  0  0  0  0  0  0  0
   17.3257  -18.8612    6.9382 C   0  0  0  0  0  0  0  0  0  0  0  0
   16.5025  -20.4971    6.9683 S   0  0  0  0  0  0  0  0  0  0  0  0
   16.2579  -19.1761    4.7189 C   0  0  0  0  0  0  0  0  0  0  0  0
   15.0248  -19.2449    4.9609 O   0  0  0  0  0  0  0  0  0  0  0  0
   13.1062  -23.5473   -2.3339 O   0  0  0  0  0  0  0  0  0  0  0  0
   13.8957  -22.8440   -1.4352 C   0  0  0  0  0  0  0  0  0  0  0  0
   15.1728  -23.2283   -1.0831 C   0  0  0  0  0  0  0  0  0  0  0  0
   15.9024  -22.4842   -0.1846 C   0  0  0  0  0  0  0  0  0  0  0  0
   15.4162  -21.3246    0.4145 C   0  0  0  0  0  0  0  0  0  0  0  0
   16.2320  -20.5758    1.3710 C   0  0  0  0  0  0  0  0  0  0  0  0
   15.9098  -20.7946    2.8105 C   0  0  2  0  0  0  0  0  0  0  0  0
   16.7615  -19.9502    3.6659 N   0  0  0  0  0  0  0  0  0  0  0  0
   16.0518  -22.2190    3.1987 C   0  0  0  0  0  0  0  0  0  0  0  0
   17.0619  -22.6856    3.7760 O   0  0  0  0  0  0  0  0  0  0  0  0
   14.1301  -20.9508    0.0508 C   0  0  0  0  0  0  0  0  0  0  0  0
   13.4049  -21.6989   -0.8486 C   0  0  0  0  0  0  0  0  0  0  0  0
   15.0248  -23.1310    2.9249 O   0  0  0  0  0  0  0  0  0  0  0  0
  2  3  1  0
  2  1  1  6
  3  4  1  0
  4  9  2  0
  5  6  2  0
  5  4  1  0
  6  7  1  0
  7  8  2  0
  9  8  1  0
 10 12  1  0
 10  2  1  0
 11 10  2  0
 13 14  1  1
 13 12  1  0
 14 15  1  0
 16 13  1  0
 16 17  2  0
 18 19  1  0
 19 29  2  0
 20 19  1  0
 20 21  2  0
 21 22  1  0
 22 28  2  0
 22 23  1  0
 24 23  1  6
 24 26  1  0
 24 25  1  0
 25 16  1  0
 26 30  1  0
 27 26  2  0
 29 28  1  0
M  END
$$$$
