FCY.pdb
     RDKit          3D

 30 31  0  0  1  0  0  0  0  0999 V2000
   21.4279  -13.0607  -17.1096 N   0  0  0  0  0  0  0  0  0  0  0  0
   21.2568  -11.7382  -17.6749 C   0  0  1  0  0  0  0  0  0  0  0  0
   20.4087  -11.7883  -18.9274 C   0  0  0  0  0  0  0  0  0  0  0  0
   21.1473  -12.5758  -19.9414 C   0  0  0  0  0  0  0  0  0  0  0  0
   22.1028  -11.9539  -20.7051 C   0  0  0  0  0  0  0  0  0  0  0  0
   22.8175  -12.6617  -21.6682 C   0  0  0  0  0  0  0  0  0  0  0  0
   22.5578  -14.0073  -21.8536 C   0  0  0  0  0  0  0  0  0  0  0  0
   21.6112  -14.6417  -21.1030 C   0  0  0  0  0  0  0  0  0  0  0  0
   20.9221  -13.9146  -20.1595 C   0  0  0  0  0  0  0  0  0  0  0  0
   20.7289  -10.8231  -16.6629 C   0  0  0  0  0  0  0  0  0  0  0  0
   20.4218  -11.2605  -15.5277 O   0  0  0  0  0  0  0  0  0  0  0  0
   20.5314   -9.4257  -16.8790 N   0  0  0  0  0  0  0  0  0  0  0  0
   19.9436   -8.5506  -15.8833 C   0  0  1  0  0  0  0  0  0  0  0  0
   20.8075   -8.6300  -14.6433 C   0  0  0  0  0  0  0  0  0  0  0  0
   22.4366   -7.9338  -15.1083 S   0  0  0  0  0  0  0  0  0  0  0  0
   19.8079   -7.1741  -16.3885 C   0  0  0  0  0  0  0  0  0  0  0  0
   20.7661   -6.6885  -17.0443 O   0  0  0  0  0  0  0  0  0  0  0  0
   16.3152    0.6130  -19.0182 O   0  0  0  0  0  0  0  0  0  0  0  0
   16.5444   -0.6828  -18.5780 C   0  0  0  0  0  0  0  0  0  0  0  0
   17.1028   -1.6661  -19.3680 C   0  0  0  0  0  0  0  0  0  0  0  0
   17.3032   -2.9323  -18.8681 C   0  0  0  0  0  0  0  0  0  0  0  0
   16.9659   -3.2987  -17.5674 C   0  0  0  0  0  0  0  0  0  0  0  0
   17.1926   -4.6631  -17.0897 C   0  0  0  0  0  0  0  0  0  0  0  0
   18.5873   -4.9798  -16.6674 C   0  0  2  0  0  0  0  0  0  0  0  0
   18.6799   -6.3691  -16.1863 N   0  0  0  0  0  0  0  0  0  0  0  0
   19.0745   -4.0460  -15.6231 C   0  0  0  0  0  0  0  0  0  0  0  0
   19.3556   -2.8440  -15.8407 O   0  0  0  0  0  0  0  0  0  0  0  0
   16.4049   -2.2992  -16.7849 C   0  0  0  0  0  0  0  0  0  0  0  0
   16.2069   -1.0342  -17.2900 C   0  0  0  0  0  0  0  0  0  0  0  0
   19.2454   -4.4878  -14.3052 O   0  0  0  0  0  0  0  0  0  0  0  0
  2  3  1  0
  2  1  1  1
  3  4  1  0
  4  9  2  0
  5  6  2  0
  5  4  1  0
  6  7  1  0
  7  8  2  0
  9  8  1  0
 10 12  1  0
 10  2  1  0
 11 10  2  0
 13 14  1  1
 13 12  1  0
 14 15  1  0
 16 13  1  0
 16 17  2  0
 18 19  1  0
 19 29  2  0
 20 19  1  0
 20 21  2  0
 21 22  1  0
 22 28  2  0
 22 23  1  0
 24 23  1  1
 24 26  1  0
 24 25  1  0
 25 16  1  0
 26 30  1  0
 27 26  2  0
 29 28  1  0
M  END
$$$$
