FCY.pdb
     RDKit          3D

 30 31  0  0  1  0  0  0  0  0999 V2000
   21.4866   -9.5041  -15.8576 N   0  0  0  0  0  0  0  0  0  0  0  0
   20.1483   -9.3068  -15.3400 C   0  0  1  0  0  0  0  0  0  0  0  0
   19.5552  -10.6121  -14.8553 C   0  0  0  0  0  0  0  0  0  0  0  0
   19.3145  -11.4663  -16.0411 C   0  0  0  0  0  0  0  0  0  0  0  0
   19.9561  -12.6757  -16.1353 C   0  0  0  0  0  0  0  0  0  0  0  0
   19.7548  -13.5058  -17.2352 C   0  0  0  0  0  0  0  0  0  0  0  0
   18.8970  -13.1023  -18.2421 C   0  0  0  0  0  0  0  0  0  0  0  0
   18.2507  -11.9031  -18.1648 C   0  0  0  0  0  0  0  0  0  0  0  0
   18.4708  -11.1055  -17.0652 C   0  0  0  0  0  0  0  0  0  0  0  0
   20.1549   -8.2652  -14.3128 C   0  0  0  0  0  0  0  0  0  0  0  0
   21.2346   -7.7098  -13.9963 O   0  0  0  0  0  0  0  0  0  0  0  0
   18.9868   -7.8206  -13.6226 N   0  0  0  0  0  0  0  0  0  0  0  0
   19.0172   -6.7796  -12.6136 C   0  0  1  0  0  0  0  0  0  0  0  0
   19.5226   -5.5178  -13.2790 C   0  0  0  0  0  0  0  0  0  0  0  0
   18.3181   -5.1169  -14.5993 S   0  0  0  0  0  0  0  0  0  0  0  0
   17.6966   -6.5967  -11.9883 C   0  0  0  0  0  0  0  0  0  0  0  0
   16.6752   -6.8095  -12.6922 O   0  0  0  0  0  0  0  0  0  0  0  0
   10.5358   -8.1894   -7.5205 O   0  0  0  0  0  0  0  0  0  0  0  0
   11.7852   -8.0663   -8.1115 C   0  0  0  0  0  0  0  0  0  0  0  0
   12.9101   -8.7207   -7.6541 C   0  0  0  0  0  0  0  0  0  0  0  0
   14.1200   -8.5541   -8.2879 C   0  0  0  0  0  0  0  0  0  0  0  0
   14.2883   -7.7369   -9.4031 C   0  0  0  0  0  0  0  0  0  0  0  0
   15.6005   -7.5888  -10.0334 C   0  0  0  0  0  0  0  0  0  0  0  0
   16.1866   -6.2180   -9.9986 C   0  0  2  0  0  0  0  0  0  0  0  0
   17.5033   -6.2008  -10.6589 N   0  0  0  0  0  0  0  0  0  0  0  0
   16.3052   -5.7023   -8.6130 C   0  0  0  0  0  0  0  0  0  0  0  0
   15.4407   -4.9805   -8.0627 O   0  0  0  0  0  0  0  0  0  0  0  0
   13.1480   -7.0851   -9.8515 C   0  0  0  0  0  0  0  0  0  0  0  0
   11.9402   -7.2555   -9.2137 C   0  0  0  0  0  0  0  0  0  0  0  0
   17.4293   -6.0136   -7.8377 O   0  0  0  0  0  0  0  0  0  0  0  0
  2  3  1  0
  2  1  1  1
  3  4  1  0
  4  9  2  0
  5  6  2  0
  5  4  1  0
  6  7  1  0
  7  8  2  0
  9  8  1  0
 10 12  1  0
 10  2  1  0
 11 10  2  0
 13 14  1  6
 13 12  1  0
 14 15  1  0
 16 13  1  0
 16 17  2  0
 18 19  1  0
 19 29  2  0
 20 19  1  0
 20 21  2  0
 21 22  1  0
 22 28  2  0
 22 23  1  0
 24 23  1  1
 24 26  1  0
 24 25  1  0
 25 16  1  0
 26 30  1  0
 27 26  2  0
 29 28  1  0
M  END
$$$$
