WWM.pdb
     RDKit          3D

 37 40  0  0  1  0  0  0  0  0999 V2000
   25.8391  -20.1041  -16.4551 N   0  0  0  0  0  0  0  0  0  0  0  0
   24.8241  -19.6038  -15.5683 C   0  0  1  0  0  0  0  0  0  0  0  0
   23.4800  -19.4008  -16.2085 C   0  0  0  0  0  0  0  0  0  0  0  0
   23.5788  -18.3386  -17.2253 C   0  0  0  0  0  0  0  0  0  0  0  0
   23.4893  -18.4809  -18.5911 C   0  0  0  0  0  0  0  0  0  0  0  0
   23.5948  -17.2731  -19.1625 N   0  0  0  0  0  0  0  0  0  0  0  0
   23.7507  -16.3606  -18.1903 C   0  0  0  0  0  0  0  0  0  0  0  0
   23.9087  -14.9995  -18.2760 C   0  0  0  0  0  0  0  0  0  0  0  0
   24.0634  -14.2790  -17.1148 C   0  0  0  0  0  0  0  0  0  0  0  0
   24.0607  -14.9040  -15.8924 C   0  0  0  0  0  0  0  0  0  0  0  0
   23.9028  -16.2698  -15.7902 C   0  0  0  0  0  0  0  0  0  0  0  0
   23.7454  -16.9951  -16.9689 C   0  0  0  0  0  0  0  0  0  0  0  0
   24.6512  -20.5221  -14.3805 C   0  0  0  0  0  0  0  0  0  0  0  0
   24.7959  -21.7485  -14.5499 O   0  0  0  0  0  0  0  0  0  0  0  0
   24.3338  -20.0350  -13.0910 N   0  0  0  0  0  0  0  0  0  0  0  0
   24.0582  -20.9283  -11.9426 C   0  0  1  0  0  0  0  0  0  0  0  0
   24.8477  -20.4133  -10.8207 C   0  0  0  0  0  0  0  0  0  0  0  0
   26.1657  -20.9540  -10.5378 C   0  0  0  0  0  0  0  0  0  0  0  0
   27.0470  -21.6567  -11.3238 C   0  0  0  0  0  0  0  0  0  0  0  0
   28.1263  -21.9165  -10.5756 N   0  0  0  0  0  0  0  0  0  0  0  0
   27.9932  -21.4170   -9.3383 C   0  0  0  0  0  0  0  0  0  0  0  0
   28.7888  -21.3831   -8.1996 C   0  0  0  0  0  0  0  0  0  0  0  0
   28.3993  -20.7661   -7.0333 C   0  0  0  0  0  0  0  0  0  0  0  0
   27.1622  -20.1522   -6.9882 C   0  0  0  0  0  0  0  0  0  0  0  0
   26.3691  -20.1832   -8.1142 C   0  0  0  0  0  0  0  0  0  0  0  0
   26.7712  -20.8112   -9.2955 C   0  0  0  0  0  0  0  0  0  0  0  0
   22.6451  -21.1939  -11.7858 C   0  0  0  0  0  0  0  0  0  0  0  0
   21.8477  -20.2339  -12.0828 O   0  0  0  0  0  0  0  0  0  0  0  0
   16.3907  -25.8993  -10.6214 C   0  0  0  0  0  0  0  0  0  0  0  0
   18.1695  -25.6717  -10.4376 S   0  0  0  0  0  0  0  0  0  0  0  0
   18.6655  -23.9492  -10.8795 C   0  0  0  0  0  0  0  0  0  0  0  0
   20.1601  -23.8756  -11.0117 C   0  0  0  0  0  0  0  0  0  0  0  0
   20.5635  -22.4282  -11.2596 C   0  0  2  0  0  0  0  0  0  0  0  0
   22.0444  -22.3795  -11.3547 N   0  0  0  0  0  0  0  0  0  0  0  0
   20.1830  -21.5974  -10.1148 C   0  0  0  0  0  0  0  0  0  0  0  0
   18.8840  -21.0614   -9.9931 O   0  0  0  0  0  0  0  0  0  0  0  0
   20.9547  -21.2980   -9.1748 O   0  0  0  0  0  0  0  0  0  0  0  0
  2  1  1  6
  3  2  1  0
  4  5  2  0
  4  3  1  0
  6  5  1  0
  7 12  2  0
  7  6  1  0
  8  7  1  0
  9 10  1  0
  9  8  2  0
 10 11  2  0
 11 12  1  0
 12  4  1  0
 13  2  1  0
 14 13  2  0
 15 13  1  0
 16 17  1  1
 16 15  1  0
 18 17  1  0
 19 18  2  0
 20 21  1  0
 20 19  1  0
 21 26  2  0
 22 23  2  0
 22 21  1  0
 23 24  1  0
 24 25  2  0
 26 25  1  0
 26 18  1  0
 27 16  1  0
 28 27  2  0
 30 31  1  0
 30 29  1  0
 33 32  1  1
 32 31  1  0
 33 34  1  0
 34 27  1  0
 35 36  1  0
 35 33  1  0
 37 35  2  0
M  END
$$$$
