WWM.pdb
     RDKit          3D

 37 40  0  0  1  0  0  0  0  0999 V2000
   26.2458  -21.1224  -13.1351 N   0  0  0  0  0  0  0  0  0  0  0  0
   25.0300  -20.7305  -12.4753 C   0  0  1  0  0  0  0  0  0  0  0  0
   23.7731  -21.2041  -13.1489 C   0  0  0  0  0  0  0  0  0  0  0  0
   23.6600  -20.5687  -14.4738 C   0  0  0  0  0  0  0  0  0  0  0  0
   24.1609  -21.0351  -15.6676 C   0  0  0  0  0  0  0  0  0  0  0  0
   23.8150  -20.1868  -16.6459 N   0  0  0  0  0  0  0  0  0  0  0  0
   23.1034  -19.1866  -16.1026 C   0  0  0  0  0  0  0  0  0  0  0  0
   22.5414  -18.0823  -16.6938 C   0  0  0  0  0  0  0  0  0  0  0  0
   21.8612  -17.1854  -15.9037 C   0  0  0  0  0  0  0  0  0  0  0  0
   21.7442  -17.3860  -14.5506 C   0  0  0  0  0  0  0  0  0  0  0  0
   22.3028  -18.4902  -13.9426 C   0  0  0  0  0  0  0  0  0  0  0  0
   22.9898  -19.3963  -14.7470 C   0  0  0  0  0  0  0  0  0  0  0  0
   25.0160  -21.2188  -11.0451 C   0  0  0  0  0  0  0  0  0  0  0  0
   25.3155  -22.4074  -10.8186 O   0  0  0  0  0  0  0  0  0  0  0  0
   24.6768  -20.3730   -9.9632 N   0  0  0  0  0  0  0  0  0  0  0  0
   24.6745  -20.8342   -8.5560 C   0  0  1  0  0  0  0  0  0  0  0  0
   25.5556  -19.9224   -7.8217 C   0  0  0  0  0  0  0  0  0  0  0  0
   26.9725  -20.2138   -7.6899 C   0  0  0  0  0  0  0  0  0  0  0  0
   27.8841  -20.7143   -8.5882 C   0  0  0  0  0  0  0  0  0  0  0  0
   29.0628  -20.7888   -7.9578 N   0  0  0  0  0  0  0  0  0  0  0  0
   28.9656  -20.3606   -6.6908 C   0  0  0  0  0  0  0  0  0  0  0  0
   29.8524  -20.2117   -5.6313 C   0  0  0  0  0  0  0  0  0  0  0  0
   29.4758  -19.7143   -4.4052 C   0  0  0  0  0  0  0  0  0  0  0  0
   28.1577  -19.3457   -4.2147 C   0  0  0  0  0  0  0  0  0  0  0  0
   27.2742  -19.4915   -5.2616 C   0  0  0  0  0  0  0  0  0  0  0  0
   27.6637  -19.9970   -6.5045 C   0  0  0  0  0  0  0  0  0  0  0  0
   23.3386  -21.1107   -8.0756 C   0  0  0  0  0  0  0  0  0  0  0  0
   22.4784  -20.1682   -8.2070 O   0  0  0  0  0  0  0  0  0  0  0  0
   20.0467  -26.6403   -7.7528 C   0  0  0  0  0  0  0  0  0  0  0  0
   19.0895  -25.6873   -6.5590 S   0  0  0  0  0  0  0  0  0  0  0  0
   19.6265  -23.9210   -6.5390 C   0  0  0  0  0  0  0  0  0  0  0  0
   21.0247  -23.8154   -7.0782 C   0  0  0  0  0  0  0  0  0  0  0  0
   21.4512  -22.3536   -7.0624 C   0  0  2  0  0  0  0  0  0  0  0  0
   22.8716  -22.2903   -7.4902 N   0  0  0  0  0  0  0  0  0  0  0  0
   21.3943  -21.8283   -5.6962 C   0  0  0  0  0  0  0  0  0  0  0  0
   20.1725  -21.4457   -5.1043 O   0  0  0  0  0  0  0  0  0  0  0  0
   22.3950  -21.6757   -4.9584 O   0  0  0  0  0  0  0  0  0  0  0  0
  2  1  1  6
  3  2  1  0
  4  5  2  0
  4  3  1  0
  6  5  1  0
  7 12  2  0
  7  6  1  0
  8  7  1  0
  9 10  1  0
  9  8  2  0
 10 11  2  0
 11 12  1  0
 12  4  1  0
 13  2  1  0
 14 13  2  0
 15 13  1  0
 16 17  1  1
 16 15  1  0
 18 17  1  0
 19 18  2  0
 20 21  1  0
 20 19  1  0
 21 26  2  0
 22 23  2  0
 22 21  1  0
 23 24  1  0
 24 25  2  0
 26 25  1  0
 26 18  1  0
 27 16  1  0
 28 27  2  0
 30 31  1  0
 30 29  1  0
 33 32  1  1
 32 31  1  0
 33 34  1  0
 34 27  1  0
 35 36  1  0
 35 33  1  0
 37 35  2  0
M  END
$$$$
