WWM.pdb
     RDKit          3D

 37 40  0  0  1  0  0  0  0  0999 V2000
   26.8822  -21.3450  -14.1809 N   0  0  0  0  0  0  0  0  0  0  0  0
   26.3400  -20.3325  -13.3160 C   0  0  1  0  0  0  0  0  0  0  0  0
   25.1825  -19.5700  -13.8960 C   0  0  0  0  0  0  0  0  0  0  0  0
   25.6147  -18.8901  -15.1299 C   0  0  0  0  0  0  0  0  0  0  0  0
   25.2275  -19.1762  -16.4190 C   0  0  0  0  0  0  0  0  0  0  0  0
   25.8161  -18.3081  -17.2533 N   0  0  0  0  0  0  0  0  0  0  0  0
   26.5728  -17.4723  -16.5246 C   0  0  0  0  0  0  0  0  0  0  0  0
   27.3676  -16.4270  -16.9251 C   0  0  0  0  0  0  0  0  0  0  0  0
   28.0612  -15.7220  -15.9695 C   0  0  0  0  0  0  0  0  0  0  0  0
   27.9640  -16.0534  -14.6407 C   0  0  0  0  0  0  0  0  0  0  0  0
   27.1698  -17.1001  -14.2232 C   0  0  0  0  0  0  0  0  0  0  0  0
   26.4684  -17.8105  -15.1945 C   0  0  0  0  0  0  0  0  0  0  0  0
   25.9030  -20.9316  -11.9991 C   0  0  0  0  0  0  0  0  0  0  0  0
   25.5083  -22.1139  -11.9845 O   0  0  0  0  0  0  0  0  0  0  0  0
   25.9294  -20.1965  -10.7910 N   0  0  0  0  0  0  0  0  0  0  0  0
   25.5451  -20.7841   -9.4872 C   0  0  1  0  0  0  0  0  0  0  0  0
   26.3088  -20.0603   -8.4674 C   0  0  0  0  0  0  0  0  0  0  0  0
   26.2085  -20.4352   -7.0677 C   0  0  0  0  0  0  0  0  0  0  0  0
   25.2974  -21.2179   -6.4001 C   0  0  0  0  0  0  0  0  0  0  0  0
   25.6641  -21.2439   -5.1129 N   0  0  0  0  0  0  0  0  0  0  0  0
   26.7714  -20.5163   -4.9068 C   0  0  0  0  0  0  0  0  0  0  0  0
   27.5661  -20.2234   -3.8051 C   0  0  0  0  0  0  0  0  0  0  0  0
   28.6934  -19.4389   -3.8836 C   0  0  0  0  0  0  0  0  0  0  0  0
   29.0546  -18.9166   -5.1109 C   0  0  0  0  0  0  0  0  0  0  0  0
   28.2702  -19.2034   -6.2064 C   0  0  0  0  0  0  0  0  0  0  0  0
   27.1267  -20.0014   -6.1196 C   0  0  0  0  0  0  0  0  0  0  0  0
   24.1126  -20.9384   -9.3603 C   0  0  0  0  0  0  0  0  0  0  0  0
   23.3889  -20.1615  -10.0801 O   0  0  0  0  0  0  0  0  0  0  0  0
   19.0601  -24.3359   -5.4181 C   0  0  0  0  0  0  0  0  0  0  0  0
   19.4602  -24.8312   -7.1047 S   0  0  0  0  0  0  0  0  0  0  0  0
   20.0268  -23.3849   -8.1024 C   0  0  0  0  0  0  0  0  0  0  0  0
   21.4999  -23.1772   -7.8935 C   0  0  0  0  0  0  0  0  0  0  0  0
   21.9655  -22.0230   -8.7711 C   0  0  2  0  0  0  0  0  0  0  0  0
   23.4224  -21.8425   -8.5488 N   0  0  0  0  0  0  0  0  0  0  0  0
   21.3139  -20.7794   -8.3531 C   0  0  0  0  0  0  0  0  0  0  0  0
   20.0110  -20.4504   -8.7815 O   0  0  0  0  0  0  0  0  0  0  0  0
   21.8417  -19.9255   -7.6041 O   0  0  0  0  0  0  0  0  0  0  0  0
  2  1  1  6
  3  2  1  0
  4  5  2  0
  4  3  1  0
  6  5  1  0
  7 12  2  0
  7  6  1  0
  8  7  1  0
  9 10  1  0
  9  8  2  0
 10 11  2  0
 11 12  1  0
 12  4  1  0
 13  2  1  0
 14 13  2  0
 15 13  1  0
 16 17  1  1
 16 15  1  0
 18 17  1  0
 19 18  2  0
 20 21  1  0
 20 19  1  0
 21 26  2  0
 22 23  2  0
 22 21  1  0
 23 24  1  0
 24 25  2  0
 26 25  1  0
 26 18  1  0
 27 16  1  0
 28 27  2  0
 30 31  1  0
 30 29  1  0
 33 32  1  1
 32 31  1  0
 33 34  1  0
 34 27  1  0
 35 36  1  0
 35 33  1  0
 37 35  2  0
M  END
$$$$
