WWM.pdb
     RDKit          3D

 37 40  0  0  1  0  0  0  0  0999 V2000
   26.7258  -21.5130  -14.6804 N   0  0  0  0  0  0  0  0  0  0  0  0
   25.7028  -20.6800  -14.1088 C   0  0  1  0  0  0  0  0  0  0  0  0
   24.4498  -20.5761  -14.9316 C   0  0  0  0  0  0  0  0  0  0  0  0
   24.7554  -19.8962  -16.2029 C   0  0  0  0  0  0  0  0  0  0  0  0
   25.5141  -20.3782  -17.2448 C   0  0  0  0  0  0  0  0  0  0  0  0
   25.5227  -19.4723  -18.2326 N   0  0  0  0  0  0  0  0  0  0  0  0
   24.7855  -18.4199  -17.8439 C   0  0  0  0  0  0  0  0  0  0  0  0
   24.5061  -17.2481  -18.5024 C   0  0  0  0  0  0  0  0  0  0  0  0
   23.7232  -16.3085  -17.8734 C   0  0  0  0  0  0  0  0  0  0  0  0
   23.2290  -16.5334  -16.6124 C   0  0  0  0  0  0  0  0  0  0  0  0
   23.5006  -17.7053  -15.9387 C   0  0  0  0  0  0  0  0  0  0  0  0
   24.2930  -18.6543  -16.5802 C   0  0  0  0  0  0  0  0  0  0  0  0
   25.3263  -21.1662  -12.7283 C   0  0  0  0  0  0  0  0  0  0  0  0
   25.0138  -22.3642  -12.5835 O   0  0  0  0  0  0  0  0  0  0  0  0
   25.3191  -20.3088  -11.6032 N   0  0  0  0  0  0  0  0  0  0  0  0
   24.6838  -20.6792  -10.3179 C   0  0  1  0  0  0  0  0  0  0  0  0
   25.4883  -20.0538   -9.2649 C   0  0  0  0  0  0  0  0  0  0  0  0
   26.8856  -20.4121   -9.0944 C   0  0  0  0  0  0  0  0  0  0  0  0
   27.7515  -21.1035   -9.9070 C   0  0  0  0  0  0  0  0  0  0  0  0
   28.9316  -21.1553   -9.2769 N   0  0  0  0  0  0  0  0  0  0  0  0
   28.8787  -20.5306   -8.0915 C   0  0  0  0  0  0  0  0  0  0  0  0
   29.7873  -20.2769   -7.0711 C   0  0  0  0  0  0  0  0  0  0  0  0
   29.4595  -19.5723   -5.9360 C   0  0  0  0  0  0  0  0  0  0  0  0
   28.1701  -19.0943   -5.8006 C   0  0  0  0  0  0  0  0  0  0  0  0
   27.2651  -19.3433   -6.8090 C   0  0  0  0  0  0  0  0  0  0  0  0
   27.6050  -20.0593   -7.9594 C   0  0  0  0  0  0  0  0  0  0  0  0
   23.2487  -20.5024  -10.3487 C   0  0  0  0  0  0  0  0  0  0  0  0
   22.7377  -20.1784  -11.4799 O   0  0  0  0  0  0  0  0  0  0  0  0
   17.7957  -22.4014  -12.4289 C   0  0  0  0  0  0  0  0  0  0  0  0
   18.0423  -21.1920  -11.1150 S   0  0  0  0  0  0  0  0  0  0  0  0
   19.4926  -20.1084  -11.4763 C   0  0  0  0  0  0  0  0  0  0  0  0
   20.7604  -20.8310  -11.1192 C   0  0  0  0  0  0  0  0  0  0  0  0
   20.9115  -20.8440   -9.6039 C   0  0  2  0  0  0  0  0  0  0  0  0
   22.3497  -20.6508   -9.2894 N   0  0  0  0  0  0  0  0  0  0  0  0
   20.5320  -22.1551   -9.0723 C   0  0  0  0  0  0  0  0  0  0  0  0
   19.3462  -22.3337   -8.3296 O   0  0  0  0  0  0  0  0  0  0  0  0
   21.2076  -23.1988   -9.2242 O   0  0  0  0  0  0  0  0  0  0  0  0
  2  1  1  6
  3  2  1  0
  4  5  2  0
  4  3  1  0
  6  5  1  0
  7 12  2  0
  7  6  1  0
  8  7  1  0
  9 10  1  0
  9  8  2  0
 10 11  2  0
 11 12  1  0
 12  4  1  0
 13  2  1  0
 14 13  2  0
 15 13  1  0
 16 17  1  1
 16 15  1  0
 18 17  1  0
 19 18  2  0
 20 21  1  0
 20 19  1  0
 21 26  2  0
 22 23  2  0
 22 21  1  0
 23 24  1  0
 24 25  2  0
 26 25  1  0
 26 18  1  0
 27 16  1  0
 28 27  2  0
 30 31  1  0
 30 29  1  0
 33 32  1  6
 32 31  1  0
 33 34  1  0
 34 27  1  0
 35 36  1  0
 35 33  1  0
 37 35  2  0
M  END
$$$$
