WWM.pdb
     RDKit          3D

 37 40  0  0  1  0  0  0  0  0999 V2000
   24.8721  -19.4820  -17.7165 N   0  0  0  0  0  0  0  0  0  0  0  0
   24.2990  -18.9954  -16.4910 C   0  0  1  0  0  0  0  0  0  0  0  0
   22.8053  -18.8349  -16.5204 C   0  0  0  0  0  0  0  0  0  0  0  0
   22.4457  -17.7883  -17.4936 C   0  0  0  0  0  0  0  0  0  0  0  0
   21.8611  -17.9622  -18.7271 C   0  0  0  0  0  0  0  0  0  0  0  0
   21.6647  -16.7613  -19.2891 N   0  0  0  0  0  0  0  0  0  0  0  0
   22.1125  -15.8223  -18.4407 C   0  0  0  0  0  0  0  0  0  0  0  0
   22.1364  -14.4558  -18.5711 C   0  0  0  0  0  0  0  0  0  0  0  0
   22.6664  -13.7047  -17.5482 C   0  0  0  0  0  0  0  0  0  0  0  0
   23.1630  -14.3050  -16.4177 C   0  0  0  0  0  0  0  0  0  0  0  0
   23.1456  -15.6758  -16.2721 C   0  0  0  0  0  0  0  0  0  0  0  0
   22.6069  -16.4323  -17.3102 C   0  0  0  0  0  0  0  0  0  0  0  0
   24.6573  -19.9017  -15.3359 C   0  0  0  0  0  0  0  0  0  0  0  0
   24.9083  -21.0992  -15.5741 O   0  0  0  0  0  0  0  0  0  0  0  0
   24.7172  -19.4348  -14.0020 N   0  0  0  0  0  0  0  0  0  0  0  0
   25.0818  -20.3083  -12.8631 C   0  0  1  0  0  0  0  0  0  0  0  0
   26.0999  -19.5842  -12.0975 C   0  0  0  0  0  0  0  0  0  0  0  0
   27.0471  -20.3053  -11.2651 C   0  0  0  0  0  0  0  0  0  0  0  0
   28.0531  -21.1845  -11.5867 C   0  0  0  0  0  0  0  0  0  0  0  0
   28.6316  -21.5624  -10.4401 N   0  0  0  0  0  0  0  0  0  0  0  0
   28.0523  -20.9723   -9.3844 C   0  0  0  0  0  0  0  0  0  0  0  0
   28.2577  -20.9920   -8.0102 C   0  0  0  0  0  0  0  0  0  0  0  0
   27.5034  -20.2505   -7.1306 C   0  0  0  0  0  0  0  0  0  0  0  0
   26.4953  -19.4495   -7.6322 C   0  0  0  0  0  0  0  0  0  0  0  0
   26.2871  -19.4264   -8.9938 C   0  0  0  0  0  0  0  0  0  0  0  0
   27.0573  -20.1817   -9.8814 C   0  0  0  0  0  0  0  0  0  0  0  0
   23.9177  -20.8565  -12.2026 C   0  0  0  0  0  0  0  0  0  0  0  0
   24.1398  -21.6316  -11.2049 O   0  0  0  0  0  0  0  0  0  0  0  0
   18.3856  -25.7135  -11.2386 C   0  0  0  0  0  0  0  0  0  0  0  0
   19.7093  -24.9178  -12.1684 S   0  0  0  0  0  0  0  0  0  0  0  0
   20.1466  -23.2831  -11.4303 C   0  0  0  0  0  0  0  0  0  0  0  0
   21.2513  -22.6513  -12.2285 C   0  0  0  0  0  0  0  0  0  0  0  0
   21.5337  -21.2634  -11.6691 C   0  0  2  0  0  0  0  0  0  0  0  0
   22.5752  -20.6341  -12.5199 N   0  0  0  0  0  0  0  0  0  0  0  0
   22.0935  -21.3698  -10.3197 C   0  0  0  0  0  0  0  0  0  0  0  0
   21.3114  -21.1094   -9.1751 O   0  0  0  0  0  0  0  0  0  0  0  0
   23.2791  -21.6892  -10.0726 O   0  0  0  0  0  0  0  0  0  0  0  0
  2  1  1  6
  3  2  1  0
  4  5  2  0
  4  3  1  0
  6  5  1  0
  7 12  2  0
  7  6  1  0
  8  7  1  0
  9 10  1  0
  9  8  2  0
 10 11  2  0
 11 12  1  0
 12  4  1  0
 13  2  1  0
 14 13  2  0
 15 13  1  0
 16 17  1  1
 16 15  1  0
 18 17  1  0
 19 18  2  0
 20 21  1  0
 20 19  1  0
 21 26  2  0
 22 23  2  0
 22 21  1  0
 23 24  1  0
 24 25  2  0
 26 25  1  0
 26 18  1  0
 27 16  1  0
 28 27  2  0
 30 31  1  0
 30 29  1  0
 33 32  1  6
 32 31  1  0
 33 34  1  0
 34 27  1  0
 35 36  1  0
 35 33  1  0
 37 35  2  0
M  END
$$$$
