WWM.pdb
     RDKit          3D

 37 40  0  0  1  0  0  0  0  0999 V2000
   28.2957  -21.5539  -15.8205 N   0  0  0  0  0  0  0  0  0  0  0  0
   27.7300  -20.6203  -14.8849 C   0  0  1  0  0  0  0  0  0  0  0  0
   26.6260  -19.7676  -15.4433 C   0  0  0  0  0  0  0  0  0  0  0  0
   27.1924  -18.8006  -16.4004 C   0  0  0  0  0  0  0  0  0  0  0  0
   27.4890  -19.0163  -17.7267 C   0  0  0  0  0  0  0  0  0  0  0  0
   27.9536  -17.8777  -18.2597 N   0  0  0  0  0  0  0  0  0  0  0  0
   27.9610  -16.9377  -17.3014 C   0  0  0  0  0  0  0  0  0  0  0  0
   28.3563  -15.6241  -17.3583 C   0  0  0  0  0  0  0  0  0  0  0  0
   28.2755  -14.8610  -16.2171 C   0  0  0  0  0  0  0  0  0  0  0  0
   27.8099  -15.3977  -15.0423 C   0  0  0  0  0  0  0  0  0  0  0  0
   27.4091  -16.7148  -14.9696 C   0  0  0  0  0  0  0  0  0  0  0  0
   27.4917  -17.4835  -16.1283 C   0  0  0  0  0  0  0  0  0  0  0  0
   27.2046  -21.3387  -13.6635 C   0  0  0  0  0  0  0  0  0  0  0  0
   26.5024  -22.3556  -13.8268 O   0  0  0  0  0  0  0  0  0  0  0  0
   27.4849  -20.8957  -12.3497 N   0  0  0  0  0  0  0  0  0  0  0  0
   26.5945  -21.1806  -11.2012 C   0  0  1  0  0  0  0  0  0  0  0  0
   27.4367  -21.1273  -10.0033 C   0  0  0  0  0  0  0  0  0  0  0  0
   26.8563  -20.8204   -8.7077 C   0  0  0  0  0  0  0  0  0  0  0  0
   25.5506  -20.6488   -8.3151 C   0  0  0  0  0  0  0  0  0  0  0  0
   25.5622  -20.3817   -7.0034 N   0  0  0  0  0  0  0  0  0  0  0  0
   26.8127  -20.3709   -6.5194 C   0  0  0  0  0  0  0  0  0  0  0  0
   27.3820  -20.1721   -5.2675 C   0  0  0  0  0  0  0  0  0  0  0  0
   28.7378  -20.2379   -5.0435 C   0  0  0  0  0  0  0  0  0  0  0  0
   29.5740  -20.5131   -6.1086 C   0  0  0  0  0  0  0  0  0  0  0  0
   29.0149  -20.7107   -7.3521 C   0  0  0  0  0  0  0  0  0  0  0  0
   27.6370  -20.6429   -7.5723 C   0  0  0  0  0  0  0  0  0  0  0  0
   25.3623  -20.4261  -11.2670 C   0  0  0  0  0  0  0  0  0  0  0  0
   25.3911  -19.3452  -11.9571 O   0  0  0  0  0  0  0  0  0  0  0  0
   23.4107  -21.2142  -15.7226 C   0  0  0  0  0  0  0  0  0  0  0  0
   21.7309  -20.7716  -15.2407 S   0  0  0  0  0  0  0  0  0  0  0  0
   21.6486  -20.3408  -13.4474 C   0  0  0  0  0  0  0  0  0  0  0  0
   22.9761  -20.6209  -12.8024 C   0  0  0  0  0  0  0  0  0  0  0  0
   22.8914  -20.2676  -11.3236 C   0  0  2  0  0  0  0  0  0  0  0  0
   24.1383  -20.7414  -10.6713 N   0  0  0  0  0  0  0  0  0  0  0  0
   21.7821  -20.9905  -10.6970 C   0  0  0  0  0  0  0  0  0  0  0  0
   20.5279  -20.3792  -10.4902 O   0  0  0  0  0  0  0  0  0  0  0  0
   21.8495  -22.1767  -10.3005 O   0  0  0  0  0  0  0  0  0  0  0  0
  2  1  1  6
  3  2  1  0
  4  5  2  0
  4  3  1  0
  6  5  1  0
  7 12  2  0
  7  6  1  0
  8  7  1  0
  9 10  1  0
  9  8  2  0
 10 11  2  0
 11 12  1  0
 12  4  1  0
 13  2  1  0
 14 13  2  0
 15 13  1  0
 16 17  1  1
 16 15  1  0
 18 17  1  0
 19 18  2  0
 20 21  1  0
 20 19  1  0
 21 26  2  0
 22 23  2  0
 22 21  1  0
 23 24  1  0
 24 25  2  0
 26 25  1  0
 26 18  1  0
 27 16  1  0
 28 27  2  0
 30 31  1  0
 30 29  1  0
 33 32  1  6
 32 31  1  0
 33 34  1  0
 34 27  1  0
 35 36  1  0
 35 33  1  0
 37 35  2  0
M  END
$$$$
