YKE.pdb
     RDKit          3D

 31 31  0  0  1  0  0  0  0  0999 V2000
   19.4453  -19.1783  -14.6430 O   0  0  0  0  0  0  0  0  0  0  0  0
   19.7863  -18.1552  -15.5240 C   0  0  0  0  0  0  0  0  0  0  0  0
   21.0568  -17.6233  -15.4532 C   0  0  0  0  0  0  0  0  0  0  0  0
   21.4354  -16.6010  -16.3151 C   0  0  0  0  0  0  0  0  0  0  0  0
   20.5662  -16.0920  -17.2557 C   0  0  0  0  0  0  0  0  0  0  0  0
   20.9969  -15.0018  -18.1615 C   0  0  0  0  0  0  0  0  0  0  0  0
   20.9319  -13.7140  -17.3740 C   0  0  2  0  0  0  0  0  0  0  0  0
   19.5441  -13.4850  -17.0428 N   0  0  0  0  0  0  0  0  0  0  0  0
   21.4547  -12.5624  -18.1164 C   0  0  0  0  0  0  0  0  0  0  0  0
   22.5835  -12.5072  -18.6612 O   0  0  0  0  0  0  0  0  0  0  0  0
   19.2987  -16.6253  -17.3236 C   0  0  0  0  0  0  0  0  0  0  0  0
   18.9197  -17.6550  -16.4542 C   0  0  0  0  0  0  0  0  0  0  0  0
   20.6236  -11.3985  -18.2395 N   0  0  0  0  0  0  0  0  0  0  0  0
   21.0438  -10.2876  -19.0239 C   0  0  1  0  0  0  0  0  0  0  0  0
   20.6124  -10.2444  -20.4418 C   0  0  0  0  0  0  0  0  0  0  0  0
   19.6462  -11.2470  -20.9247 C   0  0  0  0  0  0  0  0  0  0  0  0
   19.3788  -11.1146  -22.3879 C   0  0  0  0  0  0  0  0  0  0  0  0
   18.3395  -12.1707  -22.7788 C   0  0  0  0  0  0  0  0  0  0  0  0
   18.1369  -12.0274  -24.2115 N   0  0  0  0  0  0  0  0  0  0  0  0
   20.6437   -8.9846  -18.3533 C   0  0  0  0  0  0  0  0  0  0  0  0
   19.4873   -8.8352  -17.8911 O   0  0  0  0  0  0  0  0  0  0  0  0
   21.5449   -7.8965  -18.2219 N   0  0  0  0  0  0  0  0  0  0  0  0
   21.2208   -6.6218  -17.6612 C   0  0  1  0  0  0  0  0  0  0  0  0
   20.8105   -6.6969  -16.2108 C   0  0  0  0  0  0  0  0  0  0  0  0
   21.7297   -7.5267  -15.3795 C   0  0  0  0  0  0  0  0  0  0  0  0
   21.2724   -7.5107  -13.9822 C   0  0  0  0  0  0  0  0  0  0  0  0
   20.3134   -6.7989  -13.6415 O   0  0  0  0  0  0  0  0  0  0  0  0
   22.3235   -5.6349  -17.8020 C   0  0  0  0  0  0  0  0  0  0  0  0
   23.3972   -6.0453  -18.3278 O   0  0  0  0  0  0  0  0  0  0  0  0
   21.9101   -8.2889  -13.0452 O   0  0  0  0  0  0  0  0  0  0  0  0
   22.2391   -4.3322  -17.4005 O   0  0  0  0  0  0  0  0  0  0  0  0
  2  1  1  0
  3  2  2  0
  4  3  1  0
  5  4  2  0
  5 11  1  0
  6  5  1  0
  7  6  1  0
  7  8  1  6
  9  7  1  0
  9 10  2  0
 11 12  2  0
 12  2  1  0
 13  9  1  0
 14 13  1  0
 14 15  1  6
 16 15  1  0
 17 16  1  0
 18 17  1  0
 19 18  1  0
 20 14  1  0
 20 21  2  0
 22 20  1  0
 23 22  1  0
 23 28  1  0
 23 24  1  1
 25 26  1  0
 25 24  1  0
 26 27  2  0
 28 29  2  0
 28 31  1  0
 30 26  1  0
M  END
$$$$
