YKE.pdb
     RDKit          3D

 31 31  0  0  1  0  0  0  0  0999 V2000
   19.8195  -16.9579  -24.3601 O   0  0  0  0  0  0  0  0  0  0  0  0
   20.3132  -16.0344  -23.4421 C   0  0  0  0  0  0  0  0  0  0  0  0
   19.6402  -15.8690  -22.2498 C   0  0  0  0  0  0  0  0  0  0  0  0
   20.1012  -14.9571  -21.3078 C   0  0  0  0  0  0  0  0  0  0  0  0
   21.2301  -14.1988  -21.5307 C   0  0  0  0  0  0  0  0  0  0  0  0
   21.6985  -13.2341  -20.5087 C   0  0  0  0  0  0  0  0  0  0  0  0
   23.0522  -13.7079  -20.0335 C   0  0  2  0  0  0  0  0  0  0  0  0
   22.8354  -14.8985  -19.2438 N   0  0  0  0  0  0  0  0  0  0  0  0
   23.7578  -12.7069  -19.2267 C   0  0  0  0  0  0  0  0  0  0  0  0
   23.5981  -12.5301  -17.9949 O   0  0  0  0  0  0  0  0  0  0  0  0
   21.8995  -14.3664  -22.7221 C   0  0  0  0  0  0  0  0  0  0  0  0
   21.4330  -15.2856  -23.6694 C   0  0  0  0  0  0  0  0  0  0  0  0
   24.7092  -11.8541  -19.8809 N   0  0  0  0  0  0  0  0  0  0  0  0
   25.4425  -10.8845  -19.1405 C   0  0  1  0  0  0  0  0  0  0  0  0
   26.8864  -10.7360  -19.4429 C   0  0  0  0  0  0  0  0  0  0  0  0
   27.6896   -9.7932  -18.6443 C   0  0  0  0  0  0  0  0  0  0  0  0
   29.1238   -9.7801  -19.0601 C   0  0  0  0  0  0  0  0  0  0  0  0
   29.8788   -8.8211  -18.1334 C   0  0  0  0  0  0  0  0  0  0  0  0
   31.2902   -8.9916  -18.4387 N   0  0  0  0  0  0  0  0  0  0  0  0
   24.7794   -9.5221  -19.2505 C   0  0  0  0  0  0  0  0  0  0  0  0
   24.6438   -8.9682  -20.3677 O   0  0  0  0  0  0  0  0  0  0  0  0
   24.2918   -8.8270  -18.1136 N   0  0  0  0  0  0  0  0  0  0  0  0
   23.6769   -7.5364  -18.1386 C   0  0  1  0  0  0  0  0  0  0  0  0
   22.4456   -7.4472  -17.2706 C   0  0  0  0  0  0  0  0  0  0  0  0
   22.7469   -7.5034  -15.8110 C   0  0  0  0  0  0  0  0  0  0  0  0
   21.4986   -7.3534  -15.0487 C   0  0  0  0  0  0  0  0  0  0  0  0
   20.4196   -7.1726  -15.6365 O   0  0  0  0  0  0  0  0  0  0  0  0
   24.6144   -6.4458  -17.7625 C   0  0  0  0  0  0  0  0  0  0  0  0
   24.2181   -5.2596  -17.9463 O   0  0  0  0  0  0  0  0  0  0  0  0
   21.5247   -7.4135  -13.6755 O   0  0  0  0  0  0  0  0  0  0  0  0
   25.8584   -6.6541  -17.2386 O   0  0  0  0  0  0  0  0  0  0  0  0
  2  1  1  0
  3  2  2  0
  4  3  1  0
  5  4  2  0
  5 11  1  0
  6  5  1  0
  7  6  1  0
  7  8  1  1
  9  7  1  0
  9 10  2  0
 11 12  2  0
 12  2  1  0
 13  9  1  0
 14 13  1  0
 14 15  1  6
 16 15  1  0
 17 16  1  0
 18 17  1  0
 19 18  1  0
 20 14  1  0
 20 21  2  0
 22 20  1  0
 23 22  1  0
 23 28  1  0
 23 24  1  1
 25 26  1  0
 25 24  1  0
 26 27  2  0
 28 29  2  0
 28 31  1  0
 30 26  1  0
M  END
$$$$
