YKE.pdb
     RDKit          3D

 31 31  0  0  1  0  0  0  0  0999 V2000
   35.6037   -8.8706   -6.2046 O   0  0  0  0  0  0  0  0  0  0  0  0
   36.9657   -9.0308   -6.4470 C   0  0  0  0  0  0  0  0  0  0  0  0
   37.7027   -7.9241   -6.8131 C   0  0  0  0  0  0  0  0  0  0  0  0
   39.0644   -8.0429   -7.0635 C   0  0  0  0  0  0  0  0  0  0  0  0
   39.7143   -9.2534   -6.9560 C   0  0  0  0  0  0  0  0  0  0  0  0
   41.1670   -9.3507   -7.2292 C   0  0  0  0  0  0  0  0  0  0  0  0
   41.8195   -9.9099   -5.9865 C   0  0  2  0  0  0  0  0  0  0  0  0
   41.6701   -8.9212   -4.9434 N   0  0  0  0  0  0  0  0  0  0  0  0
   43.2422  -10.2127   -6.1742 C   0  0  0  0  0  0  0  0  0  0  0  0
   44.1764   -9.3815   -6.0714 O   0  0  0  0  0  0  0  0  0  0  0  0
   38.9757  -10.3562   -6.5903 C   0  0  0  0  0  0  0  0  0  0  0  0
   37.6040  -10.2338   -6.3385 C   0  0  0  0  0  0  0  0  0  0  0  0
   43.6133  -11.5601   -6.5016 N   0  0  0  0  0  0  0  0  0  0  0  0
   44.9596  -11.8804   -6.8345 C   0  0  1  0  0  0  0  0  0  0  0  0
   45.3500  -13.3108   -6.8200 C   0  0  0  0  0  0  0  0  0  0  0  0
   46.7209  -13.6804   -7.2141 C   0  0  0  0  0  0  0  0  0  0  0  0
   46.9812  -15.1416   -7.0495 C   0  0  0  0  0  0  0  0  0  0  0  0
   48.4202  -15.4216   -7.4963 C   0  0  0  0  0  0  0  0  0  0  0  0
   48.6481  -16.8382   -7.2608 N   0  0  0  0  0  0  0  0  0  0  0  0
   45.3256  -11.2895   -8.1853 C   0  0  0  0  0  0  0  0  0  0  0  0
   44.5087  -11.3210   -9.1366 O   0  0  0  0  0  0  0  0  0  0  0  0
   46.5866  -10.6857   -8.4273 N   0  0  0  0  0  0  0  0  0  0  0  0
   46.9466   -9.9792   -9.6171 C   0  0  1  0  0  0  0  0  0  0  0  0
   47.6796   -8.6886   -9.3438 C   0  0  0  0  0  0  0  0  0  0  0  0
   47.9171   -7.8735  -10.5700 C   0  0  0  0  0  0  0  0  0  0  0  0
   48.5704   -6.6101  -10.1974 C   0  0  0  0  0  0  0  0  0  0  0  0
   49.7956   -6.5697   -9.9976 O   0  0  0  0  0  0  0  0  0  0  0  0
   47.7531  -10.8049  -10.5539 C   0  0  0  0  0  0  0  0  0  0  0  0
   48.8689  -11.2250  -10.1337 O   0  0  0  0  0  0  0  0  0  0  0  0
   47.8210   -5.4647  -10.0691 O   0  0  0  0  0  0  0  0  0  0  0  0
   47.3593  -11.1277  -11.8212 O   0  0  0  0  0  0  0  0  0  0  0  0
  2  1  1  0
  3  2  2  0
  4  3  1  0
  5  4  2  0
  5 11  1  0
  6  5  1  0
  7  6  1  0
  7  8  1  1
  9  7  1  0
  9 10  2  0
 11 12  2  0
 12  2  1  0
 13  9  1  0
 14 13  1  0
 14 15  1  6
 16 15  1  0
 17 16  1  0
 18 17  1  0
 19 18  1  0
 20 14  1  0
 20 21  2  0
 22 20  1  0
 23 22  1  0
 23 28  1  0
 23 24  1  1
 25 26  1  0
 25 24  1  0
 26 27  2  0
 28 29  2  0
 28 31  1  0
 30 26  1  0
M  END
$$$$
