YKE.pdb
     RDKit          3D

 31 31  0  0  1  0  0  0  0  0999 V2000
   19.3153  -26.7185   -2.6045 O   0  0  0  0  0  0  0  0  0  0  0  0
   19.6710  -26.5076   -1.2747 C   0  0  0  0  0  0  0  0  0  0  0  0
   18.9637  -27.1687   -0.2925 C   0  0  0  0  0  0  0  0  0  0  0  0
   19.2882  -26.9847    1.0462 C   0  0  0  0  0  0  0  0  0  0  0  0
   20.3128  -26.1474    1.4312 C   0  0  0  0  0  0  0  0  0  0  0  0
   20.6366  -25.9700    2.8659 C   0  0  0  0  0  0  0  0  0  0  0  0
   19.4288  -25.3436    3.5229 C   0  0  2  0  0  0  0  0  0  0  0  0
   19.3643  -23.9702    3.0781 N   0  0  0  0  0  0  0  0  0  0  0  0
   19.4902  -25.3815    4.9877 C   0  0  0  0  0  0  0  0  0  0  0  0
   20.0895  -24.5460    5.7065 O   0  0  0  0  0  0  0  0  0  0  0  0
   21.0168  -25.4889    0.4481 C   0  0  0  0  0  0  0  0  0  0  0  0
   20.6880  -25.6760   -0.8997 C   0  0  0  0  0  0  0  0  0  0  0  0
   18.8179  -26.4513    5.6690 N   0  0  0  0  0  0  0  0  0  0  0  0
   19.1312  -26.7581    7.0231 C   0  0  1  0  0  0  0  0  0  0  0  0
   18.0155  -26.7787    7.9995 C   0  0  0  0  0  0  0  0  0  0  0  0
   18.3167  -27.0156    9.4224 C   0  0  0  0  0  0  0  0  0  0  0  0
   17.0846  -27.0264   10.2662 C   0  0  0  0  0  0  0  0  0  0  0  0
   17.5123  -27.1718   11.7306 C   0  0  0  0  0  0  0  0  0  0  0  0
   16.2849  -27.1952   12.5097 N   0  0  0  0  0  0  0  0  0  0  0  0
   19.8767  -28.0791    7.1076 C   0  0  0  0  0  0  0  0  0  0  0  0
   19.4425  -29.0945    6.5128 O   0  0  0  0  0  0  0  0  0  0  0  0
   21.0772  -28.2211    7.8505 N   0  0  0  0  0  0  0  0  0  0  0  0
   21.8587  -29.4157    7.9321 C   0  0  1  0  0  0  0  0  0  0  0  0
   23.3109  -29.2016    7.5814 C   0  0  0  0  0  0  0  0  0  0  0  0
   24.1325  -30.4419    7.6858 C   0  0  0  0  0  0  0  0  0  0  0  0
   25.5307  -30.1307    7.3541 C   0  0  0  0  0  0  0  0  0  0  0  0
   25.8051  -29.4717    6.3378 O   0  0  0  0  0  0  0  0  0  0  0  0
   21.7737  -30.0680    9.2651 C   0  0  0  0  0  0  0  0  0  0  0  0
   22.2996  -31.2119    9.3788 O   0  0  0  0  0  0  0  0  0  0  0  0
   26.5423  -30.5717    8.1739 O   0  0  0  0  0  0  0  0  0  0  0  0
   21.1686  -29.5070   10.3534 O   0  0  0  0  0  0  0  0  0  0  0  0
  2  1  1  0
  3  2  2  0
  4  3  1  0
  5  4  2  0
  5 11  1  0
  6  5  1  0
  7  6  1  0
  7  8  1  1
  9  7  1  0
  9 10  2  0
 11 12  2  0
 12  2  1  0
 13  9  1  0
 14 13  1  0
 14 15  1  1
 16 15  1  0
 17 16  1  0
 18 17  1  0
 19 18  1  0
 20 14  1  0
 20 21  2  0
 22 20  1  0
 23 22  1  0
 23 28  1  0
 23 24  1  1
 25 26  1  0
 25 24  1  0
 26 27  2  0
 28 29  2  0
 28 31  1  0
 30 26  1  0
M  END
$$$$
