YKE.pdb
     RDKit          3D

 31 31  0  0  1  0  0  0  0  0999 V2000
   27.6077  -17.2467  -15.6368 O   0  0  0  0  0  0  0  0  0  0  0  0
   26.8942  -16.1062  -15.9966 C   0  0  0  0  0  0  0  0  0  0  0  0
   26.2228  -15.4131  -15.0113 C   0  0  0  0  0  0  0  0  0  0  0  0
   25.4995  -14.2701  -15.3301 C   0  0  0  0  0  0  0  0  0  0  0  0
   25.4300  -13.7981  -16.6230 C   0  0  0  0  0  0  0  0  0  0  0  0
   24.6511  -12.5770  -16.9340 C   0  0  0  0  0  0  0  0  0  0  0  0
   23.1891  -12.9306  -16.7917 C   0  0  2  0  0  0  0  0  0  0  0  0
   22.8770  -13.8849  -17.8310 N   0  0  0  0  0  0  0  0  0  0  0  0
   22.3046  -11.7672  -16.9134 C   0  0  0  0  0  0  0  0  0  0  0  0
   22.0667  -11.1501  -17.9796 O   0  0  0  0  0  0  0  0  0  0  0  0
   26.1014  -14.4924  -17.6041 C   0  0  0  0  0  0  0  0  0  0  0  0
   26.8294  -15.6436  -17.2804 C   0  0  0  0  0  0  0  0  0  0  0  0
   21.6516  -11.2827  -15.7305 N   0  0  0  0  0  0  0  0  0  0  0  0
   20.7292  -10.2010  -15.8033 C   0  0  1  0  0  0  0  0  0  0  0  0
   19.3919  -10.3953  -15.1933 C   0  0  0  0  0  0  0  0  0  0  0  0
   18.5101  -11.4484  -15.7272 C   0  0  0  0  0  0  0  0  0  0  0  0
   17.2096  -11.5199  -14.9967 C   0  0  0  0  0  0  0  0  0  0  0  0
   16.3996  -12.6826  -15.5804 C   0  0  0  0  0  0  0  0  0  0  0  0
   15.0967  -12.6305  -14.9371 N   0  0  0  0  0  0  0  0  0  0  0  0
   21.3480   -8.9384  -15.2283 C   0  0  0  0  0  0  0  0  0  0  0  0
   22.0084   -8.9812  -14.1628 O   0  0  0  0  0  0  0  0  0  0  0  0
   21.2088   -7.6754  -15.8599 N   0  0  0  0  0  0  0  0  0  0  0  0
   21.6242   -6.4259  -15.3028 C   0  0  1  0  0  0  0  0  0  0  0  0
   21.5043   -5.2740  -16.2706 C   0  0  0  0  0  0  0  0  0  0  0  0
   22.0589   -3.9958  -15.7385 C   0  0  0  0  0  0  0  0  0  0  0  0
   21.8769   -2.9318  -16.7368 C   0  0  0  0  0  0  0  0  0  0  0  0
   21.4262   -3.1957  -17.8635 O   0  0  0  0  0  0  0  0  0  0  0  0
   20.8977   -6.0846  -14.0517 C   0  0  0  0  0  0  0  0  0  0  0  0
   21.3766   -5.1513  -13.3464 O   0  0  0  0  0  0  0  0  0  0  0  0
   22.2077   -1.6350  -16.4219 O   0  0  0  0  0  0  0  0  0  0  0  0
   19.7610   -6.7147  -13.6317 O   0  0  0  0  0  0  0  0  0  0  0  0
  2  1  1  0
  3  2  2  0
  4  3  1  0
  5  4  2  0
  5 11  1  0
  6  5  1  0
  7  6  1  0
  7  8  1  6
  9  7  1  0
  9 10  2  0
 11 12  2  0
 12  2  1  0
 13  9  1  0
 14 13  1  0
 14 15  1  1
 16 15  1  0
 17 16  1  0
 18 17  1  0
 19 18  1  0
 20 14  1  0
 20 21  2  0
 22 20  1  0
 23 22  1  0
 23 28  1  0
 23 24  1  6
 25 26  1  0
 25 24  1  0
 26 27  2  0
 28 29  2  0
 28 31  1  0
 30 26  1  0
M  END
$$$$
