YKE.pdb
     RDKit          3D

 31 31  0  0  1  0  0  0  0  0999 V2000
   42.6405   -2.2458   -1.4945 O   0  0  0  0  0  0  0  0  0  0  0  0
   42.4354   -2.8438   -2.7354 C   0  0  0  0  0  0  0  0  0  0  0  0
   41.5960   -3.9356   -2.8079 C   0  0  0  0  0  0  0  0  0  0  0  0
   41.3657   -4.5602   -4.0278 C   0  0  0  0  0  0  0  0  0  0  0  0
   41.9600   -4.1155   -5.1890 C   0  0  0  0  0  0  0  0  0  0  0  0
   41.6965   -4.8009   -6.4755 C   0  0  0  0  0  0  0  0  0  0  0  0
   42.4689   -6.0994   -6.4571 C   0  0  2  0  0  0  0  0  0  0  0  0
   43.8736   -5.7617   -6.4877 N   0  0  0  0  0  0  0  0  0  0  0  0
   42.1499   -6.9710   -7.5925 C   0  0  0  0  0  0  0  0  0  0  0  0
   42.6155   -6.8464   -8.7509 O   0  0  0  0  0  0  0  0  0  0  0  0
   42.7974   -3.0253   -5.1129 C   0  0  0  0  0  0  0  0  0  0  0  0
   43.0278   -2.3980   -3.8828 C   0  0  0  0  0  0  0  0  0  0  0  0
   41.2351   -8.0567   -7.3804 N   0  0  0  0  0  0  0  0  0  0  0  0
   40.8790   -8.9240   -8.4514 C   0  0  1  0  0  0  0  0  0  0  0  0
   40.3857  -10.2785   -8.1045 C   0  0  0  0  0  0  0  0  0  0  0  0
   40.0968  -11.2325   -9.1899 C   0  0  0  0  0  0  0  0  0  0  0  0
   41.3198  -11.9598   -9.6429 C   0  0  0  0  0  0  0  0  0  0  0  0
   40.9390  -12.8256  -10.8487 C   0  0  0  0  0  0  0  0  0  0  0  0
   42.1649  -13.4761  -11.2824 N   0  0  0  0  0  0  0  0  0  0  0  0
   39.8625   -8.2534   -9.3597 C   0  0  0  0  0  0  0  0  0  0  0  0
   39.4597   -8.8290  -10.3989 O   0  0  0  0  0  0  0  0  0  0  0  0
   39.3321   -6.9679   -9.0781 N   0  0  0  0  0  0  0  0  0  0  0  0
   38.2871   -6.3286   -9.8153 C   0  0  1  0  0  0  0  0  0  0  0  0
   37.8237   -5.0353   -9.1905 C   0  0  0  0  0  0  0  0  0  0  0  0
   38.4653   -3.8283   -9.7870 C   0  0  0  0  0  0  0  0  0  0  0  0
   37.9605   -2.6234   -9.1124 C   0  0  0  0  0  0  0  0  0  0  0  0
   37.4687   -1.6923   -9.7709 O   0  0  0  0  0  0  0  0  0  0  0  0
   38.6553   -6.0766  -11.2332 C   0  0  0  0  0  0  0  0  0  0  0  0
   39.8722   -6.2197  -11.5442 O   0  0  0  0  0  0  0  0  0  0  0  0
   38.0327   -2.5256   -7.7429 O   0  0  0  0  0  0  0  0  0  0  0  0
   37.7647   -5.7054  -12.1998 O   0  0  0  0  0  0  0  0  0  0  0  0
  2  1  1  0
  3  2  2  0
  4  3  1  0
  5  4  2  0
  5 11  1  0
  6  5  1  0
  7  6  1  0
  7  8  1  6
  9  7  1  0
  9 10  2  0
 11 12  2  0
 12  2  1  0
 13  9  1  0
 14 13  1  0
 14 15  1  1
 16 15  1  0
 17 16  1  0
 18 17  1  0
 19 18  1  0
 20 14  1  0
 20 21  2  0
 22 20  1  0
 23 22  1  0
 23 28  1  0
 23 24  1  1
 25 26  1  0
 25 24  1  0
 26 27  2  0
 28 29  2  0
 28 31  1  0
 30 26  1  0
M  END
$$$$
