AET.pdb
     RDKit          3D

 22 21  0  0  1  0  0  0  0  0999 V2000
    7.6428  -12.6835   19.7956 C   0  0  0  0  0  0  0  0  0  0  0  0
    7.9803  -14.1387   19.5453 C   0  0  2  0  0  0  0  0  0  0  0  0
    7.0309  -14.7362   18.6358 N   0  0  0  0  0  0  0  0  0  0  0  0
    7.9135  -14.8137   20.8965 C   0  0  0  0  0  0  0  0  0  0  0  0
    6.7854  -15.0539   21.3777 O   0  0  0  0  0  0  0  0  0  0  0  0
    9.0874  -15.1608   21.5915 N   0  0  0  0  0  0  0  0  0  0  0  0
    9.2260  -15.6717   22.9065 C   0  0  1  0  0  0  0  0  0  0  0  0
   10.4506  -16.5566   23.1485 C   0  0  0  0  0  0  0  0  0  0  0  0
   10.3398  -17.7966   22.2982 C   0  0  0  0  0  0  0  0  0  0  0  0
   11.5417  -18.6581   22.4786 C   0  0  0  0  0  0  0  0  0  0  0  0
   12.6388  -18.3507   21.9489 O   0  0  0  0  0  0  0  0  0  0  0  0
    9.0706  -14.7207   23.9907 C   0  0  0  0  0  0  0  0  0  0  0  0
    9.8181  -13.6970   24.0439 O   0  0  0  0  0  0  0  0  0  0  0  0
   11.4398  -19.7942   23.2313 O   0  0  0  0  0  0  0  0  0  0  0  0
    6.3724  -12.2304   26.9881 C   0  0  0  0  0  0  0  0  0  0  0  0
    6.5106  -13.4168   26.0552 C   0  0  1  0  0  0  0  0  0  0  0  0
    6.0753  -13.0452   24.7713 O   0  0  0  0  0  0  0  0  0  0  0  0
    7.9654  -13.7942   25.9984 C   0  0  2  0  0  0  0  0  0  0  0  0
    8.1083  -14.8739   25.0166 N   0  0  0  0  0  0  0  0  0  0  0  0
    8.4496  -14.2567   27.3382 C   0  0  0  0  0  0  0  0  0  0  0  0
    8.9166  -15.5464   27.5246 O   0  0  0  0  0  0  0  0  0  0  0  0
    8.4438  -13.4825   28.3283 O   0  0  0  0  0  0  0  0  0  0  0  0
  2  4  1  0
  2  1  1  1
  3  2  1  0
  4  6  1  0
  5  4  2  0
  6  7  1  0
  7 12  1  0
  8  9  1  0
  7  8  1  6
 10 14  1  0
 10  9  1  0
 11 10  2  0
 12 13  2  0
 12 19  1  0
 16 15  1  1
 17 16  1  0
 18 16  1  0
 18 20  1  0
 18 19  1  6
 20 21  1  0
 22 20  2  0
M  END
$$$$
