AET.pdb
     RDKit          3D

 22 21  0  0  1  0  0  0  0  0999 V2000
    7.1572  -13.0484   18.9211 C   0  0  0  0  0  0  0  0  0  0  0  0
    8.4723  -13.2174   19.6534 C   0  0  2  0  0  0  0  0  0  0  0  0
    9.3214  -14.1651   18.9705 N   0  0  0  0  0  0  0  0  0  0  0  0
    8.1126  -13.7277   21.0304 C   0  0  0  0  0  0  0  0  0  0  0  0
    7.3226  -13.0482   21.7205 O   0  0  0  0  0  0  0  0  0  0  0  0
    8.6518  -14.9322   21.5201 N   0  0  0  0  0  0  0  0  0  0  0  0
    8.4051  -15.5812   22.7559 C   0  0  1  0  0  0  0  0  0  0  0  0
    8.8979  -17.0263   22.8560 C   0  0  0  0  0  0  0  0  0  0  0  0
   10.0252  -17.2328   21.8765 C   0  0  0  0  0  0  0  0  0  0  0  0
   10.8791  -18.3768   22.3024 C   0  0  0  0  0  0  0  0  0  0  0  0
   12.1322  -18.2953   22.2588 O   0  0  0  0  0  0  0  0  0  0  0  0
    8.7570  -14.8456   23.9556 C   0  0  0  0  0  0  0  0  0  0  0  0
    9.9130  -14.3347   24.0659 O   0  0  0  0  0  0  0  0  0  0  0  0
   10.2830  -19.5243   22.7445 O   0  0  0  0  0  0  0  0  0  0  0  0
    7.0758  -11.8235   25.5749 C   0  0  0  0  0  0  0  0  0  0  0  0
    7.1601  -12.9596   26.5744 C   0  0  1  0  0  0  0  0  0  0  0  0
    5.9637  -13.6964   26.5347 O   0  0  0  0  0  0  0  0  0  0  0  0
    8.3056  -13.8469   26.1713 C   0  0  2  0  0  0  0  0  0  0  0  0
    7.8614  -14.6607   25.0352 N   0  0  0  0  0  0  0  0  0  0  0  0
    8.7167  -14.7358   27.3046 C   0  0  0  0  0  0  0  0  0  0  0  0
    9.1827  -14.2074   28.4962 O   0  0  0  0  0  0  0  0  0  0  0  0
    8.6482  -15.9865   27.2006 O   0  0  0  0  0  0  0  0  0  0  0  0
  2  4  1  0
  2  1  1  6
  3  2  1  0
  4  6  1  0
  5  4  2  0
  6  7  1  0
  7 12  1  0
  8  9  1  0
  7  8  1  6
 10 14  1  0
 10  9  1  0
 11 10  2  0
 12 13  2  0
 12 19  1  0
 16 15  1  6
 17 16  1  0
 18 16  1  0
 18 20  1  0
 18 19  1  6
 20 21  1  0
 22 20  2  0
M  END
$$$$
