AET.pdb
     RDKit          3D

 22 21  0  0  1  0  0  0  0  0999 V2000
    7.5265  -12.5696   19.4536 C   0  0  0  0  0  0  0  0  0  0  0  0
    8.2380  -13.1621   18.2549 C   0  0  2  0  0  0  0  0  0  0  0  0
    7.2945  -13.7782   17.3515 N   0  0  0  0  0  0  0  0  0  0  0  0
    9.1882  -14.1976   18.8123 C   0  0  0  0  0  0  0  0  0  0  0  0
    8.7705  -15.3683   18.9423 O   0  0  0  0  0  0  0  0  0  0  0  0
   10.5041  -13.8527   19.1741 N   0  0  0  0  0  0  0  0  0  0  0  0
   11.5668  -14.6980   19.5810 C   0  0  1  0  0  0  0  0  0  0  0  0
   12.9719  -14.2267   19.2008 C   0  0  0  0  0  0  0  0  0  0  0  0
   13.9563  -15.3347   19.4768 C   0  0  0  0  0  0  0  0  0  0  0  0
   15.3412  -14.8900   19.1553 C   0  0  0  0  0  0  0  0  0  0  0  0
   16.0422  -14.2978   20.0136 O   0  0  0  0  0  0  0  0  0  0  0  0
   11.5437  -15.1501   20.9591 C   0  0  0  0  0  0  0  0  0  0  0  0
   11.4845  -14.3015   21.9004 O   0  0  0  0  0  0  0  0  0  0  0  0
   15.8465  -15.1338   17.9092 O   0  0  0  0  0  0  0  0  0  0  0  0
   10.9216  -18.6675   24.2925 C   0  0  0  0  0  0  0  0  0  0  0  0
   10.9555  -18.2738   22.8294 C   0  0  1  0  0  0  0  0  0  0  0  0
    9.6518  -18.3334   22.3071 O   0  0  0  0  0  0  0  0  0  0  0  0
   11.4635  -16.8609   22.7416 C   0  0  2  0  0  0  0  0  0  0  0  0
   11.5836  -16.5173   21.3211 N   0  0  0  0  0  0  0  0  0  0  0  0
   12.7967  -16.7304   23.4117 C   0  0  0  0  0  0  0  0  0  0  0  0
   13.9739  -16.8806   22.6991 O   0  0  0  0  0  0  0  0  0  0  0  0
   12.8788  -16.4803   24.6407 O   0  0  0  0  0  0  0  0  0  0  0  0
  2  4  1  0
  2  1  1  1
  3  2  1  0
  4  6  1  0
  5  4  2  0
  6  7  1  0
  7 12  1  0
  8  9  1  0
  7  8  1  1
 10 14  1  0
 10  9  1  0
 11 10  2  0
 12 13  2  0
 12 19  1  0
 16 15  1  1
 17 16  1  0
 18 16  1  0
 18 20  1  0
 18 19  1  6
 20 21  1  0
 22 20  2  0
M  END
$$$$
