AET.pdb
     RDKit          3D

 22 21  0  0  1  0  0  0  0  0999 V2000
    7.7368  -12.5910   19.8997 C   0  0  0  0  0  0  0  0  0  0  0  0
    7.9148  -14.0749   19.6533 C   0  0  2  0  0  0  0  0  0  0  0  0
    6.8299  -14.5960   18.8553 N   0  0  0  0  0  0  0  0  0  0  0  0
    7.9213  -14.7200   21.0207 C   0  0  0  0  0  0  0  0  0  0  0  0
    6.8356  -14.8083   21.6334 O   0  0  0  0  0  0  0  0  0  0  0  0
    9.1150  -15.2062   21.5865 N   0  0  0  0  0  0  0  0  0  0  0  0
    9.3210  -15.8020   22.8561 C   0  0  1  0  0  0  0  0  0  0  0  0
   10.5477  -16.7092   22.9717 C   0  0  0  0  0  0  0  0  0  0  0  0
   10.4188  -17.8425   21.9859 C   0  0  0  0  0  0  0  0  0  0  0  0
   11.6448  -18.6885   22.0051 C   0  0  0  0  0  0  0  0  0  0  0  0
   11.5656  -19.9322   22.1648 O   0  0  0  0  0  0  0  0  0  0  0  0
    9.2360  -14.9221   24.0062 C   0  0  0  0  0  0  0  0  0  0  0  0
    9.9845  -13.9000   24.0750 O   0  0  0  0  0  0  0  0  0  0  0  0
   12.8657  -18.0954   21.8461 O   0  0  0  0  0  0  0  0  0  0  0  0
    6.8167  -12.4568   27.1576 C   0  0  0  0  0  0  0  0  0  0  0  0
    6.8569  -13.6254   26.1934 C   0  0  1  0  0  0  0  0  0  0  0  0
    6.4747  -13.1806   24.9159 O   0  0  0  0  0  0  0  0  0  0  0  0
    8.2712  -14.1345   26.1415 C   0  0  2  0  0  0  0  0  0  0  0  0
    8.3432  -15.1447   25.0809 N   0  0  0  0  0  0  0  0  0  0  0  0
    8.6683  -14.7423   27.4516 C   0  0  0  0  0  0  0  0  0  0  0  0
    8.8776  -13.9559   28.5714 O   0  0  0  0  0  0  0  0  0  0  0  0
    8.8212  -15.9846   27.5660 O   0  0  0  0  0  0  0  0  0  0  0  0
  2  4  1  0
  2  1  1  1
  3  2  1  0
  4  6  1  0
  5  4  2  0
  6  7  1  0
  7 12  1  0
  8  9  1  0
  7  8  1  6
 10 14  1  0
 10  9  1  0
 11 10  2  0
 12 13  2  0
 12 19  1  0
 16 15  1  1
 17 16  1  0
 18 16  1  0
 18 20  1  0
 18 19  1  6
 20 21  1  0
 22 20  2  0
M  END
$$$$
