AET.pdb
     RDKit          3D

 22 21  0  0  1  0  0  0  0  0999 V2000
    6.6270  -14.1912   19.2069 C   0  0  0  0  0  0  0  0  0  0  0  0
    8.0196  -13.9276   19.7412 C   0  0  2  0  0  0  0  0  0  0  0  0
    9.0140  -14.5888   18.9292 N   0  0  0  0  0  0  0  0  0  0  0  0
    8.0316  -14.4835   21.1472 C   0  0  0  0  0  0  0  0  0  0  0  0
    7.2393  -13.9922   21.9796 O   0  0  0  0  0  0  0  0  0  0  0  0
    8.9094  -15.5233   21.5075 N   0  0  0  0  0  0  0  0  0  0  0  0
    9.0863  -16.1423   22.7703 C   0  0  1  0  0  0  0  0  0  0  0  0
   10.0742  -17.3103   22.8037 C   0  0  0  0  0  0  0  0  0  0  0  0
   10.1841  -17.8242   24.2168 C   0  0  0  0  0  0  0  0  0  0  0  0
   11.1595  -18.9480   24.2855 C   0  0  0  0  0  0  0  0  0  0  0  0
   12.3955  -18.7319   24.2194 O   0  0  0  0  0  0  0  0  0  0  0  0
    9.3131  -15.2594   23.8986 C   0  0  0  0  0  0  0  0  0  0  0  0
   10.2981  -14.4599   23.8859 O   0  0  0  0  0  0  0  0  0  0  0  0
   10.6947  -20.2258   24.4223 O   0  0  0  0  0  0  0  0  0  0  0  0
    7.4695  -12.3745   27.2034 C   0  0  0  0  0  0  0  0  0  0  0  0
    7.2951  -13.5257   26.2331 C   0  0  1  0  0  0  0  0  0  0  0  0
    6.7958  -13.0296   25.0164 O   0  0  0  0  0  0  0  0  0  0  0  0
    8.6460  -14.1452   26.0020 C   0  0  2  0  0  0  0  0  0  0  0  0
    8.4767  -15.2386   25.0396 N   0  0  0  0  0  0  0  0  0  0  0  0
    9.2156  -14.6764   27.2814 C   0  0  0  0  0  0  0  0  0  0  0  0
    9.6199  -13.8233   28.2938 O   0  0  0  0  0  0  0  0  0  0  0  0
    9.3404  -15.9132   27.4671 O   0  0  0  0  0  0  0  0  0  0  0  0
  2  4  1  0
  2  1  1  6
  3  2  1  0
  4  6  1  0
  5  4  2  0
  6  7  1  0
  7 12  1  0
  8  9  1  0
  7  8  1  6
 10 14  1  0
 10  9  1  0
 11 10  2  0
 12 13  2  0
 12 19  1  0
 16 15  1  1
 17 16  1  0
 18 16  1  0
 18 20  1  0
 18 19  1  6
 20 21  1  0
 22 20  2  0
M  END
$$$$
