AET.pdb
     RDKit          3D

 22 21  0  0  1  0  0  0  0  0999 V2000
    7.7676  -12.1947   19.8263 C   0  0  0  0  0  0  0  0  0  0  0  0
    8.0135  -13.6624   19.5441 C   0  0  2  0  0  0  0  0  0  0  0  0
    7.0323  -14.1780   18.6184 N   0  0  0  0  0  0  0  0  0  0  0  0
    7.8980  -14.3619   20.8795 C   0  0  0  0  0  0  0  0  0  0  0  0
    6.7534  -14.6183   21.3110 O   0  0  0  0  0  0  0  0  0  0  0  0
    9.0458  -14.7136   21.6145 N   0  0  0  0  0  0  0  0  0  0  0  0
    9.1442  -15.4958   22.7926 C   0  0  1  0  0  0  0  0  0  0  0  0
   10.2025  -16.6006   22.7687 C   0  0  0  0  0  0  0  0  0  0  0  0
   10.0757  -17.4334   24.0190 C   0  0  0  0  0  0  0  0  0  0  0  0
   11.0160  -18.5878   23.9707 C   0  0  0  0  0  0  0  0  0  0  0  0
   10.5856  -19.7643   23.8751 O   0  0  0  0  0  0  0  0  0  0  0  0
    9.2015  -14.7716   24.0482 C   0  0  0  0  0  0  0  0  0  0  0  0
   10.2399  -14.1060   24.3455 O   0  0  0  0  0  0  0  0  0  0  0  0
   12.3611  -18.3540   24.0313 O   0  0  0  0  0  0  0  0  0  0  0  0
    6.9953  -12.0769   25.6373 C   0  0  0  0  0  0  0  0  0  0  0  0
    7.0488  -13.2969   26.5349 C   0  0  1  0  0  0  0  0  0  0  0  0
    5.9532  -14.1287   26.2456 O   0  0  0  0  0  0  0  0  0  0  0  0
    8.3260  -14.0339   26.2391 C   0  0  2  0  0  0  0  0  0  0  0  0
    8.1385  -14.7649   24.9818 N   0  0  0  0  0  0  0  0  0  0  0  0
    8.6568  -14.9926   27.3413 C   0  0  0  0  0  0  0  0  0  0  0  0
    9.0354  -14.5406   28.5937 O   0  0  0  0  0  0  0  0  0  0  0  0
    8.5980  -16.2342   27.1550 O   0  0  0  0  0  0  0  0  0  0  0  0
  2  4  1  0
  2  1  1  1
  3  2  1  0
  4  6  1  0
  5  4  2  0
  6  7  1  0
  7 12  1  0
  8  9  1  0
  7  8  1  6
 10 14  1  0
 10  9  1  0
 11 10  2  0
 12 13  2  0
 12 19  1  0
 16 15  1  6
 17 16  1  0
 18 16  1  0
 18 20  1  0
 18 19  1  6
 20 21  1  0
 22 20  2  0
M  END
$$$$
