AET.pdb
     RDKit          3D

 22 21  0  0  1  0  0  0  0  0999 V2000
    7.8717  -12.6239   18.9525 C   0  0  0  0  0  0  0  0  0  0  0  0
    8.4129  -13.8188   18.1949 C   0  0  2  0  0  0  0  0  0  0  0  0
    7.4490  -14.2938   17.2302 N   0  0  0  0  0  0  0  0  0  0  0  0
    8.6814  -14.8790   19.2388 C   0  0  0  0  0  0  0  0  0  0  0  0
    7.7050  -15.5043   19.7054 O   0  0  0  0  0  0  0  0  0  0  0  0
    9.9924  -15.1533   19.6720 N   0  0  0  0  0  0  0  0  0  0  0  0
   10.4400  -16.1371   20.5892 C   0  0  1  0  0  0  0  0  0  0  0  0
   11.8279  -16.7188   20.3128 C   0  0  0  0  0  0  0  0  0  0  0  0
   12.1175  -17.8048   21.3176 C   0  0  0  0  0  0  0  0  0  0  0  0
   13.4553  -18.4071   21.0590 C   0  0  0  0  0  0  0  0  0  0  0  0
   14.3499  -18.3898   21.9411 O   0  0  0  0  0  0  0  0  0  0  0  0
   10.2983  -15.8217   21.9979 C   0  0  0  0  0  0  0  0  0  0  0  0
   10.8940  -14.8111   22.4810 O   0  0  0  0  0  0  0  0  0  0  0  0
   13.7026  -18.9834   19.8448 O   0  0  0  0  0  0  0  0  0  0  0  0
    7.6479  -15.6401   25.9678 C   0  0  0  0  0  0  0  0  0  0  0  0
    7.8500  -16.1454   24.5533 C   0  0  1  0  0  0  0  0  0  0  0  0
    7.1668  -15.3006   23.6614 O   0  0  0  0  0  0  0  0  0  0  0  0
    9.3229  -16.1019   24.2520 C   0  0  2  0  0  0  0  0  0  0  0  0
    9.5134  -16.5960   22.8846 N   0  0  0  0  0  0  0  0  0  0  0  0
   10.0901  -16.9561   25.2138 C   0  0  0  0  0  0  0  0  0  0  0  0
   10.2583  -16.5742   26.5337 O   0  0  0  0  0  0  0  0  0  0  0  0
   10.6009  -18.0435   24.8446 O   0  0  0  0  0  0  0  0  0  0  0  0
  2  4  1  0
  2  1  1  1
  3  2  1  0
  4  6  1  0
  5  4  2  0
  6  7  1  0
  7 12  1  0
  8  9  1  0
  7  8  1  6
 10 14  1  0
 10  9  1  0
 11 10  2  0
 12 13  2  0
 12 19  1  0
 16 15  1  1
 17 16  1  0
 18 16  1  0
 18 20  1  0
 18 19  1  6
 20 21  1  0
 22 20  2  0
M  END
$$$$
