GGF.pdb
     RDKit          3D

 20 20  0  0  1  0  0  0  0  0999 V2000
   25.5744  -17.5395  -15.1276 N   0  0  0  0  0  0  0  0  0  0  0  0
   26.9666  -17.6200  -14.8854 C   0  0  0  0  0  0  0  0  0  0  0  0
   27.3031  -19.0245  -14.4920 C   0  0  0  0  0  0  0  0  0  0  0  0
   26.9670  -20.0107  -15.2004 O   0  0  0  0  0  0  0  0  0  0  0  0
   28.0206  -19.2967  -13.2938 N   0  0  0  0  0  0  0  0  0  0  0  0
   28.4395  -20.6269  -12.9340 C   0  0  0  0  0  0  0  0  0  0  0  0
   27.5320  -21.1309  -11.8492 C   0  0  0  0  0  0  0  0  0  0  0  0
   27.6506  -22.3057  -11.3833 O   0  0  0  0  0  0  0  0  0  0  0  0
   26.5038  -20.3319  -11.2912 N   0  0  0  0  0  0  0  0  0  0  0  0
   25.5173  -20.8488  -10.3829 C   0  0  1  0  0  0  0  0  0  0  0  0
   25.3840  -20.0335   -9.1231 C   0  0  0  0  0  0  0  0  0  0  0  0
   26.6017  -20.0404   -8.2990 C   0  0  0  0  0  0  0  0  0  0  0  0
   27.4076  -21.1568   -8.2317 C   0  0  0  0  0  0  0  0  0  0  0  0
   28.5645  -21.1749   -7.4537 C   0  0  0  0  0  0  0  0  0  0  0  0
   28.9417  -20.0743   -6.7242 C   0  0  0  0  0  0  0  0  0  0  0  0
   28.1425  -18.9537   -6.7852 C   0  0  0  0  0  0  0  0  0  0  0  0
   26.9975  -18.9443   -7.5589 C   0  0  0  0  0  0  0  0  0  0  0  0
   24.2285  -20.9577  -11.1077 C   0  0  0  0  0  0  0  0  0  0  0  0
   24.0905  -20.5944  -12.3066 O   0  0  0  0  0  0  0  0  0  0  0  0
   23.0871  -21.4744  -10.4925 O   0  0  0  0  0  0  0  0  0  0  0  0
  2  1  1  0
  3  2  1  0
  4  3  2  0
  5  3  1  0
  6  5  1  0
  7  8  2  0
  7  6  1  0
  9  7  1  0
 10  9  1  0
 10 11  1  1
 11 12  1  0
 12 17  2  0
 12 13  1  0
 13 14  2  0
 14 15  1  0
 16 15  2  0
 17 16  1  0
 18 10  1  0
 19 18  2  0
 20 18  1  0
M  END
$$$$
