GGF.pdb
     RDKit          3D

 20 20  0  0  1  0  0  0  0  0999 V2000
   23.0189  -19.1994  -14.9469 N   0  0  0  0  0  0  0  0  0  0  0  0
   24.1357  -20.0480  -14.7574 C   0  0  0  0  0  0  0  0  0  0  0  0
   25.0056  -19.4623  -13.6894 C   0  0  0  0  0  0  0  0  0  0  0  0
   25.5660  -18.3426  -13.8296 O   0  0  0  0  0  0  0  0  0  0  0  0
   25.2317  -20.1560  -12.4678 N   0  0  0  0  0  0  0  0  0  0  0  0
   25.7651  -19.5029  -11.3001 C   0  0  0  0  0  0  0  0  0  0  0  0
   25.8040  -20.4993  -10.1777 C   0  0  0  0  0  0  0  0  0  0  0  0
   25.1204  -21.5679  -10.2207 O   0  0  0  0  0  0  0  0  0  0  0  0
   26.5975  -20.3043   -9.0204 N   0  0  0  0  0  0  0  0  0  0  0  0
   26.6584  -21.2551   -7.9445 C   0  0  1  0  0  0  0  0  0  0  0  0
   28.0235  -21.3537   -7.3148 C   0  0  0  0  0  0  0  0  0  0  0  0
   28.2202  -20.4030   -6.2105 C   0  0  0  0  0  0  0  0  0  0  0  0
   27.9604  -20.7657   -4.9062 C   0  0  0  0  0  0  0  0  0  0  0  0
   28.1433  -19.8728   -3.8511 C   0  0  0  0  0  0  0  0  0  0  0  0
   28.5910  -18.5945   -4.0778 C   0  0  0  0  0  0  0  0  0  0  0  0
   28.8534  -18.2228   -5.3782 C   0  0  0  0  0  0  0  0  0  0  0  0
   28.6694  -19.1143   -6.4182 C   0  0  0  0  0  0  0  0  0  0  0  0
   25.6173  -20.9006   -6.9502 C   0  0  0  0  0  0  0  0  0  0  0  0
   25.0512  -19.7747   -6.9313 O   0  0  0  0  0  0  0  0  0  0  0  0
   25.2049  -21.8064   -5.9714 O   0  0  0  0  0  0  0  0  0  0  0  0
  2  1  1  0
  3  2  1  0
  4  3  2  0
  5  3  1  0
  6  5  1  0
  7  8  2  0
  7  6  1  0
  9  7  1  0
 10  9  1  0
 10 11  1  1
 11 12  1  0
 12 17  2  0
 12 13  1  0
 13 14  2  0
 14 15  1  0
 16 15  2  0
 17 16  1  0
 18 10  1  0
 19 18  2  0
 20 18  1  0
M  END
$$$$
