GGF.pdb
     RDKit          3D

 20 20  0  0  1  0  0  0  0  0999 V2000
   27.9955  -20.1529  -17.3608 N   0  0  0  0  0  0  0  0  0  0  0  0
   27.8820  -18.7432  -17.4186 C   0  0  0  0  0  0  0  0  0  0  0  0
   27.9016  -18.2042  -16.0224 C   0  0  0  0  0  0  0  0  0  0  0  0
   27.8663  -16.9668  -15.7880 O   0  0  0  0  0  0  0  0  0  0  0  0
   27.9614  -19.0786  -14.9014 N   0  0  0  0  0  0  0  0  0  0  0  0
   27.4638  -18.7002  -13.6038 C   0  0  0  0  0  0  0  0  0  0  0  0
   26.8030  -19.8973  -12.9836 C   0  0  0  0  0  0  0  0  0  0  0  0
   26.7928  -21.0226  -13.5706 O   0  0  0  0  0  0  0  0  0  0  0  0
   26.1609  -19.8379  -11.7222 N   0  0  0  0  0  0  0  0  0  0  0  0
   25.5656  -20.9846  -11.0929 C   0  0  1  0  0  0  0  0  0  0  0  0
   25.4371  -20.8429   -9.5986 C   0  0  0  0  0  0  0  0  0  0  0  0
   26.7082  -20.5103   -8.9385 C   0  0  0  0  0  0  0  0  0  0  0  0
   26.7882  -19.4750   -8.0318 C   0  0  0  0  0  0  0  0  0  0  0  0
   27.9879  -19.1505   -7.3998 C   0  0  0  0  0  0  0  0  0  0  0  0
   29.1367  -19.8562   -7.6613 C   0  0  0  0  0  0  0  0  0  0  0  0
   29.0665  -20.8928   -8.5661 C   0  0  0  0  0  0  0  0  0  0  0  0
   27.8732  -21.2076   -9.1880 C   0  0  0  0  0  0  0  0  0  0  0  0
   24.2549  -21.2412  -11.7367 C   0  0  0  0  0  0  0  0  0  0  0  0
   23.5849  -20.3338  -12.2988 O   0  0  0  0  0  0  0  0  0  0  0  0
   23.6880  -22.5167  -11.7540 O   0  0  0  0  0  0  0  0  0  0  0  0
  2  1  1  0
  3  2  1  0
  4  3  2  0
  5  3  1  0
  6  5  1  0
  7  8  2  0
  7  6  1  0
  9  7  1  0
 10  9  1  0
 10 11  1  1
 11 12  1  0
 12 17  2  0
 12 13  1  0
 13 14  2  0
 14 15  1  0
 16 15  2  0
 17 16  1  0
 18 10  1  0
 19 18  2  0
 20 18  1  0
M  END
$$$$
