GGF.pdb
     RDKit          3D

 20 20  0  0  1  0  0  0  0  0999 V2000
   17.4982  -12.4826  -17.6982 N   0  0  0  0  0  0  0  0  0  0  0  0
   16.9289  -11.5375  -18.5849 C   0  0  0  0  0  0  0  0  0  0  0  0
   17.7869  -10.3111  -18.5919 C   0  0  0  0  0  0  0  0  0  0  0  0
   17.4932   -9.2995  -19.2832 O   0  0  0  0  0  0  0  0  0  0  0  0
   18.9747  -10.2446  -17.8112 N   0  0  0  0  0  0  0  0  0  0  0  0
   19.8594   -9.1088  -17.8526 C   0  0  0  0  0  0  0  0  0  0  0  0
   19.7241   -8.3570  -16.5601 C   0  0  0  0  0  0  0  0  0  0  0  0
   19.0994   -8.8515  -15.5721 O   0  0  0  0  0  0  0  0  0  0  0  0
   20.2804   -7.0676  -16.3733 N   0  0  0  0  0  0  0  0  0  0  0  0
   20.2252   -6.3660  -15.1203 C   0  0  1  0  0  0  0  0  0  0  0  0
   21.5577   -6.2922  -14.4211 C   0  0  0  0  0  0  0  0  0  0  0  0
   22.1909   -7.6074  -14.2446 C   0  0  0  0  0  0  0  0  0  0  0  0
   21.9247   -8.3808  -13.1349 C   0  0  0  0  0  0  0  0  0  0  0  0
   22.5192   -9.6293  -12.9569 C   0  0  0  0  0  0  0  0  0  0  0  0
   23.3951  -10.1330  -13.8869 C   0  0  0  0  0  0  0  0  0  0  0  0
   23.6674   -9.3673  -14.9994 C   0  0  0  0  0  0  0  0  0  0  0  0
   23.0737   -8.1308  -15.1680 C   0  0  0  0  0  0  0  0  0  0  0  0
   19.6564   -5.0189  -15.3655 C   0  0  0  0  0  0  0  0  0  0  0  0
   19.4661   -4.5625  -16.5247 O   0  0  0  0  0  0  0  0  0  0  0  0
   19.2977   -4.1759  -14.3123 O   0  0  0  0  0  0  0  0  0  0  0  0
  2  1  1  0
  3  2  1  0
  4  3  2  0
  5  3  1  0
  6  5  1  0
  7  8  2  0
  7  6  1  0
  9  7  1  0
 10  9  1  0
 10 11  1  6
 11 12  1  0
 12 17  2  0
 12 13  1  0
 13 14  2  0
 14 15  1  0
 16 15  2  0
 17 16  1  0
 18 10  1  0
 19 18  2  0
 20 18  1  0
M  END
$$$$
