GGF.pdb
     RDKit          3D

 20 20  0  0  1  0  0  0  0  0999 V2000
   24.8031  -23.9919  -15.2735 N   0  0  0  0  0  0  0  0  0  0  0  0
   24.5764  -23.8254  -13.8863 C   0  0  0  0  0  0  0  0  0  0  0  0
   24.9952  -22.4425  -13.4959 C   0  0  0  0  0  0  0  0  0  0  0  0
   24.1745  -21.4875  -13.4535 O   0  0  0  0  0  0  0  0  0  0  0  0
   26.3469  -22.1560  -13.1560 N   0  0  0  0  0  0  0  0  0  0  0  0
   26.7403  -20.9081  -12.5540 C   0  0  0  0  0  0  0  0  0  0  0  0
   26.9003  -21.1256  -11.0771 C   0  0  0  0  0  0  0  0  0  0  0  0
   27.5476  -22.1188  -10.6233 O   0  0  0  0  0  0  0  0  0  0  0  0
   26.3437  -20.2440  -10.1180 N   0  0  0  0  0  0  0  0  0  0  0  0
   26.5262  -20.4119   -8.7024 C   0  0  1  0  0  0  0  0  0  0  0  0
   27.1576  -19.2161   -8.0384 C   0  0  0  0  0  0  0  0  0  0  0  0
   27.5557  -19.4715   -6.6463 C   0  0  0  0  0  0  0  0  0  0  0  0
   28.8574  -19.2827   -6.2336 C   0  0  0  0  0  0  0  0  0  0  0  0
   29.2464  -19.5217   -4.9162 C   0  0  0  0  0  0  0  0  0  0  0  0
   28.3401  -19.9559   -3.9804 C   0  0  0  0  0  0  0  0  0  0  0  0
   27.0366  -20.1476   -4.3835 C   0  0  0  0  0  0  0  0  0  0  0  0
   26.6595  -19.9082   -5.6913 C   0  0  0  0  0  0  0  0  0  0  0  0
   25.2135  -20.7473   -8.1002 C   0  0  0  0  0  0  0  0  0  0  0  0
   24.1429  -20.1781   -8.4441 O   0  0  0  0  0  0  0  0  0  0  0  0
   25.0936  -21.7228   -7.1090 O   0  0  0  0  0  0  0  0  0  0  0  0
  2  1  1  0
  3  2  1  0
  4  3  2  0
  5  3  1  0
  6  5  1  0
  7  8  2  0
  7  6  1  0
  9  7  1  0
 10  9  1  0
 10 11  1  1
 11 12  1  0
 12 17  2  0
 12 13  1  0
 13 14  2  0
 14 15  1  0
 16 15  2  0
 17 16  1  0
 18 10  1  0
 19 18  2  0
 20 18  1  0
M  END
$$$$
