GGF.pdb
     RDKit          3D

 20 20  0  0  1  0  0  0  0  0999 V2000
   25.5322  -21.9034  -15.1296 N   0  0  0  0  0  0  0  0  0  0  0  0
   26.9260  -21.6961  -14.9959 C   0  0  0  0  0  0  0  0  0  0  0  0
   27.1759  -20.9219  -13.7395 C   0  0  0  0  0  0  0  0  0  0  0  0
   26.4429  -19.9556  -13.3984 O   0  0  0  0  0  0  0  0  0  0  0  0
   28.2597  -21.2534  -12.8792 N   0  0  0  0  0  0  0  0  0  0  0  0
   28.5338  -20.5200  -11.6704 C   0  0  0  0  0  0  0  0  0  0  0  0
   27.6386  -21.0453  -10.5856 C   0  0  0  0  0  0  0  0  0  0  0  0
   27.4687  -22.2918  -10.4170 O   0  0  0  0  0  0  0  0  0  0  0  0
   26.9411  -20.1881   -9.6992 N   0  0  0  0  0  0  0  0  0  0  0  0
   26.1664  -20.6727   -8.5900 C   0  0  1  0  0  0  0  0  0  0  0  0
   26.1348  -19.7183   -7.4249 C   0  0  0  0  0  0  0  0  0  0  0  0
   27.3370  -19.7957   -6.5819 C   0  0  0  0  0  0  0  0  0  0  0  0
   28.2328  -18.7495   -6.5243 C   0  0  0  0  0  0  0  0  0  0  0  0
   29.3761  -18.8116   -5.7287 C   0  0  0  0  0  0  0  0  0  0  0  0
   29.6492  -19.9242   -4.9714 C   0  0  0  0  0  0  0  0  0  0  0  0
   28.7597  -20.9751   -5.0225 C   0  0  0  0  0  0  0  0  0  0  0  0
   27.6289  -20.9051   -5.8139 C   0  0  0  0  0  0  0  0  0  0  0  0
   24.8032  -20.9918   -9.0781 C   0  0  0  0  0  0  0  0  0  0  0  0
   24.3580  -20.5651  -10.1772 O   0  0  0  0  0  0  0  0  0  0  0  0
   23.9315  -21.7910   -8.3366 O   0  0  0  0  0  0  0  0  0  0  0  0
  2  1  1  0
  3  2  1  0
  4  3  2  0
  5  3  1  0
  6  5  1  0
  7  8  2  0
  7  6  1  0
  9  7  1  0
 10  9  1  0
 10 11  1  1
 11 12  1  0
 12 17  2  0
 12 13  1  0
 13 14  2  0
 14 15  1  0
 16 15  2  0
 17 16  1  0
 18 10  1  0
 19 18  2  0
 20 18  1  0
M  END
$$$$
