FKE.pdb
     RDKit          3D

 30 30  0  0  1  0  0  0  0  0999 V2000
    5.8097  -17.7065   25.7979 N   0  0  0  0  0  0  0  0  0  0  0  0
    6.2858  -16.3650   25.5271 C   0  0  1  0  0  0  0  0  0  0  0  0
    6.9648  -15.8464   26.7770 C   0  0  0  0  0  0  0  0  0  0  0  0
    6.8591  -14.3506   26.7386 C   0  0  0  0  0  0  0  0  0  0  0  0
    7.9483  -13.5305   26.6582 C   0  0  0  0  0  0  0  0  0  0  0  0
    7.8501  -12.1460   26.6220 C   0  0  0  0  0  0  0  0  0  0  0  0
    6.6126  -11.5750   26.6683 C   0  0  0  0  0  0  0  0  0  0  0  0
    5.4797  -12.3797   26.7504 C   0  0  0  0  0  0  0  0  0  0  0  0
    5.5992  -13.7739   26.7859 C   0  0  0  0  0  0  0  0  0  0  0  0
    7.1644  -16.3756   24.3515 C   0  0  0  0  0  0  0  0  0  0  0  0
    8.0254  -17.2744   24.2289 O   0  0  0  0  0  0  0  0  0  0  0  0
    7.0773  -15.3877   23.3245 N   0  0  0  0  0  0  0  0  0  0  0  0
    7.9287  -15.3495   22.1769 C   0  0  1  0  0  0  0  0  0  0  0  0
    7.6878  -14.1269   21.3166 C   0  0  0  0  0  0  0  0  0  0  0  0
    8.5382  -14.1423   20.0739 C   0  0  0  0  0  0  0  0  0  0  0  0
    7.9096  -13.4083   18.9315 C   0  0  0  0  0  0  0  0  0  0  0  0
    8.6745  -13.5558   17.6431 C   0  0  0  0  0  0  0  0  0  0  0  0
    8.1060  -12.8165   16.5576 N   0  0  0  0  0  0  0  0  0  0  0  0
    9.3800  -15.3183   22.5655 C   0  0  0  0  0  0  0  0  0  0  0  0
    9.7662  -14.4523   23.3970 O   0  0  0  0  0  0  0  0  0  0  0  0
   10.2929  -16.2477   22.0039 N   0  0  0  0  0  0  0  0  0  0  0  0
   11.6279  -16.3709   22.5693 C   0  0  1  0  0  0  0  0  0  0  0  0
   11.7159  -17.5648   23.4671 C   0  0  0  0  0  0  0  0  0  0  0  0
   13.0762  -17.8961   23.9697 C   0  0  0  0  0  0  0  0  0  0  0  0
   13.0862  -19.0959   24.8046 C   0  0  0  0  0  0  0  0  0  0  0  0
   12.3612  -20.1002   24.5244 O   0  0  0  0  0  0  0  0  0  0  0  0
   12.6679  -16.3061   21.5216 C   0  0  0  0  0  0  0  0  0  0  0  0
   13.9682  -15.9119   21.7414 O   0  0  0  0  0  0  0  0  0  0  0  0
   13.8863  -19.1918   25.9381 O   0  0  0  0  0  0  0  0  0  0  0  0
   12.3661  -16.6288   20.3362 O   0  0  0  0  0  0  0  0  0  0  0  0
  2  1  1  1
  2 10  1  0
  3  2  1  0
  3  4  1  0
  4  5  2  0
  4  9  1  0
  5  6  1  0
  6  7  2  0
  8  7  1  0
  9  8  2  0
 10 11  2  0
 12 10  1  0
 12 13  1  0
 13 14  1  1
 15 14  1  0
 16 15  1  0
 17 16  1  0
 18 17  1  0
 19 13  1  0
 19 20  2  0
 21 19  1  0
 22 21  1  0
 22 27  1  0
 22 23  1  6
 24 23  1  0
 25 24  1  0
 25 26  2  0
 27 30  2  0
 27 28  1  0
 29 25  1  0
M  END
$$$$
