FKE.pdb
     RDKit          3D

 30 30  0  0  1  0  0  0  0  0999 V2000
   11.5678  -16.5296   20.5183 N   0  0  0  0  0  0  0  0  0  0  0  0
   10.5107  -15.7990   21.1878 C   0  0  1  0  0  0  0  0  0  0  0  0
    9.1936  -16.1910   20.5524 C   0  0  0  0  0  0  0  0  0  0  0  0
    8.3272  -14.9665   20.5601 C   0  0  0  0  0  0  0  0  0  0  0  0
    8.5289  -13.9081   19.7206 C   0  0  0  0  0  0  0  0  0  0  0  0
    7.7263  -12.7752   19.7276 C   0  0  0  0  0  0  0  0  0  0  0  0
    6.6888  -12.7121   20.6103 C   0  0  0  0  0  0  0  0  0  0  0  0
    6.4530  -13.7723   21.4811 C   0  0  0  0  0  0  0  0  0  0  0  0
    7.2735  -14.9061   21.4590 C   0  0  0  0  0  0  0  0  0  0  0  0
   10.5595  -16.0619   22.6309 C   0  0  0  0  0  0  0  0  0  0  0  0
   11.2535  -17.0070   23.0659 O   0  0  0  0  0  0  0  0  0  0  0  0
    9.8367  -15.2721   23.5755 N   0  0  0  0  0  0  0  0  0  0  0  0
    9.8981  -15.4628   24.9909 C   0  0  1  0  0  0  0  0  0  0  0  0
    8.7693  -14.7641   25.7195 C   0  0  0  0  0  0  0  0  0  0  0  0
    8.7937  -15.0551   27.1968 C   0  0  0  0  0  0  0  0  0  0  0  0
   10.0035  -14.4975   27.8782 C   0  0  0  0  0  0  0  0  0  0  0  0
    9.9909  -14.7085   29.3688 C   0  0  0  0  0  0  0  0  0  0  0  0
   11.0791  -14.0678   30.0420 N   0  0  0  0  0  0  0  0  0  0  0  0
    9.8067  -16.9172   25.3577 C   0  0  0  0  0  0  0  0  0  0  0  0
    8.7500  -17.5470   25.0797 O   0  0  0  0  0  0  0  0  0  0  0  0
   10.8916  -17.5631   26.0046 N   0  0  0  0  0  0  0  0  0  0  0  0
   10.7125  -18.9068   26.5330 C   0  0  1  0  0  0  0  0  0  0  0  0
   11.6657  -19.8626   25.8870 C   0  0  0  0  0  0  0  0  0  0  0  0
   12.0164  -19.5675   24.4719 C   0  0  0  0  0  0  0  0  0  0  0  0
   12.9773  -20.5231   23.9238 C   0  0  0  0  0  0  0  0  0  0  0  0
   13.3465  -21.5410   24.5873 O   0  0  0  0  0  0  0  0  0  0  0  0
   10.7338  -18.9151   28.0105 C   0  0  0  0  0  0  0  0  0  0  0  0
   10.9716  -17.8060   28.7900 O   0  0  0  0  0  0  0  0  0  0  0  0
   13.5279  -20.3619   22.6569 O   0  0  0  0  0  0  0  0  0  0  0  0
   10.5229  -20.0027   28.6215 O   0  0  0  0  0  0  0  0  0  0  0  0
  2  1  1  6
  2 10  1  0
  3  2  1  0
  3  4  1  0
  4  5  2  0
  4  9  1  0
  5  6  1  0
  6  7  2  0
  8  7  1  0
  9  8  2  0
 10 11  2  0
 12 10  1  0
 12 13  1  0
 13 14  1  1
 15 14  1  0
 16 15  1  0
 17 16  1  0
 18 17  1  0
 19 13  1  0
 19 20  2  0
 21 19  1  0
 22 21  1  0
 22 27  1  0
 22 23  1  6
 24 23  1  0
 25 24  1  0
 25 26  2  0
 27 30  2  0
 27 28  1  0
 29 25  1  0
M  END
$$$$
