FKE.pdb
     RDKit          3D

 30 30  0  0  1  0  0  0  0  0999 V2000
    5.9932  -17.7399   25.7088 N   0  0  0  0  0  0  0  0  0  0  0  0
    6.4069  -16.3862   25.3989 C   0  0  1  0  0  0  0  0  0  0  0  0
    7.1288  -15.8276   26.6068 C   0  0  0  0  0  0  0  0  0  0  0  0
    6.8147  -14.3618   26.6598 C   0  0  0  0  0  0  0  0  0  0  0  0
    5.5403  -13.8774   26.7434 C   0  0  0  0  0  0  0  0  0  0  0  0
    5.2500  -12.5206   26.7932 C   0  0  0  0  0  0  0  0  0  0  0  0
    6.2803  -11.6279   26.7576 C   0  0  0  0  0  0  0  0  0  0  0  0
    7.5923  -12.0853   26.6727 C   0  0  0  0  0  0  0  0  0  0  0  0
    7.8648  -13.4574   26.6234 C   0  0  0  0  0  0  0  0  0  0  0  0
    7.2253  -16.3816   24.1806 C   0  0  0  0  0  0  0  0  0  0  0  0
    8.0611  -17.2925   23.9915 O   0  0  0  0  0  0  0  0  0  0  0  0
    7.1064  -15.3651   23.1851 N   0  0  0  0  0  0  0  0  0  0  0  0
    7.9886  -15.2321   22.0682 C   0  0  1  0  0  0  0  0  0  0  0  0
    7.7198  -13.9781   21.2630 C   0  0  0  0  0  0  0  0  0  0  0  0
    8.6035  -13.8956   20.0465 C   0  0  0  0  0  0  0  0  0  0  0  0
    7.8337  -13.6601   18.7851 C   0  0  0  0  0  0  0  0  0  0  0  0
    8.7067  -13.6249   17.5590 C   0  0  0  0  0  0  0  0  0  0  0  0
    7.9688  -13.4897   16.3404 N   0  0  0  0  0  0  0  0  0  0  0  0
    9.4252  -15.1597   22.5034 C   0  0  0  0  0  0  0  0  0  0  0  0
    9.7164  -14.4730   23.5203 O   0  0  0  0  0  0  0  0  0  0  0  0
   10.4295  -15.8525   21.7796 N   0  0  0  0  0  0  0  0  0  0  0  0
   11.8183  -15.7440   22.1997 C   0  0  1  0  0  0  0  0  0  0  0  0
   11.9995  -16.2918   23.5804 C   0  0  0  0  0  0  0  0  0  0  0  0
   11.7172  -17.7434   23.7415 C   0  0  0  0  0  0  0  0  0  0  0  0
   11.2611  -18.0773   25.0896 C   0  0  0  0  0  0  0  0  0  0  0  0
   10.0242  -18.1450   25.3693 O   0  0  0  0  0  0  0  0  0  0  0  0
   12.7361  -16.3042   21.1861 C   0  0  0  0  0  0  0  0  0  0  0  0
   12.3283  -16.9102   20.0195 O   0  0  0  0  0  0  0  0  0  0  0  0
   12.1566  -18.3350   26.1220 O   0  0  0  0  0  0  0  0  0  0  0  0
   13.9840  -16.2343   21.3824 O   0  0  0  0  0  0  0  0  0  0  0  0
  2  1  1  1
  2 10  1  0
  3  2  1  0
  3  4  1  0
  4  5  2  0
  4  9  1  0
  5  6  1  0
  6  7  2  0
  8  7  1  0
  9  8  2  0
 10 11  2  0
 12 10  1  0
 12 13  1  0
 13 14  1  1
 15 14  1  0
 16 15  1  0
 17 16  1  0
 18 17  1  0
 19 13  1  0
 19 20  2  0
 21 19  1  0
 22 21  1  0
 22 27  1  0
 22 23  1  1
 24 23  1  0
 25 24  1  0
 25 26  2  0
 27 30  2  0
 27 28  1  0
 29 25  1  0
M  END
$$$$
