FKE.pdb
     RDKit          3D

 30 30  0  0  1  0  0  0  0  0999 V2000
    5.8040  -17.7038   25.5596 N   0  0  0  0  0  0  0  0  0  0  0  0
    6.3445  -16.3740   25.3612 C   0  0  1  0  0  0  0  0  0  0  0  0
    6.8339  -15.8617   26.6991 C   0  0  0  0  0  0  0  0  0  0  0  0
    6.8309  -14.3639   26.6170 C   0  0  0  0  0  0  0  0  0  0  0  0
    5.6839  -13.6257   26.5479 C   0  0  0  0  0  0  0  0  0  0  0  0
    5.6815  -12.2393   26.4727 C   0  0  0  0  0  0  0  0  0  0  0  0
    6.8757  -11.5809   26.4675 C   0  0  0  0  0  0  0  0  0  0  0  0
    8.0653  -12.3006   26.5368 C   0  0  0  0  0  0  0  0  0  0  0  0
    8.0470  -13.6982   26.6120 C   0  0  0  0  0  0  0  0  0  0  0  0
    7.3931  -16.4100   24.3350 C   0  0  0  0  0  0  0  0  0  0  0  0
    8.2639  -17.3070   24.3693 O   0  0  0  0  0  0  0  0  0  0  0  0
    7.4632  -15.4491   23.2814 N   0  0  0  0  0  0  0  0  0  0  0  0
    8.4736  -15.4431   22.2701 C   0  0  1  0  0  0  0  0  0  0  0  0
    8.3223  -14.2850   21.3062 C   0  0  0  0  0  0  0  0  0  0  0  0
    8.1415  -14.7588   19.8883 C   0  0  0  0  0  0  0  0  0  0  0  0
    8.2254  -13.6474   18.8900 C   0  0  0  0  0  0  0  0  0  0  0  0
    7.9460  -14.0977   17.4808 C   0  0  0  0  0  0  0  0  0  0  0  0
    8.0245  -13.0395   16.5206 N   0  0  0  0  0  0  0  0  0  0  0  0
    9.8494  -15.3272   22.8633 C   0  0  0  0  0  0  0  0  0  0  0  0
    9.9608  -15.0013   24.0765 O   0  0  0  0  0  0  0  0  0  0  0  0
   10.9968  -15.5806   22.0682 N   0  0  0  0  0  0  0  0  0  0  0  0
   12.1979  -16.1124   22.6937 C   0  0  1  0  0  0  0  0  0  0  0  0
   11.8928  -17.3702   23.4448 C   0  0  0  0  0  0  0  0  0  0  0  0
   12.1283  -17.3192   24.9126 C   0  0  0  0  0  0  0  0  0  0  0  0
   12.0286  -18.6357   25.5402 C   0  0  0  0  0  0  0  0  0  0  0  0
   11.7999  -19.6784   24.8524 O   0  0  0  0  0  0  0  0  0  0  0  0
   13.3089  -16.2234   21.7257 C   0  0  0  0  0  0  0  0  0  0  0  0
   14.6082  -15.8537   21.9889 O   0  0  0  0  0  0  0  0  0  0  0  0
   12.1793  -18.8053   26.9124 O   0  0  0  0  0  0  0  0  0  0  0  0
   13.0737  -16.6854   20.5716 O   0  0  0  0  0  0  0  0  0  0  0  0
  2  1  1  1
  2 10  1  0
  3  2  1  0
  3  4  1  0
  4  5  2  0
  4  9  1  0
  5  6  1  0
  6  7  2  0
  8  7  1  0
  9  8  2  0
 10 11  2  0
 12 10  1  0
 12 13  1  0
 13 14  1  6
 15 14  1  0
 16 15  1  0
 17 16  1  0
 18 17  1  0
 19 13  1  0
 19 20  2  0
 21 19  1  0
 22 21  1  0
 22 27  1  0
 22 23  1  6
 24 23  1  0
 25 24  1  0
 25 26  2  0
 27 30  2  0
 27 28  1  0
 29 25  1  0
M  END
$$$$
