FKE.pdb
     RDKit          3D

 30 30  0  0  1  0  0  0  0  0999 V2000
    7.4571  -15.6668   25.6620 N   0  0  0  0  0  0  0  0  0  0  0  0
    6.9339  -14.9396   24.5230 C   0  0  1  0  0  0  0  0  0  0  0  0
    7.3174  -13.4834   24.6792 C   0  0  0  0  0  0  0  0  0  0  0  0
    7.1625  -13.1480   26.1330 C   0  0  0  0  0  0  0  0  0  0  0  0
    8.0527  -13.5505   27.0875 C   0  0  0  0  0  0  0  0  0  0  0  0
    7.9094  -13.2393   28.4329 C   0  0  0  0  0  0  0  0  0  0  0  0
    6.8332  -12.4984   28.8235 C   0  0  0  0  0  0  0  0  0  0  0  0
    5.9053  -12.0704   27.8782 C   0  0  0  0  0  0  0  0  0  0  0  0
    6.0671  -12.3946   26.5261 C   0  0  0  0  0  0  0  0  0  0  0  0
    7.4289  -15.5396   23.2784 C   0  0  0  0  0  0  0  0  0  0  0  0
    7.9601  -16.6715   23.3040 O   0  0  0  0  0  0  0  0  0  0  0  0
    7.3283  -14.8758   22.0184 N   0  0  0  0  0  0  0  0  0  0  0  0
    8.0681  -15.2523   20.8546 C   0  0  1  0  0  0  0  0  0  0  0  0
    7.8663  -14.2901   19.7028 C   0  0  0  0  0  0  0  0  0  0  0  0
    8.5152  -14.7885   18.4387 C   0  0  0  0  0  0  0  0  0  0  0  0
    8.2405  -13.9090   17.2597 C   0  0  0  0  0  0  0  0  0  0  0  0
    8.6226  -14.5432   15.9487 C   0  0  0  0  0  0  0  0  0  0  0  0
    8.3344  -13.7196   14.8145 N   0  0  0  0  0  0  0  0  0  0  0  0
    9.5457  -15.2888   21.1259 C   0  0  0  0  0  0  0  0  0  0  0  0
   10.0083  -14.5765   22.0581 O   0  0  0  0  0  0  0  0  0  0  0  0
   10.3982  -16.1106   20.3445 N   0  0  0  0  0  0  0  0  0  0  0  0
   11.6675  -16.5565   20.8986 C   0  0  1  0  0  0  0  0  0  0  0  0
   11.4744  -17.1454   22.2607 C   0  0  0  0  0  0  0  0  0  0  0  0
   12.6751  -17.7825   22.8649 C   0  0  0  0  0  0  0  0  0  0  0  0
   12.4194  -18.2911   24.2113 C   0  0  0  0  0  0  0  0  0  0  0  0
   13.1609  -17.9674   25.1902 O   0  0  0  0  0  0  0  0  0  0  0  0
   12.3995  -17.4200   19.9489 C   0  0  0  0  0  0  0  0  0  0  0  0
   11.8059  -18.1385   18.9362 O   0  0  0  0  0  0  0  0  0  0  0  0
   11.3576  -19.1481   24.4803 O   0  0  0  0  0  0  0  0  0  0  0  0
   13.6561  -17.5217   20.0548 O   0  0  0  0  0  0  0  0  0  0  0  0
  2  1  1  1
  2 10  1  0
  3  2  1  0
  3  4  1  0
  4  5  2  0
  4  9  1  0
  5  6  1  0
  6  7  2  0
  8  7  1  0
  9  8  2  0
 10 11  2  0
 12 10  1  0
 12 13  1  0
 13 14  1  6
 15 14  1  0
 16 15  1  0
 17 16  1  0
 18 17  1  0
 19 13  1  0
 19 20  2  0
 21 19  1  0
 22 21  1  0
 22 27  1  0
 22 23  1  1
 24 23  1  0
 25 24  1  0
 25 26  2  0
 27 30  2  0
 27 28  1  0
 29 25  1  0
M  END
$$$$
