FKE.pdb
     RDKit          3D

 30 30  0  0  1  0  0  0  0  0999 V2000
    8.5130  -14.9747   25.1597 N   0  0  0  0  0  0  0  0  0  0  0  0
    7.4698  -15.8863   24.7349 C   0  0  1  0  0  0  0  0  0  0  0  0
    6.2032  -15.5329   25.4852 C   0  0  0  0  0  0  0  0  0  0  0  0
    6.3952  -14.1493   26.0319 C   0  0  0  0  0  0  0  0  0  0  0  0
    7.5166  -13.4061   25.7963 C   0  0  0  0  0  0  0  0  0  0  0  0
    7.6936  -12.1252   26.3020 C   0  0  0  0  0  0  0  0  0  0  0  0
    6.7060  -11.5805   27.0685 C   0  0  0  0  0  0  0  0  0  0  0  0
    5.5487  -12.3088   27.3295 C   0  0  0  0  0  0  0  0  0  0  0  0
    5.3888  -13.5990   26.8108 C   0  0  0  0  0  0  0  0  0  0  0  0
    7.3167  -15.8241   23.2766 C   0  0  0  0  0  0  0  0  0  0  0  0
    6.7459  -16.7587   22.6725 O   0  0  0  0  0  0  0  0  0  0  0  0
    7.7992  -14.7242   22.5047 N   0  0  0  0  0  0  0  0  0  0  0  0
    8.2579  -14.8340   21.1553 C   0  0  1  0  0  0  0  0  0  0  0  0
    8.3374  -13.4917   20.4589 C   0  0  0  0  0  0  0  0  0  0  0  0
    8.8104  -13.6282   19.0357 C   0  0  0  0  0  0  0  0  0  0  0  0
    7.7104  -13.9996   18.0918 C   0  0  0  0  0  0  0  0  0  0  0  0
    8.1840  -14.1750   16.6735 C   0  0  0  0  0  0  0  0  0  0  0  0
    7.1417  -14.5554   15.7698 N   0  0  0  0  0  0  0  0  0  0  0  0
    9.6345  -15.4327   21.0859 C   0  0  0  0  0  0  0  0  0  0  0  0
   10.5565  -14.9132   21.7718 O   0  0  0  0  0  0  0  0  0  0  0  0
    9.8854  -16.5603   20.2623 N   0  0  0  0  0  0  0  0  0  0  0  0
   11.2378  -17.0875   20.1629 C   0  0  1  0  0  0  0  0  0  0  0  0
   11.3439  -18.4104   20.8543 C   0  0  0  0  0  0  0  0  0  0  0  0
   11.2334  -18.3748   22.3372 C   0  0  0  0  0  0  0  0  0  0  0  0
   11.3541  -19.7019   22.9382 C   0  0  0  0  0  0  0  0  0  0  0  0
   12.4890  -20.1982   23.2181 O   0  0  0  0  0  0  0  0  0  0  0  0
   11.7216  -17.0781   18.7667 C   0  0  0  0  0  0  0  0  0  0  0  0
   12.9179  -16.5304   18.3629 O   0  0  0  0  0  0  0  0  0  0  0  0
   10.2369  -20.4773   23.2296 O   0  0  0  0  0  0  0  0  0  0  0  0
   11.0049  -17.6017   17.8652 O   0  0  0  0  0  0  0  0  0  0  0  0
  2  1  1  1
  2 10  1  0
  3  2  1  0
  3  4  1  0
  4  5  2  0
  4  9  1  0
  5  6  1  0
  6  7  2  0
  8  7  1  0
  9  8  2  0
 10 11  2  0
 12 10  1  0
 12 13  1  0
 13 14  1  1
 15 14  1  0
 16 15  1  0
 17 16  1  0
 18 17  1  0
 19 13  1  0
 19 20  2  0
 21 19  1  0
 22 21  1  0
 22 27  1  0
 22 23  1  6
 24 23  1  0
 25 24  1  0
 25 26  2  0
 27 30  2  0
 27 28  1  0
 29 25  1  0
M  END
$$$$
