FKE.pdb
     RDKit          3D

 30 30  0  0  1  0  0  0  0  0999 V2000
    5.6144  -17.7211   25.0756 N   0  0  0  0  0  0  0  0  0  0  0  0
    6.2275  -16.4087   25.0367 C   0  0  1  0  0  0  0  0  0  0  0  0
    6.5568  -16.0020   26.4574 C   0  0  0  0  0  0  0  0  0  0  0  0
    6.7323  -14.5122   26.4520 C   0  0  0  0  0  0  0  0  0  0  0  0
    5.6839  -13.6407   26.3687 C   0  0  0  0  0  0  0  0  0  0  0  0
    5.8468  -12.2619   26.3645 C   0  0  0  0  0  0  0  0  0  0  0  0
    7.1081  -11.7503   26.4473 C   0  0  0  0  0  0  0  0  0  0  0  0
    8.2008  -12.6085   26.5337 C   0  0  0  0  0  0  0  0  0  0  0  0
    8.0162  -13.9960   26.5363 C   0  0  0  0  0  0  0  0  0  0  0  0
    7.3995  -16.4318   24.1536 C   0  0  0  0  0  0  0  0  0  0  0  0
    8.2178  -17.3742   24.2337 O   0  0  0  0  0  0  0  0  0  0  0  0
    7.6499  -15.4079   23.1906 N   0  0  0  0  0  0  0  0  0  0  0  0
    8.7844  -15.3876   22.3212 C   0  0  1  0  0  0  0  0  0  0  0  0
    8.7537  -14.2220   21.3551 C   0  0  0  0  0  0  0  0  0  0  0  0
    8.1447  -14.6084   20.0331 C   0  0  0  0  0  0  0  0  0  0  0  0
    8.1820  -13.4984   19.0305 C   0  0  0  0  0  0  0  0  0  0  0  0
    7.4536  -13.8303   17.7553 C   0  0  0  0  0  0  0  0  0  0  0  0
    7.4869  -12.7736   16.7909 N   0  0  0  0  0  0  0  0  0  0  0  0
   10.0695  -15.2696   23.0912 C   0  0  0  0  0  0  0  0  0  0  0  0
   10.0501  -14.7080   24.2202 O   0  0  0  0  0  0  0  0  0  0  0  0
   11.2779  -15.7818   22.5525 N   0  0  0  0  0  0  0  0  0  0  0  0
   12.3379  -16.2102   23.4523 C   0  0  1  0  0  0  0  0  0  0  0  0
   11.8133  -17.1742   24.4695 C   0  0  0  0  0  0  0  0  0  0  0  0
   12.8254  -17.7526   25.3934 C   0  0  0  0  0  0  0  0  0  0  0  0
   12.2458  -18.7243   26.3191 C   0  0  0  0  0  0  0  0  0  0  0  0
   11.2259  -18.4399   27.0201 O   0  0  0  0  0  0  0  0  0  0  0  0
   13.5238  -16.6810   22.7069 C   0  0  0  0  0  0  0  0  0  0  0  0
   13.5537  -16.8898   21.3468 O   0  0  0  0  0  0  0  0  0  0  0  0
   12.7823  -19.9982   26.4731 O   0  0  0  0  0  0  0  0  0  0  0  0
   14.5938  -16.9151   23.3401 O   0  0  0  0  0  0  0  0  0  0  0  0
  2  1  1  1
  2 10  1  0
  3  2  1  0
  3  4  1  0
  4  5  2  0
  4  9  1  0
  5  6  1  0
  6  7  2  0
  8  7  1  0
  9  8  2  0
 10 11  2  0
 12 10  1  0
 12 13  1  0
 13 14  1  6
 15 14  1  0
 16 15  1  0
 17 16  1  0
 18 17  1  0
 19 13  1  0
 19 20  2  0
 21 19  1  0
 22 21  1  0
 22 27  1  0
 22 23  1  6
 24 23  1  0
 25 24  1  0
 25 26  2  0
 27 30  2  0
 27 28  1  0
 29 25  1  0
M  END
$$$$
