FKE.pdb
     RDKit          3D

 30 30  0  0  1  0  0  0  0  0999 V2000
    6.0804  -17.0730   25.7359 N   0  0  0  0  0  0  0  0  0  0  0  0
    6.6470  -15.8470   25.2109 C   0  0  1  0  0  0  0  0  0  0  0  0
    7.5568  -15.2595   26.2689 C   0  0  0  0  0  0  0  0  0  0  0  0
    7.1167  -13.8410   26.4797 C   0  0  0  0  0  0  0  0  0  0  0  0
    6.0960  -13.4965   27.3194 C   0  0  0  0  0  0  0  0  0  0  0  0
    5.6894  -12.1835   27.5148 C   0  0  0  0  0  0  0  0  0  0  0  0
    6.3355  -11.1898   26.8405 C   0  0  0  0  0  0  0  0  0  0  0  0
    7.3807  -11.5035   25.9762 C   0  0  0  0  0  0  0  0  0  0  0  0
    7.7760  -12.8336   25.7924 C   0  0  0  0  0  0  0  0  0  0  0  0
    7.3325  -16.1179   23.9418 C   0  0  0  0  0  0  0  0  0  0  0  0
    7.7812  -17.2623   23.7113 O   0  0  0  0  0  0  0  0  0  0  0  0
    7.5123  -15.1146   22.9421 N   0  0  0  0  0  0  0  0  0  0  0  0
    8.2128  -15.3255   21.7140 C   0  0  1  0  0  0  0  0  0  0  0  0
    7.9043  -14.2625   20.6805 C   0  0  0  0  0  0  0  0  0  0  0  0
    8.4671  -14.6172   19.3296 C   0  0  0  0  0  0  0  0  0  0  0  0
    8.1565  -13.5926   18.2843 C   0  0  0  0  0  0  0  0  0  0  0  0
    8.5352  -14.0330   16.8953 C   0  0  0  0  0  0  0  0  0  0  0  0
    8.2005  -13.0761   15.8853 N   0  0  0  0  0  0  0  0  0  0  0  0
    9.7018  -15.3046   21.9157 C   0  0  0  0  0  0  0  0  0  0  0  0
   10.1670  -14.7280   22.9363 O   0  0  0  0  0  0  0  0  0  0  0  0
   10.5621  -15.9232   20.9723 N   0  0  0  0  0  0  0  0  0  0  0  0
   11.7298  -16.6543   21.4400 C   0  0  1  0  0  0  0  0  0  0  0  0
   11.3435  -17.6684   22.4704 C   0  0  0  0  0  0  0  0  0  0  0  0
   11.9134  -17.4588   23.8283 C   0  0  0  0  0  0  0  0  0  0  0  0
   11.9770  -18.6960   24.6043 C   0  0  0  0  0  0  0  0  0  0  0  0
   12.8006  -19.6169   24.3105 O   0  0  0  0  0  0  0  0  0  0  0  0
   12.5219  -17.1881   20.3125 C   0  0  0  0  0  0  0  0  0  0  0  0
   13.8974  -17.1966   20.2651 O   0  0  0  0  0  0  0  0  0  0  0  0
   11.1428  -18.9195   25.6944 O   0  0  0  0  0  0  0  0  0  0  0  0
   11.9172  -17.6738   19.3130 O   0  0  0  0  0  0  0  0  0  0  0  0
  2  1  1  1
  2 10  1  0
  3  2  1  0
  3  4  1  0
  4  5  2  0
  4  9  1  0
  5  6  1  0
  6  7  2  0
  8  7  1  0
  9  8  2  0
 10 11  2  0
 12 10  1  0
 12 13  1  0
 13 14  1  6
 15 14  1  0
 16 15  1  0
 17 16  1  0
 18 17  1  0
 19 13  1  0
 19 20  2  0
 21 19  1  0
 22 21  1  0
 22 27  1  0
 22 23  1  1
 24 23  1  0
 25 24  1  0
 25 26  2  0
 27 30  2  0
 27 28  1  0
 29 25  1  0
M  END
$$$$
