FKE.pdb
     RDKit          3D

 30 30  0  0  1  0  0  0  0  0999 V2000
    5.7460  -17.5868   25.0123 N   0  0  0  0  0  0  0  0  0  0  0  0
    6.3252  -16.2621   24.9140 C   0  0  1  0  0  0  0  0  0  0  0  0
    7.1755  -16.0289   26.1447 C   0  0  0  0  0  0  0  0  0  0  0  0
    7.1301  -14.5570   26.4302 C   0  0  0  0  0  0  0  0  0  0  0  0
    8.2434  -13.7658   26.4329 C   0  0  0  0  0  0  0  0  0  0  0  0
    8.2009  -12.4033   26.6965 C   0  0  0  0  0  0  0  0  0  0  0  0
    6.9956  -11.8247   26.9650 C   0  0  0  0  0  0  0  0  0  0  0  0
    5.8395  -12.6001   26.9708 C   0  0  0  0  0  0  0  0  0  0  0  0
    5.9028  -13.9725   26.7028 C   0  0  0  0  0  0  0  0  0  0  0  0
    7.0754  -16.1379   23.6586 C   0  0  0  0  0  0  0  0  0  0  0  0
    7.7935  -17.0848   23.2690 O   0  0  0  0  0  0  0  0  0  0  0  0
    7.0198  -14.9630   22.8493 N   0  0  0  0  0  0  0  0  0  0  0  0
    7.8273  -14.7522   21.6888 C   0  0  1  0  0  0  0  0  0  0  0  0
    7.5613  -13.4136   21.0327 C   0  0  0  0  0  0  0  0  0  0  0  0
    8.4373  -13.1989   19.8268 C   0  0  0  0  0  0  0  0  0  0  0  0
    8.0376  -14.0473   18.6609 C   0  0  0  0  0  0  0  0  0  0  0  0
    8.9264  -13.8572   17.4606 C   0  0  0  0  0  0  0  0  0  0  0  0
    8.4964  -14.5961   16.3130 N   0  0  0  0  0  0  0  0  0  0  0  0
    9.2924  -14.7803   22.0216 C   0  0  0  0  0  0  0  0  0  0  0  0
    9.6917  -14.1714   23.0513 O   0  0  0  0  0  0  0  0  0  0  0  0
   10.2036  -15.4798   21.1891 N   0  0  0  0  0  0  0  0  0  0  0  0
   11.5670  -15.7004   21.6468 C   0  0  1  0  0  0  0  0  0  0  0  0
   11.5759  -16.3199   23.0089 C   0  0  0  0  0  0  0  0  0  0  0  0
   11.0460  -17.7074   23.0909 C   0  0  0  0  0  0  0  0  0  0  0  0
   11.2689  -18.3137   24.4022 C   0  0  0  0  0  0  0  0  0  0  0  0
   11.9160  -17.7042   25.3091 O   0  0  0  0  0  0  0  0  0  0  0  0
   12.3685  -16.4191   20.6346 C   0  0  0  0  0  0  0  0  0  0  0  0
   11.8526  -16.9709   19.4841 O   0  0  0  0  0  0  0  0  0  0  0  0
   10.7846  -19.5794   24.7148 O   0  0  0  0  0  0  0  0  0  0  0  0
   13.6137  -16.5491   20.8167 O   0  0  0  0  0  0  0  0  0  0  0  0
  2  1  1  1
  2 10  1  0
  3  2  1  0
  3  4  1  0
  4  5  2  0
  4  9  1  0
  5  6  1  0
  6  7  2  0
  8  7  1  0
  9  8  2  0
 10 11  2  0
 12 10  1  0
 12 13  1  0
 13 14  1  1
 15 14  1  0
 16 15  1  0
 17 16  1  0
 18 17  1  0
 19 13  1  0
 19 20  2  0
 21 19  1  0
 22 21  1  0
 22 27  1  0
 22 23  1  1
 24 23  1  0
 25 24  1  0
 25 26  2  0
 27 30  2  0
 27 28  1  0
 29 25  1  0
M  END
$$$$
