PQW.pdb
     RDKit          3D

 31 33  0  0  1  0  0  0  0  0999 V2000
   28.2409  -19.8577  -16.4211 N   0  0  0  0  0  0  0  0  0  0  0  0
   28.7464  -19.1552  -17.6213 C   0  0  0  0  0  0  0  0  0  0  0  0
   28.4347  -17.7307  -17.2116 C   0  0  0  0  0  0  0  0  0  0  0  0
   29.0004  -17.6921  -15.8140 C   0  0  0  0  0  0  0  0  0  0  0  0
   28.7302  -19.0914  -15.3167 C   0  0  1  0  0  0  0  0  0  0  0  0
   27.8310  -19.0167  -14.1524 C   0  0  0  0  0  0  0  0  0  0  0  0
   28.1550  -18.3049  -13.1379 O   0  0  0  0  0  0  0  0  0  0  0  0
   21.6332  -20.9114  -11.4220 N   0  0  0  0  0  0  0  0  0  0  0  0
   22.0370  -20.1283  -12.5378 C   0  0  0  0  0  0  0  0  0  0  0  0
   21.4143  -20.2363  -13.5956 O   0  0  0  0  0  0  0  0  0  0  0  0
   23.1863  -19.2203  -12.3715 C   0  0  0  0  0  0  0  0  0  0  0  0
   24.2273  -19.4952  -13.3832 C   0  0  0  0  0  0  0  0  0  0  0  0
   25.6475  -19.3930  -12.9361 C   0  0  2  0  0  0  0  0  0  0  0  0
   26.5829  -19.6829  -14.0291 N   0  0  0  0  0  0  0  0  0  0  0  0
   25.8790  -20.4448  -11.8998 C   0  0  0  0  0  0  0  0  0  0  0  0
   25.9160  -21.6444  -12.2614 O   0  0  0  0  0  0  0  0  0  0  0  0
   26.0587  -20.1786  -10.5407 N   0  0  0  0  0  0  0  0  0  0  0  0
   26.1960  -21.2338   -9.5090 C   0  0  1  0  0  0  0  0  0  0  0  0
   27.4609  -20.9934   -8.7775 C   0  0  0  0  0  0  0  0  0  0  0  0
   27.3513  -20.5047   -7.3953 C   0  0  0  0  0  0  0  0  0  0  0  0
   26.1506  -20.1529   -6.7621 C   0  0  0  0  0  0  0  0  0  0  0  0
   26.4028  -19.7182   -5.5189 N   0  0  0  0  0  0  0  0  0  0  0  0
   27.7240  -19.7843   -5.3442 C   0  0  0  0  0  0  0  0  0  0  0  0
   28.5133  -19.4704   -4.2421 C   0  0  0  0  0  0  0  0  0  0  0  0
   29.8714  -19.6388   -4.2929 C   0  0  0  0  0  0  0  0  0  0  0  0
   30.5120  -20.1167   -5.4119 C   0  0  0  0  0  0  0  0  0  0  0  0
   29.7309  -20.4238   -6.4946 C   0  0  0  0  0  0  0  0  0  0  0  0
   28.3608  -20.2599   -6.4616 C   0  0  0  0  0  0  0  0  0  0  0  0
   24.9463  -21.2241   -8.7411 C   0  0  0  0  0  0  0  0  0  0  0  0
   24.0854  -20.2793   -8.8742 O   0  0  0  0  0  0  0  0  0  0  0  0
   24.5560  -22.1918   -7.8226 O   0  0  0  0  0  0  0  0  0  0  0  0
  1  5  1  0
  2  1  1  0
  2  3  1  0
  3  4  1  0
  5  4  1  0
  6  7  2  0
  5  6  1  1
  8  9  1  0
  9 11  1  0
 10  9  2  0
 11 12  1  0
 13 12  1  6
 13 14  1  0
 14  6  1  0
 15 17  1  0
 15 13  1  0
 16 15  2  0
 18 17  1  0
 18 29  1  0
 18 19  1  1
 20 28  1  0
 20 19  1  0
 21 20  2  0
 22 21  1  0
 22 23  1  0
 23 28  2  0
 24 23  1  0
 24 25  2  0
 25 26  1  0
 27 26  2  0
 28 27  1  0
 29 31  1  0
 30 29  2  0
M  END
$$$$
