PQW.pdb
     RDKit          3D

 31 33  0  0  1  0  0  0  0  0999 V2000
   28.2084  -20.0599  -16.1985 N   0  0  0  0  0  0  0  0  0  0  0  0
   28.6762  -19.3865  -17.4303 C   0  0  0  0  0  0  0  0  0  0  0  0
   28.2311  -17.9740  -17.1125 C   0  0  0  0  0  0  0  0  0  0  0  0
   28.7603  -17.8032  -15.7105 C   0  0  0  0  0  0  0  0  0  0  0  0
   28.6037  -19.1895  -15.1344 C   0  0  1  0  0  0  0  0  0  0  0  0
   27.6761  -19.1275  -13.9918 C   0  0  0  0  0  0  0  0  0  0  0  0
   27.9029  -18.3169  -13.0263 O   0  0  0  0  0  0  0  0  0  0  0  0
   21.8721  -21.3053  -13.8364 N   0  0  0  0  0  0  0  0  0  0  0  0
   21.8367  -20.5400  -12.6388 C   0  0  0  0  0  0  0  0  0  0  0  0
   20.8163  -20.5642  -11.9484 O   0  0  0  0  0  0  0  0  0  0  0  0
   23.0302  -19.7525  -12.2804 C   0  0  0  0  0  0  0  0  0  0  0  0
   24.1252  -19.9846  -13.2446 C   0  0  0  0  0  0  0  0  0  0  0  0
   25.5042  -19.6275  -12.7996 C   0  0  2  0  0  0  0  0  0  0  0  0
   26.5005  -19.9094  -13.8396 N   0  0  0  0  0  0  0  0  0  0  0  0
   25.8534  -20.5034  -11.6400 C   0  0  0  0  0  0  0  0  0  0  0  0
   26.1746  -21.6941  -11.8639 O   0  0  0  0  0  0  0  0  0  0  0  0
   25.8454  -20.0805  -10.3090 N   0  0  0  0  0  0  0  0  0  0  0  0
   26.1432  -20.9718   -9.1629 C   0  0  1  0  0  0  0  0  0  0  0  0
   27.2950  -20.3999   -8.4287 C   0  0  0  0  0  0  0  0  0  0  0  0
   27.2831  -20.5258   -6.9640 C   0  0  0  0  0  0  0  0  0  0  0  0
   26.4799  -21.4207   -6.2426 C   0  0  0  0  0  0  0  0  0  0  0  0
   26.6875  -21.2591   -4.9277 N   0  0  0  0  0  0  0  0  0  0  0  0
   27.5965  -20.2916   -4.7932 C   0  0  0  0  0  0  0  0  0  0  0  0
   28.1790  -19.7416   -3.6556 C   0  0  0  0  0  0  0  0  0  0  0  0
   29.1182  -18.7513   -3.7687 C   0  0  0  0  0  0  0  0  0  0  0  0
   29.5258  -18.2598   -4.9866 C   0  0  0  0  0  0  0  0  0  0  0  0
   28.9492  -18.8039   -6.1037 C   0  0  0  0  0  0  0  0  0  0  0  0
   28.0006  -19.8021   -6.0088 C   0  0  0  0  0  0  0  0  0  0  0  0
   24.8813  -21.1425   -8.4351 C   0  0  0  0  0  0  0  0  0  0  0  0
   23.8592  -20.4043   -8.6839 O   0  0  0  0  0  0  0  0  0  0  0  0
   24.6454  -22.0818   -7.4379 O   0  0  0  0  0  0  0  0  0  0  0  0
  1  5  1  0
  2  1  1  0
  2  3  1  0
  3  4  1  0
  5  4  1  0
  6  7  2  0
  5  6  1  1
  8  9  1  0
  9 11  1  0
 10  9  2  0
 11 12  1  0
 13 12  1  6
 13 14  1  0
 14  6  1  0
 15 17  1  0
 15 13  1  0
 16 15  2  0
 18 17  1  0
 18 29  1  0
 18 19  1  1
 20 28  1  0
 20 19  1  0
 21 20  2  0
 22 21  1  0
 22 23  1  0
 23 28  2  0
 24 23  1  0
 24 25  2  0
 25 26  1  0
 27 26  2  0
 28 27  1  0
 29 31  1  0
 30 29  2  0
M  END
$$$$
