PQW.pdb
     RDKit          3D

 31 33  0  0  1  0  0  0  0  0999 V2000
   27.7675  -18.9552  -17.3358 N   0  0  0  0  0  0  0  0  0  0  0  0
   28.4977  -18.2078  -18.3834 C   0  0  0  0  0  0  0  0  0  0  0  0
   28.7158  -16.9069  -17.6387 C   0  0  0  0  0  0  0  0  0  0  0  0
   29.2502  -17.4050  -16.3192 C   0  0  0  0  0  0  0  0  0  0  0  0
   28.4933  -18.6971  -16.1304 C   0  0  1  0  0  0  0  0  0  0  0  0
   27.6746  -18.5946  -14.9102 C   0  0  0  0  0  0  0  0  0  0  0  0
   27.6779  -17.5116  -14.2262 O   0  0  0  0  0  0  0  0  0  0  0  0
   21.8289  -19.4910  -13.5459 N   0  0  0  0  0  0  0  0  0  0  0  0
   22.4388  -18.6024  -14.4731 C   0  0  0  0  0  0  0  0  0  0  0  0
   21.7224  -17.8415  -15.1260 O   0  0  0  0  0  0  0  0  0  0  0  0
   23.9065  -18.6353  -14.6065 C   0  0  0  0  0  0  0  0  0  0  0  0
   24.5007  -19.6075  -13.6659 C   0  0  0  0  0  0  0  0  0  0  0  0
   25.9213  -19.3813  -13.2684 C   0  0  2  0  0  0  0  0  0  0  0  0
   26.8422  -19.6188  -14.3861 N   0  0  0  0  0  0  0  0  0  0  0  0
   26.2702  -20.3879  -12.2201 C   0  0  0  0  0  0  0  0  0  0  0  0
   26.5480  -21.5559  -12.5800 O   0  0  0  0  0  0  0  0  0  0  0  0
   26.3079  -20.1121  -10.8516 N   0  0  0  0  0  0  0  0  0  0  0  0
   26.6252  -21.1263   -9.8185 C   0  0  1  0  0  0  0  0  0  0  0  0
   27.6967  -20.5778   -8.9560 C   0  0  0  0  0  0  0  0  0  0  0  0
   27.4004  -20.4500   -7.5217 C   0  0  0  0  0  0  0  0  0  0  0  0
   26.1831  -20.8002   -6.9201 C   0  0  0  0  0  0  0  0  0  0  0  0
   26.2308  -20.5308   -5.6073 N   0  0  0  0  0  0  0  0  0  0  0  0
   27.4390  -20.0222   -5.3583 C   0  0  0  0  0  0  0  0  0  0  0  0
   28.0171  -19.5898   -4.1687 C   0  0  0  0  0  0  0  0  0  0  0  0
   29.3009  -19.1132   -4.1561 C   0  0  0  0  0  0  0  0  0  0  0  0
   30.0690  -19.0389   -5.2943 C   0  0  0  0  0  0  0  0  0  0  0  0
   29.4956  -19.4651   -6.4631 C   0  0  0  0  0  0  0  0  0  0  0  0
   28.2029  -19.9479   -6.4947 C   0  0  0  0  0  0  0  0  0  0  0  0
   25.3506  -21.4836   -9.1868 C   0  0  0  0  0  0  0  0  0  0  0  0
   24.3511  -20.6758   -9.1911 O   0  0  0  0  0  0  0  0  0  0  0  0
   25.0785  -22.6840   -8.5409 O   0  0  0  0  0  0  0  0  0  0  0  0
  1  5  1  0
  2  1  1  0
  2  3  1  0
  3  4  1  0
  5  4  1  0
  6  7  2  0
  5  6  1  1
  8  9  1  0
  9 11  1  0
 10  9  2  0
 11 12  1  0
 13 12  1  6
 13 14  1  0
 14  6  1  0
 15 17  1  0
 15 13  1  0
 16 15  2  0
 18 17  1  0
 18 29  1  0
 18 19  1  1
 20 28  1  0
 20 19  1  0
 21 20  2  0
 22 21  1  0
 22 23  1  0
 23 28  2  0
 24 23  1  0
 24 25  2  0
 25 26  1  0
 27 26  2  0
 28 27  1  0
 29 31  1  0
 30 29  2  0
M  END
$$$$
