PQW.pdb
     RDKit          3D

 31 33  0  0  1  0  0  0  0  0999 V2000
   31.9260  -29.4710  -19.2788 N   0  0  0  0  0  0  0  0  0  0  0  0
   33.1347  -29.8917  -20.0214 C   0  0  0  0  0  0  0  0  0  0  0  0
   32.5263  -30.9981  -20.8580 C   0  0  0  0  0  0  0  0  0  0  0  0
   31.2981  -30.3158  -21.4065 C   0  0  0  0  0  0  0  0  0  0  0  0
   30.8927  -29.4137  -20.2663 C   0  0  1  0  0  0  0  0  0  0  0  0
   29.5521  -29.8089  -19.8009 C   0  0  0  0  0  0  0  0  0  0  0  0
   28.5765  -29.8612  -20.6293 O   0  0  0  0  0  0  0  0  0  0  0  0
   27.9998  -32.4753  -14.3695 N   0  0  0  0  0  0  0  0  0  0  0  0
   26.7252  -32.5153  -14.9980 C   0  0  0  0  0  0  0  0  0  0  0  0
   25.7842  -33.0400  -14.4000 O   0  0  0  0  0  0  0  0  0  0  0  0
   26.5925  -31.9222  -16.3410 C   0  0  0  0  0  0  0  0  0  0  0  0
   27.8753  -31.3450  -16.7927 C   0  0  0  0  0  0  0  0  0  0  0  0
   27.8699  -30.6281  -18.1016 C   0  0  2  0  0  0  0  0  0  0  0  0
   29.2101  -30.1543  -18.4666 N   0  0  0  0  0  0  0  0  0  0  0  0
   27.0226  -29.4061  -17.9519 C   0  0  0  0  0  0  0  0  0  0  0  0
   27.4713  -28.4438  -17.2859 O   0  0  0  0  0  0  0  0  0  0  0  0
   25.7504  -29.2624  -18.5099 N   0  0  0  0  0  0  0  0  0  0  0  0
   24.9677  -28.0050  -18.4553 C   0  0  1  0  0  0  0  0  0  0  0  0
   24.9553  -27.4170  -19.8143 C   0  0  0  0  0  0  0  0  0  0  0  0
   23.7999  -27.7303  -20.6677 C   0  0  0  0  0  0  0  0  0  0  0  0
   22.5124  -27.2007  -20.5002 C   0  0  0  0  0  0  0  0  0  0  0  0
   21.6865  -27.7132  -21.4240 N   0  0  0  0  0  0  0  0  0  0  0  0
   22.4095  -28.5494  -22.1712 C   0  0  0  0  0  0  0  0  0  0  0  0
   22.0547  -29.3284  -23.2682 C   0  0  0  0  0  0  0  0  0  0  0  0
   22.9895  -30.1094  -23.8940 C   0  0  0  0  0  0  0  0  0  0  0  0
   24.2996  -30.1631  -23.4795 C   0  0  0  0  0  0  0  0  0  0  0  0
   24.6441  -29.3949  -22.3988 C   0  0  0  0  0  0  0  0  0  0  0  0
   23.7151  -28.6023  -21.7555 C   0  0  0  0  0  0  0  0  0  0  0  0
   23.6793  -28.3481  -17.8439 C   0  0  0  0  0  0  0  0  0  0  0  0
   23.3503  -29.5691  -17.6149 O   0  0  0  0  0  0  0  0  0  0  0  0
   22.7045  -27.4382  -17.4513 O   0  0  0  0  0  0  0  0  0  0  0  0
  1  5  1  0
  2  1  1  0
  2  3  1  0
  3  4  1  0
  5  4  1  0
  6  7  2  0
  5  6  1  1
  8  9  1  0
  9 11  1  0
 10  9  2  0
 11 12  1  0
 13 12  1  1
 13 14  1  0
 14  6  1  0
 15 17  1  0
 15 13  1  0
 16 15  2  0
 18 17  1  0
 18 29  1  0
 18 19  1  6
 20 28  1  0
 20 19  1  0
 21 20  2  0
 22 21  1  0
 22 23  1  0
 23 28  2  0
 24 23  1  0
 24 25  2  0
 25 26  1  0
 27 26  2  0
 28 27  1  0
 29 31  1  0
 30 29  2  0
M  END
$$$$
