PQW.pdb
     RDKit          3D

 31 33  0  0  1  0  0  0  0  0999 V2000
   27.0300  -22.2252  -16.8362 N   0  0  0  0  0  0  0  0  0  0  0  0
   27.6586  -22.1027  -18.1701 C   0  0  0  0  0  0  0  0  0  0  0  0
   28.5338  -20.8941  -17.9101 C   0  0  0  0  0  0  0  0  0  0  0  0
   29.1956  -21.2795  -16.6108 C   0  0  0  0  0  0  0  0  0  0  0  0
   28.1053  -22.0520  -15.9088 C   0  0  1  0  0  0  0  0  0  0  0  0
   27.7558  -21.3529  -14.6603 C   0  0  0  0  0  0  0  0  0  0  0  0
   28.6530  -21.1455  -13.7699 O   0  0  0  0  0  0  0  0  0  0  0  0
   22.5904  -18.5633  -14.2854 N   0  0  0  0  0  0  0  0  0  0  0  0
   23.6695  -17.8262  -14.8453 C   0  0  0  0  0  0  0  0  0  0  0  0
   23.4220  -16.9451  -15.6704 O   0  0  0  0  0  0  0  0  0  0  0  0
   25.0381  -18.1542  -14.4069 C   0  0  0  0  0  0  0  0  0  0  0  0
   25.0191  -19.1571  -13.3220 C   0  0  0  0  0  0  0  0  0  0  0  0
   26.2413  -19.9976  -13.1576 C   0  0  2  0  0  0  0  0  0  0  0  0
   26.4671  -20.8612  -14.3225 N   0  0  0  0  0  0  0  0  0  0  0  0
   26.0160  -20.9130  -11.9978 C   0  0  0  0  0  0  0  0  0  0  0  0
   25.6427  -22.0877  -12.2255 O   0  0  0  0  0  0  0  0  0  0  0  0
   26.1948  -20.5439  -10.6628 N   0  0  0  0  0  0  0  0  0  0  0  0
   26.0092  -21.4726   -9.5228 C   0  0  1  0  0  0  0  0  0  0  0  0
   27.2614  -21.4790   -8.7323 C   0  0  0  0  0  0  0  0  0  0  0  0
   27.4548  -20.3778   -7.7777 C   0  0  0  0  0  0  0  0  0  0  0  0
   26.8229  -19.1284   -7.8561 C   0  0  0  0  0  0  0  0  0  0  0  0
   27.2408  -18.3440   -6.8520 N   0  0  0  0  0  0  0  0  0  0  0  0
   28.1160  -19.0565   -6.1400 C   0  0  0  0  0  0  0  0  0  0  0  0
   28.8346  -18.7327   -4.9934 C   0  0  0  0  0  0  0  0  0  0  0  0
   29.6756  -19.6498   -4.4216 C   0  0  0  0  0  0  0  0  0  0  0  0
   29.8498  -20.9116   -4.9399 C   0  0  0  0  0  0  0  0  0  0  0  0
   29.1407  -21.2256   -6.0691 C   0  0  0  0  0  0  0  0  0  0  0  0
   28.2890  -20.3138   -6.6592 C   0  0  0  0  0  0  0  0  0  0  0  0
   24.7743  -21.0566   -8.8495 C   0  0  0  0  0  0  0  0  0  0  0  0
   24.0122  -20.1498   -9.3479 O   0  0  0  0  0  0  0  0  0  0  0  0
   24.2968  -21.5708   -7.6496 O   0  0  0  0  0  0  0  0  0  0  0  0
  1  5  1  0
  2  1  1  0
  2  3  1  0
  3  4  1  0
  5  4  1  0
  6  7  2  0
  5  6  1  1
  8  9  1  0
  9 11  1  0
 10  9  2  0
 11 12  1  0
 13 12  1  6
 13 14  1  0
 14  6  1  0
 15 17  1  0
 15 13  1  0
 16 15  2  0
 18 17  1  0
 18 29  1  0
 18 19  1  1
 20 28  1  0
 20 19  1  0
 21 20  2  0
 22 21  1  0
 22 23  1  0
 23 28  2  0
 24 23  1  0
 24 25  2  0
 25 26  1  0
 27 26  2  0
 28 27  1  0
 29 31  1  0
 30 29  2  0
M  END
$$$$
