PQW.pdb
     RDKit          3D

 31 33  0  0  1  0  0  0  0  0999 V2000
   29.5707  -22.0175  -11.5505 N   0  0  0  0  0  0  0  0  0  0  0  0
   30.9104  -22.0477  -10.9230 C   0  0  0  0  0  0  0  0  0  0  0  0
   31.0526  -20.5756  -10.5958 C   0  0  0  0  0  0  0  0  0  0  0  0
   29.7294  -20.2890   -9.9312 C   0  0  0  0  0  0  0  0  0  0  0  0
   28.7841  -21.1871  -10.6915 C   0  0  1  0  0  0  0  0  0  0  0  0
   27.7770  -20.3525  -11.3690 C   0  0  0  0  0  0  0  0  0  0  0  0
   27.0555  -19.5413  -10.6892 O   0  0  0  0  0  0  0  0  0  0  0  0
   27.5707  -18.4656  -17.2773 N   0  0  0  0  0  0  0  0  0  0  0  0
   28.2866  -17.7489  -16.2797 C   0  0  0  0  0  0  0  0  0  0  0  0
   29.1206  -16.9130  -16.6322 O   0  0  0  0  0  0  0  0  0  0  0  0
   27.9925  -18.0428  -14.8655 C   0  0  0  0  0  0  0  0  0  0  0  0
   26.9130  -19.0446  -14.7476 C   0  0  0  0  0  0  0  0  0  0  0  0
   26.5180  -19.4530  -13.3676 C   0  0  2  0  0  0  0  0  0  0  0  0
   27.5078  -20.3524  -12.7633 N   0  0  0  0  0  0  0  0  0  0  0  0
   25.2490  -20.2362  -13.4663 C   0  0  0  0  0  0  0  0  0  0  0  0
   25.2304  -21.4060  -13.0167 O   0  0  0  0  0  0  0  0  0  0  0  0
   24.0694  -19.7476  -14.0323 N   0  0  0  0  0  0  0  0  0  0  0  0
   22.7157  -20.1251  -13.5617 C   0  0  1  0  0  0  0  0  0  0  0  0
   22.6808  -19.9543  -12.0912 C   0  0  0  0  0  0  0  0  0  0  0  0
   21.3783  -20.1195  -11.4298 C   0  0  0  0  0  0  0  0  0  0  0  0
   21.0419  -21.1786  -10.5746 C   0  0  0  0  0  0  0  0  0  0  0  0
   19.7710  -21.0476  -10.1670 N   0  0  0  0  0  0  0  0  0  0  0  0
   19.2924  -19.9396  -10.7358 C   0  0  0  0  0  0  0  0  0  0  0  0
   18.0428  -19.3348  -10.6413 C   0  0  0  0  0  0  0  0  0  0  0  0
   17.7842  -18.1713  -11.3158 C   0  0  0  0  0  0  0  0  0  0  0  0
   18.7261  -17.5534  -12.1045 C   0  0  0  0  0  0  0  0  0  0  0  0
   19.9546  -18.1528  -12.1950 C   0  0  0  0  0  0  0  0  0  0  0  0
   20.2328  -19.3257  -11.5227 C   0  0  0  0  0  0  0  0  0  0  0  0
   21.7679  -19.3464  -14.3660 C   0  0  0  0  0  0  0  0  0  0  0  0
   20.5574  -19.7401  -14.5427 O   0  0  0  0  0  0  0  0  0  0  0  0
   22.0477  -18.1422  -15.0014 O   0  0  0  0  0  0  0  0  0  0  0  0
  1  5  1  0
  2  1  1  0
  2  3  1  0
  3  4  1  0
  5  4  1  0
  6  7  2  0
  5  6  1  6
  8  9  1  0
  9 11  1  0
 10  9  2  0
 11 12  1  0
 13 12  1  6
 13 14  1  0
 14  6  1  0
 15 17  1  0
 15 13  1  0
 16 15  2  0
 18 17  1  0
 18 29  1  0
 18 19  1  1
 20 28  1  0
 20 19  1  0
 21 20  2  0
 22 21  1  0
 22 23  1  0
 23 28  2  0
 24 23  1  0
 24 25  2  0
 25 26  1  0
 27 26  2  0
 28 27  1  0
 29 31  1  0
 30 29  2  0
M  END
$$$$
