PQW.pdb
     RDKit          3D

 31 33  0  0  1  0  0  0  0  0999 V2000
   27.9575  -20.8754  -16.2800 N   0  0  0  0  0  0  0  0  0  0  0  0
   28.3928  -20.3615  -17.5974 C   0  0  0  0  0  0  0  0  0  0  0  0
   28.2826  -18.8763  -17.3213 C   0  0  0  0  0  0  0  0  0  0  0  0
   29.0063  -18.7639  -16.0028 C   0  0  0  0  0  0  0  0  0  0  0  0
   28.6488  -20.0646  -15.3255 C   0  0  1  0  0  0  0  0  0  0  0  0
   27.9026  -19.7681  -14.0906 C   0  0  0  0  0  0  0  0  0  0  0  0
   28.4038  -18.9811  -13.2130 O   0  0  0  0  0  0  0  0  0  0  0  0
   21.8187  -19.0888  -13.4975 N   0  0  0  0  0  0  0  0  0  0  0  0
   22.7226  -18.3448  -14.3042 C   0  0  0  0  0  0  0  0  0  0  0  0
   22.2671  -17.5878  -15.1631 O   0  0  0  0  0  0  0  0  0  0  0  0
   24.1678  -18.5166  -14.0699 C   0  0  0  0  0  0  0  0  0  0  0  0
   24.4163  -19.5239  -13.0181 C   0  0  0  0  0  0  0  0  0  0  0  0
   25.8384  -19.7607  -12.6320 C   0  0  2  0  0  0  0  0  0  0  0  0
   26.6249  -20.2879  -13.7533 N   0  0  0  0  0  0  0  0  0  0  0  0
   25.8571  -20.8186  -11.5764 C   0  0  0  0  0  0  0  0  0  0  0  0
   25.7000  -22.0130  -11.9223 O   0  0  0  0  0  0  0  0  0  0  0  0
   26.0396  -20.5634  -10.2155 N   0  0  0  0  0  0  0  0  0  0  0  0
   25.9884  -21.6125   -9.1698 C   0  0  1  0  0  0  0  0  0  0  0  0
   27.2494  -21.5462   -8.3963 C   0  0  0  0  0  0  0  0  0  0  0  0
   27.4036  -20.4194   -7.4647 C   0  0  0  0  0  0  0  0  0  0  0  0
   26.6856  -19.2169   -7.5349 C   0  0  0  0  0  0  0  0  0  0  0  0
   27.0870  -18.3903   -6.5583 N   0  0  0  0  0  0  0  0  0  0  0  0
   28.0352  -19.0306   -5.8718 C   0  0  0  0  0  0  0  0  0  0  0  0
   28.7734  -18.6408   -4.7585 C   0  0  0  0  0  0  0  0  0  0  0  0
   29.6962  -19.4898   -4.2080 C   0  0  0  0  0  0  0  0  0  0  0  0
   29.9360  -20.7450   -4.7160 C   0  0  0  0  0  0  0  0  0  0  0  0
   29.2074  -21.1241   -5.8123 C   0  0  0  0  0  0  0  0  0  0  0  0
   28.2736  -20.2814   -6.3807 C   0  0  0  0  0  0  0  0  0  0  0  0
   24.7281  -21.4122   -8.4467 C   0  0  0  0  0  0  0  0  0  0  0  0
   23.9473  -20.4289   -8.7208 O   0  0  0  0  0  0  0  0  0  0  0  0
   24.2440  -22.2250   -7.4282 O   0  0  0  0  0  0  0  0  0  0  0  0
  1  5  1  0
  2  1  1  0
  2  3  1  0
  3  4  1  0
  5  4  1  0
  6  7  2  0
  5  6  1  1
  8  9  1  0
  9 11  1  0
 10  9  2  0
 11 12  1  0
 13 12  1  6
 13 14  1  0
 14  6  1  0
 15 17  1  0
 15 13  1  0
 16 15  2  0
 18 17  1  0
 18 29  1  0
 18 19  1  1
 20 28  1  0
 20 19  1  0
 21 20  2  0
 22 21  1  0
 22 23  1  0
 23 28  2  0
 24 23  1  0
 24 25  2  0
 25 26  1  0
 27 26  2  0
 28 27  1  0
 29 31  1  0
 30 29  2  0
M  END
$$$$
