PQW.pdb
     RDKit          3D

 31 33  0  0  1  0  0  0  0  0999 V2000
   30.1310  -24.4523  -16.4237 N   0  0  0  0  0  0  0  0  0  0  0  0
   31.2400  -24.8545  -17.3169 C   0  0  0  0  0  0  0  0  0  0  0  0
   30.5634  -24.6269  -18.6529 C   0  0  0  0  0  0  0  0  0  0  0  0
   29.9865  -23.2463  -18.4633 C   0  0  0  0  0  0  0  0  0  0  0  0
   29.6168  -23.2482  -16.9998 C   0  0  1  0  0  0  0  0  0  0  0  0
   28.1609  -23.0611  -16.8771 C   0  0  0  0  0  0  0  0  0  0  0  0
   27.6193  -21.9719  -17.2786 O   0  0  0  0  0  0  0  0  0  0  0  0
   23.7689  -27.3925  -16.1080 N   0  0  0  0  0  0  0  0  0  0  0  0
   22.9322  -26.2472  -16.0098 C   0  0  0  0  0  0  0  0  0  0  0  0
   21.7194  -26.4084  -15.8635 O   0  0  0  0  0  0  0  0  0  0  0  0
   23.5619  -24.9166  -16.0872 C   0  0  0  0  0  0  0  0  0  0  0  0
   25.0299  -25.0330  -16.2060 C   0  0  0  0  0  0  0  0  0  0  0  0
   25.8040  -23.7598  -16.2896 C   0  0  2  0  0  0  0  0  0  0  0  0
   27.2502  -24.0056  -16.3339 N   0  0  0  0  0  0  0  0  0  0  0  0
   25.5513  -22.9861  -15.0361 C   0  0  0  0  0  0  0  0  0  0  0  0
   26.3945  -23.0520  -14.1110 O   0  0  0  0  0  0  0  0  0  0  0  0
   24.4266  -22.1860  -14.8232 N   0  0  0  0  0  0  0  0  0  0  0  0
   24.2163  -21.3743  -13.6011 C   0  0  1  0  0  0  0  0  0  0  0  0
   25.3553  -20.4363  -13.4761 C   0  0  0  0  0  0  0  0  0  0  0  0
   25.4926  -19.4089  -14.5187 C   0  0  0  0  0  0  0  0  0  0  0  0
   24.4676  -18.5476  -14.9355 C   0  0  0  0  0  0  0  0  0  0  0  0
   24.9126  -17.7554  -15.9217 N   0  0  0  0  0  0  0  0  0  0  0  0
   26.1862  -18.0868  -16.1422 C   0  0  0  0  0  0  0  0  0  0  0  0
   27.1181  -17.5735  -17.0389 C   0  0  0  0  0  0  0  0  0  0  0  0
   28.3935  -18.0712  -17.0723 C   0  0  0  0  0  0  0  0  0  0  0  0
   28.8104  -19.0826  -16.2390 C   0  0  0  0  0  0  0  0  0  0  0  0
   27.8893  -19.5851  -15.3584 C   0  0  0  0  0  0  0  0  0  0  0  0
   26.5995  -19.0961  -15.3111 C   0  0  0  0  0  0  0  0  0  0  0  0
   22.8682  -20.8068  -13.7104 C   0  0  0  0  0  0  0  0  0  0  0  0
   22.1563  -20.9699  -14.7678 O   0  0  0  0  0  0  0  0  0  0  0  0
   22.2239  -20.0626  -12.7290 O   0  0  0  0  0  0  0  0  0  0  0  0
  1  5  1  0
  2  1  1  0
  2  3  1  0
  3  4  1  0
  5  4  1  0
  6  7  2  0
  5  6  1  6
  8  9  1  0
  9 11  1  0
 10  9  2  0
 11 12  1  0
 13 12  1  1
 13 14  1  0
 14  6  1  0
 15 17  1  0
 15 13  1  0
 16 15  2  0
 18 17  1  0
 18 29  1  0
 18 19  1  6
 20 28  1  0
 20 19  1  0
 21 20  2  0
 22 21  1  0
 22 23  1  0
 23 28  2  0
 24 23  1  0
 24 25  2  0
 25 26  1  0
 27 26  2  0
 28 27  1  0
 29 31  1  0
 30 29  2  0
M  END
$$$$
