PQW.pdb
     RDKit          3D

 31 33  0  0  1  0  0  0  0  0999 V2000
   26.8274  -18.2021  -15.0961 N   0  0  0  0  0  0  0  0  0  0  0  0
   27.9281  -17.2195  -14.9861 C   0  0  0  0  0  0  0  0  0  0  0  0
   29.0067  -17.9877  -15.7216 C   0  0  0  0  0  0  0  0  0  0  0  0
   28.2718  -18.4134  -16.9680 C   0  0  0  0  0  0  0  0  0  0  0  0
   26.8726  -18.6502  -16.4539 C   0  0  1  0  0  0  0  0  0  0  0  0
   26.5222  -20.0655  -16.6637 C   0  0  0  0  0  0  0  0  0  0  0  0
   26.1770  -20.4738  -17.8277 O   0  0  0  0  0  0  0  0  0  0  0  0
   29.4386  -25.0018  -15.9915 N   0  0  0  0  0  0  0  0  0  0  0  0
   29.4792  -23.9721  -16.9709 C   0  0  0  0  0  0  0  0  0  0  0  0
   30.4700  -23.8827  -17.6980 O   0  0  0  0  0  0  0  0  0  0  0  0
   28.3263  -23.0586  -17.0687 C   0  0  0  0  0  0  0  0  0  0  0  0
   27.3225  -23.3617  -16.0279 C   0  0  0  0  0  0  0  0  0  0  0  0
   26.1363  -22.4593  -15.9503 C   0  0  2  0  0  0  0  0  0  0  0  0
   26.5260  -21.0738  -15.6638 N   0  0  0  0  0  0  0  0  0  0  0  0
   25.2970  -22.9031  -14.7960 C   0  0  0  0  0  0  0  0  0  0  0  0
   25.3178  -24.1133  -14.4704 O   0  0  0  0  0  0  0  0  0  0  0  0
   24.4817  -22.0513  -14.0476 N   0  0  0  0  0  0  0  0  0  0  0  0
   24.6560  -21.8156  -12.5948 C   0  0  1  0  0  0  0  0  0  0  0  0
   26.0647  -21.4219  -12.3632 C   0  0  0  0  0  0  0  0  0  0  0  0
   26.4204  -20.9779  -11.0076 C   0  0  0  0  0  0  0  0  0  0  0  0
   25.4983  -20.6304  -10.0099 C   0  0  0  0  0  0  0  0  0  0  0  0
   26.1500  -20.2408   -8.9046 N   0  0  0  0  0  0  0  0  0  0  0  0
   27.4546  -20.3313   -9.1698 C   0  0  0  0  0  0  0  0  0  0  0  0
   28.5656  -20.0653   -8.3755 C   0  0  0  0  0  0  0  0  0  0  0  0
   29.8296  -20.2511   -8.8687 C   0  0  0  0  0  0  0  0  0  0  0  0
   30.0615  -20.7006  -10.1474 C   0  0  0  0  0  0  0  0  0  0  0  0
   28.9647  -20.9605  -10.9260 C   0  0  0  0  0  0  0  0  0  0  0  0
   27.6835  -20.7785  -10.4458 C   0  0  0  0  0  0  0  0  0  0  0  0
   23.6055  -20.8703  -12.2019 C   0  0  0  0  0  0  0  0  0  0  0  0
   23.2900  -19.8717  -12.9467 O   0  0  0  0  0  0  0  0  0  0  0  0
   22.8548  -20.9379  -11.0340 O   0  0  0  0  0  0  0  0  0  0  0  0
  1  5  1  0
  2  1  1  0
  2  3  1  0
  3  4  1  0
  5  4  1  0
  6  7  2  0
  5  6  1  1
  8  9  1  0
  9 11  1  0
 10  9  2  0
 11 12  1  0
 13 12  1  1
 13 14  1  0
 14  6  1  0
 15 17  1  0
 15 13  1  0
 16 15  2  0
 18 17  1  0
 18 29  1  0
 18 19  1  6
 20 28  1  0
 20 19  1  0
 21 20  2  0
 22 21  1  0
 22 23  1  0
 23 28  2  0
 24 23  1  0
 24 25  2  0
 25 26  1  0
 27 26  2  0
 28 27  1  0
 29 31  1  0
 30 29  2  0
M  END
$$$$
