KTF.pdb
     RDKit          3D

 28 28  0  0  1  0  0  0  0  0999 V2000
   25.7303  -22.9125  -11.0037 N   0  0  0  0  0  0  0  0  0  0  0  0
   25.4682  -21.5151  -10.9925 C   0  0  1  0  0  0  0  0  0  0  0  0
   26.0104  -20.7908   -9.8372 C   0  0  0  0  0  0  0  0  0  0  0  0
   25.3861  -20.8686   -8.5297 C   0  0  0  0  0  0  0  0  0  0  0  0
   24.2231  -21.6161   -8.1130 C   0  0  0  0  0  0  0  0  0  0  0  0
   23.6131  -21.5289   -6.7701 C   0  0  0  0  0  0  0  0  0  0  0  0
   22.4571  -22.5068   -6.8169 N   0  0  0  0  0  0  0  0  0  0  0  0
   25.9938  -20.9535  -12.2978 C   0  0  0  0  0  0  0  0  0  0  0  0
   26.9403  -21.5580  -12.8400 O   0  0  0  0  0  0  0  0  0  0  0  0
   25.9541  -21.7375  -14.9807 C   0  0  0  0  0  0  0  0  0  0  0  0
   25.2516  -20.4278  -15.2018 C   0  0  1  0  0  0  0  0  0  0  0  0
   23.8721  -20.5619  -14.9908 O   0  0  0  0  0  0  0  0  0  0  0  0
   25.8265  -19.3697  -14.2505 C   0  0  2  0  0  0  0  0  0  0  0  0
   25.4732  -19.8042  -12.9137 N   0  0  0  0  0  0  0  0  0  0  0  0
   25.1633  -18.0593  -14.5651 C   0  0  0  0  0  0  0  0  0  0  0  0
   24.0079  -17.7741  -14.1429 O   0  0  0  0  0  0  0  0  0  0  0  0
   25.7971  -17.0683  -15.3533 N   0  0  0  0  0  0  0  0  0  0  0  0
   25.2370  -15.7352  -15.5669 C   0  0  1  0  0  0  0  0  0  0  0  0
   26.4736  -14.8345  -15.6586 C   0  0  0  0  0  0  0  0  0  0  0  0
   27.4493  -15.2487  -16.6410 C   0  0  0  0  0  0  0  0  0  0  0  0
   27.5392  -14.6266  -17.8608 C   0  0  0  0  0  0  0  0  0  0  0  0
   28.4867  -15.0331  -18.8069 C   0  0  0  0  0  0  0  0  0  0  0  0
   29.3478  -16.0681  -18.5285 C   0  0  0  0  0  0  0  0  0  0  0  0
   29.2605  -16.6939  -17.3072 C   0  0  0  0  0  0  0  0  0  0  0  0
   28.3201  -16.2821  -16.3823 C   0  0  0  0  0  0  0  0  0  0  0  0
   24.4436  -15.6501  -16.7867 C   0  0  0  0  0  0  0  0  0  0  0  0
   23.8578  -14.5894  -17.0908 O   0  0  0  0  0  0  0  0  0  0  0  0
   24.3259  -16.7364  -17.6255 O   0  0  0  0  0  0  0  0  0  0  0  0
  2  1  1  1
  2  3  1  0
  4  3  1  0
  5  6  1  0
  5  4  1  0
  7  6  1  0
  8  9  2  0
  8  2  1  0
 11 10  1  1
 11 13  1  0
 12 11  1  0
 13 14  1  1
 14  8  1  0
 15 16  2  0
 15 13  1  0
 17 15  1  0
 18 19  1  6
 18 17  1  0
 20 19  1  0
 20 21  2  0
 22 21  1  0
 23 22  2  0
 24 25  2  0
 24 23  1  0
 25 20  1  0
 26 18  1  0
 27 26  2  0
 28 26  1  0
M  END
$$$$
