KTF.pdb
     RDKit          3D

 28 28  0  0  1  0  0  0  0  0999 V2000
   26.4867  -22.1101  -17.2650 N   0  0  0  0  0  0  0  0  0  0  0  0
   26.6159  -22.6655  -15.9625 C   0  0  1  0  0  0  0  0  0  0  0  0
   27.6078  -23.7401  -15.8412 C   0  0  0  0  0  0  0  0  0  0  0  0
   27.2576  -25.1282  -16.0774 C   0  0  0  0  0  0  0  0  0  0  0  0
   26.0096  -25.6931  -16.5338 C   0  0  0  0  0  0  0  0  0  0  0  0
   25.8645  -27.0544  -17.0896 C   0  0  0  0  0  0  0  0  0  0  0  0
   25.2200  -27.8506  -15.9734 N   0  0  0  0  0  0  0  0  0  0  0  0
   26.9188  -21.5198  -15.0185 C   0  0  0  0  0  0  0  0  0  0  0  0
   27.2962  -20.4452  -15.5266 O   0  0  0  0  0  0  0  0  0  0  0  0
   25.7215  -19.1161  -14.5086 C   0  0  0  0  0  0  0  0  0  0  0  0
   25.5699  -19.6354  -13.1068 C   0  0  1  0  0  0  0  0  0  0  0  0
   24.4114  -20.4159  -12.9885 O   0  0  0  0  0  0  0  0  0  0  0  0
   26.8030  -20.4682  -12.7315 C   0  0  2  0  0  0  0  0  0  0  0  0
   26.7962  -21.6111  -13.6228 N   0  0  0  0  0  0  0  0  0  0  0  0
   26.6393  -20.9167  -11.3075 C   0  0  0  0  0  0  0  0  0  0  0  0
   26.2645  -22.0857  -11.0114 O   0  0  0  0  0  0  0  0  0  0  0  0
   26.8967  -20.0533  -10.2151 N   0  0  0  0  0  0  0  0  0  0  0  0
   26.9659  -20.5132   -8.8293 C   0  0  1  0  0  0  0  0  0  0  0  0
   27.9686  -19.5532   -8.1800 C   0  0  0  0  0  0  0  0  0  0  0  0
   28.1669  -19.7568   -6.7629 C   0  0  0  0  0  0  0  0  0  0  0  0
   29.1339  -20.6106   -6.2952 C   0  0  0  0  0  0  0  0  0  0  0  0
   29.3201  -20.8025   -4.9217 C   0  0  0  0  0  0  0  0  0  0  0  0
   28.5332  -20.1350   -4.0132 C   0  0  0  0  0  0  0  0  0  0  0  0
   27.5631  -19.2785   -4.4783 C   0  0  0  0  0  0  0  0  0  0  0  0
   27.3902  -19.0986   -5.8374 C   0  0  0  0  0  0  0  0  0  0  0  0
   25.6764  -20.4494   -8.1530 C   0  0  0  0  0  0  0  0  0  0  0  0
   24.8156  -19.6147   -8.5039 O   0  0  0  0  0  0  0  0  0  0  0  0
   25.3837  -21.3075   -7.1159 O   0  0  0  0  0  0  0  0  0  0  0  0
  2  1  1  6
  2  3  1  0
  4  3  1  0
  5  6  1  0
  5  4  1  0
  7  6  1  0
  8  9  2  0
  8  2  1  0
 11 10  1  6
 11 13  1  0
 12 11  1  0
 13 14  1  6
 14  8  1  0
 15 16  2  0
 15 13  1  0
 17 15  1  0
 18 19  1  1
 18 17  1  0
 20 19  1  0
 20 21  2  0
 22 21  1  0
 23 22  2  0
 24 25  2  0
 24 23  1  0
 25 20  1  0
 26 18  1  0
 27 26  2  0
 28 26  1  0
M  END
$$$$
