KTF.pdb
     RDKit          3D

 28 28  0  0  1  0  0  0  0  0999 V2000
   26.0680  -18.1823  -18.7197 N   0  0  0  0  0  0  0  0  0  0  0  0
   25.5391  -17.8626  -17.4392 C   0  0  1  0  0  0  0  0  0  0  0  0
   24.8715  -16.5589  -17.3509 C   0  0  0  0  0  0  0  0  0  0  0  0
   25.5395  -15.3340  -17.7494 C   0  0  0  0  0  0  0  0  0  0  0  0
   26.6502  -14.6523  -17.1273 C   0  0  0  0  0  0  0  0  0  0  0  0
   26.8209  -13.1849  -17.1049 C   0  0  0  0  0  0  0  0  0  0  0  0
   27.0225  -12.8067  -18.5580 N   0  0  0  0  0  0  0  0  0  0  0  0
   24.6079  -18.9920  -17.0480 C   0  0  0  0  0  0  0  0  0  0  0  0
   23.8248  -19.4155  -17.9213 O   0  0  0  0  0  0  0  0  0  0  0  0
   25.2777  -22.2803  -16.2197 C   0  0  0  0  0  0  0  0  0  0  0  0
   24.5155  -21.8281  -15.0064 C   0  0  1  0  0  0  0  0  0  0  0  0
   25.3919  -21.5058  -13.9606 O   0  0  0  0  0  0  0  0  0  0  0  0
   23.6566  -20.6080  -15.3648 C   0  0  2  0  0  0  0  0  0  0  0  0
   24.5869  -19.5731  -15.7701 N   0  0  0  0  0  0  0  0  0  0  0  0
   22.9156  -20.1876  -14.1279 C   0  0  0  0  0  0  0  0  0  0  0  0
   23.4528  -19.4759  -13.2337 O   0  0  0  0  0  0  0  0  0  0  0  0
   21.5711  -20.5654  -13.8944 N   0  0  0  0  0  0  0  0  0  0  0  0
   20.8045  -20.1216  -12.7317 C   0  0  1  0  0  0  0  0  0  0  0  0
   20.7497  -18.5988  -12.8952 C   0  0  0  0  0  0  0  0  0  0  0  0
   19.9803  -18.1420  -14.0302 C   0  0  0  0  0  0  0  0  0  0  0  0
   18.6280  -17.9298  -13.9342 C   0  0  0  0  0  0  0  0  0  0  0  0
   17.8898  -17.4873  -15.0375 C   0  0  0  0  0  0  0  0  0  0  0  0
   18.5104  -17.2564  -16.2423 C   0  0  0  0  0  0  0  0  0  0  0  0
   19.8655  -17.4679  -16.3423 C   0  0  0  0  0  0  0  0  0  0  0  0
   20.5822  -17.9050  -15.2447 C   0  0  0  0  0  0  0  0  0  0  0  0
   19.4613  -20.6867  -12.6975 C   0  0  0  0  0  0  0  0  0  0  0  0
   19.0373  -21.3753  -13.6498 O   0  0  0  0  0  0  0  0  0  0  0  0
   18.6362  -20.4722  -11.6155 O   0  0  0  0  0  0  0  0  0  0  0  0
  2  1  1  6
  2  3  1  0
  4  3  1  0
  5  6  1  0
  5  4  1  0
  7  6  1  0
  8  9  2  0
  8  2  1  0
 11 10  1  6
 11 13  1  0
 12 11  1  0
 13 14  1  1
 14  8  1  0
 15 16  2  0
 15 13  1  0
 17 15  1  0
 18 19  1  6
 18 17  1  0
 20 19  1  0
 20 21  2  0
 22 21  1  0
 23 22  2  0
 24 25  2  0
 24 23  1  0
 25 20  1  0
 26 18  1  0
 27 26  2  0
 28 26  1  0
M  END
$$$$
