KTF.pdb
     RDKit          3D

 28 28  0  0  1  0  0  0  0  0999 V2000
   27.8278  -24.9323  -16.2956 N   0  0  0  0  0  0  0  0  0  0  0  0
   26.5704  -25.2777  -16.8624 C   0  0  1  0  0  0  0  0  0  0  0  0
   26.3395  -26.7170  -17.0311 C   0  0  0  0  0  0  0  0  0  0  0  0
   26.7471  -27.4164  -18.2353 C   0  0  0  0  0  0  0  0  0  0  0  0
   28.0270  -27.9954  -18.5694 C   0  0  0  0  0  0  0  0  0  0  0  0
   28.3084  -29.4458  -18.5808 C   0  0  0  0  0  0  0  0  0  0  0  0
   29.2153  -29.6445  -19.7778 N   0  0  0  0  0  0  0  0  0  0  0  0
   25.5024  -24.6407  -15.9969 C   0  0  0  0  0  0  0  0  0  0  0  0
   25.4981  -24.9352  -14.7850 O   0  0  0  0  0  0  0  0  0  0  0  0
   25.0987  -21.2015  -15.1755 C   0  0  0  0  0  0  0  0  0  0  0  0
   23.8042  -21.5778  -15.8390 C   0  0  1  0  0  0  0  0  0  0  0  0
   23.8339  -21.2583  -17.2037 O   0  0  0  0  0  0  0  0  0  0  0  0
   23.5526  -23.0808  -15.6584 C   0  0  2  0  0  0  0  0  0  0  0  0
   24.5346  -23.7501  -16.4881 N   0  0  0  0  0  0  0  0  0  0  0  0
   22.1650  -23.3775  -16.1508 C   0  0  0  0  0  0  0  0  0  0  0  0
   21.9508  -24.1456  -17.1299 O   0  0  0  0  0  0  0  0  0  0  0  0
   21.0172  -22.8124  -15.5439 N   0  0  0  0  0  0  0  0  0  0  0  0
   19.6584  -23.0409  -16.0317 C   0  0  1  0  0  0  0  0  0  0  0  0
   19.4384  -24.5396  -15.7988 C   0  0  0  0  0  0  0  0  0  0  0  0
   19.2406  -24.9118  -14.4164 C   0  0  0  0  0  0  0  0  0  0  0  0
   18.0250  -24.7461  -13.8018 C   0  0  0  0  0  0  0  0  0  0  0  0
   17.8409  -25.1091  -12.4630 C   0  0  0  0  0  0  0  0  0  0  0  0
   18.8805  -25.6407  -11.7373 C   0  0  0  0  0  0  0  0  0  0  0  0
   20.1002  -25.8082  -12.3498 C   0  0  0  0  0  0  0  0  0  0  0  0
   20.2678  -25.4455  -13.6726 C   0  0  0  0  0  0  0  0  0  0  0  0
   18.6650  -22.2543  -15.3113 C   0  0  0  0  0  0  0  0  0  0  0  0
   17.4538  -22.3365  -15.6062 O   0  0  0  0  0  0  0  0  0  0  0  0
   19.0434  -21.4071  -14.2931 O   0  0  0  0  0  0  0  0  0  0  0  0
  2  1  1  1
  2  3  1  0
  4  3  1  0
  5  6  1  0
  5  4  1  0
  7  6  1  0
  8  9  2  0
  8  2  1  0
 11 10  1  6
 11 13  1  0
 12 11  1  0
 13 14  1  6
 14  8  1  0
 15 16  2  0
 15 13  1  0
 17 15  1  0
 18 19  1  1
 18 17  1  0
 20 19  1  0
 20 21  2  0
 22 21  1  0
 23 22  2  0
 24 25  2  0
 24 23  1  0
 25 20  1  0
 26 18  1  0
 27 26  2  0
 28 26  1  0
M  END
$$$$
