KTF.pdb
     RDKit          3D

 28 28  0  0  1  0  0  0  0  0999 V2000
   25.4823  -19.2132  -15.9875 N   0  0  0  0  0  0  0  0  0  0  0  0
   26.4100  -19.7254  -15.0395 C   0  0  1  0  0  0  0  0  0  0  0  0
   27.7897  -19.2534  -15.2032 C   0  0  0  0  0  0  0  0  0  0  0  0
   28.7307  -19.9404  -16.0681 C   0  0  0  0  0  0  0  0  0  0  0  0
   28.5319  -21.1090  -16.8928 C   0  0  0  0  0  0  0  0  0  0  0  0
   29.1748  -22.4175  -16.6532 C   0  0  0  0  0  0  0  0  0  0  0  0
   30.1717  -22.5607  -17.7848 N   0  0  0  0  0  0  0  0  0  0  0  0
   25.8685  -19.3944  -13.6637 C   0  0  0  0  0  0  0  0  0  0  0  0
   25.1833  -18.3582  -13.5534 O   0  0  0  0  0  0  0  0  0  0  0  0
   23.4427  -19.2764  -12.4435 C   0  0  0  0  0  0  0  0  0  0  0  0
   24.0014  -20.2006  -11.3989 C   0  0  1  0  0  0  0  0  0  0  0  0
   23.7881  -21.5398  -11.7548 O   0  0  0  0  0  0  0  0  0  0  0  0
   25.5037  -19.9366  -11.2301 C   0  0  2  0  0  0  0  0  0  0  0  0
   26.0988  -20.1868  -12.5278 N   0  0  0  0  0  0  0  0  0  0  0  0
   26.0315  -20.9125  -10.2177 C   0  0  0  0  0  0  0  0  0  0  0  0
   26.1873  -22.1369  -10.4844 O   0  0  0  0  0  0  0  0  0  0  0  0
   26.3851  -20.5142   -8.9057 N   0  0  0  0  0  0  0  0  0  0  0  0
   26.7660  -21.4586   -7.8570 C   0  0  1  0  0  0  0  0  0  0  0  0
   28.2062  -21.0594   -7.5176 C   0  0  0  0  0  0  0  0  0  0  0  0
   28.3375  -20.2032   -6.3607 C   0  0  0  0  0  0  0  0  0  0  0  0
   28.8188  -20.6853   -5.1696 C   0  0  0  0  0  0  0  0  0  0  0  0
   28.9432  -19.8501   -4.0537 C   0  0  0  0  0  0  0  0  0  0  0  0
   28.5834  -18.5256   -4.1328 C   0  0  0  0  0  0  0  0  0  0  0  0
   28.1006  -18.0389   -5.3249 C   0  0  0  0  0  0  0  0  0  0  0  0
   27.9831  -18.8750   -6.4188 C   0  0  0  0  0  0  0  0  0  0  0  0
   25.9117  -21.3628   -6.6799 C   0  0  0  0  0  0  0  0  0  0  0  0
   25.0102  -20.5002   -6.6176 O   0  0  0  0  0  0  0  0  0  0  0  0
   26.0827  -22.2211   -5.6161 O   0  0  0  0  0  0  0  0  0  0  0  0
  2  1  1  6
  2  3  1  0
  4  3  1  0
  5  6  1  0
  5  4  1  0
  7  6  1  0
  8  9  2  0
  8  2  1  0
 11 10  1  6
 11 13  1  0
 12 11  1  0
 13 14  1  6
 14  8  1  0
 15 16  2  0
 15 13  1  0
 17 15  1  0
 18 19  1  1
 18 17  1  0
 20 19  1  0
 20 21  2  0
 22 21  1  0
 23 22  2  0
 24 25  2  0
 24 23  1  0
 25 20  1  0
 26 18  1  0
 27 26  2  0
 28 26  1  0
M  END
$$$$
