KTF.pdb
     RDKit          3D

 28 28  0  0  1  0  0  0  0  0999 V2000
   16.1245   -9.9646  -17.7045 N   0  0  0  0  0  0  0  0  0  0  0  0
   16.5702   -8.6390  -17.9610 C   0  0  1  0  0  0  0  0  0  0  0  0
   15.6312   -7.5814  -17.5696 C   0  0  0  0  0  0  0  0  0  0  0  0
   14.2431   -7.8723  -17.2628 C   0  0  0  0  0  0  0  0  0  0  0  0
   13.1505   -6.9624  -17.0114 C   0  0  0  0  0  0  0  0  0  0  0  0
   11.7616   -7.3836  -16.7348 C   0  0  0  0  0  0  0  0  0  0  0  0
   11.0018   -6.0849  -16.5583 N   0  0  0  0  0  0  0  0  0  0  0  0
   17.9087   -8.4782  -17.2696 C   0  0  0  0  0  0  0  0  0  0  0  0
   18.0464   -9.0245  -16.1570 O   0  0  0  0  0  0  0  0  0  0  0  0
   21.1733   -9.5274  -18.3776 C   0  0  0  0  0  0  0  0  0  0  0  0
   21.3214   -8.0495  -18.1506 C   0  0  1  0  0  0  0  0  0  0  0  0
   21.1932   -7.3462  -19.3566 O   0  0  0  0  0  0  0  0  0  0  0  0
   20.2578   -7.5743  -17.1516 C   0  0  2  0  0  0  0  0  0  0  0  0
   18.9818   -7.7552  -17.8146 N   0  0  0  0  0  0  0  0  0  0  0  0
   20.5015   -6.1176  -16.8784 C   0  0  0  0  0  0  0  0  0  0  0  0
   19.7612   -5.2128  -17.3559 O   0  0  0  0  0  0  0  0  0  0  0  0
   21.5758   -5.6761  -16.0686 N   0  0  0  0  0  0  0  0  0  0  0  0
   21.8675   -4.2648  -15.8242 C   0  0  1  0  0  0  0  0  0  0  0  0
   20.5994   -3.7481  -15.1357 C   0  0  0  0  0  0  0  0  0  0  0  0
   20.6476   -2.3560  -14.7504 C   0  0  0  0  0  0  0  0  0  0  0  0
   20.3328   -1.3601  -15.6402 C   0  0  0  0  0  0  0  0  0  0  0  0
   20.3815   -0.0144  -15.2597 C   0  0  0  0  0  0  0  0  0  0  0  0
   20.7475    0.3341  -13.9812 C   0  0  0  0  0  0  0  0  0  0  0  0
   21.0637   -0.6613  -13.0867 C   0  0  0  0  0  0  0  0  0  0  0  0
   21.0113   -1.9861  -13.4760 C   0  0  0  0  0  0  0  0  0  0  0  0
   23.0337   -4.0735  -14.9710 C   0  0  0  0  0  0  0  0  0  0  0  0
   23.8594   -3.1688  -15.2170 O   0  0  0  0  0  0  0  0  0  0  0  0
   23.2460   -4.8858  -13.8789 O   0  0  0  0  0  0  0  0  0  0  0  0
  2  1  1  1
  2  3  1  0
  4  3  1  0
  5  6  1  0
  5  4  1  0
  7  6  1  0
  8  9  2  0
  8  2  1  0
 11 10  1  6
 11 13  1  0
 12 11  1  0
 13 14  1  6
 14  8  1  0
 15 16  2  0
 15 13  1  0
 17 15  1  0
 18 19  1  1
 18 17  1  0
 20 19  1  0
 20 21  2  0
 22 21  1  0
 23 22  2  0
 24 25  2  0
 24 23  1  0
 25 20  1  0
 26 18  1  0
 27 26  2  0
 28 26  1  0
M  END
$$$$
