KTF.pdb
     RDKit          3D

 28 28  0  0  1  0  0  0  0  0999 V2000
   16.1178  -11.9728  -16.2054 N   0  0  0  0  0  0  0  0  0  0  0  0
   17.5245  -11.7667  -16.1952 C   0  0  1  0  0  0  0  0  0  0  0  0
   18.2424  -12.3255  -17.3466 C   0  0  0  0  0  0  0  0  0  0  0  0
   18.3914  -13.7574  -17.5279 C   0  0  0  0  0  0  0  0  0  0  0  0
   18.9960  -14.7335  -16.6523 C   0  0  0  0  0  0  0  0  0  0  0  0
   19.1124  -16.1732  -16.9629 C   0  0  0  0  0  0  0  0  0  0  0  0
   19.7748  -16.7707  -15.7385 N   0  0  0  0  0  0  0  0  0  0  0  0
   17.7545  -10.2747  -16.0670 C   0  0  0  0  0  0  0  0  0  0  0  0
   17.4995   -9.5695  -17.0635 O   0  0  0  0  0  0  0  0  0  0  0  0
   16.0559   -7.7776  -14.4049 C   0  0  0  0  0  0  0  0  0  0  0  0
   17.4172   -7.7279  -13.7709 C   0  0  1  0  0  0  0  0  0  0  0  0
   17.4504   -8.5040  -12.6038 O   0  0  0  0  0  0  0  0  0  0  0  0
   18.4670   -8.2365  -14.7680 C   0  0  2  0  0  0  0  0  0  0  0  0
   18.2331   -9.6608  -14.8985 N   0  0  0  0  0  0  0  0  0  0  0  0
   19.8241   -7.9831  -14.1765 C   0  0  0  0  0  0  0  0  0  0  0  0
   20.4100   -8.8359  -13.4526 O   0  0  0  0  0  0  0  0  0  0  0  0
   20.5244   -6.7724  -14.3978 N   0  0  0  0  0  0  0  0  0  0  0  0
   21.8304   -6.4830  -13.8085 C   0  0  1  0  0  0  0  0  0  0  0  0
   22.7485   -6.3249  -15.0254 C   0  0  0  0  0  0  0  0  0  0  0  0
   22.4359   -5.1972  -15.8736 C   0  0  0  0  0  0  0  0  0  0  0  0
   22.9791   -3.9590  -15.6400 C   0  0  0  0  0  0  0  0  0  0  0  0
   22.6718   -2.8719  -16.4658 C   0  0  0  0  0  0  0  0  0  0  0  0
   21.8161   -3.0273  -17.5306 C   0  0  0  0  0  0  0  0  0  0  0  0
   21.2698   -4.2667  -17.7677 C   0  0  0  0  0  0  0  0  0  0  0  0
   21.5820   -5.3315  -16.9441 C   0  0  0  0  0  0  0  0  0  0  0  0
   21.8247   -5.2678  -13.0036 C   0  0  0  0  0  0  0  0  0  0  0  0
   20.8141   -4.5342  -12.9677 O   0  0  0  0  0  0  0  0  0  0  0  0
   22.9323   -4.9069  -12.2684 O   0  0  0  0  0  0  0  0  0  0  0  0
  2  1  1  6
  2  3  1  0
  4  3  1  0
  5  6  1  0
  5  4  1  0
  7  6  1  0
  8  9  2  0
  8  2  1  0
 11 10  1  6
 11 13  1  0
 12 11  1  0
 13 14  1  1
 14  8  1  0
 15 16  2  0
 15 13  1  0
 17 15  1  0
 18 19  1  6
 18 17  1  0
 20 19  1  0
 20 21  2  0
 22 21  1  0
 23 22  2  0
 24 25  2  0
 24 23  1  0
 25 20  1  0
 26 18  1  0
 27 26  2  0
 28 26  1  0
M  END
$$$$
