KTF.pdb
     RDKit          3D

 28 28  0  0  1  0  0  0  0  0999 V2000
   17.8584  -13.6662  -16.8481 N   0  0  0  0  0  0  0  0  0  0  0  0
   17.6738  -12.2565  -16.8702 C   0  0  1  0  0  0  0  0  0  0  0  0
   16.4254  -11.7841  -16.2606 C   0  0  0  0  0  0  0  0  0  0  0  0
   15.1437  -12.3753  -16.5968 C   0  0  0  0  0  0  0  0  0  0  0  0
   14.5851  -13.6433  -16.1903 C   0  0  0  0  0  0  0  0  0  0  0  0
   13.2338  -14.1149  -16.5571 C   0  0  0  0  0  0  0  0  0  0  0  0
   12.4986  -14.2168  -15.2365 N   0  0  0  0  0  0  0  0  0  0  0  0
   18.8865  -11.6386  -16.2046 C   0  0  0  0  0  0  0  0  0  0  0  0
   19.6714  -12.4099  -15.6178 O   0  0  0  0  0  0  0  0  0  0  0  0
   21.6023  -11.7360  -16.3461 C   0  0  0  0  0  0  0  0  0  0  0  0
   21.5199  -10.2505  -16.5556 C   0  0  1  0  0  0  0  0  0  0  0  0
   21.3031   -9.9506  -17.9078 O   0  0  0  0  0  0  0  0  0  0  0  0
   20.3821   -9.6739  -15.7023 C   0  0  2  0  0  0  0  0  0  0  0  0
   19.1620  -10.2620  -16.2181 N   0  0  0  0  0  0  0  0  0  0  0  0
   20.3675   -8.1851  -15.9004 C   0  0  0  0  0  0  0  0  0  0  0  0
   19.6572   -7.6335  -16.7868 O   0  0  0  0  0  0  0  0  0  0  0  0
   21.1499   -7.3149  -15.1030 N   0  0  0  0  0  0  0  0  0  0  0  0
   21.2528   -5.8778  -15.3497 C   0  0  1  0  0  0  0  0  0  0  0  0
   21.6126   -5.3008  -13.9762 C   0  0  0  0  0  0  0  0  0  0  0  0
   21.7834   -3.8658  -13.9515 C   0  0  0  0  0  0  0  0  0  0  0  0
   20.7224   -3.0268  -13.7207 C   0  0  0  0  0  0  0  0  0  0  0  0
   20.8955   -1.6385  -13.6981 C   0  0  0  0  0  0  0  0  0  0  0  0
   22.1382   -1.0890  -13.9077 C   0  0  0  0  0  0  0  0  0  0  0  0
   23.2039   -1.9267  -14.1393 C   0  0  0  0  0  0  0  0  0  0  0  0
   23.0184   -3.2959  -14.1589 C   0  0  0  0  0  0  0  0  0  0  0  0
   22.2778   -5.5503  -16.3328 C   0  0  0  0  0  0  0  0  0  0  0  0
   23.3882   -6.1223  -16.3076 O   0  0  0  0  0  0  0  0  0  0  0  0
   22.0408   -4.6054  -17.3068 O   0  0  0  0  0  0  0  0  0  0  0  0
  2  1  1  1
  2  3  1  0
  4  3  1  0
  5  6  1  0
  5  4  1  0
  7  6  1  0
  8  9  2  0
  8  2  1  0
 11 10  1  6
 11 13  1  0
 12 11  1  0
 13 14  1  6
 14  8  1  0
 15 16  2  0
 15 13  1  0
 17 15  1  0
 18 19  1  1
 18 17  1  0
 20 19  1  0
 20 21  2  0
 22 21  1  0
 23 22  2  0
 24 25  2  0
 24 23  1  0
 25 20  1  0
 26 18  1  0
 27 26  2  0
 28 26  1  0
M  END
$$$$
