KTF.pdb
     RDKit          3D

 28 28  0  0  1  0  0  0  0  0999 V2000
   25.6259  -20.7571  -16.7415 N   0  0  0  0  0  0  0  0  0  0  0  0
   26.6035  -20.8315  -15.7118 C   0  0  1  0  0  0  0  0  0  0  0  0
   27.8818  -20.1806  -16.0208 C   0  0  0  0  0  0  0  0  0  0  0  0
   28.7808  -20.7106  -17.0289 C   0  0  0  0  0  0  0  0  0  0  0  0
   29.3988  -22.0130  -17.1114 C   0  0  0  0  0  0  0  0  0  0  0  0
   30.3677  -22.4115  -18.1531 C   0  0  0  0  0  0  0  0  0  0  0  0
   29.9337  -21.6442  -19.3851 N   0  0  0  0  0  0  0  0  0  0  0  0
   25.9747  -20.2561  -14.4592 C   0  0  0  0  0  0  0  0  0  0  0  0
   25.1149  -19.3652  -14.6088 O   0  0  0  0  0  0  0  0  0  0  0  0
   23.4492  -20.6150  -13.3023 C   0  0  0  0  0  0  0  0  0  0  0  0
   24.2176  -21.1317  -12.1190 C   0  0  1  0  0  0  0  0  0  0  0  0
   24.4854  -22.5007  -12.2597 O   0  0  0  0  0  0  0  0  0  0  0  0
   25.5323  -20.3525  -11.9804 C   0  0  2  0  0  0  0  0  0  0  0  0
   26.3098  -20.6726  -13.1609 N   0  0  0  0  0  0  0  0  0  0  0  0
   26.2316  -20.8459  -10.7461 C   0  0  0  0  0  0  0  0  0  0  0  0
   26.9166  -21.9067  -10.7422 O   0  0  0  0  0  0  0  0  0  0  0  0
   26.1628  -20.1482   -9.5158 N   0  0  0  0  0  0  0  0  0  0  0  0
   26.7792  -20.6352   -8.2831 C   0  0  1  0  0  0  0  0  0  0  0  0
   27.6101  -19.4417   -7.7992 C   0  0  0  0  0  0  0  0  0  0  0  0
   28.1770  -19.5980   -6.4789 C   0  0  0  0  0  0  0  0  0  0  0  0
   29.1816  -20.5012   -6.2382 C   0  0  0  0  0  0  0  0  0  0  0  0
   29.7256  -20.6466   -4.9572 C   0  0  0  0  0  0  0  0  0  0  0  0
   29.2602  -19.8829   -3.9130 C   0  0  0  0  0  0  0  0  0  0  0  0
   28.2536  -18.9768   -4.1505 C   0  0  0  0  0  0  0  0  0  0  0  0
   27.7255  -18.8435   -5.4205 C   0  0  0  0  0  0  0  0  0  0  0  0
   25.7953  -21.0212   -7.2794 C   0  0  0  0  0  0  0  0  0  0  0  0
   24.6212  -20.5994   -7.3456 O   0  0  0  0  0  0  0  0  0  0  0  0
   26.1417  -21.8574   -6.2411 O   0  0  0  0  0  0  0  0  0  0  0  0
  2  1  1  6
  2  3  1  0
  4  3  1  0
  5  6  1  0
  5  4  1  0
  7  6  1  0
  8  9  2  0
  8  2  1  0
 11 10  1  6
 11 13  1  0
 12 11  1  0
 13 14  1  6
 14  8  1  0
 15 16  2  0
 15 13  1  0
 17 15  1  0
 18 19  1  1
 18 17  1  0
 20 19  1  0
 20 21  2  0
 22 21  1  0
 23 22  2  0
 24 25  2  0
 24 23  1  0
 25 20  1  0
 26 18  1  0
 27 26  2  0
 28 26  1  0
M  END
$$$$
