TEA.pdb
     RDKit          3D

 22 21  0  0  1  0  0  0  0  0999 V2000
   19.6443  -11.5484  -14.8619 C   0  0  0  0  0  0  0  0  0  0  0  0
   19.1914  -11.9522  -16.2577 C   0  0  1  0  0  0  0  0  0  0  0  0
   18.7825  -13.2653  -16.1948 O   0  0  0  0  0  0  0  0  0  0  0  0
   18.0848  -11.0022  -16.6503 C   0  0  2  0  0  0  0  0  0  0  0  0
   17.4839  -11.4751  -17.8618 N   0  0  0  0  0  0  0  0  0  0  0  0
   18.5443   -9.6140  -16.8170 C   0  0  0  0  0  0  0  0  0  0  0  0
   19.1471   -9.2672  -17.8909 O   0  0  0  0  0  0  0  0  0  0  0  0
   18.3687   -8.5951  -15.8543 N   0  0  0  0  0  0  0  0  0  0  0  0
   18.8352   -7.2065  -16.0564 C   0  0  1  0  0  0  0  0  0  0  0  0
   17.6640   -6.3656  -15.6147 C   0  0  0  0  0  0  0  0  0  0  0  0
   16.6111   -6.1412  -16.6550 C   0  0  0  0  0  0  0  0  0  0  0  0
   15.5238   -5.3137  -16.0388 C   0  0  0  0  0  0  0  0  0  0  0  0
   14.4126   -5.8049  -15.8082 O   0  0  0  0  0  0  0  0  0  0  0  0
   20.0095   -6.9453  -15.2143 C   0  0  0  0  0  0  0  0  0  0  0  0
   20.0051   -7.3596  -13.9940 O   0  0  0  0  0  0  0  0  0  0  0  0
   15.7377   -3.9700  -15.7101 O   0  0  0  0  0  0  0  0  0  0  0  0
   23.5898   -5.7700  -15.4208 C   0  0  0  0  0  0  0  0  0  0  0  0
   22.3243   -6.1223  -14.6651 C   0  0  2  0  0  0  0  0  0  0  0  0
   21.1981   -6.2749  -15.5866 N   0  0  0  0  0  0  0  0  0  0  0  0
   22.0081   -5.0748  -13.6813 C   0  0  0  0  0  0  0  0  0  0  0  0
   21.1397   -4.2111  -14.0079 O   0  0  0  0  0  0  0  0  0  0  0  0
   22.5900   -4.9768  -12.4435 O   0  0  0  0  0  0  0  0  0  0  0  0
  2  4  1  0
  2  1  1  1
  2  3  1  0
  4  5  1  6
  6  4  1  0
  6  7  2  0
  8  6  1  0
  9  8  1  0
  9 10  1  1
 11 10  1  0
 12 16  1  0
 12 11  1  0
 13 12  2  0
 14  9  1  0
 15 14  2  0
 18 17  1  6
 18 19  1  0
 18 20  1  0
 19 14  1  0
 20 22  1  0
 21 20  2  0
M  END
$$$$
