TEA.pdb
     RDKit          3D

 22 21  0  0  1  0  0  0  0  0999 V2000
   20.2558   -9.5878  -19.3992 C   0  0  0  0  0  0  0  0  0  0  0  0
   19.5482  -10.7871  -18.7849 C   0  0  1  0  0  0  0  0  0  0  0  0
   19.7494  -11.8593  -19.6247 O   0  0  0  0  0  0  0  0  0  0  0  0
   20.1413  -10.9880  -17.4105 C   0  0  2  0  0  0  0  0  0  0  0  0
   19.6170  -12.2017  -16.8586 N   0  0  0  0  0  0  0  0  0  0  0  0
   19.8862   -9.8612  -16.4986 C   0  0  0  0  0  0  0  0  0  0  0  0
   18.7193   -9.6966  -16.0004 O   0  0  0  0  0  0  0  0  0  0  0  0
   20.8585   -8.9115  -16.1136 N   0  0  0  0  0  0  0  0  0  0  0  0
   20.5847   -7.8229  -15.1508 C   0  0  1  0  0  0  0  0  0  0  0  0
   21.8375   -7.7593  -14.3139 C   0  0  0  0  0  0  0  0  0  0  0  0
   21.8124   -6.7561  -13.2029 C   0  0  0  0  0  0  0  0  0  0  0  0
   22.0009   -5.3967  -13.8057 C   0  0  0  0  0  0  0  0  0  0  0  0
   21.0486   -4.6139  -13.9041 O   0  0  0  0  0  0  0  0  0  0  0  0
   20.3753   -6.5598  -15.8698 C   0  0  0  0  0  0  0  0  0  0  0  0
   21.2640   -6.1717  -16.7186 O   0  0  0  0  0  0  0  0  0  0  0  0
   23.2539   -4.9806  -14.2704 O   0  0  0  0  0  0  0  0  0  0  0  0
   17.8704   -4.4355  -17.3272 C   0  0  0  0  0  0  0  0  0  0  0  0
   19.1696   -4.4562  -16.5473 C   0  0  2  0  0  0  0  0  0  0  0  0
   19.2746   -5.6793  -15.7512 N   0  0  0  0  0  0  0  0  0  0  0  0
   19.2493   -3.2883  -15.6558 C   0  0  0  0  0  0  0  0  0  0  0  0
   18.7593   -3.4079  -14.4929 O   0  0  0  0  0  0  0  0  0  0  0  0
   19.8167   -2.0892  -16.0027 O   0  0  0  0  0  0  0  0  0  0  0  0
  2  4  1  0
  2  1  1  6
  2  3  1  0
  4  5  1  1
  6  4  1  0
  6  7  2  0
  8  6  1  0
  9  8  1  0
  9 10  1  1
 11 10  1  0
 12 16  1  0
 12 11  1  0
 13 12  2  0
 14  9  1  0
 15 14  2  0
 18 17  1  1
 18 19  1  0
 18 20  1  0
 19 14  1  0
 20 22  1  0
 21 20  2  0
M  END
$$$$
