TEA.pdb
     RDKit          3D

 22 21  0  0  1  0  0  0  0  0999 V2000
   18.7372  -12.9790  -15.3792 C   0  0  0  0  0  0  0  0  0  0  0  0
   17.5142  -12.2617  -15.9325 C   0  0  1  0  0  0  0  0  0  0  0  0
   16.4201  -13.0589  -15.6819 O   0  0  0  0  0  0  0  0  0  0  0  0
   17.4442  -10.9205  -15.2417 C   0  0  2  0  0  0  0  0  0  0  0  0
   16.1733  -10.3242  -15.5273 N   0  0  0  0  0  0  0  0  0  0  0  0
   18.5335  -10.0103  -15.6308 C   0  0  0  0  0  0  0  0  0  0  0  0
   19.7511  -10.3726  -15.4788 O   0  0  0  0  0  0  0  0  0  0  0  0
   18.3391   -8.7226  -16.1782 N   0  0  0  0  0  0  0  0  0  0  0  0
   19.4563   -7.8226  -16.5372 C   0  0  1  0  0  0  0  0  0  0  0  0
   18.9496   -7.0873  -17.7524 C   0  0  0  0  0  0  0  0  0  0  0  0
   19.0641   -7.8349  -19.0443 C   0  0  0  0  0  0  0  0  0  0  0  0
   18.5615   -6.9426  -20.1388 C   0  0  0  0  0  0  0  0  0  0  0  0
   18.9480   -5.7710  -20.2235 O   0  0  0  0  0  0  0  0  0  0  0  0
   19.7192   -6.8874  -15.4360 C   0  0  0  0  0  0  0  0  0  0  0  0
   18.7220   -6.4030  -14.7789 O   0  0  0  0  0  0  0  0  0  0  0  0
   17.6460   -7.4107  -21.0885 O   0  0  0  0  0  0  0  0  0  0  0  0
   22.4302   -5.9217  -13.0731 C   0  0  0  0  0  0  0  0  0  0  0  0
   21.1204   -5.6193  -13.7728 C   0  0  2  0  0  0  0  0  0  0  0  0
   20.9792   -6.4349  -14.9793 N   0  0  0  0  0  0  0  0  0  0  0  0
   21.0531   -4.1957  -14.1386 C   0  0  0  0  0  0  0  0  0  0  0  0
   21.1543   -3.9041  -15.3681 O   0  0  0  0  0  0  0  0  0  0  0  0
   20.8886   -3.1740  -13.2389 O   0  0  0  0  0  0  0  0  0  0  0  0
  2  4  1  0
  2  1  1  1
  2  3  1  0
  4  5  1  6
  6  4  1  0
  6  7  2  0
  8  6  1  0
  9  8  1  0
  9 10  1  6
 11 10  1  0
 12 16  1  0
 12 11  1  0
 13 12  2  0
 14  9  1  0
 15 14  2  0
 18 17  1  6
 18 19  1  0
 18 20  1  0
 19 14  1  0
 20 22  1  0
 21 20  2  0
M  END
$$$$
