TEA.pdb
     RDKit          3D

 22 21  0  0  1  0  0  0  0  0999 V2000
   16.1870   -9.1791  -14.2985 C   0  0  0  0  0  0  0  0  0  0  0  0
   16.9494  -10.4963  -14.2809 C   0  0  1  0  0  0  0  0  0  0  0  0
   16.0282  -11.5035  -14.1011 O   0  0  0  0  0  0  0  0  0  0  0  0
   17.6873  -10.5921  -15.5951 C   0  0  2  0  0  0  0  0  0  0  0  0
   18.3083  -11.8805  -15.6786 N   0  0  0  0  0  0  0  0  0  0  0  0
   18.6901   -9.5300  -15.7758 C   0  0  0  0  0  0  0  0  0  0  0  0
   19.9018   -9.7304  -15.4173 O   0  0  0  0  0  0  0  0  0  0  0  0
   18.4157   -8.2610  -16.3326 N   0  0  0  0  0  0  0  0  0  0  0  0
   19.4689   -7.2656  -16.6271 C   0  0  1  0  0  0  0  0  0  0  0  0
   18.8547   -6.3978  -17.6966 C   0  0  0  0  0  0  0  0  0  0  0  0
   19.6749   -5.2147  -18.1073 C   0  0  0  0  0  0  0  0  0  0  0  0
   18.8966   -4.4491  -19.1344 C   0  0  0  0  0  0  0  0  0  0  0  0
   17.7572   -4.8061  -19.4562 O   0  0  0  0  0  0  0  0  0  0  0  0
   19.7631   -6.4772  -15.4236 C   0  0  0  0  0  0  0  0  0  0  0  0
   18.7849   -6.0829  -14.6831 O   0  0  0  0  0  0  0  0  0  0  0  0
   19.4374   -3.3156  -19.7526 O   0  0  0  0  0  0  0  0  0  0  0  0
   22.2866   -5.8936  -12.8501 C   0  0  0  0  0  0  0  0  0  0  0  0
   21.1981   -5.3011  -13.7222 C   0  0  2  0  0  0  0  0  0  0  0  0
   21.0356   -6.0832  -14.9481 N   0  0  0  0  0  0  0  0  0  0  0  0
   21.5253   -3.9101  -14.0736 C   0  0  0  0  0  0  0  0  0  0  0  0
   21.7959   -3.6634  -15.2871 O   0  0  0  0  0  0  0  0  0  0  0  0
   21.5546   -2.8734  -13.1766 O   0  0  0  0  0  0  0  0  0  0  0  0
  2  4  1  0
  2  1  1  6
  2  3  1  0
  4  5  1  1
  6  4  1  0
  6  7  2  0
  8  6  1  0
  9  8  1  0
  9 10  1  6
 11 10  1  0
 12 16  1  0
 12 11  1  0
 13 12  2  0
 14  9  1  0
 15 14  2  0
 18 17  1  1
 18 19  1  0
 18 20  1  0
 19 14  1  0
 20 22  1  0
 21 20  2  0
M  END
$$$$
