CVY.pdb
     RDKit          3D

 26 26  0  0  1  0  0  0  0  0999 V2000
   10.5301  -16.9611   17.4163 N   0  0  0  0  0  0  0  0  0  0  0  0
    9.6806  -17.3152   18.5368 C   0  0  1  0  0  0  0  0  0  0  0  0
   10.0974  -18.6532   19.1089 C   0  0  0  0  0  0  0  0  0  0  0  0
    8.8842  -19.1703   20.3798 S   0  0  0  0  0  0  0  0  0  0  0  0
    9.7428  -16.2339   19.5285 C   0  0  0  0  0  0  0  0  0  0  0  0
   10.8547  -15.6971   19.8638 O   0  0  0  0  0  0  0  0  0  0  0  0
    7.4051  -13.1427   19.8441 C   0  0  0  0  0  0  0  0  0  0  0  0
    7.4214  -13.8744   21.1707 C   0  0  1  0  0  0  0  0  0  0  0  0
    6.2118  -14.7925   21.1769 C   0  0  0  0  0  0  0  0  0  0  0  0
    8.7151  -14.6865   21.2194 C   0  0  2  0  0  0  0  0  0  0  0  0
    8.6057  -15.6944   20.1929 N   0  0  0  0  0  0  0  0  0  0  0  0
    8.8455  -15.2286   22.5702 C   0  0  0  0  0  0  0  0  0  0  0  0
    8.3468  -16.3550   22.8092 O   0  0  0  0  0  0  0  0  0  0  0  0
   10.6155  -16.3146   31.1181 O   0  0  0  0  0  0  0  0  0  0  0  0
   10.5127  -15.7989   29.8436 C   0  0  0  0  0  0  0  0  0  0  0  0
   10.7327  -16.6276   28.7513 C   0  0  0  0  0  0  0  0  0  0  0  0
   10.6256  -16.0961   27.4948 C   0  0  0  0  0  0  0  0  0  0  0  0
   10.3106  -14.7822   27.2804 C   0  0  0  0  0  0  0  0  0  0  0  0
   10.2097  -14.2056   25.9021 C   0  0  0  0  0  0  0  0  0  0  0  0
    9.4758  -15.1443   24.9757 C   0  0  2  0  0  0  0  0  0  0  0  0
    9.5043  -14.5512   23.6245 N   0  0  0  0  0  0  0  0  0  0  0  0
    8.1008  -15.4225   25.3711 C   0  0  0  0  0  0  0  0  0  0  0  0
    7.7656  -16.5462   26.0804 O   0  0  0  0  0  0  0  0  0  0  0  0
   10.0932  -13.9628   28.3675 C   0  0  0  0  0  0  0  0  0  0  0  0
   10.1937  -14.4688   29.6412 C   0  0  0  0  0  0  0  0  0  0  0  0
    7.1744  -14.6196   25.0609 O   0  0  0  0  0  0  0  0  0  0  0  0
  2  1  1  6
  2  3  1  0
  3  4  1  0
  5  2  1  0
  6  5  2  0
  8  7  1  6
  8  9  1  0
  8 10  1  0
 10 12  1  0
 10 11  1  6
 11  5  1  0
 12 21  1  0
 13 12  2  0
 15 16  2  0
 15 14  1  0
 17 16  1  0
 18 17  2  0
 20 19  1  1
 19 18  1  0
 20 22  1  0
 21 20  1  0
 22 26  2  0
 22 23  1  0
 24 18  1  0
 24 25  2  0
 25 15  1  0
M  END
$$$$
