CVY.pdb
     RDKit          3D

 26 26  0  0  1  0  0  0  0  0999 V2000
    6.5672  -19.3498   20.3810 N   0  0  0  0  0  0  0  0  0  0  0  0
    6.2336  -18.4004   21.4250 C   0  0  1  0  0  0  0  0  0  0  0  0
    6.1092  -19.1078   22.7574 C   0  0  0  0  0  0  0  0  0  0  0  0
    4.4772  -19.9338   22.8519 S   0  0  0  0  0  0  0  0  0  0  0  0
    7.2556  -17.3459   21.4396 C   0  0  0  0  0  0  0  0  0  0  0  0
    8.5025  -17.6221   21.3634 O   0  0  0  0  0  0  0  0  0  0  0  0
    8.4558  -12.5815   21.2630 C   0  0  0  0  0  0  0  0  0  0  0  0
    7.3520  -13.6191   21.2881 C   0  0  1  0  0  0  0  0  0  0  0  0
    6.7653  -13.6653   19.8883 C   0  0  0  0  0  0  0  0  0  0  0  0
    8.0008  -14.9560   21.6454 C   0  0  2  0  0  0  0  0  0  0  0  0
    6.9664  -15.9559   21.5370 N   0  0  0  0  0  0  0  0  0  0  0  0
    8.5633  -14.8288   22.9881 C   0  0  0  0  0  0  0  0  0  0  0  0
    8.1893  -13.8658   23.7004 O   0  0  0  0  0  0  0  0  0  0  0  0
    6.1826  -10.9128   27.0021 O   0  0  0  0  0  0  0  0  0  0  0  0
    6.8437  -12.0891   26.7187 C   0  0  0  0  0  0  0  0  0  0  0  0
    6.1111  -13.2266   26.4062 C   0  0  0  0  0  0  0  0  0  0  0  0
    6.7866  -14.3838   26.1281 C   0  0  0  0  0  0  0  0  0  0  0  0
    8.1525  -14.4566   26.1476 C   0  0  0  0  0  0  0  0  0  0  0  0
    8.8829  -15.7308   25.8560 C   0  0  0  0  0  0  0  0  0  0  0  0
   10.0202  -15.4938   24.8924 C   0  0  2  0  0  0  0  0  0  0  0  0
    9.5080  -15.7340   23.5292 N   0  0  0  0  0  0  0  0  0  0  0  0
   11.1955  -16.3200   25.1381 C   0  0  0  0  0  0  0  0  0  0  0  0
   11.9782  -16.1514   26.2503 O   0  0  0  0  0  0  0  0  0  0  0  0
    8.8761  -13.3251   26.4585 C   0  0  0  0  0  0  0  0  0  0  0  0
    8.2249  -12.1486   26.7422 C   0  0  0  0  0  0  0  0  0  0  0  0
   11.5222  -17.2228   24.3152 O   0  0  0  0  0  0  0  0  0  0  0  0
  2  1  1  6
  2  3  1  0
  3  4  1  0
  5  2  1  0
  6  5  2  0
  8  7  1  6
  8  9  1  0
  8 10  1  0
 10 12  1  0
 10 11  1  1
 11  5  1  0
 12 21  1  0
 13 12  2  0
 15 16  2  0
 15 14  1  0
 17 16  1  0
 18 17  2  0
 20 19  1  1
 19 18  1  0
 20 22  1  0
 21 20  1  0
 22 26  2  0
 22 23  1  0
 24 18  1  0
 24 25  2  0
 25 15  1  0
M  END
$$$$
