CVY.pdb
     RDKit          3D

 26 26  0  0  1  0  0  0  0  0999 V2000
    5.8733  -18.8055   20.0340 N   0  0  0  0  0  0  0  0  0  0  0  0
    5.7227  -17.7176   20.9807 C   0  0  1  0  0  0  0  0  0  0  0  0
    5.3487  -18.2569   22.3448 C   0  0  0  0  0  0  0  0  0  0  0  0
    4.1776  -19.6505   22.1422 S   0  0  0  0  0  0  0  0  0  0  0  0
    6.9704  -16.9434   21.0031 C   0  0  0  0  0  0  0  0  0  0  0  0
    8.1135  -17.5157   20.9490 O   0  0  0  0  0  0  0  0  0  0  0  0
    7.3295  -13.4712   19.3200 C   0  0  0  0  0  0  0  0  0  0  0  0
    7.9725  -13.3742   20.6885 C   0  0  1  0  0  0  0  0  0  0  0  0
    6.9512  -12.7237   21.6048 C   0  0  0  0  0  0  0  0  0  0  0  0
    8.2746  -14.8013   21.1445 C   0  0  2  0  0  0  0  0  0  0  0  0
    7.0272  -15.5238   21.0847 N   0  0  0  0  0  0  0  0  0  0  0  0
    8.8503  -14.7237   22.4854 C   0  0  0  0  0  0  0  0  0  0  0  0
    8.3252  -13.9404   23.3132 O   0  0  0  0  0  0  0  0  0  0  0  0
   11.0477  -14.8677   30.5607 O   0  0  0  0  0  0  0  0  0  0  0  0
   10.6267  -15.0289   29.2577 C   0  0  0  0  0  0  0  0  0  0  0  0
   10.4871  -16.3091   28.7381 C   0  0  0  0  0  0  0  0  0  0  0  0
   10.0678  -16.4472   27.4427 C   0  0  0  0  0  0  0  0  0  0  0  0
    9.7832  -15.3714   26.6471 C   0  0  0  0  0  0  0  0  0  0  0  0
    9.3387  -15.5315   25.2261 C   0  0  0  0  0  0  0  0  0  0  0  0
   10.4844  -15.2981   24.2717 C   0  0  2  0  0  0  0  0  0  0  0  0
    9.9692  -15.4850   22.9013 N   0  0  0  0  0  0  0  0  0  0  0  0
   11.6361  -16.1628   24.4956 C   0  0  0  0  0  0  0  0  0  0  0  0
   11.5730  -17.5173   24.2967 O   0  0  0  0  0  0  0  0  0  0  0  0
    9.9232  -14.1022   27.1667 C   0  0  0  0  0  0  0  0  0  0  0  0
   10.3424  -13.9327   28.4644 C   0  0  0  0  0  0  0  0  0  0  0  0
   12.7343  -15.6719   24.8856 O   0  0  0  0  0  0  0  0  0  0  0  0
  2  1  1  6
  2  3  1  0
  3  4  1  0
  5  2  1  0
  6  5  2  0
  8  7  1  6
  8  9  1  0
  8 10  1  0
 10 12  1  0
 10 11  1  1
 11  5  1  0
 12 21  1  0
 13 12  2  0
 15 16  2  0
 15 14  1  0
 17 16  1  0
 18 17  2  0
 20 19  1  1
 19 18  1  0
 20 22  1  0
 21 20  1  0
 22 26  2  0
 22 23  1  0
 24 18  1  0
 24 25  2  0
 25 15  1  0
M  END
$$$$
