CVY.pdb
     RDKit          3D

 26 26  0  0  1  0  0  0  0  0999 V2000
    7.3997  -15.8528   20.7641 N   0  0  0  0  0  0  0  0  0  0  0  0
    6.5651  -15.7062   21.9408 C   0  0  1  0  0  0  0  0  0  0  0  0
    6.0673  -17.0590   22.4028 C   0  0  0  0  0  0  0  0  0  0  0  0
    7.5004  -18.1115   22.8420 S   0  0  0  0  0  0  0  0  0  0  0  0
    7.3371  -15.0059   22.9753 C   0  0  0  0  0  0  0  0  0  0  0  0
    8.6164  -15.0206   22.9797 O   0  0  0  0  0  0  0  0  0  0  0  0
    7.4201  -12.1578   27.0100 C   0  0  0  0  0  0  0  0  0  0  0  0
    6.5976  -12.7969   25.9098 C   0  0  1  0  0  0  0  0  0  0  0  0
    6.0674  -11.6645   25.0482 C   0  0  0  0  0  0  0  0  0  0  0  0
    7.5411  -13.6904   25.1054 C   0  0  2  0  0  0  0  0  0  0  0  0
    6.7541  -14.2652   24.0415 N   0  0  0  0  0  0  0  0  0  0  0  0
    8.1053  -14.6768   26.0241 C   0  0  0  0  0  0  0  0  0  0  0  0
    7.3579  -15.5928   26.4450 O   0  0  0  0  0  0  0  0  0  0  0  0
   12.5438  -20.8986   29.8572 O   0  0  0  0  0  0  0  0  0  0  0  0
   12.2008  -19.7848   29.1205 C   0  0  0  0  0  0  0  0  0  0  0  0
   12.5021  -18.5213   29.6115 C   0  0  0  0  0  0  0  0  0  0  0  0
   12.1531  -17.4289   28.8647 C   0  0  0  0  0  0  0  0  0  0  0  0
   11.5207  -17.5400   27.6567 C   0  0  0  0  0  0  0  0  0  0  0  0
   11.1296  -16.3386   26.8529 C   0  0  0  0  0  0  0  0  0  0  0  0
    9.8981  -15.6815   27.4268 C   0  0  2  0  0  0  0  0  0  0  0  0
    9.4504  -14.6551   26.4655 N   0  0  0  0  0  0  0  0  0  0  0  0
   10.0956  -15.0837   28.7414 C   0  0  0  0  0  0  0  0  0  0  0  0
   10.3918  -13.7545   28.8941 O   0  0  0  0  0  0  0  0  0  0  0  0
   11.2232  -18.7962   27.1729 C   0  0  0  0  0  0  0  0  0  0  0  0
   11.5616  -19.9115   27.9009 C   0  0  0  0  0  0  0  0  0  0  0  0
    9.9971  -15.7923   29.7841 O   0  0  0  0  0  0  0  0  0  0  0  0
  2  1  1  6
  2  3  1  0
  3  4  1  0
  5  2  1  0
  6  5  2  0
  8  7  1  1
  8  9  1  0
  8 10  1  0
 10 12  1  0
 10 11  1  6
 11  5  1  0
 12 21  1  0
 13 12  2  0
 15 16  2  0
 15 14  1  0
 17 16  1  0
 18 17  2  0
 20 19  1  6
 19 18  1  0
 20 22  1  0
 21 20  1  0
 22 26  2  0
 22 23  1  0
 24 18  1  0
 24 25  2  0
 25 15  1  0
M  END
$$$$
