CVY.pdb
     RDKit          3D

 26 26  0  0  1  0  0  0  0  0999 V2000
    4.1359  -13.3606   24.8047 N   0  0  0  0  0  0  0  0  0  0  0  0
    5.4356  -12.7466   24.6138 C   0  0  1  0  0  0  0  0  0  0  0  0
    6.0383  -12.3679   25.9497 C   0  0  0  0  0  0  0  0  0  0  0  0
    7.7063  -11.6610   25.6804 S   0  0  0  0  0  0  0  0  0  0  0  0
    6.2831  -13.6760   23.8559 C   0  0  0  0  0  0  0  0  0  0  0  0
    6.4985  -14.8692   24.2642 O   0  0  0  0  0  0  0  0  0  0  0  0
    6.8666  -13.5376   19.8567 C   0  0  0  0  0  0  0  0  0  0  0  0
    8.1729  -13.6266   20.6191 C   0  0  1  0  0  0  0  0  0  0  0  0
    8.6820  -12.2050   20.7791 C   0  0  0  0  0  0  0  0  0  0  0  0
    7.8563  -14.2427   21.9815 C   0  0  2  0  0  0  0  0  0  0  0  0
    6.9278  -13.3489   22.6300 N   0  0  0  0  0  0  0  0  0  0  0  0
    9.1200  -14.4051   22.6969 C   0  0  0  0  0  0  0  0  0  0  0  0
    9.8170  -13.3839   22.9116 O   0  0  0  0  0  0  0  0  0  0  0  0
   12.1135  -15.8776   30.5000 O   0  0  0  0  0  0  0  0  0  0  0  0
   11.4458  -15.8428   29.2942 C   0  0  0  0  0  0  0  0  0  0  0  0
   10.9933  -17.0278   28.7292 C   0  0  0  0  0  0  0  0  0  0  0  0
   10.3328  -16.9713   27.5320 C   0  0  0  0  0  0  0  0  0  0  0  0
   10.1049  -15.7922   26.8769 C   0  0  0  0  0  0  0  0  0  0  0  0
    9.3938  -15.7412   25.5600 C   0  0  0  0  0  0  0  0  0  0  0  0
   10.3772  -15.6916   24.4162 C   0  0  2  0  0  0  0  0  0  0  0  0
    9.6011  -15.6531   23.1614 N   0  0  0  0  0  0  0  0  0  0  0  0
   11.3196  -16.8031   24.3878 C   0  0  0  0  0  0  0  0  0  0  0  0
   12.5439  -16.7288   24.9989 O   0  0  0  0  0  0  0  0  0  0  0  0
   10.5559  -14.6180   27.4411 C   0  0  0  0  0  0  0  0  0  0  0  0
   11.2223  -14.6439   28.6427 C   0  0  0  0  0  0  0  0  0  0  0  0
   11.0213  -17.8752   23.7873 O   0  0  0  0  0  0  0  0  0  0  0  0
  2  1  1  1
  2  3  1  0
  3  4  1  0
  5  2  1  0
  6  5  2  0
  8  7  1  6
  8  9  1  0
  8 10  1  0
 10 12  1  0
 10 11  1  1
 11  5  1  0
 12 21  1  0
 13 12  2  0
 15 16  2  0
 15 14  1  0
 17 16  1  0
 18 17  2  0
 20 19  1  1
 19 18  1  0
 20 22  1  0
 21 20  1  0
 22 26  2  0
 22 23  1  0
 24 18  1  0
 24 25  2  0
 25 15  1  0
M  END
$$$$
