CVY.pdb
     RDKit          3D

 26 26  0  0  1  0  0  0  0  0999 V2000
    5.7699  -19.2358   20.8627 N   0  0  0  0  0  0  0  0  0  0  0  0
    5.8302  -18.2967   21.9660 C   0  0  1  0  0  0  0  0  0  0  0  0
    5.8477  -19.0380   23.2856 C   0  0  0  0  0  0  0  0  0  0  0  0
    5.7021  -17.8324   24.6567 S   0  0  0  0  0  0  0  0  0  0  0  0
    7.0093  -17.4402   21.7846 C   0  0  0  0  0  0  0  0  0  0  0  0
    8.1777  -17.9360   21.6240 O   0  0  0  0  0  0  0  0  0  0  0  0
    6.9075  -14.0668   19.9670 C   0  0  0  0  0  0  0  0  0  0  0  0
    7.7389  -13.8350   21.2122 C   0  0  1  0  0  0  0  0  0  0  0  0
    6.8369  -13.1369   22.2147 C   0  0  0  0  0  0  0  0  0  0  0  0
    8.1614  -15.2087   21.7319 C   0  0  2  0  0  0  0  0  0  0  0  0
    6.9674  -16.0177   21.7705 N   0  0  0  0  0  0  0  0  0  0  0  0
    8.7868  -15.0133   23.0381 C   0  0  0  0  0  0  0  0  0  0  0  0
    8.4360  -14.0219   23.7227 O   0  0  0  0  0  0  0  0  0  0  0  0
    5.7924  -11.5189   26.7592 O   0  0  0  0  0  0  0  0  0  0  0  0
    6.6094  -12.6087   26.5449 C   0  0  0  0  0  0  0  0  0  0  0  0
    6.0647  -13.7826   26.0412 C   0  0  0  0  0  0  0  0  0  0  0  0
    6.8929  -14.8525   25.8357 C   0  0  0  0  0  0  0  0  0  0  0  0
    8.2325  -14.8040   26.1085 C   0  0  0  0  0  0  0  0  0  0  0  0
    9.1287  -15.9843   25.8941 C   0  0  0  0  0  0  0  0  0  0  0  0
   10.2533  -15.6443   24.9466 C   0  0  2  0  0  0  0  0  0  0  0  0
    9.7678  -15.8826   23.5734 N   0  0  0  0  0  0  0  0  0  0  0  0
   11.4810  -16.3942   25.1806 C   0  0  0  0  0  0  0  0  0  0  0  0
   12.3314  -16.0862   26.2101 O   0  0  0  0  0  0  0  0  0  0  0  0
    8.7693  -13.6368   26.6087 C   0  0  0  0  0  0  0  0  0  0  0  0
    7.9619  -12.5460   26.8252 C   0  0  0  0  0  0  0  0  0  0  0  0
   11.7913  -17.3591   24.4244 O   0  0  0  0  0  0  0  0  0  0  0  0
  2  1  1  6
  2  3  1  0
  3  4  1  0
  5  2  1  0
  6  5  2  0
  8  7  1  6
  8  9  1  0
  8 10  1  0
 10 12  1  0
 10 11  1  1
 11  5  1  0
 12 21  1  0
 13 12  2  0
 15 16  2  0
 15 14  1  0
 17 16  1  0
 18 17  2  0
 20 19  1  1
 19 18  1  0
 20 22  1  0
 21 20  1  0
 22 26  2  0
 22 23  1  0
 24 18  1  0
 24 25  2  0
 25 15  1  0
M  END
$$$$
