CVY.pdb
     RDKit          3D

 26 26  0  0  1  0  0  0  0  0999 V2000
    9.8176  -16.2386   16.7175 N   0  0  0  0  0  0  0  0  0  0  0  0
    9.1911  -16.9013   17.8448 C   0  0  1  0  0  0  0  0  0  0  0  0
    9.6250  -18.3500   17.9093 C   0  0  0  0  0  0  0  0  0  0  0  0
    8.4996  -19.3633   16.8790 S   0  0  0  0  0  0  0  0  0  0  0  0
    9.5247  -16.1578   19.0666 C   0  0  0  0  0  0  0  0  0  0  0  0
   10.7142  -15.7455   19.2946 O   0  0  0  0  0  0  0  0  0  0  0  0
    7.2384  -13.4974   20.8854 C   0  0  0  0  0  0  0  0  0  0  0  0
    7.6985  -14.5439   21.8799 C   0  0  1  0  0  0  0  0  0  0  0  0
    6.5850  -15.5718   21.9774 C   0  0  0  0  0  0  0  0  0  0  0  0
    8.9681  -15.1763   21.3108 C   0  0  2  0  0  0  0  0  0  0  0  0
    8.5849  -15.8336   20.0849 N   0  0  0  0  0  0  0  0  0  0  0  0
    9.5037  -16.0811   22.3255 C   0  0  0  0  0  0  0  0  0  0  0  0
    9.3198  -17.3138   22.1793 O   0  0  0  0  0  0  0  0  0  0  0  0
    9.5715  -13.8749   29.7986 O   0  0  0  0  0  0  0  0  0  0  0  0
   10.1597  -14.3679   28.6532 C   0  0  0  0  0  0  0  0  0  0  0  0
   10.0370  -13.6618   27.4638 C   0  0  0  0  0  0  0  0  0  0  0  0
   10.6284  -14.1684   26.3384 C   0  0  0  0  0  0  0  0  0  0  0  0
   11.3328  -15.3410   26.3464 C   0  0  0  0  0  0  0  0  0  0  0  0
   11.9645  -15.8952   25.1071 C   0  0  0  0  0  0  0  0  0  0  0  0
   10.9522  -16.6388   24.2703 C   0  0  2  0  0  0  0  0  0  0  0  0
   10.2193  -15.6420   23.4656 N   0  0  0  0  0  0  0  0  0  0  0  0
   10.0152  -17.4464   25.0411 C   0  0  0  0  0  0  0  0  0  0  0  0
   10.4029  -18.5999   25.6711 O   0  0  0  0  0  0  0  0  0  0  0  0
   11.4521  -16.0390   27.5293 C   0  0  0  0  0  0  0  0  0  0  0  0
   10.8689  -15.5547   28.6755 C   0  0  0  0  0  0  0  0  0  0  0  0
    8.8054  -17.0930   25.1442 O   0  0  0  0  0  0  0  0  0  0  0  0
  2  1  1  6
  2  3  1  0
  3  4  1  0
  5  2  1  0
  6  5  2  0
  8  7  1  6
  8  9  1  0
  8 10  1  0
 10 12  1  0
 10 11  1  6
 11  5  1  0
 12 21  1  0
 13 12  2  0
 15 16  2  0
 15 14  1  0
 17 16  1  0
 18 17  2  0
 20 19  1  1
 19 18  1  0
 20 22  1  0
 21 20  1  0
 22 26  2  0
 22 23  1  0
 24 18  1  0
 24 25  2  0
 25 15  1  0
M  END
$$$$
