CVY.pdb
     RDKit          3D

 26 26  0  0  1  0  0  0  0  0999 V2000
    7.4622  -18.6168   20.0581 N   0  0  0  0  0  0  0  0  0  0  0  0
    8.6356  -18.2332   19.2975 C   0  0  1  0  0  0  0  0  0  0  0  0
    8.3534  -18.3293   17.8134 C   0  0  0  0  0  0  0  0  0  0  0  0
    7.4061  -19.8604   17.4774 S   0  0  0  0  0  0  0  0  0  0  0  0
    9.0360  -16.8815   19.7090 C   0  0  0  0  0  0  0  0  0  0  0  0
   10.1945  -16.4142   19.4328 O   0  0  0  0  0  0  0  0  0  0  0  0
    7.8152  -12.4247   21.3602 C   0  0  0  0  0  0  0  0  0  0  0  0
    7.3759  -13.8057   20.9182 C   0  0  1  0  0  0  0  0  0  0  0  0
    6.7396  -13.6433   19.5491 C   0  0  0  0  0  0  0  0  0  0  0  0
    8.6335  -14.6697   20.8295 C   0  0  2  0  0  0  0  0  0  0  0  0
    8.1988  -15.9872   20.4333 N   0  0  0  0  0  0  0  0  0  0  0  0
    9.2893  -14.6300   22.1347 C   0  0  0  0  0  0  0  0  0  0  0  0
    9.6051  -13.5113   22.6074 O   0  0  0  0  0  0  0  0  0  0  0  0
   10.8543  -14.7764   30.4840 O   0  0  0  0  0  0  0  0  0  0  0  0
   10.4178  -14.8447   29.1779 C   0  0  0  0  0  0  0  0  0  0  0  0
   10.0277  -16.0688   28.6509 C   0  0  0  0  0  0  0  0  0  0  0  0
    9.5976  -16.1148   27.3526 C   0  0  0  0  0  0  0  0  0  0  0  0
    9.5394  -15.0007   26.5610 C   0  0  0  0  0  0  0  0  0  0  0  0
    9.0810  -15.0628   25.1368 C   0  0  0  0  0  0  0  0  0  0  0  0
   10.1636  -15.6186   24.2441 C   0  0  2  0  0  0  0  0  0  0  0  0
    9.5881  -15.7862   22.8954 N   0  0  0  0  0  0  0  0  0  0  0  0
   10.7322  -16.8788   24.7056 C   0  0  0  0  0  0  0  0  0  0  0  0
   11.8498  -16.9208   25.4975 O   0  0  0  0  0  0  0  0  0  0  0  0
    9.9277  -13.7874   27.0879 C   0  0  0  0  0  0  0  0  0  0  0  0
   10.3641  -13.7105   28.3888 C   0  0  0  0  0  0  0  0  0  0  0  0
   10.1970  -17.9765   24.3775 O   0  0  0  0  0  0  0  0  0  0  0  0
  2  1  1  1
  2  3  1  0
  3  4  1  0
  5  2  1  0
  6  5  2  0
  8  7  1  6
  8  9  1  0
  8 10  1  0
 10 12  1  0
 10 11  1  1
 11  5  1  0
 12 21  1  0
 13 12  2  0
 15 16  2  0
 15 14  1  0
 17 16  1  0
 18 17  2  0
 20 19  1  1
 19 18  1  0
 20 22  1  0
 21 20  1  0
 22 26  2  0
 22 23  1  0
 24 18  1  0
 24 25  2  0
 25 15  1  0
M  END
$$$$
