CVY.pdb
     RDKit          3D

 26 26  0  0  1  0  0  0  0  0999 V2000
    5.7602  -19.0809   20.6312 N   0  0  0  0  0  0  0  0  0  0  0  0
    5.7439  -18.0627   21.6634 C   0  0  1  0  0  0  0  0  0  0  0  0
    5.7289  -18.7050   23.0340 C   0  0  0  0  0  0  0  0  0  0  0  0
    4.0082  -19.1566   23.4698 S   0  0  0  0  0  0  0  0  0  0  0  0
    6.9018  -17.1811   21.4664 C   0  0  0  0  0  0  0  0  0  0  0  0
    8.0893  -17.6479   21.3726 O   0  0  0  0  0  0  0  0  0  0  0  0
    8.7662  -12.6860   20.7434 C   0  0  0  0  0  0  0  0  0  0  0  0
    7.5227  -13.5321   20.9264 C   0  0  1  0  0  0  0  0  0  0  0  0
    6.8461  -13.6117   19.5694 C   0  0  0  0  0  0  0  0  0  0  0  0
    7.9846  -14.9162   21.3809 C   0  0  2  0  0  0  0  0  0  0  0  0
    6.8174  -15.7642   21.3638 N   0  0  0  0  0  0  0  0  0  0  0  0
    8.5895  -14.7677   22.7028 C   0  0  0  0  0  0  0  0  0  0  0  0
    8.1675  -13.8522   23.4501 O   0  0  0  0  0  0  0  0  0  0  0  0
    5.4359  -11.7428   26.7870 O   0  0  0  0  0  0  0  0  0  0  0  0
    6.3179  -12.7565   26.4775 C   0  0  0  0  0  0  0  0  0  0  0  0
    7.6832  -12.5359   26.6017 C   0  0  0  0  0  0  0  0  0  0  0  0
    8.5416  -13.5551   26.2895 C   0  0  0  0  0  0  0  0  0  0  0  0
    8.1012  -14.7775   25.8615 C   0  0  0  0  0  0  0  0  0  0  0  0
    9.0482  -15.8823   25.5083 C   0  0  0  0  0  0  0  0  0  0  0  0
   10.1188  -15.3953   24.5625 C   0  0  2  0  0  0  0  0  0  0  0  0
    9.6266  -15.6014   23.1865 N   0  0  0  0  0  0  0  0  0  0  0  0
   11.4113  -16.0466   24.7344 C   0  0  0  0  0  0  0  0  0  0  0  0
   12.2161  -15.7832   25.8119 O   0  0  0  0  0  0  0  0  0  0  0  0
    6.7449  -14.9922   25.7393 C   0  0  0  0  0  0  0  0  0  0  0  0
    5.8591  -13.9873   26.0458 C   0  0  0  0  0  0  0  0  0  0  0  0
   11.8228  -16.8805   23.8775 O   0  0  0  0  0  0  0  0  0  0  0  0
  2  1  1  6
  2  3  1  0
  3  4  1  0
  5  2  1  0
  6  5  2  0
  8  7  1  6
  8  9  1  0
  8 10  1  0
 10 12  1  0
 10 11  1  1
 11  5  1  0
 12 21  1  0
 13 12  2  0
 15 16  2  0
 15 14  1  0
 17 16  1  0
 18 17  2  0
 20 19  1  1
 19 18  1  0
 20 22  1  0
 21 20  1  0
 22 26  2  0
 22 23  1  0
 24 18  1  0
 24 25  2  0
 25 15  1  0
M  END
$$$$
