ILL.pdb
     RDKit          3D

 25 24  0  0  1  0  0  0  0  0999 V2000
    5.5041  -21.2216   24.6133 C   0  0  0  0  0  0  0  0  0  0  0  0
    5.7509  -20.4069   23.3799 C   0  0  0  0  0  0  0  0  0  0  0  0
    6.7712  -19.3011   23.6080 C   0  0  2  0  0  0  0  0  0  0  0  0
    6.3145  -18.4842   24.7708 C   0  0  0  0  0  0  0  0  0  0  0  0
    6.9213  -18.5508   22.3303 C   0  0  2  0  0  0  0  0  0  0  0  0
    7.0396  -19.5135   21.2517 N   0  0  0  0  0  0  0  0  0  0  0  0
    8.0333  -17.5953   22.3002 C   0  0  0  0  0  0  0  0  0  0  0  0
    9.2449  -17.9110   22.2548 O   0  0  0  0  0  0  0  0  0  0  0  0
    8.6339  -14.6981   19.3251 C   0  0  0  0  0  0  0  0  0  0  0  0
    7.5868  -14.2398   20.3477 C   0  0  2  0  0  0  0  0  0  0  0  0
    6.8412  -13.0509   19.8462 C   0  0  0  0  0  0  0  0  0  0  0  0
    8.3153  -14.0168   21.6224 C   0  0  0  0  0  0  0  0  0  0  0  0
    8.8435  -15.2298   22.2944 C   0  0  2  0  0  0  0  0  0  0  0  0
    7.7424  -16.2071   22.3232 N   0  0  0  0  0  0  0  0  0  0  0  0
    9.2685  -14.9072   23.6850 C   0  0  0  0  0  0  0  0  0  0  0  0
   10.3382  -14.2711   23.8136 O   0  0  0  0  0  0  0  0  0  0  0  0
    8.2111  -11.6919   26.3104 C   0  0  0  0  0  0  0  0  0  0  0  0
    7.3507  -12.8887   26.2254 C   0  0  2  0  0  0  0  0  0  0  0  0
    6.0205  -12.5601   26.9448 C   0  0  0  0  0  0  0  0  0  0  0  0
    7.8147  -14.1668   26.7793 C   0  0  0  0  0  0  0  0  0  0  0  0
    8.9244  -14.9201   26.1818 C   0  0  2  0  0  0  0  0  0  0  0  0
    8.5113  -15.2940   24.8120 N   0  0  0  0  0  0  0  0  0  0  0  0
    9.3614  -16.1658   26.8159 C   0  0  0  0  0  0  0  0  0  0  0  0
   10.0332  -16.2705   28.0357 O   0  0  0  0  0  0  0  0  0  0  0  0
    9.1476  -17.2853   26.2597 O   0  0  0  0  0  0  0  0  0  0  0  0
  2  1  1  0
  3  5  1  0
  3  2  1  0
  3  4  1  1
  5  6  1  6
  7  5  1  0
  7  8  2  0
 10  9  1  6
 11 10  1  0
 12 10  1  0
 13 12  1  1
 13 14  1  0
 14  7  1  0
 15 13  1  0
 16 15  2  0
 18 17  1  1
 18 20  1  0
 19 18  1  0
 21 20  1  1
 21 22  1  0
 21 23  1  0
 22 15  1  0
 23 24  1  0
 25 23  2  0
M  END
$$$$
