ILL.pdb
     RDKit          3D

 25 24  0  0  1  0  0  0  0  0999 V2000
    6.4024  -20.6374   26.1987 C   0  0  0  0  0  0  0  0  0  0  0  0
    6.4054  -20.2359   24.7549 C   0  0  0  0  0  0  0  0  0  0  0  0
    7.3094  -19.0417   24.4854 C   0  0  2  0  0  0  0  0  0  0  0  0
    6.8540  -17.9135   25.3500 C   0  0  0  0  0  0  0  0  0  0  0  0
    7.2762  -18.7679   23.0219 C   0  0  2  0  0  0  0  0  0  0  0  0
    7.4995  -20.0190   22.3224 N   0  0  0  0  0  0  0  0  0  0  0  0
    8.2152  -17.7394   22.5628 C   0  0  0  0  0  0  0  0  0  0  0  0
    9.4474  -17.9120   22.4160 O   0  0  0  0  0  0  0  0  0  0  0  0
    8.7243  -14.9818   19.1759 C   0  0  0  0  0  0  0  0  0  0  0  0
    7.4622  -14.6102   19.9642 C   0  0  2  0  0  0  0  0  0  0  0  0
    6.7073  -13.5256   19.2752 C   0  0  0  0  0  0  0  0  0  0  0  0
    7.9111  -14.2706   21.3385 C   0  0  0  0  0  0  0  0  0  0  0  0
    8.6564  -15.3294   22.0632 C   0  0  2  0  0  0  0  0  0  0  0  0
    7.7171  -16.4471   22.2561 N   0  0  0  0  0  0  0  0  0  0  0  0
    9.1181  -14.8241   23.3860 C   0  0  0  0  0  0  0  0  0  0  0  0
   10.1016  -14.0508   23.3813 O   0  0  0  0  0  0  0  0  0  0  0  0
    5.6629  -12.3297   27.4056 C   0  0  0  0  0  0  0  0  0  0  0  0
    7.0349  -12.8043   27.1367 C   0  0  2  0  0  0  0  0  0  0  0  0
    7.9198  -11.5593   26.8878 C   0  0  0  0  0  0  0  0  0  0  0  0
    7.2881  -13.7210   26.0181 C   0  0  0  0  0  0  0  0  0  0  0  0
    8.5969  -14.3520   25.8064 C   0  0  2  0  0  0  0  0  0  0  0  0
    8.4862  -15.1915   24.5939 N   0  0  0  0  0  0  0  0  0  0  0  0
    9.1398  -15.2297   26.8456 C   0  0  0  0  0  0  0  0  0  0  0  0
    9.9503  -14.8315   27.9108 O   0  0  0  0  0  0  0  0  0  0  0  0
    8.8958  -16.4742   26.8347 O   0  0  0  0  0  0  0  0  0  0  0  0
  2  1  1  0
  3  5  1  0
  3  2  1  0
  3  4  1  1
  5  6  1  6
  7  5  1  0
  7  8  2  0
 10  9  1  6
 11 10  1  0
 12 10  1  0
 13 12  1  1
 13 14  1  0
 14  7  1  0
 15 13  1  0
 16 15  2  0
 18 17  1  6
 18 20  1  0
 19 18  1  0
 21 20  1  1
 21 22  1  0
 21 23  1  0
 22 15  1  0
 23 24  1  0
 25 23  2  0
M  END
$$$$
