ILL.pdb
     RDKit          3D

 25 24  0  0  1  0  0  0  0  0999 V2000
    9.4222  -22.1904   24.1611 C   0  0  0  0  0  0  0  0  0  0  0  0
    9.0898  -21.4659   22.8920 C   0  0  0  0  0  0  0  0  0  0  0  0
    9.3719  -19.9733   22.9836 C   0  0  2  0  0  0  0  0  0  0  0  0
    8.6802  -19.4464   24.1968 C   0  0  0  0  0  0  0  0  0  0  0  0
    8.9508  -19.3516   21.6975 C   0  0  2  0  0  0  0  0  0  0  0  0
    9.4723  -20.1604   20.6120 N   0  0  0  0  0  0  0  0  0  0  0  0
    9.3376  -17.9468   21.5329 C   0  0  0  0  0  0  0  0  0  0  0  0
   10.5043  -17.5490   21.3088 O   0  0  0  0  0  0  0  0  0  0  0  0
    6.2717  -12.8932   20.2172 C   0  0  0  0  0  0  0  0  0  0  0  0
    7.6549  -13.3874   20.6584 C   0  0  2  0  0  0  0  0  0  0  0  0
    8.6987  -12.9921   19.6709 C   0  0  0  0  0  0  0  0  0  0  0  0
    7.5295  -14.8522   20.8685 C   0  0  0  0  0  0  0  0  0  0  0  0
    8.7034  -15.5288   21.4735 C   0  0  2  0  0  0  0  0  0  0  0  0
    8.3366  -16.9464   21.6299 N   0  0  0  0  0  0  0  0  0  0  0  0
    9.0119  -14.9374   22.8051 C   0  0  0  0  0  0  0  0  0  0  0  0
    9.5167  -13.7926   22.8096 O   0  0  0  0  0  0  0  0  0  0  0  0
    5.8693  -12.5449   26.4903 C   0  0  0  0  0  0  0  0  0  0  0  0
    7.2106  -13.1584   26.4223 C   0  0  2  0  0  0  0  0  0  0  0  0
    8.2512  -12.0144   26.4794 C   0  0  0  0  0  0  0  0  0  0  0  0
    7.5780  -13.9935   25.2719 C   0  0  0  0  0  0  0  0  0  0  0  0
    8.7211  -14.9143   25.3087 C   0  0  2  0  0  0  0  0  0  0  0  0
    8.7527  -15.6236   24.0114 N   0  0  0  0  0  0  0  0  0  0  0  0
    8.7582  -15.9616   26.3319 C   0  0  0  0  0  0  0  0  0  0  0  0
    8.3940  -17.2972   26.1484 O   0  0  0  0  0  0  0  0  0  0  0  0
    9.1400  -15.7000   27.5126 O   0  0  0  0  0  0  0  0  0  0  0  0
  2  1  1  0
  3  5  1  0
  3  2  1  0
  3  4  1  1
  5  6  1  6
  7  5  1  0
  7  8  2  0
 10  9  1  6
 11 10  1  0
 12 10  1  0
 13 12  1  1
 13 14  1  0
 14  7  1  0
 15 13  1  0
 16 15  2  0
 18 17  1  6
 18 20  1  0
 19 18  1  0
 21 20  1  6
 21 22  1  0
 21 23  1  0
 22 15  1  0
 23 24  1  0
 25 23  2  0
M  END
$$$$
