ILL.pdb
     RDKit          3D

 25 24  0  0  1  0  0  0  0  0999 V2000
    4.6589  -21.0761   21.4835 C   0  0  0  0  0  0  0  0  0  0  0  0
    5.4138  -20.5814   22.6799 C   0  0  0  0  0  0  0  0  0  0  0  0
    6.1934  -19.3071   22.3893 C   0  0  2  0  0  0  0  0  0  0  0  0
    7.0515  -19.5534   21.1932 C   0  0  0  0  0  0  0  0  0  0  0  0
    6.9306  -18.9331   23.6281 C   0  0  2  0  0  0  0  0  0  0  0  0
    6.0182  -19.0491   24.7499 N   0  0  0  0  0  0  0  0  0  0  0  0
    7.5560  -17.6071   23.6001 C   0  0  0  0  0  0  0  0  0  0  0  0
    8.4735  -17.2668   22.8178 O   0  0  0  0  0  0  0  0  0  0  0  0
    6.2490  -12.3528   26.4158 C   0  0  0  0  0  0  0  0  0  0  0  0
    7.3045  -13.0189   25.5245 C   0  0  2  0  0  0  0  0  0  0  0  0
    7.5963  -12.1777   24.3295 C   0  0  0  0  0  0  0  0  0  0  0  0
    6.7918  -14.3770   25.2110 C   0  0  0  0  0  0  0  0  0  0  0  0
    7.7364  -15.2889   24.5196 C   0  0  2  0  0  0  0  0  0  0  0  0
    7.1075  -16.6204   24.5153 N   0  0  0  0  0  0  0  0  0  0  0  0
    9.0316  -15.3449   25.2527 C   0  0  0  0  0  0  0  0  0  0  0  0
    9.6913  -14.2834   25.3124 O   0  0  0  0  0  0  0  0  0  0  0  0
   10.7179  -14.1294   29.8831 C   0  0  0  0  0  0  0  0  0  0  0  0
   10.9991  -14.6402   28.5267 C   0  0  2  0  0  0  0  0  0  0  0  0
   10.8307  -13.4609   27.5389 C   0  0  0  0  0  0  0  0  0  0  0  0
   10.2081  -15.7508   27.9823 C   0  0  0  0  0  0  0  0  0  0  0  0
   10.6393  -16.5126   26.8034 C   0  0  2  0  0  0  0  0  0  0  0  0
    9.5042  -16.5308   25.8557 N   0  0  0  0  0  0  0  0  0  0  0  0
   11.0384  -17.9121   26.9677 C   0  0  0  0  0  0  0  0  0  0  0  0
   10.1808  -19.0141   26.9527 O   0  0  0  0  0  0  0  0  0  0  0  0
   12.2549  -18.2216   27.1490 O   0  0  0  0  0  0  0  0  0  0  0  0
  2  1  1  0
  3  5  1  0
  3  2  1  0
  3  4  1  6
  5  6  1  1
  7  5  1  0
  7  8  2  0
 10  9  1  1
 11 10  1  0
 12 10  1  0
 13 12  1  1
 13 14  1  0
 14  7  1  0
 15 13  1  0
 16 15  2  0
 18 17  1  1
 18 20  1  0
 19 18  1  0
 21 20  1  1
 21 22  1  0
 21 23  1  0
 22 15  1  0
 23 24  1  0
 25 23  2  0
M  END
$$$$
