ILL.pdb
     RDKit          3D

 25 24  0  0  1  0  0  0  0  0999 V2000
    8.4257  -20.7954   17.7674 C   0  0  0  0  0  0  0  0  0  0  0  0
    8.1478  -20.2193   19.1226 C   0  0  0  0  0  0  0  0  0  0  0  0
    8.8885  -18.9116   19.3616 C   0  0  2  0  0  0  0  0  0  0  0  0
   10.3299  -19.1326   19.0431 C   0  0  0  0  0  0  0  0  0  0  0  0
    8.6105  -18.4810   20.7599 C   0  0  2  0  0  0  0  0  0  0  0  0
    7.1723  -18.3958   20.9294 N   0  0  0  0  0  0  0  0  0  0  0  0
    9.2576  -17.2282   21.1623 C   0  0  0  0  0  0  0  0  0  0  0  0
   10.4961  -17.0407   21.1889 O   0  0  0  0  0  0  0  0  0  0  0  0
    9.1489  -13.4978   19.2248 C   0  0  0  0  0  0  0  0  0  0  0  0
    7.8265  -13.7930   19.9433 C   0  0  2  0  0  0  0  0  0  0  0  0
    6.7715  -12.8248   19.5304 C   0  0  0  0  0  0  0  0  0  0  0  0
    8.1295  -13.7904   21.3971 C   0  0  0  0  0  0  0  0  0  0  0  0
    9.0673  -14.8379   21.8714 C   0  0  2  0  0  0  0  0  0  0  0  0
    8.4443  -16.1340   21.5545 N   0  0  0  0  0  0  0  0  0  0  0  0
    9.2714  -14.7221   23.3422 C   0  0  0  0  0  0  0  0  0  0  0  0
   10.1395  -13.9078   23.7279 O   0  0  0  0  0  0  0  0  0  0  0  0
    8.5380  -12.2468   26.7364 C   0  0  0  0  0  0  0  0  0  0  0  0
    7.5133  -13.0993   26.1015 C   0  0  2  0  0  0  0  0  0  0  0  0
    6.1372  -12.6788   26.6710 C   0  0  0  0  0  0  0  0  0  0  0  0
    7.5872  -14.5594   26.2367 C   0  0  0  0  0  0  0  0  0  0  0  0
    8.7245  -15.3346   25.7251 C   0  0  2  0  0  0  0  0  0  0  0  0
    8.5287  -15.4875   24.2673 N   0  0  0  0  0  0  0  0  0  0  0  0
    8.9504  -16.6882   26.2368 C   0  0  0  0  0  0  0  0  0  0  0  0
    9.4922  -17.0114   27.4826 O   0  0  0  0  0  0  0  0  0  0  0  0
    8.6552  -17.7031   25.5360 O   0  0  0  0  0  0  0  0  0  0  0  0
  2  1  1  0
  3  5  1  0
  3  2  1  0
  3  4  1  1
  5  6  1  6
  7  5  1  0
  7  8  2  0
 10  9  1  6
 11 10  1  0
 12 10  1  0
 13 12  1  1
 13 14  1  0
 14  7  1  0
 15 13  1  0
 16 15  2  0
 18 17  1  1
 18 20  1  0
 19 18  1  0
 21 20  1  1
 21 22  1  0
 21 23  1  0
 22 15  1  0
 23 24  1  0
 25 23  2  0
M  END
$$$$
