ILL.pdb
     RDKit          3D

 25 24  0  0  1  0  0  0  0  0999 V2000
    5.8645  -10.6602   26.0874 C   0  0  0  0  0  0  0  0  0  0  0  0
    5.4922  -12.0418   25.6419 C   0  0  0  0  0  0  0  0  0  0  0  0
    6.6966  -12.9675   25.5503 C   0  0  2  0  0  0  0  0  0  0  0  0
    7.7107  -12.3196   24.6674 C   0  0  0  0  0  0  0  0  0  0  0  0
    6.2132  -14.2972   25.0856 C   0  0  2  0  0  0  0  0  0  0  0  0
    5.2098  -14.7665   26.0222 N   0  0  0  0  0  0  0  0  0  0  0  0
    7.2610  -15.3055   24.8959 C   0  0  0  0  0  0  0  0  0  0  0  0
    7.5719  -16.1793   25.7383 O   0  0  0  0  0  0  0  0  0  0  0  0
   10.6680  -16.8655   20.0570 C   0  0  0  0  0  0  0  0  0  0  0  0
   10.3318  -17.2625   21.4998 C   0  0  2  0  0  0  0  0  0  0  0  0
    9.7359  -18.6276   21.5486 C   0  0  0  0  0  0  0  0  0  0  0  0
    9.4570  -16.1894   22.0369 C   0  0  0  0  0  0  0  0  0  0  0  0
    8.9945  -16.3621   23.4363 C   0  0  2  0  0  0  0  0  0  0  0  0
    7.9900  -15.3131   23.6791 N   0  0  0  0  0  0  0  0  0  0  0  0
   10.1338  -16.1984   24.3815 C   0  0  0  0  0  0  0  0  0  0  0  0
   11.0173  -15.3725   24.0610 O   0  0  0  0  0  0  0  0  0  0  0  0
   11.3727  -13.7820   27.3958 C   0  0  0  0  0  0  0  0  0  0  0  0
   10.5482  -14.9403   27.7938 C   0  0  2  0  0  0  0  0  0  0  0  0
   10.1427  -14.7390   29.2737 C   0  0  0  0  0  0  0  0  0  0  0  0
   11.0963  -16.2989   27.6971 C   0  0  0  0  0  0  0  0  0  0  0  0
   11.4521  -16.9078   26.4092 C   0  0  2  0  0  0  0  0  0  0  0  0
   10.2252  -16.9327   25.5839 N   0  0  0  0  0  0  0  0  0  0  0  0
   11.9690  -18.2780   26.3889 C   0  0  0  0  0  0  0  0  0  0  0  0
   11.2788  -19.4057   25.9394 O   0  0  0  0  0  0  0  0  0  0  0  0
   13.1383  -18.5353   26.8072 O   0  0  0  0  0  0  0  0  0  0  0  0
  2  1  1  0
  3  5  1  0
  3  2  1  0
  3  4  1  6
  5  6  1  1
  7  5  1  0
  7  8  2  0
 10  9  1  6
 11 10  1  0
 12 10  1  0
 13 12  1  6
 13 14  1  0
 14  7  1  0
 15 13  1  0
 16 15  2  0
 18 17  1  1
 18 20  1  0
 19 18  1  0
 21 20  1  1
 21 22  1  0
 21 23  1  0
 22 15  1  0
 23 24  1  0
 25 23  2  0
M  END
$$$$
