ILL.pdb
     RDKit          3D

 25 24  0  0  1  0  0  0  0  0999 V2000
    2.3444  -18.5544   21.6876 C   0  0  0  0  0  0  0  0  0  0  0  0
    3.5417  -18.7568   22.5658 C   0  0  0  0  0  0  0  0  0  0  0  0
    4.7597  -17.9880   22.0746 C   0  0  2  0  0  0  0  0  0  0  0  0
    4.9997  -18.3644   20.6503 C   0  0  0  0  0  0  0  0  0  0  0  0
    5.8868  -18.2812   23.0029 C   0  0  2  0  0  0  0  0  0  0  0  0
    5.4688  -17.9301   24.3469 N   0  0  0  0  0  0  0  0  0  0  0  0
    7.1545  -17.6269   22.6639 C   0  0  0  0  0  0  0  0  0  0  0  0
    8.0300  -18.1131   21.9109 O   0  0  0  0  0  0  0  0  0  0  0  0
    8.8731  -14.5106   20.2316 C   0  0  0  0  0  0  0  0  0  0  0  0
    7.8236  -14.0240   21.2385 C   0  0  2  0  0  0  0  0  0  0  0  0
    7.4563  -12.6037   20.9765 C   0  0  0  0  0  0  0  0  0  0  0  0
    8.3899  -14.2745   22.5883 C   0  0  0  0  0  0  0  0  0  0  0  0
    8.7124  -15.6866   22.9103 C   0  0  2  0  0  0  0  0  0  0  0  0
    7.4338  -16.3502   23.2157 N   0  0  0  0  0  0  0  0  0  0  0  0
    9.6120  -15.7545   24.0954 C   0  0  0  0  0  0  0  0  0  0  0  0
   10.7091  -15.1602   24.0044 O   0  0  0  0  0  0  0  0  0  0  0  0
    9.5628  -13.3548   27.3029 C   0  0  0  0  0  0  0  0  0  0  0  0
    8.7711  -14.5925   27.4486 C   0  0  2  0  0  0  0  0  0  0  0  0
    7.8979  -14.4422   28.7173 C   0  0  0  0  0  0  0  0  0  0  0  0
    9.4507  -15.8886   27.5664 C   0  0  0  0  0  0  0  0  0  0  0  0
   10.1625  -16.5027   26.4385 C   0  0  2  0  0  0  0  0  0  0  0  0
    9.2568  -16.4519   25.2705 N   0  0  0  0  0  0  0  0  0  0  0  0
   10.5924  -17.8988   26.5439 C   0  0  0  0  0  0  0  0  0  0  0  0
   11.6226  -18.3779   27.3558 O   0  0  0  0  0  0  0  0  0  0  0  0
   10.0251  -18.8044   25.8610 O   0  0  0  0  0  0  0  0  0  0  0  0
  2  1  1  0
  3  5  1  0
  3  2  1  0
  3  4  1  6
  5  6  1  1
  7  5  1  0
  7  8  2  0
 10  9  1  6
 11 10  1  0
 12 10  1  0
 13 12  1  1
 13 14  1  0
 14  7  1  0
 15 13  1  0
 16 15  2  0
 18 17  1  1
 18 20  1  0
 19 18  1  0
 21 20  1  1
 21 22  1  0
 21 23  1  0
 22 15  1  0
 23 24  1  0
 25 23  2  0
M  END
$$$$
