ILL.pdb
     RDKit          3D

 25 24  0  0  1  0  0  0  0  0999 V2000
    5.5726  -21.1407   24.7789 C   0  0  0  0  0  0  0  0  0  0  0  0
    5.8490  -20.4602   23.4725 C   0  0  0  0  0  0  0  0  0  0  0  0
    6.7392  -19.2362   23.6315 C   0  0  2  0  0  0  0  0  0  0  0  0
    6.0888  -18.3163   24.6105 C   0  0  0  0  0  0  0  0  0  0  0  0
    6.9641  -18.6591   22.2771 C   0  0  2  0  0  0  0  0  0  0  0  0
    7.1941  -19.7525   21.3520 N   0  0  0  0  0  0  0  0  0  0  0  0
    8.0454  -17.6719   22.1962 C   0  0  0  0  0  0  0  0  0  0  0  0
    9.2657  -17.9519   22.1495 O   0  0  0  0  0  0  0  0  0  0  0  0
    8.8926  -14.6592   19.2736 C   0  0  0  0  0  0  0  0  0  0  0  0
    7.6965  -14.2446   20.1393 C   0  0  2  0  0  0  0  0  0  0  0  0
    7.0270  -13.0384   19.5754 C   0  0  0  0  0  0  0  0  0  0  0  0
    8.2177  -14.0708   21.5190 C   0  0  0  0  0  0  0  0  0  0  0  0
    8.7828  -15.2829   22.1619 C   0  0  2  0  0  0  0  0  0  0  0  0
    7.7117  -16.2935   22.1675 N   0  0  0  0  0  0  0  0  0  0  0  0
    9.1990  -14.9808   23.5597 C   0  0  0  0  0  0  0  0  0  0  0  0
   10.2460  -14.3111   23.7032 O   0  0  0  0  0  0  0  0  0  0  0  0
    7.6571  -11.8634   26.2788 C   0  0  0  0  0  0  0  0  0  0  0  0
    6.9729  -13.1581   26.0896 C   0  0  2  0  0  0  0  0  0  0  0  0
    5.5705  -13.0442   26.7340 C   0  0  0  0  0  0  0  0  0  0  0  0
    7.5722  -14.3890   26.6200 C   0  0  0  0  0  0  0  0  0  0  0  0
    8.7908  -14.9743   26.0468 C   0  0  2  0  0  0  0  0  0  0  0  0
    8.4580  -15.4223   24.6773 N   0  0  0  0  0  0  0  0  0  0  0  0
    9.4003  -16.1328   26.7036 C   0  0  0  0  0  0  0  0  0  0  0  0
   10.1029  -16.1126   27.9103 O   0  0  0  0  0  0  0  0  0  0  0  0
    9.3258  -17.2864   26.1821 O   0  0  0  0  0  0  0  0  0  0  0  0
  2  1  1  0
  3  5  1  0
  3  2  1  0
  3  4  1  1
  5  6  1  6
  7  5  1  0
  7  8  2  0
 10  9  1  6
 11 10  1  0
 12 10  1  0
 13 12  1  1
 13 14  1  0
 14  7  1  0
 15 13  1  0
 16 15  2  0
 18 17  1  1
 18 20  1  0
 19 18  1  0
 21 20  1  1
 21 22  1  0
 21 23  1  0
 22 15  1  0
 23 24  1  0
 25 23  2  0
M  END
$$$$
