ILL.pdb
     RDKit          3D

 25 24  0  0  1  0  0  0  0  0999 V2000
    2.5406  -18.9409   20.8020 C   0  0  0  0  0  0  0  0  0  0  0  0
    3.5830  -18.8631   21.8758 C   0  0  0  0  0  0  0  0  0  0  0  0
    4.8090  -18.0739   21.4398 C   0  0  2  0  0  0  0  0  0  0  0  0
    5.2694  -18.6224   20.1302 C   0  0  0  0  0  0  0  0  0  0  0  0
    5.8100  -18.1450   22.5403 C   0  0  2  0  0  0  0  0  0  0  0  0
    5.2195  -17.5568   23.7276 N   0  0  0  0  0  0  0  0  0  0  0  0
    7.1048  -17.5254   22.2407 C   0  0  0  0  0  0  0  0  0  0  0  0
    8.0501  -18.0969   21.6494 O   0  0  0  0  0  0  0  0  0  0  0  0
    7.8703  -14.4317   19.5503 C   0  0  0  0  0  0  0  0  0  0  0  0
    7.3200  -14.1070   20.9445 C   0  0  2  0  0  0  0  0  0  0  0  0
    6.6624  -12.7697   20.9564 C   0  0  0  0  0  0  0  0  0  0  0  0
    8.4601  -14.2407   21.8868 C   0  0  0  0  0  0  0  0  0  0  0  0
    8.6651  -15.5860   22.4783 C   0  0  2  0  0  0  0  0  0  0  0  0
    7.3283  -16.1823   22.6388 N   0  0  0  0  0  0  0  0  0  0  0  0
    9.3294  -15.4714   23.8064 C   0  0  0  0  0  0  0  0  0  0  0  0
   10.4765  -14.9720   23.8210 O   0  0  0  0  0  0  0  0  0  0  0  0
    9.6352  -12.4985   27.1606 C   0  0  0  0  0  0  0  0  0  0  0  0
    8.4945  -13.3625   26.7969 C   0  0  2  0  0  0  0  0  0  0  0  0
    7.2410  -12.8091   27.5163 C   0  0  0  0  0  0  0  0  0  0  0  0
    8.5392  -14.7999   27.0926 C   0  0  0  0  0  0  0  0  0  0  0  0
    9.3631  -15.7324   26.3130 C   0  0  2  0  0  0  0  0  0  0  0  0
    8.7070  -15.9011   24.9985 N   0  0  0  0  0  0  0  0  0  0  0  0
    9.5789  -17.0882   26.8231 C   0  0  0  0  0  0  0  0  0  0  0  0
    9.2224  -18.2723   26.1743 O   0  0  0  0  0  0  0  0  0  0  0  0
   10.1286  -17.2761   27.9505 O   0  0  0  0  0  0  0  0  0  0  0  0
  2  1  1  0
  3  5  1  0
  3  2  1  0
  3  4  1  6
  5  6  1  1
  7  5  1  0
  7  8  2  0
 10  9  1  6
 11 10  1  0
 12 10  1  0
 13 12  1  1
 13 14  1  0
 14  7  1  0
 15 13  1  0
 16 15  2  0
 18 17  1  1
 18 20  1  0
 19 18  1  0
 21 20  1  1
 21 22  1  0
 21 23  1  0
 22 15  1  0
 23 24  1  0
 25 23  2  0
M  END
$$$$
