ILL.pdb
     RDKit          3D

 25 24  0  0  1  0  0  0  0  0999 V2000
    9.4722  -20.6746   19.9759 C   0  0  0  0  0  0  0  0  0  0  0  0
    9.0500  -19.2367   19.9906 C   0  0  0  0  0  0  0  0  0  0  0  0
    9.4795  -18.5176   21.2612 C   0  0  2  0  0  0  0  0  0  0  0  0
    9.0511  -19.3452   22.4272 C   0  0  0  0  0  0  0  0  0  0  0  0
    8.9089  -17.1427   21.2200 C   0  0  2  0  0  0  0  0  0  0  0  0
    9.3125  -16.5226   19.9723 N   0  0  0  0  0  0  0  0  0  0  0  0
    9.2596  -16.2921   22.3619 C   0  0  0  0  0  0  0  0  0  0  0  0
   10.3611  -15.7138   22.5097 O   0  0  0  0  0  0  0  0  0  0  0  0
    8.4009  -12.5291   25.1104 C   0  0  0  0  0  0  0  0  0  0  0  0
    7.0538  -13.2148   24.8512 C   0  0  2  0  0  0  0  0  0  0  0  0
    5.9994  -12.6693   25.7521 C   0  0  0  0  0  0  0  0  0  0  0  0
    7.2914  -14.6737   24.9944 C   0  0  0  0  0  0  0  0  0  0  0  0
    8.5970  -15.1752   24.4987 C   0  0  2  0  0  0  0  0  0  0  0  0
    8.2992  -16.0939   23.3870 N   0  0  0  0  0  0  0  0  0  0  0  0
    9.3144  -15.9068   25.5796 C   0  0  0  0  0  0  0  0  0  0  0  0
    8.7248  -16.8895   26.0817 O   0  0  0  0  0  0  0  0  0  0  0  0
   10.6278  -13.2264   28.1323 C   0  0  0  0  0  0  0  0  0  0  0  0
   10.0501  -14.5397   28.4807 C   0  0  2  0  0  0  0  0  0  0  0  0
    9.5763  -14.4664   29.9521 C   0  0  0  0  0  0  0  0  0  0  0  0
   10.8685  -15.7537   28.3706 C   0  0  0  0  0  0  0  0  0  0  0  0
   11.3086  -16.2841   27.0741 C   0  0  2  0  0  0  0  0  0  0  0  0
   10.5972  -15.5213   26.0257 N   0  0  0  0  0  0  0  0  0  0  0  0
   11.0703  -17.6957   26.7651 C   0  0  0  0  0  0  0  0  0  0  0  0
   10.4410  -18.1870   25.6194 O   0  0  0  0  0  0  0  0  0  0  0  0
   11.4380  -18.6055   27.5685 O   0  0  0  0  0  0  0  0  0  0  0  0
  2  1  1  0
  3  5  1  0
  3  2  1  0
  3  4  1  1
  5  6  1  6
  7  5  1  0
  7  8  2  0
 10  9  1  1
 11 10  1  0
 12 10  1  0
 13 12  1  1
 13 14  1  0
 14  7  1  0
 15 13  1  0
 16 15  2  0
 18 17  1  1
 18 20  1  0
 19 18  1  0
 21 20  1  1
 21 22  1  0
 21 23  1  0
 22 15  1  0
 23 24  1  0
 25 23  2  0
M  END
$$$$
