ILL.pdb
     RDKit          3D

 25 24  0  0  1  0  0  0  0  0999 V2000
    8.7315  -19.0734   27.7841 C   0  0  0  0  0  0  0  0  0  0  0  0
    8.2744  -19.3454   26.3831 C   0  0  0  0  0  0  0  0  0  0  0  0
    6.8685  -18.8262   26.1191 C   0  0  2  0  0  0  0  0  0  0  0  0
    5.9338  -19.5347   27.0421 C   0  0  0  0  0  0  0  0  0  0  0  0
    6.5818  -19.0084   24.6691 C   0  0  2  0  0  0  0  0  0  0  0  0
    6.7302  -20.4161   24.3520 N   0  0  0  0  0  0  0  0  0  0  0  0
    7.3935  -18.1832   23.7688 C   0  0  0  0  0  0  0  0  0  0  0  0
    8.3531  -18.6062   23.0833 O   0  0  0  0  0  0  0  0  0  0  0  0
    6.7258  -12.6123   21.3984 C   0  0  0  0  0  0  0  0  0  0  0  0
    7.6657  -13.8232   21.4473 C   0  0  2  0  0  0  0  0  0  0  0  0
    7.8477  -14.4080   20.0887 C   0  0  0  0  0  0  0  0  0  0  0  0
    7.0927  -14.7586   22.4484 C   0  0  0  0  0  0  0  0  0  0  0  0
    7.9169  -15.9472   22.7795 C   0  0  2  0  0  0  0  0  0  0  0  0
    7.0905  -16.8027   23.6477 N   0  0  0  0  0  0  0  0  0  0  0  0
    9.1511  -15.5352   23.5043 C   0  0  0  0  0  0  0  0  0  0  0  0
   10.0393  -14.9703   22.8280 O   0  0  0  0  0  0  0  0  0  0  0  0
    8.9946  -12.6919   26.5529 C   0  0  0  0  0  0  0  0  0  0  0  0
    9.0253  -14.0249   27.1869 C   0  0  2  0  0  0  0  0  0  0  0  0
    8.9575  -13.8156   28.7188 C   0  0  0  0  0  0  0  0  0  0  0  0
   10.1575  -14.9274   26.9434 C   0  0  0  0  0  0  0  0  0  0  0  0
   10.5525  -15.3372   25.5899 C   0  0  2  0  0  0  0  0  0  0  0  0
    9.3238  -15.7646   24.8866 N   0  0  0  0  0  0  0  0  0  0  0  0
   11.5027  -16.4401   25.4295 C   0  0  0  0  0  0  0  0  0  0  0  0
   11.2232  -17.6837   24.8591 O   0  0  0  0  0  0  0  0  0  0  0  0
   12.7016  -16.3250   25.8269 O   0  0  0  0  0  0  0  0  0  0  0  0
  2  1  1  0
  3  5  1  0
  3  2  1  0
  3  4  1  1
  5  6  1  6
  7  5  1  0
  7  8  2  0
 10  9  1  6
 11 10  1  0
 12 10  1  0
 13 12  1  1
 13 14  1  0
 14  7  1  0
 15 13  1  0
 16 15  2  0
 18 17  1  6
 18 20  1  0
 19 18  1  0
 21 20  1  1
 21 22  1  0
 21 23  1  0
 22 15  1  0
 23 24  1  0
 25 23  2  0
M  END
$$$$
