ILL.pdb
     RDKit          3D

 25 24  0  0  1  0  0  0  0  0999 V2000
    8.9573  -18.4952   20.3082 C   0  0  0  0  0  0  0  0  0  0  0  0
    8.4802  -17.8857   21.5915 C   0  0  0  0  0  0  0  0  0  0  0  0
    7.2986  -16.9489   21.3862 C   0  0  2  0  0  0  0  0  0  0  0  0
    6.6275  -17.3256   20.1073 C   0  0  0  0  0  0  0  0  0  0  0  0
    7.8115  -15.5519   21.4416 C   0  0  2  0  0  0  0  0  0  0  0  0
    8.7096  -15.3549   20.3196 N   0  0  0  0  0  0  0  0  0  0  0  0
    8.4631  -15.1808   22.7018 C   0  0  0  0  0  0  0  0  0  0  0  0
    9.7023  -15.1561   22.8847 O   0  0  0  0  0  0  0  0  0  0  0  0
    8.1325  -11.7465   25.7889 C   0  0  0  0  0  0  0  0  0  0  0  0
    6.8677  -12.5976   25.6215 C   0  0  2  0  0  0  0  0  0  0  0  0
    5.7400  -12.0326   26.4152 C   0  0  0  0  0  0  0  0  0  0  0  0
    7.2448  -13.9860   25.9898 C   0  0  0  0  0  0  0  0  0  0  0  0
    8.2692  -14.6340   25.1340 C   0  0  2  0  0  0  0  0  0  0  0  0
    7.6535  -14.8196   23.8093 N   0  0  0  0  0  0  0  0  0  0  0  0
    8.6556  -15.9561   25.7007 C   0  0  0  0  0  0  0  0  0  0  0  0
    7.8310  -16.8878   25.5692 O   0  0  0  0  0  0  0  0  0  0  0  0
   12.7976  -19.5652   27.3170 C   0  0  0  0  0  0  0  0  0  0  0  0
   12.0603  -19.2407   26.0797 C   0  0  2  0  0  0  0  0  0  0  0  0
   13.0516  -19.3670   24.8980 C   0  0  0  0  0  0  0  0  0  0  0  0
   11.4101  -17.9323   25.9348 C   0  0  0  0  0  0  0  0  0  0  0  0
   10.3062  -17.5081   26.8051 C   0  0  2  0  0  0  0  0  0  0  0  0
    9.8887  -16.1621   26.3567 N   0  0  0  0  0  0  0  0  0  0  0  0
   10.5418  -17.3885   28.2457 C   0  0  0  0  0  0  0  0  0  0  0  0
   10.6627  -16.1934   28.9579 O   0  0  0  0  0  0  0  0  0  0  0  0
   10.6618  -18.4224   28.9703 O   0  0  0  0  0  0  0  0  0  0  0  0
  2  1  1  0
  3  5  1  0
  3  2  1  0
  3  4  1  6
  5  6  1  6
  7  5  1  0
  7  8  2  0
 10  9  1  1
 11 10  1  0
 12 10  1  0
 13 12  1  1
 13 14  1  0
 14  7  1  0
 15 13  1  0
 16 15  2  0
 18 17  1  1
 18 20  1  0
 19 18  1  0
 21 20  1  6
 21 22  1  0
 21 23  1  0
 22 15  1  0
 23 24  1  0
 25 23  2  0
M  END
$$$$
