IPD.pdb
     RDKit          3D

 24 24  0  0  1  0  0  0  0  0999 V2000
    7.5089  -11.5401   26.8469 C   0  0  0  0  0  0  0  0  0  0  0  0
    7.4093  -13.0572   27.0660 C   0  0  0  0  0  0  0  0  0  0  0  0
    7.0242  -13.6528   25.7542 C   0  0  2  0  0  0  0  0  0  0  0  0
    5.8029  -12.9913   25.2169 C   0  0  0  0  0  0  0  0  0  0  0  0
    6.9589  -15.1631   25.7697 C   0  0  2  0  0  0  0  0  0  0  0  0
    7.6505  -15.6542   26.9174 N   0  0  0  0  0  0  0  0  0  0  0  0
    7.3412  -15.7943   24.4994 C   0  0  0  0  0  0  0  0  0  0  0  0
    7.5914  -17.0295   24.5326 O   0  0  0  0  0  0  0  0  0  0  0  0
    7.4467  -15.1095   23.2458 N   0  0  0  0  0  0  0  0  0  0  0  0
    6.7511  -13.8665   22.9921 C   0  0  0  0  0  0  0  0  0  0  0  0
    6.9742  -13.5468   21.5337 C   0  0  0  0  0  0  0  0  0  0  0  0
    8.2908  -14.2058   21.2824 C   0  0  0  0  0  0  0  0  0  0  0  0
    8.1764  -15.4750   22.0944 C   0  0  1  0  0  0  0  0  0  0  0  0
    9.5736  -15.9184   22.3499 C   0  0  0  0  0  0  0  0  0  0  0  0
   10.3813  -15.3027   23.0873 O   0  0  0  0  0  0  0  0  0  0  0  0
   10.0342  -17.1030   21.7320 N   0  0  0  0  0  0  0  0  0  0  0  0
   11.3649  -17.6320   21.8754 C   0  0  1  0  0  0  0  0  0  0  0  0
   11.4377  -18.8643   22.7254 C   0  0  0  0  0  0  0  0  0  0  0  0
   12.8111  -19.3460   22.9465 C   0  0  0  0  0  0  0  0  0  0  0  0
   13.8485  -18.8368   22.4718 O   0  0  0  0  0  0  0  0  0  0  0  0
   11.9435  -17.9551   20.5448 C   0  0  0  0  0  0  0  0  0  0  0  0
   11.2461  -18.6504   19.5690 O   0  0  0  0  0  0  0  0  0  0  0  0
   12.9720  -20.4666   23.7547 O   0  0  0  0  0  0  0  0  0  0  0  0
   13.1148  -17.5940   20.2657 O   0  0  0  0  0  0  0  0  0  0  0  0
  2  1  1  0
  3  2  1  0
  3  4  1  1
  5  7  1  0
  5  3  1  0
  5  6  1  1
  7  8  2  0
  9 13  1  0
  9  7  1  0
 10  9  1  0
 11 10  1  0
 11 12  1  0
 12 13  1  0
 14 15  2  0
 13 14  1  1
 16 14  1  0
 17 16  1  0
 17 21  1  0
 17 18  1  1
 19 20  2  0
 19 18  1  0
 21 22  1  0
 23 19  1  0
 24 21  2  0
M  END
$$$$
