IPD.pdb
     RDKit          3D

 24 24  0  0  1  0  0  0  0  0999 V2000
    6.6267  -11.6008   27.3316 C   0  0  0  0  0  0  0  0  0  0  0  0
    5.8844  -12.7705   26.6682 C   0  0  0  0  0  0  0  0  0  0  0  0
    6.9096  -13.5609   25.9280 C   0  0  2  0  0  0  0  0  0  0  0  0
    7.7016  -12.6784   25.0271 C   0  0  0  0  0  0  0  0  0  0  0  0
    6.3548  -14.7977   25.2585 C   0  0  2  0  0  0  0  0  0  0  0  0
    5.6726  -15.5935   26.2270 N   0  0  0  0  0  0  0  0  0  0  0  0
    7.3310  -15.5250   24.4360 C   0  0  0  0  0  0  0  0  0  0  0  0
    8.0439  -16.3810   25.0263 O   0  0  0  0  0  0  0  0  0  0  0  0
    7.5227  -15.3286   23.0303 N   0  0  0  0  0  0  0  0  0  0  0  0
    6.6129  -14.5299   22.2382 C   0  0  0  0  0  0  0  0  0  0  0  0
    7.0475  -14.6928   20.8017 C   0  0  0  0  0  0  0  0  0  0  0  0
    8.5077  -14.9636   20.9612 C   0  0  0  0  0  0  0  0  0  0  0  0
    8.5411  -15.8355   22.1950 C   0  0  1  0  0  0  0  0  0  0  0  0
    9.9204  -15.7124   22.7394 C   0  0  0  0  0  0  0  0  0  0  0  0
   10.2212  -15.0117   23.7362 O   0  0  0  0  0  0  0  0  0  0  0  0
   10.9664  -16.4215   22.1066 N   0  0  0  0  0  0  0  0  0  0  0  0
   12.2258  -16.7398   22.7263 C   0  0  1  0  0  0  0  0  0  0  0  0
   12.0947  -17.5406   23.9863 C   0  0  0  0  0  0  0  0  0  0  0  0
   13.3766  -17.7717   24.6724 C   0  0  0  0  0  0  0  0  0  0  0  0
   14.4839  -17.3089   24.3254 O   0  0  0  0  0  0  0  0  0  0  0  0
   13.0921  -17.4983   21.7862 C   0  0  0  0  0  0  0  0  0  0  0  0
   14.2470  -16.9682   21.2319 O   0  0  0  0  0  0  0  0  0  0  0  0
   13.3571  -18.5755   25.8074 O   0  0  0  0  0  0  0  0  0  0  0  0
   12.7876  -18.6742   21.4625 O   0  0  0  0  0  0  0  0  0  0  0  0
  2  1  1  0
  3  2  1  0
  3  4  1  6
  5  7  1  0
  5  3  1  0
  5  6  1  1
  7  8  2  0
  9 13  1  0
  9  7  1  0
 10  9  1  0
 11 10  1  0
 11 12  1  0
 12 13  1  0
 14 15  2  0
 13 14  1  1
 16 14  1  0
 17 16  1  0
 17 21  1  0
 17 18  1  1
 19 20  2  0
 19 18  1  0
 21 22  1  0
 23 19  1  0
 24 21  2  0
M  END
$$$$
