IPD.pdb
     RDKit          3D

 24 24  0  0  1  0  0  0  0  0999 V2000
    6.6495  -11.6767   27.3406 C   0  0  0  0  0  0  0  0  0  0  0  0
    5.9217  -12.8864   26.7353 C   0  0  0  0  0  0  0  0  0  0  0  0
    6.9417  -13.6571   25.9676 C   0  0  2  0  0  0  0  0  0  0  0  0
    7.6799  -12.7629   25.0332 C   0  0  0  0  0  0  0  0  0  0  0  0
    6.3971  -14.9138   25.3276 C   0  0  2  0  0  0  0  0  0  0  0  0
    5.7796  -15.7237   26.3273 N   0  0  0  0  0  0  0  0  0  0  0  0
    7.3599  -15.6167   24.4689 C   0  0  0  0  0  0  0  0  0  0  0  0
    8.0878  -16.4833   25.0243 O   0  0  0  0  0  0  0  0  0  0  0  0
    7.5231  -15.3858   23.0648 N   0  0  0  0  0  0  0  0  0  0  0  0
    6.6743  -14.4678   22.3366 C   0  0  0  0  0  0  0  0  0  0  0  0
    7.0408  -14.6176   20.8799 C   0  0  0  0  0  0  0  0  0  0  0  0
    8.4697  -15.0421   20.9743 C   0  0  0  0  0  0  0  0  0  0  0  0
    8.4547  -15.9606   22.1740 C   0  0  1  0  0  0  0  0  0  0  0  0
    9.8570  -16.0004   22.6700 C   0  0  0  0  0  0  0  0  0  0  0  0
   10.3680  -15.1172   23.4006 O   0  0  0  0  0  0  0  0  0  0  0  0
   10.6760  -17.0928   22.3048 N   0  0  0  0  0  0  0  0  0  0  0  0
   12.0506  -17.2483   22.7017 C   0  0  1  0  0  0  0  0  0  0  0  0
   12.2809  -18.3835   23.6527 C   0  0  0  0  0  0  0  0  0  0  0  0
   13.6898  -18.5426   24.0486 C   0  0  0  0  0  0  0  0  0  0  0  0
   14.4996  -19.3554   23.5540 O   0  0  0  0  0  0  0  0  0  0  0  0
   12.9157  -17.4613   21.5117 C   0  0  0  0  0  0  0  0  0  0  0  0
   14.1111  -16.7862   21.3191 O   0  0  0  0  0  0  0  0  0  0  0  0
   14.1651  -17.7171   25.0622 O   0  0  0  0  0  0  0  0  0  0  0  0
   12.5720  -18.2840   20.6255 O   0  0  0  0  0  0  0  0  0  0  0  0
  2  1  1  0
  3  2  1  0
  3  4  1  6
  5  7  1  0
  5  3  1  0
  5  6  1  1
  7  8  2  0
  9 13  1  0
  9  7  1  0
 10  9  1  0
 11 10  1  0
 11 12  1  0
 12 13  1  0
 14 15  2  0
 13 14  1  1
 16 14  1  0
 17 16  1  0
 17 21  1  0
 17 18  1  1
 19 20  2  0
 19 18  1  0
 21 22  1  0
 23 19  1  0
 24 21  2  0
M  END
$$$$
