IPD.pdb
     RDKit          3D

 24 24  0  0  1  0  0  0  0  0999 V2000
    8.2178  -11.8283   20.0056 C   0  0  0  0  0  0  0  0  0  0  0  0
    7.9008  -13.1326   20.7524 C   0  0  0  0  0  0  0  0  0  0  0  0
    8.6697  -14.2124   20.0692 C   0  0  2  0  0  0  0  0  0  0  0  0
    8.3066  -14.2817   18.6266 C   0  0  0  0  0  0  0  0  0  0  0  0
    8.6193  -15.5410   20.7888 C   0  0  2  0  0  0  0  0  0  0  0  0
    7.2993  -16.0763   20.7009 N   0  0  0  0  0  0  0  0  0  0  0  0
    9.1871  -15.5128   22.1435 C   0  0  0  0  0  0  0  0  0  0  0  0
   10.3601  -15.9553   22.2760 O   0  0  0  0  0  0  0  0  0  0  0  0
    8.5064  -15.0235   23.3048 N   0  0  0  0  0  0  0  0  0  0  0  0
    7.3666  -14.1377   23.2071 C   0  0  0  0  0  0  0  0  0  0  0  0
    7.0345  -13.7182   24.6187 C   0  0  0  0  0  0  0  0  0  0  0  0
    7.5195  -14.8945   25.4010 C   0  0  0  0  0  0  0  0  0  0  0  0
    8.7851  -15.2709   24.6660 C   0  0  1  0  0  0  0  0  0  0  0  0
    9.0411  -16.6966   25.0064 C   0  0  0  0  0  0  0  0  0  0  0  0
    8.5635  -17.6666   24.3692 O   0  0  0  0  0  0  0  0  0  0  0  0
    9.8705  -16.9928   26.1116 N   0  0  0  0  0  0  0  0  0  0  0  0
   10.6416  -18.2000   26.2507 C   0  0  1  0  0  0  0  0  0  0  0  0
   11.7097  -18.3587   25.2115 C   0  0  0  0  0  0  0  0  0  0  0  0
   12.4909  -19.5981   25.3553 C   0  0  0  0  0  0  0  0  0  0  0  0
   12.0225  -20.7339   25.5823 O   0  0  0  0  0  0  0  0  0  0  0  0
   11.2882  -18.2542   27.5881 C   0  0  0  0  0  0  0  0  0  0  0  0
   11.9486  -17.1724   28.1499 O   0  0  0  0  0  0  0  0  0  0  0  0
   13.8725  -19.5002   25.2279 O   0  0  0  0  0  0  0  0  0  0  0  0
   11.2497  -19.3154   28.2610 O   0  0  0  0  0  0  0  0  0  0  0  0
  2  1  1  0
  3  2  1  0
  3  4  1  6
  5  7  1  0
  5  3  1  0
  5  6  1  1
  7  8  2  0
  9 13  1  0
  9  7  1  0
 10  9  1  0
 11 10  1  0
 11 12  1  0
 12 13  1  0
 14 15  2  0
 13 14  1  6
 16 14  1  0
 17 16  1  0
 17 21  1  0
 17 18  1  6
 19 20  2  0
 19 18  1  0
 21 22  1  0
 23 19  1  0
 24 21  2  0
M  END
$$$$
