IPD.pdb
     RDKit          3D

 24 24  0  0  1  0  0  0  0  0999 V2000
    9.9209  -13.7563   29.2281 C   0  0  0  0  0  0  0  0  0  0  0  0
    8.9736  -14.8670   28.7503 C   0  0  0  0  0  0  0  0  0  0  0  0
    9.2239  -15.0420   27.2907 C   0  0  2  0  0  0  0  0  0  0  0  0
    9.2557  -13.7217   26.6026 C   0  0  0  0  0  0  0  0  0  0  0  0
    8.3196  -16.0628   26.6384 C   0  0  2  0  0  0  0  0  0  0  0  0
    8.1748  -17.1878   27.5045 N   0  0  0  0  0  0  0  0  0  0  0  0
    8.6837  -16.3906   25.2534 C   0  0  0  0  0  0  0  0  0  0  0  0
    9.5230  -17.3174   25.0919 O   0  0  0  0  0  0  0  0  0  0  0  0
    8.1565  -15.7368   24.0932 N   0  0  0  0  0  0  0  0  0  0  0  0
    7.1079  -14.7441   24.1846 C   0  0  0  0  0  0  0  0  0  0  0  0
    6.7136  -14.4133   22.7655 C   0  0  0  0  0  0  0  0  0  0  0  0
    7.9856  -14.6856   22.0316 C   0  0  0  0  0  0  0  0  0  0  0  0
    8.5089  -15.9145   22.7382 C   0  0  1  0  0  0  0  0  0  0  0  0
    9.9717  -15.9441   22.4676 C   0  0  0  0  0  0  0  0  0  0  0  0
   10.5636  -15.1273   21.7208 O   0  0  0  0  0  0  0  0  0  0  0  0
   10.7560  -16.9468   23.0813 N   0  0  0  0  0  0  0  0  0  0  0  0
   12.1771  -17.0908   22.9051 C   0  0  1  0  0  0  0  0  0  0  0  0
   12.9508  -15.8367   23.1786 C   0  0  0  0  0  0  0  0  0  0  0  0
   14.4006  -15.9824   22.9687 C   0  0  0  0  0  0  0  0  0  0  0  0
   14.9434  -16.6227   22.0434 O   0  0  0  0  0  0  0  0  0  0  0  0
   12.7062  -18.1611   23.7906 C   0  0  0  0  0  0  0  0  0  0  0  0
   14.0098  -18.6266   23.7134 O   0  0  0  0  0  0  0  0  0  0  0  0
   15.2436  -15.3531   23.8787 O   0  0  0  0  0  0  0  0  0  0  0  0
   11.9603  -18.6848   24.6564 O   0  0  0  0  0  0  0  0  0  0  0  0
  2  1  1  0
  3  2  1  0
  3  4  1  6
  5  7  1  0
  5  3  1  0
  5  6  1  1
  7  8  2  0
  9 13  1  0
  9  7  1  0
 10  9  1  0
 11 10  1  0
 11 12  1  0
 12 13  1  0
 14 15  2  0
 13 14  1  1
 16 14  1  0
 17 16  1  0
 17 21  1  0
 17 18  1  1
 19 20  2  0
 19 18  1  0
 21 22  1  0
 23 19  1  0
 24 21  2  0
M  END
$$$$
