IPD.pdb
     RDKit          3D

 24 24  0  0  1  0  0  0  0  0999 V2000
    6.8015  -11.7018   27.3664 C   0  0  0  0  0  0  0  0  0  0  0  0
    6.0505  -12.8725   26.7145 C   0  0  0  0  0  0  0  0  0  0  0  0
    7.0627  -13.6534   25.9469 C   0  0  2  0  0  0  0  0  0  0  0  0
    7.8299  -12.7618   25.0337 C   0  0  0  0  0  0  0  0  0  0  0  0
    6.4992  -14.8891   25.2828 C   0  0  2  0  0  0  0  0  0  0  0  0
    5.8595  -15.7033   26.2649 N   0  0  0  0  0  0  0  0  0  0  0  0
    7.4546  -15.5961   24.4192 C   0  0  0  0  0  0  0  0  0  0  0  0
    8.1624  -16.4850   24.9654 O   0  0  0  0  0  0  0  0  0  0  0  0
    7.6318  -15.3459   23.0202 N   0  0  0  0  0  0  0  0  0  0  0  0
    6.7389  -14.4823   22.2783 C   0  0  0  0  0  0  0  0  0  0  0  0
    7.1456  -14.5979   20.8291 C   0  0  0  0  0  0  0  0  0  0  0  0
    8.5975  -14.9262   20.9524 C   0  0  0  0  0  0  0  0  0  0  0  0
    8.6187  -15.8512   22.1470 C   0  0  1  0  0  0  0  0  0  0  0  0
   10.0096  -15.8000   22.6731 C   0  0  0  0  0  0  0  0  0  0  0  0
   10.4759  -14.8381   23.3308 O   0  0  0  0  0  0  0  0  0  0  0  0
   10.8704  -16.8932   22.4254 N   0  0  0  0  0  0  0  0  0  0  0  0
   12.2140  -17.0022   22.9295 C   0  0  1  0  0  0  0  0  0  0  0  0
   12.3763  -18.0390   23.9995 C   0  0  0  0  0  0  0  0  0  0  0  0
   13.7297  -18.0810   24.5773 C   0  0  0  0  0  0  0  0  0  0  0  0
   14.6852  -17.3446   24.2525 O   0  0  0  0  0  0  0  0  0  0  0  0
   13.1592  -17.3243   21.8284 C   0  0  0  0  0  0  0  0  0  0  0  0
   14.3201  -16.6027   21.5971 O   0  0  0  0  0  0  0  0  0  0  0  0
   13.9696  -19.0221   25.5731 O   0  0  0  0  0  0  0  0  0  0  0  0
   12.9196  -18.2884   21.0580 O   0  0  0  0  0  0  0  0  0  0  0  0
  2  1  1  0
  3  2  1  0
  3  4  1  6
  5  7  1  0
  5  3  1  0
  5  6  1  1
  7  8  2  0
  9 13  1  0
  9  7  1  0
 10  9  1  0
 11 10  1  0
 11 12  1  0
 12 13  1  0
 14 15  2  0
 13 14  1  1
 16 14  1  0
 17 16  1  0
 17 21  1  0
 17 18  1  1
 19 20  2  0
 19 18  1  0
 21 22  1  0
 23 19  1  0
 24 21  2  0
M  END
$$$$
