NVW.pdb
     RDKit          3D

 30 31  0  0  1  0  0  0  0  0999 V2000
   25.7955  -24.1166  -18.4484 N   0  0  0  0  0  0  0  0  0  0  0  0
   25.4141  -24.5333  -17.1658 C   0  0  0  0  0  0  0  0  0  0  0  0
   24.5144  -25.3754  -17.0135 O   0  0  0  0  0  0  0  0  0  0  0  0
   26.0722  -23.9812  -15.9645 C   0  0  0  0  0  0  0  0  0  0  0  0
   27.0723  -22.9471  -16.4425 C   0  0  2  0  0  0  0  0  0  0  0  0
   28.2097  -23.5513  -17.0797 N   0  0  0  0  0  0  0  0  0  0  0  0
   27.5105  -22.0552  -15.3495 C   0  0  0  0  0  0  0  0  0  0  0  0
   28.6368  -22.1841  -14.7809 O   0  0  0  0  0  0  0  0  0  0  0  0
   27.2789  -17.9276  -12.6368 C   0  0  0  0  0  0  0  0  0  0  0  0
   26.9788  -18.6996  -13.9032 C   0  0  1  0  0  0  0  0  0  0  0  0
   27.7089  -18.1414  -15.0994 C   0  0  0  0  0  0  0  0  0  0  0  0
   27.1213  -20.1699  -13.7513 C   0  0  2  0  0  0  0  0  0  0  0  0
   26.7377  -20.9900  -14.8372 N   0  0  0  0  0  0  0  0  0  0  0  0
   26.3207  -20.5735  -12.5484 C   0  0  0  0  0  0  0  0  0  0  0  0
   25.0711  -20.7532  -12.6351 O   0  0  0  0  0  0  0  0  0  0  0  0
   26.9677  -20.7555  -11.3062 N   0  0  0  0  0  0  0  0  0  0  0  0
   26.2103  -21.2606  -10.1618 C   0  0  1  0  0  0  0  0  0  0  0  0
   27.1300  -21.6188   -9.0412 C   0  0  0  0  0  0  0  0  0  0  0  0
   27.1166  -20.6167   -7.9737 C   0  0  0  0  0  0  0  0  0  0  0  0
   26.3284  -19.4682   -7.9428 C   0  0  0  0  0  0  0  0  0  0  0  0
   26.6025  -18.7599   -6.8398 N   0  0  0  0  0  0  0  0  0  0  0  0
   27.5448  -19.3864   -6.1246 C   0  0  0  0  0  0  0  0  0  0  0  0
   28.1406  -19.0724   -4.9208 C   0  0  0  0  0  0  0  0  0  0  0  0
   29.0870  -19.8867   -4.3459 C   0  0  0  0  0  0  0  0  0  0  0  0
   29.4052  -21.0380   -5.0463 C   0  0  0  0  0  0  0  0  0  0  0  0
   28.8224  -21.3687   -6.2494 C   0  0  0  0  0  0  0  0  0  0  0  0
   27.8744  -20.5355   -6.8092 C   0  0  0  0  0  0  0  0  0  0  0  0
   25.0991  -20.3873   -9.8118 C   0  0  0  0  0  0  0  0  0  0  0  0
   25.0252  -19.1606  -10.0249 O   0  0  0  0  0  0  0  0  0  0  0  0
   23.9841  -20.9574   -9.1681 O   0  0  0  0  0  0  0  0  0  0  0  0
  2  4  1  0
  2  1  1  0
  3  2  2  0
  5  4  1  0
  5  6  1  1
  7  5  1  0
  8  7  2  0
 10  9  1  1
 11 10  1  0
 12 10  1  0
 12 13  1  6
 13  7  1  0
 14 12  1  0
 15 14  2  0
 16 14  1  0
 17 16  1  0
 17 18  1  1
 19 18  1  0
 20 19  2  0
 21 22  1  0
 21 20  1  0
 22 27  2  0
 23 22  1  0
 23 24  2  0
 24 25  1  0
 25 26  2  0
 27 19  1  0
 27 26  1  0
 28 17  1  0
 28 30  1  0
 29 28  2  0
M  END
$$$$
