NVW.pdb
     RDKit          3D

 30 31  0  0  1  0  0  0  0  0999 V2000
   27.5640  -13.9749  -15.3018 N   0  0  0  0  0  0  0  0  0  0  0  0
   27.7718  -15.3605  -15.2694 C   0  0  0  0  0  0  0  0  0  0  0  0
   28.6479  -15.8875  -15.9741 O   0  0  0  0  0  0  0  0  0  0  0  0
   26.9542  -16.2276  -14.3971 C   0  0  0  0  0  0  0  0  0  0  0  0
   26.6952  -17.5097  -15.1634 C   0  0  2  0  0  0  0  0  0  0  0  0
   25.9888  -17.2703  -16.3917 N   0  0  0  0  0  0  0  0  0  0  0  0
   25.9769  -18.5076  -14.3448 C   0  0  0  0  0  0  0  0  0  0  0  0
   24.7653  -18.3564  -14.0018 O   0  0  0  0  0  0  0  0  0  0  0  0
   25.2619  -23.1325  -12.8094 C   0  0  0  0  0  0  0  0  0  0  0  0
   26.0039  -22.1214  -13.6560 C   0  0  1  0  0  0  0  0  0  0  0  0
   25.7324  -22.3000  -15.1291 C   0  0  0  0  0  0  0  0  0  0  0  0
   25.8446  -20.7215  -13.1866 C   0  0  2  0  0  0  0  0  0  0  0  0
   26.5526  -19.7070  -13.8709 N   0  0  0  0  0  0  0  0  0  0  0  0
   26.2478  -20.6871  -11.7420 C   0  0  0  0  0  0  0  0  0  0  0  0
   27.4687  -20.7264  -11.4113 O   0  0  0  0  0  0  0  0  0  0  0  0
   25.2553  -20.6096  -10.7401 N   0  0  0  0  0  0  0  0  0  0  0  0
   25.6059  -20.8941   -9.3492 C   0  0  1  0  0  0  0  0  0  0  0  0
   26.4954  -19.8258   -8.8036 C   0  0  0  0  0  0  0  0  0  0  0  0
   26.7980  -20.0299   -7.3856 C   0  0  0  0  0  0  0  0  0  0  0  0
   26.0240  -20.7555   -6.4824 C   0  0  0  0  0  0  0  0  0  0  0  0
   26.5774  -20.6997   -5.2642 N   0  0  0  0  0  0  0  0  0  0  0  0
   27.6955  -19.9652   -5.3104 C   0  0  0  0  0  0  0  0  0  0  0  0
   28.6150  -19.6351   -4.3366 C   0  0  0  0  0  0  0  0  0  0  0  0
   29.7250  -18.8738   -4.6156 C   0  0  0  0  0  0  0  0  0  0  0  0
   29.8638  -18.4597   -5.9296 C   0  0  0  0  0  0  0  0  0  0  0  0
   28.9568  -18.7780   -6.9157 C   0  0  0  0  0  0  0  0  0  0  0  0
   27.8482  -19.5432   -6.6129 C   0  0  0  0  0  0  0  0  0  0  0  0
   24.4358  -21.2136   -8.5438 C   0  0  0  0  0  0  0  0  0  0  0  0
   24.4230  -21.8710   -7.4838 O   0  0  0  0  0  0  0  0  0  0  0  0
   23.1814  -20.7469   -8.9810 O   0  0  0  0  0  0  0  0  0  0  0  0
  2  4  1  0
  2  1  1  0
  3  2  2  0
  5  4  1  0
  5  6  1  6
  7  5  1  0
  8  7  2  0
 10  9  1  1
 11 10  1  0
 12 10  1  0
 12 13  1  6
 13  7  1  0
 14 12  1  0
 15 14  2  0
 16 14  1  0
 17 16  1  0
 17 18  1  1
 19 18  1  0
 20 19  2  0
 21 22  1  0
 21 20  1  0
 22 27  2  0
 23 22  1  0
 23 24  2  0
 24 25  1  0
 25 26  2  0
 27 19  1  0
 27 26  1  0
 28 17  1  0
 28 30  1  0
 29 28  2  0
M  END
$$$$
