NVW.pdb
     RDKit          3D

 30 31  0  0  1  0  0  0  0  0999 V2000
   31.5679  -24.9588  -18.0755 N   0  0  0  0  0  0  0  0  0  0  0  0
   30.4413  -24.1627  -17.8279 C   0  0  0  0  0  0  0  0  0  0  0  0
   29.3835  -24.3487  -18.4508 O   0  0  0  0  0  0  0  0  0  0  0  0
   30.4848  -23.0833  -16.8208 C   0  0  0  0  0  0  0  0  0  0  0  0
   29.0842  -22.5115  -16.7228 C   0  0  2  0  0  0  0  0  0  0  0  0
   28.7179  -21.7773  -17.9024 N   0  0  0  0  0  0  0  0  0  0  0  0
   28.9135  -21.6698  -15.5211 C   0  0  0  0  0  0  0  0  0  0  0  0
   29.8739  -21.4099  -14.7345 O   0  0  0  0  0  0  0  0  0  0  0  0
   26.4994  -18.1005  -13.0987 C   0  0  0  0  0  0  0  0  0  0  0  0
   26.9033  -18.8585  -14.3445 C   0  0  1  0  0  0  0  0  0  0  0  0
   27.6838  -17.9996  -15.3083 C   0  0  0  0  0  0  0  0  0  0  0  0
   27.5426  -20.1688  -14.0624 C   0  0  2  0  0  0  0  0  0  0  0  0
   27.6904  -21.0799  -15.1333 N   0  0  0  0  0  0  0  0  0  0  0  0
   26.7393  -20.8337  -12.9838 C   0  0  0  0  0  0  0  0  0  0  0  0
   25.7196  -21.5256  -13.2715 O   0  0  0  0  0  0  0  0  0  0  0  0
   27.1248  -20.6868  -11.6329 N   0  0  0  0  0  0  0  0  0  0  0  0
   26.3663  -21.3683  -10.5847 C   0  0  1  0  0  0  0  0  0  0  0  0
   27.2662  -21.7680   -9.4620 C   0  0  0  0  0  0  0  0  0  0  0  0
   27.2408  -20.8012   -8.3627 C   0  0  0  0  0  0  0  0  0  0  0  0
   26.3493  -19.7385   -8.2313 C   0  0  0  0  0  0  0  0  0  0  0  0
   26.6407  -19.0361   -7.1289 N   0  0  0  0  0  0  0  0  0  0  0  0
   27.6938  -19.5842   -6.5107 C   0  0  0  0  0  0  0  0  0  0  0  0
   28.3508  -19.2446   -5.3462 C   0  0  0  0  0  0  0  0  0  0  0  0
   29.4151  -19.9754   -4.8746 C   0  0  0  0  0  0  0  0  0  0  0  0
   29.7868  -21.0700   -5.6368 C   0  0  0  0  0  0  0  0  0  0  0  0
   29.1445  -21.4249   -6.8021 C   0  0  0  0  0  0  0  0  0  0  0  0
   28.0780  -20.6759   -7.2580 C   0  0  0  0  0  0  0  0  0  0  0  0
   25.1719  -20.6280  -10.2034 C   0  0  0  0  0  0  0  0  0  0  0  0
   24.9675  -19.4102  -10.3791 O   0  0  0  0  0  0  0  0  0  0  0  0
   24.1282  -21.3314   -9.5723 O   0  0  0  0  0  0  0  0  0  0  0  0
  2  4  1  0
  2  1  1  0
  3  2  2  0
  5  4  1  0
  5  6  1  6
  7  5  1  0
  8  7  2  0
 10  9  1  1
 11 10  1  0
 12 10  1  0
 12 13  1  6
 13  7  1  0
 14 12  1  0
 15 14  2  0
 16 14  1  0
 17 16  1  0
 17 18  1  1
 19 18  1  0
 20 19  2  0
 21 22  1  0
 21 20  1  0
 22 27  2  0
 23 22  1  0
 23 24  2  0
 24 25  1  0
 25 26  2  0
 27 19  1  0
 27 26  1  0
 28 17  1  0
 28 30  1  0
 29 28  2  0
M  END
$$$$
