NVW.pdb
     RDKit          3D

 30 31  0  0  1  0  0  0  0  0999 V2000
   28.9083  -19.9194  -16.7400 N   0  0  0  0  0  0  0  0  0  0  0  0
   28.5188  -18.6060  -16.4444 C   0  0  0  0  0  0  0  0  0  0  0  0
   28.8339  -17.6669  -17.1932 O   0  0  0  0  0  0  0  0  0  0  0  0
   27.7249  -18.3066  -15.2356 C   0  0  0  0  0  0  0  0  0  0  0  0
   26.3195  -18.8143  -15.4910 C   0  0  2  0  0  0  0  0  0  0  0  0
   25.6399  -18.0392  -16.4920 N   0  0  0  0  0  0  0  0  0  0  0  0
   25.5174  -18.8682  -14.2518 C   0  0  0  0  0  0  0  0  0  0  0  0
   25.1852  -17.8233  -13.6145 O   0  0  0  0  0  0  0  0  0  0  0  0
   22.3551  -20.9817  -11.1266 C   0  0  0  0  0  0  0  0  0  0  0  0
   23.0373  -20.9148  -12.4755 C   0  0  1  0  0  0  0  0  0  0  0  0
   22.0856  -20.5238  -13.5787 C   0  0  0  0  0  0  0  0  0  0  0  0
   24.2955  -20.1260  -12.4672 C   0  0  2  0  0  0  0  0  0  0  0  0
   25.0475  -20.0626  -13.6627 N   0  0  0  0  0  0  0  0  0  0  0  0
   25.1701  -20.6932  -11.3883 C   0  0  0  0  0  0  0  0  0  0  0  0
   25.5180  -21.9097  -11.4120 O   0  0  0  0  0  0  0  0  0  0  0  0
   25.6106  -19.8616  -10.3351 N   0  0  0  0  0  0  0  0  0  0  0  0
   26.4069  -20.4294   -9.2479 C   0  0  1  0  0  0  0  0  0  0  0  0
   27.3839  -19.4241   -8.7332 C   0  0  0  0  0  0  0  0  0  0  0  0
   28.2490  -19.9785   -7.6900 C   0  0  0  0  0  0  0  0  0  0  0  0
   29.0665  -21.0994   -7.8185 C   0  0  0  0  0  0  0  0  0  0  0  0
   29.6853  -21.3447   -6.6565 N   0  0  0  0  0  0  0  0  0  0  0  0
   29.3177  -20.4321   -5.7488 C   0  0  0  0  0  0  0  0  0  0  0  0
   29.6880  -20.2488   -4.4327 C   0  0  0  0  0  0  0  0  0  0  0  0
   29.1949  -19.2109   -3.6785 C   0  0  0  0  0  0  0  0  0  0  0  0
   28.3065  -18.3629   -4.3178 C   0  0  0  0  0  0  0  0  0  0  0  0
   27.9238  -18.5294   -5.6302 C   0  0  0  0  0  0  0  0  0  0  0  0
   28.4310  -19.5796   -6.3692 C   0  0  0  0  0  0  0  0  0  0  0  0
   25.5773  -21.0761   -8.2412 C   0  0  0  0  0  0  0  0  0  0  0  0
   24.5014  -20.6458   -7.7798 O   0  0  0  0  0  0  0  0  0  0  0  0
   26.0080  -22.3110   -7.7195 O   0  0  0  0  0  0  0  0  0  0  0  0
  2  4  1  0
  2  1  1  0
  3  2  2  0
  5  4  1  0
  5  6  1  6
  7  5  1  0
  8  7  2  0
 10  9  1  1
 11 10  1  0
 12 10  1  0
 12 13  1  6
 13  7  1  0
 14 12  1  0
 15 14  2  0
 16 14  1  0
 17 16  1  0
 17 18  1  1
 19 18  1  0
 20 19  2  0
 21 22  1  0
 21 20  1  0
 22 27  2  0
 23 22  1  0
 23 24  2  0
 24 25  1  0
 25 26  2  0
 27 19  1  0
 27 26  1  0
 28 17  1  0
 28 30  1  0
 29 28  2  0
M  END
$$$$
