NVW.pdb
     RDKit          3D

 30 31  0  0  1  0  0  0  0  0999 V2000
   24.1345  -15.3780  -15.5797 N   0  0  0  0  0  0  0  0  0  0  0  0
   23.3180  -15.9312  -14.5840 C   0  0  0  0  0  0  0  0  0  0  0  0
   22.3768  -15.2809  -14.1012 O   0  0  0  0  0  0  0  0  0  0  0  0
   23.5570  -17.3003  -14.0843 C   0  0  0  0  0  0  0  0  0  0  0  0
   24.7894  -17.8231  -14.7956 C   0  0  2  0  0  0  0  0  0  0  0  0
   24.5426  -18.0724  -16.1890 N   0  0  0  0  0  0  0  0  0  0  0  0
   25.3306  -19.0343  -14.1459 C   0  0  0  0  0  0  0  0  0  0  0  0
   24.7575  -20.1624  -14.2323 O   0  0  0  0  0  0  0  0  0  0  0  0
   28.9219  -21.8077  -12.2855 C   0  0  0  0  0  0  0  0  0  0  0  0
   28.4730  -20.5390  -12.9773 C   0  0  1  0  0  0  0  0  0  0  0  0
   28.8800  -20.5051  -14.4295 C   0  0  0  0  0  0  0  0  0  0  0  0
   27.0416  -20.2135  -12.7523 C   0  0  2  0  0  0  0  0  0  0  0  0
   26.5163  -19.0603  -13.3792 N   0  0  0  0  0  0  0  0  0  0  0  0
   26.8426  -20.0786  -11.2715 C   0  0  0  0  0  0  0  0  0  0  0  0
   27.6066  -19.3425  -10.5817 O   0  0  0  0  0  0  0  0  0  0  0  0
   25.7915  -20.7796  -10.6400 N   0  0  0  0  0  0  0  0  0  0  0  0
   25.7248  -20.8243   -9.1798 C   0  0  1  0  0  0  0  0  0  0  0  0
   25.4764  -19.4606   -8.6243 C   0  0  0  0  0  0  0  0  0  0  0  0
   26.6079  -18.9716   -7.8340 C   0  0  0  0  0  0  0  0  0  0  0  0
   27.3590  -17.8297   -8.1043 C   0  0  0  0  0  0  0  0  0  0  0  0
   28.3397  -17.7077   -7.2005 N   0  0  0  0  0  0  0  0  0  0  0  0
   28.2789  -18.7228   -6.3299 C   0  0  0  0  0  0  0  0  0  0  0  0
   29.0447  -19.0275   -5.2238 C   0  0  0  0  0  0  0  0  0  0  0  0
   28.7854  -20.1289   -4.4434 C   0  0  0  0  0  0  0  0  0  0  0  0
   27.7120  -20.9117   -4.8336 C   0  0  0  0  0  0  0  0  0  0  0  0
   26.9361  -20.6249   -5.9347 C   0  0  0  0  0  0  0  0  0  0  0  0
   27.2151  -19.5137   -6.7051 C   0  0  0  0  0  0  0  0  0  0  0  0
   24.8325  -21.8718   -8.7041 C   0  0  0  0  0  0  0  0  0  0  0  0
   23.9204  -22.4201   -9.3546 O   0  0  0  0  0  0  0  0  0  0  0  0
   24.9926  -22.3306   -7.3826 O   0  0  0  0  0  0  0  0  0  0  0  0
  2  4  1  0
  2  1  1  0
  3  2  2  0
  5  4  1  0
  5  6  1  6
  7  5  1  0
  8  7  2  0
 10  9  1  6
 11 10  1  0
 12 10  1  0
 12 13  1  6
 13  7  1  0
 14 12  1  0
 15 14  2  0
 16 14  1  0
 17 16  1  0
 17 18  1  6
 19 18  1  0
 20 19  2  0
 21 22  1  0
 21 20  1  0
 22 27  2  0
 23 22  1  0
 23 24  2  0
 24 25  1  0
 25 26  2  0
 27 19  1  0
 27 26  1  0
 28 17  1  0
 28 30  1  0
 29 28  2  0
M  END
$$$$
