NVW.pdb
     RDKit          3D

 30 31  0  0  1  0  0  0  0  0999 V2000
   28.0851  -17.0763  -17.4147 N   0  0  0  0  0  0  0  0  0  0  0  0
   28.4510  -16.6921  -16.1175 C   0  0  0  0  0  0  0  0  0  0  0  0
   29.4039  -15.9184  -15.9298 O   0  0  0  0  0  0  0  0  0  0  0  0
   27.7130  -17.1980  -14.9425 C   0  0  0  0  0  0  0  0  0  0  0  0
   26.6992  -18.2022  -15.4541 C   0  0  2  0  0  0  0  0  0  0  0  0
   25.7009  -17.5856  -16.2835 N   0  0  0  0  0  0  0  0  0  0  0  0
   26.0600  -18.9522  -14.3537 C   0  0  0  0  0  0  0  0  0  0  0  0
   24.9884  -18.5601  -13.8002 O   0  0  0  0  0  0  0  0  0  0  0  0
   24.9559  -23.3075  -12.3967 C   0  0  0  0  0  0  0  0  0  0  0  0
   25.7433  -22.4600  -13.3721 C   0  0  1  0  0  0  0  0  0  0  0  0
   25.2988  -22.6680  -14.7986 C   0  0  0  0  0  0  0  0  0  0  0  0
   25.8345  -21.0307  -12.9793 C   0  0  2  0  0  0  0  0  0  0  0  0
   26.5649  -20.1570  -13.8171 N   0  0  0  0  0  0  0  0  0  0  0  0
   26.4378  -20.9833  -11.6065 C   0  0  0  0  0  0  0  0  0  0  0  0
   27.6936  -21.0062  -11.4520 O   0  0  0  0  0  0  0  0  0  0  0  0
   25.5963  -20.9120  -10.4744 N   0  0  0  0  0  0  0  0  0  0  0  0
   26.1840  -20.8703   -9.1360 C   0  0  1  0  0  0  0  0  0  0  0  0
   27.1312  -19.7221   -9.0149 C   0  0  0  0  0  0  0  0  0  0  0  0
   27.4397  -19.4055   -7.6190 C   0  0  0  0  0  0  0  0  0  0  0  0
   26.7755  -18.4700   -6.8286 C   0  0  0  0  0  0  0  0  0  0  0  0
   27.3471  -18.4110   -5.6190 N   0  0  0  0  0  0  0  0  0  0  0  0
   28.3711  -19.2713   -5.5621 C   0  0  0  0  0  0  0  0  0  0  0  0
   29.2454  -19.5881   -4.5433 C   0  0  0  0  0  0  0  0  0  0  0  0
   30.2265  -20.5381   -4.6988 C   0  0  0  0  0  0  0  0  0  0  0  0
   30.2840  -21.1561   -5.9365 C   0  0  0  0  0  0  0  0  0  0  0  0
   29.4212  -20.8535   -6.9663 C   0  0  0  0  0  0  0  0  0  0  0  0
   28.4434  -19.8950   -6.7884 C   0  0  0  0  0  0  0  0  0  0  0  0
   25.1748  -20.9690   -8.0913 C   0  0  0  0  0  0  0  0  0  0  0  0
   25.3556  -21.3615   -6.9212 O   0  0  0  0  0  0  0  0  0  0  0  0
   23.8555  -20.5902   -8.4049 O   0  0  0  0  0  0  0  0  0  0  0  0
  2  4  1  0
  2  1  1  0
  3  2  2  0
  5  4  1  0
  5  6  1  1
  7  5  1  0
  8  7  2  0
 10  9  1  1
 11 10  1  0
 12 10  1  0
 12 13  1  6
 13  7  1  0
 14 12  1  0
 15 14  2  0
 16 14  1  0
 17 16  1  0
 17 18  1  1
 19 18  1  0
 20 19  2  0
 21 22  1  0
 21 20  1  0
 22 27  2  0
 23 22  1  0
 23 24  2  0
 24 25  1  0
 25 26  2  0
 27 19  1  0
 27 26  1  0
 28 17  1  0
 28 30  1  0
 29 28  2  0
M  END
$$$$
