NVW.pdb
     RDKit          3D

 30 31  0  0  1  0  0  0  0  0999 V2000
   29.3443  -18.2513  -14.4343 N   0  0  0  0  0  0  0  0  0  0  0  0
   28.1440  -18.7802  -14.9279 C   0  0  0  0  0  0  0  0  0  0  0  0
   27.9120  -18.7972  -16.1476 O   0  0  0  0  0  0  0  0  0  0  0  0
   27.1257  -19.3297  -14.0100 C   0  0  0  0  0  0  0  0  0  0  0  0
   27.7926  -20.4387  -13.2205 C   0  0  2  0  0  0  0  0  0  0  0  0
   28.2208  -21.5194  -14.0652 N   0  0  0  0  0  0  0  0  0  0  0  0
   26.9244  -20.9464  -12.1386 C   0  0  0  0  0  0  0  0  0  0  0  0
   26.0002  -21.7885  -12.3511 O   0  0  0  0  0  0  0  0  0  0  0  0
   27.7910  -21.1097   -7.9445 C   0  0  0  0  0  0  0  0  0  0  0  0
   26.4452  -20.5651   -8.3709 C   0  0  1  0  0  0  0  0  0  0  0  0
   26.2809  -19.1074   -8.0192 C   0  0  0  0  0  0  0  0  0  0  0  0
   26.0948  -20.8810   -9.7791 C   0  0  2  0  0  0  0  0  0  0  0  0
   27.0324  -20.5554  -10.7859 N   0  0  0  0  0  0  0  0  0  0  0  0
   24.8068  -20.1760  -10.0868 C   0  0  0  0  0  0  0  0  0  0  0  0
   24.7820  -18.9226  -10.2591 O   0  0  0  0  0  0  0  0  0  0  0  0
   23.6092  -20.9181  -10.1860 N   0  0  0  0  0  0  0  0  0  0  0  0
   22.4948  -20.3936  -10.9745 C   0  0  1  0  0  0  0  0  0  0  0  0
   22.9209  -20.1454  -12.3840 C   0  0  0  0  0  0  0  0  0  0  0  0
   21.7872  -19.8351  -13.2572 C   0  0  0  0  0  0  0  0  0  0  0  0
   20.7643  -18.9319  -12.9762 C   0  0  0  0  0  0  0  0  0  0  0  0
   19.8744  -18.9291  -13.9770 N   0  0  0  0  0  0  0  0  0  0  0  0
   20.2577  -19.7950  -14.9231 C   0  0  0  0  0  0  0  0  0  0  0  0
   19.6962  -20.1327  -16.1370 C   0  0  0  0  0  0  0  0  0  0  0  0
   20.2832  -21.0479  -16.9779 C   0  0  0  0  0  0  0  0  0  0  0  0
   21.4689  -21.6086  -16.5342 C   0  0  0  0  0  0  0  0  0  0  0  0
   22.0449  -21.2854  -15.3258 C   0  0  0  0  0  0  0  0  0  0  0  0
   21.4375  -20.3639  -14.4961 C   0  0  0  0  0  0  0  0  0  0  0  0
   21.2861  -21.1888  -10.8111 C   0  0  0  0  0  0  0  0  0  0  0  0
   20.1361  -20.7541  -10.6008 O   0  0  0  0  0  0  0  0  0  0  0  0
   21.3971  -22.5900  -10.8941 O   0  0  0  0  0  0  0  0  0  0  0  0
  2  4  1  0
  2  1  1  0
  3  2  2  0
  5  4  1  0
  5  6  1  6
  7  5  1  0
  8  7  2  0
 10  9  1  6
 11 10  1  0
 12 10  1  0
 12 13  1  6
 13  7  1  0
 14 12  1  0
 15 14  2  0
 16 14  1  0
 17 16  1  0
 17 18  1  6
 19 18  1  0
 20 19  2  0
 21 22  1  0
 21 20  1  0
 22 27  2  0
 23 22  1  0
 23 24  2  0
 24 25  1  0
 25 26  2  0
 27 19  1  0
 27 26  1  0
 28 17  1  0
 28 30  1  0
 29 28  2  0
M  END
$$$$
