NVW.pdb
     RDKit          3D

 30 31  0  0  1  0  0  0  0  0999 V2000
   25.7155  -16.6456  -20.5235 N   0  0  0  0  0  0  0  0  0  0  0  0
   24.5321  -16.9868  -19.8548 C   0  0  0  0  0  0  0  0  0  0  0  0
   23.7512  -16.1068  -19.4579 O   0  0  0  0  0  0  0  0  0  0  0  0
   24.1850  -18.4005  -19.6056 C   0  0  0  0  0  0  0  0  0  0  0  0
   25.3752  -19.2327  -20.0404 C   0  0  2  0  0  0  0  0  0  0  0  0
   25.1367  -19.9037  -21.2885 N   0  0  0  0  0  0  0  0  0  0  0  0
   25.7781  -20.2051  -19.0041 C   0  0  0  0  0  0  0  0  0  0  0  0
   25.2073  -21.3300  -18.8727 O   0  0  0  0  0  0  0  0  0  0  0  0
   29.0698  -22.2922  -16.0430 C   0  0  0  0  0  0  0  0  0  0  0  0
   28.6602  -21.4099  -17.2020 C   0  0  1  0  0  0  0  0  0  0  0  0
   29.0188  -22.0157  -18.5362 C   0  0  0  0  0  0  0  0  0  0  0  0
   27.2549  -20.9365  -17.1215 C   0  0  2  0  0  0  0  0  0  0  0  0
   26.8182  -19.9873  -18.0739 N   0  0  0  0  0  0  0  0  0  0  0  0
   27.0576  -20.3569  -15.7519 C   0  0  0  0  0  0  0  0  0  0  0  0
   27.4191  -19.1720  -15.4940 O   0  0  0  0  0  0  0  0  0  0  0  0
   26.4618  -21.1410  -14.7394 N   0  0  0  0  0  0  0  0  0  0  0  0
   26.5116  -20.6894  -13.3494 C   0  0  1  0  0  0  0  0  0  0  0  0
   25.7617  -21.6305  -12.4651 C   0  0  0  0  0  0  0  0  0  0  0  0
   25.7542  -21.1892  -11.0690 C   0  0  0  0  0  0  0  0  0  0  0  0
   24.6266  -20.8344  -10.3315 C   0  0  0  0  0  0  0  0  0  0  0  0
   24.9925  -20.4429   -9.1042 N   0  0  0  0  0  0  0  0  0  0  0  0
   26.3234  -20.5204   -8.9846 C   0  0  0  0  0  0  0  0  0  0  0  0
   27.1649  -20.2497   -7.9256 C   0  0  0  0  0  0  0  0  0  0  0  0
   28.5251  -20.4253   -8.0169 C   0  0  0  0  0  0  0  0  0  0  0  0
   28.9982  -20.8892   -9.2327 C   0  0  0  0  0  0  0  0  0  0  0  0
   28.1748  -21.1644  -10.3018 C   0  0  0  0  0  0  0  0  0  0  0  0
   26.8112  -20.9800  -10.1882 C   0  0  0  0  0  0  0  0  0  0  0  0
   27.8673  -20.3697  -12.9255 C   0  0  0  0  0  0  0  0  0  0  0  0
   28.8481  -21.1402  -12.9366 O   0  0  0  0  0  0  0  0  0  0  0  0
   28.1254  -19.0691  -12.4517 O   0  0  0  0  0  0  0  0  0  0  0  0
  2  4  1  0
  2  1  1  0
  3  2  2  0
  5  4  1  0
  5  6  1  6
  7  5  1  0
  8  7  2  0
 10  9  1  1
 11 10  1  0
 12 10  1  0
 12 13  1  6
 13  7  1  0
 14 12  1  0
 15 14  2  0
 16 14  1  0
 17 16  1  0
 17 18  1  1
 19 18  1  0
 20 19  2  0
 21 22  1  0
 21 20  1  0
 22 27  2  0
 23 22  1  0
 23 24  2  0
 24 25  1  0
 25 26  2  0
 27 19  1  0
 27 26  1  0
 28 17  1  0
 28 30  1  0
 29 28  2  0
M  END
$$$$
