FMQ.pdb
     RDKit          3D

 29 29  0  0  1  0  0  0  0  0999 V2000
   24.2161  -20.7876  -16.3435 N   0  0  0  0  0  0  0  0  0  0  0  0
   22.9514  -20.2250  -15.8780 C   0  0  1  0  0  0  0  0  0  0  0  0
   21.9567  -20.4262  -17.0068 C   0  0  0  0  0  0  0  0  0  0  0  0
   22.3076  -19.4160  -18.0476 C   0  0  0  0  0  0  0  0  0  0  0  0
   22.0545  -18.0729  -17.8467 C   0  0  0  0  0  0  0  0  0  0  0  0
   22.3771  -17.1270  -18.8083 C   0  0  0  0  0  0  0  0  0  0  0  0
   22.9633  -17.4882  -20.0033 C   0  0  0  0  0  0  0  0  0  0  0  0
   23.2155  -18.8257  -20.2036 C   0  0  0  0  0  0  0  0  0  0  0  0
   22.8974  -19.7691  -19.2525 C   0  0  0  0  0  0  0  0  0  0  0  0
   22.5368  -20.8715  -14.6237 C   0  0  0  0  0  0  0  0  0  0  0  0
   22.6603  -22.1106  -14.4897 O   0  0  0  0  0  0  0  0  0  0  0  0
   22.0938  -21.5040   -7.3066 C   0  0  0  0  0  0  0  0  0  0  0  0
   22.6129  -20.9752   -8.9424 S   0  0  0  0  0  0  0  0  0  0  0  0
   21.3116  -20.1307   -9.8560 C   0  0  0  0  0  0  0  0  0  0  0  0
   21.7059  -19.7345  -11.2317 C   0  0  0  0  0  0  0  0  0  0  0  0
   21.6573  -20.8108  -12.2753 C   0  0  2  0  0  0  0  0  0  0  0  0
   21.9991  -20.1378  -13.5543 N   0  0  0  0  0  0  0  0  0  0  0  0
   20.3257  -21.4153  -12.4808 C   0  0  0  0  0  0  0  0  0  0  0  0
   19.3790  -20.7403  -13.0256 O   0  0  0  0  0  0  0  0  0  0  0  0
   16.0928  -25.3993  -13.4331 N   0  0  0  0  0  0  0  0  0  0  0  0
   16.8742  -25.0861  -14.5682 C   0  0  0  0  0  0  0  0  0  0  0  0
   16.4274  -25.1879  -15.7296 O   0  0  0  0  0  0  0  0  0  0  0  0
   18.2793  -24.6192  -14.3562 C   0  0  0  0  0  0  0  0  0  0  0  0
   18.5876  -24.6174  -12.8819 C   0  0  0  0  0  0  0  0  0  0  0  0
   18.5767  -23.2376  -12.3218 C   0  0  2  0  0  0  0  0  0  0  0  0
   19.9499  -22.7319  -12.1285 N   0  0  0  0  0  0  0  0  0  0  0  0
   17.8824  -23.0777  -11.0353 C   0  0  0  0  0  0  0  0  0  0  0  0
   18.5286  -22.8000   -9.9667 O   0  0  0  0  0  0  0  0  0  0  0  0
   16.5161  -23.2046  -10.8586 O   0  0  0  0  0  0  0  0  0  0  0  0
  2  1  1  6
  3  4  1  0
  3  2  1  0
  4  5  2  0
  5  6  1  0
  7  6  2  0
  8  7  1  0
  9  8  2  0
  9  4  1  0
 10  2  1  0
 10 11  2  0
 12 13  1  0
 13 14  1  0
 16 15  1  1
 15 14  1  0
 16 17  1  0
 17 10  1  0
 18 16  1  0
 19 18  2  0
 20 21  1  0
 21 22  2  0
 23 21  1  0
 23 24  1  0
 25 24  1  1
 25 27  1  0
 25 26  1  0
 26 18  1  0
 27 29  1  0
 28 27  2  0
M  END
$$$$
