FMQ.pdb
     RDKit          3D

 29 29  0  0  1  0  0  0  0  0999 V2000
   27.7918  -20.4303  -11.0074 N   0  0  0  0  0  0  0  0  0  0  0  0
   26.5126  -21.0565  -10.6852 C   0  0  1  0  0  0  0  0  0  0  0  0
   26.0323  -20.4040   -9.4016 C   0  0  0  0  0  0  0  0  0  0  0  0
   27.2194  -20.3519   -8.4989 C   0  0  0  0  0  0  0  0  0  0  0  0
   28.1976  -21.3258   -8.5562 C   0  0  0  0  0  0  0  0  0  0  0  0
   29.3042  -21.2857   -7.7212 C   0  0  0  0  0  0  0  0  0  0  0  0
   29.4734  -20.2728   -6.8006 C   0  0  0  0  0  0  0  0  0  0  0  0
   28.4995  -19.3028   -6.7434 C   0  0  0  0  0  0  0  0  0  0  0  0
   27.3987  -19.3376   -7.5698 C   0  0  0  0  0  0  0  0  0  0  0  0
   25.5693  -20.8927  -11.8017 C   0  0  0  0  0  0  0  0  0  0  0  0
   25.2919  -19.7458  -12.2213 O   0  0  0  0  0  0  0  0  0  0  0  0
   26.1434  -25.4375  -15.9646 C   0  0  0  0  0  0  0  0  0  0  0  0
   26.6708  -23.7693  -16.3696 S   0  0  0  0  0  0  0  0  0  0  0  0
   26.0933  -22.5411  -15.1868 C   0  0  0  0  0  0  0  0  0  0  0  0
   24.7432  -22.8264  -14.6381 C   0  0  0  0  0  0  0  0  0  0  0  0
   24.1860  -21.8163  -13.6795 C   0  0  2  0  0  0  0  0  0  0  0  0
   24.9591  -21.9935  -12.4239 N   0  0  0  0  0  0  0  0  0  0  0  0
   22.7702  -22.0235  -13.3141 C   0  0  0  0  0  0  0  0  0  0  0  0
   22.4514  -22.8291  -12.3665 O   0  0  0  0  0  0  0  0  0  0  0  0
   18.3222  -18.7007  -15.3350 N   0  0  0  0  0  0  0  0  0  0  0  0
   17.4640  -19.7337  -14.8947 C   0  0  0  0  0  0  0  0  0  0  0  0
   16.2764  -19.8148  -15.2710 O   0  0  0  0  0  0  0  0  0  0  0  0
   18.0099  -20.7552  -13.9482 C   0  0  0  0  0  0  0  0  0  0  0  0
   19.4393  -20.4152  -13.6168 C   0  0  0  0  0  0  0  0  0  0  0  0
   20.2734  -21.6400  -13.4691 C   0  0  2  0  0  0  0  0  0  0  0  0
   21.6574  -21.3978  -13.9216 N   0  0  0  0  0  0  0  0  0  0  0  0
   19.7943  -22.8280  -14.1915 C   0  0  0  0  0  0  0  0  0  0  0  0
   18.8608  -23.5598  -13.7123 O   0  0  0  0  0  0  0  0  0  0  0  0
   20.2838  -23.2556  -15.4128 O   0  0  0  0  0  0  0  0  0  0  0  0
  2  1  1  6
  3  4  1  0
  3  2  1  0
  4  5  2  0
  5  6  1  0
  7  6  2  0
  8  7  1  0
  9  8  2  0
  9  4  1  0
 10  2  1  0
 10 11  2  0
 12 13  1  0
 13 14  1  0
 16 15  1  6
 15 14  1  0
 16 17  1  0
 17 10  1  0
 18 16  1  0
 19 18  2  0
 20 21  1  0
 21 22  2  0
 23 21  1  0
 23 24  1  0
 25 24  1  6
 25 27  1  0
 25 26  1  0
 26 18  1  0
 27 29  1  0
 28 27  2  0
M  END
$$$$
