FMQ.pdb
     RDKit          3D

 29 29  0  0  1  0  0  0  0  0999 V2000
   24.7745  -26.1065  -21.4721 N   0  0  0  0  0  0  0  0  0  0  0  0
   25.5710  -27.2767  -21.1130 C   0  0  1  0  0  0  0  0  0  0  0  0
   25.0895  -28.4073  -22.0041 C   0  0  0  0  0  0  0  0  0  0  0  0
   23.7495  -28.8013  -21.4786 C   0  0  0  0  0  0  0  0  0  0  0  0
   23.6323  -29.5468  -20.3215 C   0  0  0  0  0  0  0  0  0  0  0  0
   22.3912  -29.9176  -19.8257 C   0  0  0  0  0  0  0  0  0  0  0  0
   21.2245  -29.5576  -20.4669 C   0  0  0  0  0  0  0  0  0  0  0  0
   21.3410  -28.8151  -21.6193 C   0  0  0  0  0  0  0  0  0  0  0  0
   22.5704  -28.4441  -22.1161 C   0  0  0  0  0  0  0  0  0  0  0  0
   27.0039  -26.9870  -21.2748 C   0  0  0  0  0  0  0  0  0  0  0  0
   27.3740  -26.0909  -22.0676 O   0  0  0  0  0  0  0  0  0  0  0  0
   28.2270  -22.7460  -19.0689 C   0  0  0  0  0  0  0  0  0  0  0  0
   29.7009  -23.1707  -20.0028 S   0  0  0  0  0  0  0  0  0  0  0  0
   29.5589  -24.7441  -20.8663 C   0  0  0  0  0  0  0  0  0  0  0  0
   29.4487  -25.9161  -19.9611 C   0  0  0  0  0  0  0  0  0  0  0  0
   29.4089  -27.2641  -20.6176 C   0  0  2  0  0  0  0  0  0  0  0  0
   27.9873  -27.6903  -20.5610 N   0  0  0  0  0  0  0  0  0  0  0  0
   30.1736  -28.3168  -19.9191 C   0  0  0  0  0  0  0  0  0  0  0  0
   29.7434  -28.8137  -18.8160 O   0  0  0  0  0  0  0  0  0  0  0  0
   34.8748  -31.7058  -16.5655 N   0  0  0  0  0  0  0  0  0  0  0  0
   33.9693  -30.6794  -16.9174 C   0  0  0  0  0  0  0  0  0  0  0  0
   34.2299  -29.4726  -16.7316 O   0  0  0  0  0  0  0  0  0  0  0  0
   32.6612  -31.0661  -17.5309 C   0  0  0  0  0  0  0  0  0  0  0  0
   32.0574  -29.8681  -18.2157 C   0  0  0  0  0  0  0  0  0  0  0  0
   32.0026  -30.0513  -19.6925 C   0  0  2  0  0  0  0  0  0  0  0  0
   31.3976  -28.8771  -20.3513 N   0  0  0  0  0  0  0  0  0  0  0  0
   31.2578  -31.2294  -20.1613 C   0  0  0  0  0  0  0  0  0  0  0  0
   29.9815  -31.2756  -20.0874 O   0  0  0  0  0  0  0  0  0  0  0  0
   31.8384  -32.3597  -20.7085 O   0  0  0  0  0  0  0  0  0  0  0  0
  2  1  1  6
  3  4  1  0
  3  2  1  0
  4  5  2  0
  5  6  1  0
  7  6  2  0
  8  7  1  0
  9  8  2  0
  9  4  1  0
 10  2  1  0
 10 11  2  0
 12 13  1  0
 13 14  1  0
 16 15  1  1
 15 14  1  0
 16 17  1  0
 17 10  1  0
 18 16  1  0
 19 18  2  0
 20 21  1  0
 21 22  2  0
 23 21  1  0
 23 24  1  0
 25 24  1  1
 25 27  1  0
 25 26  1  0
 26 18  1  0
 27 29  1  0
 28 27  2  0
M  END
$$$$
