FMQ.pdb
     RDKit          3D

 29 29  0  0  1  0  0  0  0  0999 V2000
   28.3035  -20.2599  -15.3567 N   0  0  0  0  0  0  0  0  0  0  0  0
   27.3407  -19.4934  -14.5705 C   0  0  1  0  0  0  0  0  0  0  0  0
   26.5032  -18.7140  -15.5681 C   0  0  0  0  0  0  0  0  0  0  0  0
   27.2795  -17.4777  -15.8779 C   0  0  0  0  0  0  0  0  0  0  0  0
   27.9564  -17.3462  -17.0750 C   0  0  0  0  0  0  0  0  0  0  0  0
   28.6805  -16.2011  -17.3714 C   0  0  0  0  0  0  0  0  0  0  0  0
   28.7542  -15.1478  -16.4842 C   0  0  0  0  0  0  0  0  0  0  0  0
   28.0802  -15.2784  -15.2920 C   0  0  0  0  0  0  0  0  0  0  0  0
   27.3598  -16.4130  -14.9924 C   0  0  0  0  0  0  0  0  0  0  0  0
   26.5403  -20.3935  -13.7264 C   0  0  0  0  0  0  0  0  0  0  0  0
   26.2398  -21.5360  -14.1420 O   0  0  0  0  0  0  0  0  0  0  0  0
   26.3035  -19.6390   -7.3435 C   0  0  0  0  0  0  0  0  0  0  0  0
   27.3477  -20.8938   -8.0920 S   0  0  0  0  0  0  0  0  0  0  0  0
   26.9448  -21.2077   -9.8184 C   0  0  0  0  0  0  0  0  0  0  0  0
   25.6136  -20.6911  -10.2262 C   0  0  0  0  0  0  0  0  0  0  0  0
   25.2217  -20.9137  -11.6568 C   0  0  2  0  0  0  0  0  0  0  0  0
   26.0939  -20.0116  -12.4513 N   0  0  0  0  0  0  0  0  0  0  0  0
   23.8350  -20.5279  -11.9870 C   0  0  0  0  0  0  0  0  0  0  0  0
   23.5442  -19.3076  -12.2610 O   0  0  0  0  0  0  0  0  0  0  0  0
   20.1857  -20.4726  -16.2160 N   0  0  0  0  0  0  0  0  0  0  0  0
   21.3458  -21.2780  -16.1625 C   0  0  0  0  0  0  0  0  0  0  0  0
   21.7403  -21.9387  -17.1456 O   0  0  0  0  0  0  0  0  0  0  0  0
   22.1152  -21.3305  -14.8810 C   0  0  0  0  0  0  0  0  0  0  0  0
   21.5120  -20.3632  -13.8965 C   0  0  0  0  0  0  0  0  0  0  0  0
   21.4031  -20.9617  -12.5373 C   0  0  2  0  0  0  0  0  0  0  0  0
   22.7231  -21.3993  -12.0424 N   0  0  0  0  0  0  0  0  0  0  0  0
   20.5032  -22.1189  -12.4208 C   0  0  0  0  0  0  0  0  0  0  0  0
   20.9659  -23.3036  -12.2835 O   0  0  0  0  0  0  0  0  0  0  0  0
   19.1218  -22.0457  -12.4453 O   0  0  0  0  0  0  0  0  0  0  0  0
  2  1  1  6
  3  4  1  0
  3  2  1  0
  4  5  2  0
  5  6  1  0
  7  6  2  0
  8  7  1  0
  9  8  2  0
  9  4  1  0
 10  2  1  0
 10 11  2  0
 12 13  1  0
 13 14  1  0
 16 15  1  1
 15 14  1  0
 16 17  1  0
 17 10  1  0
 18 16  1  0
 19 18  2  0
 20 21  1  0
 21 22  2  0
 23 21  1  0
 23 24  1  0
 25 24  1  6
 25 27  1  0
 25 26  1  0
 26 18  1  0
 27 29  1  0
 28 27  2  0
M  END
$$$$
