FMQ.pdb
     RDKit          3D

 29 29  0  0  1  0  0  0  0  0999 V2000
   27.2105  -21.0446  -13.7367 N   0  0  0  0  0  0  0  0  0  0  0  0
   26.7606  -20.0000  -12.8207 C   0  0  1  0  0  0  0  0  0  0  0  0
   25.6173  -19.2867  -13.5195 C   0  0  0  0  0  0  0  0  0  0  0  0
   26.2435  -18.4653  -14.5965 C   0  0  0  0  0  0  0  0  0  0  0  0
   26.0569  -18.7806  -15.9286 C   0  0  0  0  0  0  0  0  0  0  0  0
   26.6350  -18.0230  -16.9362 C   0  0  0  0  0  0  0  0  0  0  0  0
   27.4189  -16.9251  -16.6501 C   0  0  0  0  0  0  0  0  0  0  0  0
   27.6049  -16.6109  -15.3236 C   0  0  0  0  0  0  0  0  0  0  0  0
   27.0335  -17.3594  -14.3191 C   0  0  0  0  0  0  0  0  0  0  0  0
   26.3693  -20.5875  -11.5304 C   0  0  0  0  0  0  0  0  0  0  0  0
   25.6743  -21.6290  -11.5038 O   0  0  0  0  0  0  0  0  0  0  0  0
   27.5564  -20.0002   -3.6663 C   0  0  0  0  0  0  0  0  0  0  0  0
   27.8366  -19.4336   -5.3473 S   0  0  0  0  0  0  0  0  0  0  0  0
   26.8085  -20.2821   -6.5574 C   0  0  0  0  0  0  0  0  0  0  0  0
   27.1432  -19.9500   -7.9656 C   0  0  0  0  0  0  0  0  0  0  0  0
   26.3091  -20.6107   -9.0227 C   0  0  2  0  0  0  0  0  0  0  0  0
   26.7530  -20.0134  -10.3080 N   0  0  0  0  0  0  0  0  0  0  0  0
   24.8607  -20.3378   -8.9301 C   0  0  0  0  0  0  0  0  0  0  0  0
   24.3655  -19.2625   -9.4271 O   0  0  0  0  0  0  0  0  0  0  0  0
   19.7465  -20.3795  -11.1631 N   0  0  0  0  0  0  0  0  0  0  0  0
   20.4504  -21.5983  -11.2904 C   0  0  0  0  0  0  0  0  0  0  0  0
   20.0779  -22.5012  -12.0680 O   0  0  0  0  0  0  0  0  0  0  0  0
   21.6789  -21.7987  -10.4611 C   0  0  0  0  0  0  0  0  0  0  0  0
   21.9692  -20.5399   -9.6866 C   0  0  0  0  0  0  0  0  0  0  0  0
   22.4587  -20.8426   -8.3131 C   0  0  2  0  0  0  0  0  0  0  0  0
   23.8968  -21.1752   -8.3231 N   0  0  0  0  0  0  0  0  0  0  0  0
   21.7746  -21.9455   -7.6215 C   0  0  0  0  0  0  0  0  0  0  0  0
   22.3899  -23.0315   -7.3415 O   0  0  0  0  0  0  0  0  0  0  0  0
   20.4512  -21.9200   -7.2189 O   0  0  0  0  0  0  0  0  0  0  0  0
  2  1  1  6
  3  4  1  0
  3  2  1  0
  4  5  2  0
  5  6  1  0
  7  6  2  0
  8  7  1  0
  9  8  2  0
  9  4  1  0
 10  2  1  0
 10 11  2  0
 12 13  1  0
 13 14  1  0
 16 15  1  1
 15 14  1  0
 16 17  1  0
 17 10  1  0
 18 16  1  0
 19 18  2  0
 20 21  1  0
 21 22  2  0
 23 21  1  0
 23 24  1  0
 25 24  1  6
 25 27  1  0
 25 26  1  0
 26 18  1  0
 27 29  1  0
 28 27  2  0
M  END
$$$$
