FMQ.pdb
     RDKit          3D

 29 29  0  0  1  0  0  0  0  0999 V2000
   19.9190  -26.0378  -14.0991 N   0  0  0  0  0  0  0  0  0  0  0  0
   18.9068  -25.2208  -13.4353 C   0  0  1  0  0  0  0  0  0  0  0  0
   17.5832  -25.9348  -13.6415 C   0  0  0  0  0  0  0  0  0  0  0  0
   17.2352  -25.7460  -15.0803 C   0  0  0  0  0  0  0  0  0  0  0  0
   17.2352  -26.8143  -15.9563 C   0  0  0  0  0  0  0  0  0  0  0  0
   16.9132  -26.6483  -17.2950 C   0  0  0  0  0  0  0  0  0  0  0  0
   16.5801  -25.4114  -17.8060 C   0  0  0  0  0  0  0  0  0  0  0  0
   16.5800  -24.3475  -16.9338 C   0  0  0  0  0  0  0  0  0  0  0  0
   16.8988  -24.5063  -15.6038 C   0  0  0  0  0  0  0  0  0  0  0  0
   19.2481  -25.0401  -12.0161 C   0  0  0  0  0  0  0  0  0  0  0  0
   19.9894  -25.8702  -11.4418 O   0  0  0  0  0  0  0  0  0  0  0  0
   21.4358  -19.2080   -8.7989 C   0  0  0  0  0  0  0  0  0  0  0  0
   20.5454  -19.7361  -10.2664 S   0  0  0  0  0  0  0  0  0  0  0  0
   20.5158  -21.5250  -10.4669 C   0  0  0  0  0  0  0  0  0  0  0  0
   19.3620  -22.1831   -9.8028 C   0  0  0  0  0  0  0  0  0  0  0  0
   19.2945  -23.6776   -9.9104 C   0  0  2  0  0  0  0  0  0  0  0  0
   18.7650  -23.9532  -11.2703 N   0  0  0  0  0  0  0  0  0  0  0  0
   18.3548  -24.3248   -8.9729 C   0  0  0  0  0  0  0  0  0  0  0  0
   17.1532  -24.5959   -9.3355 O   0  0  0  0  0  0  0  0  0  0  0  0
   17.2788  -28.2363   -2.7355 N   0  0  0  0  0  0  0  0  0  0  0  0
   18.0340  -27.4642   -3.6470 C   0  0  0  0  0  0  0  0  0  0  0  0
   19.2687  -27.3202   -3.5302 O   0  0  0  0  0  0  0  0  0  0  0  0
   17.3180  -26.8048   -4.7825 C   0  0  0  0  0  0  0  0  0  0  0  0
   18.3081  -26.0365   -5.6182 C   0  0  0  0  0  0  0  0  0  0  0  0
   17.6512  -25.3862   -6.7857 C   0  0  2  0  0  0  0  0  0  0  0  0
   18.6425  -24.7063   -7.6422 N   0  0  0  0  0  0  0  0  0  0  0  0
   16.6181  -24.3907   -6.4627 C   0  0  0  0  0  0  0  0  0  0  0  0
   15.4484  -24.7506   -6.0901 O   0  0  0  0  0  0  0  0  0  0  0  0
   16.8002  -23.0206   -6.5250 O   0  0  0  0  0  0  0  0  0  0  0  0
  2  1  1  6
  3  4  1  0
  3  2  1  0
  4  5  2  0
  5  6  1  0
  7  6  2  0
  8  7  1  0
  9  8  2  0
  9  4  1  0
 10  2  1  0
 10 11  2  0
 12 13  1  0
 13 14  1  0
 16 15  1  1
 15 14  1  0
 16 17  1  0
 17 10  1  0
 18 16  1  0
 19 18  2  0
 20 21  1  0
 21 22  2  0
 23 21  1  0
 23 24  1  0
 25 24  1  1
 25 27  1  0
 25 26  1  0
 26 18  1  0
 27 29  1  0
 28 27  2  0
M  END
$$$$
