FMQ.pdb
     RDKit          3D

 29 29  0  0  1  0  0  0  0  0999 V2000
   27.9637  -21.5835  -15.5631 N   0  0  0  0  0  0  0  0  0  0  0  0
   27.5365  -20.5143  -14.6647 C   0  0  1  0  0  0  0  0  0  0  0  0
   26.6035  -19.6298  -15.4717 C   0  0  0  0  0  0  0  0  0  0  0  0
   27.4831  -18.7490  -16.2947 C   0  0  0  0  0  0  0  0  0  0  0  0
   27.9906  -17.5720  -15.7792 C   0  0  0  0  0  0  0  0  0  0  0  0
   28.8088  -16.7472  -16.5367 C   0  0  0  0  0  0  0  0  0  0  0  0
   29.1490  -17.0679  -17.8342 C   0  0  0  0  0  0  0  0  0  0  0  0
   28.6438  -18.2400  -18.3477 C   0  0  0  0  0  0  0  0  0  0  0  0
   27.8311  -19.0627  -17.6003 C   0  0  0  0  0  0  0  0  0  0  0  0
   26.8993  -21.0801  -13.4659 C   0  0  0  0  0  0  0  0  0  0  0  0
   26.2522  -22.1492  -13.5485 O   0  0  0  0  0  0  0  0  0  0  0  0
   28.7418  -20.0755   -7.3020 C   0  0  0  0  0  0  0  0  0  0  0  0
   26.9577  -19.9708   -7.1255 S   0  0  0  0  0  0  0  0  0  0  0  0
   26.0700  -20.5756   -8.5703 C   0  0  0  0  0  0  0  0  0  0  0  0
   26.8158  -20.4108   -9.8438 C   0  0  0  0  0  0  0  0  0  0  0  0
   26.1273  -20.8914  -11.0866 C   0  0  2  0  0  0  0  0  0  0  0  0
   26.9920  -20.4547  -12.2124 N   0  0  0  0  0  0  0  0  0  0  0  0
   24.8038  -20.2856  -11.3360 C   0  0  0  0  0  0  0  0  0  0  0  0
   24.7080  -19.1272  -11.8815 O   0  0  0  0  0  0  0  0  0  0  0  0
   20.1934  -20.8894  -14.6467 N   0  0  0  0  0  0  0  0  0  0  0  0
   20.2750  -22.1755  -14.0665 C   0  0  0  0  0  0  0  0  0  0  0  0
   19.4432  -23.0714  -14.3200 O   0  0  0  0  0  0  0  0  0  0  0  0
   21.3987  -22.4578  -13.1207 C   0  0  0  0  0  0  0  0  0  0  0  0
   22.3508  -21.2907  -13.1140 C   0  0  0  0  0  0  0  0  0  0  0  0
   22.3343  -20.5780  -11.8065 C   0  0  2  0  0  0  0  0  0  0  0  0
   23.5537  -20.8695  -11.0274 N   0  0  0  0  0  0  0  0  0  0  0  0
   21.1915  -20.8788  -10.9312 C   0  0  0  0  0  0  0  0  0  0  0  0
   20.1058  -20.2066  -11.0091 O   0  0  0  0  0  0  0  0  0  0  0  0
   21.1754  -21.8790   -9.9756 O   0  0  0  0  0  0  0  0  0  0  0  0
  2  1  1  6
  3  4  1  0
  3  2  1  0
  4  5  2  0
  5  6  1  0
  7  6  2  0
  8  7  1  0
  9  8  2  0
  9  4  1  0
 10  2  1  0
 10 11  2  0
 12 13  1  0
 13 14  1  0
 16 15  1  1
 15 14  1  0
 16 17  1  0
 17 10  1  0
 18 16  1  0
 19 18  2  0
 20 21  1  0
 21 22  2  0
 23 21  1  0
 23 24  1  0
 25 24  1  6
 25 27  1  0
 25 26  1  0
 26 18  1  0
 27 29  1  0
 28 27  2  0
M  END
$$$$
