LVA.pdb
     RDKit          3D

 21 20  0  0  1  0  0  0  0  0999 V2000
    8.1903  -14.6409   19.0808 C   0  0  0  0  0  0  0  0  0  0  0  0
    7.4286  -13.4880   19.6997 C   0  0  2  0  0  0  0  0  0  0  0  0
    7.3823  -12.2751   18.8284 C   0  0  0  0  0  0  0  0  0  0  0  0
    8.1049  -13.1939   21.0460 C   0  0  0  0  0  0  0  0  0  0  0  0
    8.0142  -14.4735   21.8455 C   0  0  2  0  0  0  0  0  0  0  0  0
    6.6131  -14.7990   21.9827 N   0  0  0  0  0  0  0  0  0  0  0  0
    8.6678  -14.3623   23.1627 C   0  0  0  0  0  0  0  0  0  0  0  0
    9.9110  -14.1848   23.2153 O   0  0  0  0  0  0  0  0  0  0  0  0
    7.4563  -12.0188   25.9828 C   0  0  0  0  0  0  0  0  0  0  0  0
    7.4920  -13.4400   26.4851 C   0  0  1  0  0  0  0  0  0  0  0  0
    6.1288  -14.0745   26.4908 C   0  0  0  0  0  0  0  0  0  0  0  0
    8.4904  -14.2618   25.6777 C   0  0  2  0  0  0  0  0  0  0  0  0
    7.9042  -14.4542   24.3572 N   0  0  0  0  0  0  0  0  0  0  0  0
    8.6933  -15.5957   26.2759 C   0  0  0  0  0  0  0  0  0  0  0  0
    7.7233  -16.4002   26.4835 O   0  0  0  0  0  0  0  0  0  0  0  0
   11.4968  -17.9263   26.6075 C   0  0  0  0  0  0  0  0  0  0  0  0
   10.1704  -17.4452   27.1627 C   0  0  2  0  0  0  0  0  0  0  0  0
    9.9769  -16.0828   26.6639 N   0  0  0  0  0  0  0  0  0  0  0  0
   10.1424  -17.4601   28.6378 C   0  0  0  0  0  0  0  0  0  0  0  0
   10.1568  -18.6829   29.2829 O   0  0  0  0  0  0  0  0  0  0  0  0
   10.1068  -16.3954   29.2755 O   0  0  0  0  0  0  0  0  0  0  0  0
  2  1  1  6
  3  2  1  0
  4  5  1  0
  4  2  1  0
  5  7  1  0
  5  6  1  1
  7 13  1  0
  7  8  2  0
 10  9  1  6
 11 10  1  0
 12 10  1  0
 12 14  1  0
 12 13  1  6
 14 15  2  0
 17 16  1  1
 17 19  1  0
 18 17  1  0
 18 14  1  0
 19 21  2  0
 19 20  1  0
M  END
$$$$
