LVA.pdb
     RDKit          3D

 21 20  0  0  1  0  0  0  0  0999 V2000
    5.5860  -12.6039   25.8271 C   0  0  0  0  0  0  0  0  0  0  0  0
    6.2883  -13.0504   27.0920 C   0  0  2  0  0  0  0  0  0  0  0  0
    6.9304  -11.9271   27.8392 C   0  0  0  0  0  0  0  0  0  0  0  0
    7.3151  -14.1097   26.6675 C   0  0  0  0  0  0  0  0  0  0  0  0
    6.5750  -15.0671   25.7618 C   0  0  2  0  0  0  0  0  0  0  0  0
    5.9606  -16.0693   26.6020 N   0  0  0  0  0  0  0  0  0  0  0  0
    7.4565  -15.6836   24.7532 C   0  0  0  0  0  0  0  0  0  0  0  0
    7.9786  -16.8004   24.9981 O   0  0  0  0  0  0  0  0  0  0  0  0
    9.2196  -15.2432   20.1057 C   0  0  0  0  0  0  0  0  0  0  0  0
    8.3777  -14.7202   21.2419 C   0  0  1  0  0  0  0  0  0  0  0  0
    6.9449  -14.5105   20.8370 C   0  0  0  0  0  0  0  0  0  0  0  0
    8.4902  -15.6410   22.4517 C   0  0  2  0  0  0  0  0  0  0  0  0
    7.7134  -15.0256   23.5205 N   0  0  0  0  0  0  0  0  0  0  0  0
    9.8870  -15.7455   22.9167 C   0  0  0  0  0  0  0  0  0  0  0  0
   10.5412  -14.7299   23.3311 O   0  0  0  0  0  0  0  0  0  0  0  0
   12.2090  -18.5089   23.8307 C   0  0  0  0  0  0  0  0  0  0  0  0
   11.9813  -17.0643   23.4302 C   0  0  2  0  0  0  0  0  0  0  0  0
   10.6055  -16.9779   22.9382 N   0  0  0  0  0  0  0  0  0  0  0  0
   12.9269  -16.6158   22.3901 C   0  0  0  0  0  0  0  0  0  0  0  0
   12.5705  -16.7784   21.0641 O   0  0  0  0  0  0  0  0  0  0  0  0
   14.0135  -16.1061   22.7076 O   0  0  0  0  0  0  0  0  0  0  0  0
  2  1  1  6
  3  2  1  0
  4  5  1  0
  4  2  1  0
  5  7  1  0
  5  6  1  1
  7 13  1  0
  7  8  2  0
 10  9  1  6
 11 10  1  0
 12 10  1  0
 12 14  1  0
 12 13  1  1
 14 15  2  0
 17 16  1  6
 17 19  1  0
 18 17  1  0
 18 14  1  0
 19 21  2  0
 19 20  1  0
M  END
$$$$
