LVA.pdb
     RDKit          3D

 21 20  0  0  1  0  0  0  0  0999 V2000
    8.2954  -12.5648   27.6086 C   0  0  0  0  0  0  0  0  0  0  0  0
    7.4824  -13.0760   26.4380 C   0  0  2  0  0  0  0  0  0  0  0  0
    6.5859  -12.0389   25.8437 C   0  0  0  0  0  0  0  0  0  0  0  0
    6.6882  -14.2834   26.9555 C   0  0  0  0  0  0  0  0  0  0  0  0
    6.1096  -14.9563   25.7319 C   0  0  2  0  0  0  0  0  0  0  0  0
    5.1869  -15.9690   26.1913 N   0  0  0  0  0  0  0  0  0  0  0  0
    7.1501  -15.5368   24.8632 C   0  0  0  0  0  0  0  0  0  0  0  0
    7.8073  -16.5263   25.2738 O   0  0  0  0  0  0  0  0  0  0  0  0
    9.1222  -15.3701   20.2819 C   0  0  0  0  0  0  0  0  0  0  0  0
    8.1546  -14.8412   21.3102 C   0  0  1  0  0  0  0  0  0  0  0  0
    6.7441  -14.7945   20.7915 C   0  0  0  0  0  0  0  0  0  0  0  0
    8.2531  -15.6532   22.5967 C   0  0  2  0  0  0  0  0  0  0  0  0
    7.4078  -14.9862   23.5791 N   0  0  0  0  0  0  0  0  0  0  0  0
    9.6322  -15.6578   23.1225 C   0  0  0  0  0  0  0  0  0  0  0  0
   10.2108  -14.5898   23.5169 O   0  0  0  0  0  0  0  0  0  0  0  0
   12.0215  -18.1878   24.3827 C   0  0  0  0  0  0  0  0  0  0  0  0
   11.7810  -16.8279   23.7568 C   0  0  2  0  0  0  0  0  0  0  0  0
   10.4159  -16.8452   23.2289 N   0  0  0  0  0  0  0  0  0  0  0  0
   12.7437  -16.5292   22.6793 C   0  0  0  0  0  0  0  0  0  0  0  0
   13.9671  -15.9847   23.0238 O   0  0  0  0  0  0  0  0  0  0  0  0
   12.4534  -16.7645   21.4954 O   0  0  0  0  0  0  0  0  0  0  0  0
  2  1  1  1
  3  2  1  0
  4  5  1  0
  4  2  1  0
  5  7  1  0
  5  6  1  1
  7 13  1  0
  7  8  2  0
 10  9  1  6
 11 10  1  0
 12 10  1  0
 12 14  1  0
 12 13  1  1
 14 15  2  0
 17 16  1  6
 17 19  1  0
 18 17  1  0
 18 14  1  0
 19 21  2  0
 19 20  1  0
M  END
$$$$
