LVA.pdb
     RDKit          3D

 21 20  0  0  1  0  0  0  0  0999 V2000
    8.1889  -15.1218   18.8533 C   0  0  0  0  0  0  0  0  0  0  0  0
    7.4005  -13.9980   19.4919 C   0  0  2  0  0  0  0  0  0  0  0  0
    7.1608  -12.8466   18.5705 C   0  0  0  0  0  0  0  0  0  0  0  0
    8.1856  -13.5718   20.7403 C   0  0  0  0  0  0  0  0  0  0  0  0
    8.1278  -14.7467   21.6895 C   0  0  2  0  0  0  0  0  0  0  0  0
    6.7490  -15.1720   21.7672 N   0  0  0  0  0  0  0  0  0  0  0  0
    8.6613  -14.4190   23.0246 C   0  0  0  0  0  0  0  0  0  0  0  0
    9.8762  -14.1186   23.1407 O   0  0  0  0  0  0  0  0  0  0  0  0
    7.5981  -13.1143   27.6540 C   0  0  0  0  0  0  0  0  0  0  0  0
    7.1599  -13.4906   26.2612 C   0  0  1  0  0  0  0  0  0  0  0  0
    6.6112  -12.3148   25.5016 C   0  0  0  0  0  0  0  0  0  0  0  0
    8.3044  -14.1603   25.5091 C   0  0  2  0  0  0  0  0  0  0  0  0
    7.8149  -14.4420   24.1654 N   0  0  0  0  0  0  0  0  0  0  0  0
    8.6725  -15.4476   26.1303 C   0  0  0  0  0  0  0  0  0  0  0  0
    7.8128  -16.3676   26.3435 O   0  0  0  0  0  0  0  0  0  0  0  0
   11.7633  -17.3638   26.7387 C   0  0  0  0  0  0  0  0  0  0  0  0
   10.3451  -17.0361   27.1636 C   0  0  2  0  0  0  0  0  0  0  0  0
   10.0045  -15.7584   26.5361 N   0  0  0  0  0  0  0  0  0  0  0  0
   10.2078  -16.9401   28.6295 C   0  0  0  0  0  0  0  0  0  0  0  0
   10.1460  -18.1114   29.3617 O   0  0  0  0  0  0  0  0  0  0  0  0
   10.1500  -15.8303   29.1830 O   0  0  0  0  0  0  0  0  0  0  0  0
  2  1  1  6
  3  2  1  0
  4  5  1  0
  4  2  1  0
  5  7  1  0
  5  6  1  1
  7 13  1  0
  7  8  2  0
 10  9  1  1
 11 10  1  0
 12 10  1  0
 12 14  1  0
 12 13  1  6
 14 15  2  0
 17 16  1  1
 17 19  1  0
 18 17  1  0
 18 14  1  0
 19 21  2  0
 19 20  1  0
M  END
$$$$
