LVA.pdb
     RDKit          3D

 21 20  0  0  1  0  0  0  0  0999 V2000
    5.9552  -18.2452   21.2287 C   0  0  0  0  0  0  0  0  0  0  0  0
    7.2271  -17.6108   20.7069 C   0  0  2  0  0  0  0  0  0  0  0  0
    8.0791  -18.5545   19.9221 C   0  0  0  0  0  0  0  0  0  0  0  0
    7.9709  -17.0591   21.9313 C   0  0  0  0  0  0  0  0  0  0  0  0
    7.6706  -15.5782   21.9682 C   0  0  2  0  0  0  0  0  0  0  0  0
    8.1195  -15.0148   20.7156 N   0  0  0  0  0  0  0  0  0  0  0  0
    8.3056  -14.9031   23.1152 C   0  0  0  0  0  0  0  0  0  0  0  0
    9.5159  -14.5735   23.0372 O   0  0  0  0  0  0  0  0  0  0  0  0
    7.4649  -12.6909   27.4860 C   0  0  0  0  0  0  0  0  0  0  0  0
    6.9805  -13.2878   26.1889 C   0  0  1  0  0  0  0  0  0  0  0  0
    6.2662  -12.2797   25.3319 C   0  0  0  0  0  0  0  0  0  0  0  0
    8.1379  -13.9404   25.4416 C   0  0  2  0  0  0  0  0  0  0  0  0
    7.5608  -14.6282   24.2934 N   0  0  0  0  0  0  0  0  0  0  0  0
    8.8117  -14.9530   26.2776 C   0  0  0  0  0  0  0  0  0  0  0  0
    8.1687  -15.8969   26.8491 O   0  0  0  0  0  0  0  0  0  0  0  0
   12.3362  -15.9782   26.9355 C   0  0  0  0  0  0  0  0  0  0  0  0
   10.8706  -15.9803   27.3239 C   0  0  2  0  0  0  0  0  0  0  0  0
   10.2196  -14.9539   26.5083 N   0  0  0  0  0  0  0  0  0  0  0  0
   10.6710  -15.6982   28.7583 C   0  0  0  0  0  0  0  0  0  0  0  0
   10.1416  -14.4730   29.1195 O   0  0  0  0  0  0  0  0  0  0  0  0
   10.9739  -16.5465   29.6127 O   0  0  0  0  0  0  0  0  0  0  0  0
  2  1  1  1
  3  2  1  0
  4  5  1  0
  4  2  1  0
  5  7  1  0
  5  6  1  6
  7 13  1  0
  7  8  2  0
 10  9  1  1
 11 10  1  0
 12 10  1  0
 12 14  1  0
 12 13  1  6
 14 15  2  0
 17 16  1  1
 17 19  1  0
 18 17  1  0
 18 14  1  0
 19 21  2  0
 19 20  1  0
M  END
$$$$
