LVA.pdb
     RDKit          3D

 21 20  0  0  1  0  0  0  0  0999 V2000
    8.4897  -14.9679   19.1791 C   0  0  0  0  0  0  0  0  0  0  0  0
    7.3967  -14.0063   19.5952 C   0  0  2  0  0  0  0  0  0  0  0  0
    7.1947  -12.8867   18.6265 C   0  0  0  0  0  0  0  0  0  0  0  0
    7.7812  -13.4887   20.9883 C   0  0  0  0  0  0  0  0  0  0  0  0
    7.9831  -14.7161   21.8470 C   0  0  2  0  0  0  0  0  0  0  0  0
    6.6909  -15.3385   22.0220 N   0  0  0  0  0  0  0  0  0  0  0  0
    8.6029  -14.3984   23.1468 C   0  0  0  0  0  0  0  0  0  0  0  0
    9.8179  -14.0790   23.1831 O   0  0  0  0  0  0  0  0  0  0  0  0
    7.7059  -12.9656   27.7710 C   0  0  0  0  0  0  0  0  0  0  0  0
    7.2199  -13.4703   26.4359 C   0  0  1  0  0  0  0  0  0  0  0  0
    6.4903  -12.4095   25.6594 C   0  0  0  0  0  0  0  0  0  0  0  0
    8.3795  -14.0537   25.6365 C   0  0  2  0  0  0  0  0  0  0  0  0
    7.8384  -14.4522   24.3431 N   0  0  0  0  0  0  0  0  0  0  0  0
    8.9229  -15.2624   26.2860 C   0  0  0  0  0  0  0  0  0  0  0  0
    8.1920  -16.2751   26.5530 O   0  0  0  0  0  0  0  0  0  0  0  0
   12.3330  -16.5602   27.0879 C   0  0  0  0  0  0  0  0  0  0  0  0
   10.8261  -16.6222   27.2441 C   0  0  2  0  0  0  0  0  0  0  0  0
   10.2934  -15.3897   26.6614 N   0  0  0  0  0  0  0  0  0  0  0  0
   10.4139  -16.7418   28.6558 C   0  0  0  0  0  0  0  0  0  0  0  0
   10.1584  -15.5833   29.3660 O   0  0  0  0  0  0  0  0  0  0  0  0
   10.3019  -17.8596   29.1842 O   0  0  0  0  0  0  0  0  0  0  0  0
  2  1  1  6
  3  2  1  0
  4  5  1  0
  4  2  1  0
  5  7  1  0
  5  6  1  1
  7 13  1  0
  7  8  2  0
 10  9  1  1
 11 10  1  0
 12 10  1  0
 12 14  1  0
 12 13  1  6
 14 15  2  0
 17 16  1  1
 17 19  1  0
 18 17  1  0
 18 14  1  0
 19 21  2  0
 19 20  1  0
M  END
$$$$
