LVA.pdb
     RDKit          3D

 21 20  0  0  1  0  0  0  0  0999 V2000
    8.2258  -19.4003   22.9730 C   0  0  0  0  0  0  0  0  0  0  0  0
    9.3939  -18.6950   22.3170 C   0  0  2  0  0  0  0  0  0  0  0  0
   10.5889  -19.5736   22.1368 C   0  0  0  0  0  0  0  0  0  0  0  0
    9.7130  -17.4760   23.1939 C   0  0  0  0  0  0  0  0  0  0  0  0
    8.5274  -16.5476   23.0632 C   0  0  2  0  0  0  0  0  0  0  0  0
    8.2707  -16.3706   21.6522 N   0  0  0  0  0  0  0  0  0  0  0  0
    8.7498  -15.2524   23.7319 C   0  0  0  0  0  0  0  0  0  0  0  0
    9.7189  -14.5372   23.3728 O   0  0  0  0  0  0  0  0  0  0  0  0
    6.8197  -12.0043   26.9793 C   0  0  0  0  0  0  0  0  0  0  0  0
    6.6909  -13.2078   26.0802 C   0  0  1  0  0  0  0  0  0  0  0  0
    5.5984  -13.0405   25.0607 C   0  0  0  0  0  0  0  0  0  0  0  0
    8.0295  -13.5226   25.4220 C   0  0  2  0  0  0  0  0  0  0  0  0
    7.8812  -14.8170   24.7685 N   0  0  0  0  0  0  0  0  0  0  0  0
    9.1033  -13.6488   26.4266 C   0  0  0  0  0  0  0  0  0  0  0  0
    9.7359  -12.6334   26.8737 O   0  0  0  0  0  0  0  0  0  0  0  0
   10.1339  -14.3509   29.2097 C   0  0  0  0  0  0  0  0  0  0  0  0
   10.6106  -15.0108   27.9305 C   0  0  2  0  0  0  0  0  0  0  0  0
    9.5122  -14.9033   26.9691 N   0  0  0  0  0  0  0  0  0  0  0  0
   10.9779  -16.4254   28.1334 C   0  0  0  0  0  0  0  0  0  0  0  0
   12.0116  -16.7174   29.0040 O   0  0  0  0  0  0  0  0  0  0  0  0
   10.3679  -17.3244   27.5326 O   0  0  0  0  0  0  0  0  0  0  0  0
  2  1  1  1
  3  2  1  0
  4  5  1  0
  4  2  1  0
  5  7  1  0
  5  6  1  6
  7 13  1  0
  7  8  2  0
 10  9  1  6
 11 10  1  0
 12 10  1  0
 12 14  1  0
 12 13  1  1
 14 15  2  0
 17 16  1  1
 17 19  1  0
 18 17  1  0
 18 14  1  0
 19 21  2  0
 19 20  1  0
M  END
$$$$
