LVA.pdb
     RDKit          3D

 21 20  0  0  1  0  0  0  0  0999 V2000
    9.2301  -14.1553   19.2736 C   0  0  0  0  0  0  0  0  0  0  0  0
    7.7384  -13.9612   19.4461 C   0  0  2  0  0  0  0  0  0  0  0  0
    7.1532  -12.9878   18.4753 C   0  0  0  0  0  0  0  0  0  0  0  0
    7.5242  -13.5125   20.8985 C   0  0  0  0  0  0  0  0  0  0  0  0
    8.2117  -14.5473   21.7594 C   0  0  2  0  0  0  0  0  0  0  0  0
    7.3201  -15.6791   21.8697 N   0  0  0  0  0  0  0  0  0  0  0  0
    8.5752  -14.0226   23.0887 C   0  0  0  0  0  0  0  0  0  0  0  0
    9.5218  -13.2013   23.1839 O   0  0  0  0  0  0  0  0  0  0  0  0
    5.8135  -12.7857   25.5798 C   0  0  0  0  0  0  0  0  0  0  0  0
    6.7148  -13.7955   26.2441 C   0  0  1  0  0  0  0  0  0  0  0  0
    6.0909  -15.1624   26.3014 C   0  0  0  0  0  0  0  0  0  0  0  0
    8.0737  -13.8271   25.5539 C   0  0  2  0  0  0  0  0  0  0  0  0
    7.8661  -14.4387   24.2473 N   0  0  0  0  0  0  0  0  0  0  0  0
    9.0313  -14.6704   26.2957 C   0  0  0  0  0  0  0  0  0  0  0  0
    9.3378  -15.8485   25.9094 O   0  0  0  0  0  0  0  0  0  0  0  0
   11.1953  -14.2518   29.3386 C   0  0  0  0  0  0  0  0  0  0  0  0
   10.6245  -15.0913   28.2123 C   0  0  2  0  0  0  0  0  0  0  0  0
    9.6811  -14.2369   27.4896 N   0  0  0  0  0  0  0  0  0  0  0  0
    9.9435  -16.3032   28.7070 C   0  0  0  0  0  0  0  0  0  0  0  0
   10.7166  -17.3956   29.0546 O   0  0  0  0  0  0  0  0  0  0  0  0
    8.7062  -16.3318   28.8052 O   0  0  0  0  0  0  0  0  0  0  0  0
  2  1  1  6
  3  2  1  0
  4  5  1  0
  4  2  1  0
  5  7  1  0
  5  6  1  1
  7 13  1  0
  7  8  2  0
 10  9  1  6
 11 10  1  0
 12 10  1  0
 12 14  1  0
 12 13  1  6
 14 15  2  0
 17 16  1  1
 17 19  1  0
 18 17  1  0
 18 14  1  0
 19 21  2  0
 19 20  1  0
M  END
$$$$
