LVA.pdb
     RDKit          3D

 21 20  0  0  1  0  0  0  0  0999 V2000
    8.3655  -12.7314   27.6491 C   0  0  0  0  0  0  0  0  0  0  0  0
    7.4804  -13.4266   26.6362 C   0  0  2  0  0  0  0  0  0  0  0  0
    6.1921  -12.7117   26.3881 C   0  0  0  0  0  0  0  0  0  0  0  0
    7.2474  -14.8482   27.1668 C   0  0  0  0  0  0  0  0  0  0  0  0
    6.5284  -15.5912   26.0642 C   0  0  2  0  0  0  0  0  0  0  0  0
    5.8565  -16.7182   26.6693 N   0  0  0  0  0  0  0  0  0  0  0  0
    7.4407  -16.0271   24.9908 C   0  0  0  0  0  0  0  0  0  0  0  0
    8.1001  -17.0864   25.1415 O   0  0  0  0  0  0  0  0  0  0  0  0
    9.0434  -15.0274   20.3715 C   0  0  0  0  0  0  0  0  0  0  0  0
    8.1664  -14.6973   21.5527 C   0  0  1  0  0  0  0  0  0  0  0  0
    6.7111  -14.6358   21.1797 C   0  0  0  0  0  0  0  0  0  0  0  0
    8.4137  -15.6842   22.6880 C   0  0  2  0  0  0  0  0  0  0  0  0
    7.5739  -15.2612   23.8016 N   0  0  0  0  0  0  0  0  0  0  0  0
    9.8171  -15.6365   23.1425 C   0  0  0  0  0  0  0  0  0  0  0  0
   10.3318  -14.5804   23.6432 O   0  0  0  0  0  0  0  0  0  0  0  0
   12.4417  -18.0654   24.0341 C   0  0  0  0  0  0  0  0  0  0  0  0
   12.0862  -16.6868   23.5121 C   0  0  2  0  0  0  0  0  0  0  0  0
   10.6967  -16.7565   23.0574 N   0  0  0  0  0  0  0  0  0  0  0  0
   12.9667  -16.2623   22.4070 C   0  0  0  0  0  0  0  0  0  0  0  0
   14.1195  -15.5643   22.7164 O   0  0  0  0  0  0  0  0  0  0  0  0
   12.6714  -16.5299   21.2311 O   0  0  0  0  0  0  0  0  0  0  0  0
  2  1  1  1
  3  2  1  0
  4  5  1  0
  4  2  1  0
  5  7  1  0
  5  6  1  1
  7 13  1  0
  7  8  2  0
 10  9  1  6
 11 10  1  0
 12 10  1  0
 12 14  1  0
 12 13  1  1
 14 15  2  0
 17 16  1  6
 17 19  1  0
 18 17  1  0
 18 14  1  0
 19 21  2  0
 19 20  1  0
M  END
$$$$
