LVA.pdb
     RDKit          3D

 21 20  0  0  1  0  0  0  0  0999 V2000
    4.9732  -17.8246   21.6907 C   0  0  0  0  0  0  0  0  0  0  0  0
    6.4147  -18.2245   21.4566 C   0  0  2  0  0  0  0  0  0  0  0  0
    6.6242  -19.7038   21.4528 C   0  0  0  0  0  0  0  0  0  0  0  0
    7.2394  -17.5375   22.5540 C   0  0  0  0  0  0  0  0  0  0  0  0
    6.9962  -16.0546   22.3906 C   0  0  2  0  0  0  0  0  0  0  0  0
    7.3126  -15.7130   21.0227 N   0  0  0  0  0  0  0  0  0  0  0  0
    7.7852  -15.2465   23.3387 C   0  0  0  0  0  0  0  0  0  0  0  0
    9.0009  -15.0363   23.0988 O   0  0  0  0  0  0  0  0  0  0  0  0
    7.6059  -12.4658   27.4623 C   0  0  0  0  0  0  0  0  0  0  0  0
    6.9366  -13.1262   26.2836 C   0  0  1  0  0  0  0  0  0  0  0  0
    6.2573  -12.1302   25.3851 C   0  0  0  0  0  0  0  0  0  0  0  0
    7.9386  -13.9820   25.5169 C   0  0  2  0  0  0  0  0  0  0  0  0
    7.1810  -14.7120   24.5082 N   0  0  0  0  0  0  0  0  0  0  0  0
    8.5806  -14.9750   26.4001 C   0  0  0  0  0  0  0  0  0  0  0  0
    7.9102  -15.8797   27.0028 O   0  0  0  0  0  0  0  0  0  0  0  0
   12.0557  -16.1716   26.8746 C   0  0  0  0  0  0  0  0  0  0  0  0
   10.6266  -16.0938   27.3753 C   0  0  2  0  0  0  0  0  0  0  0  0
    9.9859  -14.9990   26.6450 N   0  0  0  0  0  0  0  0  0  0  0  0
   10.5549  -15.8515   28.8290 C   0  0  0  0  0  0  0  0  0  0  0  0
   10.8611  -16.8937   29.6846 O   0  0  0  0  0  0  0  0  0  0  0  0
   10.2267  -14.7360   29.2638 O   0  0  0  0  0  0  0  0  0  0  0  0
  2  1  1  1
  3  2  1  0
  4  5  1  0
  4  2  1  0
  5  7  1  0
  5  6  1  6
  7 13  1  0
  7  8  2  0
 10  9  1  1
 11 10  1  0
 12 10  1  0
 12 14  1  0
 12 13  1  6
 14 15  2  0
 17 16  1  6
 17 19  1  0
 18 17  1  0
 18 14  1  0
 19 21  2  0
 19 20  1  0
M  END
$$$$
