LVA.pdb
     RDKit          3D

 21 20  0  0  1  0  0  0  0  0999 V2000
    4.2037  -17.2953   21.9994 C   0  0  0  0  0  0  0  0  0  0  0  0
    5.4967  -17.9603   21.5772 C   0  0  2  0  0  0  0  0  0  0  0  0
    5.4245  -19.4526   21.5880 C   0  0  0  0  0  0  0  0  0  0  0  0
    6.5838  -17.4379   22.5270 C   0  0  0  0  0  0  0  0  0  0  0  0
    6.6052  -15.9370   22.3495 C   0  0  2  0  0  0  0  0  0  0  0  0
    6.9923  -15.6689   20.9834 N   0  0  0  0  0  0  0  0  0  0  0  0
    7.5121  -15.2701   23.3019 C   0  0  0  0  0  0  0  0  0  0  0  0
    8.7423  -15.2282   23.0479 O   0  0  0  0  0  0  0  0  0  0  0  0
    7.7708  -12.6415   27.5261 C   0  0  0  0  0  0  0  0  0  0  0  0
    6.9840  -13.1919   26.3636 C   0  0  1  0  0  0  0  0  0  0  0  0
    6.3341  -12.1053   25.5526 C   0  0  0  0  0  0  0  0  0  0  0  0
    7.8690  -14.0838   25.5002 C   0  0  2  0  0  0  0  0  0  0  0  0
    7.0039  -14.6821   24.4913 N   0  0  0  0  0  0  0  0  0  0  0  0
    8.4581  -15.1810   26.2924 C   0  0  0  0  0  0  0  0  0  0  0  0
    7.7367  -16.0574   26.8777 O   0  0  0  0  0  0  0  0  0  0  0  0
   11.7656  -16.7929   26.4863 C   0  0  0  0  0  0  0  0  0  0  0  0
   10.4334  -16.5043   27.1503 C   0  0  2  0  0  0  0  0  0  0  0  0
    9.8652  -15.3439   26.4625 N   0  0  0  0  0  0  0  0  0  0  0  0
   10.5749  -16.2269   28.5925 C   0  0  0  0  0  0  0  0  0  0  0  0
   10.9845  -17.2545   29.4220 O   0  0  0  0  0  0  0  0  0  0  0  0
   10.3298  -15.0955   29.0409 O   0  0  0  0  0  0  0  0  0  0  0  0
  2  1  1  1
  3  2  1  0
  4  5  1  0
  4  2  1  0
  5  7  1  0
  5  6  1  6
  7 13  1  0
  7  8  2  0
 10  9  1  1
 11 10  1  0
 12 10  1  0
 12 14  1  0
 12 13  1  6
 14 15  2  0
 17 16  1  6
 17 19  1  0
 18 17  1  0
 18 14  1  0
 19 21  2  0
 19 20  1  0
M  END
$$$$
