LVA.pdb
     RDKit          3D

 21 20  0  0  1  0  0  0  0  0999 V2000
    4.5820  -19.7524   23.6399 C   0  0  0  0  0  0  0  0  0  0  0  0
    6.0316  -20.1590   23.4793 C   0  0  2  0  0  0  0  0  0  0  0  0
    6.3164  -21.5394   23.9751 C   0  0  0  0  0  0  0  0  0  0  0  0
    6.8629  -19.1056   24.2249 C   0  0  0  0  0  0  0  0  0  0  0  0
    6.6390  -17.8032   23.4912 C   0  0  2  0  0  0  0  0  0  0  0  0
    6.7403  -18.0811   22.0768 N   0  0  0  0  0  0  0  0  0  0  0  0
    7.5934  -16.7557   23.8990 C   0  0  0  0  0  0  0  0  0  0  0  0
    8.7333  -16.7276   23.3702 O   0  0  0  0  0  0  0  0  0  0  0  0
    6.8521  -12.9162   24.3220 C   0  0  0  0  0  0  0  0  0  0  0  0
    7.3302  -13.5177   25.6193 C   0  0  1  0  0  0  0  0  0  0  0  0
    6.1970  -13.7968   26.5673 C   0  0  0  0  0  0  0  0  0  0  0  0
    8.1575  -14.7694   25.3494 C   0  0  2  0  0  0  0  0  0  0  0  0
    7.2310  -15.7903   24.8764 N   0  0  0  0  0  0  0  0  0  0  0  0
    8.7852  -15.2732   26.5865 C   0  0  0  0  0  0  0  0  0  0  0  0
    8.0971  -15.7592   27.5463 O   0  0  0  0  0  0  0  0  0  0  0  0
   12.2593  -16.0457   27.7117 C   0  0  0  0  0  0  0  0  0  0  0  0
   10.7993  -15.7833   28.0260 C   0  0  2  0  0  0  0  0  0  0  0  0
   10.1955  -15.2555   26.8016 N   0  0  0  0  0  0  0  0  0  0  0  0
   10.6286  -14.8261   29.1357 C   0  0  0  0  0  0  0  0  0  0  0  0
   10.8629  -15.2666   30.4252 O   0  0  0  0  0  0  0  0  0  0  0  0
   10.2828  -13.6558   28.9074 O   0  0  0  0  0  0  0  0  0  0  0  0
  2  1  1  1
  3  2  1  0
  4  5  1  0
  4  2  1  0
  5  7  1  0
  5  6  1  6
  7 13  1  0
  7  8  2  0
 10  9  1  6
 11 10  1  0
 12 10  1  0
 12 14  1  0
 12 13  1  1
 14 15  2  0
 17 16  1  6
 17 19  1  0
 18 17  1  0
 18 14  1  0
 19 21  2  0
 19 20  1  0
M  END
$$$$
