LVA.pdb
     RDKit          3D

 21 20  0  0  1  0  0  0  0  0999 V2000
    5.0845  -20.1046   24.5732 C   0  0  0  0  0  0  0  0  0  0  0  0
    6.4014  -20.2378   23.8379 C   0  0  2  0  0  0  0  0  0  0  0  0
    7.0683  -21.5572   24.0549 C   0  0  0  0  0  0  0  0  0  0  0  0
    7.2820  -19.0725   24.3101 C   0  0  0  0  0  0  0  0  0  0  0  0
    6.6441  -17.8185   23.7576 C   0  0  2  0  0  0  0  0  0  0  0  0
    6.5663  -17.9694   22.3226 N   0  0  0  0  0  0  0  0  0  0  0  0
    7.3869  -16.5992   24.1266 C   0  0  0  0  0  0  0  0  0  0  0  0
    8.4237  -16.2968   23.4837 O   0  0  0  0  0  0  0  0  0  0  0  0
    7.4791  -12.6672   27.1780 C   0  0  0  0  0  0  0  0  0  0  0  0
    6.7373  -13.7016   26.3699 C   0  0  1  0  0  0  0  0  0  0  0  0
    5.8032  -13.0781   25.3700 C   0  0  0  0  0  0  0  0  0  0  0  0
    7.7203  -14.6556   25.7008 C   0  0  2  0  0  0  0  0  0  0  0  0
    6.9380  -15.7762   25.1941 N   0  0  0  0  0  0  0  0  0  0  0  0
    8.6921  -15.1918   26.6737 C   0  0  0  0  0  0  0  0  0  0  0  0
    8.3273  -15.8707   27.6921 O   0  0  0  0  0  0  0  0  0  0  0  0
   12.4266  -15.4437   26.8588 C   0  0  0  0  0  0  0  0  0  0  0  0
   11.0521  -15.6076   27.4776 C   0  0  2  0  0  0  0  0  0  0  0  0
   10.0996  -14.9939   26.5510 N   0  0  0  0  0  0  0  0  0  0  0  0
   10.9567  -14.9728   28.8060 C   0  0  0  0  0  0  0  0  0  0  0  0
   11.4601  -15.6554   29.8980 O   0  0  0  0  0  0  0  0  0  0  0  0
   10.4355  -13.8528   28.9304 O   0  0  0  0  0  0  0  0  0  0  0  0
  2  1  1  1
  3  2  1  0
  4  5  1  0
  4  2  1  0
  5  7  1  0
  5  6  1  6
  7 13  1  0
  7  8  2  0
 10  9  1  6
 11 10  1  0
 12 10  1  0
 12 14  1  0
 12 13  1  1
 14 15  2  0
 17 16  1  6
 17 19  1  0
 18 17  1  0
 18 14  1  0
 19 21  2  0
 19 20  1  0
M  END
$$$$
