RIM.pdb
     RDKit          3D

 28 27  0  0  1  0  0  0  0  0999 V2000
   29.5878  -28.5650  -18.5943 N   0  0  0  0  0  0  0  0  0  0  0  0
   28.5905  -28.8882  -17.6319 C   0  0  0  0  0  0  0  0  0  0  0  0
   28.7495  -29.9542  -16.9451 N   0  0  0  0  0  0  0  0  0  0  0  0
   27.4317  -28.0467  -17.4300 N   0  0  0  0  0  0  0  0  0  0  0  0
   27.5878  -26.6304  -17.5774 C   0  0  0  0  0  0  0  0  0  0  0  0
   28.8515  -26.0124  -17.1499 C   0  0  0  0  0  0  0  0  0  0  0  0
   28.8208  -24.8307  -16.2459 C   0  0  0  0  0  0  0  0  0  0  0  0
   28.1487  -23.6205  -16.7519 C   0  0  2  0  0  0  0  0  0  0  0  0
   28.7218  -23.1808  -18.0078 N   0  0  0  0  0  0  0  0  0  0  0  0
   28.2149  -22.4882  -15.7434 C   0  0  0  0  0  0  0  0  0  0  0  0
   29.2405  -22.3318  -15.0354 O   0  0  0  0  0  0  0  0  0  0  0  0
   27.9966  -30.2503  -16.2910 C   0  0  0  0  0  0  0  0  0  0  0  0
   26.7603  -16.7427  -14.6972 C   0  0  0  0  0  0  0  0  0  0  0  0
   26.9269  -18.0985  -14.0410 C   0  0  2  0  0  0  0  0  0  0  0  0
   26.8402  -19.1815  -15.0916 C   0  0  0  0  0  0  0  0  0  0  0  0
   25.5344  -19.1602  -15.8453 C   0  0  2  0  0  0  0  0  0  0  0  0
   27.1432  -20.5522  -14.5341 N   0  0  0  0  0  0  0  0  0  0  0  0
   27.1447  -21.5768  -15.5605 C   0  0  0  0  0  0  0  0  0  0  0  0
   26.1829  -20.9368  -13.4690 O   0  0  0  0  0  0  0  0  0  0  0  0
   25.0666  -21.4975  -13.7315 C   0  0  0  0  0  0  0  0  0  0  0  0
   27.1003  -18.5656   -7.3106 S   0  0  0  0  0  0  0  0  0  0  0  0
   26.3523  -20.2070   -7.0174 C   0  0  0  0  0  0  0  0  0  0  0  0
   25.4964  -20.7315   -8.4987 C   0  0  0  0  0  0  0  0  0  0  0  0
   26.2278  -20.5728   -9.7771 C   0  0  1  0  0  0  0  0  0  0  0  0
   25.5473  -21.0594  -11.0120 N   0  0  0  0  0  0  0  0  0  0  0  0
   26.4826  -20.6891  -12.1183 C   0  0  0  0  0  0  0  0  0  0  0  0
   24.2545  -20.4326  -11.2504 O   0  0  0  0  0  0  0  0  0  0  0  0
   24.2717  -19.3135  -11.8893 O   0  0  0  0  0  0  0  0  0  0  0  0
  2  4  1  0
  2  1  1  0
  3  2  2  0
  5  4  1  0
  6  5  1  0
  7  6  1  0
  8 10  1  0
  8  7  1  0
  8  9  1  6
 10 11  2  0
 12 13  1  0
 14 13  1  0
 14 16  1  0
 14 15  1  6
 16 18  1  0
 16 17  1  1
 17 10  1  0
 18 19  2  0
 20 21  1  0
 21 22  1  0
 22 23  1  0
 24 23  1  1
 24 26  1  0
 25 24  1  0
 25 18  1  0
 26 27  2  0
 26 28  1  0
M  END
$$$$
