RIM.pdb
     RDKit          3D

 28 27  0  0  1  0  0  0  0  0999 V2000
   27.0845  -21.4014  -20.6461 N   0  0  0  0  0  0  0  0  0  0  0  0
   28.3350  -21.0842  -20.0452 C   0  0  0  0  0  0  0  0  0  0  0  0
   29.3975  -21.3813  -20.6902 N   0  0  0  0  0  0  0  0  0  0  0  0
   28.4128  -20.4482  -18.7487 N   0  0  0  0  0  0  0  0  0  0  0  0
   27.1969  -20.2428  -18.0197 C   0  0  0  0  0  0  0  0  0  0  0  0
   26.0747  -21.1651  -18.2470 C   0  0  0  0  0  0  0  0  0  0  0  0
   25.2154  -21.5705  -17.1016 C   0  0  0  0  0  0  0  0  0  0  0  0
   25.8984  -22.1177  -15.9156 C   0  0  2  0  0  0  0  0  0  0  0  0
   26.4896  -23.4110  -16.1931 N   0  0  0  0  0  0  0  0  0  0  0  0
   24.9494  -22.2392  -14.7374 C   0  0  0  0  0  0  0  0  0  0  0  0
   24.1417  -23.1989  -14.6731 O   0  0  0  0  0  0  0  0  0  0  0  0
   30.3219  -21.1357  -20.2810 C   0  0  0  0  0  0  0  0  0  0  0  0
   26.4373  -20.5956   -9.7270 C   0  0  0  0  0  0  0  0  0  0  0  0
   25.8824  -21.3389  -10.9253 C   0  0  2  0  0  0  0  0  0  0  0  0
   24.5484  -20.7444  -11.3142 C   0  0  0  0  0  0  0  0  0  0  0  0
   23.5449  -20.7766  -10.1892 C   0  0  2  0  0  0  0  0  0  0  0  0
   23.9917  -21.3537  -12.5793 N   0  0  0  0  0  0  0  0  0  0  0  0
   24.9337  -21.2948  -13.6804 C   0  0  0  0  0  0  0  0  0  0  0  0
   22.7242  -20.7002  -12.9924 O   0  0  0  0  0  0  0  0  0  0  0  0
   22.6411  -19.4412  -13.1858 C   0  0  0  0  0  0  0  0  0  0  0  0
   16.8303  -21.7836  -17.4698 S   0  0  0  0  0  0  0  0  0  0  0  0
   18.0117  -22.6222  -16.3559 C   0  0  0  0  0  0  0  0  0  0  0  0
   18.2742  -21.6027  -14.9090 C   0  0  0  0  0  0  0  0  0  0  0  0
   19.4221  -21.9631  -14.0447 C   0  0  2  0  0  0  0  0  0  0  0  0
   20.2383  -20.8401  -13.4992 N   0  0  0  0  0  0  0  0  0  0  0  0
   21.5602  -21.4642  -13.1849 C   0  0  0  0  0  0  0  0  0  0  0  0
   19.6864  -20.2546  -12.2852 O   0  0  0  0  0  0  0  0  0  0  0  0
   19.9325  -20.8811  -11.1862 O   0  0  0  0  0  0  0  0  0  0  0  0
  2  4  1  0
  2  1  1  0
  3  2  2  0
  5  4  1  0
  6  5  1  0
  7  6  1  0
  8 10  1  0
  8  7  1  0
  8  9  1  6
 10 11  2  0
 12 13  1  0
 14 13  1  0
 14 16  1  0
 14 15  1  6
 16 18  1  0
 16 17  1  1
 17 10  1  0
 18 19  2  0
 20 21  1  0
 21 22  1  0
 22 23  1  0
 24 23  1  6
 24 26  1  0
 25 24  1  0
 25 18  1  0
 26 27  2  0
 26 28  1  0
M  END
$$$$
