RIM.pdb
     RDKit          3D

 28 27  0  0  1  0  0  0  0  0999 V2000
   28.0207  -18.1120  -18.1660 N   0  0  0  0  0  0  0  0  0  0  0  0
   27.1829  -18.9408  -18.9638 C   0  0  0  0  0  0  0  0  0  0  0  0
   27.5545  -19.1847  -20.1621 N   0  0  0  0  0  0  0  0  0  0  0  0
   25.9503  -19.4932  -18.4471 N   0  0  0  0  0  0  0  0  0  0  0  0
   25.6931  -19.3813  -17.0422 C   0  0  0  0  0  0  0  0  0  0  0  0
   26.7938  -19.6375  -16.1018 C   0  0  0  0  0  0  0  0  0  0  0  0
   26.5136  -19.6870  -14.6411 C   0  0  0  0  0  0  0  0  0  0  0  0
   26.8357  -20.9439  -13.9418 C   0  0  2  0  0  0  0  0  0  0  0  0
   27.0685  -22.0265  -14.8762 N   0  0  0  0  0  0  0  0  0  0  0  0
   25.7326  -21.3387  -12.9770 C   0  0  0  0  0  0  0  0  0  0  0  0
   25.0673  -22.3861  -13.1722 O   0  0  0  0  0  0  0  0  0  0  0  0
   26.9029  -19.6842  -20.8010 C   0  0  0  0  0  0  0  0  0  0  0  0
   26.4661  -19.7537   -7.9266 C   0  0  0  0  0  0  0  0  0  0  0  0
   26.0625  -20.7266   -9.0161 C   0  0  2  0  0  0  0  0  0  0  0  0
   24.6692  -20.3943   -9.4982 C   0  0  0  0  0  0  0  0  0  0  0  0
   23.5999  -20.7948   -8.5135 C   0  0  2  0  0  0  0  0  0  0  0  0
   24.3912  -20.9387  -10.8795 N   0  0  0  0  0  0  0  0  0  0  0  0
   25.4119  -20.5592  -11.8373 C   0  0  0  0  0  0  0  0  0  0  0  0
   23.0663  -20.5006  -11.3864 O   0  0  0  0  0  0  0  0  0  0  0  0
   22.8272  -19.2868  -11.7011 C   0  0  0  0  0  0  0  0  0  0  0  0
   18.0074  -23.6990   -9.3306 S   0  0  0  0  0  0  0  0  0  0  0  0
   18.6044  -24.4936  -10.8641 C   0  0  0  0  0  0  0  0  0  0  0  0
   19.5588  -23.3065  -11.8033 C   0  0  0  0  0  0  0  0  0  0  0  0
   19.7541  -21.9754  -11.1835 C   0  0  2  0  0  0  0  0  0  0  0  0
   20.6329  -21.0127  -11.9087 N   0  0  0  0  0  0  0  0  0  0  0  0
   22.0203  -21.4276  -11.5360 C   0  0  0  0  0  0  0  0  0  0  0  0
   20.4276  -19.6257  -11.5149 O   0  0  0  0  0  0  0  0  0  0  0  0
   20.7259  -19.3278  -10.2970 O   0  0  0  0  0  0  0  0  0  0  0  0
  2  4  1  0
  2  1  1  0
  3  2  2  0
  5  4  1  0
  6  5  1  0
  7  6  1  0
  8 10  1  0
  8  7  1  0
  8  9  1  6
 10 11  2  0
 12 13  1  0
 14 13  1  0
 14 16  1  0
 14 15  1  6
 16 18  1  0
 16 17  1  6
 17 10  1  0
 18 19  2  0
 20 21  1  0
 21 22  1  0
 22 23  1  0
 24 23  1  6
 24 26  1  0
 25 24  1  0
 25 18  1  0
 26 27  2  0
 26 28  1  0
M  END
$$$$
