RIM.pdb
     RDKit          3D

 28 27  0  0  1  0  0  0  0  0999 V2000
   31.5150  -22.8585  -17.1543 N   0  0  0  0  0  0  0  0  0  0  0  0
   30.9410  -24.0687  -16.6733 C   0  0  0  0  0  0  0  0  0  0  0  0
   31.6610  -24.8117  -15.9230 N   0  0  0  0  0  0  0  0  0  0  0  0
   29.5902  -24.4551  -17.0159 N   0  0  0  0  0  0  0  0  0  0  0  0
   28.7044  -23.4493  -17.5218 C   0  0  0  0  0  0  0  0  0  0  0  0
   28.4592  -22.2512  -16.7057 C   0  0  0  0  0  0  0  0  0  0  0  0
   27.1075  -22.0224  -16.1268 C   0  0  0  0  0  0  0  0  0  0  0  0
   26.5111  -23.1341  -15.3645 C   0  0  2  0  0  0  0  0  0  0  0  0
   25.9377  -24.1330  -16.2434 N   0  0  0  0  0  0  0  0  0  0  0  0
   25.4468  -22.6374  -14.4031 C   0  0  0  0  0  0  0  0  0  0  0  0
   24.2317  -22.8468  -14.6426 O   0  0  0  0  0  0  0  0  0  0  0  0
   31.2367  -25.6605  -15.4965 C   0  0  0  0  0  0  0  0  0  0  0  0
   24.1094  -21.5348   -8.8765 C   0  0  0  0  0  0  0  0  0  0  0  0
   24.3083  -20.5341   -9.9971 C   0  0  2  0  0  0  0  0  0  0  0  0
   25.3526  -21.0540  -10.9580 C   0  0  0  0  0  0  0  0  0  0  0  0
   26.5355  -20.1285  -11.0910 C   0  0  2  0  0  0  0  0  0  0  0  0
   24.7697  -21.4152  -12.3039 N   0  0  0  0  0  0  0  0  0  0  0  0
   25.7708  -21.9308  -13.2178 C   0  0  0  0  0  0  0  0  0  0  0  0
   24.0886  -20.2576  -12.9365 O   0  0  0  0  0  0  0  0  0  0  0  0
   24.7361  -19.2642  -13.4091 C   0  0  0  0  0  0  0  0  0  0  0  0
   21.1041  -17.2949  -18.7957 S   0  0  0  0  0  0  0  0  0  0  0  0
   22.0643  -18.5027  -17.8165 C   0  0  0  0  0  0  0  0  0  0  0  0
   21.6902  -18.2767  -16.0814 C   0  0  0  0  0  0  0  0  0  0  0  0
   22.3371  -19.2166  -15.1368 C   0  0  1  0  0  0  0  0  0  0  0  0
   21.9595  -19.0990  -13.6985 N   0  0  0  0  0  0  0  0  0  0  0  0
   22.6868  -20.2235  -13.0335 C   0  0  0  0  0  0  0  0  0  0  0  0
   20.5308  -19.2458  -13.4572 O   0  0  0  0  0  0  0  0  0  0  0  0
   20.1106  -20.4423  -13.2274 O   0  0  0  0  0  0  0  0  0  0  0  0
  2  4  1  0
  2  1  1  0
  3  2  2  0
  5  4  1  0
  6  5  1  0
  7  6  1  0
  8 10  1  0
  8  7  1  0
  8  9  1  6
 10 11  2  0
 12 13  1  0
 14 13  1  0
 14 16  1  0
 14 15  1  6
 16 18  1  0
 16 17  1  6
 17 10  1  0
 18 19  2  0
 20 21  1  0
 21 22  1  0
 22 23  1  0
 24 23  1  1
 24 26  1  0
 25 24  1  0
 25 18  1  0
 26 27  2  0
 26 28  1  0
M  END
$$$$
