RIM.pdb
     RDKit          3D

 28 27  0  0  1  0  0  0  0  0999 V2000
   26.8129  -20.5989  -19.2684 N   0  0  0  0  0  0  0  0  0  0  0  0
   27.7986  -19.6629  -19.6900 C   0  0  0  0  0  0  0  0  0  0  0  0
   27.6294  -19.0884  -20.8190 N   0  0  0  0  0  0  0  0  0  0  0  0
   28.9570  -19.3648  -18.8771 N   0  0  0  0  0  0  0  0  0  0  0  0
   28.9647  -19.8134  -17.5167 C   0  0  0  0  0  0  0  0  0  0  0  0
   28.1880  -19.0595  -16.5217 C   0  0  0  0  0  0  0  0  0  0  0  0
   27.1924  -19.7720  -15.6756 C   0  0  0  0  0  0  0  0  0  0  0  0
   27.7116  -20.8023  -14.7584 C   0  0  2  0  0  0  0  0  0  0  0  0
   28.2857  -21.9177  -15.4833 N   0  0  0  0  0  0  0  0  0  0  0  0
   26.6269  -21.3109  -13.8266 C   0  0  0  0  0  0  0  0  0  0  0  0
   25.8684  -22.2439  -14.1897 O   0  0  0  0  0  0  0  0  0  0  0  0
   28.3204  -18.3764  -21.1317 C   0  0  0  0  0  0  0  0  0  0  0  0
   26.9611  -20.2197   -8.4267 C   0  0  0  0  0  0  0  0  0  0  0  0
   26.6712  -21.0447   -9.6645 C   0  0  2  0  0  0  0  0  0  0  0  0
   25.3956  -20.5545  -10.3100 C   0  0  0  0  0  0  0  0  0  0  0  0
   24.1702  -20.8587   -9.4858 C   0  0  2  0  0  0  0  0  0  0  0  0
   25.2471  -21.0365  -11.7338 N   0  0  0  0  0  0  0  0  0  0  0  0
   26.4268  -20.7669  -12.5330 C   0  0  0  0  0  0  0  0  0  0  0  0
   24.0650  -20.4318  -12.3982 O   0  0  0  0  0  0  0  0  0  0  0  0
   24.1089  -19.2789  -12.9442 C   0  0  0  0  0  0  0  0  0  0  0  0
   19.7083  -20.7782  -18.3091 S   0  0  0  0  0  0  0  0  0  0  0  0
   21.1698  -21.1803  -17.2883 C   0  0  0  0  0  0  0  0  0  0  0  0
   20.8435  -20.7134  -15.5920 C   0  0  0  0  0  0  0  0  0  0  0  0
   21.9004  -21.0294  -14.6035 C   0  0  1  0  0  0  0  0  0  0  0  0
   21.6582  -20.6060  -13.1939 N   0  0  0  0  0  0  0  0  0  0  0  0
   22.8433  -21.1253  -12.4444 C   0  0  0  0  0  0  0  0  0  0  0  0
   20.4449  -21.1681  -12.6168 O   0  0  0  0  0  0  0  0  0  0  0  0
   20.5685  -22.3061  -12.0245 O   0  0  0  0  0  0  0  0  0  0  0  0
  2  4  1  0
  2  1  1  0
  3  2  2  0
  5  4  1  0
  6  5  1  0
  7  6  1  0
  8 10  1  0
  8  7  1  0
  8  9  1  6
 10 11  2  0
 12 13  1  0
 14 13  1  0
 14 16  1  0
 14 15  1  6
 16 18  1  0
 16 17  1  6
 17 10  1  0
 18 19  2  0
 20 21  1  0
 21 22  1  0
 22 23  1  0
 24 23  1  6
 24 26  1  0
 25 24  1  0
 25 18  1  0
 26 27  2  0
 26 28  1  0
M  END
$$$$
