DYI.pdb
     RDKit          3D

 29 29  0  0  1  0  0  0  0  0999 V2000
   28.7280  -23.2449  -17.0461 N   0  0  0  0  0  0  0  0  0  0  0  0
   27.7318  -22.2065  -17.0644 C   0  0  1  0  0  0  0  0  0  0  0  0
   26.9345  -22.1511  -18.3498 C   0  0  0  0  0  0  0  0  0  0  0  0
   26.5597  -20.7428  -18.6184 C   0  0  0  0  0  0  0  0  0  0  0  0
   27.1864  -19.7894  -18.1139 O   0  0  0  0  0  0  0  0  0  0  0  0
   26.8577  -22.3767  -15.8810 C   0  0  0  0  0  0  0  0  0  0  0  0
   26.3098  -23.4874  -15.6845 O   0  0  0  0  0  0  0  0  0  0  0  0
   25.4817  -20.3891  -19.4523 O   0  0  0  0  0  0  0  0  0  0  0  0
   23.9620  -20.6255   -7.6238 O   0  0  0  0  0  0  0  0  0  0  0  0
   24.5793  -20.6537   -8.8694 C   0  0  0  0  0  0  0  0  0  0  0  0
   25.8085  -21.2480   -9.0571 C   0  0  0  0  0  0  0  0  0  0  0  0
   26.3855  -21.2550  -10.3020 C   0  0  0  0  0  0  0  0  0  0  0  0
   25.7540  -20.6747  -11.3765 C   0  0  0  0  0  0  0  0  0  0  0  0
   26.4470  -20.6612  -12.6639 C   0  0  0  0  0  0  0  0  0  0  0  0
   25.8082  -21.4877  -13.7438 C   0  0  2  0  0  0  0  0  0  0  0  0
   26.6399  -21.3061  -14.9823 N   0  0  0  0  0  0  0  0  0  0  0  0
   24.4956  -20.9700  -14.1108 C   0  0  0  0  0  0  0  0  0  0  0  0
   24.4180  -19.8535  -14.6897 O   0  0  0  0  0  0  0  0  0  0  0  0
   24.5291  -20.0891  -11.1658 C   0  0  0  0  0  0  0  0  0  0  0  0
   23.9332  -20.0678   -9.9370 C   0  0  0  0  0  0  0  0  0  0  0  0
   20.1682  -23.9358  -15.6713 C   0  0  0  0  0  0  0  0  0  0  0  0
   21.0392  -23.1976  -14.6516 C   0  0  0  0  0  0  0  0  0  0  0  0
   21.2991  -21.8365  -15.2167 C   0  0  2  0  0  0  0  0  0  0  0  0
   22.1983  -21.9011  -16.4393 C   0  0  0  0  0  0  0  0  0  0  0  0
   22.0258  -20.9907  -14.1754 C   0  0  2  0  0  0  0  0  0  0  0  0
   23.2964  -21.6782  -13.8510 N   0  0  0  0  0  0  0  0  0  0  0  0
   21.2389  -20.9234  -12.9402 C   0  0  0  0  0  0  0  0  0  0  0  0
   21.5731  -21.6330  -11.7814 O   0  0  0  0  0  0  0  0  0  0  0  0
   20.2025  -20.2157  -12.8550 O   0  0  0  0  0  0  0  0  0  0  0  0
  2  1  1  6
  2  3  1  0
  4  8  1  0
  4  3  1  0
  5  4  2  0
  6  2  1  0
  7  6  2  0
  9 10  1  0
 10 11  2  0
 10 20  1  0
 11 12  1  0
 12 13  2  0
 13 14  1  0
 15 14  1  1
 15 16  1  0
 16  6  1  0
 17 15  1  0
 17 18  2  0
 19 13  1  0
 20 19  2  0
 21 22  1  0
 23 25  1  0
 23 22  1  0
 23 24  1  6
 25 26  1  1
 26 17  1  0
 27 25  1  0
 28 27  1  0
 29 27  2  0
M  END
$$$$
