DYI.pdb
     RDKit          3D

 29 29  0  0  1  0  0  0  0  0999 V2000
   16.0778  -10.3841  -17.5413 N   0  0  0  0  0  0  0  0  0  0  0  0
   16.5279  -10.0414  -16.2180 C   0  0  1  0  0  0  0  0  0  0  0  0
   17.2536  -11.1666  -15.5120 C   0  0  0  0  0  0  0  0  0  0  0  0
   16.2697  -12.2113  -15.1427 C   0  0  0  0  0  0  0  0  0  0  0  0
   16.6271  -13.3272  -14.7146 O   0  0  0  0  0  0  0  0  0  0  0  0
   17.3613   -8.8205  -16.3095 C   0  0  0  0  0  0  0  0  0  0  0  0
   18.3022   -8.7872  -17.1377 O   0  0  0  0  0  0  0  0  0  0  0  0
   14.8792  -12.0173  -15.2491 O   0  0  0  0  0  0  0  0  0  0  0  0
   13.9624   -3.7434  -19.7530 O   0  0  0  0  0  0  0  0  0  0  0  0
   14.7315   -4.1186  -18.6571 C   0  0  0  0  0  0  0  0  0  0  0  0
   15.9711   -4.7021  -18.8059 C   0  0  0  0  0  0  0  0  0  0  0  0
   16.7000   -5.0589  -17.6995 C   0  0  0  0  0  0  0  0  0  0  0  0
   16.2120   -4.8429  -16.4325 C   0  0  0  0  0  0  0  0  0  0  0  0
   17.0089   -5.3002  -15.2950 C   0  0  0  0  0  0  0  0  0  0  0  0
   17.9292   -6.4531  -15.5800 C   0  0  2  0  0  0  0  0  0  0  0  0
   17.1048   -7.7054  -15.4775 N   0  0  0  0  0  0  0  0  0  0  0  0
   18.9421   -6.6011  -14.5418 C   0  0  0  0  0  0  0  0  0  0  0  0
   18.5794   -6.8851  -13.3690 O   0  0  0  0  0  0  0  0  0  0  0  0
   14.9745   -4.2591  -16.3086 C   0  0  0  0  0  0  0  0  0  0  0  0
   14.2284   -3.8951  -17.3932 C   0  0  0  0  0  0  0  0  0  0  0  0
   23.6840   -9.5618  -13.2015 C   0  0  0  0  0  0  0  0  0  0  0  0
   22.9805   -8.2462  -12.8587 C   0  0  0  0  0  0  0  0  0  0  0  0
   21.9703   -8.0077  -13.9368 C   0  0  2  0  0  0  0  0  0  0  0  0
   22.6269   -7.8843  -15.3010 C   0  0  0  0  0  0  0  0  0  0  0  0
   21.2519   -6.6886  -13.6689 C   0  0  2  0  0  0  0  0  0  0  0  0
   20.3267   -6.4477  -14.7996 N   0  0  0  0  0  0  0  0  0  0  0  0
   22.2146   -5.5832  -13.6505 C   0  0  0  0  0  0  0  0  0  0  0  0
   22.9814   -5.2559  -12.5266 O   0  0  0  0  0  0  0  0  0  0  0  0
   22.4040   -4.8553  -14.6588 O   0  0  0  0  0  0  0  0  0  0  0  0
  2  1  1  6
  2  3  1  0
  4  8  1  0
  4  3  1  0
  5  4  2  0
  6  2  1  0
  7  6  2  0
  9 10  1  0
 10 11  2  0
 10 20  1  0
 11 12  1  0
 12 13  2  0
 13 14  1  0
 15 14  1  1
 15 16  1  0
 16  6  1  0
 17 15  1  0
 17 18  2  0
 19 13  1  0
 20 19  2  0
 21 22  1  0
 23 25  1  0
 23 22  1  0
 23 24  1  6
 25 26  1  6
 26 17  1  0
 27 25  1  0
 28 27  1  0
 29 27  2  0
M  END
$$$$
