DYI.pdb
     RDKit          3D

 29 29  0  0  1  0  0  0  0  0999 V2000
   26.7644  -21.7092  -13.6276 N   0  0  0  0  0  0  0  0  0  0  0  0
   27.2029  -20.3508  -13.4443 C   0  0  1  0  0  0  0  0  0  0  0  0
   26.7138  -19.4036  -14.5189 C   0  0  0  0  0  0  0  0  0  0  0  0
   27.2868  -19.8214  -15.8201 C   0  0  0  0  0  0  0  0  0  0  0  0
   26.9958  -20.9155  -16.3441 O   0  0  0  0  0  0  0  0  0  0  0  0
   26.7952  -19.9067  -12.0916 C   0  0  0  0  0  0  0  0  0  0  0  0
   26.7633  -18.6790  -11.8386 O   0  0  0  0  0  0  0  0  0  0  0  0
   28.1895  -19.0204  -16.5453 O   0  0  0  0  0  0  0  0  0  0  0  0
   20.1860  -18.8803  -12.4480 O   0  0  0  0  0  0  0  0  0  0  0  0
   21.2424  -19.4610  -11.7551 C   0  0  0  0  0  0  0  0  0  0  0  0
   21.5288  -19.1212  -10.4506 C   0  0  0  0  0  0  0  0  0  0  0  0
   22.5804  -19.7164   -9.8004 C   0  0  0  0  0  0  0  0  0  0  0  0
   23.3615  -20.6549  -10.4323 C   0  0  0  0  0  0  0  0  0  0  0  0
   24.5041  -21.2084   -9.7070 C   0  0  0  0  0  0  0  0  0  0  0  0
   25.7775  -20.4191   -9.8198 C   0  0  2  0  0  0  0  0  0  0  0  0
   26.4458  -20.8485  -11.0955 N   0  0  0  0  0  0  0  0  0  0  0  0
   26.7276  -20.7803   -8.7745 C   0  0  0  0  0  0  0  0  0  0  0  0
   27.4148  -21.8281   -8.9077 O   0  0  0  0  0  0  0  0  0  0  0  0
   23.0566  -20.9784  -11.7324 C   0  0  0  0  0  0  0  0  0  0  0  0
   22.0161  -20.4006  -12.4024 C   0  0  0  0  0  0  0  0  0  0  0  0
   30.1422  -18.6098   -4.2674 C   0  0  0  0  0  0  0  0  0  0  0  0
   29.4361  -19.8401   -4.8428 C   0  0  0  0  0  0  0  0  0  0  0  0
   28.6129  -19.3602   -5.9968 C   0  0  2  0  0  0  0  0  0  0  0  0
   27.5953  -18.3191   -5.5631 C   0  0  0  0  0  0  0  0  0  0  0  0
   27.8283  -20.5334   -6.5764 C   0  0  2  0  0  0  0  0  0  0  0  0
   26.9192  -19.9928   -7.6126 N   0  0  0  0  0  0  0  0  0  0  0  0
   26.9921  -21.1443   -5.5387 C   0  0  0  0  0  0  0  0  0  0  0  0
   27.5066  -21.9580   -4.5231 O   0  0  0  0  0  0  0  0  0  0  0  0
   25.7467  -20.9702   -5.5065 O   0  0  0  0  0  0  0  0  0  0  0  0
  2  1  1  6
  2  3  1  0
  4  8  1  0
  4  3  1  0
  5  4  2  0
  6  2  1  0
  7  6  2  0
  9 10  1  0
 10 11  2  0
 10 20  1  0
 11 12  1  0
 12 13  2  0
 13 14  1  0
 15 14  1  1
 15 16  1  0
 16  6  1  0
 17 15  1  0
 17 18  2  0
 19 13  1  0
 20 19  2  0
 21 22  1  0
 23 25  1  0
 23 22  1  0
 23 24  1  1
 25 26  1  6
 26 17  1  0
 27 25  1  0
 28 27  1  0
 29 27  2  0
M  END
$$$$
