DYI.pdb
     RDKit          3D

 29 29  0  0  1  0  0  0  0  0999 V2000
   25.5387  -20.8439  -15.2357 N   0  0  0  0  0  0  0  0  0  0  0  0
   26.5999  -20.7966  -14.2647 C   0  0  1  0  0  0  0  0  0  0  0  0
   27.8156  -20.0240  -14.7296 C   0  0  0  0  0  0  0  0  0  0  0  0
   28.4777  -20.7844  -15.8155 C   0  0  0  0  0  0  0  0  0  0  0  0
   28.0222  -21.8700  -16.2283 O   0  0  0  0  0  0  0  0  0  0  0  0
   26.0525  -20.2532  -13.0004 C   0  0  0  0  0  0  0  0  0  0  0  0
   25.7195  -19.0453  -12.9513 O   0  0  0  0  0  0  0  0  0  0  0  0
   29.6538  -20.3382  -16.4481 O   0  0  0  0  0  0  0  0  0  0  0  0
   20.1494  -19.1148  -14.2777 O   0  0  0  0  0  0  0  0  0  0  0  0
   21.0473  -19.6569  -13.3649 C   0  0  0  0  0  0  0  0  0  0  0  0
   21.3234  -19.0395  -12.1641 C   0  0  0  0  0  0  0  0  0  0  0  0
   22.2161  -19.6058  -11.2895 C   0  0  0  0  0  0  0  0  0  0  0  0
   22.8465  -20.7896  -11.5914 C   0  0  0  0  0  0  0  0  0  0  0  0
   23.8324  -21.3112  -10.6459 C   0  0  0  0  0  0  0  0  0  0  0  0
   25.1580  -20.6040  -10.6475 C   0  0  2  0  0  0  0  0  0  0  0  0
   25.9052  -21.0795  -11.8615 N   0  0  0  0  0  0  0  0  0  0  0  0
   25.9900  -21.0201   -9.5248 C   0  0  0  0  0  0  0  0  0  0  0  0
   26.3706  -22.2193   -9.4567 O   0  0  0  0  0  0  0  0  0  0  0  0
   22.5550  -21.3875  -12.7936 C   0  0  0  0  0  0  0  0  0  0  0  0
   21.6710  -20.8446  -13.6821 C   0  0  0  0  0  0  0  0  0  0  0  0
   29.6198  -19.0251   -5.0484 C   0  0  0  0  0  0  0  0  0  0  0  0
   28.7848  -20.1760   -5.6155 C   0  0  0  0  0  0  0  0  0  0  0  0
   27.9889  -19.6090   -6.7490 C   0  0  2  0  0  0  0  0  0  0  0  0
   27.0552  -18.5064   -6.2801 C   0  0  0  0  0  0  0  0  0  0  0  0
   27.1144  -20.7069   -7.3472 C   0  0  2  0  0  0  0  0  0  0  0  0
   26.3995  -20.1250   -8.5060 N   0  0  0  0  0  0  0  0  0  0  0  0
   26.1001  -21.1302   -6.3771 C   0  0  0  0  0  0  0  0  0  0  0  0
   26.3753  -21.9937   -5.3108 O   0  0  0  0  0  0  0  0  0  0  0  0
   24.9078  -20.7366   -6.4538 O   0  0  0  0  0  0  0  0  0  0  0  0
  2  1  1  6
  2  3  1  0
  4  8  1  0
  4  3  1  0
  5  4  2  0
  6  2  1  0
  7  6  2  0
  9 10  1  0
 10 11  2  0
 10 20  1  0
 11 12  1  0
 12 13  2  0
 13 14  1  0
 15 14  1  1
 15 16  1  0
 16  6  1  0
 17 15  1  0
 17 18  2  0
 19 13  1  0
 20 19  2  0
 21 22  1  0
 23 25  1  0
 23 22  1  0
 23 24  1  1
 25 26  1  6
 26 17  1  0
 27 25  1  0
 28 27  1  0
 29 27  2  0
M  END
$$$$
