DYI.pdb
     RDKit          3D

 29 29  0  0  1  0  0  0  0  0999 V2000
   42.5512  -12.2140  -10.6776 N   0  0  0  0  0  0  0  0  0  0  0  0
   43.2794  -11.0518  -10.2418 C   0  0  1  0  0  0  0  0  0  0  0  0
   44.0027  -10.3325  -11.3601 C   0  0  0  0  0  0  0  0  0  0  0  0
   45.0458  -11.2306  -11.9089 C   0  0  0  0  0  0  0  0  0  0  0  0
   45.5760  -12.1214  -11.2148 O   0  0  0  0  0  0  0  0  0  0  0  0
   42.3433  -10.1553   -9.5253 C   0  0  0  0  0  0  0  0  0  0  0  0
   41.2213   -9.9172  -10.0322 O   0  0  0  0  0  0  0  0  0  0  0  0
   45.5048  -11.1401  -13.2369 O   0  0  0  0  0  0  0  0  0  0  0  0
   36.4741  -12.0376   -8.7584 O   0  0  0  0  0  0  0  0  0  0  0  0
   37.5879  -11.4219   -8.1983 C   0  0  0  0  0  0  0  0  0  0  0  0
   37.5249  -10.1517   -7.6673 C   0  0  0  0  0  0  0  0  0  0  0  0
   38.6464   -9.5778   -7.1236 C   0  0  0  0  0  0  0  0  0  0  0  0
   39.8437  -10.2530   -7.0982 C   0  0  0  0  0  0  0  0  0  0  0  0
   41.0166   -9.5649   -6.5606 C   0  0  0  0  0  0  0  0  0  0  0  0
   41.7483   -8.6882   -7.5371 C   0  0  2  0  0  0  0  0  0  0  0  0
   42.7037   -9.5730   -8.2874 N   0  0  0  0  0  0  0  0  0  0  0  0
   42.6059   -7.7255   -6.8564 C   0  0  0  0  0  0  0  0  0  0  0  0
   43.6870   -8.1228   -6.3457 O   0  0  0  0  0  0  0  0  0  0  0  0
   39.8825  -11.5181   -7.6325 C   0  0  0  0  0  0  0  0  0  0  0  0
   38.7811  -12.1120   -8.1801 C   0  0  0  0  0  0  0  0  0  0  0  0
   43.6909   -2.9362   -8.7988 C   0  0  0  0  0  0  0  0  0  0  0  0
   43.7586   -4.3110   -8.1289 C   0  0  0  0  0  0  0  0  0  0  0  0
   43.2529   -4.1314   -6.7318 C   0  0  2  0  0  0  0  0  0  0  0  0
   44.1613   -3.2233   -5.9208 C   0  0  0  0  0  0  0  0  0  0  0  0
   43.2337   -5.4844   -6.0269 C   0  0  2  0  0  0  0  0  0  0  0  0
   42.2775   -6.3512   -6.7527 N   0  0  0  0  0  0  0  0  0  0  0  0
   42.7327   -5.3339   -4.6574 C   0  0  0  0  0  0  0  0  0  0  0  0
   43.5574   -5.4072   -3.5293 O   0  0  0  0  0  0  0  0  0  0  0  0
   41.5145   -5.1310   -4.4183 O   0  0  0  0  0  0  0  0  0  0  0  0
  2  1  1  6
  2  3  1  0
  4  8  1  0
  4  3  1  0
  5  4  2  0
  6  2  1  0
  7  6  2  0
  9 10  1  0
 10 11  2  0
 10 20  1  0
 11 12  1  0
 12 13  2  0
 13 14  1  0
 15 14  1  1
 15 16  1  0
 16  6  1  0
 17 15  1  0
 17 18  2  0
 19 13  1  0
 20 19  2  0
 21 22  1  0
 23 25  1  0
 23 22  1  0
 23 24  1  1
 25 26  1  6
 26 17  1  0
 27 25  1  0
 28 27  1  0
 29 27  2  0
M  END
$$$$
