CNM.pdb
     RDKit          3D

 23 22  0  0  1  0  0  0  0  0999 V2000
    8.3406  -14.3024   17.7262 N   0  0  0  0  0  0  0  0  0  0  0  0
    8.7739  -14.0702   19.0874 C   0  0  1  0  0  0  0  0  0  0  0  0
    8.1550  -12.7401   19.5088 C   0  0  0  0  0  0  0  0  0  0  0  0
    8.4268  -12.3993   21.2620 S   0  0  0  0  0  0  0  0  0  0  0  0
    8.2395  -15.1094   20.0193 C   0  0  0  0  0  0  0  0  0  0  0  0
    7.4368  -15.9699   19.5876 O   0  0  0  0  0  0  0  0  0  0  0  0
   11.2702  -19.1448   22.0637 N   0  0  0  0  0  0  0  0  0  0  0  0
    9.9675  -18.5536   21.9267 C   0  0  0  0  0  0  0  0  0  0  0  0
    8.9930  -19.2575   22.2668 O   0  0  0  0  0  0  0  0  0  0  0  0
    9.9166  -17.1818   21.4003 C   0  0  0  0  0  0  0  0  0  0  0  0
    8.7925  -16.4372   22.0753 C   0  0  2  0  0  0  0  0  0  0  0  0
    8.6118  -15.1621   21.4008 N   0  0  0  0  0  0  0  0  0  0  0  0
    9.1245  -16.1581   23.5083 C   0  0  0  0  0  0  0  0  0  0  0  0
    9.3629  -17.0817   24.3192 O   0  0  0  0  0  0  0  0  0  0  0  0
    6.4283  -11.2818   27.2676 C   0  0  0  0  0  0  0  0  0  0  0  0
    5.8160  -12.4019   25.9588 S   0  0  0  0  0  0  0  0  0  0  0  0
    7.0340  -13.4514   25.2866 C   0  0  0  0  0  0  0  0  0  0  0  0
    7.9766  -14.2744   26.0217 C   0  0  0  0  0  0  0  0  0  0  0  0
    9.2712  -14.6362   25.4490 C   0  0  2  0  0  0  0  0  0  0  0  0
    9.1772  -14.8390   23.9813 N   0  0  0  0  0  0  0  0  0  0  0  0
    9.5134  -16.0898   25.8394 C   0  0  0  0  0  0  0  0  0  0  0  0
    9.5663  -16.9547   24.9278 O   0  0  0  0  0  0  0  0  0  0  0  0
    9.6727  -16.5098   27.1047 O   0  0  0  0  0  0  0  0  0  0  0  0
  2  5  1  0
  2  1  1  6
  2  3  1  0
  4  3  1  0
  5  6  2  0
  7  8  1  0
  8  9  2  0
  8 10  1  0
 11 10  1  6
 11 13  1  0
 12 11  1  0
 12  5  1  0
 13 20  1  0
 13 14  2  0
 15 16  1  0
 17 16  1  0
 18 17  1  0
 19 18  1  1
 20 19  1  0
 21 19  1  0
 21 23  1  0
 22 21  2  0
M  END
$$$$
