CNM.pdb
     RDKit          3D

 23 22  0  0  1  0  0  0  0  0999 V2000
    7.7282  -15.2152   17.8901 N   0  0  0  0  0  0  0  0  0  0  0  0
    8.7208  -14.7562   18.8380 C   0  0  1  0  0  0  0  0  0  0  0  0
    8.2313  -13.4014   19.3427 C   0  0  0  0  0  0  0  0  0  0  0  0
    8.2640  -12.1490   18.0410 S   0  0  0  0  0  0  0  0  0  0  0  0
    8.8021  -15.6565   20.0282 C   0  0  0  0  0  0  0  0  0  0  0  0
    7.7667  -16.2329   20.4367 O   0  0  0  0  0  0  0  0  0  0  0  0
   10.7336  -19.7020   21.3889 N   0  0  0  0  0  0  0  0  0  0  0  0
   11.4366  -18.5012   21.0297 C   0  0  0  0  0  0  0  0  0  0  0  0
   12.0161  -18.4996   19.9230 O   0  0  0  0  0  0  0  0  0  0  0  0
   11.4010  -17.3989   22.0020 C   0  0  0  0  0  0  0  0  0  0  0  0
   10.0585  -16.7169   21.9238 C   0  0  2  0  0  0  0  0  0  0  0  0
   10.0289  -15.8896   20.7286 N   0  0  0  0  0  0  0  0  0  0  0  0
    9.8453  -15.8252   23.1074 C   0  0  0  0  0  0  0  0  0  0  0  0
   10.5989  -14.8533   23.3419 O   0  0  0  0  0  0  0  0  0  0  0  0
    6.3542  -11.2283   27.6841 C   0  0  0  0  0  0  0  0  0  0  0  0
    7.4673  -12.4301   26.8720 S   0  0  0  0  0  0  0  0  0  0  0  0
    6.6573  -13.8271   26.2169 C   0  0  0  0  0  0  0  0  0  0  0  0
    7.1394  -14.6978   25.1606 C   0  0  0  0  0  0  0  0  0  0  0  0
    8.5502  -15.0668   25.0701 C   0  0  2  0  0  0  0  0  0  0  0  0
    8.7826  -16.0605   23.9917 N   0  0  0  0  0  0  0  0  0  0  0  0
    8.8222  -15.9865   26.2552 C   0  0  0  0  0  0  0  0  0  0  0  0
    8.5445  -17.2081   26.1423 O   0  0  0  0  0  0  0  0  0  0  0  0
    9.3411  -15.5722   27.4221 O   0  0  0  0  0  0  0  0  0  0  0  0
  2  5  1  0
  2  1  1  6
  2  3  1  0
  4  3  1  0
  5  6  2  0
  7  8  1  0
  8  9  2  0
  8 10  1  0
 11 10  1  1
 11 13  1  0
 12 11  1  0
 12  5  1  0
 13 20  1  0
 13 14  2  0
 15 16  1  0
 17 16  1  0
 18 17  1  0
 19 18  1  1
 20 19  1  0
 21 19  1  0
 21 23  1  0
 22 21  2  0
M  END
$$$$
