CNM.pdb
     RDKit          3D

 23 22  0  0  1  0  0  0  0  0999 V2000
    7.8995  -14.9886   17.4634 N   0  0  0  0  0  0  0  0  0  0  0  0
    8.7450  -14.5315   18.5453 C   0  0  1  0  0  0  0  0  0  0  0  0
    8.1060  -13.2486   19.0704 C   0  0  0  0  0  0  0  0  0  0  0  0
    8.6575  -11.7976   18.1462 S   0  0  0  0  0  0  0  0  0  0  0  0
    8.7584  -15.5032   19.6808 C   0  0  0  0  0  0  0  0  0  0  0  0
    7.7660  -16.2457   19.8681 O   0  0  0  0  0  0  0  0  0  0  0  0
   10.6230  -19.5726   22.6159 N   0  0  0  0  0  0  0  0  0  0  0  0
   11.2077  -18.2695   22.7757 C   0  0  0  0  0  0  0  0  0  0  0  0
   11.7129  -18.0136   23.8893 O   0  0  0  0  0  0  0  0  0  0  0  0
   11.1506  -17.3726   21.6122 C   0  0  0  0  0  0  0  0  0  0  0  0
    9.8599  -16.5942   21.6537 C   0  0  2  0  0  0  0  0  0  0  0  0
    9.8716  -15.6213   20.5735 N   0  0  0  0  0  0  0  0  0  0  0  0
    9.7302  -15.8480   22.9452 C   0  0  0  0  0  0  0  0  0  0  0  0
   10.6014  -15.0320   23.3227 O   0  0  0  0  0  0  0  0  0  0  0  0
    6.6411  -11.5017   28.0016 C   0  0  0  0  0  0  0  0  0  0  0  0
    7.5186  -12.5113   26.7553 S   0  0  0  0  0  0  0  0  0  0  0  0
    6.6370  -13.9170   26.2228 C   0  0  0  0  0  0  0  0  0  0  0  0
    7.0381  -14.8585   25.1937 C   0  0  0  0  0  0  0  0  0  0  0  0
    8.4482  -15.1404   24.9352 C   0  0  2  0  0  0  0  0  0  0  0  0
    8.6154  -16.0479   23.7722 N   0  0  0  0  0  0  0  0  0  0  0  0
    8.8883  -16.1175   26.0196 C   0  0  0  0  0  0  0  0  0  0  0  0
    8.4202  -17.2847   26.0009 O   0  0  0  0  0  0  0  0  0  0  0  0
    9.7489  -15.8085   27.0028 O   0  0  0  0  0  0  0  0  0  0  0  0
  2  5  1  0
  2  1  1  6
  2  3  1  0
  4  3  1  0
  5  6  2  0
  7  8  1  0
  8  9  2  0
  8 10  1  0
 11 10  1  1
 11 13  1  0
 12 11  1  0
 12  5  1  0
 13 20  1  0
 13 14  2  0
 15 16  1  0
 17 16  1  0
 18 17  1  0
 19 18  1  1
 20 19  1  0
 21 19  1  0
 21 23  1  0
 22 21  2  0
M  END
$$$$
