CNM.pdb
     RDKit          3D

 23 22  0  0  1  0  0  0  0  0999 V2000
    7.4815  -13.4119   18.0252 N   0  0  0  0  0  0  0  0  0  0  0  0
    8.6318  -14.0642   18.6132 C   0  0  1  0  0  0  0  0  0  0  0  0
    9.5566  -12.9467   19.0885 C   0  0  0  0  0  0  0  0  0  0  0  0
    8.7381  -11.8583   20.2757 S   0  0  0  0  0  0  0  0  0  0  0  0
    8.2555  -14.8570   19.8231 C   0  0  0  0  0  0  0  0  0  0  0  0
    7.1613  -14.6317   20.3915 O   0  0  0  0  0  0  0  0  0  0  0  0
    7.5889  -19.2826   22.7086 N   0  0  0  0  0  0  0  0  0  0  0  0
    8.9369  -18.7905   22.6304 C   0  0  0  0  0  0  0  0  0  0  0  0
    9.6886  -19.0572   23.5919 O   0  0  0  0  0  0  0  0  0  0  0  0
    9.2915  -18.0240   21.4270 C   0  0  0  0  0  0  0  0  0  0  0  0
    8.6957  -16.6428   21.5299 C   0  0  2  0  0  0  0  0  0  0  0  0
    9.1043  -15.8748   20.3650 N   0  0  0  0  0  0  0  0  0  0  0  0
    9.2003  -15.9353   22.7490 C   0  0  0  0  0  0  0  0  0  0  0  0
   10.2909  -15.3204   22.7475 O   0  0  0  0  0  0  0  0  0  0  0  0
    5.3976  -11.8946   26.6393 C   0  0  0  0  0  0  0  0  0  0  0  0
    7.2036  -11.7258   26.8677 S   0  0  0  0  0  0  0  0  0  0  0  0
    8.1083  -13.1732   26.5164 C   0  0  0  0  0  0  0  0  0  0  0  0
    7.9177  -14.0675   25.3894 C   0  0  0  0  0  0  0  0  0  0  0  0
    8.9166  -15.0779   25.0488 C   0  0  2  0  0  0  0  0  0  0  0  0
    8.4534  -15.9447   23.9359 N   0  0  0  0  0  0  0  0  0  0  0  0
    8.8552  -16.1220   26.1580 C   0  0  0  0  0  0  0  0  0  0  0  0
    8.1087  -17.1218   25.9997 O   0  0  0  0  0  0  0  0  0  0  0  0
    9.5509  -16.0408   27.3034 O   0  0  0  0  0  0  0  0  0  0  0  0
  2  5  1  0
  2  1  1  1
  2  3  1  0
  4  3  1  0
  5  6  2  0
  7  8  1  0
  8  9  2  0
  8 10  1  0
 11 10  1  6
 11 13  1  0
 12 11  1  0
 12  5  1  0
 13 20  1  0
 13 14  2  0
 15 16  1  0
 17 16  1  0
 18 17  1  0
 19 18  1  1
 20 19  1  0
 21 19  1  0
 21 23  1  0
 22 21  2  0
M  END
$$$$
