CNM.pdb
     RDKit          3D

 23 22  0  0  1  0  0  0  0  0999 V2000
    4.9454  -19.5490   19.1240 N   0  0  0  0  0  0  0  0  0  0  0  0
    4.6125  -18.6445   20.2036 C   0  0  1  0  0  0  0  0  0  0  0  0
    4.1655  -19.5219   21.3699 C   0  0  0  0  0  0  0  0  0  0  0  0
    2.7880  -18.7830   22.2756 S   0  0  0  0  0  0  0  0  0  0  0  0
    5.8101  -17.8823   20.6712 C   0  0  0  0  0  0  0  0  0  0  0  0
    6.9525  -18.3745   20.5169 O   0  0  0  0  0  0  0  0  0  0  0  0
    8.7151  -13.3940   20.0924 N   0  0  0  0  0  0  0  0  0  0  0  0
    8.0320  -13.7383   21.3089 C   0  0  0  0  0  0  0  0  0  0  0  0
    8.5925  -13.4162   22.3780 O   0  0  0  0  0  0  0  0  0  0  0  0
    6.7444  -14.4340   21.1694 C   0  0  0  0  0  0  0  0  0  0  0  0
    6.8935  -15.8497   21.6666 C   0  0  2  0  0  0  0  0  0  0  0  0
    5.7037  -16.5981   21.2953 N   0  0  0  0  0  0  0  0  0  0  0  0
    7.0104  -15.8798   23.1589 C   0  0  0  0  0  0  0  0  0  0  0  0
    6.0016  -15.9670   23.8952 O   0  0  0  0  0  0  0  0  0  0  0  0
    9.0992  -13.6493   28.9870 C   0  0  0  0  0  0  0  0  0  0  0  0
   10.4777  -14.5363   28.1773 S   0  0  0  0  0  0  0  0  0  0  0  0
    9.9791  -15.8693   27.1716 C   0  0  0  0  0  0  0  0  0  0  0  0
    9.6896  -15.8273   25.7501 C   0  0  0  0  0  0  0  0  0  0  0  0
    8.3150  -15.8717   25.2570 C   0  0  2  0  0  0  0  0  0  0  0  0
    8.2686  -15.8105   23.7744 N   0  0  0  0  0  0  0  0  0  0  0  0
    7.7227  -14.4947   25.5353 C   0  0  0  0  0  0  0  0  0  0  0  0
    8.0231  -13.5461   24.7660 O   0  0  0  0  0  0  0  0  0  0  0  0
    6.8961  -14.2271   26.5589 O   0  0  0  0  0  0  0  0  0  0  0  0
  2  5  1  0
  2  1  1  6
  2  3  1  0
  4  3  1  0
  5  6  2  0
  7  8  1  0
  8  9  2  0
  8 10  1  0
 11 10  1  1
 11 13  1  0
 12 11  1  0
 12  5  1  0
 13 20  1  0
 13 14  2  0
 15 16  1  0
 17 16  1  0
 18 17  1  0
 19 18  1  6
 20 19  1  0
 21 19  1  0
 21 23  1  0
 22 21  2  0
M  END
$$$$
