CNM.pdb
     RDKit          3D

 23 22  0  0  1  0  0  0  0  0999 V2000
    7.5631  -15.1239   17.6134 N   0  0  0  0  0  0  0  0  0  0  0  0
    8.3842  -14.5614   18.6641 C   0  0  1  0  0  0  0  0  0  0  0  0
    7.6597  -13.3062   19.1430 C   0  0  0  0  0  0  0  0  0  0  0  0
    8.4600  -12.5813   20.5914 S   0  0  0  0  0  0  0  0  0  0  0  0
    8.4789  -15.4801   19.8392 C   0  0  0  0  0  0  0  0  0  0  0  0
    7.4305  -15.9535   20.3372 O   0  0  0  0  0  0  0  0  0  0  0  0
   10.3418  -19.5234   20.7736 N   0  0  0  0  0  0  0  0  0  0  0  0
   11.1302  -18.3333   20.6087 C   0  0  0  0  0  0  0  0  0  0  0  0
   11.7784  -18.2321   19.5455 O   0  0  0  0  0  0  0  0  0  0  0  0
   11.0923  -17.3581   21.7083 C   0  0  0  0  0  0  0  0  0  0  0  0
    9.7828  -16.6122   21.6596 C   0  0  2  0  0  0  0  0  0  0  0  0
    9.7330  -15.8451   20.4257 N   0  0  0  0  0  0  0  0  0  0  0  0
    9.6744  -15.6529   22.8039 C   0  0  0  0  0  0  0  0  0  0  0  0
   10.4551  -14.6814   22.9229 O   0  0  0  0  0  0  0  0  0  0  0  0
    6.6811  -10.8955   27.6549 C   0  0  0  0  0  0  0  0  0  0  0  0
    6.6249  -11.7644   26.0473 S   0  0  0  0  0  0  0  0  0  0  0  0
    6.8480  -13.4893   26.1573 C   0  0  0  0  0  0  0  0  0  0  0  0
    7.1995  -14.3927   25.0772 C   0  0  0  0  0  0  0  0  0  0  0  0
    8.5853  -14.7953   24.8492 C   0  0  2  0  0  0  0  0  0  0  0  0
    8.6829  -15.8221   23.7812 N   0  0  0  0  0  0  0  0  0  0  0  0
    8.9634  -15.6892   26.0249 C   0  0  0  0  0  0  0  0  0  0  0  0
    8.8938  -15.2130   27.1869 O   0  0  0  0  0  0  0  0  0  0  0  0
    9.3715  -16.9620   25.8981 O   0  0  0  0  0  0  0  0  0  0  0  0
  2  5  1  0
  2  1  1  6
  2  3  1  0
  4  3  1  0
  5  6  2  0
  7  8  1  0
  8  9  2  0
  8 10  1  0
 11 10  1  1
 11 13  1  0
 12 11  1  0
 12  5  1  0
 13 20  1  0
 13 14  2  0
 15 16  1  0
 17 16  1  0
 18 17  1  0
 19 18  1  1
 20 19  1  0
 21 19  1  0
 21 23  1  0
 22 21  2  0
M  END
$$$$
