CNM.pdb
     RDKit          3D

 23 22  0  0  1  0  0  0  0  0999 V2000
    8.0237  -14.6275   18.1084 N   0  0  0  0  0  0  0  0  0  0  0  0
    8.5938  -14.3939   19.4179 C   0  0  1  0  0  0  0  0  0  0  0  0
    7.9350  -13.1229   19.9471 C   0  0  0  0  0  0  0  0  0  0  0  0
    8.3881  -11.6745   18.9670 S   0  0  0  0  0  0  0  0  0  0  0  0
    8.2460  -15.4901   20.3725 C   0  0  0  0  0  0  0  0  0  0  0  0
    7.5461  -16.4521   19.9775 O   0  0  0  0  0  0  0  0  0  0  0  0
   10.6278  -19.0723   22.5021 N   0  0  0  0  0  0  0  0  0  0  0  0
   11.3976  -17.9864   21.9602 C   0  0  0  0  0  0  0  0  0  0  0  0
   12.6406  -18.1074   21.9946 O   0  0  0  0  0  0  0  0  0  0  0  0
   10.6427  -16.8457   21.4215 C   0  0  0  0  0  0  0  0  0  0  0  0
    9.4275  -16.6091   22.2824 C   0  0  2  0  0  0  0  0  0  0  0  0
    8.6848  -15.4855   21.7354 N   0  0  0  0  0  0  0  0  0  0  0  0
    9.8273  -16.2602   23.6823 C   0  0  0  0  0  0  0  0  0  0  0  0
   10.4802  -17.0547   24.3965 O   0  0  0  0  0  0  0  0  0  0  0  0
    6.0676  -11.1119   27.0030 C   0  0  0  0  0  0  0  0  0  0  0  0
    7.2240  -12.2296   26.1334 S   0  0  0  0  0  0  0  0  0  0  0  0
    6.6692  -13.8768   26.0071 C   0  0  0  0  0  0  0  0  0  0  0  0
    7.4416  -15.0249   25.5693 C   0  0  0  0  0  0  0  0  0  0  0  0
    8.9022  -15.0104   25.6025 C   0  0  2  0  0  0  0  0  0  0  0  0
    9.4758  -15.0193   24.2331 N   0  0  0  0  0  0  0  0  0  0  0  0
    9.3285  -16.4163   26.0099 C   0  0  0  0  0  0  0  0  0  0  0  0
    9.4497  -17.2897   25.1129 O   0  0  0  0  0  0  0  0  0  0  0  0
    9.5826  -16.7856   27.2754 O   0  0  0  0  0  0  0  0  0  0  0  0
  2  5  1  0
  2  1  1  6
  2  3  1  0
  4  3  1  0
  5  6  2  0
  7  8  1  0
  8  9  2  0
  8 10  1  0
 11 10  1  6
 11 13  1  0
 12 11  1  0
 12  5  1  0
 13 20  1  0
 13 14  2  0
 15 16  1  0
 17 16  1  0
 18 17  1  0
 19 18  1  6
 20 19  1  0
 21 19  1  0
 21 23  1  0
 22 21  2  0
M  END
$$$$
