CNM.pdb
     RDKit          3D

 23 22  0  0  1  0  0  0  0  0999 V2000
    7.9575  -14.6867   17.1342 N   0  0  0  0  0  0  0  0  0  0  0  0
    9.0889  -14.6618   18.0364 C   0  0  1  0  0  0  0  0  0  0  0  0
    9.2498  -13.2089   18.4755 C   0  0  0  0  0  0  0  0  0  0  0  0
    7.8686  -12.6621   19.5037 S   0  0  0  0  0  0  0  0  0  0  0  0
    8.8243  -15.4596   19.2722 C   0  0  0  0  0  0  0  0  0  0  0  0
    7.6454  -15.7687   19.5653 O   0  0  0  0  0  0  0  0  0  0  0  0
    9.6212  -19.9258   21.2018 N   0  0  0  0  0  0  0  0  0  0  0  0
   10.4063  -18.8674   20.6286 C   0  0  0  0  0  0  0  0  0  0  0  0
   10.7833  -19.0242   19.4479 O   0  0  0  0  0  0  0  0  0  0  0  0
   10.6847  -17.7098   21.4911 C   0  0  0  0  0  0  0  0  0  0  0  0
    9.5842  -16.6933   21.3208 C   0  0  2  0  0  0  0  0  0  0  0  0
    9.8749  -15.8895   20.1448 N   0  0  0  0  0  0  0  0  0  0  0  0
    9.5200  -15.7759   22.5022 C   0  0  0  0  0  0  0  0  0  0  0  0
   10.3487  -14.8509   22.6614 O   0  0  0  0  0  0  0  0  0  0  0  0
    6.3170  -11.2709   27.5386 C   0  0  0  0  0  0  0  0  0  0  0  0
    6.9896  -12.0984   26.0536 S   0  0  0  0  0  0  0  0  0  0  0  0
    6.5533  -13.7795   25.9109 C   0  0  0  0  0  0  0  0  0  0  0  0
    6.9450  -14.6944   24.8547 C   0  0  0  0  0  0  0  0  0  0  0  0
    8.3455  -14.8467   24.4674 C   0  0  2  0  0  0  0  0  0  0  0  0
    8.5173  -15.9330   23.4699 N   0  0  0  0  0  0  0  0  0  0  0  0
    9.0343  -15.5370   25.6393 C   0  0  0  0  0  0  0  0  0  0  0  0
    9.7721  -14.8492   26.3908 O   0  0  0  0  0  0  0  0  0  0  0  0
    8.9047  -16.8432   25.9215 O   0  0  0  0  0  0  0  0  0  0  0  0
  2  5  1  0
  2  1  1  6
  2  3  1  0
  4  3  1  0
  5  6  2  0
  7  8  1  0
  8  9  2  0
  8 10  1  0
 11 10  1  1
 11 13  1  0
 12 11  1  0
 12  5  1  0
 13 20  1  0
 13 14  2  0
 15 16  1  0
 17 16  1  0
 18 17  1  0
 19 18  1  1
 20 19  1  0
 21 19  1  0
 21 23  1  0
 22 21  2  0
M  END
$$$$
