CNM.pdb
     RDKit          3D

 23 22  0  0  1  0  0  0  0  0999 V2000
    6.9963  -14.8749   18.0456 N   0  0  0  0  0  0  0  0  0  0  0  0
    8.0995  -14.4131   18.8606 C   0  0  1  0  0  0  0  0  0  0  0  0
    7.7679  -12.9745   19.2481 C   0  0  0  0  0  0  0  0  0  0  0  0
    8.9678  -12.3017   20.4192 S   0  0  0  0  0  0  0  0  0  0  0  0
    8.2054  -15.1895   20.1334 C   0  0  0  0  0  0  0  0  0  0  0  0
    7.1784  -15.3792   20.8266 O   0  0  0  0  0  0  0  0  0  0  0  0
    8.9482  -18.9580   20.8314 N   0  0  0  0  0  0  0  0  0  0  0  0
   10.3492  -18.7286   21.0545 C   0  0  0  0  0  0  0  0  0  0  0  0
   11.1313  -19.6313   20.6880 O   0  0  0  0  0  0  0  0  0  0  0  0
   10.7170  -17.4555   21.6911 C   0  0  0  0  0  0  0  0  0  0  0  0
    9.4941  -16.5778   21.7788 C   0  0  2  0  0  0  0  0  0  0  0  0
    9.4466  -15.7313   20.5978 N   0  0  0  0  0  0  0  0  0  0  0  0
    9.5629  -15.6885   22.9813 C   0  0  0  0  0  0  0  0  0  0  0  0
   10.4465  -14.8092   23.0983 O   0  0  0  0  0  0  0  0  0  0  0  0
    6.3554  -10.6031   25.9632 C   0  0  0  0  0  0  0  0  0  0  0  0
    6.0614  -12.1722   26.8543 S   0  0  0  0  0  0  0  0  0  0  0  0
    7.2943  -13.3785   26.6063 C   0  0  0  0  0  0  0  0  0  0  0  0
    7.4679  -14.2187   25.4357 C   0  0  0  0  0  0  0  0  0  0  0  0
    8.7374  -14.8909   25.1692 C   0  0  2  0  0  0  0  0  0  0  0  0
    8.6272  -15.8212   24.0174 N   0  0  0  0  0  0  0  0  0  0  0  0
    8.8962  -15.9408   26.2632 C   0  0  0  0  0  0  0  0  0  0  0  0
    8.6208  -17.1374   25.9904 O   0  0  0  0  0  0  0  0  0  0  0  0
    9.3123  -15.6674   27.5100 O   0  0  0  0  0  0  0  0  0  0  0  0
  2  5  1  0
  2  1  1  6
  2  3  1  0
  4  3  1  0
  5  6  2  0
  7  8  1  0
  8  9  2  0
  8 10  1  0
 11 10  1  6
 11 13  1  0
 12 11  1  0
 12  5  1  0
 13 20  1  0
 13 14  2  0
 15 16  1  0
 17 16  1  0
 18 17  1  0
 19 18  1  1
 20 19  1  0
 21 19  1  0
 21 23  1  0
 22 21  2  0
M  END
$$$$
