CNM.pdb
     RDKit          3D

 23 22  0  0  1  0  0  0  0  0999 V2000
    6.9114  -20.2822   21.5592 N   0  0  0  0  0  0  0  0  0  0  0  0
    6.7743  -19.0138   22.2423 C   0  0  1  0  0  0  0  0  0  0  0  0
    6.7200  -19.3381   23.7329 C   0  0  0  0  0  0  0  0  0  0  0  0
    5.1399  -20.0783   24.2012 S   0  0  0  0  0  0  0  0  0  0  0  0
    7.9719  -18.1444   22.0330 C   0  0  0  0  0  0  0  0  0  0  0  0
    9.1066  -18.6695   21.9447 O   0  0  0  0  0  0  0  0  0  0  0  0
    6.2190  -14.2099   20.7595 N   0  0  0  0  0  0  0  0  0  0  0  0
    7.3935  -14.8798   20.2727 C   0  0  0  0  0  0  0  0  0  0  0  0
    7.2483  -15.6096   19.2692 O   0  0  0  0  0  0  0  0  0  0  0  0
    8.6443  -14.6370   21.0062 C   0  0  0  0  0  0  0  0  0  0  0  0
    9.0584  -15.9063   21.7068 C   0  0  2  0  0  0  0  0  0  0  0  0
    7.8740  -16.7198   21.9284 N   0  0  0  0  0  0  0  0  0  0  0  0
    9.6662  -15.6034   23.0410 C   0  0  0  0  0  0  0  0  0  0  0  0
   10.6432  -14.8292   23.1573 O   0  0  0  0  0  0  0  0  0  0  0  0
   10.5669  -13.8243   30.2772 C   0  0  0  0  0  0  0  0  0  0  0  0
   10.2669  -13.7343   28.4760 S   0  0  0  0  0  0  0  0  0  0  0  0
    9.3593  -15.0759   27.8331 C   0  0  0  0  0  0  0  0  0  0  0  0
    8.9541  -15.2721   26.4534 C   0  0  0  0  0  0  0  0  0  0  0  0
    9.8466  -15.9069   25.4864 C   0  0  2  0  0  0  0  0  0  0  0  0
    9.1483  -16.1868   24.2064 N   0  0  0  0  0  0  0  0  0  0  0  0
   10.0100  -17.3506   25.9481 C   0  0  0  0  0  0  0  0  0  0  0  0
   10.6443  -17.5720   27.0114 O   0  0  0  0  0  0  0  0  0  0  0  0
    9.5183  -18.4098   25.2856 O   0  0  0  0  0  0  0  0  0  0  0  0
  2  5  1  0
  2  1  1  6
  2  3  1  0
  4  3  1  0
  5  6  2  0
  7  8  1  0
  8  9  2  0
  8 10  1  0
 11 10  1  1
 11 13  1  0
 12 11  1  0
 12  5  1  0
 13 20  1  0
 13 14  2  0
 15 16  1  0
 17 16  1  0
 18 17  1  0
 19 18  1  1
 20 19  1  0
 21 19  1  0
 21 23  1  0
 22 21  2  0
M  END
$$$$
