CNQ.pdb
     RDKit          3D

 24 23  0  0  1  0  0  0  0  0999 V2000
    7.7483  -14.4490   17.6033 N   0  0  0  0  0  0  0  0  0  0  0  0
    8.7625  -13.7791   18.3723 C   0  0  1  0  0  0  0  0  0  0  0  0
    8.1529  -13.4904   19.7486 C   0  0  0  0  0  0  0  0  0  0  0  0
    7.2972  -11.9086   19.6647 S   0  0  0  0  0  0  0  0  0  0  0  0
    9.9453  -14.6616   18.5953 C   0  0  0  0  0  0  0  0  0  0  0  0
    9.7875  -15.9056   18.5503 O   0  0  0  0  0  0  0  0  0  0  0  0
   15.9977  -14.4495   18.1948 N   0  0  0  0  0  0  0  0  0  0  0  0
   14.7504  -15.1519   18.3376 C   0  0  0  0  0  0  0  0  0  0  0  0
   14.7841  -16.3681   18.6197 O   0  0  0  0  0  0  0  0  0  0  0  0
   13.4900  -14.4172   18.1476 C   0  0  0  0  0  0  0  0  0  0  0  0
   12.4102  -14.9211   19.0491 C   0  0  2  0  0  0  0  0  0  0  0  0
   11.2257  -14.1012   18.8536 N   0  0  0  0  0  0  0  0  0  0  0  0
   12.8624  -14.8324   20.4763 C   0  0  0  0  0  0  0  0  0  0  0  0
   13.4127  -13.7435   20.8096 O   0  0  0  0  0  0  0  0  0  0  0  0
   13.8968  -19.0879   25.1423 N   0  0  0  0  0  0  0  0  0  0  0  0
   12.6957  -18.3337   25.0542 C   0  0  0  0  0  0  0  0  0  0  0  0
   12.1072  -18.0657   26.1472 O   0  0  0  0  0  0  0  0  0  0  0  0
   12.1196  -17.8540   23.7841 C   0  0  0  0  0  0  0  0  0  0  0  0
   12.0414  -16.3962   23.6047 C   0  0  0  0  0  0  0  0  0  0  0  0
   13.1073  -15.7531   22.7899 C   0  0  2  0  0  0  0  0  0  0  0  0
   12.6900  -15.8813   21.3845 N   0  0  0  0  0  0  0  0  0  0  0  0
   14.4474  -16.2732   22.9566 C   0  0  0  0  0  0  0  0  0  0  0  0
   15.2438  -15.8312   24.0176 O   0  0  0  0  0  0  0  0  0  0  0  0
   14.9339  -17.1165   22.1789 O   0  0  0  0  0  0  0  0  0  0  0  0
  2  3  1  0
  2  1  1  6
  4  3  1  0
  5  6  2  0
  5  2  1  0
  8  7  1  0
  8 10  1  0
  9  8  2  0
 11 10  1  6
 11 12  1  0
 12  5  1  0
 13 11  1  0
 13 21  1  0
 14 13  2  0
 16 15  1  0
 16 17  2  0
 18 16  1  0
 20 19  1  1
 19 18  1  0
 20 21  1  0
 20 22  1  0
 22 24  2  0
 22 23  1  0
M  END
$$$$
