CNQ.pdb
     RDKit          3D

 24 23  0  0  1  0  0  0  0  0999 V2000
    5.3280  -18.3995   21.2061 N   0  0  0  0  0  0  0  0  0  0  0  0
    5.9304  -19.5637   20.6141 C   0  0  1  0  0  0  0  0  0  0  0  0
    5.1449  -19.8627   19.3324 C   0  0  0  0  0  0  0  0  0  0  0  0
    3.4104  -19.4864   19.6346 S   0  0  0  0  0  0  0  0  0  0  0  0
    7.3419  -19.2971   20.2087 C   0  0  0  0  0  0  0  0  0  0  0  0
    8.0264  -20.2421   19.7475 O   0  0  0  0  0  0  0  0  0  0  0  0
    8.1918  -17.3001   16.4801 N   0  0  0  0  0  0  0  0  0  0  0  0
    9.0734  -17.7435   17.5267 C   0  0  0  0  0  0  0  0  0  0  0  0
    9.6526  -18.8414   17.3883 O   0  0  0  0  0  0  0  0  0  0  0  0
    9.2592  -16.8937   18.7133 C   0  0  0  0  0  0  0  0  0  0  0  0
    9.2716  -17.6939   19.9751 C   0  0  2  0  0  0  0  0  0  0  0  0
    7.8981  -17.9961   20.3435 N   0  0  0  0  0  0  0  0  0  0  0  0
    9.9309  -16.9043   21.0666 C   0  0  0  0  0  0  0  0  0  0  0  0
    9.3706  -15.8107   21.3662 O   0  0  0  0  0  0  0  0  0  0  0  0
   11.3150  -17.9580   27.0262 N   0  0  0  0  0  0  0  0  0  0  0  0
   11.4604  -18.7968   25.8884 C   0  0  0  0  0  0  0  0  0  0  0  0
   11.1948  -20.0284   26.0482 O   0  0  0  0  0  0  0  0  0  0  0  0
   11.8876  -18.3136   24.5621 C   0  0  0  0  0  0  0  0  0  0  0  0
   11.2399  -17.0897   24.0663 C   0  0  0  0  0  0  0  0  0  0  0  0
   11.7254  -16.5400   22.7717 C   0  0  2  0  0  0  0  0  0  0  0  0
   11.0894  -17.3428   21.7149 N   0  0  0  0  0  0  0  0  0  0  0  0
   13.1594  -16.5171   22.5791 C   0  0  0  0  0  0  0  0  0  0  0  0
   13.9395  -15.5594   23.2345 O   0  0  0  0  0  0  0  0  0  0  0  0
   13.7429  -17.3316   21.8383 O   0  0  0  0  0  0  0  0  0  0  0  0
  2  3  1  0
  2  1  1  6
  4  3  1  0
  5  6  2  0
  5  2  1  0
  8  7  1  0
  8 10  1  0
  9  8  2  0
 11 10  1  6
 11 12  1  0
 12  5  1  0
 13 11  1  0
 13 21  1  0
 14 13  2  0
 16 15  1  0
 16 17  2  0
 18 16  1  0
 20 19  1  1
 19 18  1  0
 20 21  1  0
 20 22  1  0
 22 24  2  0
 22 23  1  0
M  END
$$$$
