CNQ.pdb
     RDKit          3D

 24 23  0  0  1  0  0  0  0  0999 V2000
    7.1946  -15.9860   19.5737 N   0  0  0  0  0  0  0  0  0  0  0  0
    7.5478  -15.2099   20.7322 C   0  0  1  0  0  0  0  0  0  0  0  0
    6.2368  -14.8637   21.4467 C   0  0  0  0  0  0  0  0  0  0  0  0
    6.6387  -13.9840   22.9653 S   0  0  0  0  0  0  0  0  0  0  0  0
    8.3692  -16.0076   21.6895 C   0  0  0  0  0  0  0  0  0  0  0  0
    8.0238  -17.1866   21.9446 O   0  0  0  0  0  0  0  0  0  0  0  0
   14.1179  -16.2873   23.4994 N   0  0  0  0  0  0  0  0  0  0  0  0
   12.7353  -16.3929   23.8820 C   0  0  0  0  0  0  0  0  0  0  0  0
   12.4315  -17.1939   24.7909 O   0  0  0  0  0  0  0  0  0  0  0  0
   11.7370  -15.5598   23.1938 C   0  0  0  0  0  0  0  0  0  0  0  0
   10.3869  -16.2000   23.1863 C   0  0  2  0  0  0  0  0  0  0  0  0
    9.5208  -15.4404   22.2995 N   0  0  0  0  0  0  0  0  0  0  0  0
    9.8211  -16.2004   24.5753 C   0  0  0  0  0  0  0  0  0  0  0  0
    9.8917  -15.1004   25.1955 O   0  0  0  0  0  0  0  0  0  0  0  0
    7.0560  -20.1941   28.2231 N   0  0  0  0  0  0  0  0  0  0  0  0
    7.0256  -20.3330   26.8093 C   0  0  0  0  0  0  0  0  0  0  0  0
    6.8400  -21.5038   26.3535 O   0  0  0  0  0  0  0  0  0  0  0  0
    7.1883  -19.2071   25.8706 C   0  0  0  0  0  0  0  0  0  0  0  0
    7.3513  -17.8717   26.4649 C   0  0  0  0  0  0  0  0  0  0  0  0
    8.7316  -17.3200   26.5296 C   0  0  2  0  0  0  0  0  0  0  0  0
    9.2514  -17.3389   25.1530 N   0  0  0  0  0  0  0  0  0  0  0  0
    9.6545  -17.9965   27.4155 C   0  0  0  0  0  0  0  0  0  0  0  0
   10.7234  -18.7279   26.8884 O   0  0  0  0  0  0  0  0  0  0  0  0
    9.5361  -17.9550   28.6552 O   0  0  0  0  0  0  0  0  0  0  0  0
  2  3  1  0
  2  1  1  6
  4  3  1  0
  5  6  2  0
  5  2  1  0
  8  7  1  0
  8 10  1  0
  9  8  2  0
 11 10  1  1
 11 12  1  0
 12  5  1  0
 13 11  1  0
 13 21  1  0
 14 13  2  0
 16 15  1  0
 16 17  2  0
 18 16  1  0
 20 19  1  6
 19 18  1  0
 20 21  1  0
 20 22  1  0
 22 24  2  0
 22 23  1  0
M  END
$$$$
