CNQ.pdb
     RDKit          3D

 24 23  0  0  1  0  0  0  0  0999 V2000
    7.7928  -14.3875   17.8859 N   0  0  0  0  0  0  0  0  0  0  0  0
    8.5026  -14.0412   19.0881 C   0  0  1  0  0  0  0  0  0  0  0  0
    7.8818  -12.7393   19.6066 C   0  0  0  0  0  0  0  0  0  0  0  0
    8.6757  -12.3194   21.1670 S   0  0  0  0  0  0  0  0  0  0  0  0
    8.3060  -15.0716   20.1497 C   0  0  0  0  0  0  0  0  0  0  0  0
    7.3522  -15.8794   20.0379 O   0  0  0  0  0  0  0  0  0  0  0  0
   11.2759  -19.4738   21.4478 N   0  0  0  0  0  0  0  0  0  0  0  0
   10.0844  -18.7105   21.7064 C   0  0  0  0  0  0  0  0  0  0  0  0
    9.2301  -19.1897   22.4814 O   0  0  0  0  0  0  0  0  0  0  0  0
    9.9168  -17.4029   21.0534 C   0  0  0  0  0  0  0  0  0  0  0  0
    9.4169  -16.3650   22.0050 C   0  0  2  0  0  0  0  0  0  0  0  0
    9.1838  -15.1350   21.2657 N   0  0  0  0  0  0  0  0  0  0  0  0
   10.4387  -16.1300   23.0775 C   0  0  0  0  0  0  0  0  0  0  0  0
   11.5823  -15.7703   22.6747 O   0  0  0  0  0  0  0  0  0  0  0  0
    7.8983  -12.7745   27.6141 N   0  0  0  0  0  0  0  0  0  0  0  0
    8.8120  -13.8625   27.6422 C   0  0  0  0  0  0  0  0  0  0  0  0
    8.9781  -14.4409   28.7606 O   0  0  0  0  0  0  0  0  0  0  0  0
    9.5518  -14.3432   26.4605 C   0  0  0  0  0  0  0  0  0  0  0  0
   10.4188  -15.5149   26.6572 C   0  0  0  0  0  0  0  0  0  0  0  0
   11.1615  -16.0183   25.4702 C   0  0  2  0  0  0  0  0  0  0  0  0
   10.1522  -16.2959   24.4358 N   0  0  0  0  0  0  0  0  0  0  0  0
   11.9908  -17.1860   25.6771 C   0  0  0  0  0  0  0  0  0  0  0  0
   13.2824  -17.0458   26.1942 O   0  0  0  0  0  0  0  0  0  0  0  0
   11.5958  -18.3369   25.4087 O   0  0  0  0  0  0  0  0  0  0  0  0
  2  3  1  0
  2  1  1  6
  4  3  1  0
  5  6  2  0
  5  2  1  0
  8  7  1  0
  8 10  1  0
  9  8  2  0
 11 10  1  6
 11 12  1  0
 12  5  1  0
 13 11  1  0
 13 21  1  0
 14 13  2  0
 16 15  1  0
 16 17  2  0
 18 16  1  0
 20 19  1  1
 19 18  1  0
 20 21  1  0
 20 22  1  0
 22 24  2  0
 22 23  1  0
M  END
$$$$
