CNQ.pdb
     RDKit          3D

 24 23  0  0  1  0  0  0  0  0999 V2000
    7.8379  -14.5923   18.9875 N   0  0  0  0  0  0  0  0  0  0  0  0
    8.6621  -14.4361   20.1559 C   0  0  1  0  0  0  0  0  0  0  0  0
    8.0041  -13.3526   21.0174 C   0  0  0  0  0  0  0  0  0  0  0  0
    8.1149  -11.7872   20.1349 S   0  0  0  0  0  0  0  0  0  0  0  0
    8.6890  -15.6857   20.9715 C   0  0  0  0  0  0  0  0  0  0  0  0
    8.0036  -16.6671   20.5952 O   0  0  0  0  0  0  0  0  0  0  0  0
   13.0409  -18.9927   21.3759 N   0  0  0  0  0  0  0  0  0  0  0  0
   11.6739  -18.7121   21.7250 C   0  0  0  0  0  0  0  0  0  0  0  0
   10.9783  -19.6398   22.1891 O   0  0  0  0  0  0  0  0  0  0  0  0
   11.1490  -17.3524   21.5240 C   0  0  0  0  0  0  0  0  0  0  0  0
   10.1449  -16.9831   22.5671 C   0  0  2  0  0  0  0  0  0  0  0  0
    9.4768  -15.7604   22.1521 N   0  0  0  0  0  0  0  0  0  0  0  0
   10.8375  -16.7661   23.8796 C   0  0  0  0  0  0  0  0  0  0  0  0
   11.6522  -15.7994   23.9154 O   0  0  0  0  0  0  0  0  0  0  0  0
   10.0538  -13.4264   27.1290 N   0  0  0  0  0  0  0  0  0  0  0  0
    9.8591  -14.3125   28.2227 C   0  0  0  0  0  0  0  0  0  0  0  0
    9.9880  -13.8212   29.3867 O   0  0  0  0  0  0  0  0  0  0  0  0
    9.5157  -15.7388   28.0719 C   0  0  0  0  0  0  0  0  0  0  0  0
    9.5907  -16.2948   26.7124 C   0  0  0  0  0  0  0  0  0  0  0  0
   10.8092  -17.0737   26.3624 C   0  0  2  0  0  0  0  0  0  0  0  0
   10.6025  -17.5760   24.9947 N   0  0  0  0  0  0  0  0  0  0  0  0
   11.1487  -18.1692   27.2449 C   0  0  0  0  0  0  0  0  0  0  0  0
   12.0911  -17.9844   28.2612 O   0  0  0  0  0  0  0  0  0  0  0  0
   10.6265  -19.2954   27.1366 O   0  0  0  0  0  0  0  0  0  0  0  0
  2  3  1  0
  2  1  1  6
  4  3  1  0
  5  6  2  0
  5  2  1  0
  8  7  1  0
  8 10  1  0
  9  8  2  0
 11 10  1  6
 11 12  1  0
 12  5  1  0
 13 11  1  0
 13 21  1  0
 14 13  2  0
 16 15  1  0
 16 17  2  0
 18 16  1  0
 20 19  1  1
 19 18  1  0
 20 21  1  0
 20 22  1  0
 22 24  2  0
 22 23  1  0
M  END
$$$$
