CNQ.pdb
     RDKit          3D

 24 23  0  0  1  0  0  0  0  0999 V2000
    9.4194  -18.8901   15.9617 N   0  0  0  0  0  0  0  0  0  0  0  0
    8.6574  -18.8390   17.1806 C   0  0  1  0  0  0  0  0  0  0  0  0
    9.0491  -20.0756   17.9971 C   0  0  0  0  0  0  0  0  0  0  0  0
    7.8108  -21.3518   17.7152 S   0  0  0  0  0  0  0  0  0  0  0  0
    9.0206  -17.6438   17.9973 C   0  0  0  0  0  0  0  0  0  0  0  0
   10.2043  -17.2287   17.9667 O   0  0  0  0  0  0  0  0  0  0  0  0
    8.5913  -13.3893   20.8459 N   0  0  0  0  0  0  0  0  0  0  0  0
    7.2969  -13.6696   20.2844 C   0  0  0  0  0  0  0  0  0  0  0  0
    6.3821  -12.8375   20.4595 O   0  0  0  0  0  0  0  0  0  0  0  0
    7.0994  -14.9171   19.5299 C   0  0  0  0  0  0  0  0  0  0  0  0
    8.3267  -15.7693   19.5315 C   0  0  2  0  0  0  0  0  0  0  0  0
    8.0423  -16.9896   18.7942 N   0  0  0  0  0  0  0  0  0  0  0  0
    8.7072  -16.1031   20.9434 C   0  0  0  0  0  0  0  0  0  0  0  0
    8.0401  -17.0309   21.4854 O   0  0  0  0  0  0  0  0  0  0  0  0
   14.0349  -17.4952   22.2463 N   0  0  0  0  0  0  0  0  0  0  0  0
   13.7307  -17.0624   23.5651 C   0  0  0  0  0  0  0  0  0  0  0  0
   14.4713  -17.5045   24.4973 O   0  0  0  0  0  0  0  0  0  0  0  0
   12.6266  -16.1409   23.8919 C   0  0  0  0  0  0  0  0  0  0  0  0
   11.7889  -15.6914   22.7696 C   0  0  0  0  0  0  0  0  0  0  0  0
   10.3348  -15.9984   22.8407 C   0  0  2  0  0  0  0  0  0  0  0  0
    9.7314  -15.4360   21.6220 N   0  0  0  0  0  0  0  0  0  0  0  0
    9.6309  -15.5146   24.0089 C   0  0  0  0  0  0  0  0  0  0  0  0
    9.7671  -16.1760   25.2333 O   0  0  0  0  0  0  0  0  0  0  0  0
    8.8921  -14.5119   23.9709 O   0  0  0  0  0  0  0  0  0  0  0  0
  2  3  1  0
  2  1  1  6
  4  3  1  0
  5  6  2  0
  5  2  1  0
  8  7  1  0
  8 10  1  0
  9  8  2  0
 11 10  1  1
 11 12  1  0
 12  5  1  0
 13 11  1  0
 13 21  1  0
 14 13  2  0
 16 15  1  0
 16 17  2  0
 18 16  1  0
 20 19  1  1
 19 18  1  0
 20 21  1  0
 20 22  1  0
 22 24  2  0
 22 23  1  0
M  END
$$$$
