PWD.pdb
     RDKit          3D

 30 32  0  0  1  0  0  0  0  0999 V2000
    7.6524  -15.0314   18.2419 N   0  0  0  0  0  0  0  0  0  0  0  0
    7.1245  -14.5205   17.0128 C   0  0  0  0  0  0  0  0  0  0  0  0
    7.5141  -13.0775   16.8971 C   0  0  0  0  0  0  0  0  0  0  0  0
    8.0102  -12.7699   18.3121 C   0  0  0  0  0  0  0  0  0  0  0  0
    8.6738  -14.1107   18.6477 C   0  0  1  0  0  0  0  0  0  0  0  0
    8.9791  -14.1972   20.0976 C   0  0  0  0  0  0  0  0  0  0  0  0
   10.0038  -13.6491   20.5739 O   0  0  0  0  0  0  0  0  0  0  0  0
    8.1280  -14.8955   20.9745 N   0  0  0  0  0  0  0  0  0  0  0  0
    8.2460  -14.9424   22.3913 C   0  0  1  0  0  0  0  0  0  0  0  0
    6.9039  -14.9951   23.0431 C   0  0  0  0  0  0  0  0  0  0  0  0
    6.9039  -14.8008   24.5002 C   0  0  0  0  0  0  0  0  0  0  0  0
    6.8595  -15.7902   25.4681 C   0  0  0  0  0  0  0  0  0  0  0  0
    6.9074  -15.2341   26.6772 N   0  0  0  0  0  0  0  0  0  0  0  0
    6.9815  -13.8998   26.5162 C   0  0  0  0  0  0  0  0  0  0  0  0
    7.0461  -12.8633   27.4059 C   0  0  0  0  0  0  0  0  0  0  0  0
    7.1093  -11.5371   27.0480 C   0  0  0  0  0  0  0  0  0  0  0  0
    7.1055  -11.2655   25.6908 C   0  0  0  0  0  0  0  0  0  0  0  0
    7.0423  -12.2732   24.7693 C   0  0  0  0  0  0  0  0  0  0  0  0
    6.9801  -13.6091   25.1620 C   0  0  0  0  0  0  0  0  0  0  0  0
    9.1302  -16.0115   22.8817 C   0  0  0  0  0  0  0  0  0  0  0  0
    8.9919  -17.1817   22.4074 O   0  0  0  0  0  0  0  0  0  0  0  0
   10.1316  -15.7957   23.8617 N   0  0  0  0  0  0  0  0  0  0  0  0
   11.1655  -16.7764   24.1605 C   0  0  1  0  0  0  0  0  0  0  0  0
   12.5172  -16.1439   24.2706 C   0  0  0  0  0  0  0  0  0  0  0  0
   13.5379  -17.1721   24.4810 C   0  0  0  0  0  0  0  0  0  0  0  0
   13.8599  -17.5731   25.6376 O   0  0  0  0  0  0  0  0  0  0  0  0
   10.7942  -17.6315   25.2983 C   0  0  0  0  0  0  0  0  0  0  0  0
   11.2473  -18.9003   25.5160 O   0  0  0  0  0  0  0  0  0  0  0  0
   14.1808  -17.7322   23.3697 O   0  0  0  0  0  0  0  0  0  0  0  0
    9.9786  -17.1467   26.1542 O   0  0  0  0  0  0  0  0  0  0  0  0
  1  2  1  0
  1  5  1  0
  2  3  1  0
  3  4  1  0
  5  4  1  0
  6  7  2  0
  5  6  1  1
  8  6  1  0
  9  8  1  0
  9 10  1  1
 10 11  1  0
 11 12  2  0
 11 19  1  0
 12 13  1  0
 13 14  1  0
 14 15  2  0
 15 16  1  0
 17 16  2  0
 18 17  1  0
 19 18  2  0
 19 14  1  0
 20  9  1  0
 21 20  2  0
 22 20  1  0
 23 22  1  0
 24 25  1  0
 23 24  1  1
 25 29  1  0
 26 25  2  0
 27 28  1  0
 27 23  1  0
 30 27  2  0
M  END
$$$$
