PWD.pdb
     RDKit          3D

 30 32  0  0  1  0  0  0  0  0999 V2000
    7.2671  -15.5488   20.7776 N   0  0  0  0  0  0  0  0  0  0  0  0
    6.4340  -15.0193   19.7404 C   0  0  0  0  0  0  0  0  0  0  0  0
    6.9602  -13.6687   19.3576 C   0  0  0  0  0  0  0  0  0  0  0  0
    7.9410  -13.3776   20.4962 C   0  0  0  0  0  0  0  0  0  0  0  0
    8.4838  -14.7916   20.7341 C   0  0  1  0  0  0  0  0  0  0  0  0
    9.2434  -14.8553   22.0077 C   0  0  0  0  0  0  0  0  0  0  0  0
   10.3193  -14.2229   22.1482 O   0  0  0  0  0  0  0  0  0  0  0  0
    8.7768  -15.6257   23.0892 N   0  0  0  0  0  0  0  0  0  0  0  0
    9.4282  -15.7837   24.3439 C   0  0  1  0  0  0  0  0  0  0  0  0
    8.4378  -15.9280   25.4516 C   0  0  0  0  0  0  0  0  0  0  0  0
    7.4093  -14.8798   25.5168 C   0  0  0  0  0  0  0  0  0  0  0  0
    6.0898  -14.9870   25.1104 C   0  0  0  0  0  0  0  0  0  0  0  0
    5.4537  -13.8425   25.3533 N   0  0  0  0  0  0  0  0  0  0  0  0
    6.3340  -12.9900   25.9100 C   0  0  0  0  0  0  0  0  0  0  0  0
    6.2218  -11.6984   26.3451 C   0  0  0  0  0  0  0  0  0  0  0  0
    7.2541  -10.9712   26.8895 C   0  0  0  0  0  0  0  0  0  0  0  0
    8.4746  -11.6163   26.9904 C   0  0  0  0  0  0  0  0  0  0  0  0
    8.6280  -12.9070   26.5673 C   0  0  0  0  0  0  0  0  0  0  0  0
    7.5626  -13.6199   26.0201 C   0  0  0  0  0  0  0  0  0  0  0  0
   10.4283  -16.8627   24.3656 C   0  0  0  0  0  0  0  0  0  0  0  0
   10.1235  -17.9860   23.8569 O   0  0  0  0  0  0  0  0  0  0  0  0
   11.7196  -16.7065   24.9295 N   0  0  0  0  0  0  0  0  0  0  0  0
   12.6309  -17.8239   25.1322 C   0  0  1  0  0  0  0  0  0  0  0  0
   14.0600  -17.3804   25.1490 C   0  0  0  0  0  0  0  0  0  0  0  0
   14.3532  -16.5832   23.9566 C   0  0  0  0  0  0  0  0  0  0  0  0
   13.9295  -16.9090   22.8092 O   0  0  0  0  0  0  0  0  0  0  0  0
   12.2323  -18.6516   26.2810 C   0  0  0  0  0  0  0  0  0  0  0  0
   12.8113  -19.8328   26.6443 O   0  0  0  0  0  0  0  0  0  0  0  0
   15.1266  -15.4225   24.0854 O   0  0  0  0  0  0  0  0  0  0  0  0
   11.2626  -18.2304   26.9986 O   0  0  0  0  0  0  0  0  0  0  0  0
  1  2  1  0
  1  5  1  0
  2  3  1  0
  3  4  1  0
  5  4  1  0
  6  7  2  0
  5  6  1  1
  8  6  1  0
  9  8  1  0
  9 10  1  1
 10 11  1  0
 11 12  2  0
 11 19  1  0
 12 13  1  0
 13 14  1  0
 14 15  2  0
 15 16  1  0
 17 16  2  0
 18 17  1  0
 19 18  2  0
 19 14  1  0
 20  9  1  0
 21 20  2  0
 22 20  1  0
 23 22  1  0
 24 25  1  0
 23 24  1  1
 25 29  1  0
 26 25  2  0
 27 28  1  0
 27 23  1  0
 30 27  2  0
M  END
$$$$
