PWD.pdb
     RDKit          3D

 30 32  0  0  1  0  0  0  0  0999 V2000
    7.1366  -15.3286   20.5985 N   0  0  0  0  0  0  0  0  0  0  0  0
    6.2932  -14.7242   19.6118 C   0  0  0  0  0  0  0  0  0  0  0  0
    6.9372  -13.4478   19.1604 C   0  0  0  0  0  0  0  0  0  0  0  0
    8.0261  -13.2522   20.2183 C   0  0  0  0  0  0  0  0  0  0  0  0
    8.4237  -14.7147   20.4496 C   0  0  1  0  0  0  0  0  0  0  0  0
    9.2638  -14.8444   21.6664 C   0  0  0  0  0  0  0  0  0  0  0  0
   10.4090  -14.3312   21.7162 O   0  0  0  0  0  0  0  0  0  0  0  0
    8.7979  -15.5456   22.7943 N   0  0  0  0  0  0  0  0  0  0  0  0
    9.4950  -15.7062   24.0239 C   0  0  1  0  0  0  0  0  0  0  0  0
    8.5669  -16.1088   25.1217 C   0  0  0  0  0  0  0  0  0  0  0  0
    7.4044  -15.2305   25.3167 C   0  0  0  0  0  0  0  0  0  0  0  0
    6.0773  -15.5474   25.0795 C   0  0  0  0  0  0  0  0  0  0  0  0
    5.3065  -14.5103   25.4016 N   0  0  0  0  0  0  0  0  0  0  0  0
    6.1061  -13.5220   25.8439 C   0  0  0  0  0  0  0  0  0  0  0  0
    5.8498  -12.2553   26.2908 C   0  0  0  0  0  0  0  0  0  0  0  0
    6.8163  -11.3677   26.7017 C   0  0  0  0  0  0  0  0  0  0  0  0
    8.1251  -11.8150   26.6477 C   0  0  0  0  0  0  0  0  0  0  0  0
    8.4232  -13.0743   26.2075 C   0  0  0  0  0  0  0  0  0  0  0  0
    7.4217  -13.9530   25.7980 C   0  0  0  0  0  0  0  0  0  0  0  0
   10.6571  -16.6047   23.9384 C   0  0  0  0  0  0  0  0  0  0  0  0
   10.5301  -17.7076   23.3211 O   0  0  0  0  0  0  0  0  0  0  0  0
   11.9151  -16.2960   24.5144 N   0  0  0  0  0  0  0  0  0  0  0  0
   13.1079  -17.0966   24.2769 C   0  0  1  0  0  0  0  0  0  0  0  0
   14.1853  -16.3041   23.6056 C   0  0  0  0  0  0  0  0  0  0  0  0
   15.3503  -17.1535   23.3517 C   0  0  0  0  0  0  0  0  0  0  0  0
   15.2415  -18.3946   23.1281 O   0  0  0  0  0  0  0  0  0  0  0  0
   13.5368  -17.8099   25.4897 C   0  0  0  0  0  0  0  0  0  0  0  0
   12.9573  -17.6983   26.7203 O   0  0  0  0  0  0  0  0  0  0  0  0
   16.6274  -16.5783   23.3552 O   0  0  0  0  0  0  0  0  0  0  0  0
   14.5357  -18.5995   25.3830 O   0  0  0  0  0  0  0  0  0  0  0  0
  1  2  1  0
  1  5  1  0
  2  3  1  0
  3  4  1  0
  5  4  1  0
  6  7  2  0
  5  6  1  1
  8  6  1  0
  9  8  1  0
  9 10  1  1
 10 11  1  0
 11 12  2  0
 11 19  1  0
 12 13  1  0
 13 14  1  0
 14 15  2  0
 15 16  1  0
 17 16  2  0
 18 17  1  0
 19 18  2  0
 19 14  1  0
 20  9  1  0
 21 20  2  0
 22 20  1  0
 23 22  1  0
 24 25  1  0
 23 24  1  1
 25 29  1  0
 26 25  2  0
 27 28  1  0
 27 23  1  0
 30 27  2  0
M  END
$$$$
