PWD.pdb
     RDKit          3D

 30 32  0  0  1  0  0  0  0  0999 V2000
    7.1392  -15.6617   21.1277 N   0  0  0  0  0  0  0  0  0  0  0  0
    6.2221  -15.1063   20.1788 C   0  0  0  0  0  0  0  0  0  0  0  0
    6.7579  -13.7812   19.7264 C   0  0  0  0  0  0  0  0  0  0  0  0
    7.8653  -13.5220   20.7509 C   0  0  0  0  0  0  0  0  0  0  0  0
    8.3736  -14.9552   20.9463 C   0  0  1  0  0  0  0  0  0  0  0  0
    9.2615  -15.0403   22.1327 C   0  0  0  0  0  0  0  0  0  0  0  0
   10.3194  -14.3664   22.1952 O   0  0  0  0  0  0  0  0  0  0  0  0
    8.9398  -15.8782   23.2169 N   0  0  0  0  0  0  0  0  0  0  0  0
    9.6588  -15.9727   24.4407 C   0  0  1  0  0  0  0  0  0  0  0  0
    8.7323  -16.1408   25.5992 C   0  0  0  0  0  0  0  0  0  0  0  0
    7.5765  -15.2327   25.6175 C   0  0  0  0  0  0  0  0  0  0  0  0
    6.2636  -15.5562   25.3184 C   0  0  0  0  0  0  0  0  0  0  0  0
    5.4926  -14.4817   25.4748 N   0  0  0  0  0  0  0  0  0  0  0  0
    6.2782  -13.4626   25.8698 C   0  0  0  0  0  0  0  0  0  0  0  0
    6.0160  -12.1531   26.1637 C   0  0  0  0  0  0  0  0  0  0  0  0
    6.9683  -11.2394   26.5499 C   0  0  0  0  0  0  0  0  0  0  0  0
    8.2685  -11.7061   26.6376 C   0  0  0  0  0  0  0  0  0  0  0  0
    8.5720  -13.0081   26.3526 C   0  0  0  0  0  0  0  0  0  0  0  0
    7.5849  -13.9122   25.9643 C   0  0  0  0  0  0  0  0  0  0  0  0
   10.7137  -16.9986   24.4357 C   0  0  0  0  0  0  0  0  0  0  0  0
   10.4554  -18.1354   23.9313 O   0  0  0  0  0  0  0  0  0  0  0  0
   12.0082  -16.7766   24.9692 N   0  0  0  0  0  0  0  0  0  0  0  0
   12.9997  -17.8353   25.0968 C   0  0  1  0  0  0  0  0  0  0  0  0
   14.3958  -17.3032   25.0125 C   0  0  0  0  0  0  0  0  0  0  0  0
   14.5884  -16.5947   23.7460 C   0  0  0  0  0  0  0  0  0  0  0  0
   14.1955  -17.0727   22.6418 O   0  0  0  0  0  0  0  0  0  0  0  0
   12.7386  -18.6895   26.2655 C   0  0  0  0  0  0  0  0  0  0  0  0
   13.4223  -19.8272   26.5828 O   0  0  0  0  0  0  0  0  0  0  0  0
   15.2272  -15.3482   23.7522 O   0  0  0  0  0  0  0  0  0  0  0  0
   11.7923  -18.3380   27.0488 O   0  0  0  0  0  0  0  0  0  0  0  0
  1  2  1  0
  1  5  1  0
  2  3  1  0
  3  4  1  0
  5  4  1  0
  6  7  2  0
  5  6  1  1
  8  6  1  0
  9  8  1  0
  9 10  1  1
 10 11  1  0
 11 12  2  0
 11 19  1  0
 12 13  1  0
 13 14  1  0
 14 15  2  0
 15 16  1  0
 17 16  2  0
 18 17  1  0
 19 18  2  0
 19 14  1  0
 20  9  1  0
 21 20  2  0
 22 20  1  0
 23 22  1  0
 24 25  1  0
 23 24  1  1
 25 29  1  0
 26 25  2  0
 27 28  1  0
 27 23  1  0
 30 27  2  0
M  END
$$$$
