PWD.pdb
     RDKit          3D

 30 32  0  0  1  0  0  0  0  0999 V2000
    7.9277  -15.3590   18.6105 N   0  0  0  0  0  0  0  0  0  0  0  0
    7.4708  -14.8981   17.3342 C   0  0  0  0  0  0  0  0  0  0  0  0
    7.8781  -13.4638   17.1783 C   0  0  0  0  0  0  0  0  0  0  0  0
    8.3003  -13.0988   18.6037 C   0  0  0  0  0  0  0  0  0  0  0  0
    8.9337  -14.4279   19.0312 C   0  0  1  0  0  0  0  0  0  0  0  0
    9.1601  -14.4540   20.4979 C   0  0  0  0  0  0  0  0  0  0  0  0
   10.1114  -13.8171   21.0142 O   0  0  0  0  0  0  0  0  0  0  0  0
    8.3145  -15.1931   21.3462 N   0  0  0  0  0  0  0  0  0  0  0  0
    8.3584  -15.2008   22.7680 C   0  0  1  0  0  0  0  0  0  0  0  0
    6.9845  -15.2519   23.3499 C   0  0  0  0  0  0  0  0  0  0  0  0
    6.8905  -14.8976   24.7735 C   0  0  0  0  0  0  0  0  0  0  0  0
    6.7506  -15.7725   25.8378 C   0  0  0  0  0  0  0  0  0  0  0  0
    6.7320  -15.0871   26.9794 N   0  0  0  0  0  0  0  0  0  0  0  0
    6.8565  -13.7808   26.6798 C   0  0  0  0  0  0  0  0  0  0  0  0
    6.8907  -12.6539   27.4536 C   0  0  0  0  0  0  0  0  0  0  0  0
    7.0176  -11.3772   26.9588 C   0  0  0  0  0  0  0  0  0  0  0  0
    7.1147  -11.2574   25.5833 C   0  0  0  0  0  0  0  0  0  0  0  0
    7.0850  -12.3594   24.7749 C   0  0  0  0  0  0  0  0  0  0  0  0
    6.9564  -13.6419   25.3053 C   0  0  0  0  0  0  0  0  0  0  0  0
    9.2267  -16.2458   23.3330 C   0  0  0  0  0  0  0  0  0  0  0  0
    9.0971  -17.4378   22.9136 O   0  0  0  0  0  0  0  0  0  0  0  0
   10.2036  -15.9834   24.3263 N   0  0  0  0  0  0  0  0  0  0  0  0
   11.0896  -17.0129   24.8508 C   0  0  1  0  0  0  0  0  0  0  0  0
   12.5303  -16.6384   24.6967 C   0  0  0  0  0  0  0  0  0  0  0  0
   12.9699  -16.8855   23.3224 C   0  0  0  0  0  0  0  0  0  0  0  0
   12.5328  -17.8590   22.6415 O   0  0  0  0  0  0  0  0  0  0  0  0
   10.7049  -17.4234   26.2099 C   0  0  0  0  0  0  0  0  0  0  0  0
   11.2539  -18.4588   26.9092 O   0  0  0  0  0  0  0  0  0  0  0  0
   13.9033  -16.0195   22.7388 O   0  0  0  0  0  0  0  0  0  0  0  0
    9.7788  -16.7558   26.7838 O   0  0  0  0  0  0  0  0  0  0  0  0
  1  2  1  0
  1  5  1  0
  2  3  1  0
  3  4  1  0
  5  4  1  0
  6  7  2  0
  5  6  1  1
  8  6  1  0
  9  8  1  0
  9 10  1  1
 10 11  1  0
 11 12  2  0
 11 19  1  0
 12 13  1  0
 13 14  1  0
 14 15  2  0
 15 16  1  0
 17 16  2  0
 18 17  1  0
 19 18  2  0
 19 14  1  0
 20  9  1  0
 21 20  2  0
 22 20  1  0
 23 22  1  0
 24 25  1  0
 23 24  1  1
 25 29  1  0
 26 25  2  0
 27 28  1  0
 27 23  1  0
 30 27  2  0
M  END
$$$$
