PWD.pdb
     RDKit          3D

 30 32  0  0  1  0  0  0  0  0999 V2000
    7.4279  -15.6895   20.8216 N   0  0  0  0  0  0  0  0  0  0  0  0
    6.6199  -15.1546   19.7676 C   0  0  0  0  0  0  0  0  0  0  0  0
    7.1005  -13.7673   19.4639 C   0  0  0  0  0  0  0  0  0  0  0  0
    8.0136  -13.4809   20.6587 C   0  0  0  0  0  0  0  0  0  0  0  0
    8.6093  -14.8783   20.8662 C   0  0  1  0  0  0  0  0  0  0  0  0
    9.3117  -14.9613   22.1711 C   0  0  0  0  0  0  0  0  0  0  0  0
   10.3042  -14.2317   22.4159 O   0  0  0  0  0  0  0  0  0  0  0  0
    8.8830  -15.8595   23.1662 N   0  0  0  0  0  0  0  0  0  0  0  0
    9.4813  -16.0366   24.4446 C   0  0  1  0  0  0  0  0  0  0  0  0
    8.4453  -16.1813   25.5098 C   0  0  0  0  0  0  0  0  0  0  0  0
    7.4197  -15.1286   25.5372 C   0  0  0  0  0  0  0  0  0  0  0  0
    6.0890  -15.2585   25.1764 C   0  0  0  0  0  0  0  0  0  0  0  0
    5.4607  -14.0994   25.3637 N   0  0  0  0  0  0  0  0  0  0  0  0
    6.3569  -13.2151   25.8394 C   0  0  0  0  0  0  0  0  0  0  0  0
    6.2579  -11.8981   26.1941 C   0  0  0  0  0  0  0  0  0  0  0  0
    7.3057  -11.1400   26.6612 C   0  0  0  0  0  0  0  0  0  0  0  0
    8.5283  -11.7802   26.7682 C   0  0  0  0  0  0  0  0  0  0  0  0
    8.6689  -13.0957   26.4243 C   0  0  0  0  0  0  0  0  0  0  0  0
    7.5879  -13.8396   25.9544 C   0  0  0  0  0  0  0  0  0  0  0  0
   10.4688  -17.1263   24.4959 C   0  0  0  0  0  0  0  0  0  0  0  0
   10.1063  -18.2936   24.1501 O   0  0  0  0  0  0  0  0  0  0  0  0
   11.8095  -16.9335   24.9145 N   0  0  0  0  0  0  0  0  0  0  0  0
   12.7351  -18.0374   25.1256 C   0  0  1  0  0  0  0  0  0  0  0  0
   14.1609  -17.5972   25.0134 C   0  0  0  0  0  0  0  0  0  0  0  0
   14.3896  -16.9590   23.7159 C   0  0  0  0  0  0  0  0  0  0  0  0
   13.8616  -17.3935   22.6507 O   0  0  0  0  0  0  0  0  0  0  0  0
   12.4196  -18.7874   26.3511 C   0  0  0  0  0  0  0  0  0  0  0  0
   11.4812  -18.4331   27.2764 O   0  0  0  0  0  0  0  0  0  0  0  0
   15.2182  -15.8317   23.6469 O   0  0  0  0  0  0  0  0  0  0  0  0
   13.0797  -19.8597   26.5683 O   0  0  0  0  0  0  0  0  0  0  0  0
  1  2  1  0
  1  5  1  0
  2  3  1  0
  3  4  1  0
  5  4  1  0
  6  7  2  0
  5  6  1  1
  8  6  1  0
  9  8  1  0
  9 10  1  1
 10 11  1  0
 11 12  2  0
 11 19  1  0
 12 13  1  0
 13 14  1  0
 14 15  2  0
 15 16  1  0
 17 16  2  0
 18 17  1  0
 19 18  2  0
 19 14  1  0
 20  9  1  0
 21 20  2  0
 22 20  1  0
 23 22  1  0
 24 25  1  0
 23 24  1  1
 25 29  1  0
 26 25  2  0
 27 28  1  0
 27 23  1  0
 30 27  2  0
M  END
$$$$
