PWD.pdb
     RDKit          3D

 30 32  0  0  1  0  0  0  0  0999 V2000
    7.8160  -15.1384   18.4186 N   0  0  0  0  0  0  0  0  0  0  0  0
    7.3571  -14.7026   17.1343 C   0  0  0  0  0  0  0  0  0  0  0  0
    7.6872  -13.2478   16.9853 C   0  0  0  0  0  0  0  0  0  0  0  0
    8.0630  -12.8611   18.4180 C   0  0  0  0  0  0  0  0  0  0  0  0
    8.7612  -14.1534   18.8570 C   0  0  1  0  0  0  0  0  0  0  0  0
    8.9626  -14.1681   20.3275 C   0  0  0  0  0  0  0  0  0  0  0  0
    9.6938  -13.3134   20.8860 O   0  0  0  0  0  0  0  0  0  0  0  0
    8.3391  -15.1400   21.1322 N   0  0  0  0  0  0  0  0  0  0  0  0
    8.3646  -15.1881   22.5537 C   0  0  1  0  0  0  0  0  0  0  0  0
    6.9844  -15.1336   23.1202 C   0  0  0  0  0  0  0  0  0  0  0  0
    6.9074  -14.8867   24.5673 C   0  0  0  0  0  0  0  0  0  0  0  0
    6.7244  -15.8336   25.5610 C   0  0  0  0  0  0  0  0  0  0  0  0
    6.7391  -15.2388   26.7524 N   0  0  0  0  0  0  0  0  0  0  0  0
    6.9277  -13.9209   26.5545 C   0  0  0  0  0  0  0  0  0  0  0  0
    7.0170  -12.8604   27.4133 C   0  0  0  0  0  0  0  0  0  0  0  0
    7.2066  -11.5569   27.0185 C   0  0  0  0  0  0  0  0  0  0  0  0
    7.3100  -11.3357   25.6560 C   0  0  0  0  0  0  0  0  0  0  0  0
    7.2264  -12.3688   24.7648 C   0  0  0  0  0  0  0  0  0  0  0  0
    7.0348  -13.6807   25.1946 C   0  0  0  0  0  0  0  0  0  0  0  0
    9.1312  -16.3194   23.0992 C   0  0  0  0  0  0  0  0  0  0  0  0
    8.7750  -17.4999   22.7945 O   0  0  0  0  0  0  0  0  0  0  0  0
   10.2519  -16.1525   23.9513 N   0  0  0  0  0  0  0  0  0  0  0  0
   10.9828  -17.2760   24.5202 C   0  0  1  0  0  0  0  0  0  0  0  0
   12.4635  -17.0909   24.4073 C   0  0  0  0  0  0  0  0  0  0  0  0
   12.8394  -16.8869   23.0072 C   0  0  0  0  0  0  0  0  0  0  0  0
   12.3870  -17.6159   22.0765 O   0  0  0  0  0  0  0  0  0  0  0  0
   10.5078  -17.6077   25.8723 C   0  0  0  0  0  0  0  0  0  0  0  0
    9.5824  -16.8990   26.5822 O   0  0  0  0  0  0  0  0  0  0  0  0
   13.7276  -15.8534   22.6832 O   0  0  0  0  0  0  0  0  0  0  0  0
   11.0032  -18.6454   26.4294 O   0  0  0  0  0  0  0  0  0  0  0  0
  1  2  1  0
  1  5  1  0
  2  3  1  0
  3  4  1  0
  5  4  1  0
  6  7  2  0
  5  6  1  1
  8  6  1  0
  9  8  1  0
  9 10  1  6
 10 11  1  0
 11 12  2  0
 11 19  1  0
 12 13  1  0
 13 14  1  0
 14 15  2  0
 15 16  1  0
 17 16  2  0
 18 17  1  0
 19 18  2  0
 19 14  1  0
 20  9  1  0
 21 20  2  0
 22 20  1  0
 23 22  1  0
 24 25  1  0
 23 24  1  1
 25 29  1  0
 26 25  2  0
 27 28  1  0
 27 23  1  0
 30 27  2  0
M  END
$$$$
