PWD.pdb
     RDKit          3D

 30 32  0  0  1  0  0  0  0  0999 V2000
    7.2432  -15.9971   21.0236 N   0  0  0  0  0  0  0  0  0  0  0  0
    6.2654  -15.5902   20.0600 C   0  0  0  0  0  0  0  0  0  0  0  0
    6.7145  -14.2956   19.4517 C   0  0  0  0  0  0  0  0  0  0  0  0
    7.8419  -13.8762   20.3984 C   0  0  0  0  0  0  0  0  0  0  0  0
    8.4315  -15.2543   20.7204 C   0  0  1  0  0  0  0  0  0  0  0  0
    9.3636  -15.1706   21.8724 C   0  0  0  0  0  0  0  0  0  0  0  0
   10.4513  -14.5500   21.7771 O   0  0  0  0  0  0  0  0  0  0  0  0
    9.0517  -15.7844   23.1000 N   0  0  0  0  0  0  0  0  0  0  0  0
    9.8246  -15.7075   24.2918 C   0  0  1  0  0  0  0  0  0  0  0  0
    8.9893  -15.9929   25.4958 C   0  0  0  0  0  0  0  0  0  0  0  0
    7.7616  -15.1931   25.6139 C   0  0  0  0  0  0  0  0  0  0  0  0
    6.4635  -15.6334   25.4168 C   0  0  0  0  0  0  0  0  0  0  0  0
    5.6138  -14.6334   25.6436 N   0  0  0  0  0  0  0  0  0  0  0  0
    6.3335  -13.5482   25.9843 C   0  0  0  0  0  0  0  0  0  0  0  0
    5.9787  -12.2683   26.3101 C   0  0  0  0  0  0  0  0  0  0  0  0
    6.8726  -11.2730   26.6280 C   0  0  0  0  0  0  0  0  0  0  0  0
    8.2124  -11.6202   26.6081 C   0  0  0  0  0  0  0  0  0  0  0  0
    8.6082  -12.8889   26.2881 C   0  0  0  0  0  0  0  0  0  0  0  0
    7.6787  -13.8779   25.9710 C   0  0  0  0  0  0  0  0  0  0  0  0
   11.0425  -16.5328   24.2678 C   0  0  0  0  0  0  0  0  0  0  0  0
   10.9520  -17.7414   23.8873 O   0  0  0  0  0  0  0  0  0  0  0  0
   12.3157  -16.0406   24.6507 N   0  0  0  0  0  0  0  0  0  0  0  0
   13.5432  -16.8004   24.4616 C   0  0  1  0  0  0  0  0  0  0  0  0
   14.6717  -15.9299   24.0053 C   0  0  0  0  0  0  0  0  0  0  0  0
   15.8790  -16.7340   23.8077 C   0  0  0  0  0  0  0  0  0  0  0  0
   15.9708  -17.5925   22.8821 O   0  0  0  0  0  0  0  0  0  0  0  0
   13.8505  -17.6405   25.6294 C   0  0  0  0  0  0  0  0  0  0  0  0
   13.1823  -17.6171   26.8191 O   0  0  0  0  0  0  0  0  0  0  0  0
   16.9691  -16.5503   24.6679 O   0  0  0  0  0  0  0  0  0  0  0  0
   14.8248  -18.4602   25.5217 O   0  0  0  0  0  0  0  0  0  0  0  0
  1  2  1  0
  1  5  1  0
  2  3  1  0
  3  4  1  0
  5  4  1  0
  6  7  2  0
  5  6  1  1
  8  6  1  0
  9  8  1  0
  9 10  1  1
 10 11  1  0
 11 12  2  0
 11 19  1  0
 12 13  1  0
 13 14  1  0
 14 15  2  0
 15 16  1  0
 17 16  2  0
 18 17  1  0
 19 18  2  0
 19 14  1  0
 20  9  1  0
 21 20  2  0
 22 20  1  0
 23 22  1  0
 24 25  1  0
 23 24  1  1
 25 29  1  0
 26 25  2  0
 27 28  1  0
 27 23  1  0
 30 27  2  0
M  END
$$$$
