PWD.pdb
     RDKit          3D

 30 32  0  0  1  0  0  0  0  0999 V2000
    7.0732  -15.9059   20.9424 N   0  0  0  0  0  0  0  0  0  0  0  0
    6.1165  -15.4339   19.9874 C   0  0  0  0  0  0  0  0  0  0  0  0
    6.5941  -14.1165   19.4545 C   0  0  0  0  0  0  0  0  0  0  0  0
    7.7130  -13.7649   20.4382 C   0  0  0  0  0  0  0  0  0  0  0  0
    8.2770  -15.1671   20.6959 C   0  0  1  0  0  0  0  0  0  0  0  0
    9.1925  -15.1583   21.8642 C   0  0  0  0  0  0  0  0  0  0  0  0
   10.2848  -14.5400   21.8219 O   0  0  0  0  0  0  0  0  0  0  0  0
    8.8592  -15.8424   23.0482 N   0  0  0  0  0  0  0  0  0  0  0  0
    9.6250  -15.8584   24.2468 C   0  0  1  0  0  0  0  0  0  0  0  0
    8.7711  -16.1797   25.4285 C   0  0  0  0  0  0  0  0  0  0  0  0
    7.6187  -15.2902   25.6325 C   0  0  0  0  0  0  0  0  0  0  0  0
    6.2814  -15.6207   25.4903 C   0  0  0  0  0  0  0  0  0  0  0  0
    5.5267  -14.5649   25.7890 N   0  0  0  0  0  0  0  0  0  0  0  0
    6.3468  -13.5512   26.1229 C   0  0  0  0  0  0  0  0  0  0  0  0
    6.1120  -12.2587   26.5028 C   0  0  0  0  0  0  0  0  0  0  0  0
    7.0974  -11.3475   26.8024 C   0  0  0  0  0  0  0  0  0  0  0  0
    8.4024  -11.7980   26.7036 C   0  0  0  0  0  0  0  0  0  0  0  0
    8.6792  -13.0828   26.3275 C   0  0  0  0  0  0  0  0  0  0  0  0
    7.6590  -13.9849   26.0307 C   0  0  0  0  0  0  0  0  0  0  0  0
   10.8136  -16.7235   24.1844 C   0  0  0  0  0  0  0  0  0  0  0  0
   10.6762  -17.9189   23.7773 O   0  0  0  0  0  0  0  0  0  0  0  0
   12.1084  -16.2839   24.5586 N   0  0  0  0  0  0  0  0  0  0  0  0
   13.2875  -17.1324   24.4594 C   0  0  1  0  0  0  0  0  0  0  0  0
   14.5329  -16.3313   24.2435 C   0  0  0  0  0  0  0  0  0  0  0  0
   15.6935  -17.2193   24.1570 C   0  0  0  0  0  0  0  0  0  0  0  0
   16.2387  -17.7152   25.1861 O   0  0  0  0  0  0  0  0  0  0  0  0
   13.3623  -18.0948   25.5692 C   0  0  0  0  0  0  0  0  0  0  0  0
   13.9509  -19.3248   25.5120 O   0  0  0  0  0  0  0  0  0  0  0  0
   16.2201  -17.5327   22.8975 O   0  0  0  0  0  0  0  0  0  0  0  0
   12.8313  -17.7515   26.6796 O   0  0  0  0  0  0  0  0  0  0  0  0
  1  2  1  0
  1  5  1  0
  2  3  1  0
  3  4  1  0
  5  4  1  0
  6  7  2  0
  5  6  1  1
  8  6  1  0
  9  8  1  0
  9 10  1  1
 10 11  1  0
 11 12  2  0
 11 19  1  0
 12 13  1  0
 13 14  1  0
 14 15  2  0
 15 16  1  0
 17 16  2  0
 18 17  1  0
 19 18  2  0
 19 14  1  0
 20  9  1  0
 21 20  2  0
 22 20  1  0
 23 22  1  0
 24 25  1  0
 23 24  1  1
 25 29  1  0
 26 25  2  0
 27 28  1  0
 27 23  1  0
 30 27  2  0
M  END
$$$$
