YEV.pdb
     RDKit          3D

 29 29  0  0  1  0  0  0  0  0999 V2000
   42.9564   -4.1115   -1.9336 O   0  0  0  0  0  0  0  0  0  0  0  0
   41.6352   -3.8128   -2.2846 C   0  0  0  0  0  0  0  0  0  0  0  0
   40.5974   -4.5434   -1.7364 C   0  0  0  0  0  0  0  0  0  0  0  0
   39.2847   -4.2708   -2.0641 C   0  0  0  0  0  0  0  0  0  0  0  0
   38.9665   -3.2637   -2.9466 C   0  0  0  0  0  0  0  0  0  0  0  0
   37.5377   -2.9570   -3.3093 C   0  0  0  0  0  0  0  0  0  0  0  0
   37.1082   -1.6469   -2.6757 C   0  0  2  0  0  0  0  0  0  0  0  0
   36.9572   -1.9475   -1.2448 N   0  0  0  0  0  0  0  0  0  0  0  0
   35.8409   -1.1490   -3.2124 C   0  0  0  0  0  0  0  0  0  0  0  0
   34.7824   -1.1902   -2.5332 O   0  0  0  0  0  0  0  0  0  0  0  0
   39.9995   -2.5448   -3.4854 C   0  0  0  0  0  0  0  0  0  0  0  0
   41.3223   -2.8071   -3.1656 C   0  0  0  0  0  0  0  0  0  0  0  0
   35.7804   -0.6031   -4.5248 N   0  0  0  0  0  0  0  0  0  0  0  0
   34.6299    0.0423   -5.0975 C   0  0  1  0  0  0  0  0  0  0  0  0
   33.9589    1.0612   -4.2705 C   0  0  0  0  0  0  0  0  0  0  0  0
   32.7915    1.7943   -4.7685 C   0  0  0  0  0  0  0  0  0  0  0  0
   32.2026    2.8244   -3.8948 C   0  0  0  0  0  0  0  0  0  0  0  0
   32.6054    3.1572   -2.7588 O   0  0  0  0  0  0  0  0  0  0  0  0
   34.8435    0.4330   -6.5070 C   0  0  0  0  0  0  0  0  0  0  0  0
   35.6956    1.2921   -6.8810 O   0  0  0  0  0  0  0  0  0  0  0  0
   31.0796    3.5222   -4.3456 O   0  0  0  0  0  0  0  0  0  0  0  0
   32.5101   -1.6449   -9.3506 C   0  0  0  0  0  0  0  0  0  0  0  0
   33.9406   -1.2351   -9.6716 C   0  0  2  0  0  0  0  0  0  0  0  0
   34.8369   -2.3576   -9.2113 C   0  0  0  0  0  0  0  0  0  0  0  0
   34.2785    0.0617   -8.9426 C   0  0  2  0  0  0  0  0  0  0  0  0
   34.0625   -0.1735   -7.5236 N   0  0  0  0  0  0  0  0  0  0  0  0
   33.3003    1.0742   -9.4415 C   0  0  0  0  0  0  0  0  0  0  0  0
   33.4788    1.7492  -10.6329 O   0  0  0  0  0  0  0  0  0  0  0  0
   32.2810    1.3208   -8.7555 O   0  0  0  0  0  0  0  0  0  0  0  0
  2  1  1  0
  3  2  2  0
  4  3  1  0
  5 11  1  0
  5  4  2  0
  6  5  1  0
  7  6  1  0
  7  8  1  1
  9  7  1  0
  9 10  2  0
 11 12  2  0
 12  2  1  0
 13  9  1  0
 14 13  1  0
 14 15  1  1
 16 15  1  0
 16 17  1  0
 17 18  2  0
 19 14  1  0
 20 19  2  0
 21 17  1  0
 23 22  1  1
 23 25  1  0
 24 23  1  0
 25 27  1  0
 25 26  1  1
 26 19  1  0
 27 28  1  0
 29 27  2  0
M  END
$$$$
