YEV.pdb
     RDKit          3D

 29 29  0  0  1  0  0  0  0  0999 V2000
   27.9389  -18.5930  -15.4837 O   0  0  0  0  0  0  0  0  0  0  0  0
   27.2485  -17.4087  -15.7648 C   0  0  0  0  0  0  0  0  0  0  0  0
   27.3836  -16.8133  -17.0052 C   0  0  0  0  0  0  0  0  0  0  0  0
   26.7145  -15.6454  -17.3104 C   0  0  0  0  0  0  0  0  0  0  0  0
   25.8920  -15.0359  -16.3905 C   0  0  0  0  0  0  0  0  0  0  0  0
   25.1562  -13.7628  -16.7140 C   0  0  0  0  0  0  0  0  0  0  0  0
   23.7097  -14.0684  -17.0555 C   0  0  2  0  0  0  0  0  0  0  0  0
   23.7684  -14.8388  -18.3060 N   0  0  0  0  0  0  0  0  0  0  0  0
   22.9097  -12.8595  -17.2570 C   0  0  0  0  0  0  0  0  0  0  0  0
   23.1048  -12.1038  -18.2442 O   0  0  0  0  0  0  0  0  0  0  0  0
   25.7634  -15.6313  -15.1644 C   0  0  0  0  0  0  0  0  0  0  0  0
   26.4289  -16.8041  -14.8440 C   0  0  0  0  0  0  0  0  0  0  0  0
   21.8859  -12.5119  -16.3324 N   0  0  0  0  0  0  0  0  0  0  0  0
   21.0079  -11.3802  -16.4607 C   0  0  1  0  0  0  0  0  0  0  0  0
   19.5642  -11.6390  -16.3148 C   0  0  0  0  0  0  0  0  0  0  0  0
   18.5851  -10.5526  -16.4102 C   0  0  0  0  0  0  0  0  0  0  0  0
   17.1605  -10.8955  -16.2549 C   0  0  0  0  0  0  0  0  0  0  0  0
   16.1838  -10.1629  -16.5249 O   0  0  0  0  0  0  0  0  0  0  0  0
   21.5007  -10.1957  -15.7265 C   0  0  0  0  0  0  0  0  0  0  0  0
   22.0253  -10.2456  -14.5750 O   0  0  0  0  0  0  0  0  0  0  0  0
   16.8261  -12.1578  -15.7589 O   0  0  0  0  0  0  0  0  0  0  0  0
   20.8698   -6.5290  -17.6466 C   0  0  0  0  0  0  0  0  0  0  0  0
   22.1197   -6.6750  -16.7900 C   0  0  2  0  0  0  0  0  0  0  0  0
   23.2298   -7.1364  -17.7010 C   0  0  0  0  0  0  0  0  0  0  0  0
   21.8672   -7.6951  -15.6840 C   0  0  2  0  0  0  0  0  0  0  0  0
   21.3931   -8.9130  -16.3221 N   0  0  0  0  0  0  0  0  0  0  0  0
   20.7835   -7.1140  -14.8361 C   0  0  0  0  0  0  0  0  0  0  0  0
   21.0267   -6.1295  -13.8990 O   0  0  0  0  0  0  0  0  0  0  0  0
   19.6117   -7.5343  -14.9791 O   0  0  0  0  0  0  0  0  0  0  0  0
  2  1  1  0
  3  2  2  0
  4  3  1  0
  5 11  1  0
  5  4  2  0
  6  5  1  0
  7  6  1  0
  7  8  1  6
  9  7  1  0
  9 10  2  0
 11 12  2  0
 12  2  1  0
 13  9  1  0
 14 13  1  0
 14 15  1  1
 16 15  1  0
 16 17  1  0
 17 18  2  0
 19 14  1  0
 20 19  2  0
 21 17  1  0
 23 22  1  6
 23 25  1  0
 24 23  1  0
 25 27  1  0
 25 26  1  6
 26 19  1  0
 27 28  1  0
 29 27  2  0
M  END
$$$$
