YEV.pdb
     RDKit          3D

 29 29  0  0  1  0  0  0  0  0999 V2000
   19.2026  -20.9573  -17.5700 O   0  0  0  0  0  0  0  0  0  0  0  0
   19.6263  -19.6622  -17.2518 C   0  0  0  0  0  0  0  0  0  0  0  0
   19.2269  -18.5969  -18.0373 C   0  0  0  0  0  0  0  0  0  0  0  0
   19.6291  -17.3089  -17.7471 C   0  0  0  0  0  0  0  0  0  0  0  0
   20.4401  -17.0435  -16.6672 C   0  0  0  0  0  0  0  0  0  0  0  0
   20.8829  -15.6419  -16.3409 C   0  0  0  0  0  0  0  0  0  0  0  0
   21.8469  -15.1394  -17.3996 C   0  0  2  0  0  0  0  0  0  0  0  0
   23.0586  -15.9538  -17.2285 N   0  0  0  0  0  0  0  0  0  0  0  0
   22.1765  -13.7229  -17.2362 C   0  0  0  0  0  0  0  0  0  0  0  0
   23.0745  -13.3487  -16.4380 O   0  0  0  0  0  0  0  0  0  0  0  0
   20.8315  -18.1034  -15.8942 C   0  0  0  0  0  0  0  0  0  0  0  0
   20.4355  -19.4019  -16.1734 C   0  0  0  0  0  0  0  0  0  0  0  0
   21.4819  -12.7317  -17.9840 N   0  0  0  0  0  0  0  0  0  0  0  0
   21.7170  -11.3158  -17.8950 C   0  0  1  0  0  0  0  0  0  0  0  0
   21.4718  -10.5234  -19.1134 C   0  0  0  0  0  0  0  0  0  0  0  0
   21.7270   -9.0804  -19.1443 C   0  0  0  0  0  0  0  0  0  0  0  0
   21.5007   -8.3694  -20.4148 C   0  0  0  0  0  0  0  0  0  0  0  0
   21.0770   -8.8657  -21.4814 O   0  0  0  0  0  0  0  0  0  0  0  0
   21.1682  -10.7280  -16.6547 C   0  0  0  0  0  0  0  0  0  0  0  0
   19.9997  -10.9544  -16.2220 O   0  0  0  0  0  0  0  0  0  0  0  0
   21.7755   -7.0011  -20.4743 O   0  0  0  0  0  0  0  0  0  0  0  0
   23.8823   -9.5200  -13.8757 C   0  0  0  0  0  0  0  0  0  0  0  0
   22.4233   -9.7778  -13.5261 C   0  0  2  0  0  0  0  0  0  0  0  0
   22.2607  -11.2698  -13.3758 C   0  0  0  0  0  0  0  0  0  0  0  0
   21.5272   -9.2446  -14.6398 C   0  0  2  0  0  0  0  0  0  0  0  0
   21.9752   -9.8546  -15.8818 N   0  0  0  0  0  0  0  0  0  0  0  0
   21.7689   -7.7713  -14.6845 C   0  0  0  0  0  0  0  0  0  0  0  0
   22.4550   -7.1665  -15.7189 O   0  0  0  0  0  0  0  0  0  0  0  0
   21.3342   -7.0578  -13.7505 O   0  0  0  0  0  0  0  0  0  0  0  0
  2  1  1  0
  3  2  2  0
  4  3  1  0
  5 11  1  0
  5  4  2  0
  6  5  1  0
  7  6  1  0
  7  8  1  1
  9  7  1  0
  9 10  2  0
 11 12  2  0
 12  2  1  0
 13  9  1  0
 14 13  1  0
 14 15  1  6
 16 15  1  0
 16 17  1  0
 17 18  2  0
 19 14  1  0
 20 19  2  0
 21 17  1  0
 23 22  1  6
 23 25  1  0
 24 23  1  0
 25 27  1  0
 25 26  1  6
 26 19  1  0
 27 28  1  0
 29 27  2  0
M  END
$$$$
