YEV.pdb
     RDKit          3D

 29 29  0  0  1  0  0  0  0  0999 V2000
   17.3388  -17.6875  -15.5398 O   0  0  0  0  0  0  0  0  0  0  0  0
   17.9314  -16.4284  -15.6869 C   0  0  0  0  0  0  0  0  0  0  0  0
   19.2298  -16.3309  -16.1517 C   0  0  0  0  0  0  0  0  0  0  0  0
   19.8395  -15.1025  -16.3070 C   0  0  0  0  0  0  0  0  0  0  0  0
   19.1753  -13.9356  -16.0042 C   0  0  0  0  0  0  0  0  0  0  0  0
   19.8306  -12.5905  -16.1718 C   0  0  0  0  0  0  0  0  0  0  0  0
   19.2924  -11.8986  -17.4103 C   0  0  2  0  0  0  0  0  0  0  0  0
   19.9314  -12.5886  -18.5400 N   0  0  0  0  0  0  0  0  0  0  0  0
   19.6243  -10.4737  -17.4500 C   0  0  0  0  0  0  0  0  0  0  0  0
   20.7917  -10.0816  -17.7089 O   0  0  0  0  0  0  0  0  0  0  0  0
   17.8900  -14.0403  -15.5444 C   0  0  0  0  0  0  0  0  0  0  0  0
   17.2650  -15.2668  -15.3837 C   0  0  0  0  0  0  0  0  0  0  0  0
   18.6242   -9.4946  -17.1948 N   0  0  0  0  0  0  0  0  0  0  0  0
   18.8565   -8.0772  -17.1235 C   0  0  1  0  0  0  0  0  0  0  0  0
   18.0173   -7.2220  -17.9819 C   0  0  0  0  0  0  0  0  0  0  0  0
   18.2464   -7.1402  -19.4272 C   0  0  0  0  0  0  0  0  0  0  0  0
   19.5103   -6.5406  -19.8900 C   0  0  0  0  0  0  0  0  0  0  0  0
   19.7620   -5.3202  -19.9944 O   0  0  0  0  0  0  0  0  0  0  0  0
   19.0082   -7.5981  -15.7334 C   0  0  0  0  0  0  0  0  0  0  0  0
   18.3694   -8.0729  -14.7484 O   0  0  0  0  0  0  0  0  0  0  0  0
   20.5579   -7.3880  -20.2583 O   0  0  0  0  0  0  0  0  0  0  0  0
   22.1283   -5.2500  -12.7190 C   0  0  0  0  0  0  0  0  0  0  0  0
   21.7079   -5.6706  -14.1203 C   0  0  2  0  0  0  0  0  0  0  0  0
   21.8966   -4.4731  -15.0177 C   0  0  0  0  0  0  0  0  0  0  0  0
   20.2477   -6.1127  -14.1066 C   0  0  2  0  0  0  0  0  0  0  0  0
   19.9164   -6.5448  -15.4553 N   0  0  0  0  0  0  0  0  0  0  0  0
   19.4582   -4.8935  -13.7583 C   0  0  0  0  0  0  0  0  0  0  0  0
   19.2340   -4.5072  -12.4517 O   0  0  0  0  0  0  0  0  0  0  0  0
   18.9817   -4.1959  -14.6838 O   0  0  0  0  0  0  0  0  0  0  0  0
  2  1  1  0
  3  2  2  0
  4  3  1  0
  5 11  1  0
  5  4  2  0
  6  5  1  0
  7  6  1  0
  7  8  1  6
  9  7  1  0
  9 10  2  0
 11 12  2  0
 12  2  1  0
 13  9  1  0
 14 13  1  0
 14 15  1  1
 16 15  1  0
 16 17  1  0
 17 18  2  0
 19 14  1  0
 20 19  2  0
 21 17  1  0
 23 22  1  1
 23 25  1  0
 24 23  1  0
 25 27  1  0
 25 26  1  6
 26 19  1  0
 27 28  1  0
 29 27  2  0
M  END
$$$$
