YEV.pdb
     RDKit          3D

 29 29  0  0  1  0  0  0  0  0999 V2000
   22.2433  -30.3959  -22.7087 O   0  0  0  0  0  0  0  0  0  0  0  0
   21.9502  -30.0257  -21.3915 C   0  0  0  0  0  0  0  0  0  0  0  0
   21.3273  -28.8172  -21.1406 C   0  0  0  0  0  0  0  0  0  0  0  0
   21.0259  -28.4263  -19.8518 C   0  0  0  0  0  0  0  0  0  0  0  0
   21.3354  -29.2261  -18.7753 C   0  0  0  0  0  0  0  0  0  0  0  0
   21.0092  -28.8099  -17.3656 C   0  0  0  0  0  0  0  0  0  0  0  0
   21.9314  -27.6878  -16.9263 C   0  0  2  0  0  0  0  0  0  0  0  0
   23.2328  -28.3319  -16.6979 N   0  0  0  0  0  0  0  0  0  0  0  0
   21.4803  -27.0354  -15.6963 C   0  0  0  0  0  0  0  0  0  0  0  0
   21.8838  -27.4185  -14.5675 O   0  0  0  0  0  0  0  0  0  0  0  0
   21.9522  -30.4212  -19.0317 C   0  0  0  0  0  0  0  0  0  0  0  0
   22.2609  -30.8268  -20.3205 C   0  0  0  0  0  0  0  0  0  0  0  0
   20.5687  -25.9447  -15.7531 N   0  0  0  0  0  0  0  0  0  0  0  0
   20.0866  -25.2123  -14.6132 C   0  0  1  0  0  0  0  0  0  0  0  0
   19.7191  -23.8024  -14.8359 C   0  0  0  0  0  0  0  0  0  0  0  0
   19.1279  -22.9942  -13.7656 C   0  0  0  0  0  0  0  0  0  0  0  0
   18.7347  -21.6108  -14.0861 C   0  0  0  0  0  0  0  0  0  0  0  0
   18.5536  -21.1329  -15.2273 O   0  0  0  0  0  0  0  0  0  0  0  0
   19.1131  -25.9860  -13.8141 C   0  0  0  0  0  0  0  0  0  0  0  0
   17.9521  -26.2917  -14.2171 O   0  0  0  0  0  0  0  0  0  0  0  0
   18.5343  -20.7115  -13.0361 O   0  0  0  0  0  0  0  0  0  0  0  0
   20.0910  -26.6742   -9.7382 C   0  0  0  0  0  0  0  0  0  0  0  0
   19.4242  -27.7847  -10.5379 C   0  0  2  0  0  0  0  0  0  0  0  0
   20.5259  -28.6405  -11.1114 C   0  0  0  0  0  0  0  0  0  0  0  0
   18.5754  -27.1769  -11.6504 C   0  0  2  0  0  0  0  0  0  0  0  0
   19.4724  -26.4259  -12.5145 N   0  0  0  0  0  0  0  0  0  0  0  0
   17.6270  -26.2430  -10.9727 C   0  0  0  0  0  0  0  0  0  0  0  0
   17.8869  -24.8932  -10.8413 O   0  0  0  0  0  0  0  0  0  0  0  0
   16.5573  -26.6993  -10.5062 O   0  0  0  0  0  0  0  0  0  0  0  0
  2  1  1  0
  3  2  2  0
  4  3  1  0
  5 11  1  0
  5  4  2  0
  6  5  1  0
  7  6  1  0
  7  8  1  1
  9  7  1  0
  9 10  2  0
 11 12  2  0
 12  2  1  0
 13  9  1  0
 14 13  1  0
 14 15  1  6
 16 15  1  0
 16 17  1  0
 17 18  2  0
 19 14  1  0
 20 19  2  0
 21 17  1  0
 23 22  1  6
 23 25  1  0
 24 23  1  0
 25 27  1  0
 25 26  1  6
 26 19  1  0
 27 28  1  0
 29 27  2  0
M  END
$$$$
