YEV.pdb
     RDKit          3D

 29 29  0  0  1  0  0  0  0  0999 V2000
   30.2612  -27.6743  -18.1638 O   0  0  0  0  0  0  0  0  0  0  0  0
   29.7898  -26.5207  -17.5274 C   0  0  0  0  0  0  0  0  0  0  0  0
   30.6875  -25.6253  -16.9762 C   0  0  0  0  0  0  0  0  0  0  0  0
   30.2512  -24.4792  -16.3430 C   0  0  0  0  0  0  0  0  0  0  0  0
   28.9093  -24.1908  -16.2397 C   0  0  0  0  0  0  0  0  0  0  0  0
   28.4231  -22.9424  -15.5526 C   0  0  0  0  0  0  0  0  0  0  0  0
   27.8959  -21.9547  -16.5768 C   0  0  2  0  0  0  0  0  0  0  0  0
   29.0949  -21.3526  -17.1773 N   0  0  0  0  0  0  0  0  0  0  0  0
   27.0654  -20.9092  -15.9774 C   0  0  0  0  0  0  0  0  0  0  0  0
   27.5669  -20.0128  -15.2504 O   0  0  0  0  0  0  0  0  0  0  0  0
   28.0266  -25.0821  -16.7878 C   0  0  0  0  0  0  0  0  0  0  0  0
   28.4501  -26.2368  -17.4266 C   0  0  0  0  0  0  0  0  0  0  0  0
   25.6617  -20.8854  -16.2074 N   0  0  0  0  0  0  0  0  0  0  0  0
   24.7063  -20.1699  -15.4052 C   0  0  1  0  0  0  0  0  0  0  0  0
   23.7346  -19.3259  -16.1236 C   0  0  0  0  0  0  0  0  0  0  0  0
   22.6414  -18.6554  -15.4140 C   0  0  0  0  0  0  0  0  0  0  0  0
   21.6786  -17.8771  -16.2129 C   0  0  0  0  0  0  0  0  0  0  0  0
   20.6663  -18.3196  -16.7986 O   0  0  0  0  0  0  0  0  0  0  0  0
   24.1249  -21.0083  -14.3356 C   0  0  0  0  0  0  0  0  0  0  0  0
   23.5099  -22.0953  -14.5452 O   0  0  0  0  0  0  0  0  0  0  0  0
   21.8826  -16.5024  -16.3541 O   0  0  0  0  0  0  0  0  0  0  0  0
   24.4262  -19.5168  -10.3413 C   0  0  0  0  0  0  0  0  0  0  0  0
   24.5019  -21.0087  -10.6344 C   0  0  2  0  0  0  0  0  0  0  0  0
   25.9547  -21.3416  -10.8661 C   0  0  0  0  0  0  0  0  0  0  0  0
   23.6683  -21.3314  -11.8707 C   0  0  2  0  0  0  0  0  0  0  0  0
   24.2475  -20.5964  -12.9840 N   0  0  0  0  0  0  0  0  0  0  0  0
   22.2973  -20.8135  -11.5819 C   0  0  0  0  0  0  0  0  0  0  0  0
   21.3754  -21.5332  -10.8478 O   0  0  0  0  0  0  0  0  0  0  0  0
   21.9710  -19.6862  -12.0210 O   0  0  0  0  0  0  0  0  0  0  0  0
  2  1  1  0
  3  2  2  0
  4  3  1  0
  5 11  1  0
  5  4  2  0
  6  5  1  0
  7  6  1  0
  7  8  1  1
  9  7  1  0
  9 10  2  0
 11 12  2  0
 12  2  1  0
 13  9  1  0
 14 13  1  0
 14 15  1  6
 16 15  1  0
 16 17  1  0
 17 18  2  0
 19 14  1  0
 20 19  2  0
 21 17  1  0
 23 22  1  6
 23 25  1  0
 24 23  1  0
 25 27  1  0
 25 26  1  6
 26 19  1  0
 27 28  1  0
 29 27  2  0
M  END
$$$$
