YEV.pdb
     RDKit          3D

 29 29  0  0  1  0  0  0  0  0999 V2000
   23.7420  -21.4511   -7.3272 O   0  0  0  0  0  0  0  0  0  0  0  0
   24.1864  -21.0743   -8.5994 C   0  0  0  0  0  0  0  0  0  0  0  0
   23.2683  -20.8464   -9.6076 C   0  0  0  0  0  0  0  0  0  0  0  0
   23.6778  -20.4735  -10.8717 C   0  0  0  0  0  0  0  0  0  0  0  0
   25.0123  -20.3167  -11.1695 C   0  0  0  0  0  0  0  0  0  0  0  0
   25.4694  -19.9084  -12.5448 C   0  0  0  0  0  0  0  0  0  0  0  0
   24.7124  -20.6926  -13.6004 C   0  0  2  0  0  0  0  0  0  0  0  0
   25.2929  -22.0425  -13.5611 N   0  0  0  0  0  0  0  0  0  0  0  0
   24.8662  -20.1276  -14.9418 C   0  0  0  0  0  0  0  0  0  0  0  0
   25.8798  -20.3782  -15.6442 O   0  0  0  0  0  0  0  0  0  0  0  0
   25.9155  -20.5442  -10.1662 C   0  0  0  0  0  0  0  0  0  0  0  0
   25.5189  -20.9191   -8.8921 C   0  0  0  0  0  0  0  0  0  0  0  0
   23.8630  -19.2764  -15.4832 N   0  0  0  0  0  0  0  0  0  0  0  0
   23.9408  -18.6176  -16.7591 C   0  0  1  0  0  0  0  0  0  0  0  0
   22.6684  -18.1752  -17.3575 C   0  0  0  0  0  0  0  0  0  0  0  0
   22.6264  -17.5759  -18.6943 C   0  0  0  0  0  0  0  0  0  0  0  0
   21.3054  -17.2539  -19.2621 C   0  0  0  0  0  0  0  0  0  0  0  0
   20.4418  -18.0708  -19.6502 O   0  0  0  0  0  0  0  0  0  0  0  0
   25.0300  -17.6199  -16.8153 C   0  0  0  0  0  0  0  0  0  0  0  0
   25.0937  -16.6001  -16.0672 O   0  0  0  0  0  0  0  0  0  0  0  0
   20.9438  -15.9114  -19.3966 O   0  0  0  0  0  0  0  0  0  0  0  0
   28.6419  -18.8686  -18.1992 C   0  0  0  0  0  0  0  0  0  0  0  0
   28.4437  -17.5978  -17.3849 C   0  0  2  0  0  0  0  0  0  0  0  0
   28.2894  -18.0148  -15.9436 C   0  0  0  0  0  0  0  0  0  0  0  0
   27.1979  -16.8650  -17.8733 C   0  0  2  0  0  0  0  0  0  0  0  0
   26.0807  -17.7884  -17.7530 N   0  0  0  0  0  0  0  0  0  0  0  0
   27.4466  -16.5576  -19.3136 C   0  0  0  0  0  0  0  0  0  0  0  0
   28.3424  -15.5876  -19.7178 O   0  0  0  0  0  0  0  0  0  0  0  0
   26.8207  -17.2021  -20.1872 O   0  0  0  0  0  0  0  0  0  0  0  0
  2  1  1  0
  3  2  2  0
  4  3  1  0
  5 11  1  0
  5  4  2  0
  6  5  1  0
  7  6  1  0
  7  8  1  6
  9  7  1  0
  9 10  2  0
 11 12  2  0
 12  2  1  0
 13  9  1  0
 14 13  1  0
 14 15  1  1
 16 15  1  0
 16 17  1  0
 17 18  2  0
 19 14  1  0
 20 19  2  0
 21 17  1  0
 23 22  1  6
 23 25  1  0
 24 23  1  0
 25 27  1  0
 25 26  1  6
 26 19  1  0
 27 28  1  0
 29 27  2  0
M  END
$$$$
