YEV.pdb
     RDKit          3D

 29 29  0  0  1  0  0  0  0  0999 V2000
   29.5211  -29.4149  -18.2649 O   0  0  0  0  0  0  0  0  0  0  0  0
   29.2943  -28.1498  -17.7117 C   0  0  0  0  0  0  0  0  0  0  0  0
   30.3461  -27.2637  -17.5706 C   0  0  0  0  0  0  0  0  0  0  0  0
   30.1517  -26.0093  -17.0288 C   0  0  0  0  0  0  0  0  0  0  0  0
   28.9055  -25.6002  -16.6115 C   0  0  0  0  0  0  0  0  0  0  0  0
   28.6825  -24.2334  -16.0208 C   0  0  0  0  0  0  0  0  0  0  0  0
   27.9257  -23.3580  -17.0023 C   0  0  2  0  0  0  0  0  0  0  0  0
   28.9528  -22.8286  -17.9108 N   0  0  0  0  0  0  0  0  0  0  0  0
   27.2265  -22.2509  -16.3483 C   0  0  0  0  0  0  0  0  0  0  0  0
   27.8180  -21.1740  -16.0764 O   0  0  0  0  0  0  0  0  0  0  0  0
   27.8691  -26.4832  -16.7544 C   0  0  0  0  0  0  0  0  0  0  0  0
   28.0493  -27.7458  -17.2968 C   0  0  0  0  0  0  0  0  0  0  0  0
   25.8513  -22.3715  -16.0045 N   0  0  0  0  0  0  0  0  0  0  0  0
   25.0953  -21.3922  -15.2714 C   0  0  1  0  0  0  0  0  0  0  0  0
   24.0289  -20.6888  -16.0067 C   0  0  0  0  0  0  0  0  0  0  0  0
   22.7849  -21.3704  -16.3756 C   0  0  0  0  0  0  0  0  0  0  0  0
   21.6029  -20.5376  -16.6592 C   0  0  0  0  0  0  0  0  0  0  0  0
   21.5471  -19.5651  -17.4433 O   0  0  0  0  0  0  0  0  0  0  0  0
   24.7086  -21.8669  -13.9260 C   0  0  0  0  0  0  0  0  0  0  0  0
   24.1154  -22.9641  -13.7071 O   0  0  0  0  0  0  0  0  0  0  0  0
   20.4039  -20.8326  -16.0059 O   0  0  0  0  0  0  0  0  0  0  0  0
   26.7739  -21.1235  -10.5826 C   0  0  0  0  0  0  0  0  0  0  0  0
   25.3488  -20.6016  -10.4648 C   0  0  2  0  0  0  0  0  0  0  0  0
   24.8923  -20.8744   -9.0533 C   0  0  0  0  0  0  0  0  0  0  0  0
   24.4549  -21.3192  -11.4715 C   0  0  2  0  0  0  0  0  0  0  0  0
   25.0069  -21.0672  -12.7933 N   0  0  0  0  0  0  0  0  0  0  0  0
   23.1124  -20.6751  -11.3533 C   0  0  0  0  0  0  0  0  0  0  0  0
   22.1139  -21.1908  -10.5510 O   0  0  0  0  0  0  0  0  0  0  0  0
   22.8829  -19.6297  -12.0050 O   0  0  0  0  0  0  0  0  0  0  0  0
  2  1  1  0
  3  2  2  0
  4  3  1  0
  5 11  1  0
  5  4  2  0
  6  5  1  0
  7  6  1  0
  7  8  1  6
  9  7  1  0
  9 10  2  0
 11 12  2  0
 12  2  1  0
 13  9  1  0
 14 13  1  0
 14 15  1  6
 16 15  1  0
 16 17  1  0
 17 18  2  0
 19 14  1  0
 20 19  2  0
 21 17  1  0
 23 22  1  1
 23 25  1  0
 24 23  1  0
 25 27  1  0
 25 26  1  6
 26 19  1  0
 27 28  1  0
 29 27  2  0
M  END
$$$$
