PYE.pdb
     RDKit          3D

 29 30  0  0  1  0  0  0  0  0999 V2000
    7.7364  -15.3867   18.8240 N   0  0  0  0  0  0  0  0  0  0  0  0
    6.7447  -14.3702   18.6410 C   0  0  0  0  0  0  0  0  0  0  0  0
    7.4497  -13.0498   18.5476 C   0  0  0  0  0  0  0  0  0  0  0  0
    8.8749  -13.4658   18.2574 C   0  0  0  0  0  0  0  0  0  0  0  0
    8.9993  -14.7459   19.0315 C   0  0  1  0  0  0  0  0  0  0  0  0
    9.2060  -14.4978   20.4896 C   0  0  0  0  0  0  0  0  0  0  0  0
   10.2416  -13.9392   20.8839 O   0  0  0  0  0  0  0  0  0  0  0  0
    6.9676  -12.3848   28.6983 O   0  0  0  0  0  0  0  0  0  0  0  0
    6.9551  -12.8733   27.3974 C   0  0  0  0  0  0  0  0  0  0  0  0
    6.6999  -14.2150   27.1382 C   0  0  0  0  0  0  0  0  0  0  0  0
    6.6811  -14.7295   25.8537 C   0  0  0  0  0  0  0  0  0  0  0  0
    6.9203  -13.9059   24.7746 C   0  0  0  0  0  0  0  0  0  0  0  0
    6.9053  -14.4300   23.4079 C   0  0  0  0  0  0  0  0  0  0  0  0
    8.3250  -14.6214   22.8571 C   0  0  2  0  0  0  0  0  0  0  0  0
    8.2383  -14.8874   21.4566 N   0  0  0  0  0  0  0  0  0  0  0  0
    8.9853  -15.7198   23.6134 C   0  0  0  0  0  0  0  0  0  0  0  0
    8.5809  -16.9008   23.4697 O   0  0  0  0  0  0  0  0  0  0  0  0
    7.1757  -12.5696   25.0143 C   0  0  0  0  0  0  0  0  0  0  0  0
    7.1926  -12.0617   26.3079 C   0  0  0  0  0  0  0  0  0  0  0  0
   10.0662  -15.4921   24.5026 N   0  0  0  0  0  0  0  0  0  0  0  0
   10.7948  -16.6023   25.1613 C   0  0  1  0  0  0  0  0  0  0  0  0
   12.2608  -16.4511   24.9528 C   0  0  0  0  0  0  0  0  0  0  0  0
   12.6805  -16.8266   23.5581 C   0  0  0  0  0  0  0  0  0  0  0  0
   14.1612  -16.6617   23.3861 C   0  0  0  0  0  0  0  0  0  0  0  0
   14.8344  -16.2897   24.3750 O   0  0  0  0  0  0  0  0  0  0  0  0
   10.3499  -16.7113   26.5619 C   0  0  0  0  0  0  0  0  0  0  0  0
    9.6446  -15.8126   27.0607 O   0  0  0  0  0  0  0  0  0  0  0  0
   14.7939  -16.9033   22.1912 O   0  0  0  0  0  0  0  0  0  0  0  0
   10.6831  -17.7901   27.3777 O   0  0  0  0  0  0  0  0  0  0  0  0
  1  5  1  0
  2  3  1  0
  2  1  1  0
  3  4  1  0
  4  5  1  0
  5  6  1  1
  6  7  2  0
  8  9  1  0
  9 10  2  0
 10 11  1  0
 12 11  2  0
 12 13  1  0
 14 13  1  1
 14 15  1  0
 15  6  1  0
 16 14  1  0
 16 17  2  0
 18 12  1  0
 19  9  1  0
 19 18  2  0
 20 16  1  0
 21 20  1  0
 21 22  1  1
 22 23  1  0
 23 24  1  0
 24 25  2  0
 24 28  1  0
 26 21  1  0
 27 26  2  0
 29 26  1  0
M  END
$$$$
