PYE.pdb
     RDKit          3D

 29 30  0  0  1  0  0  0  0  0999 V2000
    7.0256  -15.1902   18.9357 N   0  0  0  0  0  0  0  0  0  0  0  0
    6.2311  -13.9994   18.9085 C   0  0  0  0  0  0  0  0  0  0  0  0
    7.1591  -12.8289   18.7752 C   0  0  0  0  0  0  0  0  0  0  0  0
    8.4374  -13.4842   18.3008 C   0  0  0  0  0  0  0  0  0  0  0  0
    8.4025  -14.8065   19.0104 C   0  0  1  0  0  0  0  0  0  0  0  0
    8.8152  -14.6828   20.4403 C   0  0  0  0  0  0  0  0  0  0  0  0
   10.0043  -14.4742   20.7278 O   0  0  0  0  0  0  0  0  0  0  0  0
    7.6719  -12.8772   29.0296 O   0  0  0  0  0  0  0  0  0  0  0  0
    7.4695  -13.2574   27.7085 C   0  0  0  0  0  0  0  0  0  0  0  0
    7.3092  -14.5946   27.3642 C   0  0  0  0  0  0  0  0  0  0  0  0
    7.1063  -15.0026   26.0575 C   0  0  0  0  0  0  0  0  0  0  0  0
    7.0569  -14.0723   25.0416 C   0  0  0  0  0  0  0  0  0  0  0  0
    6.8435  -14.4827   23.6529 C   0  0  0  0  0  0  0  0  0  0  0  0
    8.1669  -14.5937   22.8833 C   0  0  2  0  0  0  0  0  0  0  0  0
    7.8740  -14.7984   21.5006 N   0  0  0  0  0  0  0  0  0  0  0  0
    8.9695  -15.6992   23.4732 C   0  0  0  0  0  0  0  0  0  0  0  0
    8.5878  -16.8875   23.3278 O   0  0  0  0  0  0  0  0  0  0  0  0
    7.2143  -12.7388   25.3663 C   0  0  0  0  0  0  0  0  0  0  0  0
    7.4177  -12.3383   26.6815 C   0  0  0  0  0  0  0  0  0  0  0  0
   10.1636  -15.4705   24.2031 N   0  0  0  0  0  0  0  0  0  0  0  0
   11.0978  -16.5668   24.5535 C   0  0  1  0  0  0  0  0  0  0  0  0
   12.5048  -16.1346   24.3319 C   0  0  0  0  0  0  0  0  0  0  0  0
   13.4974  -17.1767   24.7693 C   0  0  0  0  0  0  0  0  0  0  0  0
   14.8185  -16.9705   24.0901 C   0  0  0  0  0  0  0  0  0  0  0  0
   15.0517  -17.6138   23.0408 O   0  0  0  0  0  0  0  0  0  0  0  0
   10.7798  -17.0619   25.9045 C   0  0  0  0  0  0  0  0  0  0  0  0
   11.2518  -18.1477   26.2946 O   0  0  0  0  0  0  0  0  0  0  0  0
   15.7692  -16.1076   24.5782 O   0  0  0  0  0  0  0  0  0  0  0  0
    9.9608  -16.3652   26.7900 O   0  0  0  0  0  0  0  0  0  0  0  0
  1  5  1  0
  2  3  1  0
  2  1  1  0
  3  4  1  0
  4  5  1  0
  5  6  1  1
  6  7  2  0
  8  9  1  0
  9 10  2  0
 10 11  1  0
 12 11  2  0
 12 13  1  0
 14 13  1  1
 14 15  1  0
 15  6  1  0
 16 14  1  0
 16 17  2  0
 18 12  1  0
 19  9  1  0
 19 18  2  0
 20 16  1  0
 21 20  1  0
 21 22  1  1
 22 23  1  0
 23 24  1  0
 24 25  2  0
 24 28  1  0
 26 21  1  0
 27 26  2  0
 29 26  1  0
M  END
$$$$
