PYE.pdb
     RDKit          3D

 29 30  0  0  1  0  0  0  0  0999 V2000
    6.5952  -13.8844   20.3388 N   0  0  0  0  0  0  0  0  0  0  0  0
    7.1102  -12.7306   19.6653 C   0  0  0  0  0  0  0  0  0  0  0  0
    8.4534  -13.0872   19.1014 C   0  0  0  0  0  0  0  0  0  0  0  0
    8.4267  -14.5993   19.1381 C   0  0  0  0  0  0  0  0  0  0  0  0
    7.6267  -14.8759   20.3778 C   0  0  1  0  0  0  0  0  0  0  0  0
    8.4428  -14.7070   21.6171 C   0  0  0  0  0  0  0  0  0  0  0  0
    9.5705  -14.1932   21.5530 O   0  0  0  0  0  0  0  0  0  0  0  0
   10.2834  -14.4480   30.2875 O   0  0  0  0  0  0  0  0  0  0  0  0
    9.6458  -14.5722   29.0591 C   0  0  0  0  0  0  0  0  0  0  0  0
    9.3697  -15.8226   28.5182 C   0  0  0  0  0  0  0  0  0  0  0  0
    8.7363  -15.9769   27.2975 C   0  0  0  0  0  0  0  0  0  0  0  0
    8.3546  -14.8696   26.5709 C   0  0  0  0  0  0  0  0  0  0  0  0
    7.6837  -15.0106   25.2776 C   0  0  0  0  0  0  0  0  0  0  0  0
    8.6860  -15.0177   24.1152 C   0  0  2  0  0  0  0  0  0  0  0  0
    7.9611  -15.1230   22.8892 N   0  0  0  0  0  0  0  0  0  0  0  0
    9.6429  -16.1391   24.3182 C   0  0  0  0  0  0  0  0  0  0  0  0
    9.2405  -17.3242   24.2068 O   0  0  0  0  0  0  0  0  0  0  0  0
    8.6213  -13.6190   27.0939 C   0  0  0  0  0  0  0  0  0  0  0  0
    9.2580  -13.4737   28.3207 C   0  0  0  0  0  0  0  0  0  0  0  0
   11.0087  -15.9292   24.6364 N   0  0  0  0  0  0  0  0  0  0  0  0
   12.0274  -16.9959   24.4889 C   0  0  1  0  0  0  0  0  0  0  0  0
   13.2415  -16.4588   23.8159 C   0  0  0  0  0  0  0  0  0  0  0  0
   14.3307  -17.4892   23.6963 C   0  0  0  0  0  0  0  0  0  0  0  0
   15.5536  -16.8985   23.0601 C   0  0  0  0  0  0  0  0  0  0  0  0
   15.5336  -16.6826   21.8263 O   0  0  0  0  0  0  0  0  0  0  0  0
   12.2461  -17.6420   25.7952 C   0  0  0  0  0  0  0  0  0  0  0  0
   11.9798  -17.0250   26.8450 O   0  0  0  0  0  0  0  0  0  0  0  0
   16.6815  -16.5906   23.7810 O   0  0  0  0  0  0  0  0  0  0  0  0
   12.7462  -18.9358   25.9226 O   0  0  0  0  0  0  0  0  0  0  0  0
  1  5  1  0
  2  3  1  0
  2  1  1  0
  3  4  1  0
  4  5  1  0
  5  6  1  1
  6  7  2  0
  8  9  1  0
  9 10  2  0
 10 11  1  0
 12 11  2  0
 12 13  1  0
 14 13  1  1
 14 15  1  0
 15  6  1  0
 16 14  1  0
 16 17  2  0
 18 12  1  0
 19  9  1  0
 19 18  2  0
 20 16  1  0
 21 20  1  0
 21 22  1  1
 22 23  1  0
 23 24  1  0
 24 25  2  0
 24 28  1  0
 26 21  1  0
 27 26  2  0
 29 26  1  0
M  END
$$$$
