PYE.pdb
     RDKit          3D

 29 30  0  0  1  0  0  0  0  0999 V2000
    6.8866  -15.1888   20.1206 N   0  0  0  0  0  0  0  0  0  0  0  0
    6.0521  -14.0264   20.1723 C   0  0  0  0  0  0  0  0  0  0  0  0
    6.8898  -12.8405   19.7970 C   0  0  0  0  0  0  0  0  0  0  0  0
    8.0837  -13.4877   19.1305 C   0  0  0  0  0  0  0  0  0  0  0  0
    8.2362  -14.7604   19.9118 C   0  0  1  0  0  0  0  0  0  0  0  0
    8.9021  -14.5298   21.2285 C   0  0  0  0  0  0  0  0  0  0  0  0
   10.0741  -14.1238   21.2692 O   0  0  0  0  0  0  0  0  0  0  0  0
    9.8384  -14.1407   30.0464 O   0  0  0  0  0  0  0  0  0  0  0  0
    9.3201  -14.2578   28.7624 C   0  0  0  0  0  0  0  0  0  0  0  0
    8.9805  -13.1318   28.0213 C   0  0  0  0  0  0  0  0  0  0  0  0
    8.4626  -13.2178   26.7409 C   0  0  0  0  0  0  0  0  0  0  0  0
    8.2660  -14.4499   26.1550 C   0  0  0  0  0  0  0  0  0  0  0  0
    7.7191  -14.5630   24.8020 C   0  0  0  0  0  0  0  0  0  0  0  0
    8.8284  -14.7037   23.7506 C   0  0  2  0  0  0  0  0  0  0  0  0
    8.2253  -14.7645   22.4574 N   0  0  0  0  0  0  0  0  0  0  0  0
    9.6353  -15.9129   24.0685 C   0  0  0  0  0  0  0  0  0  0  0  0
    9.1307  -17.0529   23.9118 O   0  0  0  0  0  0  0  0  0  0  0  0
    8.5983  -15.5794   26.8777 C   0  0  0  0  0  0  0  0  0  0  0  0
    9.1179  -15.4834   28.1631 C   0  0  0  0  0  0  0  0  0  0  0  0
   10.9679  -15.8372   24.5475 N   0  0  0  0  0  0  0  0  0  0  0  0
   11.8806  -17.0052   24.5323 C   0  0  1  0  0  0  0  0  0  0  0  0
   13.1693  -16.6429   23.8816 C   0  0  0  0  0  0  0  0  0  0  0  0
   14.1553  -17.7787   23.8967 C   0  0  0  0  0  0  0  0  0  0  0  0
   15.4554  -17.3621   23.2759 C   0  0  0  0  0  0  0  0  0  0  0  0
   15.7330  -16.1409   23.2463 O   0  0  0  0  0  0  0  0  0  0  0  0
   11.9787  -17.5620   25.8931 C   0  0  0  0  0  0  0  0  0  0  0  0
   12.4589  -18.6995   26.0651 O   0  0  0  0  0  0  0  0  0  0  0  0
   16.3404  -18.2686   22.7451 O   0  0  0  0  0  0  0  0  0  0  0  0
   11.5536  -16.8692   27.0243 O   0  0  0  0  0  0  0  0  0  0  0  0
  1  5  1  0
  2  3  1  0
  2  1  1  0
  3  4  1  0
  4  5  1  0
  5  6  1  1
  6  7  2  0
  8  9  1  0
  9 10  2  0
 10 11  1  0
 12 11  2  0
 12 13  1  0
 14 13  1  1
 14 15  1  0
 15  6  1  0
 16 14  1  0
 16 17  2  0
 18 12  1  0
 19  9  1  0
 19 18  2  0
 20 16  1  0
 21 20  1  0
 21 22  1  1
 22 23  1  0
 23 24  1  0
 24 25  2  0
 24 28  1  0
 26 21  1  0
 27 26  2  0
 29 26  1  0
M  END
$$$$
