PYE.pdb
     RDKit          3D

 29 30  0  0  1  0  0  0  0  0999 V2000
    7.4645  -15.1351   19.7768 N   0  0  0  0  0  0  0  0  0  0  0  0
    6.5470  -14.0449   19.9169 C   0  0  0  0  0  0  0  0  0  0  0  0
    7.3374  -12.7707   19.8885 C   0  0  0  0  0  0  0  0  0  0  0  0
    8.6541  -13.2219   19.2960 C   0  0  0  0  0  0  0  0  0  0  0  0
    8.7945  -14.6110   19.8471 C   0  0  1  0  0  0  0  0  0  0  0  0
    9.2598  -14.6034   21.2662 C   0  0  0  0  0  0  0  0  0  0  0  0
   10.3539  -14.0960   21.5584 O   0  0  0  0  0  0  0  0  0  0  0  0
    6.0216  -10.4712   26.9808 O   0  0  0  0  0  0  0  0  0  0  0  0
    6.4100  -11.6674   26.3898 C   0  0  0  0  0  0  0  0  0  0  0  0
    5.7348  -12.1732   25.2850 C   0  0  0  0  0  0  0  0  0  0  0  0
    6.0988  -13.3613   24.6759 C   0  0  0  0  0  0  0  0  0  0  0  0
    7.1641  -14.0896   25.1604 C   0  0  0  0  0  0  0  0  0  0  0  0
    7.5654  -15.3488   24.5312 C   0  0  0  0  0  0  0  0  0  0  0  0
    8.8397  -15.1838   23.6917 C   0  0  2  0  0  0  0  0  0  0  0  0
    8.4764  -15.1681   22.3106 N   0  0  0  0  0  0  0  0  0  0  0  0
    9.7786  -16.2879   24.0291 C   0  0  0  0  0  0  0  0  0  0  0  0
    9.5106  -17.4610   23.6672 O   0  0  0  0  0  0  0  0  0  0  0  0
    7.8464  -13.6012   26.2580 C   0  0  0  0  0  0  0  0  0  0  0  0
    7.4736  -12.4070   26.8632 C   0  0  0  0  0  0  0  0  0  0  0  0
   10.9802  -16.0744   24.7511 N   0  0  0  0  0  0  0  0  0  0  0  0
   12.0194  -17.1231   24.8836 C   0  0  1  0  0  0  0  0  0  0  0  0
   13.3549  -16.5728   24.5241 C   0  0  0  0  0  0  0  0  0  0  0  0
   14.4469  -17.6002   24.6453 C   0  0  0  0  0  0  0  0  0  0  0  0
   15.7493  -17.0533   24.1414 C   0  0  0  0  0  0  0  0  0  0  0  0
   16.6737  -17.8610   23.8919 O   0  0  0  0  0  0  0  0  0  0  0  0
   11.9147  -17.7444   26.2158 C   0  0  0  0  0  0  0  0  0  0  0  0
   11.2831  -17.1668   27.1220 O   0  0  0  0  0  0  0  0  0  0  0  0
   15.9564  -15.7094   23.9475 O   0  0  0  0  0  0  0  0  0  0  0  0
   12.4974  -18.9716   26.5238 O   0  0  0  0  0  0  0  0  0  0  0  0
  1  5  1  0
  2  3  1  0
  2  1  1  0
  3  4  1  0
  4  5  1  0
  5  6  1  1
  6  7  2  0
  8  9  1  0
  9 10  2  0
 10 11  1  0
 12 11  2  0
 12 13  1  0
 14 13  1  1
 14 15  1  0
 15  6  1  0
 16 14  1  0
 16 17  2  0
 18 12  1  0
 19  9  1  0
 19 18  2  0
 20 16  1  0
 21 20  1  0
 21 22  1  1
 22 23  1  0
 23 24  1  0
 24 25  2  0
 24 28  1  0
 26 21  1  0
 27 26  2  0
 29 26  1  0
M  END
$$$$
