PYE.pdb
     RDKit          3D

 29 30  0  0  1  0  0  0  0  0999 V2000
    7.8689  -15.4374   19.0406 N   0  0  0  0  0  0  0  0  0  0  0  0
    6.8965  -14.4248   18.7588 C   0  0  0  0  0  0  0  0  0  0  0  0
    7.6233  -13.1258   18.5762 C   0  0  0  0  0  0  0  0  0  0  0  0
    9.0472  -13.5830   18.3479 C   0  0  0  0  0  0  0  0  0  0  0  0
    9.1374  -14.7998   19.2223 C   0  0  1  0  0  0  0  0  0  0  0  0
    9.3205  -14.4407   20.6602 C   0  0  0  0  0  0  0  0  0  0  0  0
   10.4246  -14.0451   21.0659 O   0  0  0  0  0  0  0  0  0  0  0  0
    6.9901  -11.9898   28.8381 O   0  0  0  0  0  0  0  0  0  0  0  0
    6.9709  -12.4587   27.5302 C   0  0  0  0  0  0  0  0  0  0  0  0
    7.2314  -11.6097   26.4607 C   0  0  0  0  0  0  0  0  0  0  0  0
    7.2193  -12.0483   25.1483 C   0  0  0  0  0  0  0  0  0  0  0  0
    6.9422  -13.3679   24.8620 C   0  0  0  0  0  0  0  0  0  0  0  0
    6.9240  -13.8523   23.4808 C   0  0  0  0  0  0  0  0  0  0  0  0
    8.3353  -14.1808   22.9751 C   0  0  2  0  0  0  0  0  0  0  0  0
    8.2528  -14.5390   21.5950 N   0  0  0  0  0  0  0  0  0  0  0  0
    8.9035  -15.2659   23.8201 C   0  0  0  0  0  0  0  0  0  0  0  0
    9.0277  -15.0864   25.0575 O   0  0  0  0  0  0  0  0  0  0  0  0
    6.6809  -14.2254   25.9132 C   0  0  0  0  0  0  0  0  0  0  0  0
    6.6954  -13.7759   27.2281 C   0  0  0  0  0  0  0  0  0  0  0  0
    9.3178  -16.5122   23.2855 N   0  0  0  0  0  0  0  0  0  0  0  0
    9.9050  -17.5788   24.1311 C   0  0  1  0  0  0  0  0  0  0  0  0
   10.1616  -18.7983   23.3171 C   0  0  0  0  0  0  0  0  0  0  0  0
   10.6907  -19.9366   24.1459 C   0  0  0  0  0  0  0  0  0  0  0  0
   10.9295  -21.1478   23.2943 C   0  0  0  0  0  0  0  0  0  0  0  0
   10.5203  -21.1294   22.1104 O   0  0  0  0  0  0  0  0  0  0  0  0
   11.0632  -17.0356   24.8627 C   0  0  0  0  0  0  0  0  0  0  0  0
   11.3114  -17.4356   26.0169 O   0  0  0  0  0  0  0  0  0  0  0  0
   11.5758  -22.2635   23.7677 O   0  0  0  0  0  0  0  0  0  0  0  0
   11.9156  -16.0764   24.3207 O   0  0  0  0  0  0  0  0  0  0  0  0
  1  5  1  0
  2  3  1  0
  2  1  1  0
  3  4  1  0
  4  5  1  0
  5  6  1  1
  6  7  2  0
  8  9  1  0
  9 10  2  0
 10 11  1  0
 12 11  2  0
 12 13  1  0
 14 13  1  1
 14 15  1  0
 15  6  1  0
 16 14  1  0
 16 17  2  0
 18 12  1  0
 19  9  1  0
 19 18  2  0
 20 16  1  0
 21 20  1  0
 21 22  1  6
 22 23  1  0
 23 24  1  0
 24 25  2  0
 24 28  1  0
 26 21  1  0
 27 26  2  0
 29 26  1  0
M  END
$$$$
