PYE.pdb
     RDKit          3D

 29 30  0  0  1  0  0  0  0  0999 V2000
    6.9922  -14.9451   20.3180 N   0  0  0  0  0  0  0  0  0  0  0  0
    6.2281  -13.7541   20.5364 C   0  0  0  0  0  0  0  0  0  0  0  0
    7.1241  -12.5785   20.2829 C   0  0  0  0  0  0  0  0  0  0  0  0
    8.2623  -13.2030   19.5064 C   0  0  0  0  0  0  0  0  0  0  0  0
    8.3591  -14.5687   20.1217 C   0  0  1  0  0  0  0  0  0  0  0  0
    9.0682  -14.5392   21.4357 C   0  0  0  0  0  0  0  0  0  0  0  0
   10.2794  -14.2730   21.4820 O   0  0  0  0  0  0  0  0  0  0  0  0
   10.1489  -14.6670   30.2355 O   0  0  0  0  0  0  0  0  0  0  0  0
    9.6071  -14.6588   28.9559 C   0  0  0  0  0  0  0  0  0  0  0  0
    9.1626  -15.8326   28.3584 C   0  0  0  0  0  0  0  0  0  0  0  0
    8.6189  -15.8549   27.0861 C   0  0  0  0  0  0  0  0  0  0  0  0
    8.5017  -14.6874   26.3628 C   0  0  0  0  0  0  0  0  0  0  0  0
    7.9298  -14.6890   25.0154 C   0  0  0  0  0  0  0  0  0  0  0  0
    9.0081  -14.8835   23.9406 C   0  0  2  0  0  0  0  0  0  0  0  0
    8.3889  -14.8106   22.6557 N   0  0  0  0  0  0  0  0  0  0  0  0
    9.6900  -16.1843   24.1799 C   0  0  0  0  0  0  0  0  0  0  0  0
    9.0476  -17.2551   24.0401 O   0  0  0  0  0  0  0  0  0  0  0  0
    8.9385  -13.5116   26.9417 C   0  0  0  0  0  0  0  0  0  0  0  0
    9.4833  -13.4988   28.2202 C   0  0  0  0  0  0  0  0  0  0  0  0
   11.0521  -16.2730   24.5642 N   0  0  0  0  0  0  0  0  0  0  0  0
   11.7107  -17.5707   24.8462 C   0  0  1  0  0  0  0  0  0  0  0  0
   13.0729  -17.5976   24.2468 C   0  0  0  0  0  0  0  0  0  0  0  0
   13.1305  -16.8760   22.9283 C   0  0  0  0  0  0  0  0  0  0  0  0
   14.5031  -16.9689   22.3311 C   0  0  0  0  0  0  0  0  0  0  0  0
   15.3634  -16.1326   22.6914 O   0  0  0  0  0  0  0  0  0  0  0  0
   11.6358  -17.8490   26.2913 C   0  0  0  0  0  0  0  0  0  0  0  0
   11.2306  -16.9666   27.0731 O   0  0  0  0  0  0  0  0  0  0  0  0
   14.8412  -17.9320   21.4121 O   0  0  0  0  0  0  0  0  0  0  0  0
   12.0020  -19.0742   26.8437 O   0  0  0  0  0  0  0  0  0  0  0  0
  1  5  1  0
  2  3  1  0
  2  1  1  0
  3  4  1  0
  4  5  1  0
  5  6  1  1
  6  7  2  0
  8  9  1  0
  9 10  2  0
 10 11  1  0
 12 11  2  0
 12 13  1  0
 14 13  1  1
 14 15  1  0
 15  6  1  0
 16 14  1  0
 16 17  2  0
 18 12  1  0
 19  9  1  0
 19 18  2  0
 20 16  1  0
 21 20  1  0
 21 22  1  1
 22 23  1  0
 23 24  1  0
 24 25  2  0
 24 28  1  0
 26 21  1  0
 27 26  2  0
 29 26  1  0
M  END
$$$$
