PYE.pdb
     RDKit          3D

 29 30  0  0  1  0  0  0  0  0999 V2000
    7.3132  -15.2573   20.2892 N   0  0  0  0  0  0  0  0  0  0  0  0
    6.4104  -14.1542   20.4244 C   0  0  0  0  0  0  0  0  0  0  0  0
    7.1945  -12.8904   20.2318 C   0  0  0  0  0  0  0  0  0  0  0  0
    8.4558  -13.3928   19.5645 C   0  0  0  0  0  0  0  0  0  0  0  0
    8.6440  -14.7372   20.2053 C   0  0  1  0  0  0  0  0  0  0  0  0
    9.2294  -14.6250   21.5746 C   0  0  0  0  0  0  0  0  0  0  0  0
   10.3231  -14.0619   21.7383 O   0  0  0  0  0  0  0  0  0  0  0  0
    5.7576  -10.5237   26.8605 O   0  0  0  0  0  0  0  0  0  0  0  0
    6.2849  -11.7265   26.4062 C   0  0  0  0  0  0  0  0  0  0  0  0
    7.5967  -12.0871   26.6917 C   0  0  0  0  0  0  0  0  0  0  0  0
    8.1485  -13.2778   26.2528 C   0  0  0  0  0  0  0  0  0  0  0  0
    7.3943  -14.1560   25.5045 C   0  0  0  0  0  0  0  0  0  0  0  0
    7.9588  -15.4205   25.0301 C   0  0  0  0  0  0  0  0  0  0  0  0
    9.1059  -15.1933   24.0359 C   0  0  2  0  0  0  0  0  0  0  0  0
    8.5628  -15.1513   22.7157 N   0  0  0  0  0  0  0  0  0  0  0  0
   10.1108  -16.2765   24.2125 C   0  0  0  0  0  0  0  0  0  0  0  0
    9.7874  -17.4665   23.9715 O   0  0  0  0  0  0  0  0  0  0  0  0
    6.0885  -13.8132   25.2116 C   0  0  0  0  0  0  0  0  0  0  0  0
    5.5427  -12.6151   25.6567 C   0  0  0  0  0  0  0  0  0  0  0  0
   11.4369  -16.0242   24.6469 N   0  0  0  0  0  0  0  0  0  0  0  0
   12.4650  -17.0904   24.7071 C   0  0  1  0  0  0  0  0  0  0  0  0
   13.8039  -16.5339   24.3707 C   0  0  0  0  0  0  0  0  0  0  0  0
   14.8813  -17.5832   24.3983 C   0  0  0  0  0  0  0  0  0  0  0  0
   16.2168  -16.9822   24.0749 C   0  0  0  0  0  0  0  0  0  0  0  0
   17.1640  -17.1816   24.8701 O   0  0  0  0  0  0  0  0  0  0  0  0
   12.3631  -17.7904   25.9998 C   0  0  0  0  0  0  0  0  0  0  0  0
   12.9132  -18.8988   26.1505 O   0  0  0  0  0  0  0  0  0  0  0  0
   16.4300  -16.2288   22.9465 O   0  0  0  0  0  0  0  0  0  0  0  0
   11.6687  -17.2674   27.0883 O   0  0  0  0  0  0  0  0  0  0  0  0
  1  5  1  0
  2  3  1  0
  2  1  1  0
  3  4  1  0
  4  5  1  0
  5  6  1  1
  6  7  2  0
  8  9  1  0
  9 10  2  0
 10 11  1  0
 12 11  2  0
 12 13  1  0
 14 13  1  1
 14 15  1  0
 15  6  1  0
 16 14  1  0
 16 17  2  0
 18 12  1  0
 19  9  1  0
 19 18  2  0
 20 16  1  0
 21 20  1  0
 21 22  1  1
 22 23  1  0
 23 24  1  0
 24 25  2  0
 24 28  1  0
 26 21  1  0
 27 26  2  0
 29 26  1  0
M  END
$$$$
