PYE.pdb
     RDKit          3D

 29 30  0  0  1  0  0  0  0  0999 V2000
    7.5676  -15.5136   18.7983 N   0  0  0  0  0  0  0  0  0  0  0  0
    6.7313  -14.3682   18.6014 C   0  0  0  0  0  0  0  0  0  0  0  0
    7.6179  -13.1640   18.4881 C   0  0  0  0  0  0  0  0  0  0  0  0
    8.9679  -13.7840   18.2026 C   0  0  0  0  0  0  0  0  0  0  0  0
    8.9100  -15.0575   18.9951 C   0  0  1  0  0  0  0  0  0  0  0  0
    9.1545  -14.8207   20.4493 C   0  0  0  0  0  0  0  0  0  0  0  0
   10.3126  -14.6646   20.8670 O   0  0  0  0  0  0  0  0  0  0  0  0
    7.3829  -12.4573   28.7804 O   0  0  0  0  0  0  0  0  0  0  0  0
    7.2620  -12.8467   27.4520 C   0  0  0  0  0  0  0  0  0  0  0  0
    7.6883  -12.0177   26.4207 C   0  0  0  0  0  0  0  0  0  0  0  0
    7.5806  -12.3787   25.0891 C   0  0  0  0  0  0  0  0  0  0  0  0
    7.0355  -13.5969   24.7441 C   0  0  0  0  0  0  0  0  0  0  0  0
    6.9121  -13.9979   23.3418 C   0  0  0  0  0  0  0  0  0  0  0  0
    8.2346  -14.5470   22.7892 C   0  0  2  0  0  0  0  0  0  0  0  0
    8.0854  -14.7675   21.3860 N   0  0  0  0  0  0  0  0  0  0  0  0
    8.5840  -15.7867   23.5344 C   0  0  0  0  0  0  0  0  0  0  0  0
    7.8354  -16.7923   23.4491 O   0  0  0  0  0  0  0  0  0  0  0  0
    6.6067  -14.4331   25.7567 C   0  0  0  0  0  0  0  0  0  0  0  0
    6.7189  -14.0621   27.0913 C   0  0  0  0  0  0  0  0  0  0  0  0
    9.7404  -15.8876   24.3489 N   0  0  0  0  0  0  0  0  0  0  0  0
   10.1236  -17.1503   25.0242 C   0  0  1  0  0  0  0  0  0  0  0  0
   11.5735  -17.4214   24.8244 C   0  0  0  0  0  0  0  0  0  0  0  0
   11.8875  -17.8349   23.4127 C   0  0  0  0  0  0  0  0  0  0  0  0
   13.3699  -17.9015   23.1957 C   0  0  0  0  0  0  0  0  0  0  0  0
   13.8017  -17.8065   22.0236 O   0  0  0  0  0  0  0  0  0  0  0  0
    9.6608  -17.1125   26.4227 C   0  0  0  0  0  0  0  0  0  0  0  0
    9.6912  -16.0402   27.0578 O   0  0  0  0  0  0  0  0  0  0  0  0
   14.2580  -18.0617   24.2313 O   0  0  0  0  0  0  0  0  0  0  0  0
    9.1796  -18.2373   27.0889 O   0  0  0  0  0  0  0  0  0  0  0  0
  1  5  1  0
  2  3  1  0
  2  1  1  0
  3  4  1  0
  4  5  1  0
  5  6  1  1
  6  7  2  0
  8  9  1  0
  9 10  2  0
 10 11  1  0
 12 11  2  0
 12 13  1  0
 14 13  1  1
 14 15  1  0
 15  6  1  0
 16 14  1  0
 16 17  2  0
 18 12  1  0
 19  9  1  0
 19 18  2  0
 20 16  1  0
 21 20  1  0
 21 22  1  1
 22 23  1  0
 23 24  1  0
 24 25  2  0
 24 28  1  0
 26 21  1  0
 27 26  2  0
 29 26  1  0
M  END
$$$$
