PYE.pdb
     RDKit          3D

 29 30  0  0  1  0  0  0  0  0999 V2000
    7.5438  -15.2720   18.9864 N   0  0  0  0  0  0  0  0  0  0  0  0
    6.8847  -14.0220   18.7556 C   0  0  0  0  0  0  0  0  0  0  0  0
    7.9386  -12.9652   18.6095 C   0  0  0  0  0  0  0  0  0  0  0  0
    9.1819  -13.7851   18.3440 C   0  0  0  0  0  0  0  0  0  0  0  0
    8.9391  -15.0131   19.1724 C   0  0  1  0  0  0  0  0  0  0  0  0
    9.2196  -14.7738   20.6196 C   0  0  0  0  0  0  0  0  0  0  0  0
   10.3914  -14.7057   21.0222 O   0  0  0  0  0  0  0  0  0  0  0  0
    7.7470  -12.3676   28.9958 O   0  0  0  0  0  0  0  0  0  0  0  0
    7.5665  -12.7357   27.6681 C   0  0  0  0  0  0  0  0  0  0  0  0
    8.5377  -13.4605   26.9870 C   0  0  0  0  0  0  0  0  0  0  0  0
    8.3855  -13.8408   25.6652 C   0  0  0  0  0  0  0  0  0  0  0  0
    7.2411  -13.5030   24.9751 C   0  0  0  0  0  0  0  0  0  0  0  0
    7.0603  -13.8951   23.5765 C   0  0  0  0  0  0  0  0  0  0  0  0
    8.3514  -14.4670   22.9751 C   0  0  2  0  0  0  0  0  0  0  0  0
    8.1697  -14.6189   21.5667 N   0  0  0  0  0  0  0  0  0  0  0  0
    8.6670  -15.7508   23.6581 C   0  0  0  0  0  0  0  0  0  0  0  0
    7.9581  -16.7633   23.4317 O   0  0  0  0  0  0  0  0  0  0  0  0
    6.2655  -12.7827   25.6370 C   0  0  0  0  0  0  0  0  0  0  0  0
    6.4271  -12.4051   26.9646 C   0  0  0  0  0  0  0  0  0  0  0  0
    9.7472  -15.8868   24.5668 N   0  0  0  0  0  0  0  0  0  0  0  0
   10.4245  -17.1845   24.8005 C   0  0  1  0  0  0  0  0  0  0  0  0
   11.5195  -17.3791   23.8112 C   0  0  0  0  0  0  0  0  0  0  0  0
   12.2082  -18.7062   23.9760 C   0  0  0  0  0  0  0  0  0  0  0  0
   12.4156  -19.3661   22.6453 C   0  0  0  0  0  0  0  0  0  0  0  0
   13.2317  -18.8484   21.8484 O   0  0  0  0  0  0  0  0  0  0  0  0
   10.8116  -17.2812   26.2191 C   0  0  0  0  0  0  0  0  0  0  0  0
   11.4090  -18.2945   26.6317 O   0  0  0  0  0  0  0  0  0  0  0  0
   11.7455  -20.5076   22.2786 O   0  0  0  0  0  0  0  0  0  0  0  0
   10.5391  -16.2774   27.1456 O   0  0  0  0  0  0  0  0  0  0  0  0
  1  5  1  0
  2  3  1  0
  2  1  1  0
  3  4  1  0
  4  5  1  0
  5  6  1  1
  6  7  2  0
  8  9  1  0
  9 10  2  0
 10 11  1  0
 12 11  2  0
 12 13  1  0
 14 13  1  1
 14 15  1  0
 15  6  1  0
 16 14  1  0
 16 17  2  0
 18 12  1  0
 19  9  1  0
 19 18  2  0
 20 16  1  0
 21 20  1  0
 21 22  1  6
 22 23  1  0
 23 24  1  0
 24 25  2  0
 24 28  1  0
 26 21  1  0
 27 26  2  0
 29 26  1  0
M  END
$$$$
