YNF.pdb
     RDKit          3D

 32 33  0  0  1  0  0  0  0  0999 V2000
   18.5244  -17.1717  -16.5293 O   0  0  0  0  0  0  0  0  0  0  0  0
   19.5285  -17.9858  -16.0092 C   0  0  0  0  0  0  0  0  0  0  0  0
   20.2093  -17.5823  -14.8797 C   0  0  0  0  0  0  0  0  0  0  0  0
   21.1999  -18.3604  -14.3467 C   0  0  0  0  0  0  0  0  0  0  0  0
   21.5583  -19.5763  -14.9141 C   0  0  0  0  0  0  0  0  0  0  0  0
   22.6368  -20.3932  -14.3124 C   0  0  0  0  0  0  0  0  0  0  0  0
   23.5826  -19.5057  -13.4977 C   0  0  2  0  0  0  0  0  0  0  0  0
   24.0505  -18.4315  -14.3230 N   0  0  0  0  0  0  0  0  0  0  0  0
   24.6921  -20.3268  -12.9468 C   0  0  0  0  0  0  0  0  0  0  0  0
   24.4156  -21.4578  -12.4720 O   0  0  0  0  0  0  0  0  0  0  0  0
   20.8644  -19.9540  -16.0381 C   0  0  0  0  0  0  0  0  0  0  0  0
   19.8616  -19.1889  -16.5958 C   0  0  0  0  0  0  0  0  0  0  0  0
   30.5830  -20.7282  -11.7137 N   0  0  0  0  0  0  0  0  0  0  0  0
   29.4793  -21.2862  -12.3896 C   0  0  0  0  0  0  0  0  0  0  0  0
   29.4233  -22.5558  -12.4274 O   0  0  0  0  0  0  0  0  0  0  0  0
   28.3970  -20.5601  -13.0490 C   0  0  0  0  0  0  0  0  0  0  0  0
   27.0812  -20.6332  -12.3147 C   0  0  2  0  0  0  0  0  0  0  0  0
   26.0433  -19.8800  -12.9397 N   0  0  0  0  0  0  0  0  0  0  0  0
   27.2431  -20.2703  -10.8712 C   0  0  0  0  0  0  0  0  0  0  0  0
   28.2165  -19.5627  -10.4882 O   0  0  0  0  0  0  0  0  0  0  0  0
   26.3295  -20.6967   -9.8897 N   0  0  0  0  0  0  0  0  0  0  0  0
   26.6190  -20.7313   -8.4674 C   0  0  1  0  0  0  0  0  0  0  0  0
   27.1436  -19.4302   -7.9645 C   0  0  0  0  0  0  0  0  0  0  0  0
   27.6084  -19.4443   -6.5589 C   0  0  0  0  0  0  0  0  0  0  0  0
   26.7848  -19.1530   -5.4972 C   0  0  0  0  0  0  0  0  0  0  0  0
   27.2824  -19.1884   -4.2198 C   0  0  0  0  0  0  0  0  0  0  0  0
   28.5850  -19.5043   -3.9266 C   0  0  0  0  0  0  0  0  0  0  0  0
   29.3960  -19.7937   -5.0094 C   0  0  0  0  0  0  0  0  0  0  0  0
   28.9192  -19.7645   -6.2961 C   0  0  0  0  0  0  0  0  0  0  0  0
   25.4557  -21.2008   -7.6828 C   0  0  0  0  0  0  0  0  0  0  0  0
   25.7093  -21.9068   -6.6467 O   0  0  0  0  0  0  0  0  0  0  0  0
   24.1484  -20.9361   -7.9820 O   0  0  0  0  0  0  0  0  0  0  0  0
  2  3  2  0
  2  1  1  0
  4  3  1  0
  5  4  2  0
  6  5  1  0
  7  6  1  0
  7  8  1  6
  9  7  1  0
  9 10  2  0
 11  5  1  0
 11 12  2  0
 12  2  1  0
 13 14  1  0
 14 16  1  0
 14 15  2  0
 17 16  1  6
 17 18  1  0
 18  9  1  0
 19 21  1  0
 19 17  1  0
 20 19  2  0
 22 21  1  0
 22 30  1  0
 22 23  1  1
 24 23  1  0
 25 24  2  0
 26 25  1  0
 27 26  2  0
 27 28  1  0
 28 29  2  0
 29 24  1  0
 30 32  1  0
 31 30  2  0
M  END
$$$$
