YNF.pdb
     RDKit          3D

 32 33  0  0  1  0  0  0  0  0999 V2000
   23.1377  -17.0016  -20.7184 O   0  0  0  0  0  0  0  0  0  0  0  0
   22.9845  -15.6416  -20.4567 C   0  0  0  0  0  0  0  0  0  0  0  0
   23.8251  -14.7360  -21.0692 C   0  0  0  0  0  0  0  0  0  0  0  0
   23.6986  -13.3950  -20.8313 C   0  0  0  0  0  0  0  0  0  0  0  0
   22.7290  -12.8940  -19.9724 C   0  0  0  0  0  0  0  0  0  0  0  0
   22.6207  -11.4363  -19.7358 C   0  0  0  0  0  0  0  0  0  0  0  0
   21.4504  -10.8549  -20.5349 C   0  0  2  0  0  0  0  0  0  0  0  0
   21.7295  -10.9741  -21.9357 N   0  0  0  0  0  0  0  0  0  0  0  0
   21.2076   -9.4490  -20.1192 C   0  0  0  0  0  0  0  0  0  0  0  0
   21.1779   -8.5624  -21.0103 O   0  0  0  0  0  0  0  0  0  0  0  0
   21.9053  -13.8178  -19.3758 C   0  0  0  0  0  0  0  0  0  0  0  0
   22.0112  -15.1747  -19.5981 C   0  0  0  0  0  0  0  0  0  0  0  0
   19.9995   -4.9413  -17.8885 N   0  0  0  0  0  0  0  0  0  0  0  0
   19.1869   -5.7978  -18.6582 C   0  0  0  0  0  0  0  0  0  0  0  0
   18.1133   -5.2953  -19.1177 O   0  0  0  0  0  0  0  0  0  0  0  0
   19.4490   -7.1979  -18.9815 C   0  0  0  0  0  0  0  0  0  0  0  0
   20.7266   -7.7308  -18.3821 C   0  0  2  0  0  0  0  0  0  0  0  0
   21.0091   -9.0771  -18.7599 N   0  0  0  0  0  0  0  0  0  0  0  0
   20.7458   -7.5520  -16.8957 C   0  0  0  0  0  0  0  0  0  0  0  0
   19.9566   -8.2041  -16.1564 O   0  0  0  0  0  0  0  0  0  0  0  0
   21.6328   -6.6603  -16.2648 N   0  0  0  0  0  0  0  0  0  0  0  0
   21.8567   -6.6118  -14.8312 C   0  0  1  0  0  0  0  0  0  0  0  0
   22.2910   -7.9270  -14.2811 C   0  0  0  0  0  0  0  0  0  0  0  0
   23.5363   -8.4706  -14.8692 C   0  0  0  0  0  0  0  0  0  0  0  0
   24.1592   -9.5978  -14.3877 C   0  0  0  0  0  0  0  0  0  0  0  0
   25.3095  -10.0472  -14.9839 C   0  0  0  0  0  0  0  0  0  0  0  0
   25.8937   -9.4263  -16.0589 C   0  0  0  0  0  0  0  0  0  0  0  0
   25.2507   -8.2943  -16.5270 C   0  0  0  0  0  0  0  0  0  0  0  0
   24.0985   -7.8269  -15.9458 C   0  0  0  0  0  0  0  0  0  0  0  0
   22.7841   -5.5209  -14.4580 C   0  0  0  0  0  0  0  0  0  0  0  0
   23.0369   -5.3835  -13.2116 O   0  0  0  0  0  0  0  0  0  0  0  0
   23.3820   -4.6631  -15.3385 O   0  0  0  0  0  0  0  0  0  0  0  0
  2  3  2  0
  2  1  1  0
  4  3  1  0
  5  4  2  0
  6  5  1  0
  7  6  1  0
  7  8  1  6
  9  7  1  0
  9 10  2  0
 11  5  1  0
 11 12  2  0
 12  2  1  0
 13 14  1  0
 14 16  1  0
 14 15  2  0
 17 16  1  1
 17 18  1  0
 18  9  1  0
 19 21  1  0
 19 17  1  0
 20 19  2  0
 22 21  1  0
 22 30  1  0
 22 23  1  6
 24 23  1  0
 25 24  2  0
 26 25  1  0
 27 26  2  0
 27 28  1  0
 28 29  2  0
 29 24  1  0
 30 32  1  0
 31 30  2  0
M  END
$$$$
