YNF.pdb
     RDKit          3D

 32 33  0  0  1  0  0  0  0  0999 V2000
   16.0371  -14.3986  -16.3238 O   0  0  0  0  0  0  0  0  0  0  0  0
   16.0510  -13.0094  -16.2169 C   0  0  0  0  0  0  0  0  0  0  0  0
   17.2085  -12.3729  -15.8208 C   0  0  0  0  0  0  0  0  0  0  0  0
   17.2519  -11.0106  -15.7068 C   0  0  0  0  0  0  0  0  0  0  0  0
   16.1442  -10.2191  -15.9820 C   0  0  0  0  0  0  0  0  0  0  0  0
   16.2250   -8.7469  -15.8467 C   0  0  0  0  0  0  0  0  0  0  0  0
   15.5591   -8.2968  -14.5428 C   0  0  2  0  0  0  0  0  0  0  0  0
   14.1671   -8.6356  -14.5818 N   0  0  0  0  0  0  0  0  0  0  0  0
   15.7868   -6.8426  -14.3384 C   0  0  0  0  0  0  0  0  0  0  0  0
   14.8589   -6.0480  -14.6363 O   0  0  0  0  0  0  0  0  0  0  0  0
   15.0046  -10.8787  -16.3744 C   0  0  0  0  0  0  0  0  0  0  0  0
   14.9338  -12.2505  -16.4975 C   0  0  0  0  0  0  0  0  0  0  0  0
   17.1384   -4.5736   -9.8417 N   0  0  0  0  0  0  0  0  0  0  0  0
   16.5074   -5.7982  -10.1390 C   0  0  0  0  0  0  0  0  0  0  0  0
   15.9025   -6.3698   -9.1778 O   0  0  0  0  0  0  0  0  0  0  0  0
   16.4763   -6.4768  -11.4322 C   0  0  0  0  0  0  0  0  0  0  0  0
   17.0700   -5.6665  -12.5575 C   0  0  2  0  0  0  0  0  0  0  0  0
   17.0076   -6.3250  -13.8215 N   0  0  0  0  0  0  0  0  0  0  0  0
   18.4602   -5.2174  -12.2297 C   0  0  0  0  0  0  0  0  0  0  0  0
   18.6808   -4.4742  -11.2328 O   0  0  0  0  0  0  0  0  0  0  0  0
   19.5685   -5.5986  -13.0084 N   0  0  0  0  0  0  0  0  0  0  0  0
   20.9457   -5.2824  -12.6752 C   0  0  1  0  0  0  0  0  0  0  0  0
   21.7797   -6.5043  -12.4956 C   0  0  0  0  0  0  0  0  0  0  0  0
   21.7479   -7.4557  -13.6295 C   0  0  0  0  0  0  0  0  0  0  0  0
   20.9729   -8.5915  -13.6297 C   0  0  0  0  0  0  0  0  0  0  0  0
   20.9903   -9.4273  -14.7167 C   0  0  0  0  0  0  0  0  0  0  0  0
   21.7525   -9.1958  -15.8338 C   0  0  0  0  0  0  0  0  0  0  0  0
   22.5245   -8.0479  -15.8124 C   0  0  0  0  0  0  0  0  0  0  0  0
   22.5225   -7.1972  -14.7354 C   0  0  0  0  0  0  0  0  0  0  0  0
   21.5427   -4.3414  -13.6485 C   0  0  0  0  0  0  0  0  0  0  0  0
   20.8473   -4.0727  -14.6880 O   0  0  0  0  0  0  0  0  0  0  0  0
   22.7663   -3.7465  -13.5164 O   0  0  0  0  0  0  0  0  0  0  0  0
  2  3  2  0
  2  1  1  0
  4  3  1  0
  5  4  2  0
  6  5  1  0
  7  6  1  0
  7  8  1  6
  9  7  1  0
  9 10  2  0
 11  5  1  0
 11 12  2  0
 12  2  1  0
 13 14  1  0
 14 16  1  0
 14 15  2  0
 17 16  1  1
 17 18  1  0
 18  9  1  0
 19 21  1  0
 19 17  1  0
 20 19  2  0
 22 21  1  0
 22 30  1  0
 22 23  1  6
 24 23  1  0
 25 24  2  0
 26 25  1  0
 27 26  2  0
 27 28  1  0
 28 29  2  0
 29 24  1  0
 30 32  1  0
 31 30  2  0
M  END
$$$$
