YNF.pdb
     RDKit          3D

 32 33  0  0  1  0  0  0  0  0999 V2000
   29.5413  -14.8894  -18.4273 O   0  0  0  0  0  0  0  0  0  0  0  0
   28.9249  -15.4962  -17.3349 C   0  0  0  0  0  0  0  0  0  0  0  0
   29.1289  -16.8404  -17.1036 C   0  0  0  0  0  0  0  0  0  0  0  0
   28.5368  -17.4632  -16.0394 C   0  0  0  0  0  0  0  0  0  0  0  0
   27.7141  -16.7759  -15.1564 C   0  0  0  0  0  0  0  0  0  0  0  0
   27.0874  -17.4812  -14.0152 C   0  0  0  0  0  0  0  0  0  0  0  0
   26.3024  -18.6993  -14.5112 C   0  0  2  0  0  0  0  0  0  0  0  0
   25.3071  -18.2701  -15.4490 N   0  0  0  0  0  0  0  0  0  0  0  0
   25.7195  -19.4266  -13.3537 C   0  0  0  0  0  0  0  0  0  0  0  0
   24.6349  -19.0086  -12.8740 O   0  0  0  0  0  0  0  0  0  0  0  0
   27.5280  -15.4384  -15.4101 C   0  0  0  0  0  0  0  0  0  0  0  0
   28.1128  -14.7862  -16.4753 C   0  0  0  0  0  0  0  0  0  0  0  0
   25.0819  -23.6495  -14.4058 N   0  0  0  0  0  0  0  0  0  0  0  0
   24.6935  -22.9162  -13.2666 C   0  0  0  0  0  0  0  0  0  0  0  0
   23.5542  -22.3543  -13.3183 O   0  0  0  0  0  0  0  0  0  0  0  0
   25.4611  -22.7352  -12.0372 C   0  0  0  0  0  0  0  0  0  0  0  0
   25.7406  -21.2910  -11.7029 C   0  0  2  0  0  0  0  0  0  0  0  0
   26.3417  -20.5691  -12.7766 N   0  0  0  0  0  0  0  0  0  0  0  0
   26.5302  -21.1688  -10.4366 C   0  0  0  0  0  0  0  0  0  0  0  0
   27.6593  -21.7228  -10.3235 O   0  0  0  0  0  0  0  0  0  0  0  0
   26.0546  -20.4408   -9.3304 N   0  0  0  0  0  0  0  0  0  0  0  0
   26.5641  -20.5871   -7.9789 C   0  0  1  0  0  0  0  0  0  0  0  0
   27.5244  -19.5069   -7.6157 C   0  0  0  0  0  0  0  0  0  0  0  0
   28.0273  -19.5587   -6.2242 C   0  0  0  0  0  0  0  0  0  0  0  0
   27.6785  -18.6329   -5.2693 C   0  0  0  0  0  0  0  0  0  0  0  0
   28.1802  -18.7442   -3.9979 C   0  0  0  0  0  0  0  0  0  0  0  0
   29.0310  -19.7476   -3.6082 C   0  0  0  0  0  0  0  0  0  0  0  0
   29.3688  -20.6678   -4.5844 C   0  0  0  0  0  0  0  0  0  0  0  0
   28.8786  -20.5759   -5.8630 C   0  0  0  0  0  0  0  0  0  0  0  0
   25.4695  -20.7114   -6.9911 C   0  0  0  0  0  0  0  0  0  0  0  0
   25.7762  -21.2110   -5.8542 O   0  0  0  0  0  0  0  0  0  0  0  0
   24.1730  -20.3342   -7.2043 O   0  0  0  0  0  0  0  0  0  0  0  0
  2  3  2  0
  2  1  1  0
  4  3  1  0
  5  4  2  0
  6  5  1  0
  7  6  1  0
  7  8  1  6
  9  7  1  0
  9 10  2  0
 11  5  1  0
 11 12  2  0
 12  2  1  0
 13 14  1  0
 14 16  1  0
 14 15  2  0
 17 16  1  6
 17 18  1  0
 18  9  1  0
 19 21  1  0
 19 17  1  0
 20 19  2  0
 22 21  1  0
 22 30  1  0
 22 23  1  1
 24 23  1  0
 25 24  2  0
 26 25  1  0
 27 26  2  0
 27 28  1  0
 28 29  2  0
 29 24  1  0
 30 32  1  0
 31 30  2  0
M  END
$$$$
