YNF.pdb
     RDKit          3D

 32 33  0  0  1  0  0  0  0  0999 V2000
   30.3538  -12.7004  -16.7570 O   0  0  0  0  0  0  0  0  0  0  0  0
   29.2124  -11.9163  -16.6029 C   0  0  0  0  0  0  0  0  0  0  0  0
   29.2520  -10.5857  -16.9635 C   0  0  0  0  0  0  0  0  0  0  0  0
   28.1473   -9.7915  -16.8234 C   0  0  0  0  0  0  0  0  0  0  0  0
   26.9520  -10.2858  -16.3176 C   0  0  0  0  0  0  0  0  0  0  0  0
   25.7753   -9.3980  -16.1774 C   0  0  0  0  0  0  0  0  0  0  0  0
   24.6958   -9.7838  -17.1932 C   0  0  2  0  0  0  0  0  0  0  0  0
   25.1962   -9.5691  -18.5189 N   0  0  0  0  0  0  0  0  0  0  0  0
   23.4528   -9.0159  -16.9214 C   0  0  0  0  0  0  0  0  0  0  0  0
   23.3396   -7.8701  -17.4266 O   0  0  0  0  0  0  0  0  0  0  0  0
   26.9402  -11.6141  -15.9664 C   0  0  0  0  0  0  0  0  0  0  0  0
   28.0394  -12.4367  -16.0973 C   0  0  0  0  0  0  0  0  0  0  0  0
   17.9010   -8.3308  -16.2849 N   0  0  0  0  0  0  0  0  0  0  0  0
   18.7824   -8.8874  -15.3364 C   0  0  0  0  0  0  0  0  0  0  0  0
   18.4825   -8.7086  -14.1139 O   0  0  0  0  0  0  0  0  0  0  0  0
   20.0004   -9.6454  -15.6108 C   0  0  0  0  0  0  0  0  0  0  0  0
   21.2095   -8.7803  -15.8663 C   0  0  2  0  0  0  0  0  0  0  0  0
   22.3972   -9.5297  -16.1169 N   0  0  0  0  0  0  0  0  0  0  0  0
   21.4022   -7.7779  -14.7709 C   0  0  0  0  0  0  0  0  0  0  0  0
   22.0331   -8.0825  -13.7202 O   0  0  0  0  0  0  0  0  0  0  0  0
   20.8947   -6.4687  -14.8624 N   0  0  0  0  0  0  0  0  0  0  0  0
   21.1384   -5.4299  -13.8780 C   0  0  1  0  0  0  0  0  0  0  0  0
   22.5728   -5.0296  -13.8203 C   0  0  0  0  0  0  0  0  0  0  0  0
   23.0807   -4.3457  -15.0312 C   0  0  0  0  0  0  0  0  0  0  0  0
   22.7514   -3.0494  -15.3500 C   0  0  0  0  0  0  0  0  0  0  0  0
   23.2615   -2.4775  -16.4872 C   0  0  0  0  0  0  0  0  0  0  0  0
   24.1019   -3.1346  -17.3500 C   0  0  0  0  0  0  0  0  0  0  0  0
   24.4198   -4.4375  -17.0103 C   0  0  0  0  0  0  0  0  0  0  0  0
   23.9210   -5.0298  -15.8772 C   0  0  0  0  0  0  0  0  0  0  0  0
   20.2456   -4.2668  -14.0763 C   0  0  0  0  0  0  0  0  0  0  0  0
   19.4604   -4.3112  -15.0852 O   0  0  0  0  0  0  0  0  0  0  0  0
   20.2003   -3.1650  -13.2685 O   0  0  0  0  0  0  0  0  0  0  0  0
  2  3  2  0
  2  1  1  0
  4  3  1  0
  5  4  2  0
  6  5  1  0
  7  6  1  0
  7  8  1  6
  9  7  1  0
  9 10  2  0
 11  5  1  0
 11 12  2  0
 12  2  1  0
 13 14  1  0
 14 16  1  0
 14 15  2  0
 17 16  1  1
 17 18  1  0
 18  9  1  0
 19 21  1  0
 19 17  1  0
 20 19  2  0
 22 21  1  0
 22 30  1  0
 22 23  1  6
 24 23  1  0
 25 24  2  0
 26 25  1  0
 27 26  2  0
 27 28  1  0
 28 29  2  0
 29 24  1  0
 30 32  1  0
 31 30  2  0
M  END
$$$$
