YNF.pdb
     RDKit          3D

 32 33  0  0  1  0  0  0  0  0999 V2000
    7.6481  -13.1311   -0.5852 O   0  0  0  0  0  0  0  0  0  0  0  0
    8.2319  -13.8762    0.4373 C   0  0  0  0  0  0  0  0  0  0  0  0
    8.5076  -15.2114    0.2288 C   0  0  0  0  0  0  0  0  0  0  0  0
    9.0801  -15.9678    1.2141 C   0  0  0  0  0  0  0  0  0  0  0  0
    9.4045  -15.4295    2.4527 C   0  0  0  0  0  0  0  0  0  0  0  0
   10.0219  -16.2773    3.4979 C   0  0  0  0  0  0  0  0  0  0  0  0
   11.5402  -16.0758    3.5158 C   0  0  2  0  0  0  0  0  0  0  0  0
   12.0596  -16.2815    2.1959 N   0  0  0  0  0  0  0  0  0  0  0  0
   12.1556  -16.9833    4.5188 C   0  0  0  0  0  0  0  0  0  0  0  0
   11.4137  -17.4829    5.4026 O   0  0  0  0  0  0  0  0  0  0  0  0
    9.1192  -14.0977    2.6334 C   0  0  0  0  0  0  0  0  0  0  0  0
    8.5425  -13.3126    1.6573 C   0  0  0  0  0  0  0  0  0  0  0  0
   14.6832  -21.7563    6.0119 N   0  0  0  0  0  0  0  0  0  0  0  0
   14.0540  -20.5392    6.3423 C   0  0  0  0  0  0  0  0  0  0  0  0
   14.0019  -20.2479    7.5787 O   0  0  0  0  0  0  0  0  0  0  0  0
   13.4576  -19.5810    5.4151 C   0  0  0  0  0  0  0  0  0  0  0  0
   14.1077  -18.2202    5.4465 C   0  0  2  0  0  0  0  0  0  0  0  0
   13.5424  -17.3026    4.5118 N   0  0  0  0  0  0  0  0  0  0  0  0
   15.5940  -18.3240    5.2983 C   0  0  0  0  0  0  0  0  0  0  0  0
   16.1232  -18.4335    4.1569 O   0  0  0  0  0  0  0  0  0  0  0  0
   16.4559  -18.3048    6.4103 N   0  0  0  0  0  0  0  0  0  0  0  0
   17.6362  -17.4655    6.5117 C   0  0  1  0  0  0  0  0  0  0  0  0
   17.3286  -16.0256    6.2817 C   0  0  0  0  0  0  0  0  0  0  0  0
   17.6917  -15.5149    4.9403 C   0  0  0  0  0  0  0  0  0  0  0  0
   17.4677  -14.2155    4.5503 C   0  0  0  0  0  0  0  0  0  0  0  0
   17.8327  -13.8098    3.2923 C   0  0  0  0  0  0  0  0  0  0  0  0
   18.4228  -14.6406    2.3737 C   0  0  0  0  0  0  0  0  0  0  0  0
   18.6388  -15.9432    2.7867 C   0  0  0  0  0  0  0  0  0  0  0  0
   18.2817  -16.3710    4.0410 C   0  0  0  0  0  0  0  0  0  0  0  0
   18.3547  -17.6824    7.7869 C   0  0  0  0  0  0  0  0  0  0  0  0
   17.8165  -18.4915    8.6187 O   0  0  0  0  0  0  0  0  0  0  0  0
   19.5365  -17.0889    8.1330 O   0  0  0  0  0  0  0  0  0  0  0  0
  2  3  2  0
  2  1  1  0
  4  3  1  0
  5  4  2  0
  6  5  1  0
  7  6  1  0
  7  8  1  6
  9  7  1  0
  9 10  2  0
 11  5  1  0
 11 12  2  0
 12  2  1  0
 13 14  1  0
 14 16  1  0
 14 15  2  0
 17 16  1  6
 17 18  1  0
 18  9  1  0
 19 21  1  0
 19 17  1  0
 20 19  2  0
 22 21  1  0
 22 30  1  0
 22 23  1  1
 24 23  1  0
 25 24  2  0
 26 25  1  0
 27 26  2  0
 27 28  1  0
 28 29  2  0
 29 24  1  0
 30 32  1  0
 31 30  2  0
M  END
$$$$
