YNF.pdb
     RDKit          3D

 32 33  0  0  1  0  0  0  0  0999 V2000
   29.7325  -22.7839  -17.0681 O   0  0  0  0  0  0  0  0  0  0  0  0
   28.4029  -22.4452  -16.8254 C   0  0  0  0  0  0  0  0  0  0  0  0
   28.1129  -21.4595  -15.9054 C   0  0  0  0  0  0  0  0  0  0  0  0
   26.8173  -21.1060  -15.6463 C   0  0  0  0  0  0  0  0  0  0  0  0
   25.7504  -21.7179  -16.2915 C   0  0  0  0  0  0  0  0  0  0  0  0
   24.3596  -21.3122  -15.9860 C   0  0  0  0  0  0  0  0  0  0  0  0
   23.8335  -22.0911  -14.7766 C   0  0  2  0  0  0  0  0  0  0  0  0
   23.7779  -23.4860  -15.1010 N   0  0  0  0  0  0  0  0  0  0  0  0
   22.5127  -21.5481  -14.3652 C   0  0  0  0  0  0  0  0  0  0  0  0
   21.4813  -22.0169  -14.9105 O   0  0  0  0  0  0  0  0  0  0  0  0
   26.0675  -22.6961  -17.2027 C   0  0  0  0  0  0  0  0  0  0  0  0
   27.3646  -23.0716  -17.4828 C   0  0  0  0  0  0  0  0  0  0  0  0
   21.0645  -21.9664  -10.8301 N   0  0  0  0  0  0  0  0  0  0  0  0
   21.0523  -20.5787  -10.5840 C   0  0  0  0  0  0  0  0  0  0  0  0
   21.0317  -20.2218   -9.3639 O   0  0  0  0  0  0  0  0  0  0  0  0
   21.0608  -19.5117  -11.5815 C   0  0  0  0  0  0  0  0  0  0  0  0
   21.1033  -20.0109  -13.0043 C   0  0  2  0  0  0  0  0  0  0  0  0
   22.3783  -20.5259  -13.3842 N   0  0  0  0  0  0  0  0  0  0  0  0
   20.6144  -18.9683  -13.9613 C   0  0  0  0  0  0  0  0  0  0  0  0
   21.3328  -17.9717  -14.2532 O   0  0  0  0  0  0  0  0  0  0  0  0
   19.3483  -19.0517  -14.5696 N   0  0  0  0  0  0  0  0  0  0  0  0
   19.0216  -18.4608  -15.8548 C   0  0  1  0  0  0  0  0  0  0  0  0
   20.0530  -18.7517  -16.8905 C   0  0  0  0  0  0  0  0  0  0  0  0
   19.7661  -18.1962  -18.2325 C   0  0  0  0  0  0  0  0  0  0  0  0
   19.9985  -16.8816  -18.5616 C   0  0  0  0  0  0  0  0  0  0  0  0
   19.7116  -16.4355  -19.8263 C   0  0  0  0  0  0  0  0  0  0  0  0
   19.1935  -17.2394  -20.8099 C   0  0  0  0  0  0  0  0  0  0  0  0
   18.9674  -18.5580  -20.4573 C   0  0  0  0  0  0  0  0  0  0  0  0
   19.2471  -19.0260  -19.1978 C   0  0  0  0  0  0  0  0  0  0  0  0
   17.6633  -18.8401  -16.3028 C   0  0  0  0  0  0  0  0  0  0  0  0
   17.2416  -18.2960  -17.3810 O   0  0  0  0  0  0  0  0  0  0  0  0
   16.8402  -19.7191  -15.6561 O   0  0  0  0  0  0  0  0  0  0  0  0
  2  3  2  0
  2  1  1  0
  4  3  1  0
  5  4  2  0
  6  5  1  0
  7  6  1  0
  7  8  1  6
  9  7  1  0
  9 10  2  0
 11  5  1  0
 11 12  2  0
 12  2  1  0
 13 14  1  0
 14 16  1  0
 14 15  2  0
 17 16  1  1
 17 18  1  0
 18  9  1  0
 19 21  1  0
 19 17  1  0
 20 19  2  0
 22 21  1  0
 22 30  1  0
 22 23  1  6
 24 23  1  0
 25 24  2  0
 26 25  1  0
 27 26  2  0
 27 28  1  0
 28 29  2  0
 29 24  1  0
 30 32  1  0
 31 30  2  0
M  END
$$$$
