YNF.pdb
     RDKit          3D

 32 33  0  0  1  0  0  0  0  0999 V2000
   22.3943   -8.4671    7.5323 O   0  0  0  0  0  0  0  0  0  0  0  0
   21.6616   -9.6315    7.3115 C   0  0  0  0  0  0  0  0  0  0  0  0
   20.3172   -9.6532    7.6184 C   0  0  0  0  0  0  0  0  0  0  0  0
   19.5726  -10.7819    7.4127 C   0  0  0  0  0  0  0  0  0  0  0  0
   20.1325  -11.9412    6.8917 C   0  0  0  0  0  0  0  0  0  0  0  0
   19.2978  -13.1464    6.6832 C   0  0  0  0  0  0  0  0  0  0  0  0
   18.8116  -13.6940    8.0285 C   0  0  2  0  0  0  0  0  0  0  0  0
   19.9447  -14.0100    8.8472 N   0  0  0  0  0  0  0  0  0  0  0  0
   17.9261  -14.8660    7.8033 C   0  0  0  0  0  0  0  0  0  0  0  0
   18.4554  -16.0033    7.7180 O   0  0  0  0  0  0  0  0  0  0  0  0
   21.4731  -11.8921    6.5950 C   0  0  0  0  0  0  0  0  0  0  0  0
   22.2467  -10.7676    6.7925 C   0  0  0  0  0  0  0  0  0  0  0  0
   12.0759  -16.8575    7.2275 N   0  0  0  0  0  0  0  0  0  0  0  0
   13.4065  -16.8506    7.6923 C   0  0  0  0  0  0  0  0  0  0  0  0
   13.9170  -17.9838    7.9598 O   0  0  0  0  0  0  0  0  0  0  0  0
   14.2568  -15.6809    7.8979 C   0  0  0  0  0  0  0  0  0  0  0  0
   15.6796  -15.8758    7.4361 C   0  0  2  0  0  0  0  0  0  0  0  0
   16.5132  -14.7447    7.6828 N   0  0  0  0  0  0  0  0  0  0  0  0
   15.7320  -16.3063    6.0030 C   0  0  0  0  0  0  0  0  0  0  0  0
   15.4912  -15.4865    5.0731 O   0  0  0  0  0  0  0  0  0  0  0  0
   16.0474  -17.6269    5.6338 N   0  0  0  0  0  0  0  0  0  0  0  0
   16.5891  -18.0039    4.3406 C   0  0  1  0  0  0  0  0  0  0  0  0
   17.7462  -17.1537    3.9416 C   0  0  0  0  0  0  0  0  0  0  0  0
   18.3930  -17.5361    2.6660 C   0  0  0  0  0  0  0  0  0  0  0  0
   17.7137  -17.5928    1.4719 C   0  0  0  0  0  0  0  0  0  0  0  0
   18.3777  -17.9523    0.3273 C   0  0  0  0  0  0  0  0  0  0  0  0
   19.7127  -18.2676    0.2975 C   0  0  0  0  0  0  0  0  0  0  0  0
   20.3766  -18.2044    1.5096 C   0  0  0  0  0  0  0  0  0  0  0  0
   19.7321  -17.8469    2.6674 C   0  0  0  0  0  0  0  0  0  0  0  0
   16.9142  -19.4462    4.2822 C   0  0  0  0  0  0  0  0  0  0  0  0
   16.5720  -20.0692    3.2187 O   0  0  0  0  0  0  0  0  0  0  0  0
   17.5465  -20.1491    5.2695 O   0  0  0  0  0  0  0  0  0  0  0  0
  2  3  2  0
  2  1  1  0
  4  3  1  0
  5  4  2  0
  6  5  1  0
  7  6  1  0
  7  8  1  1
  9  7  1  0
  9 10  2  0
 11  5  1  0
 11 12  2  0
 12  2  1  0
 13 14  1  0
 14 16  1  0
 14 15  2  0
 17 16  1  6
 17 18  1  0
 18  9  1  0
 19 21  1  0
 19 17  1  0
 20 19  2  0
 22 21  1  0
 22 30  1  0
 22 23  1  1
 24 23  1  0
 25 24  2  0
 26 25  1  0
 27 26  2  0
 27 28  1  0
 28 29  2  0
 29 24  1  0
 30 32  1  0
 31 30  2  0
M  END
$$$$
