MWE.pdb
     RDKit          3D

 32 33  0  0  1  0  0  0  0  0999 V2000
   28.6071  -35.7310  -19.1955 C   0  0  0  0  0  0  0  0  0  0  0  0
   28.5696  -34.5311  -17.8708 S   0  0  0  0  0  0  0  0  0  0  0  0
   27.0838  -34.4972  -16.9078 C   0  0  0  0  0  0  0  0  0  0  0  0
   27.0937  -33.5325  -15.7653 C   0  0  0  0  0  0  0  0  0  0  0  0
   27.5008  -32.1640  -16.2205 C   0  0  2  0  0  0  0  0  0  0  0  0
   28.6277  -31.7589  -15.3967 N   0  0  0  0  0  0  0  0  0  0  0  0
   26.3833  -31.1761  -16.0058 C   0  0  0  0  0  0  0  0  0  0  0  0
   26.1852  -30.7001  -14.8666 O   0  0  0  0  0  0  0  0  0  0  0  0
   25.5597  -30.7793  -17.0597 N   0  0  0  0  0  0  0  0  0  0  0  0
   24.4678  -29.7923  -16.9439 C   0  0  1  0  0  0  0  0  0  0  0  0
   24.4781  -29.0432  -18.2035 C   0  0  0  0  0  0  0  0  0  0  0  0
   23.4968  -28.0026  -18.4365 C   0  0  0  0  0  0  0  0  0  0  0  0
   23.3151  -26.8767  -17.6848 C   0  0  0  0  0  0  0  0  0  0  0  0
   22.3089  -26.1793  -18.2154 N   0  0  0  0  0  0  0  0  0  0  0  0
   21.8134  -26.8095  -19.3018 C   0  0  0  0  0  0  0  0  0  0  0  0
   20.7875  -26.4880  -20.1724 C   0  0  0  0  0  0  0  0  0  0  0  0
   20.4730  -27.3287  -21.2347 C   0  0  0  0  0  0  0  0  0  0  0  0
   21.2097  -28.4733  -21.3836 C   0  0  0  0  0  0  0  0  0  0  0  0
   22.2277  -28.7849  -20.5135 C   0  0  0  0  0  0  0  0  0  0  0  0
   22.5600  -27.9592  -19.4439 C   0  0  0  0  0  0  0  0  0  0  0  0
   23.2976  -30.5198  -16.5262 C   0  0  0  0  0  0  0  0  0  0  0  0
   23.0868  -31.6881  -16.9616 O   0  0  0  0  0  0  0  0  0  0  0  0
   22.3461  -30.0004  -15.6356 N   0  0  0  0  0  0  0  0  0  0  0  0
   21.0788  -30.6656  -15.3445 C   0  0  1  0  0  0  0  0  0  0  0  0
   21.2807  -31.4113  -14.0638 C   0  0  0  0  0  0  0  0  0  0  0  0
   21.7337  -32.8026  -14.3297 C   0  0  0  0  0  0  0  0  0  0  0  0
   20.8695  -33.7609  -13.5604 C   0  0  0  0  0  0  0  0  0  0  0  0
   20.0745  -33.2814  -12.7261 O   0  0  0  0  0  0  0  0  0  0  0  0
   20.0187  -29.6548  -15.1904 C   0  0  0  0  0  0  0  0  0  0  0  0
   20.2948  -28.2832  -15.3520 O   0  0  0  0  0  0  0  0  0  0  0  0
   20.9568  -35.1093  -13.7728 O   0  0  0  0  0  0  0  0  0  0  0  0
   18.8212  -29.9127  -14.9121 O   0  0  0  0  0  0  0  0  0  0  0  0
  2  1  1  0
  3  2  1  0
  4  3  1  0
  5  4  1  0
  5  6  1  1
  7  5  1  0
  7  8  2  0
  9  7  1  0
 10  9  1  0
 10 11  1  6
 11 12  1  0
 12 13  2  0
 12 20  1  0
 13 14  1  0
 14 15  1  0
 15 16  2  0
 16 17  1  0
 18 17  2  0
 19 18  1  0
 20 19  2  0
 20 15  1  0
 21 10  1  0
 22 21  2  0
 23 21  1  0
 24 25  1  1
 24 23  1  0
 25 26  1  0
 26 27  1  0
 27 31  1  0
 27 28  2  0
 29 30  1  0
 29 24  1  0
 32 29  2  0
M  END
$$$$
