MWE.pdb
     RDKit          3D

 32 33  0  0  1  0  0  0  0  0999 V2000
   29.7044  -18.5028  -17.4637 C   0  0  0  0  0  0  0  0  0  0  0  0
   28.1079  -17.9817  -16.8505 S   0  0  0  0  0  0  0  0  0  0  0  0
   27.3672  -19.0416  -15.6406 C   0  0  0  0  0  0  0  0  0  0  0  0
   28.1057  -19.1317  -14.3434 C   0  0  0  0  0  0  0  0  0  0  0  0
   28.3219  -20.5604  -13.9459 C   0  0  2  0  0  0  0  0  0  0  0  0
   28.0500  -21.3745  -15.1190 N   0  0  0  0  0  0  0  0  0  0  0  0
   27.3573  -20.9639  -12.8608 C   0  0  0  0  0  0  0  0  0  0  0  0
   26.2974  -21.5559  -13.1603 O   0  0  0  0  0  0  0  0  0  0  0  0
   27.6248  -20.6882  -11.5195 N   0  0  0  0  0  0  0  0  0  0  0  0
   26.7136  -21.0035  -10.4014 C   0  0  1  0  0  0  0  0  0  0  0  0
   27.5086  -20.8267   -9.1830 C   0  0  0  0  0  0  0  0  0  0  0  0
   26.8494  -20.7055   -7.8982 C   0  0  0  0  0  0  0  0  0  0  0  0
   25.5545  -21.0370   -7.6170 C   0  0  0  0  0  0  0  0  0  0  0  0
   25.3253  -20.7674   -6.3305 N   0  0  0  0  0  0  0  0  0  0  0  0
   26.4328  -20.2645   -5.7446 C   0  0  0  0  0  0  0  0  0  0  0  0
   26.6870  -19.8415   -4.4522 C   0  0  0  0  0  0  0  0  0  0  0  0
   27.9419  -19.3547   -4.1022 C   0  0  0  0  0  0  0  0  0  0  0  0
   28.9045  -19.3110   -5.0750 C   0  0  0  0  0  0  0  0  0  0  0  0
   28.6430  -19.7336   -6.3571 C   0  0  0  0  0  0  0  0  0  0  0  0
   27.3954  -20.2242   -6.7300 C   0  0  0  0  0  0  0  0  0  0  0  0
   25.5142  -20.2373  -10.6190 C   0  0  0  0  0  0  0  0  0  0  0  0
   25.5784  -18.9819  -10.7562 O   0  0  0  0  0  0  0  0  0  0  0  0
   24.2369  -20.8127  -10.6940 N   0  0  0  0  0  0  0  0  0  0  0  0
   23.0216  -20.0322  -10.9114 C   0  0  1  0  0  0  0  0  0  0  0  0
   23.1630  -19.4023  -12.2605 C   0  0  0  0  0  0  0  0  0  0  0  0
   23.1053  -20.4320  -13.3319 C   0  0  0  0  0  0  0  0  0  0  0  0
   23.1749  -19.7573  -14.6723 C   0  0  0  0  0  0  0  0  0  0  0  0
   22.2583  -18.9637  -14.9690 O   0  0  0  0  0  0  0  0  0  0  0  0
   21.8523  -20.9273  -10.8809 C   0  0  0  0  0  0  0  0  0  0  0  0
   20.5423  -20.4103  -10.8866 O   0  0  0  0  0  0  0  0  0  0  0  0
   24.2094  -20.0091  -15.5311 O   0  0  0  0  0  0  0  0  0  0  0  0
   21.9138  -22.1815  -10.8480 O   0  0  0  0  0  0  0  0  0  0  0  0
  2  1  1  0
  3  2  1  0
  4  3  1  0
  5  4  1  0
  5  6  1  6
  7  5  1  0
  7  8  2  0
  9  7  1  0
 10  9  1  0
 10 11  1  1
 11 12  1  0
 12 13  2  0
 12 20  1  0
 13 14  1  0
 14 15  1  0
 15 16  2  0
 16 17  1  0
 18 17  2  0
 19 18  1  0
 20 19  2  0
 20 15  1  0
 21 10  1  0
 22 21  2  0
 23 21  1  0
 24 25  1  6
 24 23  1  0
 25 26  1  0
 26 27  1  0
 27 31  1  0
 27 28  2  0
 29 30  1  0
 29 24  1  0
 32 29  2  0
M  END
$$$$
