MWE.pdb
     RDKit          3D

 32 33  0  0  1  0  0  0  0  0999 V2000
   27.1311  -23.5620  -18.5951 C   0  0  0  0  0  0  0  0  0  0  0  0
   28.0138  -22.0607  -18.1907 S   0  0  0  0  0  0  0  0  0  0  0  0
   29.2026  -22.1974  -16.8854 C   0  0  0  0  0  0  0  0  0  0  0  0
   28.6284  -22.4937  -15.5368 C   0  0  0  0  0  0  0  0  0  0  0  0
   27.8567  -21.3214  -15.0116 C   0  0  2  0  0  0  0  0  0  0  0  0
   28.8252  -20.2930  -14.6690 N   0  0  0  0  0  0  0  0  0  0  0  0
   27.1059  -21.6948  -13.7595 C   0  0  0  0  0  0  0  0  0  0  0  0
   26.2385  -22.5946  -13.8002 O   0  0  0  0  0  0  0  0  0  0  0  0
   27.3608  -21.0523  -12.5476 N   0  0  0  0  0  0  0  0  0  0  0  0
   26.5251  -21.1837  -11.3376 C   0  0  1  0  0  0  0  0  0  0  0  0
   27.4280  -20.9492  -10.2073 C   0  0  0  0  0  0  0  0  0  0  0  0
   26.8972  -20.4982   -8.9365 C   0  0  0  0  0  0  0  0  0  0  0  0
   25.5920  -20.2038   -8.6618 C   0  0  0  0  0  0  0  0  0  0  0  0
   25.5121  -19.8128   -7.3886 N   0  0  0  0  0  0  0  0  0  0  0  0
   26.7294  -19.8381   -6.8053 C   0  0  0  0  0  0  0  0  0  0  0  0
   27.1505  -19.5263   -5.5249 C   0  0  0  0  0  0  0  0  0  0  0  0
   28.4916  -19.6407   -5.1749 C   0  0  0  0  0  0  0  0  0  0  0  0
   29.3685  -20.0688   -6.1354 C   0  0  0  0  0  0  0  0  0  0  0  0
   28.9412  -20.3765   -7.4056 C   0  0  0  0  0  0  0  0  0  0  0  0
   27.6048  -20.2697   -7.7783 C   0  0  0  0  0  0  0  0  0  0  0  0
   25.3679  -20.3523  -11.5440 C   0  0  0  0  0  0  0  0  0  0  0  0
   25.4335  -19.1077  -11.3304 O   0  0  0  0  0  0  0  0  0  0  0  0
   24.1320  -20.8495  -11.9841 N   0  0  0  0  0  0  0  0  0  0  0  0
   22.9226  -20.0335  -12.0535 C   0  0  1  0  0  0  0  0  0  0  0  0
   22.5992  -19.8851  -13.5062 C   0  0  0  0  0  0  0  0  0  0  0  0
   23.5194  -20.7056  -14.3377 C   0  0  0  0  0  0  0  0  0  0  0  0
   23.0970  -20.6196  -15.7769 C   0  0  0  0  0  0  0  0  0  0  0  0
   22.4828  -21.5934  -16.2589 O   0  0  0  0  0  0  0  0  0  0  0  0
   21.8266  -20.7209  -11.3494 C   0  0  0  0  0  0  0  0  0  0  0  0
   20.6153  -20.0587  -11.0703 O   0  0  0  0  0  0  0  0  0  0  0  0
   23.3792  -19.5100  -16.5253 O   0  0  0  0  0  0  0  0  0  0  0  0
   21.8701  -21.9110  -10.9499 O   0  0  0  0  0  0  0  0  0  0  0  0
  2  1  1  0
  3  2  1  0
  4  3  1  0
  5  4  1  0
  5  6  1  1
  7  5  1  0
  7  8  2  0
  9  7  1  0
 10  9  1  0
 10 11  1  1
 11 12  1  0
 12 13  2  0
 12 20  1  0
 13 14  1  0
 14 15  1  0
 15 16  2  0
 16 17  1  0
 18 17  2  0
 19 18  1  0
 20 19  2  0
 20 15  1  0
 21 10  1  0
 22 21  2  0
 23 21  1  0
 24 25  1  6
 24 23  1  0
 25 26  1  0
 26 27  1  0
 27 31  1  0
 27 28  2  0
 29 30  1  0
 29 24  1  0
 32 29  2  0
M  END
$$$$
