MWE.pdb
     RDKit          3D

 32 33  0  0  1  0  0  0  0  0999 V2000
   28.5269  -14.7488  -14.9687 C   0  0  0  0  0  0  0  0  0  0  0  0
   27.4946  -13.3057  -15.1885 S   0  0  0  0  0  0  0  0  0  0  0  0
   25.8444  -13.6208  -15.7483 C   0  0  0  0  0  0  0  0  0  0  0  0
   25.0191  -12.3994  -16.0001 C   0  0  0  0  0  0  0  0  0  0  0  0
   23.7107  -12.7565  -16.6373 C   0  0  2  0  0  0  0  0  0  0  0  0
   24.0159  -13.4070  -17.9008 N   0  0  0  0  0  0  0  0  0  0  0  0
   22.9043  -11.5176  -16.9300 C   0  0  0  0  0  0  0  0  0  0  0  0
   23.1075  -10.8790  -17.9858 O   0  0  0  0  0  0  0  0  0  0  0  0
   21.9289  -11.0656  -16.0407 N   0  0  0  0  0  0  0  0  0  0  0  0
   21.0411   -9.9118  -16.2863 C   0  0  1  0  0  0  0  0  0  0  0  0
   19.6853  -10.3897  -16.0012 C   0  0  0  0  0  0  0  0  0  0  0  0
   18.5403   -9.6971  -16.5574 C   0  0  0  0  0  0  0  0  0  0  0  0
   17.9185   -8.6028  -16.0268 C   0  0  0  0  0  0  0  0  0  0  0  0
   16.9019   -8.2731  -16.8256 N   0  0  0  0  0  0  0  0  0  0  0  0
   16.8279   -9.1181  -17.8760 C   0  0  0  0  0  0  0  0  0  0  0  0
   15.9620   -9.1849  -18.9528 C   0  0  0  0  0  0  0  0  0  0  0  0
   16.1082  -10.1772  -19.9162 C   0  0  0  0  0  0  0  0  0  0  0  0
   17.1303  -11.0747  -19.7593 C   0  0  0  0  0  0  0  0  0  0  0  0
   17.9863  -11.0008  -18.6858 C   0  0  0  0  0  0  0  0  0  0  0  0
   17.8593  -10.0170  -17.7099 C   0  0  0  0  0  0  0  0  0  0  0  0
   21.6005   -8.8002  -15.5622 C   0  0  0  0  0  0  0  0  0  0  0  0
   22.1140   -8.9794  -14.4206 O   0  0  0  0  0  0  0  0  0  0  0  0
   21.6158   -7.4881  -16.0587 N   0  0  0  0  0  0  0  0  0  0  0  0
   22.1046   -6.3485  -15.2868 C   0  0  1  0  0  0  0  0  0  0  0  0
   22.0959   -5.1770  -16.2167 C   0  0  0  0  0  0  0  0  0  0  0  0
   22.6661   -3.9739  -15.5543 C   0  0  0  0  0  0  0  0  0  0  0  0
   22.6169   -2.8133  -16.5070 C   0  0  0  0  0  0  0  0  0  0  0  0
   22.1864   -3.0279  -17.6588 O   0  0  0  0  0  0  0  0  0  0  0  0
   21.2049   -6.1073  -14.1459 C   0  0  0  0  0  0  0  0  0  0  0  0
   21.6658   -5.4614  -12.9823 O   0  0  0  0  0  0  0  0  0  0  0  0
   23.0308   -1.5690  -16.1181 O   0  0  0  0  0  0  0  0  0  0  0  0
   19.9948   -6.4418  -14.1076 O   0  0  0  0  0  0  0  0  0  0  0  0
  2  1  1  0
  3  2  1  0
  4  3  1  0
  5  4  1  0
  5  6  1  6
  7  5  1  0
  7  8  2  0
  9  7  1  0
 10  9  1  0
 10 11  1  1
 11 12  1  0
 12 13  2  0
 12 20  1  0
 13 14  1  0
 14 15  1  0
 15 16  2  0
 16 17  1  0
 18 17  2  0
 19 18  1  0
 20 19  2  0
 20 15  1  0
 21 10  1  0
 22 21  2  0
 23 21  1  0
 24 25  1  6
 24 23  1  0
 25 26  1  0
 26 27  1  0
 27 31  1  0
 27 28  2  0
 29 30  1  0
 29 24  1  0
 32 29  2  0
M  END
$$$$
