MWE.pdb
     RDKit          3D

 32 33  0  0  1  0  0  0  0  0999 V2000
   28.0504  -25.3026  -20.2700 C   0  0  0  0  0  0  0  0  0  0  0  0
   27.3905  -24.9032  -18.6572 S   0  0  0  0  0  0  0  0  0  0  0  0
   28.5760  -24.3758  -17.4520 C   0  0  0  0  0  0  0  0  0  0  0  0
   28.0002  -23.9873  -16.1277 C   0  0  0  0  0  0  0  0  0  0  0  0
   27.0443  -22.8423  -16.2722 C   0  0  2  0  0  0  0  0  0  0  0  0
   27.8414  -21.6484  -16.5005 N   0  0  0  0  0  0  0  0  0  0  0  0
   26.2544  -22.6438  -15.0043 C   0  0  0  0  0  0  0  0  0  0  0  0
   25.5621  -23.5811  -14.5504 O   0  0  0  0  0  0  0  0  0  0  0  0
   26.2800  -21.4271  -14.3221 N   0  0  0  0  0  0  0  0  0  0  0  0
   25.5276  -21.1449  -13.0835 C   0  0  1  0  0  0  0  0  0  0  0  0
   26.3165  -20.1421  -12.3626 C   0  0  0  0  0  0  0  0  0  0  0  0
   27.3263  -20.5607  -11.4112 C   0  0  0  0  0  0  0  0  0  0  0  0
   28.5769  -21.0233  -11.7073 C   0  0  0  0  0  0  0  0  0  0  0  0
   29.1953  -21.3151  -10.5615 N   0  0  0  0  0  0  0  0  0  0  0  0
   28.3910  -21.0598   -9.5076 C   0  0  0  0  0  0  0  0  0  0  0  0
   28.5779  -21.1981   -8.1439 C   0  0  0  0  0  0  0  0  0  0  0  0
   27.5655  -20.8558   -7.2539 C   0  0  0  0  0  0  0  0  0  0  0  0
   26.3907  -20.3822   -7.7737 C   0  0  0  0  0  0  0  0  0  0  0  0
   26.2136  -20.2481   -9.1307 C   0  0  0  0  0  0  0  0  0  0  0  0
   27.2120  -20.5841  -10.0398 C   0  0  0  0  0  0  0  0  0  0  0  0
   24.1702  -20.8728  -13.4792 C   0  0  0  0  0  0  0  0  0  0  0  0
   23.9312  -20.0311  -14.3921 O   0  0  0  0  0  0  0  0  0  0  0  0
   23.0590  -21.5038  -12.9002 N   0  0  0  0  0  0  0  0  0  0  0  0
   21.6813  -21.1954  -13.2747 C   0  0  1  0  0  0  0  0  0  0  0  0
   20.8529  -22.3541  -12.8183 C   0  0  0  0  0  0  0  0  0  0  0  0
   19.4234  -22.1534  -13.1757 C   0  0  0  0  0  0  0  0  0  0  0  0
   18.6621  -23.4200  -12.9053 C   0  0  0  0  0  0  0  0  0  0  0  0
   19.2544  -24.3312  -12.2915 O   0  0  0  0  0  0  0  0  0  0  0  0
   21.2546  -19.9588  -12.5979 C   0  0  0  0  0  0  0  0  0  0  0  0
   21.7713  -19.6068  -11.3359 O   0  0  0  0  0  0  0  0  0  0  0  0
   17.3665  -23.5614  -13.3201 O   0  0  0  0  0  0  0  0  0  0  0  0
   20.4252  -19.1390  -13.0648 O   0  0  0  0  0  0  0  0  0  0  0  0
  2  1  1  0
  3  2  1  0
  4  3  1  0
  5  4  1  0
  5  6  1  1
  7  5  1  0
  7  8  2  0
  9  7  1  0
 10  9  1  0
 10 11  1  6
 11 12  1  0
 12 13  2  0
 12 20  1  0
 13 14  1  0
 14 15  1  0
 15 16  2  0
 16 17  1  0
 18 17  2  0
 19 18  1  0
 20 19  2  0
 20 15  1  0
 21 10  1  0
 22 21  2  0
 23 21  1  0
 24 25  1  1
 24 23  1  0
 25 26  1  0
 26 27  1  0
 27 31  1  0
 27 28  2  0
 29 30  1  0
 29 24  1  0
 32 29  2  0
M  END
$$$$
