MWE.pdb
     RDKit          3D

 32 33  0  0  1  0  0  0  0  0999 V2000
   17.7590  -22.3606  -13.5413 C   0  0  0  0  0  0  0  0  0  0  0  0
   17.6885  -21.1537  -12.2242 S   0  0  0  0  0  0  0  0  0  0  0  0
   19.1848  -20.9352  -11.3027 C   0  0  0  0  0  0  0  0  0  0  0  0
   20.4383  -20.9653  -12.1177 C   0  0  0  0  0  0  0  0  0  0  0  0
   21.6516  -20.8984  -11.2406 C   0  0  2  0  0  0  0  0  0  0  0  0
   21.3213  -20.0303  -10.1225 N   0  0  0  0  0  0  0  0  0  0  0  0
   22.8126  -20.2876  -11.9821 C   0  0  0  0  0  0  0  0  0  0  0  0
   23.1307  -19.0976  -11.7665 O   0  0  0  0  0  0  0  0  0  0  0  0
   23.5447  -21.0281  -12.9107 N   0  0  0  0  0  0  0  0  0  0  0  0
   24.7823  -20.5610  -13.5663 C   0  0  1  0  0  0  0  0  0  0  0  0
   25.8160  -21.5310  -13.1941 C   0  0  0  0  0  0  0  0  0  0  0  0
   26.5404  -21.3767  -11.9485 C   0  0  0  0  0  0  0  0  0  0  0  0
   26.0278  -21.5155  -10.6901 C   0  0  0  0  0  0  0  0  0  0  0  0
   27.0064  -21.2824   -9.8135 N   0  0  0  0  0  0  0  0  0  0  0  0
   28.1593  -20.9916  -10.4529 C   0  0  0  0  0  0  0  0  0  0  0  0
   29.4251  -20.6833   -9.9876 C   0  0  0  0  0  0  0  0  0  0  0  0
   30.4601  -20.4188  -10.8782 C   0  0  0  0  0  0  0  0  0  0  0  0
   30.1808  -20.4747  -12.2174 C   0  0  0  0  0  0  0  0  0  0  0  0
   28.9197  -20.7820  -12.6711 C   0  0  0  0  0  0  0  0  0  0  0  0
   27.8691  -21.0502  -11.7989 C   0  0  0  0  0  0  0  0  0  0  0  0
   24.4528  -20.3255  -14.9480 C   0  0  0  0  0  0  0  0  0  0  0  0
   23.7759  -21.1763  -15.5936 O   0  0  0  0  0  0  0  0  0  0  0  0
   24.8447  -19.1738  -15.6468 N   0  0  0  0  0  0  0  0  0  0  0  0
   24.5347  -18.9518  -17.0567 C   0  0  1  0  0  0  0  0  0  0  0  0
   24.8903  -17.5280  -17.3454 C   0  0  0  0  0  0  0  0  0  0  0  0
   26.2464  -17.2075  -16.8260 C   0  0  0  0  0  0  0  0  0  0  0  0
   26.9741  -16.3591  -17.8298 C   0  0  0  0  0  0  0  0  0  0  0  0
   26.3791  -16.0794  -18.8908 O   0  0  0  0  0  0  0  0  0  0  0  0
   25.3426  -19.8628  -17.8855 C   0  0  0  0  0  0  0  0  0  0  0  0
   25.0558  -20.0472  -19.2520 O   0  0  0  0  0  0  0  0  0  0  0  0
   28.2432  -15.9130  -17.5821 O   0  0  0  0  0  0  0  0  0  0  0  0
   26.3204  -20.5310  -17.4668 O   0  0  0  0  0  0  0  0  0  0  0  0
  2  1  1  0
  3  2  1  0
  4  3  1  0
  5  4  1  0
  5  6  1  1
  7  5  1  0
  7  8  2  0
  9  7  1  0
 10  9  1  0
 10 11  1  6
 11 12  1  0
 12 13  2  0
 12 20  1  0
 13 14  1  0
 14 15  1  0
 15 16  2  0
 16 17  1  0
 18 17  2  0
 19 18  1  0
 20 19  2  0
 20 15  1  0
 21 10  1  0
 22 21  2  0
 23 21  1  0
 24 25  1  6
 24 23  1  0
 25 26  1  0
 26 27  1  0
 27 31  1  0
 27 28  2  0
 29 30  1  0
 29 24  1  0
 32 29  2  0
M  END
$$$$
