MWE.pdb
     RDKit          3D

 32 33  0  0  1  0  0  0  0  0999 V2000
   26.3162  -20.8578  -20.0751 C   0  0  0  0  0  0  0  0  0  0  0  0
   27.8411  -20.0920  -19.5420 S   0  0  0  0  0  0  0  0  0  0  0  0
   28.5207  -20.7081  -18.0272 C   0  0  0  0  0  0  0  0  0  0  0  0
   27.5141  -21.0380  -16.9717 C   0  0  0  0  0  0  0  0  0  0  0  0
   28.0772  -22.0053  -15.9753 C   0  0  2  0  0  0  0  0  0  0  0  0
   28.1070  -23.3090  -16.6174 N   0  0  0  0  0  0  0  0  0  0  0  0
   27.1879  -22.0998  -14.7624 C   0  0  0  0  0  0  0  0  0  0  0  0
   26.1380  -22.7772  -14.8130 O   0  0  0  0  0  0  0  0  0  0  0  0
   27.5145  -21.4421  -13.5761 N   0  0  0  0  0  0  0  0  0  0  0  0
   26.6669  -21.4238  -12.3674 C   0  0  1  0  0  0  0  0  0  0  0  0
   27.5460  -20.9958  -11.2757 C   0  0  0  0  0  0  0  0  0  0  0  0
   26.9798  -20.5969  -10.0027 C   0  0  0  0  0  0  0  0  0  0  0  0
   25.6621  -20.3472   -9.7441 C   0  0  0  0  0  0  0  0  0  0  0  0
   25.5484  -19.9958   -8.4620 N   0  0  0  0  0  0  0  0  0  0  0  0
   26.7553  -20.0041   -7.8569 C   0  0  0  0  0  0  0  0  0  0  0  0
   27.1443  -19.7180   -6.5606 C   0  0  0  0  0  0  0  0  0  0  0  0
   28.4817  -19.8051   -6.1889 C   0  0  0  0  0  0  0  0  0  0  0  0
   29.3875  -20.1804   -7.1447 C   0  0  0  0  0  0  0  0  0  0  0  0
   28.9919  -20.4629   -8.4309 C   0  0  0  0  0  0  0  0  0  0  0  0
   27.6598  -20.3826   -8.8254 C   0  0  0  0  0  0  0  0  0  0  0  0
   25.4862  -20.6716  -12.7038 C   0  0  0  0  0  0  0  0  0  0  0  0
   25.5862  -19.4729  -13.0938 O   0  0  0  0  0  0  0  0  0  0  0  0
   24.1891  -21.2007  -12.6271 N   0  0  0  0  0  0  0  0  0  0  0  0
   22.9900  -20.4197  -12.9195 C   0  0  1  0  0  0  0  0  0  0  0  0
   22.5522  -20.8210  -14.2922 C   0  0  0  0  0  0  0  0  0  0  0  0
   21.5949  -21.9572  -14.2291 C   0  0  0  0  0  0  0  0  0  0  0  0
   20.7000  -21.9192  -15.4353 C   0  0  0  0  0  0  0  0  0  0  0  0
   20.8754  -20.9962  -16.2570 O   0  0  0  0  0  0  0  0  0  0  0  0
   21.9449  -20.7380  -11.9318 C   0  0  0  0  0  0  0  0  0  0  0  0
   20.8085  -19.9186  -11.7881 O   0  0  0  0  0  0  0  0  0  0  0  0
   19.7303  -22.8662  -15.6190 O   0  0  0  0  0  0  0  0  0  0  0  0
   21.9704  -21.7281  -11.1591 O   0  0  0  0  0  0  0  0  0  0  0  0
  2  1  1  0
  3  2  1  0
  4  3  1  0
  5  4  1  0
  5  6  1  6
  7  5  1  0
  7  8  2  0
  9  7  1  0
 10  9  1  0
 10 11  1  1
 11 12  1  0
 12 13  2  0
 12 20  1  0
 13 14  1  0
 14 15  1  0
 15 16  2  0
 16 17  1  0
 18 17  2  0
 19 18  1  0
 20 19  2  0
 20 15  1  0
 21 10  1  0
 22 21  2  0
 23 21  1  0
 24 25  1  6
 24 23  1  0
 25 26  1  0
 26 27  1  0
 27 31  1  0
 27 28  2  0
 29 30  1  0
 29 24  1  0
 32 29  2  0
M  END
$$$$
