MWE.pdb
     RDKit          3D

 32 33  0  0  1  0  0  0  0  0999 V2000
   30.9387  -24.8678  -17.8381 C   0  0  0  0  0  0  0  0  0  0  0  0
   30.6979  -23.4475  -18.8969 S   0  0  0  0  0  0  0  0  0  0  0  0
   29.4149  -22.3311  -18.4032 C   0  0  0  0  0  0  0  0  0  0  0  0
   28.7182  -22.6930  -17.1305 C   0  0  0  0  0  0  0  0  0  0  0  0
   27.6165  -21.7238  -16.8262 C   0  0  2  0  0  0  0  0  0  0  0  0
   28.2237  -20.4070  -16.7251 N   0  0  0  0  0  0  0  0  0  0  0  0
   26.9726  -22.0466  -15.5026 C   0  0  0  0  0  0  0  0  0  0  0  0
   26.5180  -23.1931  -15.2959 O   0  0  0  0  0  0  0  0  0  0  0  0
   26.8726  -21.0855  -14.4962 N   0  0  0  0  0  0  0  0  0  0  0  0
   26.2609  -21.3185  -13.1728 C   0  0  1  0  0  0  0  0  0  0  0  0
   27.1401  -20.6509  -12.2089 C   0  0  0  0  0  0  0  0  0  0  0  0
   26.6701  -20.3804  -10.8650 C   0  0  0  0  0  0  0  0  0  0  0  0
   25.3934  -20.0574  -10.5024 C   0  0  0  0  0  0  0  0  0  0  0  0
   25.3696  -19.8731   -9.1811 N   0  0  0  0  0  0  0  0  0  0  0  0
   26.5966  -20.0644   -8.6513 C   0  0  0  0  0  0  0  0  0  0  0  0
   27.0676  -19.9889   -7.3527 C   0  0  0  0  0  0  0  0  0  0  0  0
   28.4067  -20.2376   -7.0715 C   0  0  0  0  0  0  0  0  0  0  0  0
   29.2309  -20.5563   -8.1174 C   0  0  0  0  0  0  0  0  0  0  0  0
   28.7542  -20.6290   -9.4051 C   0  0  0  0  0  0  0  0  0  0  0  0
   27.4187  -20.3843   -9.7101 C   0  0  0  0  0  0  0  0  0  0  0  0
   24.8745  -20.9476  -13.2890 C   0  0  0  0  0  0  0  0  0  0  0  0
   24.5570  -19.8087  -13.7372 O   0  0  0  0  0  0  0  0  0  0  0  0
   23.8181  -21.7972  -12.9278 N   0  0  0  0  0  0  0  0  0  0  0  0
   22.4125  -21.4451  -13.1111 C   0  0  1  0  0  0  0  0  0  0  0  0
   21.6411  -22.7208  -12.9909 C   0  0  0  0  0  0  0  0  0  0  0  0
   20.1830  -22.4716  -13.1436 C   0  0  0  0  0  0  0  0  0  0  0  0
   19.4985  -23.7529  -13.5266 C   0  0  0  0  0  0  0  0  0  0  0  0
   20.2063  -24.7740  -13.6453 O   0  0  0  0  0  0  0  0  0  0  0  0
   22.0043  -20.4954  -12.0618 C   0  0  0  0  0  0  0  0  0  0  0  0
   21.0971  -19.4542  -12.3384 O   0  0  0  0  0  0  0  0  0  0  0  0
   18.1473  -23.7905  -13.7358 O   0  0  0  0  0  0  0  0  0  0  0  0
   22.4111  -20.5258  -10.8737 O   0  0  0  0  0  0  0  0  0  0  0  0
  2  1  1  0
  3  2  1  0
  4  3  1  0
  5  4  1  0
  5  6  1  1
  7  5  1  0
  7  8  2  0
  9  7  1  0
 10  9  1  0
 10 11  1  1
 11 12  1  0
 12 13  2  0
 12 20  1  0
 13 14  1  0
 14 15  1  0
 15 16  2  0
 16 17  1  0
 18 17  2  0
 19 18  1  0
 20 19  2  0
 20 15  1  0
 21 10  1  0
 22 21  2  0
 23 21  1  0
 24 25  1  1
 24 23  1  0
 25 26  1  0
 26 27  1  0
 27 31  1  0
 27 28  2  0
 29 30  1  0
 29 24  1  0
 32 29  2  0
M  END
$$$$
