KVQ.pdb
     RDKit          3D

 26 25  0  0  1  0  0  0  0  0999 V2000
    7.9280  -14.4474   20.5120 N   0  0  0  0  0  0  0  0  0  0  0  0
    6.9026  -14.7167   21.5355 C   0  0  1  0  0  0  0  0  0  0  0  0
    6.5088  -16.1627   21.3964 C   0  0  0  0  0  0  0  0  0  0  0  0
    7.0404  -16.8545   20.1939 C   0  0  0  0  0  0  0  0  0  0  0  0
    6.5885  -18.2763   20.0478 C   0  0  0  0  0  0  0  0  0  0  0  0
    7.1696  -18.9690   18.8497 C   0  0  0  0  0  0  0  0  0  0  0  0
    6.8213  -20.3511   18.7581 N   0  0  0  0  0  0  0  0  0  0  0  0
    7.5521  -14.4101   22.8404 C   0  0  0  0  0  0  0  0  0  0  0  0
    8.7920  -14.6951   22.9585 O   0  0  0  0  0  0  0  0  0  0  0  0
    6.1446  -11.4580   25.4304 C   0  0  0  0  0  0  0  0  0  0  0  0
    6.6688  -12.7226   26.0048 C   0  0  2  0  0  0  0  0  0  0  0  0
    7.4377  -12.3804   27.2872 C   0  0  0  0  0  0  0  0  0  0  0  0
    7.5994  -13.5138   25.1446 C   0  0  2  0  0  0  0  0  0  0  0  0
    6.8643  -13.8304   23.9246 N   0  0  0  0  0  0  0  0  0  0  0  0
    8.0523  -14.7210   25.8308 C   0  0  0  0  0  0  0  0  0  0  0  0
    7.2017  -15.6758   25.9535 O   0  0  0  0  0  0  0  0  0  0  0  0
   12.6805  -18.0404   24.2928 N   0  0  0  0  0  0  0  0  0  0  0  0
   12.2991  -18.7623   25.4391 C   0  0  0  0  0  0  0  0  0  0  0  0
   12.8401  -19.8459   25.7081 O   0  0  0  0  0  0  0  0  0  0  0  0
   11.2359  -18.2381   26.3540 C   0  0  0  0  0  0  0  0  0  0  0  0
   10.7194  -16.9147   25.8881 C   0  0  0  0  0  0  0  0  0  0  0  0
    9.7091  -16.3380   26.8244 C   0  0  2  0  0  0  0  0  0  0  0  0
    9.3139  -14.9897   26.3825 N   0  0  0  0  0  0  0  0  0  0  0  0
   10.1836  -16.2279   28.2092 C   0  0  0  0  0  0  0  0  0  0  0  0
   10.2580  -17.3751   29.0253 O   0  0  0  0  0  0  0  0  0  0  0  0
   10.5498  -15.1351   28.7606 O   0  0  0  0  0  0  0  0  0  0  0  0
  2  3  1  0
  2  1  1  6
  4  5  1  0
  4  3  1  0
  5  6  1  0
  7  6  1  0
  8  9  2  0
  8  2  1  0
 11 10  1  6
 11 13  1  0
 11 12  1  0
 13 15  1  0
 13 14  1  6
 14  8  1  0
 15 16  2  0
 17 18  1  0
 18 20  1  0
 18 19  2  0
 20 21  1  0
 22 21  1  6
 22 24  1  0
 23 22  1  0
 23 15  1  0
 24 26  2  0
 24 25  1  0
M  END
$$$$
