KVQ.pdb
     RDKit          3D

 26 25  0  0  1  0  0  0  0  0999 V2000
    8.4066  -14.8256   20.7340 N   0  0  0  0  0  0  0  0  0  0  0  0
    7.6291  -15.3513   21.8701 C   0  0  1  0  0  0  0  0  0  0  0  0
    7.8454  -16.8404   21.9021 C   0  0  0  0  0  0  0  0  0  0  0  0
    7.3635  -17.5795   20.7067 C   0  0  0  0  0  0  0  0  0  0  0  0
    7.5173  -19.0680   20.7962 C   0  0  0  0  0  0  0  0  0  0  0  0
    7.0395  -19.7937   19.5724 C   0  0  0  0  0  0  0  0  0  0  0  0
    7.8245  -19.5369   18.4071 N   0  0  0  0  0  0  0  0  0  0  0  0
    8.1639  -14.6564   23.0741 C   0  0  0  0  0  0  0  0  0  0  0  0
    9.4316  -14.5208   23.1571 O   0  0  0  0  0  0  0  0  0  0  0  0
    6.3562  -11.6285   25.3024 C   0  0  0  0  0  0  0  0  0  0  0  0
    6.8920  -12.8224   26.0033 C   0  0  2  0  0  0  0  0  0  0  0  0
    7.4904  -12.3620   27.3386 C   0  0  0  0  0  0  0  0  0  0  0  0
    7.9606  -13.5907   25.2963 C   0  0  2  0  0  0  0  0  0  0  0  0
    7.3410  -14.1546   24.1017 N   0  0  0  0  0  0  0  0  0  0  0  0
    8.5186  -14.6303   26.1572 C   0  0  0  0  0  0  0  0  0  0  0  0
    7.7788  -15.6547   26.3887 O   0  0  0  0  0  0  0  0  0  0  0  0
   13.8759  -17.3629   25.8025 N   0  0  0  0  0  0  0  0  0  0  0  0
   13.4014  -17.9592   26.9857 C   0  0  0  0  0  0  0  0  0  0  0  0
   14.0567  -18.8510   27.5466 O   0  0  0  0  0  0  0  0  0  0  0  0
   12.0999  -17.5302   27.5891 C   0  0  0  0  0  0  0  0  0  0  0  0
   11.4991  -16.3879   26.8345 C   0  0  0  0  0  0  0  0  0  0  0  0
   10.2671  -15.8586   27.4918 C   0  0  2  0  0  0  0  0  0  0  0  0
    9.7772  -14.6682   26.7759 N   0  0  0  0  0  0  0  0  0  0  0  0
   10.4643  -15.4795   28.8962 C   0  0  0  0  0  0  0  0  0  0  0  0
   10.6520  -16.4738   29.8781 O   0  0  0  0  0  0  0  0  0  0  0  0
   10.4806  -14.2751   29.3221 O   0  0  0  0  0  0  0  0  0  0  0  0
  2  3  1  0
  2  1  1  6
  4  5  1  0
  4  3  1  0
  5  6  1  0
  7  6  1  0
  8  9  2  0
  8  2  1  0
 11 10  1  6
 11 13  1  0
 11 12  1  0
 13 15  1  0
 13 14  1  6
 14  8  1  0
 15 16  2  0
 17 18  1  0
 18 20  1  0
 18 19  2  0
 20 21  1  0
 22 21  1  6
 22 24  1  0
 23 22  1  0
 23 15  1  0
 24 26  2  0
 24 25  1  0
M  END
$$$$
