KVQ.pdb
     RDKit          3D

 26 25  0  0  1  0  0  0  0  0999 V2000
    7.8213  -13.8222   20.8413 N   0  0  0  0  0  0  0  0  0  0  0  0
    7.1059  -14.5188   21.9251 C   0  0  1  0  0  0  0  0  0  0  0  0
    7.0893  -15.9822   21.5741 C   0  0  0  0  0  0  0  0  0  0  0  0
    6.4920  -16.8762   22.5996 C   0  0  0  0  0  0  0  0  0  0  0  0
    6.4732  -18.3264   22.2206 C   0  0  0  0  0  0  0  0  0  0  0  0
    5.8988  -19.2156   23.2847 C   0  0  0  0  0  0  0  0  0  0  0  0
    5.7601  -20.5792   22.8829 N   0  0  0  0  0  0  0  0  0  0  0  0
    7.8763  -14.2232   23.1651 C   0  0  0  0  0  0  0  0  0  0  0  0
    9.1488  -14.1693   23.0650 O   0  0  0  0  0  0  0  0  0  0  0  0
    5.8967  -13.1224   26.6834 C   0  0  0  0  0  0  0  0  0  0  0  0
    7.3081  -12.7464   26.4175 C   0  0  2  0  0  0  0  0  0  0  0  0
    7.3126  -11.3906   25.7001 C   0  0  0  0  0  0  0  0  0  0  0  0
    8.1024  -13.6841   25.5679 C   0  0  2  0  0  0  0  0  0  0  0  0
    7.2662  -14.0058   24.4163 N   0  0  0  0  0  0  0  0  0  0  0  0
    8.4769  -14.8821   26.3148 C   0  0  0  0  0  0  0  0  0  0  0  0
    7.5590  -15.7602   26.5066 O   0  0  0  0  0  0  0  0  0  0  0  0
   14.2397  -18.5664   26.2609 N   0  0  0  0  0  0  0  0  0  0  0  0
   12.9623  -18.7118   25.6884 C   0  0  0  0  0  0  0  0  0  0  0  0
   12.8391  -19.1073   24.5190 O   0  0  0  0  0  0  0  0  0  0  0  0
   11.7303  -18.3930   26.4775 C   0  0  0  0  0  0  0  0  0  0  0  0
   11.3118  -16.9707   26.2844 C   0  0  0  0  0  0  0  0  0  0  0  0
   10.1257  -16.6098   27.1169 C   0  0  2  0  0  0  0  0  0  0  0  0
    9.7259  -15.2158   26.8595 N   0  0  0  0  0  0  0  0  0  0  0  0
   10.3554  -16.7444   28.5605 C   0  0  0  0  0  0  0  0  0  0  0  0
   10.3056  -15.6084   29.3941 O   0  0  0  0  0  0  0  0  0  0  0  0
   10.6074  -17.8495   29.1501 O   0  0  0  0  0  0  0  0  0  0  0  0
  2  3  1  0
  2  1  1  6
  4  5  1  0
  4  3  1  0
  5  6  1  0
  7  6  1  0
  8  9  2  0
  8  2  1  0
 11 10  1  6
 11 13  1  0
 11 12  1  0
 13 15  1  0
 13 14  1  6
 14  8  1  0
 15 16  2  0
 17 18  1  0
 18 20  1  0
 18 19  2  0
 20 21  1  0
 22 21  1  6
 22 24  1  0
 23 22  1  0
 23 15  1  0
 24 26  2  0
 24 25  1  0
M  END
$$$$
