KVQ.pdb
     RDKit          3D

 26 25  0  0  1  0  0  0  0  0999 V2000
    7.4940  -12.6867   20.1210 N   0  0  0  0  0  0  0  0  0  0  0  0
    6.7329  -13.4586   21.1193 C   0  0  1  0  0  0  0  0  0  0  0  0
    6.5670  -14.8497   20.5692 C   0  0  0  0  0  0  0  0  0  0  0  0
    7.8228  -15.5201   20.1438 C   0  0  0  0  0  0  0  0  0  0  0  0
    7.6579  -16.9623   19.7697 C   0  0  0  0  0  0  0  0  0  0  0  0
    8.9536  -17.6500   19.4516 C   0  0  0  0  0  0  0  0  0  0  0  0
    8.8077  -19.0344   19.1323 N   0  0  0  0  0  0  0  0  0  0  0  0
    7.5501  -13.4152   22.3638 C   0  0  0  0  0  0  0  0  0  0  0  0
    8.8126  -13.2709   22.2305 O   0  0  0  0  0  0  0  0  0  0  0  0
    5.7087  -13.3985   26.1201 C   0  0  0  0  0  0  0  0  0  0  0  0
    7.0904  -12.8901   25.9295 C   0  0  2  0  0  0  0  0  0  0  0  0
    7.0091  -11.3847   25.6466 C   0  0  0  0  0  0  0  0  0  0  0  0
    7.8785  -13.4945   24.8135 C   0  0  2  0  0  0  0  0  0  0  0  0
    6.9939  -13.5250   23.6535 N   0  0  0  0  0  0  0  0  0  0  0  0
    8.3520  -14.8303   25.1667 C   0  0  0  0  0  0  0  0  0  0  0  0
    7.5007  -15.7895   25.0912 O   0  0  0  0  0  0  0  0  0  0  0  0
   13.8351  -17.3583   23.8769 N   0  0  0  0  0  0  0  0  0  0  0  0
   13.2026  -18.4221   24.5470 C   0  0  0  0  0  0  0  0  0  0  0  0
   13.7799  -19.5120   24.6814 O   0  0  0  0  0  0  0  0  0  0  0  0
   11.8243  -18.2598   25.1092 C   0  0  0  0  0  0  0  0  0  0  0  0
   11.3684  -16.8379   25.0335 C   0  0  0  0  0  0  0  0  0  0  0  0
   10.0355  -16.6341   25.6754 C   0  0  2  0  0  0  0  0  0  0  0  0
    9.6342  -15.2201   25.5817 N   0  0  0  0  0  0  0  0  0  0  0  0
   10.0003  -17.0106   27.0938 C   0  0  0  0  0  0  0  0  0  0  0  0
    9.9968  -18.3706   27.4653 O   0  0  0  0  0  0  0  0  0  0  0  0
    9.9708  -16.1756   28.0604 O   0  0  0  0  0  0  0  0  0  0  0  0
  2  3  1  0
  2  1  1  6
  4  5  1  0
  4  3  1  0
  5  6  1  0
  7  6  1  0
  8  9  2  0
  8  2  1  0
 11 10  1  6
 11 13  1  0
 11 12  1  0
 13 15  1  0
 13 14  1  6
 14  8  1  0
 15 16  2  0
 17 18  1  0
 18 20  1  0
 18 19  2  0
 20 21  1  0
 22 21  1  1
 22 24  1  0
 23 22  1  0
 23 15  1  0
 24 26  2  0
 24 25  1  0
M  END
$$$$
