KVQ.pdb
     RDKit          3D

 26 25  0  0  1  0  0  0  0  0999 V2000
    7.6437  -14.8174   20.4734 N   0  0  0  0  0  0  0  0  0  0  0  0
    6.7903  -15.1500   21.6278 C   0  0  1  0  0  0  0  0  0  0  0  0
    6.6138  -16.6447   21.6305 C   0  0  0  0  0  0  0  0  0  0  0  0
    6.5683  -17.2829   20.2895 C   0  0  0  0  0  0  0  0  0  0  0  0
    5.4021  -18.2013   20.0808 C   0  0  0  0  0  0  0  0  0  0  0  0
    5.3306  -18.7723   18.6946 C   0  0  0  0  0  0  0  0  0  0  0  0
    4.3157  -19.7640   18.5317 N   0  0  0  0  0  0  0  0  0  0  0  0
    7.5221  -14.6451   22.8228 C   0  0  0  0  0  0  0  0  0  0  0  0
    8.7893  -14.8071   22.8449 O   0  0  0  0  0  0  0  0  0  0  0  0
    6.3017  -11.5592   25.3153 C   0  0  0  0  0  0  0  0  0  0  0  0
    6.7891  -12.8133   25.9429 C   0  0  2  0  0  0  0  0  0  0  0  0
    7.6134  -12.4372   27.1806 C   0  0  0  0  0  0  0  0  0  0  0  0
    7.6562  -13.6909   25.1002 C   0  0  2  0  0  0  0  0  0  0  0  0
    6.8821  -14.0098   23.9051 N   0  0  0  0  0  0  0  0  0  0  0  0
    8.0494  -14.8956   25.8263 C   0  0  0  0  0  0  0  0  0  0  0  0
    7.1075  -15.6878   26.1946 O   0  0  0  0  0  0  0  0  0  0  0  0
   12.2656  -17.4547   23.0806 N   0  0  0  0  0  0  0  0  0  0  0  0
   12.4580  -17.6590   24.4597 C   0  0  0  0  0  0  0  0  0  0  0  0
   13.2550  -18.5204   24.8622 O   0  0  0  0  0  0  0  0  0  0  0  0
   11.7066  -16.8428   25.4654 C   0  0  0  0  0  0  0  0  0  0  0  0
   10.4002  -17.4788   25.8175 C   0  0  0  0  0  0  0  0  0  0  0  0
    9.6000  -16.6458   26.7640 C   0  0  2  0  0  0  0  0  0  0  0  0
    9.3390  -15.3184   26.1814 N   0  0  0  0  0  0  0  0  0  0  0  0
   10.2519  -16.4381   28.0627 C   0  0  0  0  0  0  0  0  0  0  0  0
   10.5375  -15.1320   28.5105 O   0  0  0  0  0  0  0  0  0  0  0  0
   10.5970  -17.3795   28.8545 O   0  0  0  0  0  0  0  0  0  0  0  0
  2  3  1  0
  2  1  1  6
  4  5  1  0
  4  3  1  0
  5  6  1  0
  7  6  1  0
  8  9  2  0
  8  2  1  0
 11 10  1  6
 11 13  1  0
 11 12  1  0
 13 15  1  0
 13 14  1  6
 14  8  1  0
 15 16  2  0
 17 18  1  0
 18 20  1  0
 18 19  2  0
 20 21  1  0
 22 21  1  6
 22 24  1  0
 23 22  1  0
 23 15  1  0
 24 26  2  0
 24 25  1  0
M  END
$$$$
