KVQ.pdb
     RDKit          3D

 26 25  0  0  1  0  0  0  0  0999 V2000
    8.3450  -14.8238   20.5359 N   0  0  0  0  0  0  0  0  0  0  0  0
    7.4955  -15.3507   21.6186 C   0  0  1  0  0  0  0  0  0  0  0  0
    7.5405  -16.8522   21.5244 C   0  0  0  0  0  0  0  0  0  0  0  0
    6.8786  -17.4353   20.3289 C   0  0  0  0  0  0  0  0  0  0  0  0
    6.8558  -18.9340   20.3038 C   0  0  0  0  0  0  0  0  0  0  0  0
    6.1636  -19.5019   19.0992 C   0  0  0  0  0  0  0  0  0  0  0  0
    6.0363  -20.9242   19.1251 N   0  0  0  0  0  0  0  0  0  0  0  0
    8.0872  -14.8256   22.8805 C   0  0  0  0  0  0  0  0  0  0  0  0
    9.3608  -14.7425   22.9398 O   0  0  0  0  0  0  0  0  0  0  0  0
    6.4876  -11.8642   25.1331 C   0  0  0  0  0  0  0  0  0  0  0  0
    6.9869  -13.0465   25.8794 C   0  0  2  0  0  0  0  0  0  0  0  0
    7.6657  -12.5483   27.1616 C   0  0  0  0  0  0  0  0  0  0  0  0
    7.9811  -13.9118   25.1759 C   0  0  2  0  0  0  0  0  0  0  0  0
    7.3109  -14.4262   23.9862 N   0  0  0  0  0  0  0  0  0  0  0  0
    8.4461  -14.9912   26.0430 C   0  0  0  0  0  0  0  0  0  0  0  0
    7.5662  -15.8374   26.4435 O   0  0  0  0  0  0  0  0  0  0  0  0
   13.8237  -17.9889   25.9219 N   0  0  0  0  0  0  0  0  0  0  0  0
   12.7915  -17.8370   24.9773 C   0  0  0  0  0  0  0  0  0  0  0  0
   12.9793  -18.1355   23.7878 O   0  0  0  0  0  0  0  0  0  0  0  0
   11.4501  -17.3135   25.3883 C   0  0  0  0  0  0  0  0  0  0  0  0
   11.4191  -16.9760   26.8445 C   0  0  0  0  0  0  0  0  0  0  0  0
   10.0913  -16.4467   27.2765 C   0  0  2  0  0  0  0  0  0  0  0  0
    9.7469  -15.2398   26.5057 N   0  0  0  0  0  0  0  0  0  0  0  0
   10.0319  -16.0937   28.7002 C   0  0  0  0  0  0  0  0  0  0  0  0
   10.1656  -17.0949   29.6839 O   0  0  0  0  0  0  0  0  0  0  0  0
    9.8620  -14.9070   29.1418 O   0  0  0  0  0  0  0  0  0  0  0  0
  2  3  1  0
  2  1  1  6
  4  5  1  0
  4  3  1  0
  5  6  1  0
  7  6  1  0
  8  9  2  0
  8  2  1  0
 11 10  1  6
 11 13  1  0
 11 12  1  0
 13 15  1  0
 13 14  1  6
 14  8  1  0
 15 16  2  0
 17 18  1  0
 18 20  1  0
 18 19  2  0
 20 21  1  0
 22 21  1  6
 22 24  1  0
 23 22  1  0
 23 15  1  0
 24 26  2  0
 24 25  1  0
M  END
$$$$
