KVQ.pdb
     RDKit          3D

 26 25  0  0  1  0  0  0  0  0999 V2000
    7.2408  -15.8404   21.0937 N   0  0  0  0  0  0  0  0  0  0  0  0
    6.5076  -16.0341   22.3572 C   0  0  1  0  0  0  0  0  0  0  0  0
    6.3894  -17.5184   22.5763 C   0  0  0  0  0  0  0  0  0  0  0  0
    5.5218  -18.2378   21.6081 C   0  0  0  0  0  0  0  0  0  0  0  0
    4.5703  -19.2117   22.2352 C   0  0  0  0  0  0  0  0  0  0  0  0
    3.7147  -19.9384   21.2389 C   0  0  0  0  0  0  0  0  0  0  0  0
    2.8644  -20.9267   21.8221 N   0  0  0  0  0  0  0  0  0  0  0  0
    7.3236  -15.3518   23.3998 C   0  0  0  0  0  0  0  0  0  0  0  0
    8.5898  -15.5158   23.3525 O   0  0  0  0  0  0  0  0  0  0  0  0
    6.2328  -11.8484   25.4452 C   0  0  0  0  0  0  0  0  0  0  0  0
    6.8010  -12.9964   26.1957 C   0  0  2  0  0  0  0  0  0  0  0  0
    7.6913  -12.4404   27.3142 C   0  0  0  0  0  0  0  0  0  0  0  0
    7.6397  -13.9566   25.4169 C   0  0  2  0  0  0  0  0  0  0  0  0
    6.7624  -14.5504   24.4135 N   0  0  0  0  0  0  0  0  0  0  0  0
    8.2265  -14.9706   26.2892 C   0  0  0  0  0  0  0  0  0  0  0  0
    7.4349  -15.8704   26.7519 O   0  0  0  0  0  0  0  0  0  0  0  0
   13.7530  -19.6669   27.1157 N   0  0  0  0  0  0  0  0  0  0  0  0
   13.0294  -18.5663   26.6201 C   0  0  0  0  0  0  0  0  0  0  0  0
   13.3631  -18.0225   25.5561 O   0  0  0  0  0  0  0  0  0  0  0  0
   11.8457  -18.0316   27.3652 C   0  0  0  0  0  0  0  0  0  0  0  0
   11.2040  -16.8994   26.6293 C   0  0  0  0  0  0  0  0  0  0  0  0
   10.0595  -16.3076   27.3843 C   0  0  2  0  0  0  0  0  0  0  0  0
    9.5621  -15.1034   26.6972 N   0  0  0  0  0  0  0  0  0  0  0  0
   10.3963  -15.9238   28.7606 C   0  0  0  0  0  0  0  0  0  0  0  0
   10.6885  -16.9144   29.7203 O   0  0  0  0  0  0  0  0  0  0  0  0
   10.4489  -14.7181   29.1800 O   0  0  0  0  0  0  0  0  0  0  0  0
  2  3  1  0
  2  1  1  6
  4  5  1  0
  4  3  1  0
  5  6  1  0
  7  6  1  0
  8  9  2  0
  8  2  1  0
 11 10  1  6
 11 13  1  0
 11 12  1  0
 13 15  1  0
 13 14  1  6
 14  8  1  0
 15 16  2  0
 17 18  1  0
 18 20  1  0
 18 19  2  0
 20 21  1  0
 22 21  1  6
 22 24  1  0
 23 22  1  0
 23 15  1  0
 24 26  2  0
 24 25  1  0
M  END
$$$$
