KVQ.pdb
     RDKit          3D

 26 25  0  0  1  0  0  0  0  0999 V2000
    8.1971  -15.2693   20.7427 N   0  0  0  0  0  0  0  0  0  0  0  0
    7.3178  -15.6232   21.8710 C   0  0  1  0  0  0  0  0  0  0  0  0
    7.2469  -17.1258   21.9214 C   0  0  0  0  0  0  0  0  0  0  0  0
    7.5222  -17.8196   20.6367 C   0  0  0  0  0  0  0  0  0  0  0  0
    7.1878  -19.2809   20.6389 C   0  0  0  0  0  0  0  0  0  0  0  0
    7.4308  -19.9524   19.3187 C   0  0  0  0  0  0  0  0  0  0  0  0
    8.4168  -20.9844   19.3701 N   0  0  0  0  0  0  0  0  0  0  0  0
    7.9573  -15.0268   23.0767 C   0  0  0  0  0  0  0  0  0  0  0  0
    9.2329  -15.0618   23.1406 O   0  0  0  0  0  0  0  0  0  0  0  0
    6.4829  -11.7912   25.1771 C   0  0  0  0  0  0  0  0  0  0  0  0
    6.9755  -12.9576   25.9523 C   0  0  2  0  0  0  0  0  0  0  0  0
    7.6882  -12.4307   27.2043 C   0  0  0  0  0  0  0  0  0  0  0  0
    7.9400  -13.8637   25.2589 C   0  0  2  0  0  0  0  0  0  0  0  0
    7.2232  -14.4389   24.1256 N   0  0  0  0  0  0  0  0  0  0  0  0
    8.4362  -14.8965   26.1645 C   0  0  0  0  0  0  0  0  0  0  0  0
    7.5944  -15.7867   26.5508 O   0  0  0  0  0  0  0  0  0  0  0  0
   13.7436  -19.7902   26.9979 N   0  0  0  0  0  0  0  0  0  0  0  0
   13.1245  -18.5958   26.5847 C   0  0  0  0  0  0  0  0  0  0  0  0
   13.5946  -17.9370   25.6443 O   0  0  0  0  0  0  0  0  0  0  0  0
   11.8897  -18.0981   27.2700 C   0  0  0  0  0  0  0  0  0  0  0  0
   11.3562  -16.8685   26.6075 C   0  0  0  0  0  0  0  0  0  0  0  0
   10.1734  -16.3051   27.3242 C   0  0  2  0  0  0  0  0  0  0  0  0
    9.7316  -15.0571   26.6787 N   0  0  0  0  0  0  0  0  0  0  0  0
   10.4287  -16.0050   28.7383 C   0  0  0  0  0  0  0  0  0  0  0  0
   10.6699  -17.0515   29.6517 O   0  0  0  0  0  0  0  0  0  0  0  0
   10.4513  -14.8268   29.2321 O   0  0  0  0  0  0  0  0  0  0  0  0
  2  3  1  0
  2  1  1  6
  4  5  1  0
  4  3  1  0
  5  6  1  0
  7  6  1  0
  8  9  2  0
  8  2  1  0
 11 10  1  6
 11 13  1  0
 11 12  1  0
 13 15  1  0
 13 14  1  6
 14  8  1  0
 15 16  2  0
 17 18  1  0
 18 20  1  0
 18 19  2  0
 20 21  1  0
 22 21  1  6
 22 24  1  0
 23 22  1  0
 23 15  1  0
 24 26  2  0
 24 25  1  0
M  END
$$$$
