SEI.pdb
     RDKit          3D

 24 23  0  0  1  0  0  0  0  0999 V2000
    7.7131  -13.1812   21.1994 O   0  0  0  0  0  0  0  0  0  0  0  0
    8.1953  -14.0584   20.2446 C   0  0  0  0  0  0  0  0  0  0  0  0
    7.5600  -15.4121   20.5175 C   0  0  2  0  0  0  0  0  0  0  0  0
    6.1318  -15.2582   20.4769 N   0  0  0  0  0  0  0  0  0  0  0  0
    7.9489  -15.8787   21.8632 C   0  0  0  0  0  0  0  0  0  0  0  0
    7.0546  -15.9042   22.7780 O   0  0  0  0  0  0  0  0  0  0  0  0
    9.2689  -16.2884   22.1464 N   0  0  0  0  0  0  0  0  0  0  0  0
    9.5738  -16.8639   23.4260 C   0  0  1  0  0  0  0  0  0  0  0  0
   10.8260  -17.7177   23.3726 C   0  0  0  0  0  0  0  0  0  0  0  0
   11.0835  -18.3437   24.7234 C   0  0  0  0  0  0  0  0  0  0  0  0
   12.3417  -19.0943   24.7739 C   0  0  0  0  0  0  0  0  0  0  0  0
   13.2563  -18.7371   25.5378 O   0  0  0  0  0  0  0  0  0  0  0  0
    9.7142  -15.7701   24.4320 C   0  0  0  0  0  0  0  0  0  0  0  0
   10.4519  -14.7794   24.1969 O   0  0  0  0  0  0  0  0  0  0  0  0
   12.5370  -20.2028   23.9824 O   0  0  0  0  0  0  0  0  0  0  0  0
    6.6532  -12.1091   25.9322 C   0  0  0  0  0  0  0  0  0  0  0  0
    7.7460  -13.0938   25.7368 C   0  0  0  0  0  0  0  0  0  0  0  0
    8.2428  -13.7987   26.9438 C   0  0  2  0  0  0  0  0  0  0  0  0
    8.7002  -12.8177   28.0291 C   0  0  0  0  0  0  0  0  0  0  0  0
    9.2917  -14.8328   26.7499 C   0  0  2  0  0  0  0  0  0  0  0  0
    9.0428  -15.7761   25.6856 N   0  0  0  0  0  0  0  0  0  0  0  0
    9.7317  -15.4812   28.0010 C   0  0  0  0  0  0  0  0  0  0  0  0
   10.6043  -14.8247   28.8600 O   0  0  0  0  0  0  0  0  0  0  0  0
    9.3647  -16.6298   28.3687 O   0  0  0  0  0  0  0  0  0  0  0  0
  2  3  1  0
  2  1  1  0
  3  4  1  1
  5  6  2  0
  5  3  1  0
  7  5  1  0
  8 13  1  0
  8  7  1  0
  8  9  1  6
 10 11  1  0
 10  9  1  0
 11 12  2  0
 13 21  1  0
 14 13  2  0
 15 11  1  0
 17 16  1  0
 18 17  1  0
 18 20  1  0
 18 19  1  1
 20 22  1  0
 20 21  1  6
 22 24  2  0
 22 23  1  0
M  END
$$$$
