SEI.pdb
     RDKit          3D

 24 23  0  0  1  0  0  0  0  0999 V2000
    8.3173  -12.5131   19.7317 O   0  0  0  0  0  0  0  0  0  0  0  0
    7.7407  -13.2337   18.7011 C   0  0  0  0  0  0  0  0  0  0  0  0
    8.2798  -14.6521   18.7892 C   0  0  2  0  0  0  0  0  0  0  0  0
    7.7255  -15.4150   17.7047 N   0  0  0  0  0  0  0  0  0  0  0  0
    7.8566  -15.2638   20.0646 C   0  0  0  0  0  0  0  0  0  0  0  0
    6.6510  -15.6802   20.1666 O   0  0  0  0  0  0  0  0  0  0  0  0
    8.7484  -15.3918   21.1502 N   0  0  0  0  0  0  0  0  0  0  0  0
    8.3331  -16.0974   22.3297 C   0  0  1  0  0  0  0  0  0  0  0  0
    8.8196  -17.5338   22.3242 C   0  0  0  0  0  0  0  0  0  0  0  0
   10.3102  -17.5743   22.0810 C   0  0  0  0  0  0  0  0  0  0  0  0
   11.0021  -18.5413   22.9386 C   0  0  0  0  0  0  0  0  0  0  0  0
   10.3569  -19.2618   23.7210 O   0  0  0  0  0  0  0  0  0  0  0  0
    8.8293  -15.3688   23.5343 C   0  0  0  0  0  0  0  0  0  0  0  0
    9.9316  -14.7646   23.5040 O   0  0  0  0  0  0  0  0  0  0  0  0
   12.3713  -18.6719   22.8968 O   0  0  0  0  0  0  0  0  0  0  0  0
    5.7447  -11.8176   25.8591 C   0  0  0  0  0  0  0  0  0  0  0  0
    6.8443  -12.6933   25.3835 C   0  0  0  0  0  0  0  0  0  0  0  0
    7.5088  -13.5514   26.3947 C   0  0  2  0  0  0  0  0  0  0  0  0
    8.1268  -12.7237   27.5272 C   0  0  0  0  0  0  0  0  0  0  0  0
    8.5115  -14.5333   25.9072 C   0  0  2  0  0  0  0  0  0  0  0  0
    8.1096  -15.3116   24.7594 N   0  0  0  0  0  0  0  0  0  0  0  0
    9.1138  -15.3546   26.9759 C   0  0  0  0  0  0  0  0  0  0  0  0
    8.9522  -16.7345   26.9731 O   0  0  0  0  0  0  0  0  0  0  0  0
    9.7910  -14.8862   27.9305 O   0  0  0  0  0  0  0  0  0  0  0  0
  2  3  1  0
  2  1  1  0
  3  4  1  6
  5  6  2  0
  5  3  1  0
  7  5  1  0
  8 13  1  0
  8  7  1  0
  8  9  1  6
 10 11  1  0
 10  9  1  0
 11 12  2  0
 13 21  1  0
 14 13  2  0
 15 11  1  0
 17 16  1  0
 18 17  1  0
 18 20  1  0
 18 19  1  1
 20 22  1  0
 20 21  1  6
 22 24  2  0
 22 23  1  0
M  END
$$$$
