SEI.pdb
     RDKit          3D

 24 23  0  0  1  0  0  0  0  0999 V2000
    9.1039  -12.2699   18.0827 O   0  0  0  0  0  0  0  0  0  0  0  0
    8.7685  -12.7263   19.3448 C   0  0  0  0  0  0  0  0  0  0  0  0
    8.2462  -14.1448   19.1848 C   0  0  2  0  0  0  0  0  0  0  0  0
    6.9117  -14.0786   18.6556 N   0  0  0  0  0  0  0  0  0  0  0  0
    8.2013  -14.8070   20.5036 C   0  0  0  0  0  0  0  0  0  0  0  0
    7.1515  -14.6602   21.2203 O   0  0  0  0  0  0  0  0  0  0  0  0
    9.2810  -15.5841   20.9733 N   0  0  0  0  0  0  0  0  0  0  0  0
    9.1408  -16.3296   22.1924 C   0  0  1  0  0  0  0  0  0  0  0  0
   10.1392  -17.4685   22.2709 C   0  0  0  0  0  0  0  0  0  0  0  0
   10.0450  -18.1473   23.6174 C   0  0  0  0  0  0  0  0  0  0  0  0
   10.9804  -19.2672   23.7584 C   0  0  0  0  0  0  0  0  0  0  0  0
   10.6853  -20.3920   23.3165 O   0  0  0  0  0  0  0  0  0  0  0  0
    9.2943  -15.4023   23.3519 C   0  0  0  0  0  0  0  0  0  0  0  0
   10.3029  -14.6570   23.4422 O   0  0  0  0  0  0  0  0  0  0  0  0
   12.1972  -19.0993   24.3787 O   0  0  0  0  0  0  0  0  0  0  0  0
    6.4489  -11.3644   26.8358 C   0  0  0  0  0  0  0  0  0  0  0  0
    7.5388  -12.3630   26.7059 C   0  0  0  0  0  0  0  0  0  0  0  0
    7.3616  -13.4267   25.6873 C   0  0  2  0  0  0  0  0  0  0  0  0
    6.0339  -14.1715   25.8658 C   0  0  0  0  0  0  0  0  0  0  0  0
    8.4580  -14.4174   25.5337 C   0  0  2  0  0  0  0  0  0  0  0  0
    8.3383  -15.3035   24.4000 N   0  0  0  0  0  0  0  0  0  0  0  0
    8.8044  -15.1252   26.7821 C   0  0  0  0  0  0  0  0  0  0  0  0
    9.4008  -14.4395   27.8328 O   0  0  0  0  0  0  0  0  0  0  0  0
    8.5942  -16.3523   26.9804 O   0  0  0  0  0  0  0  0  0  0  0  0
  2  3  1  0
  2  1  1  0
  3  4  1  1
  5  6  2  0
  5  3  1  0
  7  5  1  0
  8 13  1  0
  8  7  1  0
  8  9  1  1
 10 11  1  0
 10  9  1  0
 11 12  2  0
 13 21  1  0
 14 13  2  0
 15 11  1  0
 17 16  1  0
 18 17  1  0
 18 20  1  0
 18 19  1  1
 20 22  1  0
 20 21  1  6
 22 24  2  0
 22 23  1  0
M  END
$$$$
