SEI.pdb
     RDKit          3D

 24 23  0  0  1  0  0  0  0  0999 V2000
    8.2475  -13.5477   20.6176 O   0  0  0  0  0  0  0  0  0  0  0  0
    9.2055  -14.3146   19.9791 C   0  0  0  0  0  0  0  0  0  0  0  0
    8.8109  -15.7708   20.1643 C   0  0  2  0  0  0  0  0  0  0  0  0
    7.4991  -15.9584   19.6082 N   0  0  0  0  0  0  0  0  0  0  0  0
    8.7660  -16.0918   21.6047 C   0  0  0  0  0  0  0  0  0  0  0  0
    7.6295  -16.0842   22.1924 O   0  0  0  0  0  0  0  0  0  0  0  0
    9.9385  -16.4006   22.3261 N   0  0  0  0  0  0  0  0  0  0  0  0
    9.8341  -16.9167   23.6618 C   0  0  1  0  0  0  0  0  0  0  0  0
   10.8554  -18.0070   23.9229 C   0  0  0  0  0  0  0  0  0  0  0  0
   10.5453  -19.2199   23.0772 C   0  0  0  0  0  0  0  0  0  0  0  0
   11.5202  -20.3008   23.2508 C   0  0  0  0  0  0  0  0  0  0  0  0
   11.1572  -21.4123   23.6757 O   0  0  0  0  0  0  0  0  0  0  0  0
    9.9901  -15.7936   24.6326 C   0  0  0  0  0  0  0  0  0  0  0  0
   10.8789  -14.9212   24.4597 O   0  0  0  0  0  0  0  0  0  0  0  0
   12.8493  -20.1106   22.9493 O   0  0  0  0  0  0  0  0  0  0  0  0
    6.0709  -12.5867   26.2723 C   0  0  0  0  0  0  0  0  0  0  0  0
    7.3577  -13.2550   25.9563 C   0  0  0  0  0  0  0  0  0  0  0  0
    8.1225  -13.8191   27.0952 C   0  0  2  0  0  0  0  0  0  0  0  0
    8.4761  -12.7465   28.1315 C   0  0  0  0  0  0  0  0  0  0  0  0
    9.3402  -14.6090   26.7783 C   0  0  2  0  0  0  0  0  0  0  0  0
    9.1681  -15.6406   25.7829 N   0  0  0  0  0  0  0  0  0  0  0  0
   10.0770  -15.0768   27.9689 C   0  0  0  0  0  0  0  0  0  0  0  0
   10.0930  -16.4269   28.2961 O   0  0  0  0  0  0  0  0  0  0  0  0
   10.7197  -14.3193   28.7451 O   0  0  0  0  0  0  0  0  0  0  0  0
  2  3  1  0
  2  1  1  0
  3  4  1  1
  5  6  2  0
  5  3  1  0
  7  5  1  0
  8 13  1  0
  8  7  1  0
  8  9  1  1
 10 11  1  0
 10  9  1  0
 11 12  2  0
 13 21  1  0
 14 13  2  0
 15 11  1  0
 17 16  1  0
 18 17  1  0
 18 20  1  0
 18 19  1  1
 20 22  1  0
 20 21  1  1
 22 24  2  0
 22 23  1  0
M  END
$$$$
