SEI.pdb
     RDKit          3D

 24 23  0  0  1  0  0  0  0  0999 V2000
    8.3864  -12.3069   18.3525 O   0  0  0  0  0  0  0  0  0  0  0  0
    7.9457  -12.9989   19.4662 C   0  0  0  0  0  0  0  0  0  0  0  0
    8.3093  -14.4603   19.2593 C   0  0  2  0  0  0  0  0  0  0  0  0
    7.4466  -15.0020   18.2455 N   0  0  0  0  0  0  0  0  0  0  0  0
    8.0929  -15.2064   20.5148 C   0  0  0  0  0  0  0  0  0  0  0  0
    6.9174  -15.6465   20.7636 O   0  0  0  0  0  0  0  0  0  0  0  0
    9.1461  -15.4350   21.4251 N   0  0  0  0  0  0  0  0  0  0  0  0
    8.9141  -16.2416   22.5901 C   0  0  1  0  0  0  0  0  0  0  0  0
    9.6871  -17.5452   22.5324 C   0  0  0  0  0  0  0  0  0  0  0  0
   11.1491  -17.2687   22.2702 C   0  0  0  0  0  0  0  0  0  0  0  0
   11.9593  -18.4891   22.2138 C   0  0  0  0  0  0  0  0  0  0  0  0
   13.1173  -18.4542   21.7607 O   0  0  0  0  0  0  0  0  0  0  0  0
    9.2776  -15.4572   23.8069 C   0  0  0  0  0  0  0  0  0  0  0  0
   10.3428  -14.7899   23.8398 O   0  0  0  0  0  0  0  0  0  0  0  0
   11.4595  -19.6918   22.6579 O   0  0  0  0  0  0  0  0  0  0  0  0
    6.0358  -11.9574   25.9993 C   0  0  0  0  0  0  0  0  0  0  0  0
    7.2107  -12.7717   25.6011 C   0  0  0  0  0  0  0  0  0  0  0  0
    7.7645  -13.6993   26.6175 C   0  0  2  0  0  0  0  0  0  0  0  0
    8.2846  -12.9503   27.8496 C   0  0  0  0  0  0  0  0  0  0  0  0
    8.7944  -14.6713   26.1688 C   0  0  2  0  0  0  0  0  0  0  0  0
    8.4673  -15.4140   24.9747 N   0  0  0  0  0  0  0  0  0  0  0  0
    9.3223  -15.5262   27.2505 C   0  0  0  0  0  0  0  0  0  0  0  0
    9.1238  -16.9009   27.2159 O   0  0  0  0  0  0  0  0  0  0  0  0
    9.9653  -15.0923   28.2442 O   0  0  0  0  0  0  0  0  0  0  0  0
  2  3  1  0
  2  1  1  0
  3  4  1  6
  5  6  2  0
  5  3  1  0
  7  5  1  0
  8 13  1  0
  8  7  1  0
  8  9  1  6
 10 11  1  0
 10  9  1  0
 11 12  2  0
 13 21  1  0
 14 13  2  0
 15 11  1  0
 17 16  1  0
 18 17  1  0
 18 20  1  0
 18 19  1  1
 20 22  1  0
 20 21  1  6
 22 24  2  0
 22 23  1  0
M  END
$$$$
