SEI.pdb
     RDKit          3D

 24 23  0  0  1  0  0  0  0  0999 V2000
   14.0465  -15.7858   23.2762 O   0  0  0  0  0  0  0  0  0  0  0  0
   13.6194  -16.9286   22.6240 C   0  0  0  0  0  0  0  0  0  0  0  0
   12.9494  -16.4848   21.3338 C   0  0  2  0  0  0  0  0  0  0  0  0
   13.6985  -15.3857   20.7897 N   0  0  0  0  0  0  0  0  0  0  0  0
   11.5759  -16.0264   21.6221 C   0  0  0  0  0  0  0  0  0  0  0  0
   11.2896  -14.7975   21.4093 O   0  0  0  0  0  0  0  0  0  0  0  0
   10.5950  -16.9100   22.1195 N   0  0  0  0  0  0  0  0  0  0  0  0
    9.2502  -16.4435   22.3079 C   0  0  1  0  0  0  0  0  0  0  0  0
    8.2317  -17.5035   21.9350 C   0  0  0  0  0  0  0  0  0  0  0  0
    6.8342  -16.9404   22.0468 C   0  0  0  0  0  0  0  0  0  0  0  0
    5.7954  -17.9253   21.7309 C   0  0  0  0  0  0  0  0  0  0  0  0
    5.0281  -17.7428   20.7689 O   0  0  0  0  0  0  0  0  0  0  0  0
    9.0779  -16.0111   23.7262 C   0  0  0  0  0  0  0  0  0  0  0  0
    9.8055  -16.4925   24.6317 O   0  0  0  0  0  0  0  0  0  0  0  0
    5.6476  -19.0655   22.4869 O   0  0  0  0  0  0  0  0  0  0  0  0
    6.8566  -10.9476   25.6792 C   0  0  0  0  0  0  0  0  0  0  0  0
    7.6913  -12.1646   25.8351 C   0  0  0  0  0  0  0  0  0  0  0  0
    7.0088  -13.4738   25.6923 C   0  0  2  0  0  0  0  0  0  0  0  0
    6.0242  -13.7314   26.8385 C   0  0  0  0  0  0  0  0  0  0  0  0
    7.8631  -14.6749   25.5062 C   0  0  2  0  0  0  0  0  0  0  0  0
    8.1082  -15.0547   24.1349 N   0  0  0  0  0  0  0  0  0  0  0  0
    7.4830  -15.8179   26.3597 C   0  0  0  0  0  0  0  0  0  0  0  0
    6.6234  -16.7966   25.8765 O   0  0  0  0  0  0  0  0  0  0  0  0
    7.8920  -15.9851   27.5403 O   0  0  0  0  0  0  0  0  0  0  0  0
  2  3  1  0
  2  1  1  0
  3  4  1  1
  5  6  2  0
  5  3  1  0
  7  5  1  0
  8 13  1  0
  8  7  1  0
  8  9  1  1
 10 11  1  0
 10  9  1  0
 11 12  2  0
 13 21  1  0
 14 13  2  0
 15 11  1  0
 17 16  1  0
 18 17  1  0
 18 20  1  0
 18 19  1  1
 20 22  1  0
 20 21  1  6
 22 24  2  0
 22 23  1  0
M  END
$$$$
