SEI.pdb
     RDKit          3D

 24 23  0  0  1  0  0  0  0  0999 V2000
    7.3975  -14.4402   18.0973 O   0  0  0  0  0  0  0  0  0  0  0  0
    6.9792  -13.3038   18.7659 C   0  0  0  0  0  0  0  0  0  0  0  0
    8.0556  -12.9595   19.7824 C   0  0  2  0  0  0  0  0  0  0  0  0
    9.3272  -12.9613   19.1130 N   0  0  0  0  0  0  0  0  0  0  0  0
    8.0776  -13.9837   20.8456 C   0  0  0  0  0  0  0  0  0  0  0  0
    7.0295  -14.1343   21.5641 O   0  0  0  0  0  0  0  0  0  0  0  0
    9.2180  -14.7823   21.0738 N   0  0  0  0  0  0  0  0  0  0  0  0
    9.1713  -15.8179   22.0673 C   0  0  1  0  0  0  0  0  0  0  0  0
   10.1982  -16.9007   21.7969 C   0  0  0  0  0  0  0  0  0  0  0  0
   10.1576  -17.9380   22.8946 C   0  0  0  0  0  0  0  0  0  0  0  0
   11.1792  -18.9773   22.7355 C   0  0  0  0  0  0  0  0  0  0  0  0
   10.8583  -20.1792   22.7357 O   0  0  0  0  0  0  0  0  0  0  0  0
    9.3763  -15.2105   23.4153 C   0  0  0  0  0  0  0  0  0  0  0  0
   10.4071  -14.5327   23.6584 O   0  0  0  0  0  0  0  0  0  0  0  0
   12.5065  -18.6477   22.5835 O   0  0  0  0  0  0  0  0  0  0  0  0
    6.4172  -11.6791   25.6638 C   0  0  0  0  0  0  0  0  0  0  0  0
    7.4656  -12.6622   25.2945 C   0  0  0  0  0  0  0  0  0  0  0  0
    7.7102  -13.7762   26.2430 C   0  0  2  0  0  0  0  0  0  0  0  0
    8.1244  -13.2654   27.6276 C   0  0  0  0  0  0  0  0  0  0  0  0
    8.6511  -14.8441   25.8173 C   0  0  2  0  0  0  0  0  0  0  0  0
    8.4469  -15.3539   24.4820 N   0  0  0  0  0  0  0  0  0  0  0  0
    8.8358  -15.9132   26.8184 C   0  0  0  0  0  0  0  0  0  0  0  0
    9.6182  -15.6896   27.9446 O   0  0  0  0  0  0  0  0  0  0  0  0
    8.3199  -17.0601   26.7310 O   0  0  0  0  0  0  0  0  0  0  0  0
  2  3  1  0
  2  1  1  0
  3  4  1  6
  5  6  2  0
  5  3  1  0
  7  5  1  0
  8 13  1  0
  8  7  1  0
  8  9  1  6
 10 11  1  0
 10  9  1  0
 11 12  2  0
 13 21  1  0
 14 13  2  0
 15 11  1  0
 17 16  1  0
 18 17  1  0
 18 20  1  0
 18 19  1  1
 20 22  1  0
 20 21  1  6
 22 24  2  0
 22 23  1  0
M  END
$$$$
