SEI.pdb
     RDKit          3D

 24 23  0  0  1  0  0  0  0  0999 V2000
    9.1914  -12.9418   19.2627 O   0  0  0  0  0  0  0  0  0  0  0  0
    9.3361  -14.3061   19.4399 C   0  0  0  0  0  0  0  0  0  0  0  0
    7.9387  -14.9012   19.5014 C   0  0  2  0  0  0  0  0  0  0  0  0
    7.0216  -13.9642   18.9130 N   0  0  0  0  0  0  0  0  0  0  0  0
    7.5555  -15.1192   20.9104 C   0  0  0  0  0  0  0  0  0  0  0  0
    6.8776  -14.2095   21.5021 O   0  0  0  0  0  0  0  0  0  0  0  0
    7.9210  -16.2955   21.5982 N   0  0  0  0  0  0  0  0  0  0  0  0
    7.4506  -16.5089   22.9379 C   0  0  1  0  0  0  0  0  0  0  0  0
    7.6423  -17.9479   23.3768 C   0  0  0  0  0  0  0  0  0  0  0  0
    7.1656  -18.1228   24.7997 C   0  0  0  0  0  0  0  0  0  0  0  0
    7.3592  -19.4860   25.3028 C   0  0  0  0  0  0  0  0  0  0  0  0
    6.3790  -20.1871   25.6113 O   0  0  0  0  0  0  0  0  0  0  0  0
    8.1569  -15.5699   23.8585 C   0  0  0  0  0  0  0  0  0  0  0  0
    9.3987  -15.3978   23.7629 O   0  0  0  0  0  0  0  0  0  0  0  0
    8.6212  -20.0161   25.4436 O   0  0  0  0  0  0  0  0  0  0  0  0
    5.7924  -11.4106   27.5062 C   0  0  0  0  0  0  0  0  0  0  0  0
    6.3780  -12.7208   27.1284 C   0  0  0  0  0  0  0  0  0  0  0  0
    7.4897  -12.7050   26.1464 C   0  0  2  0  0  0  0  0  0  0  0  0
    7.0776  -12.0375   24.8295 C   0  0  0  0  0  0  0  0  0  0  0  0
    8.1582  -13.9976   25.8478 C   0  0  2  0  0  0  0  0  0  0  0  0
    7.4916  -14.8298   24.8743 N   0  0  0  0  0  0  0  0  0  0  0  0
    8.5807  -14.7446   27.0491 C   0  0  0  0  0  0  0  0  0  0  0  0
    8.1058  -16.0302   27.2766 O   0  0  0  0  0  0  0  0  0  0  0  0
    9.3701  -14.2919   27.9215 O   0  0  0  0  0  0  0  0  0  0  0  0
  2  3  1  0
  2  1  1  0
  3  4  1  1
  5  6  2  0
  5  3  1  0
  7  5  1  0
  8 13  1  0
  8  7  1  0
  8  9  1  1
 10 11  1  0
 10  9  1  0
 11 12  2  0
 13 21  1  0
 14 13  2  0
 15 11  1  0
 17 16  1  0
 18 17  1  0
 18 20  1  0
 18 19  1  6
 20 22  1  0
 20 21  1  1
 22 24  2  0
 22 23  1  0
M  END
$$$$
