WVV.pdb
     RDKit          3D

 29 30  0  0  1  0  0  0  0  0999 V2000
    5.3141  -17.9280   24.3850 N   0  0  0  0  0  0  0  0  0  0  0  0
    6.0387  -16.6789   24.2903 C   0  0  1  0  0  0  0  0  0  0  0  0
    6.6090  -16.3972   25.6676 C   0  0  0  0  0  0  0  0  0  0  0  0
    6.1132  -15.0997   26.1940 C   0  0  0  0  0  0  0  0  0  0  0  0
    4.8439  -14.7425   26.6054 C   0  0  0  0  0  0  0  0  0  0  0  0
    4.8580  -13.4700   27.0027 N   0  0  0  0  0  0  0  0  0  0  0  0
    6.0819  -12.9346   26.8829 C   0  0  0  0  0  0  0  0  0  0  0  0
    6.5888  -11.6699   27.1623 C   0  0  0  0  0  0  0  0  0  0  0  0
    7.9281  -11.4543   26.9154 C   0  0  0  0  0  0  0  0  0  0  0  0
    8.7212  -12.4671   26.4097 C   0  0  0  0  0  0  0  0  0  0  0  0
    8.2183  -13.7223   26.1325 C   0  0  0  0  0  0  0  0  0  0  0  0
    6.8760  -13.9414   26.3790 C   0  0  0  0  0  0  0  0  0  0  0  0
    7.0850  -16.8114   23.2688 C   0  0  0  0  0  0  0  0  0  0  0  0
    7.6766  -17.9212   23.1618 O   0  0  0  0  0  0  0  0  0  0  0  0
    8.6100  -13.4549   21.2265 C   0  0  0  0  0  0  0  0  0  0  0  0
    8.5921  -14.7644   20.4895 C   0  0  2  0  0  0  0  0  0  0  0  0
    7.3429  -14.7671   19.6448 C   0  0  0  0  0  0  0  0  0  0  0  0
    8.6399  -15.9004   21.4877 C   0  0  2  0  0  0  0  0  0  0  0  0
    7.4862  -15.7959   22.3913 N   0  0  0  0  0  0  0  0  0  0  0  0
    9.8336  -15.7361   22.3305 C   0  0  0  0  0  0  0  0  0  0  0  0
   10.9782  -15.8127   21.7604 O   0  0  0  0  0  0  0  0  0  0  0  0
   10.0160  -15.8708   26.5325 C   0  0  0  0  0  0  0  0  0  0  0  0
   10.8900  -14.8538   25.8561 C   0  0  1  0  0  0  0  0  0  0  0  0
   12.1680  -14.6306   26.6181 C   0  0  0  0  0  0  0  0  0  0  0  0
   11.1511  -15.3363   24.4330 C   0  0  2  0  0  0  0  0  0  0  0  0
    9.8850  -15.4949   23.7180 N   0  0  0  0  0  0  0  0  0  0  0  0
   11.8258  -16.6467   24.5541 C   0  0  0  0  0  0  0  0  0  0  0  0
   11.2480  -17.7021   24.2210 O   0  0  0  0  0  0  0  0  0  0  0  0
   13.1122  -16.7449   25.0379 O   0  0  0  0  0  0  0  0  0  0  0  0
  2  1  1  1
  2 13  1  0
  3  2  1  0
  4  3  1  0
  4 12  1  0
  5  6  1  0
  5  4  2  0
  6  7  1  0
  7 12  2  0
  7  8  1  0
  8  9  2  0
  9 10  1  0
 11 10  2  0
 12 11  1  0
 13 14  2  0
 16 17  1  1
 16 15  1  0
 16 18  1  0
 18 19  1  1
 19 13  1  0
 20 21  2  0
 20 18  1  0
 23 22  1  1
 23 25  1  0
 24 23  1  0
 25 26  1  6
 25 27  1  0
 26 20  1  0
 27 29  1  0
 28 27  2  0
M  END
$$$$
