WVV.pdb
     RDKit          3D

 29 30  0  0  1  0  0  0  0  0999 V2000
    5.9847  -18.4737   24.1453 N   0  0  0  0  0  0  0  0  0  0  0  0
    6.3198  -17.0675   24.0770 C   0  0  1  0  0  0  0  0  0  0  0  0
    7.1461  -16.7532   25.3098 C   0  0  0  0  0  0  0  0  0  0  0  0
    6.6084  -15.5661   26.0227 C   0  0  0  0  0  0  0  0  0  0  0  0
    5.3950  -15.3955   26.6603 C   0  0  0  0  0  0  0  0  0  0  0  0
    5.3381  -14.1622   27.1632 N   0  0  0  0  0  0  0  0  0  0  0  0
    6.4595  -13.4752   26.8998 C   0  0  0  0  0  0  0  0  0  0  0  0
    6.8665  -12.1814   27.2081 C   0  0  0  0  0  0  0  0  0  0  0  0
    8.1143  -11.7880   26.7726 C   0  0  0  0  0  0  0  0  0  0  0  0
    8.9160  -12.6587   26.0587 C   0  0  0  0  0  0  0  0  0  0  0  0
    8.5122  -13.9427   25.7528 C   0  0  0  0  0  0  0  0  0  0  0  0
    7.2618  -14.3399   26.1881 C   0  0  0  0  0  0  0  0  0  0  0  0
    7.0550  -16.8130   22.8318 C   0  0  0  0  0  0  0  0  0  0  0  0
    7.5612  -17.7980   22.2263 O   0  0  0  0  0  0  0  0  0  0  0  0
    6.3892  -13.6724   20.2361 C   0  0  0  0  0  0  0  0  0  0  0  0
    7.8354  -13.8873   20.5838 C   0  0  2  0  0  0  0  0  0  0  0  0
    8.6319  -13.5367   19.3523 C   0  0  0  0  0  0  0  0  0  0  0  0
    8.0336  -15.3176   21.0357 C   0  0  2  0  0  0  0  0  0  0  0  0
    7.2435  -15.5518   22.2519 N   0  0  0  0  0  0  0  0  0  0  0  0
    9.4406  -15.4979   21.4228 C   0  0  0  0  0  0  0  0  0  0  0  0
   10.3249  -15.4244   20.4990 O   0  0  0  0  0  0  0  0  0  0  0  0
   11.3796  -14.4049   24.8269 C   0  0  0  0  0  0  0  0  0  0  0  0
   11.6978  -15.8183   24.4308 C   0  0  1  0  0  0  0  0  0  0  0  0
   10.9390  -16.8104   25.2697 C   0  0  0  0  0  0  0  0  0  0  0  0
   11.3836  -15.9682   22.9459 C   0  0  2  0  0  0  0  0  0  0  0  0
    9.9576  -15.7430   22.7107 N   0  0  0  0  0  0  0  0  0  0  0  0
   11.7381  -17.3573   22.5828 C   0  0  0  0  0  0  0  0  0  0  0  0
   12.9273  -17.7374   22.5735 O   0  0  0  0  0  0  0  0  0  0  0  0
   10.7685  -18.2758   22.2437 O   0  0  0  0  0  0  0  0  0  0  0  0
  2  1  1  1
  2 13  1  0
  3  2  1  0
  4  3  1  0
  4 12  1  0
  5  6  1  0
  5  4  2  0
  6  7  1  0
  7 12  2  0
  7  8  1  0
  8  9  2  0
  9 10  1  0
 11 10  2  0
 12 11  1  0
 13 14  2  0
 16 17  1  6
 16 15  1  0
 16 18  1  0
 18 19  1  1
 19 13  1  0
 20 21  2  0
 20 18  1  0
 23 22  1  1
 23 25  1  0
 24 23  1  0
 25 26  1  1
 25 27  1  0
 26 20  1  0
 27 29  1  0
 28 27  2  0
M  END
$$$$
