WVV.pdb
     RDKit          3D

 29 30  0  0  1  0  0  0  0  0999 V2000
    6.4488  -19.0152   25.4168 N   0  0  0  0  0  0  0  0  0  0  0  0
    6.6590  -17.5916   25.2639 C   0  0  1  0  0  0  0  0  0  0  0  0
    7.3923  -17.1207   26.5056 C   0  0  0  0  0  0  0  0  0  0  0  0
    7.1097  -15.6884   26.7799 C   0  0  0  0  0  0  0  0  0  0  0  0
    5.9968  -14.9334   26.4645 C   0  0  0  0  0  0  0  0  0  0  0  0
    6.1775  -13.6883   26.9050 N   0  0  0  0  0  0  0  0  0  0  0  0
    7.3666  -13.5521   27.5104 C   0  0  0  0  0  0  0  0  0  0  0  0
    7.9962  -12.4714   28.1188 C   0  0  0  0  0  0  0  0  0  0  0  0
    9.2483  -12.6861   28.6550 C   0  0  0  0  0  0  0  0  0  0  0  0
    9.8395  -13.9333   28.5817 C   0  0  0  0  0  0  0  0  0  0  0  0
    9.2147  -15.0059   27.9780 C   0  0  0  0  0  0  0  0  0  0  0  0
    7.9595  -14.7938   27.4396 C   0  0  0  0  0  0  0  0  0  0  0  0
    7.4283  -17.3528   24.0363 C   0  0  0  0  0  0  0  0  0  0  0  0
    8.0229  -18.3315   23.5055 O   0  0  0  0  0  0  0  0  0  0  0  0
    6.4625  -14.4370   21.2846 C   0  0  0  0  0  0  0  0  0  0  0  0
    7.9314  -14.5368   21.5858 C   0  0  2  0  0  0  0  0  0  0  0  0
    8.6577  -14.2089   20.3056 C   0  0  0  0  0  0  0  0  0  0  0  0
    8.2412  -15.9220   22.1097 C   0  0  2  0  0  0  0  0  0  0  0  0
    7.5588  -16.1134   23.3966 N   0  0  0  0  0  0  0  0  0  0  0  0
    9.6811  -16.0055   22.3958 C   0  0  0  0  0  0  0  0  0  0  0  0
   10.4891  -15.9263   21.4049 O   0  0  0  0  0  0  0  0  0  0  0  0
   11.8086  -14.6214   25.5582 C   0  0  0  0  0  0  0  0  0  0  0  0
   12.1737  -16.0401   25.2266 C   0  0  1  0  0  0  0  0  0  0  0  0
   11.5386  -17.0114   26.1842 C   0  0  0  0  0  0  0  0  0  0  0  0
   11.7547  -16.3042   23.7841 C   0  0  2  0  0  0  0  0  0  0  0  0
   10.3052  -16.1610   23.6497 N   0  0  0  0  0  0  0  0  0  0  0  0
   12.1506  -17.6970   23.4832 C   0  0  0  0  0  0  0  0  0  0  0  0
   13.3534  -18.0279   23.4310 O   0  0  0  0  0  0  0  0  0  0  0  0
   11.2062  -18.6730   23.2511 O   0  0  0  0  0  0  0  0  0  0  0  0
  2  1  1  1
  2 13  1  0
  3  2  1  0
  4  3  1  0
  4 12  1  0
  5  6  1  0
  5  4  2  0
  6  7  1  0
  7 12  2  0
  7  8  1  0
  8  9  2  0
  9 10  1  0
 11 10  2  0
 12 11  1  0
 13 14  2  0
 16 17  1  6
 16 15  1  0
 16 18  1  0
 18 19  1  1
 19 13  1  0
 20 21  2  0
 20 18  1  0
 23 22  1  1
 23 25  1  0
 24 23  1  0
 25 26  1  1
 25 27  1  0
 26 20  1  0
 27 29  1  0
 28 27  2  0
M  END
$$$$
