WVV.pdb
     RDKit          3D

 29 30  0  0  1  0  0  0  0  0999 V2000
    6.1337  -17.1329   24.9188 N   0  0  0  0  0  0  0  0  0  0  0  0
    7.3525  -16.3812   24.7091 C   0  0  1  0  0  0  0  0  0  0  0  0
    7.5555  -15.5219   25.9427 C   0  0  0  0  0  0  0  0  0  0  0  0
    6.5438  -14.4363   26.0079 C   0  0  0  0  0  0  0  0  0  0  0  0
    5.1796  -14.5137   26.2106 C   0  0  0  0  0  0  0  0  0  0  0  0
    4.6671  -13.2832   26.1916 N   0  0  0  0  0  0  0  0  0  0  0  0
    5.6186  -12.3610   25.9846 C   0  0  0  0  0  0  0  0  0  0  0  0
    5.5815  -10.9741   25.8859 C   0  0  0  0  0  0  0  0  0  0  0  0
    6.7758  -10.3214   25.6649 C   0  0  0  0  0  0  0  0  0  0  0  0
    7.9546  -11.0338   25.5486 C   0  0  0  0  0  0  0  0  0  0  0  0
    7.9916  -12.4100   25.6466 C   0  0  0  0  0  0  0  0  0  0  0  0
    6.7959  -13.0671   25.8682 C   0  0  0  0  0  0  0  0  0  0  0  0
    8.4603  -17.3205   24.4939 C   0  0  0  0  0  0  0  0  0  0  0  0
    8.4602  -18.4018   25.1449 O   0  0  0  0  0  0  0  0  0  0  0  0
   12.9460  -18.2555   22.5587 C   0  0  0  0  0  0  0  0  0  0  0  0
   11.6347  -17.5267   22.4708 C   0  0  2  0  0  0  0  0  0  0  0  0
   11.9641  -16.0655   22.2959 C   0  0  0  0  0  0  0  0  0  0  0  0
   10.8210  -17.8102   23.7145 C   0  0  2  0  0  0  0  0  0  0  0  0
    9.5311  -17.1141   23.6145 N   0  0  0  0  0  0  0  0  0  0  0  0
   11.5118  -17.2237   24.8724 C   0  0  0  0  0  0  0  0  0  0  0  0
   12.2653  -16.2092   24.6632 O   0  0  0  0  0  0  0  0  0  0  0  0
   11.0991  -14.9254   27.3826 C   0  0  0  0  0  0  0  0  0  0  0  0
   11.4684  -16.1540   28.1634 C   0  0  1  0  0  0  0  0  0  0  0  0
   10.2487  -16.8600   28.6906 C   0  0  0  0  0  0  0  0  0  0  0  0
   12.2990  -17.0527   27.2531 C   0  0  2  0  0  0  0  0  0  0  0  0
   11.4486  -17.6393   26.2176 N   0  0  0  0  0  0  0  0  0  0  0  0
   12.8509  -18.1216   28.1132 C   0  0  0  0  0  0  0  0  0  0  0  0
   12.5121  -19.3132   27.9576 O   0  0  0  0  0  0  0  0  0  0  0  0
   13.7558  -17.8374   29.1126 O   0  0  0  0  0  0  0  0  0  0  0  0
  2  1  1  1
  2 13  1  0
  3  2  1  0
  4  3  1  0
  4 12  1  0
  5  6  1  0
  5  4  2  0
  6  7  1  0
  7 12  2  0
  7  8  1  0
  8  9  2  0
  9 10  1  0
 11 10  2  0
 12 11  1  0
 13 14  2  0
 16 17  1  1
 16 15  1  0
 16 18  1  0
 18 19  1  6
 19 13  1  0
 20 21  2  0
 20 18  1  0
 23 22  1  6
 23 25  1  0
 24 23  1  0
 25 26  1  6
 25 27  1  0
 26 20  1  0
 27 29  1  0
 28 27  2  0
M  END
$$$$
