WVV.pdb
     RDKit          3D

 29 30  0  0  1  0  0  0  0  0999 V2000
    6.0841  -16.9088   24.4633 N   0  0  0  0  0  0  0  0  0  0  0  0
    7.2970  -16.1194   24.4693 C   0  0  1  0  0  0  0  0  0  0  0  0
    7.3842  -15.4595   25.8324 C   0  0  0  0  0  0  0  0  0  0  0  0
    6.4538  -14.3054   25.9258 C   0  0  0  0  0  0  0  0  0  0  0  0
    5.1254  -14.2722   26.3030 C   0  0  0  0  0  0  0  0  0  0  0  0
    4.6866  -13.0151   26.2380 N   0  0  0  0  0  0  0  0  0  0  0  0
    5.6547  -12.1802   25.8324 C   0  0  0  0  0  0  0  0  0  0  0  0
    5.6851  -10.8067   25.6153 C   0  0  0  0  0  0  0  0  0  0  0  0
    6.8762  -10.2577   25.1896 C   0  0  0  0  0  0  0  0  0  0  0  0
    7.9868  -11.0563   24.9915 C   0  0  0  0  0  0  0  0  0  0  0  0
    7.9568  -12.4194   25.2070 C   0  0  0  0  0  0  0  0  0  0  0  0
    6.7642  -12.9726   25.6337 C   0  0  0  0  0  0  0  0  0  0  0  0
    8.4403  -17.0008   24.2010 C   0  0  0  0  0  0  0  0  0  0  0  0
    8.4242  -18.1639   24.6908 O   0  0  0  0  0  0  0  0  0  0  0  0
   10.9792  -17.3550   21.0487 C   0  0  0  0  0  0  0  0  0  0  0  0
   11.6931  -16.9624   22.3115 C   0  0  2  0  0  0  0  0  0  0  0  0
   13.0357  -17.6482   22.2791 C   0  0  0  0  0  0  0  0  0  0  0  0
   10.8505  -17.3560   23.5049 C   0  0  2  0  0  0  0  0  0  0  0  0
    9.5617  -16.6541   23.4364 N   0  0  0  0  0  0  0  0  0  0  0  0
   11.5120  -16.8749   24.7269 C   0  0  0  0  0  0  0  0  0  0  0  0
   12.1195  -15.7486   24.6693 O   0  0  0  0  0  0  0  0  0  0  0  0
   11.0417  -15.0372   27.5456 C   0  0  0  0  0  0  0  0  0  0  0  0
   11.5546  -16.3221   28.1302 C   0  0  1  0  0  0  0  0  0  0  0  0
   10.4287  -17.2025   28.6003 C   0  0  0  0  0  0  0  0  0  0  0  0
   12.4105  -17.0075   27.0702 C   0  0  2  0  0  0  0  0  0  0  0  0
   11.5628  -17.5044   25.9867 N   0  0  0  0  0  0  0  0  0  0  0  0
   13.0793  -18.1418   27.7436 C   0  0  0  0  0  0  0  0  0  0  0  0
   12.7800  -19.3221   27.4678 O   0  0  0  0  0  0  0  0  0  0  0  0
   14.0530  -17.9327   28.6958 O   0  0  0  0  0  0  0  0  0  0  0  0
  2  1  1  1
  2 13  1  0
  3  2  1  0
  4  3  1  0
  4 12  1  0
  5  6  1  0
  5  4  2  0
  6  7  1  0
  7 12  2  0
  7  8  1  0
  8  9  2  0
  9 10  1  0
 11 10  2  0
 12 11  1  0
 13 14  2  0
 16 17  1  1
 16 15  1  0
 16 18  1  0
 18 19  1  6
 19 13  1  0
 20 21  2  0
 20 18  1  0
 23 22  1  6
 23 25  1  0
 24 23  1  0
 25 26  1  6
 25 27  1  0
 26 20  1  0
 27 29  1  0
 28 27  2  0
M  END
$$$$
