WVV.pdb
     RDKit          3D

 29 30  0  0  1  0  0  0  0  0999 V2000
    6.0259  -17.4937   24.6851 N   0  0  0  0  0  0  0  0  0  0  0  0
    6.7146  -16.3119   24.2124 C   0  0  1  0  0  0  0  0  0  0  0  0
    7.6107  -15.8444   25.3436 C   0  0  0  0  0  0  0  0  0  0  0  0
    6.8921  -14.8996   26.2365 C   0  0  0  0  0  0  0  0  0  0  0  0
    5.9207  -15.1501   27.1860 C   0  0  0  0  0  0  0  0  0  0  0  0
    5.5569  -13.9980   27.7497 N   0  0  0  0  0  0  0  0  0  0  0  0
    6.2353  -12.9644   27.2300 C   0  0  0  0  0  0  0  0  0  0  0  0
    6.2106  -11.5972   27.4844 C   0  0  0  0  0  0  0  0  0  0  0  0
    7.0620  -10.7994   26.7496 C   0  0  0  0  0  0  0  0  0  0  0  0
    7.9006  -11.3539   25.8011 C   0  0  0  0  0  0  0  0  0  0  0  0
    7.9253  -12.7107   25.5485 C   0  0  0  0  0  0  0  0  0  0  0  0
    7.0729  -13.5130   26.2836 C   0  0  0  0  0  0  0  0  0  0  0  0
    7.4738  -16.6548   23.0033 C   0  0  0  0  0  0  0  0  0  0  0  0
    7.8756  -17.8438   22.8688 O   0  0  0  0  0  0  0  0  0  0  0  0
    7.4069  -14.7046   19.3451 C   0  0  0  0  0  0  0  0  0  0  0  0
    8.7789  -14.8954   19.9279 C   0  0  2  0  0  0  0  0  0  0  0  0
    9.7146  -15.1147   18.7658 C   0  0  0  0  0  0  0  0  0  0  0  0
    8.7523  -16.0548   20.8996 C   0  0  2  0  0  0  0  0  0  0  0  0
    7.7933  -15.7610   21.9731 N   0  0  0  0  0  0  0  0  0  0  0  0
   10.0689  -16.1569   21.5463 C   0  0  0  0  0  0  0  0  0  0  0  0
   10.4819  -15.1457   22.2155 O   0  0  0  0  0  0  0  0  0  0  0  0
   13.8762  -18.5232   23.4832 C   0  0  0  0  0  0  0  0  0  0  0  0
   12.4400  -18.4724   23.0467 C   0  0  1  0  0  0  0  0  0  0  0  0
   11.5040  -18.5115   24.2240 C   0  0  0  0  0  0  0  0  0  0  0  0
   12.2516  -17.2116   22.2095 C   0  0  2  0  0  0  0  0  0  0  0  0
   10.9571  -17.2509   21.5297 N   0  0  0  0  0  0  0  0  0  0  0  0
   13.3423  -17.2073   21.2108 C   0  0  0  0  0  0  0  0  0  0  0  0
   13.1850  -17.7189   20.0828 O   0  0  0  0  0  0  0  0  0  0  0  0
   14.5655  -16.6391   21.4925 O   0  0  0  0  0  0  0  0  0  0  0  0
  2  1  1  1
  2 13  1  0
  3  2  1  0
  4  3  1  0
  4 12  1  0
  5  6  1  0
  5  4  2  0
  6  7  1  0
  7 12  2  0
  7  8  1  0
  8  9  2  0
  9 10  1  0
 11 10  2  0
 12 11  1  0
 13 14  2  0
 16 17  1  6
 16 15  1  0
 16 18  1  0
 18 19  1  1
 19 13  1  0
 20 21  2  0
 20 18  1  0
 23 22  1  1
 23 25  1  0
 24 23  1  0
 25 26  1  6
 25 27  1  0
 26 20  1  0
 27 29  1  0
 28 27  2  0
M  END
$$$$
