HVN.pdb
     RDKit          3D

 26 26  0  0  1  0  0  0  0  0999 V2000
   24.7712  -36.8381  -11.2885 N   0  0  0  0  0  0  0  0  0  0  0  0
   24.0968  -36.5620  -10.0543 C   0  0  1  0  0  0  0  0  0  0  0  0
   23.4439  -37.7893   -9.4600 C   0  0  0  0  0  0  0  0  0  0  0  0
   22.3504  -38.2035  -10.3782 C   0  0  0  0  0  0  0  0  0  0  0  0
   22.3180  -39.4103  -11.0362 C   0  0  0  0  0  0  0  0  0  0  0  0
   21.1857  -39.4143  -11.7622 N   0  0  0  0  0  0  0  0  0  0  0  0
   20.5495  -38.2434  -11.5507 C   0  0  0  0  0  0  0  0  0  0  0  0
   21.2536  -37.4806  -10.6978 N   0  0  0  0  0  0  0  0  0  0  0  0
   25.0877  -36.0714   -9.0087 C   0  0  0  0  0  0  0  0  0  0  0  0
   26.1628  -36.6802   -8.8479 O   0  0  0  0  0  0  0  0  0  0  0  0
   25.1148  -32.0078   -8.3194 C   0  0  0  0  0  0  0  0  0  0  0  0
   25.0556  -32.8122   -7.0245 C   0  0  1  0  0  0  0  0  0  0  0  0
   23.5415  -32.8823   -6.7302 C   0  0  0  0  0  0  0  0  0  0  0  0
   25.5163  -34.2353   -7.2621 C   0  0  2  0  0  0  0  0  0  0  0  0
   24.7426  -34.9404   -8.2620 N   0  0  0  0  0  0  0  0  0  0  0  0
   25.4827  -35.0472   -6.0564 C   0  0  0  0  0  0  0  0  0  0  0  0
   24.4929  -35.7611   -5.7122 O   0  0  0  0  0  0  0  0  0  0  0  0
   29.9044  -35.0552   -2.3422 N   0  0  0  0  0  0  0  0  0  0  0  0
   28.6260  -34.8472   -2.9863 C   0  0  0  0  0  0  0  0  0  0  0  0
   28.2393  -33.6685   -3.0779 O   0  0  0  0  0  0  0  0  0  0  0  0
   27.9447  -36.0542   -3.4514 C   0  0  0  0  0  0  0  0  0  0  0  0
   26.5503  -35.8964   -3.9409 C   0  0  2  0  0  0  0  0  0  0  0  0
   26.5883  -35.0866   -5.1753 N   0  0  0  0  0  0  0  0  0  0  0  0
   25.7165  -35.1859   -2.9669 C   0  0  0  0  0  0  0  0  0  0  0  0
   25.2500  -35.7364   -1.7920 O   0  0  0  0  0  0  0  0  0  0  0  0
   25.3895  -33.9832   -3.2005 O   0  0  0  0  0  0  0  0  0  0  0  0
  2  1  1  6
  2  9  1  0
  3  4  1  0
  3  2  1  0
  4  8  1  0
  5  4  2  0
  5  6  1  0
  6  7  1  0
  8  7  2  0
  9 10  2  0
 12 11  1  6
 12 13  1  0
 12 14  1  0
 14 16  1  0
 15  9  1  0
 14 15  1  6
 16 23  1  0
 16 17  2  0
 18 19  1  0
 19 20  2  0
 19 21  1  0
 22 21  1  1
 22 24  1  0
 23 22  1  0
 24 26  2  0
 24 25  1  0
M  END
$$$$
