HVN.pdb
     RDKit          3D

 26 26  0  0  1  0  0  0  0  0999 V2000
   15.0817  -10.3632  -14.8111 N   0  0  0  0  0  0  0  0  0  0  0  0
   14.7092  -11.2310  -13.7330 C   0  0  1  0  0  0  0  0  0  0  0  0
   15.1594  -12.6577  -13.9513 C   0  0  0  0  0  0  0  0  0  0  0  0
   14.3743  -13.2055  -15.0888 C   0  0  0  0  0  0  0  0  0  0  0  0
   13.2575  -13.9935  -14.9400 C   0  0  0  0  0  0  0  0  0  0  0  0
   12.8333  -14.2859  -16.1825 N   0  0  0  0  0  0  0  0  0  0  0  0
   13.6689  -13.6921  -17.0599 C   0  0  0  0  0  0  0  0  0  0  0  0
   14.6287  -13.0191  -16.4034 N   0  0  0  0  0  0  0  0  0  0  0  0
   15.3710  -10.7804  -12.4387 C   0  0  0  0  0  0  0  0  0  0  0  0
   15.3135  -11.5126  -11.4322 O   0  0  0  0  0  0  0  0  0  0  0  0
   18.9500   -9.5522  -12.3263 C   0  0  0  0  0  0  0  0  0  0  0  0
   18.1220   -8.4067  -11.7522 C   0  0  1  0  0  0  0  0  0  0  0  0
   17.9315   -7.4748  -12.9685 C   0  0  0  0  0  0  0  0  0  0  0  0
   16.7425   -8.8934  -11.3600 C   0  0  2  0  0  0  0  0  0  0  0  0
   16.0251   -9.5443  -12.4357 N   0  0  0  0  0  0  0  0  0  0  0  0
   15.8860   -7.8252  -10.8708 C   0  0  0  0  0  0  0  0  0  0  0  0
   15.0838   -7.1708  -11.6031 O   0  0  0  0  0  0  0  0  0  0  0  0
   13.6366   -4.3575   -7.7082 N   0  0  0  0  0  0  0  0  0  0  0  0
   14.2831   -5.3320   -6.8567 C   0  0  0  0  0  0  0  0  0  0  0  0
   14.1600   -5.1617   -5.6307 O   0  0  0  0  0  0  0  0  0  0  0  0
   15.0039   -6.4004   -7.5468 C   0  0  0  0  0  0  0  0  0  0  0  0
   15.1044   -6.3011   -9.0262 C   0  0  2  0  0  0  0  0  0  0  0  0
   15.9011   -7.4474   -9.5079 N   0  0  0  0  0  0  0  0  0  0  0  0
   15.7945   -5.0746   -9.4363 C   0  0  0  0  0  0  0  0  0  0  0  0
   17.1498   -4.9850   -9.6730 O   0  0  0  0  0  0  0  0  0  0  0  0
   15.1192   -4.0122   -9.5890 O   0  0  0  0  0  0  0  0  0  0  0  0
  2  1  1  6
  2  9  1  0
  3  4  1  0
  3  2  1  0
  4  8  1  0
  5  4  2  0
  5  6  1  0
  6  7  1  0
  8  7  2  0
  9 10  2  0
 12 11  1  6
 12 13  1  0
 12 14  1  0
 14 16  1  0
 15  9  1  0
 14 15  1  6
 16 23  1  0
 16 17  2  0
 18 19  1  0
 19 20  2  0
 19 21  1  0
 22 21  1  1
 22 24  1  0
 23 22  1  0
 24 26  2  0
 24 25  1  0
M  END
$$$$
