HVN.pdb
     RDKit          3D

 26 26  0  0  1  0  0  0  0  0999 V2000
   27.9587  -21.1918  -16.3697 N   0  0  0  0  0  0  0  0  0  0  0  0
   27.4764  -20.3651  -15.3029 C   0  0  1  0  0  0  0  0  0  0  0  0
   26.7215  -19.1534  -15.8005 C   0  0  0  0  0  0  0  0  0  0  0  0
   27.6910  -18.2876  -16.5224 C   0  0  0  0  0  0  0  0  0  0  0  0
   29.0399  -18.5434  -16.5959 C   0  0  0  0  0  0  0  0  0  0  0  0
   29.5740  -17.5473  -17.3250 N   0  0  0  0  0  0  0  0  0  0  0  0
   28.5776  -16.7111  -17.6835 C   0  0  0  0  0  0  0  0  0  0  0  0
   27.4052  -17.1514  -17.1969 N   0  0  0  0  0  0  0  0  0  0  0  0
   26.4935  -21.1397  -14.4368 C   0  0  0  0  0  0  0  0  0  0  0  0
   25.8189  -22.0567  -14.9433 O   0  0  0  0  0  0  0  0  0  0  0  0
   25.9349  -19.4564  -10.3973 C   0  0  0  0  0  0  0  0  0  0  0  0
   25.8400  -20.9536  -10.6747 C   0  0  1  0  0  0  0  0  0  0  0  0
   24.6628  -21.3969   -9.7793 C   0  0  0  0  0  0  0  0  0  0  0  0
   25.4122  -21.2022  -12.1060 C   0  0  2  0  0  0  0  0  0  0  0  0
   26.3887  -20.7824  -13.0888 N   0  0  0  0  0  0  0  0  0  0  0  0
   24.1641  -20.5378  -12.4447 C   0  0  0  0  0  0  0  0  0  0  0  0
   24.0581  -19.2893  -12.6397 O   0  0  0  0  0  0  0  0  0  0  0  0
   19.3734  -19.7545  -14.2186 N   0  0  0  0  0  0  0  0  0  0  0  0
   20.2644  -20.5024  -15.0785 C   0  0  0  0  0  0  0  0  0  0  0  0
   19.8889  -20.6673  -16.2527 O   0  0  0  0  0  0  0  0  0  0  0  0
   21.5010  -20.9733  -14.4569 C   0  0  0  0  0  0  0  0  0  0  0  0
   21.7172  -20.6185  -13.0299 C   0  0  2  0  0  0  0  0  0  0  0  0
   22.9629  -21.2720  -12.5805 N   0  0  0  0  0  0  0  0  0  0  0  0
   20.6257  -21.1090  -12.1834 C   0  0  0  0  0  0  0  0  0  0  0  0
   19.6107  -20.3197  -11.6856 O   0  0  0  0  0  0  0  0  0  0  0  0
   20.5933  -22.3386  -11.8750 O   0  0  0  0  0  0  0  0  0  0  0  0
  2  1  1  6
  2  9  1  0
  3  4  1  0
  3  2  1  0
  4  8  1  0
  5  4  2  0
  5  6  1  0
  6  7  1  0
  8  7  2  0
  9 10  2  0
 12 11  1  6
 12 13  1  0
 12 14  1  0
 14 16  1  0
 15  9  1  0
 14 15  1  6
 16 23  1  0
 16 17  2  0
 18 19  1  0
 19 20  2  0
 19 21  1  0
 22 21  1  6
 22 24  1  0
 23 22  1  0
 24 26  2  0
 24 25  1  0
M  END
$$$$
