YEV.pdb
     RDKit          3D

 29 29  0  0  1  0  0  0  0  0999 V2000
   10.2018  -12.8904   18.6209 O   0  0  0  0  0  0  0  0  0  0  0  0
    9.1149  -13.5117   19.2459 C   0  0  0  0  0  0  0  0  0  0  0  0
    9.2248  -13.9283   20.5596 C   0  0  0  0  0  0  0  0  0  0  0  0
    8.1692  -14.5434   21.2015 C   0  0  0  0  0  0  0  0  0  0  0  0
    6.9739  -14.7621   20.5552 C   0  0  0  0  0  0  0  0  0  0  0  0
    5.8156  -15.4306   21.2469 C   0  0  0  0  0  0  0  0  0  0  0  0
    6.1364  -16.8903   21.5090 C   0  0  2  0  0  0  0  0  0  0  0  0
    4.9594  -17.6304   21.0321 N   0  0  0  0  0  0  0  0  0  0  0  0
    6.3568  -17.1738   22.9279 C   0  0  0  0  0  0  0  0  0  0  0  0
    5.4136  -17.1203   23.7592 O   0  0  0  0  0  0  0  0  0  0  0  0
    6.8727  -14.3469   19.2545 C   0  0  0  0  0  0  0  0  0  0  0  0
    7.9242  -13.7278   18.5972 C   0  0  0  0  0  0  0  0  0  0  0  0
    7.6538  -17.5193   23.3995 N   0  0  0  0  0  0  0  0  0  0  0  0
    8.0286  -17.6186   24.7843 C   0  0  1  0  0  0  0  0  0  0  0  0
    8.5619  -18.9159   25.2372 C   0  0  0  0  0  0  0  0  0  0  0  0
    9.0545  -19.0978   26.6056 C   0  0  0  0  0  0  0  0  0  0  0  0
    9.6616  -20.3952   26.9509 C   0  0  0  0  0  0  0  0  0  0  0  0
   10.7615  -20.8339   26.5490 O   0  0  0  0  0  0  0  0  0  0  0  0
    8.7906  -16.4406   25.2500 C   0  0  0  0  0  0  0  0  0  0  0  0
    9.8629  -16.0346   24.7123 O   0  0  0  0  0  0  0  0  0  0  0  0
    8.9695  -21.2502   27.8117 O   0  0  0  0  0  0  0  0  0  0  0  0
    6.9199  -13.1938   26.4617 C   0  0  0  0  0  0  0  0  0  0  0  0
    7.9207  -13.6365   27.5200 C   0  0  2  0  0  0  0  0  0  0  0  0
    8.5351  -12.3867   28.0992 C   0  0  0  0  0  0  0  0  0  0  0  0
    8.9882  -14.5182   26.8793 C   0  0  2  0  0  0  0  0  0  0  0  0
    8.3168  -15.7008   26.3635 N   0  0  0  0  0  0  0  0  0  0  0  0
    9.9131  -14.9049   27.9866 C   0  0  0  0  0  0  0  0  0  0  0  0
   10.9955  -14.1283   28.3499 O   0  0  0  0  0  0  0  0  0  0  0  0
    9.7003  -15.9717   28.6086 O   0  0  0  0  0  0  0  0  0  0  0  0
  2  1  1  0
  3  2  2  0
  4  3  1  0
  5 11  1  0
  5  4  2  0
  6  5  1  0
  7  6  1  0
  7  8  1  1
  9  7  1  0
  9 10  2  0
 11 12  2  0
 12  2  1  0
 13  9  1  0
 14 13  1  0
 14 15  1  6
 16 15  1  0
 16 17  1  0
 17 18  2  0
 19 14  1  0
 20 19  2  0
 21 17  1  0
 23 22  1  6
 23 25  1  0
 24 23  1  0
 25 27  1  0
 25 26  1  1
 26 19  1  0
 27 28  1  0
 29 27  2  0
M  END
$$$$
