YEV.pdb
     RDKit          3D

 29 29  0  0  1  0  0  0  0  0999 V2000
    8.1595  -10.8506   23.0769 O   0  0  0  0  0  0  0  0  0  0  0  0
    7.8636  -11.9937   22.3261 C   0  0  0  0  0  0  0  0  0  0  0  0
    8.2314  -12.0546   20.9947 C   0  0  0  0  0  0  0  0  0  0  0  0
    7.9529  -13.1693   20.2301 C   0  0  0  0  0  0  0  0  0  0  0  0
    7.3004  -14.2555   20.7675 C   0  0  0  0  0  0  0  0  0  0  0  0
    6.9934  -15.4770   19.9425 C   0  0  0  0  0  0  0  0  0  0  0  0
    8.1183  -16.4876   20.0681 C   0  0  2  0  0  0  0  0  0  0  0  0
    7.6942  -17.6329   19.2501 N   0  0  0  0  0  0  0  0  0  0  0  0
    8.3366  -16.9206   21.4490 C   0  0  0  0  0  0  0  0  0  0  0  0
    7.4811  -17.6123   22.0599 O   0  0  0  0  0  0  0  0  0  0  0  0
    6.9393  -14.1876   22.0864 C   0  0  0  0  0  0  0  0  0  0  0  0
    7.2124  -13.0750   22.8664 C   0  0  0  0  0  0  0  0  0  0  0  0
    9.5316  -16.5650   22.1341 N   0  0  0  0  0  0  0  0  0  0  0  0
    9.8716  -16.9786   23.4688 C   0  0  1  0  0  0  0  0  0  0  0  0
   10.8729  -18.0527   23.5971 C   0  0  0  0  0  0  0  0  0  0  0  0
   10.6392  -19.3805   23.0223 C   0  0  0  0  0  0  0  0  0  0  0  0
   11.7029  -20.3897   23.1683 C   0  0  0  0  0  0  0  0  0  0  0  0
   12.6648  -20.5763   22.3916 O   0  0  0  0  0  0  0  0  0  0  0  0
   10.0729  -15.8338   24.3819 C   0  0  0  0  0  0  0  0  0  0  0  0
   10.9136  -14.9083   24.1805 O   0  0  0  0  0  0  0  0  0  0  0  0
   11.6685  -21.2434   24.2734 O   0  0  0  0  0  0  0  0  0  0  0  0
    7.4555  -13.5954   25.8982 C   0  0  0  0  0  0  0  0  0  0  0  0
    8.1847  -14.2374   27.0702 C   0  0  2  0  0  0  0  0  0  0  0  0
    8.3514  -13.1725   28.1253 C   0  0  0  0  0  0  0  0  0  0  0  0
    9.5417  -14.7582   26.6068 C   0  0  2  0  0  0  0  0  0  0  0  0
    9.2923  -15.7391   25.5623 N   0  0  0  0  0  0  0  0  0  0  0  0
   10.1463  -15.4294   27.7963 C   0  0  0  0  0  0  0  0  0  0  0  0
   11.0195  -14.7799   28.6463 O   0  0  0  0  0  0  0  0  0  0  0  0
    9.8516  -16.6242   28.0322 O   0  0  0  0  0  0  0  0  0  0  0  0
  2  1  1  0
  3  2  2  0
  4  3  1  0
  5 11  1  0
  5  4  2  0
  6  5  1  0
  7  6  1  0
  7  8  1  6
  9  7  1  0
  9 10  2  0
 11 12  2  0
 12  2  1  0
 13  9  1  0
 14 13  1  0
 14 15  1  6
 16 15  1  0
 16 17  1  0
 17 18  2  0
 19 14  1  0
 20 19  2  0
 21 17  1  0
 23 22  1  6
 23 25  1  0
 24 23  1  0
 25 27  1  0
 25 26  1  6
 26 19  1  0
 27 28  1  0
 29 27  2  0
M  END
$$$$
