YEV.pdb
     RDKit          3D

 29 29  0  0  1  0  0  0  0  0999 V2000
    7.8922  -13.6148   14.3307 O   0  0  0  0  0  0  0  0  0  0  0  0
    7.6735  -13.9576   15.6696 C   0  0  0  0  0  0  0  0  0  0  0  0
    8.0203  -13.0697   16.6710 C   0  0  0  0  0  0  0  0  0  0  0  0
    7.8158  -13.3810   17.9999 C   0  0  0  0  0  0  0  0  0  0  0  0
    7.2606  -14.5845   18.3712 C   0  0  0  0  0  0  0  0  0  0  0  0
    7.0317  -14.9330   19.8179 C   0  0  0  0  0  0  0  0  0  0  0  0
    8.3438  -14.8902   20.5788 C   0  0  2  0  0  0  0  0  0  0  0  0
    9.2052  -15.8745   19.9081 N   0  0  0  0  0  0  0  0  0  0  0  0
    8.1900  -15.2482   21.9896 C   0  0  0  0  0  0  0  0  0  0  0  0
    7.3205  -14.6965   22.7128 O   0  0  0  0  0  0  0  0  0  0  0  0
    6.9200  -15.4585   17.3740 C   0  0  0  0  0  0  0  0  0  0  0  0
    7.1194  -15.1595   16.0354 C   0  0  0  0  0  0  0  0  0  0  0  0
    9.0282  -16.2367   22.5764 N   0  0  0  0  0  0  0  0  0  0  0  0
    9.0473  -16.5786   23.9731 C   0  0  1  0  0  0  0  0  0  0  0  0
    9.7274  -17.8334   24.3411 C   0  0  0  0  0  0  0  0  0  0  0  0
    9.8043  -18.2738   25.7369 C   0  0  0  0  0  0  0  0  0  0  0  0
   10.5845  -19.4883   26.0326 C   0  0  0  0  0  0  0  0  0  0  0  0
   10.2573  -20.4143   26.8065 O   0  0  0  0  0  0  0  0  0  0  0  0
    9.3751  -15.4226   24.8341 C   0  0  0  0  0  0  0  0  0  0  0  0
   10.5054  -14.8518   24.8509 O   0  0  0  0  0  0  0  0  0  0  0  0
   11.8204  -19.6594   25.4044 O   0  0  0  0  0  0  0  0  0  0  0  0
    6.7179  -12.5654   25.4131 C   0  0  0  0  0  0  0  0  0  0  0  0
    7.2440  -13.0666   26.7508 C   0  0  2  0  0  0  0  0  0  0  0  0
    7.3681  -11.8663   27.6558 C   0  0  0  0  0  0  0  0  0  0  0  0
    8.6001  -13.7363   26.5501 C   0  0  2  0  0  0  0  0  0  0  0  0
    8.3845  -14.8993   25.7038 N   0  0  0  0  0  0  0  0  0  0  0  0
    9.0409  -14.1743   27.9083 C   0  0  0  0  0  0  0  0  0  0  0  0
    9.6968  -13.3283   28.7805 O   0  0  0  0  0  0  0  0  0  0  0  0
    8.8082  -15.3512   28.2702 O   0  0  0  0  0  0  0  0  0  0  0  0
  2  1  1  0
  3  2  2  0
  4  3  1  0
  5 11  1  0
  5  4  2  0
  6  5  1  0
  7  6  1  0
  7  8  1  6
  9  7  1  0
  9 10  2  0
 11 12  2  0
 12  2  1  0
 13  9  1  0
 14 13  1  0
 14 15  1  6
 16 15  1  0
 16 17  1  0
 17 18  2  0
 19 14  1  0
 20 19  2  0
 21 17  1  0
 23 22  1  6
 23 25  1  0
 24 23  1  0
 25 27  1  0
 25 26  1  6
 26 19  1  0
 27 28  1  0
 29 27  2  0
M  END
$$$$
