YEV.pdb
     RDKit          3D

 29 29  0  0  1  0  0  0  0  0999 V2000
    7.0714  -12.3550   16.4652 O   0  0  0  0  0  0  0  0  0  0  0  0
    7.2234  -12.8854   17.7511 C   0  0  0  0  0  0  0  0  0  0  0  0
    6.4092  -13.9227   18.1664 C   0  0  0  0  0  0  0  0  0  0  0  0
    6.5368  -14.4656   19.4289 C   0  0  0  0  0  0  0  0  0  0  0  0
    7.4778  -13.9921   20.3147 C   0  0  0  0  0  0  0  0  0  0  0  0
    7.6264  -14.5785   21.6935 C   0  0  0  0  0  0  0  0  0  0  0  0
    8.6766  -15.6737   21.6843 C   0  0  2  0  0  0  0  0  0  0  0  0
    8.1488  -16.6998   20.7737 N   0  0  0  0  0  0  0  0  0  0  0  0
    8.8974  -16.2552   23.0092 C   0  0  0  0  0  0  0  0  0  0  0  0
    7.9475  -16.4163   23.8187 O   0  0  0  0  0  0  0  0  0  0  0  0
    8.2802  -12.9648   19.8963 C   0  0  0  0  0  0  0  0  0  0  0  0
    8.1636  -12.4099   18.6317 C   0  0  0  0  0  0  0  0  0  0  0  0
   10.2025  -16.6538   23.4114 N   0  0  0  0  0  0  0  0  0  0  0  0
   10.5355  -17.2140   24.6934 C   0  0  1  0  0  0  0  0  0  0  0  0
   11.3541  -18.4397   24.6908 C   0  0  0  0  0  0  0  0  0  0  0  0
   12.4405  -18.6246   23.7245 C   0  0  0  0  0  0  0  0  0  0  0  0
   13.3024  -19.8098   23.8777 C   0  0  0  0  0  0  0  0  0  0  0  0
   13.1890  -20.7072   24.7410 O   0  0  0  0  0  0  0  0  0  0  0  0
   10.9642  -16.1865   25.6657 C   0  0  0  0  0  0  0  0  0  0  0  0
   11.8229  -15.2903   25.4145 O   0  0  0  0  0  0  0  0  0  0  0  0
   14.3647  -19.9845   22.9876 O   0  0  0  0  0  0  0  0  0  0  0  0
    8.4208  -15.1335   28.6280 C   0  0  0  0  0  0  0  0  0  0  0  0
    9.6730  -14.3283   28.3101 C   0  0  2  0  0  0  0  0  0  0  0  0
    9.3598  -13.4802   27.1027 C   0  0  0  0  0  0  0  0  0  0  0  0
   10.8326  -15.2764   28.0202 C   0  0  2  0  0  0  0  0  0  0  0  0
   10.3972  -16.1786   26.9657 N   0  0  0  0  0  0  0  0  0  0  0  0
   11.0542  -16.0438   29.2823 C   0  0  0  0  0  0  0  0  0  0  0  0
   11.7101  -15.5026   30.3702 O   0  0  0  0  0  0  0  0  0  0  0  0
   10.6306  -17.2207   29.3577 O   0  0  0  0  0  0  0  0  0  0  0  0
  2  1  1  0
  3  2  2  0
  4  3  1  0
  5 11  1  0
  5  4  2  0
  6  5  1  0
  7  6  1  0
  7  8  1  6
  9  7  1  0
  9 10  2  0
 11 12  2  0
 12  2  1  0
 13  9  1  0
 14 13  1  0
 14 15  1  6
 16 15  1  0
 16 17  1  0
 17 18  2  0
 19 14  1  0
 20 19  2  0
 21 17  1  0
 23 22  1  6
 23 25  1  0
 24 23  1  0
 25 27  1  0
 25 26  1  6
 26 19  1  0
 27 28  1  0
 29 27  2  0
M  END
$$$$
