YEV.pdb
     RDKit          3D

 29 29  0  0  1  0  0  0  0  0999 V2000
    9.0831  -11.7491   19.5535 O   0  0  0  0  0  0  0  0  0  0  0  0
    8.2299  -12.7694   19.9882 C   0  0  0  0  0  0  0  0  0  0  0  0
    7.8724  -13.7826   19.1182 C   0  0  0  0  0  0  0  0  0  0  0  0
    7.0329  -14.8019   19.5196 C   0  0  0  0  0  0  0  0  0  0  0  0
    6.5247  -14.8427   20.7980 C   0  0  0  0  0  0  0  0  0  0  0  0
    5.6097  -15.9511   21.2465 C   0  0  0  0  0  0  0  0  0  0  0  0
    6.4166  -17.1943   21.5718 C   0  0  2  0  0  0  0  0  0  0  0  0
    5.4175  -18.2501   21.7907 N   0  0  0  0  0  0  0  0  0  0  0  0
    7.2388  -17.0356   22.7721 C   0  0  0  0  0  0  0  0  0  0  0  0
    6.7201  -16.9855   23.9176 O   0  0  0  0  0  0  0  0  0  0  0  0
    6.8831  -13.8360   21.6538 C   0  0  0  0  0  0  0  0  0  0  0  0
    7.7252  -12.8062   21.2647 C   0  0  0  0  0  0  0  0  0  0  0  0
    8.6539  -16.9344   22.6666 N   0  0  0  0  0  0  0  0  0  0  0  0
    9.5538  -16.7658   23.7756 C   0  0  1  0  0  0  0  0  0  0  0  0
   10.9242  -17.2807   23.6037 C   0  0  0  0  0  0  0  0  0  0  0  0
   11.8969  -17.2297   24.6990 C   0  0  0  0  0  0  0  0  0  0  0  0
   13.2424  -17.7760   24.4493 C   0  0  0  0  0  0  0  0  0  0  0  0
   13.5738  -18.9814   24.4742 O   0  0  0  0  0  0  0  0  0  0  0  0
    9.4712  -15.4155   24.3711 C   0  0  0  0  0  0  0  0  0  0  0  0
    9.8955  -14.3657   23.8040 O   0  0  0  0  0  0  0  0  0  0  0  0
   14.2800  -16.8895   24.1512 O   0  0  0  0  0  0  0  0  0  0  0  0
    6.7505  -14.2632   27.0565 C   0  0  0  0  0  0  0  0  0  0  0  0
    7.8934  -13.3293   26.6838 C   0  0  2  0  0  0  0  0  0  0  0  0
    7.5166  -12.6651   25.3831 C   0  0  0  0  0  0  0  0  0  0  0  0
    9.1818  -14.1317   26.5292 C   0  0  2  0  0  0  0  0  0  0  0  0
    8.8866  -15.2547   25.6533 N   0  0  0  0  0  0  0  0  0  0  0  0
    9.5149  -14.6314   27.8967 C   0  0  0  0  0  0  0  0  0  0  0  0
   10.0409  -13.8110   28.8750 O   0  0  0  0  0  0  0  0  0  0  0  0
    9.3106  -15.8378   28.1670 O   0  0  0  0  0  0  0  0  0  0  0  0
  2  1  1  0
  3  2  2  0
  4  3  1  0
  5 11  1  0
  5  4  2  0
  6  5  1  0
  7  6  1  0
  7  8  1  1
  9  7  1  0
  9 10  2  0
 11 12  2  0
 12  2  1  0
 13  9  1  0
 14 13  1  0
 14 15  1  6
 16 15  1  0
 16 17  1  0
 17 18  2  0
 19 14  1  0
 20 19  2  0
 21 17  1  0
 23 22  1  6
 23 25  1  0
 24 23  1  0
 25 27  1  0
 25 26  1  6
 26 19  1  0
 27 28  1  0
 29 27  2  0
M  END
$$$$
