YEV.pdb
     RDKit          3D

 29 29  0  0  1  0  0  0  0  0999 V2000
    8.3187  -13.4665   15.6151 O   0  0  0  0  0  0  0  0  0  0  0  0
    8.1133  -13.6889   16.9812 C   0  0  0  0  0  0  0  0  0  0  0  0
    8.6815  -14.7924   17.5902 C   0  0  0  0  0  0  0  0  0  0  0  0
    8.4962  -15.0366   18.9358 C   0  0  0  0  0  0  0  0  0  0  0  0
    7.7401  -14.1903   19.7146 C   0  0  0  0  0  0  0  0  0  0  0  0
    7.5332  -14.4466   21.1837 C   0  0  0  0  0  0  0  0  0  0  0  0
    7.3814  -15.9349   21.4374 C   0  0  2  0  0  0  0  0  0  0  0  0
    6.0395  -16.2709   20.9401 N   0  0  0  0  0  0  0  0  0  0  0  0
    7.4829  -16.2789   22.8563 C   0  0  0  0  0  0  0  0  0  0  0  0
    6.5560  -16.0067   23.6627 O   0  0  0  0  0  0  0  0  0  0  0  0
    7.1806  -13.0998   19.1045 C   0  0  0  0  0  0  0  0  0  0  0  0
    7.3582  -12.8419   17.7544 C   0  0  0  0  0  0  0  0  0  0  0  0
    8.6423  -16.9344   23.3564 N   0  0  0  0  0  0  0  0  0  0  0  0
    9.0252  -16.9908   24.7414 C   0  0  1  0  0  0  0  0  0  0  0  0
    9.9219  -18.0910   25.1389 C   0  0  0  0  0  0  0  0  0  0  0  0
   10.3801  -18.2338   26.5238 C   0  0  0  0  0  0  0  0  0  0  0  0
   11.2806  -19.3571   26.8375 C   0  0  0  0  0  0  0  0  0  0  0  0
   12.4332  -19.5365   26.3871 O   0  0  0  0  0  0  0  0  0  0  0  0
    9.3969  -15.6654   25.2801 C   0  0  0  0  0  0  0  0  0  0  0  0
   10.3428  -14.9572   24.8246 O   0  0  0  0  0  0  0  0  0  0  0  0
   10.8384  -20.3421   27.7238 O   0  0  0  0  0  0  0  0  0  0  0  0
    6.7076  -13.8633   27.8935 C   0  0  0  0  0  0  0  0  0  0  0  0
    7.8065  -13.0553   27.2175 C   0  0  2  0  0  0  0  0  0  0  0  0
    7.2823  -12.6384   25.8660 C   0  0  0  0  0  0  0  0  0  0  0  0
    9.0588  -13.9144   27.0714 C   0  0  2  0  0  0  0  0  0  0  0  0
    8.6684  -15.1285   26.3722 N   0  0  0  0  0  0  0  0  0  0  0  0
    9.4862  -14.2481   28.4632 C   0  0  0  0  0  0  0  0  0  0  0  0
    9.3252  -15.5089   29.0030 O   0  0  0  0  0  0  0  0  0  0  0  0
   10.0094  -13.3531   29.1669 O   0  0  0  0  0  0  0  0  0  0  0  0
  2  1  1  0
  3  2  2  0
  4  3  1  0
  5 11  1  0
  5  4  2  0
  6  5  1  0
  7  6  1  0
  7  8  1  1
  9  7  1  0
  9 10  2  0
 11 12  2  0
 12  2  1  0
 13  9  1  0
 14 13  1  0
 14 15  1  6
 16 15  1  0
 16 17  1  0
 17 18  2  0
 19 14  1  0
 20 19  2  0
 21 17  1  0
 23 22  1  6
 23 25  1  0
 24 23  1  0
 25 27  1  0
 25 26  1  6
 26 19  1  0
 27 28  1  0
 29 27  2  0
M  END
$$$$
