YEV.pdb
     RDKit          3D

 29 29  0  0  1  0  0  0  0  0999 V2000
    7.0086  -12.6258   16.0000 O   0  0  0  0  0  0  0  0  0  0  0  0
    7.1720  -13.2135   17.2594 C   0  0  0  0  0  0  0  0  0  0  0  0
    8.0229  -12.6340   18.1821 C   0  0  0  0  0  0  0  0  0  0  0  0
    8.2031  -13.1913   19.4318 C   0  0  0  0  0  0  0  0  0  0  0  0
    7.5423  -14.3413   19.7996 C   0  0  0  0  0  0  0  0  0  0  0  0
    7.7306  -14.9563   21.1609 C   0  0  0  0  0  0  0  0  0  0  0  0
    8.7787  -16.0516   21.0982 C   0  0  2  0  0  0  0  0  0  0  0  0
    8.1882  -17.0956   20.2485 N   0  0  0  0  0  0  0  0  0  0  0  0
    9.0947  -16.6066   22.4151 C   0  0  0  0  0  0  0  0  0  0  0  0
    8.1893  -17.0272   23.1814 O   0  0  0  0  0  0  0  0  0  0  0  0
    6.7016  -14.9094   18.8805 C   0  0  0  0  0  0  0  0  0  0  0  0
    6.5107  -14.3609   17.6221 C   0  0  0  0  0  0  0  0  0  0  0  0
   10.4442  -16.6827   22.8588 N   0  0  0  0  0  0  0  0  0  0  0  0
   10.8550  -16.9992   24.2002 C   0  0  1  0  0  0  0  0  0  0  0  0
   12.0597  -17.8357   24.3466 C   0  0  0  0  0  0  0  0  0  0  0  0
   12.2862  -18.9977   23.4826 C   0  0  0  0  0  0  0  0  0  0  0  0
   13.5998  -19.6614   23.5535 C   0  0  0  0  0  0  0  0  0  0  0  0
   14.4212  -19.7902   22.6196 O   0  0  0  0  0  0  0  0  0  0  0  0
   10.8037  -15.8268   25.0990 C   0  0  0  0  0  0  0  0  0  0  0  0
   11.5589  -14.8165   24.9867 O   0  0  0  0  0  0  0  0  0  0  0  0
   14.0050  -20.2156   24.7701 O   0  0  0  0  0  0  0  0  0  0  0  0
    8.0377  -13.6731   25.6525 C   0  0  0  0  0  0  0  0  0  0  0  0
    8.3352  -14.1844   27.0551 C   0  0  2  0  0  0  0  0  0  0  0  0
    8.1525  -13.0218   27.9986 C   0  0  0  0  0  0  0  0  0  0  0  0
    9.7655  -14.7119   27.1160 C   0  0  2  0  0  0  0  0  0  0  0  0
    9.8625  -15.8035   26.1598 N   0  0  0  0  0  0  0  0  0  0  0  0
    9.9453  -15.2373   28.5026 C   0  0  0  0  0  0  0  0  0  0  0  0
    9.9504  -16.5888   28.7854 O   0  0  0  0  0  0  0  0  0  0  0  0
   10.0968  -14.4237   29.4435 O   0  0  0  0  0  0  0  0  0  0  0  0
  2  1  1  0
  3  2  2  0
  4  3  1  0
  5 11  1  0
  5  4  2  0
  6  5  1  0
  7  6  1  0
  7  8  1  6
  9  7  1  0
  9 10  2  0
 11 12  2  0
 12  2  1  0
 13  9  1  0
 14 13  1  0
 14 15  1  6
 16 15  1  0
 16 17  1  0
 17 18  2  0
 19 14  1  0
 20 19  2  0
 21 17  1  0
 23 22  1  6
 23 25  1  0
 24 23  1  0
 25 27  1  0
 25 26  1  6
 26 19  1  0
 27 28  1  0
 29 27  2  0
M  END
$$$$
