YEV.pdb
     RDKit          3D

 29 29  0  0  1  0  0  0  0  0999 V2000
    6.8086  -12.3593   27.4802 O   0  0  0  0  0  0  0  0  0  0  0  0
    6.8769  -12.9093   26.1954 C   0  0  0  0  0  0  0  0  0  0  0  0
    7.8022  -12.4247   25.2896 C   0  0  0  0  0  0  0  0  0  0  0  0
    7.8923  -12.9482   24.0158 C   0  0  0  0  0  0  0  0  0  0  0  0
    7.0645  -13.9687   23.6061 C   0  0  0  0  0  0  0  0  0  0  0  0
    7.1560  -14.5480   22.2194 C   0  0  0  0  0  0  0  0  0  0  0  0
    7.2846  -16.0581   22.2922 C   0  0  2  0  0  0  0  0  0  0  0  0
    5.9782  -16.5286   22.7748 N   0  0  0  0  0  0  0  0  0  0  0  0
    8.3366  -16.4913   23.2129 C   0  0  0  0  0  0  0  0  0  0  0  0
    8.0661  -16.8748   24.3805 O   0  0  0  0  0  0  0  0  0  0  0  0
    6.1509  -14.4431   24.5085 C   0  0  0  0  0  0  0  0  0  0  0  0
    6.0490  -13.9273   25.7909 C   0  0  0  0  0  0  0  0  0  0  0  0
    9.6986  -16.4878   22.8018 N   0  0  0  0  0  0  0  0  0  0  0  0
   10.8070  -16.9087   23.6157 C   0  0  1  0  0  0  0  0  0  0  0  0
   12.0214  -17.3514   22.9073 C   0  0  0  0  0  0  0  0  0  0  0  0
   13.1939  -17.8358   23.6413 C   0  0  0  0  0  0  0  0  0  0  0  0
   14.0665  -18.8169   22.9726 C   0  0  0  0  0  0  0  0  0  0  0  0
   15.1150  -18.5708   22.3374 O   0  0  0  0  0  0  0  0  0  0  0  0
   11.0526  -15.9966   24.7527 C   0  0  0  0  0  0  0  0  0  0  0  0
   11.6327  -14.8759   24.6472 O   0  0  0  0  0  0  0  0  0  0  0  0
   13.7213  -20.1692   23.0314 O   0  0  0  0  0  0  0  0  0  0  0  0
    9.6142  -13.7689   26.7825 C   0  0  0  0  0  0  0  0  0  0  0  0
    9.9366  -14.8658   27.7877 C   0  0  2  0  0  0  0  0  0  0  0  0
   10.3167  -14.1856   29.0791 C   0  0  0  0  0  0  0  0  0  0  0  0
   11.0888  -15.7182   27.2647 C   0  0  2  0  0  0  0  0  0  0  0  0
   10.6240  -16.3720   26.0515 N   0  0  0  0  0  0  0  0  0  0  0  0
   11.3492  -16.7407   28.3218 C   0  0  0  0  0  0  0  0  0  0  0  0
   10.8709  -18.0331   28.2331 O   0  0  0  0  0  0  0  0  0  0  0  0
   12.0253  -16.4154   29.3255 O   0  0  0  0  0  0  0  0  0  0  0  0
  2  1  1  0
  3  2  2  0
  4  3  1  0
  5 11  1  0
  5  4  2  0
  6  5  1  0
  7  6  1  0
  7  8  1  1
  9  7  1  0
  9 10  2  0
 11 12  2  0
 12  2  1  0
 13  9  1  0
 14 13  1  0
 14 15  1  6
 16 15  1  0
 16 17  1  0
 17 18  2  0
 19 14  1  0
 20 19  2  0
 21 17  1  0
 23 22  1  6
 23 25  1  0
 24 23  1  0
 25 27  1  0
 25 26  1  6
 26 19  1  0
 27 28  1  0
 29 27  2  0
M  END
$$$$
