YEV.pdb
     RDKit          3D

 29 29  0  0  1  0  0  0  0  0999 V2000
    8.4064  -12.9718   16.0544 O   0  0  0  0  0  0  0  0  0  0  0  0
    8.2025  -13.3850   17.3756 C   0  0  0  0  0  0  0  0  0  0  0  0
    6.9712  -13.1901   17.9734 C   0  0  0  0  0  0  0  0  0  0  0  0
    6.7413  -13.5878   19.2749 C   0  0  0  0  0  0  0  0  0  0  0  0
    7.7296  -14.1906   20.0193 C   0  0  0  0  0  0  0  0  0  0  0  0
    7.4886  -14.6297   21.4392 C   0  0  0  0  0  0  0  0  0  0  0  0
    7.4165  -16.1436   21.5120 C   0  0  2  0  0  0  0  0  0  0  0  0
    6.1351  -16.4945   20.8830 N   0  0  0  0  0  0  0  0  0  0  0  0
    7.4457  -16.6446   22.8869 C   0  0  0  0  0  0  0  0  0  0  0  0
    6.4562  -16.5099   23.6526 O   0  0  0  0  0  0  0  0  0  0  0  0
    8.9461  -14.3800   19.4206 C   0  0  0  0  0  0  0  0  0  0  0  0
    9.1913  -13.9860   18.1147 C   0  0  0  0  0  0  0  0  0  0  0  0
    8.6039  -17.3005   23.3891 N   0  0  0  0  0  0  0  0  0  0  0  0
    9.0018  -17.3291   24.7708 C   0  0  1  0  0  0  0  0  0  0  0  0
    9.8609  -18.4503   25.1921 C   0  0  0  0  0  0  0  0  0  0  0  0
   10.2940  -18.5926   26.5850 C   0  0  0  0  0  0  0  0  0  0  0  0
   11.2068  -19.7023   26.9111 C   0  0  0  0  0  0  0  0  0  0  0  0
   10.8807  -20.8685   27.2228 O   0  0  0  0  0  0  0  0  0  0  0  0
    9.4303  -16.0031   25.2637 C   0  0  0  0  0  0  0  0  0  0  0  0
   10.4576  -15.3918   24.8457 O   0  0  0  0  0  0  0  0  0  0  0  0
   12.5835  -19.4678   26.8798 O   0  0  0  0  0  0  0  0  0  0  0  0
    7.2729  -12.9288   25.6447 C   0  0  0  0  0  0  0  0  0  0  0  0
    7.8286  -13.2368   27.0281 C   0  0  2  0  0  0  0  0  0  0  0  0
    8.1639  -11.9160   27.6749 C   0  0  0  0  0  0  0  0  0  0  0  0
    9.0741  -14.1081   26.8982 C   0  0  2  0  0  0  0  0  0  0  0  0
    8.6650  -15.3517   26.2645 N   0  0  0  0  0  0  0  0  0  0  0  0
    9.5276  -14.3783   28.2954 C   0  0  0  0  0  0  0  0  0  0  0  0
   10.2957  -13.4800   29.0094 O   0  0  0  0  0  0  0  0  0  0  0  0
    9.2002  -15.4583   28.8401 O   0  0  0  0  0  0  0  0  0  0  0  0
  2  1  1  0
  3  2  2  0
  4  3  1  0
  5 11  1  0
  5  4  2  0
  6  5  1  0
  7  6  1  0
  7  8  1  1
  9  7  1  0
  9 10  2  0
 11 12  2  0
 12  2  1  0
 13  9  1  0
 14 13  1  0
 14 15  1  6
 16 15  1  0
 16 17  1  0
 17 18  2  0
 19 14  1  0
 20 19  2  0
 21 17  1  0
 23 22  1  6
 23 25  1  0
 24 23  1  0
 25 27  1  0
 25 26  1  1
 26 19  1  0
 27 28  1  0
 29 27  2  0
M  END
$$$$
