YEV.pdb
     RDKit          3D

 29 29  0  0  1  0  0  0  0  0999 V2000
    7.9805  -13.7727   15.6336 O   0  0  0  0  0  0  0  0  0  0  0  0
    7.7672  -13.8870   17.0118 C   0  0  0  0  0  0  0  0  0  0  0  0
    8.2557  -14.9862   17.6933 C   0  0  0  0  0  0  0  0  0  0  0  0
    8.0606  -15.1251   19.0525 C   0  0  0  0  0  0  0  0  0  0  0  0
    7.3739  -14.1746   19.7731 C   0  0  0  0  0  0  0  0  0  0  0  0
    7.1572  -14.3156   21.2563 C   0  0  0  0  0  0  0  0  0  0  0  0
    7.9937  -15.4592   21.7994 C   0  0  2  0  0  0  0  0  0  0  0  0
    7.5041  -16.6551   21.0989 N   0  0  0  0  0  0  0  0  0  0  0  0
    7.8393  -15.6350   23.2442 C   0  0  0  0  0  0  0  0  0  0  0  0
    8.0332  -14.6821   24.0429 O   0  0  0  0  0  0  0  0  0  0  0  0
    6.8931  -13.0890   19.0914 C   0  0  0  0  0  0  0  0  0  0  0  0
    7.0814  -12.9362   17.7268 C   0  0  0  0  0  0  0  0  0  0  0  0
    7.4628  -16.8985   23.7789 N   0  0  0  0  0  0  0  0  0  0  0  0
    7.4499  -17.2313   25.1779 C   0  0  1  0  0  0  0  0  0  0  0  0
    6.8432  -18.5225   25.5484 C   0  0  0  0  0  0  0  0  0  0  0  0
    6.8794  -19.6679   24.6346 C   0  0  0  0  0  0  0  0  0  0  0  0
    7.4027  -20.9442   25.1526 C   0  0  0  0  0  0  0  0  0  0  0  0
    7.7746  -21.1770   26.3235 O   0  0  0  0  0  0  0  0  0  0  0  0
    8.7391  -16.9415   25.8404 C   0  0  0  0  0  0  0  0  0  0  0  0
    9.8694  -17.1950   25.3287 O   0  0  0  0  0  0  0  0  0  0  0  0
    7.5096  -22.0281   24.2779 O   0  0  0  0  0  0  0  0  0  0  0  0
    9.0520  -13.5255   27.4419 C   0  0  0  0  0  0  0  0  0  0  0  0
    9.5610  -14.5300   28.4663 C   0  0  2  0  0  0  0  0  0  0  0  0
   10.7614  -13.9096   29.1365 C   0  0  0  0  0  0  0  0  0  0  0  0
    9.9437  -15.8292   27.7642 C   0  0  2  0  0  0  0  0  0  0  0  0
    8.7420  -16.3438   27.1266 N   0  0  0  0  0  0  0  0  0  0  0  0
   10.3804  -16.7616   28.8463 C   0  0  0  0  0  0  0  0  0  0  0  0
   11.6421  -16.7059   29.4046 O   0  0  0  0  0  0  0  0  0  0  0  0
    9.5741  -17.6256   29.2631 O   0  0  0  0  0  0  0  0  0  0  0  0
  2  1  1  0
  3  2  2  0
  4  3  1  0
  5 11  1  0
  5  4  2  0
  6  5  1  0
  7  6  1  0
  7  8  1  6
  9  7  1  0
  9 10  2  0
 11 12  2  0
 12  2  1  0
 13  9  1  0
 14 13  1  0
 14 15  1  6
 16 15  1  0
 16 17  1  0
 17 18  2  0
 19 14  1  0
 20 19  2  0
 21 17  1  0
 23 22  1  6
 23 25  1  0
 24 23  1  0
 25 27  1  0
 25 26  1  1
 26 19  1  0
 27 28  1  0
 29 27  2  0
M  END
$$$$
