GLH.pdb
     RDKit          3D

 23 23  0  0  1  0  0  0  0  0999 V2000
   28.1802  -18.7074  -17.4004 N   0  0  0  0  0  0  0  0  0  0  0  0
   27.6273  -18.1895  -16.1885 C   0  0  0  0  0  0  0  0  0  0  0  0
   26.8304  -19.2346  -15.4512 C   0  0  0  0  0  0  0  0  0  0  0  0
   26.3730  -20.1909  -16.0977 O   0  0  0  0  0  0  0  0  0  0  0  0
   25.1291  -20.5393   -9.5673 C   0  0  0  0  0  0  0  0  0  0  0  0
   25.1860  -20.7898  -11.0363 C   0  0  2  0  0  0  0  0  0  0  0  0
   25.7208  -22.2077  -11.2486 C   0  0  0  0  0  0  0  0  0  0  0  0
   26.0838  -19.8216  -11.7777 C   0  0  0  0  0  0  0  0  0  0  0  0
   25.7473  -19.8467  -13.2226 C   0  0  2  0  0  0  0  0  0  0  0  0
   26.6231  -19.1065  -14.0592 N   0  0  0  0  0  0  0  0  0  0  0  0
   24.2835  -19.6556  -13.5132 C   0  0  0  0  0  0  0  0  0  0  0  0
   23.7177  -18.5560  -13.3018 O   0  0  0  0  0  0  0  0  0  0  0  0
   23.4933  -20.7018  -14.0339 N   0  0  0  0  0  0  0  0  0  0  0  0
   22.0725  -20.5472  -14.3786 C   0  0  1  0  0  0  0  0  0  0  0  0
   21.8761  -21.1675  -15.7030 C   0  0  0  0  0  0  0  0  0  0  0  0
   22.1533  -20.3117  -16.8659 C   0  0  0  0  0  0  0  0  0  0  0  0
   22.5326  -19.0031  -16.9554 C   0  0  0  0  0  0  0  0  0  0  0  0
   22.7168  -18.7212  -18.2599 N   0  0  0  0  0  0  0  0  0  0  0  0
   22.4578  -19.8297  -18.9480 C   0  0  0  0  0  0  0  0  0  0  0  0
   22.1130  -20.8131  -18.1263 N   0  0  0  0  0  0  0  0  0  0  0  0
   21.3245  -21.2256  -13.2750 C   0  0  0  0  0  0  0  0  0  0  0  0
   20.1300  -20.6615  -12.8308 O   0  0  0  0  0  0  0  0  0  0  0  0
   21.7056  -22.2640  -12.7343 O   0  0  0  0  0  0  0  0  0  0  0  0
  1  2  1  0
  3  2  1  0
  3  4  2  0
  6  5  1  1
  6  8  1  0
  7  6  1  0
  9  8  1  1
  9 10  1  0
 10  3  1  0
 11  9  1  0
 11 12  2  0
 13 11  1  0
 14 13  1  0
 14 15  1  6
 14 21  1  0
 16 17  2  0
 16 15  1  0
 18 17  1  0
 19 20  2  0
 19 18  1  0
 20 16  1  0
 21 22  1  0
 23 21  2  0
M  END
$$$$
