GLH.pdb
     RDKit          3D

 23 23  0  0  1  0  0  0  0  0999 V2000
   21.7121  -13.6848  -17.6299 N   0  0  0  0  0  0  0  0  0  0  0  0
   21.2988  -12.4645  -18.2485 C   0  0  0  0  0  0  0  0  0  0  0  0
   21.4222  -11.2951  -17.3060 C   0  0  0  0  0  0  0  0  0  0  0  0
   20.5280  -11.1224  -16.4620 O   0  0  0  0  0  0  0  0  0  0  0  0
   24.0609  -10.4049  -14.1822 C   0  0  0  0  0  0  0  0  0  0  0  0
   24.7409  -10.2542  -15.5008 C   0  0  2  0  0  0  0  0  0  0  0  0
   26.2377  -10.0753  -15.2375 C   0  0  0  0  0  0  0  0  0  0  0  0
   24.2483   -9.0658  -16.2998 C   0  0  0  0  0  0  0  0  0  0  0  0
   22.8190   -9.2638  -16.6454 C   0  0  2  0  0  0  0  0  0  0  0  0
   22.5369  -10.4318  -17.4009 N   0  0  0  0  0  0  0  0  0  0  0  0
   22.1277   -8.0171  -17.1269 C   0  0  0  0  0  0  0  0  0  0  0  0
   22.3634   -7.5418  -18.2638 O   0  0  0  0  0  0  0  0  0  0  0  0
   21.1901   -7.3371  -16.3216 N   0  0  0  0  0  0  0  0  0  0  0  0
   20.4432   -6.1544  -16.7737 C   0  0  1  0  0  0  0  0  0  0  0  0
   19.0086   -6.4924  -16.7031 C   0  0  0  0  0  0  0  0  0  0  0  0
   18.4870   -7.3303  -17.7927 C   0  0  0  0  0  0  0  0  0  0  0  0
   18.7059   -7.3008  -19.1402 C   0  0  0  0  0  0  0  0  0  0  0  0
   18.0329   -8.3332  -19.6844 N   0  0  0  0  0  0  0  0  0  0  0  0
   17.4205   -8.9765  -18.6943 C   0  0  0  0  0  0  0  0  0  0  0  0
   17.6789   -8.3892  -17.5327 N   0  0  0  0  0  0  0  0  0  0  0  0
   20.8525   -5.0536  -15.8471 C   0  0  0  0  0  0  0  0  0  0  0  0
   20.3138   -3.7827  -16.0386 O   0  0  0  0  0  0  0  0  0  0  0  0
   21.6423   -5.2084  -14.9154 O   0  0  0  0  0  0  0  0  0  0  0  0
  1  2  1  0
  3  2  1  0
  3  4  2  0
  6  5  1  1
  6  8  1  0
  7  6  1  0
  9  8  1  6
  9 10  1  0
 10  3  1  0
 11  9  1  0
 11 12  2  0
 13 11  1  0
 14 13  1  0
 14 15  1  1
 14 21  1  0
 16 17  2  0
 16 15  1  0
 18 17  1  0
 19 20  2  0
 19 18  1  0
 20 16  1  0
 21 22  1  0
 23 21  2  0
M  END
$$$$
