GLH.pdb
     RDKit          3D

 23 23  0  0  1  0  0  0  0  0999 V2000
   24.7749  -11.9051  -21.1422 N   0  0  0  0  0  0  0  0  0  0  0  0
   24.6679  -10.4910  -20.9645 C   0  0  0  0  0  0  0  0  0  0  0  0
   24.0516  -10.1442  -19.6338 C   0  0  0  0  0  0  0  0  0  0  0  0
   22.8252  -10.2834  -19.4987 O   0  0  0  0  0  0  0  0  0  0  0  0
   24.9761  -11.8059  -15.7934 C   0  0  0  0  0  0  0  0  0  0  0  0
   26.0046  -10.8207  -16.2356 C   0  0  2  0  0  0  0  0  0  0  0  0
   27.1935  -10.9239  -15.2776 C   0  0  0  0  0  0  0  0  0  0  0  0
   25.5083   -9.3900  -16.2328 C   0  0  0  0  0  0  0  0  0  0  0  0
   24.4841   -9.2226  -17.2933 C   0  0  2  0  0  0  0  0  0  0  0  0
   24.8705   -9.6744  -18.5822 N   0  0  0  0  0  0  0  0  0  0  0  0
   23.7948   -7.8854  -17.2724 C   0  0  0  0  0  0  0  0  0  0  0  0
   24.3750   -6.8494  -17.6775 O   0  0  0  0  0  0  0  0  0  0  0  0
   22.4733   -7.7453  -16.7988 N   0  0  0  0  0  0  0  0  0  0  0  0
   21.7685   -6.4566  -16.7387 C   0  0  1  0  0  0  0  0  0  0  0  0
   20.5687   -6.5767  -17.5893 C   0  0  0  0  0  0  0  0  0  0  0  0
   20.7997   -6.5526  -19.0410 C   0  0  0  0  0  0  0  0  0  0  0  0
   20.8759   -7.5585  -19.9612 C   0  0  0  0  0  0  0  0  0  0  0  0
   21.0395   -6.9907  -21.1719 N   0  0  0  0  0  0  0  0  0  0  0  0
   21.0611   -5.6725  -20.9948 C   0  0  0  0  0  0  0  0  0  0  0  0
   20.9171   -5.3772  -19.7091 N   0  0  0  0  0  0  0  0  0  0  0  0
   21.4648   -6.2424  -15.2896 C   0  0  0  0  0  0  0  0  0  0  0  0
   20.8679   -5.0445  -14.9010 O   0  0  0  0  0  0  0  0  0  0  0  0
   21.7113   -7.0721  -14.4140 O   0  0  0  0  0  0  0  0  0  0  0  0
  1  2  1  0
  3  2  1  0
  3  4  2  0
  6  5  1  1
  6  8  1  0
  7  6  1  0
  9  8  1  1
  9 10  1  0
 10  3  1  0
 11  9  1  0
 11 12  2  0
 13 11  1  0
 14 13  1  0
 14 15  1  6
 14 21  1  0
 16 17  2  0
 16 15  1  0
 18 17  1  0
 19 20  2  0
 19 18  1  0
 20 16  1  0
 21 22  1  0
 23 21  2  0
M  END
$$$$
