GLH.pdb
     RDKit          3D

 23 23  0  0  1  0  0  0  0  0999 V2000
   23.8284  -15.3929  -19.2366 N   0  0  0  0  0  0  0  0  0  0  0  0
   23.8849  -14.0115  -19.5986 C   0  0  0  0  0  0  0  0  0  0  0  0
   23.9658  -13.1226  -18.3844 C   0  0  0  0  0  0  0  0  0  0  0  0
   22.9552  -13.0045  -17.6728 O   0  0  0  0  0  0  0  0  0  0  0  0
   26.9153  -13.4367  -15.2258 C   0  0  0  0  0  0  0  0  0  0  0  0
   27.4373  -12.7535  -16.4443 C   0  0  2  0  0  0  0  0  0  0  0  0
   28.9537  -12.6172  -16.2906 C   0  0  0  0  0  0  0  0  0  0  0  0
   26.8503  -11.3743  -16.6593 C   0  0  0  0  0  0  0  0  0  0  0  0
   25.4277  -11.5022  -17.0610 C   0  0  2  0  0  0  0  0  0  0  0  0
   25.1728  -12.4514  -18.0851 N   0  0  0  0  0  0  0  0  0  0  0  0
   24.7185  -10.1859  -17.2283 C   0  0  0  0  0  0  0  0  0  0  0  0
   25.1054   -9.3426  -18.0727 O   0  0  0  0  0  0  0  0  0  0  0  0
   23.5941   -9.8504  -16.4452 N   0  0  0  0  0  0  0  0  0  0  0  0
   22.8588   -8.5853  -16.5866 C   0  0  1  0  0  0  0  0  0  0  0  0
   21.7627   -8.8238  -17.5452 C   0  0  0  0  0  0  0  0  0  0  0  0
   20.8310   -7.7058  -17.7540 C   0  0  0  0  0  0  0  0  0  0  0  0
   20.8422   -6.4212  -17.2914 C   0  0  0  0  0  0  0  0  0  0  0  0
   19.7860   -5.7844  -17.8334 N   0  0  0  0  0  0  0  0  0  0  0  0
   19.1479   -6.6577  -18.6076 C   0  0  0  0  0  0  0  0  0  0  0  0
   19.7611   -7.8343  -18.5788 N   0  0  0  0  0  0  0  0  0  0  0  0
   22.3931   -8.2453  -15.2062 C   0  0  0  0  0  0  0  0  0  0  0  0
   22.6114   -9.1639  -14.1811 O   0  0  0  0  0  0  0  0  0  0  0  0
   21.8261   -7.1903  -14.9212 O   0  0  0  0  0  0  0  0  0  0  0  0
  1  2  1  0
  3  2  1  0
  3  4  2  0
  6  5  1  1
  6  8  1  0
  7  6  1  0
  9  8  1  6
  9 10  1  0
 10  3  1  0
 11  9  1  0
 11 12  2  0
 13 11  1  0
 14 13  1  0
 14 15  1  6
 14 21  1  0
 16 17  2  0
 16 15  1  0
 18 17  1  0
 19 20  2  0
 19 18  1  0
 20 16  1  0
 21 22  1  0
 23 21  2  0
M  END
$$$$
