GLH.pdb
     RDKit          3D

 23 23  0  0  1  0  0  0  0  0999 V2000
   22.0782  -14.3560  -15.0927 N   0  0  0  0  0  0  0  0  0  0  0  0
   21.6887  -13.5602  -16.2141 C   0  0  0  0  0  0  0  0  0  0  0  0
   22.0541  -12.1111  -16.0199 C   0  0  0  0  0  0  0  0  0  0  0  0
   21.3850  -11.4373  -15.2199 O   0  0  0  0  0  0  0  0  0  0  0  0
   25.7100  -10.4229  -14.4810 C   0  0  0  0  0  0  0  0  0  0  0  0
   25.8416  -10.9542  -15.8682 C   0  0  2  0  0  0  0  0  0  0  0  0
   27.3304  -10.9767  -16.2212 C   0  0  0  0  0  0  0  0  0  0  0  0
   25.1150  -10.1212  -16.9033 C   0  0  0  0  0  0  0  0  0  0  0  0
   23.6514  -10.2359  -16.6880 C   0  0  2  0  0  0  0  0  0  0  0  0
   23.1353  -11.5571  -16.7418 N   0  0  0  0  0  0  0  0  0  0  0  0
   22.8412   -9.2099  -17.4327 C   0  0  0  0  0  0  0  0  0  0  0  0
   22.5824   -9.3475  -18.6526 O   0  0  0  0  0  0  0  0  0  0  0  0
   22.3421   -8.0576  -16.7900 N   0  0  0  0  0  0  0  0  0  0  0  0
   21.5774   -7.0117  -17.4846 C   0  0  1  0  0  0  0  0  0  0  0  0
   20.8008   -6.2873  -16.4601 C   0  0  0  0  0  0  0  0  0  0  0  0
   20.0415   -5.1192  -16.9297 C   0  0  0  0  0  0  0  0  0  0  0  0
   20.4501   -3.9266  -17.4542 C   0  0  0  0  0  0  0  0  0  0  0  0
   19.3464   -3.2271  -17.7823 N   0  0  0  0  0  0  0  0  0  0  0  0
   18.2921   -3.9745  -17.4674 C   0  0  0  0  0  0  0  0  0  0  0  0
   18.6846   -5.1305  -16.9473 N   0  0  0  0  0  0  0  0  0  0  0  0
   22.6025   -6.1693  -18.1757 C   0  0  0  0  0  0  0  0  0  0  0  0
   23.8954   -6.1289  -17.6572 O   0  0  0  0  0  0  0  0  0  0  0  0
   22.3678   -5.5067  -19.1865 O   0  0  0  0  0  0  0  0  0  0  0  0
  1  2  1  0
  3  2  1  0
  3  4  2  0
  6  5  1  1
  6  8  1  0
  7  6  1  0
  9  8  1  6
  9 10  1  0
 10  3  1  0
 11  9  1  0
 11 12  2  0
 13 11  1  0
 14 13  1  0
 14 15  1  1
 14 21  1  0
 16 17  2  0
 16 15  1  0
 18 17  1  0
 19 20  2  0
 19 18  1  0
 20 16  1  0
 21 22  1  0
 23 21  2  0
M  END
$$$$
