GLH.pdb
     RDKit          3D

 23 23  0  0  1  0  0  0  0  0999 V2000
   44.3795  -10.7480   -6.7220 N   0  0  0  0  0  0  0  0  0  0  0  0
   43.0948  -10.3250   -6.2603 C   0  0  0  0  0  0  0  0  0  0  0  0
   42.0293  -10.5496   -7.3022 C   0  0  0  0  0  0  0  0  0  0  0  0
   42.3667  -10.5575   -8.4971 O   0  0  0  0  0  0  0  0  0  0  0  0
   35.8365  -11.5988   -7.3818 C   0  0  0  0  0  0  0  0  0  0  0  0
   37.1741  -11.3667   -7.9991 C   0  0  2  0  0  0  0  0  0  0  0  0
   37.5658  -12.6366   -8.7577 C   0  0  0  0  0  0  0  0  0  0  0  0
   38.2582  -11.0574   -6.9880 C   0  0  0  0  0  0  0  0  0  0  0  0
   39.5142  -10.7185   -7.7017 C   0  0  2  0  0  0  0  0  0  0  0  0
   40.6876  -10.7436   -6.9034 N   0  0  0  0  0  0  0  0  0  0  0  0
   39.3966   -9.5290   -8.6156 C   0  0  0  0  0  0  0  0  0  0  0  0
   39.1542   -9.6710   -9.8383 O   0  0  0  0  0  0  0  0  0  0  0  0
   39.5529   -8.2122   -8.1343 N   0  0  0  0  0  0  0  0  0  0  0  0
   39.1726   -7.0194   -8.9048 C   0  0  1  0  0  0  0  0  0  0  0  0
   37.7509   -7.1719   -9.2695 C   0  0  0  0  0  0  0  0  0  0  0  0
   37.4688   -7.3913  -10.6956 C   0  0  0  0  0  0  0  0  0  0  0  0
   37.1725   -8.5264  -11.3943 C   0  0  0  0  0  0  0  0  0  0  0  0
   36.9375   -8.1680  -12.6716 N   0  0  0  0  0  0  0  0  0  0  0  0
   37.0854   -6.8484  -12.7494 C   0  0  0  0  0  0  0  0  0  0  0  0
   37.4081   -6.3494  -11.5629 N   0  0  0  0  0  0  0  0  0  0  0  0
   39.4442   -5.8621   -7.9966 C   0  0  0  0  0  0  0  0  0  0  0  0
   39.7320   -4.6211   -8.5617 O   0  0  0  0  0  0  0  0  0  0  0  0
   39.4248   -5.9435   -6.7682 O   0  0  0  0  0  0  0  0  0  0  0  0
  1  2  1  0
  3  2  1  0
  3  4  2  0
  6  5  1  1
  6  8  1  0
  7  6  1  0
  9  8  1  1
  9 10  1  0
 10  3  1  0
 11  9  1  0
 11 12  2  0
 13 11  1  0
 14 13  1  0
 14 15  1  1
 14 21  1  0
 16 17  2  0
 16 15  1  0
 18 17  1  0
 19 20  2  0
 19 18  1  0
 20 16  1  0
 21 22  1  0
 23 21  2  0
M  END
$$$$
