GLH.pdb
     RDKit          3D

 23 23  0  0  1  0  0  0  0  0999 V2000
   27.9454  -18.3150  -15.7267 N   0  0  0  0  0  0  0  0  0  0  0  0
   27.1318  -18.1180  -14.5683 C   0  0  0  0  0  0  0  0  0  0  0  0
   26.2035  -19.2826  -14.3378 C   0  0  0  0  0  0  0  0  0  0  0  0
   26.0042  -20.0712  -15.2759 O   0  0  0  0  0  0  0  0  0  0  0  0
   27.0039  -21.8086  -11.2824 C   0  0  0  0  0  0  0  0  0  0  0  0
   26.1327  -20.7241  -10.7449 C   0  0  2  0  0  0  0  0  0  0  0  0
   26.1305  -20.8392   -9.2189 C   0  0  0  0  0  0  0  0  0  0  0  0
   24.7020  -20.8028  -11.2347 C   0  0  0  0  0  0  0  0  0  0  0  0
   24.6536  -20.4396  -12.6725 C   0  0  2  0  0  0  0  0  0  0  0  0
   25.5879  -19.4505  -13.0770 N   0  0  0  0  0  0  0  0  0  0  0  0
   23.2607  -20.2508  -13.2093 C   0  0  0  0  0  0  0  0  0  0  0  0
   22.6230  -19.1905  -13.0015 O   0  0  0  0  0  0  0  0  0  0  0  0
   22.6204  -21.2550  -13.9653 N   0  0  0  0  0  0  0  0  0  0  0  0
   21.2691  -21.1074  -14.5251 C   0  0  1  0  0  0  0  0  0  0  0  0
   21.2334  -21.8758  -15.7843 C   0  0  0  0  0  0  0  0  0  0  0  0
   21.8625  -21.2375  -16.9498 C   0  0  0  0  0  0  0  0  0  0  0  0
   22.4435  -20.0117  -17.1053 C   0  0  0  0  0  0  0  0  0  0  0  0
   22.9250  -19.9462  -18.3618 N   0  0  0  0  0  0  0  0  0  0  0  0
   22.6460  -21.1027  -18.9568 C   0  0  0  0  0  0  0  0  0  0  0  0
   22.0006  -21.9074  -18.1219 N   0  0  0  0  0  0  0  0  0  0  0  0
   20.3474  -21.6312  -13.4695 C   0  0  0  0  0  0  0  0  0  0  0  0
   19.0439  -21.1412  -13.4162 O   0  0  0  0  0  0  0  0  0  0  0  0
   20.6767  -22.4797  -12.6403 O   0  0  0  0  0  0  0  0  0  0  0  0
  1  2  1  0
  3  2  1  0
  3  4  2  0
  6  5  1  6
  6  8  1  0
  7  6  1  0
  9  8  1  1
  9 10  1  0
 10  3  1  0
 11  9  1  0
 11 12  2  0
 13 11  1  0
 14 13  1  0
 14 15  1  6
 14 21  1  0
 16 17  2  0
 16 15  1  0
 18 17  1  0
 19 20  2  0
 19 18  1  0
 20 16  1  0
 21 22  1  0
 23 21  2  0
M  END
$$$$
