GLH.pdb
     RDKit          3D

 23 23  0  0  1  0  0  0  0  0999 V2000
   30.4062    1.3977    1.4636 N   0  0  0  0  0  0  0  0  0  0  0  0
   30.5206    0.7137    0.2140 C   0  0  0  0  0  0  0  0  0  0  0  0
   31.9469    0.6795   -0.2713 C   0  0  0  0  0  0  0  0  0  0  0  0
   32.3230    1.5647   -1.0566 O   0  0  0  0  0  0  0  0  0  0  0  0
   37.2006   -2.3761    1.2536 C   0  0  0  0  0  0  0  0  0  0  0  0
   36.4043   -1.2908    0.6120 C   0  0  2  0  0  0  0  0  0  0  0  0
   36.8407    0.0385    1.2318 C   0  0  0  0  0  0  0  0  0  0  0  0
   34.9104   -1.4443    0.8072 C   0  0  0  0  0  0  0  0  0  0  0  0
   34.1973   -0.5124   -0.1009 C   0  0  2  0  0  0  0  0  0  0  0  0
   32.8144   -0.3446    0.1711 N   0  0  0  0  0  0  0  0  0  0  0  0
   34.5381   -0.6946   -1.5551 C   0  0  0  0  0  0  0  0  0  0  0  0
   34.1761   -1.7184   -2.1834 O   0  0  0  0  0  0  0  0  0  0  0  0
   35.2746    0.2759   -2.2661 N   0  0  0  0  0  0  0  0  0  0  0  0
   35.6446    0.1330   -3.6817 C   0  0  1  0  0  0  0  0  0  0  0  0
   34.9441    1.1984   -4.4243 C   0  0  0  0  0  0  0  0  0  0  0  0
   35.3111    1.3491   -5.8400 C   0  0  0  0  0  0  0  0  0  0  0  0
   34.9252    0.6581   -6.9526 C   0  0  0  0  0  0  0  0  0  0  0  0
   35.5078    1.2430   -8.0172 N   0  0  0  0  0  0  0  0  0  0  0  0
   36.2293    2.2651   -7.5657 C   0  0  0  0  0  0  0  0  0  0  0  0
   36.1283    2.3539   -6.2455 N   0  0  0  0  0  0  0  0  0  0  0  0
   37.1355    0.2532   -3.7120 C   0  0  0  0  0  0  0  0  0  0  0  0
   37.8119   -0.1017   -4.8777 O   0  0  0  0  0  0  0  0  0  0  0  0
   37.8041    0.6539   -2.7590 O   0  0  0  0  0  0  0  0  0  0  0  0
  1  2  1  0
  3  2  1  0
  3  4  2  0
  6  5  1  1
  6  8  1  0
  7  6  1  0
  9  8  1  1
  9 10  1  0
 10  3  1  0
 11  9  1  0
 11 12  2  0
 13 11  1  0
 14 13  1  0
 14 15  1  6
 14 21  1  0
 16 17  2  0
 16 15  1  0
 18 17  1  0
 19 20  2  0
 19 18  1  0
 20 16  1  0
 21 22  1  0
 23 21  2  0
M  END
$$$$
