GLH.pdb
     RDKit          3D

 23 23  0  0  1  0  0  0  0  0999 V2000
   21.1078  -15.3964  -17.1370 N   0  0  0  0  0  0  0  0  0  0  0  0
   21.6813  -14.2568  -17.7811 C   0  0  0  0  0  0  0  0  0  0  0  0
   22.0041  -13.1652  -16.7935 C   0  0  0  0  0  0  0  0  0  0  0  0
   21.3406  -13.1041  -15.7458 O   0  0  0  0  0  0  0  0  0  0  0  0
   26.9384  -10.1726  -15.4980 C   0  0  0  0  0  0  0  0  0  0  0  0
   25.5593  -10.7299  -15.3920 C   0  0  2  0  0  0  0  0  0  0  0  0
   25.6810  -12.2330  -15.1316 C   0  0  0  0  0  0  0  0  0  0  0  0
   24.7291  -10.5245  -16.6417 C   0  0  0  0  0  0  0  0  0  0  0  0
   23.3553  -11.0343  -16.4089 C   0  0  2  0  0  0  0  0  0  0  0  0
   23.0403  -12.2469  -17.0763 N   0  0  0  0  0  0  0  0  0  0  0  0
   22.2889   -9.9756  -16.4846 C   0  0  0  0  0  0  0  0  0  0  0  0
   21.8032   -9.6208  -17.5856 O   0  0  0  0  0  0  0  0  0  0  0  0
   21.7950   -9.3435  -15.3242 N   0  0  0  0  0  0  0  0  0  0  0  0
   20.7065   -8.3555  -15.3430 C   0  0  1  0  0  0  0  0  0  0  0  0
   19.6762   -8.8250  -14.3967 C   0  0  0  0  0  0  0  0  0  0  0  0
   18.7272   -9.8210  -14.9154 C   0  0  0  0  0  0  0  0  0  0  0  0
   18.6446  -10.4461  -16.1265 C   0  0  0  0  0  0  0  0  0  0  0  0
   17.6223  -11.3213  -16.0636 N   0  0  0  0  0  0  0  0  0  0  0  0
   17.0959  -11.2331  -14.8452 C   0  0  0  0  0  0  0  0  0  0  0  0
   17.7479  -10.3289  -14.1251 N   0  0  0  0  0  0  0  0  0  0  0  0
   21.3447   -7.0607  -14.9502 C   0  0  0  0  0  0  0  0  0  0  0  0
   20.5811   -5.8960  -15.0003 O   0  0  0  0  0  0  0  0  0  0  0  0
   22.5148   -6.9651  -14.5793 O   0  0  0  0  0  0  0  0  0  0  0  0
  1  2  1  0
  3  2  1  0
  3  4  2  0
  6  5  1  6
  6  8  1  0
  7  6  1  0
  9  8  1  6
  9 10  1  0
 10  3  1  0
 11  9  1  0
 11 12  2  0
 13 11  1  0
 14 13  1  0
 14 15  1  1
 14 21  1  0
 16 17  2  0
 16 15  1  0
 18 17  1  0
 19 20  2  0
 19 18  1  0
 20 16  1  0
 21 22  1  0
 23 21  2  0
M  END
$$$$
