GLH.pdb
     RDKit          3D

 23 23  0  0  1  0  0  0  0  0999 V2000
   23.4845  -14.8480  -20.2316 N   0  0  0  0  0  0  0  0  0  0  0  0
   23.9363  -13.4923  -20.2561 C   0  0  0  0  0  0  0  0  0  0  0  0
   23.7333  -12.8158  -18.9249 C   0  0  0  0  0  0  0  0  0  0  0  0
   22.6676  -13.0150  -18.3196 O   0  0  0  0  0  0  0  0  0  0  0  0
   25.8468  -13.2985  -15.3465 C   0  0  0  0  0  0  0  0  0  0  0  0
   26.6077  -12.4592  -16.3164 C   0  0  2  0  0  0  0  0  0  0  0  0
   28.0346  -12.3073  -15.7848 C   0  0  0  0  0  0  0  0  0  0  0  0
   26.0176  -11.0780  -16.5098 C   0  0  0  0  0  0  0  0  0  0  0  0
   24.7199  -11.1926  -17.2202 C   0  0  2  0  0  0  0  0  0  0  0  0
   24.7455  -11.9807  -18.4004 N   0  0  0  0  0  0  0  0  0  0  0  0
   23.9737   -9.8920  -17.3445 C   0  0  0  0  0  0  0  0  0  0  0  0
   24.4217   -8.9504  -18.0422 O   0  0  0  0  0  0  0  0  0  0  0  0
   22.7449   -9.6820  -16.6843 N   0  0  0  0  0  0  0  0  0  0  0  0
   21.9333   -8.4679  -16.8536 C   0  0  1  0  0  0  0  0  0  0  0  0
   20.5189   -8.8685  -16.7253 C   0  0  0  0  0  0  0  0  0  0  0  0
   19.5366   -7.7749  -16.6987 C   0  0  0  0  0  0  0  0  0  0  0  0
   19.6738   -6.4314  -16.9002 C   0  0  0  0  0  0  0  0  0  0  0  0
   18.4460   -5.8817  -16.8264 N   0  0  0  0  0  0  0  0  0  0  0  0
   17.5824   -6.8647  -16.5874 C   0  0  0  0  0  0  0  0  0  0  0  0
   18.2173   -8.0271  -16.5052 N   0  0  0  0  0  0  0  0  0  0  0  0
   22.3976   -7.5327  -15.7823 C   0  0  0  0  0  0  0  0  0  0  0  0
   22.3209   -6.1604  -16.0127 O   0  0  0  0  0  0  0  0  0  0  0  0
   22.8444   -7.9093  -14.6986 O   0  0  0  0  0  0  0  0  0  0  0  0
  1  2  1  0
  3  2  1  0
  3  4  2  0
  6  5  1  1
  6  8  1  0
  7  6  1  0
  9  8  1  6
  9 10  1  0
 10  3  1  0
 11  9  1  0
 11 12  2  0
 13 11  1  0
 14 13  1  0
 14 15  1  1
 14 21  1  0
 16 17  2  0
 16 15  1  0
 18 17  1  0
 19 20  2  0
 19 18  1  0
 20 16  1  0
 21 22  1  0
 23 21  2  0
M  END
$$$$
