GLH.pdb
     RDKit          3D

 23 23  0  0  1  0  0  0  0  0999 V2000
   27.8551  -18.8874  -16.1252 N   0  0  0  0  0  0  0  0  0  0  0  0
   27.2171  -18.5149  -14.9018 C   0  0  0  0  0  0  0  0  0  0  0  0
   26.0797  -19.4439  -14.5639 C   0  0  0  0  0  0  0  0  0  0  0  0
   25.7133  -20.2626  -15.4225 O   0  0  0  0  0  0  0  0  0  0  0  0
   26.4602  -21.7543  -11.2097 C   0  0  0  0  0  0  0  0  0  0  0  0
   25.8194  -20.4616  -10.8327 C   0  0  2  0  0  0  0  0  0  0  0  0
   25.8261  -20.3640   -9.3056 C   0  0  0  0  0  0  0  0  0  0  0  0
   24.3898  -20.3348  -11.3160 C   0  0  0  0  0  0  0  0  0  0  0  0
   24.3835  -20.1343  -12.7861 C   0  0  2  0  0  0  0  0  0  0  0  0
   25.4626  -19.3653  -13.2950 N   0  0  0  0  0  0  0  0  0  0  0  0
   23.0339  -19.7804  -13.3494 C   0  0  0  0  0  0  0  0  0  0  0  0
   22.5028  -18.6687  -13.1128 O   0  0  0  0  0  0  0  0  0  0  0  0
   22.3164  -20.6816  -14.1637 N   0  0  0  0  0  0  0  0  0  0  0  0
   21.0129  -20.3654  -14.7654 C   0  0  1  0  0  0  0  0  0  0  0  0
   20.9677  -21.0322  -16.0810 C   0  0  0  0  0  0  0  0  0  0  0  0
   19.7517  -20.8107  -16.8772 C   0  0  0  0  0  0  0  0  0  0  0  0
   18.6679  -20.0071  -16.6678 C   0  0  0  0  0  0  0  0  0  0  0  0
   17.8590  -20.1279  -17.7384 N   0  0  0  0  0  0  0  0  0  0  0  0
   18.4354  -20.9821  -18.5795 C   0  0  0  0  0  0  0  0  0  0  0  0
   19.5877  -21.4131  -18.0821 N   0  0  0  0  0  0  0  0  0  0  0  0
   19.9972  -20.8753  -13.7927 C   0  0  0  0  0  0  0  0  0  0  0  0
   20.2428  -22.0817  -13.1395 O   0  0  0  0  0  0  0  0  0  0  0  0
   18.9495  -20.2835  -13.5318 O   0  0  0  0  0  0  0  0  0  0  0  0
  1  2  1  0
  3  2  1  0
  3  4  2  0
  6  5  1  1
  6  8  1  0
  7  6  1  0
  9  8  1  1
  9 10  1  0
 10  3  1  0
 11  9  1  0
 11 12  2  0
 13 11  1  0
 14 13  1  0
 14 15  1  6
 14 21  1  0
 16 17  2  0
 16 15  1  0
 18 17  1  0
 19 20  2  0
 19 18  1  0
 20 16  1  0
 21 22  1  0
 23 21  2  0
M  END
$$$$
