FIC.pdb
     RDKit          3D

 26 26  0  0  1  0  0  0  0  0999 V2000
   20.5089   -5.5151  -17.0129 N   0  0  0  0  0  0  0  0  0  0  0  0
   20.8551   -5.1613  -15.6564 C   0  0  1  0  0  0  0  0  0  0  0  0
   20.3737   -3.7528  -15.3174 C   0  0  0  0  0  0  0  0  0  0  0  0
   21.0245   -2.7245  -16.1392 C   0  0  0  0  0  0  0  0  0  0  0  0
   22.3030   -2.3391  -15.8457 C   0  0  0  0  0  0  0  0  0  0  0  0
   22.8812   -1.3689  -16.6419 C   0  0  0  0  0  0  0  0  0  0  0  0
   22.1865   -0.8125  -17.6952 C   0  0  0  0  0  0  0  0  0  0  0  0
   20.9100   -1.2267  -17.9540 C   0  0  0  0  0  0  0  0  0  0  0  0
   20.2965   -2.1835  -17.1939 C   0  0  0  0  0  0  0  0  0  0  0  0
   20.1891   -6.0816  -14.7271 C   0  0  0  0  0  0  0  0  0  0  0  0
   19.1323   -6.6816  -15.0956 O   0  0  0  0  0  0  0  0  0  0  0  0
   22.8977   -9.7922  -12.3871 C   0  0  0  0  0  0  0  0  0  0  0  0
   21.7575   -8.9973  -12.9560 C   0  0  0  0  0  0  0  0  0  0  0  0
   21.1149   -8.1037  -11.9344 C   0  0  2  0  0  0  0  0  0  0  0  0
   20.6038   -8.9398  -10.7935 C   0  0  0  0  0  0  0  0  0  0  0  0
   20.0323   -7.2306  -12.4878 C   0  0  2  0  0  0  0  0  0  0  0  0
   20.6800   -6.3210  -13.4463 N   0  0  0  0  0  0  0  0  0  0  0  0
   19.3480   -6.4260  -11.4577 C   0  0  0  0  0  0  0  0  0  0  0  0
   19.8427   -5.3310  -11.0909 O   0  0  0  0  0  0  0  0  0  0  0  0
   18.1376   -6.7950  -10.8238 N   0  0  0  0  0  0  0  0  0  0  0  0
   17.4507   -5.9166   -9.9655 C   0  0  1  0  0  0  0  0  0  0  0  0
   17.0553   -4.5883  -10.5169 C   0  0  0  0  0  0  0  0  0  0  0  0
   16.2344   -3.6406   -9.1883 S   0  0  0  0  0  0  0  0  0  0  0  0
   16.1990   -6.5260   -9.3839 C   0  0  0  0  0  0  0  0  0  0  0  0
   15.6055   -5.8872   -8.3019 O   0  0  0  0  0  0  0  0  0  0  0  0
   15.7059   -7.5641   -9.8485 O   0  0  0  0  0  0  0  0  0  0  0  0
  2  1  1  6
  3  2  1  0
  4  3  1  0
  5  4  2  0
  6  5  1  0
  7  6  2  0
  7  8  1  0
  8  9  2  0
  9  4  1  0
 10  2  1  0
 10 17  1  0
 11 10  2  0
 13 12  1  0
 14 16  1  0
 14 13  1  0
 14 15  1  1
 16 17  1  6
 18 16  1  0
 19 18  2  0
 20 18  1  0
 21 22  1  6
 21 20  1  0
 22 23  1  0
 24 25  1  0
 24 21  1  0
 26 24  2  0
M  END
$$$$
