FIC.pdb
     RDKit          3D

 26 26  0  0  1  0  0  0  0  0999 V2000
   28.2462  -19.1550  -15.8444 N   0  0  0  0  0  0  0  0  0  0  0  0
   27.2093  -18.7373  -14.9303 C   0  0  1  0  0  0  0  0  0  0  0  0
   26.1891  -17.8430  -15.6302 C   0  0  0  0  0  0  0  0  0  0  0  0
   26.7192  -16.5036  -15.9150 C   0  0  0  0  0  0  0  0  0  0  0  0
   26.8840  -15.6139  -14.8900 C   0  0  0  0  0  0  0  0  0  0  0  0
   27.3853  -14.3635  -15.1979 C   0  0  0  0  0  0  0  0  0  0  0  0
   27.7064  -14.0310  -16.4971 C   0  0  0  0  0  0  0  0  0  0  0  0
   27.5261  -14.9506  -17.4920 C   0  0  0  0  0  0  0  0  0  0  0  0
   27.0331  -16.1999  -17.2357 C   0  0  0  0  0  0  0  0  0  0  0  0
   26.4865  -19.9171  -14.4405 C   0  0  0  0  0  0  0  0  0  0  0  0
   26.4707  -20.9740  -15.1443 O   0  0  0  0  0  0  0  0  0  0  0  0
   25.9595  -20.6382   -8.9893 C   0  0  0  0  0  0  0  0  0  0  0  0
   25.4410  -20.2772  -10.3518 C   0  0  0  0  0  0  0  0  0  0  0  0
   25.6442  -21.3776  -11.3533 C   0  0  2  0  0  0  0  0  0  0  0  0
   27.1099  -21.7021  -11.4451 C   0  0  0  0  0  0  0  0  0  0  0  0
   25.0742  -21.0801  -12.7050 C   0  0  2  0  0  0  0  0  0  0  0  0
   25.8130  -19.9170  -13.2218 N   0  0  0  0  0  0  0  0  0  0  0  0
   23.6359  -20.7526  -12.6724 C   0  0  0  0  0  0  0  0  0  0  0  0
   23.2710  -19.5561  -12.5562 O   0  0  0  0  0  0  0  0  0  0  0  0
   22.5934  -21.7054  -12.7640 N   0  0  0  0  0  0  0  0  0  0  0  0
   21.2990  -21.3518  -13.1877 C   0  0  1  0  0  0  0  0  0  0  0  0
   21.0882  -21.1458  -14.6499 C   0  0  0  0  0  0  0  0  0  0  0  0
   19.3197  -20.7802  -14.9254 S   0  0  0  0  0  0  0  0  0  0  0  0
   20.2472  -22.3367  -12.7404 C   0  0  0  0  0  0  0  0  0  0  0  0
   18.9133  -21.9696  -12.8709 O   0  0  0  0  0  0  0  0  0  0  0  0
   20.5514  -23.4423  -12.2695 O   0  0  0  0  0  0  0  0  0  0  0  0
  2  1  1  6
  3  2  1  0
  4  3  1  0
  5  4  2  0
  6  5  1  0
  7  6  2  0
  7  8  1  0
  8  9  2  0
  9  4  1  0
 10  2  1  0
 10 17  1  0
 11 10  2  0
 13 12  1  0
 14 16  1  0
 14 13  1  0
 14 15  1  6
 16 17  1  1
 18 16  1  0
 19 18  2  0
 20 18  1  0
 21 22  1  6
 21 20  1  0
 22 23  1  0
 24 25  1  0
 24 21  1  0
 26 24  2  0
M  END
$$$$
