FIC.pdb
     RDKit          3D

 26 26  0  0  1  0  0  0  0  0999 V2000
   24.4942   -7.4105  -17.6782 N   0  0  0  0  0  0  0  0  0  0  0  0
   23.2989   -7.9449  -17.0692 C   0  0  1  0  0  0  0  0  0  0  0  0
   23.5876   -8.4731  -15.6663 C   0  0  0  0  0  0  0  0  0  0  0  0
   24.5338   -9.5960  -15.6734 C   0  0  0  0  0  0  0  0  0  0  0  0
   25.8423   -9.3745  -15.3447 C   0  0  0  0  0  0  0  0  0  0  0  0
   26.7021  -10.4563  -15.3629 C   0  0  0  0  0  0  0  0  0  0  0  0
   26.2489  -11.7137  -15.7019 C   0  0  0  0  0  0  0  0  0  0  0  0
   24.9326  -11.8912  -16.0239 C   0  0  0  0  0  0  0  0  0  0  0  0
   24.0448  -10.8513  -16.0198 C   0  0  0  0  0  0  0  0  0  0  0  0
   22.3016   -6.8766  -16.9326 C   0  0  0  0  0  0  0  0  0  0  0  0
   22.6854   -5.6989  -16.6528 O   0  0  0  0  0  0  0  0  0  0  0  0
   17.2769   -5.1137  -19.6147 C   0  0  0  0  0  0  0  0  0  0  0  0
   18.0651   -5.0354  -18.3387 C   0  0  0  0  0  0  0  0  0  0  0  0
   19.1372   -6.0840  -18.2611 C   0  0  2  0  0  0  0  0  0  0  0  0
   18.5267   -7.4379  -18.4979 C   0  0  0  0  0  0  0  0  0  0  0  0
   19.9157   -6.0618  -16.9829 C   0  0  2  0  0  0  0  0  0  0  0  0
   20.9396   -7.1122  -17.1005 N   0  0  0  0  0  0  0  0  0  0  0  0
   19.0893   -6.3356  -15.7917 C   0  0  0  0  0  0  0  0  0  0  0  0
   18.2213   -5.5026  -15.4298 O   0  0  0  0  0  0  0  0  0  0  0  0
   19.1940   -7.4986  -14.9921 N   0  0  0  0  0  0  0  0  0  0  0  0
   18.4286   -7.6682  -13.8236 C   0  0  1  0  0  0  0  0  0  0  0  0
   17.4715   -8.8118  -13.7905 C   0  0  0  0  0  0  0  0  0  0  0  0
   16.6036   -8.7830  -12.1833 S   0  0  0  0  0  0  0  0  0  0  0  0
   19.2758   -7.7858  -12.5807 C   0  0  0  0  0  0  0  0  0  0  0  0
   18.6265   -7.8664  -11.3548 O   0  0  0  0  0  0  0  0  0  0  0  0
   20.5138   -7.8109  -12.6389 O   0  0  0  0  0  0  0  0  0  0  0  0
  2  1  1  1
  3  2  1  0
  4  3  1  0
  5  4  2  0
  6  5  1  0
  7  6  2  0
  7  8  1  0
  8  9  2  0
  9  4  1  0
 10  2  1  0
 10 17  1  0
 11 10  2  0
 13 12  1  0
 14 16  1  0
 14 13  1  0
 14 15  1  1
 16 17  1  6
 18 16  1  0
 19 18  2  0
 20 18  1  0
 21 22  1  6
 21 20  1  0
 22 23  1  0
 24 25  1  0
 24 21  1  0
 26 24  2  0
M  END
$$$$
