FIC.pdb
     RDKit          3D

 26 26  0  0  1  0  0  0  0  0999 V2000
   27.6709  -18.9143  -16.0139 N   0  0  0  0  0  0  0  0  0  0  0  0
   26.7960  -18.4316  -14.9714 C   0  0  1  0  0  0  0  0  0  0  0  0
   25.8291  -17.3803  -15.5103 C   0  0  0  0  0  0  0  0  0  0  0  0
   26.5118  -16.1437  -15.9117 C   0  0  0  0  0  0  0  0  0  0  0  0
   26.8019  -15.9339  -17.2312 C   0  0  0  0  0  0  0  0  0  0  0  0
   27.4447  -14.7583  -17.5695 C   0  0  0  0  0  0  0  0  0  0  0  0
   27.7794  -13.8326  -16.6039 C   0  0  0  0  0  0  0  0  0  0  0  0
   27.4709  -14.0819  -15.2960 C   0  0  0  0  0  0  0  0  0  0  0  0
   26.8355  -15.2306  -14.9135 C   0  0  0  0  0  0  0  0  0  0  0  0
   25.9854  -19.5438  -14.4612 C   0  0  0  0  0  0  0  0  0  0  0  0
   25.7667  -20.5481  -15.2070 O   0  0  0  0  0  0  0  0  0  0  0  0
   26.7904  -21.1907   -9.5020 C   0  0  0  0  0  0  0  0  0  0  0  0
   26.4125  -21.2129  -10.9554 C   0  0  0  0  0  0  0  0  0  0  0  0
   25.0004  -20.7580  -11.1881 C   0  0  2  0  0  0  0  0  0  0  0  0
   24.0557  -21.6799  -10.4673 C   0  0  0  0  0  0  0  0  0  0  0  0
   24.6333  -20.6359  -12.6341 C   0  0  2  0  0  0  0  0  0  0  0  0
   25.4443  -19.5351  -13.1782 N   0  0  0  0  0  0  0  0  0  0  0  0
   23.2069  -20.3263  -12.8498 C   0  0  0  0  0  0  0  0  0  0  0  0
   22.7313  -19.2457  -12.4202 O   0  0  0  0  0  0  0  0  0  0  0  0
   22.2947  -21.1728  -13.5236 N   0  0  0  0  0  0  0  0  0  0  0  0
   20.9502  -20.8080  -13.7221 C   0  0  1  0  0  0  0  0  0  0  0  0
   20.4536  -20.7575  -15.1277 C   0  0  0  0  0  0  0  0  0  0  0  0
   21.6221  -19.7539  -16.1098 S   0  0  0  0  0  0  0  0  0  0  0  0
   19.9871  -21.6857  -12.9615 C   0  0  0  0  0  0  0  0  0  0  0  0
   18.6619  -21.2766  -12.8751 O   0  0  0  0  0  0  0  0  0  0  0  0
   20.3550  -22.7414  -12.4259 O   0  0  0  0  0  0  0  0  0  0  0  0
  2  1  1  6
  3  2  1  0
  4  3  1  0
  5  4  2  0
  6  5  1  0
  7  6  2  0
  7  8  1  0
  8  9  2  0
  9  4  1  0
 10  2  1  0
 10 17  1  0
 11 10  2  0
 13 12  1  0
 14 16  1  0
 14 13  1  0
 14 15  1  6
 16 17  1  1
 18 16  1  0
 19 18  2  0
 20 18  1  0
 21 22  1  6
 21 20  1  0
 22 23  1  0
 24 25  1  0
 24 21  1  0
 26 24  2  0
M  END
$$$$
