FIC.pdb
     RDKit          3D

 26 26  0  0  1  0  0  0  0  0999 V2000
   28.1615  -21.0695   -8.4236 N   0  0  0  0  0  0  0  0  0  0  0  0
   26.7280  -20.9094   -8.3534 C   0  0  1  0  0  0  0  0  0  0  0  0
   26.3394  -19.9280   -7.2506 C   0  0  0  0  0  0  0  0  0  0  0  0
   27.3739  -19.8091   -6.2152 C   0  0  0  0  0  0  0  0  0  0  0  0
   28.2757  -18.7835   -6.2806 C   0  0  0  0  0  0  0  0  0  0  0  0
   29.2339  -18.7053   -5.2879 C   0  0  0  0  0  0  0  0  0  0  0  0
   29.2735  -19.6335   -4.2690 C   0  0  0  0  0  0  0  0  0  0  0  0
   28.3528  -20.6433   -4.2415 C   0  0  0  0  0  0  0  0  0  0  0  0
   27.3863  -20.7614   -5.2014 C   0  0  0  0  0  0  0  0  0  0  0  0
   26.2366  -20.3539   -9.6199 C   0  0  0  0  0  0  0  0  0  0  0  0
   26.2416  -19.0956   -9.7913 O   0  0  0  0  0  0  0  0  0  0  0  0
   28.9090  -20.2055  -12.6587 C   0  0  0  0  0  0  0  0  0  0  0  0
   28.2498  -21.4433  -12.1211 C   0  0  0  0  0  0  0  0  0  0  0  0
   26.8761  -21.6548  -12.6897 C   0  0  2  0  0  0  0  0  0  0  0  0
   26.9203  -21.4649  -14.1809 C   0  0  0  0  0  0  0  0  0  0  0  0
   25.8233  -20.7906  -12.0689 C   0  0  2  0  0  0  0  0  0  0  0  0
   25.7619  -21.1653  -10.6471 N   0  0  0  0  0  0  0  0  0  0  0  0
   24.4876  -20.9775  -12.6673 C   0  0  0  0  0  0  0  0  0  0  0  0
   24.3058  -20.7136  -13.8820 O   0  0  0  0  0  0  0  0  0  0  0  0
   23.3517  -21.4456  -11.9648 N   0  0  0  0  0  0  0  0  0  0  0  0
   22.0822  -21.5158  -12.5677 C   0  0  1  0  0  0  0  0  0  0  0  0
   20.9781  -22.1268  -11.7723 C   0  0  0  0  0  0  0  0  0  0  0  0
   20.8820  -21.2580  -10.1683 S   0  0  0  0  0  0  0  0  0  0  0  0
   21.5792  -20.1711  -13.0314 C   0  0  0  0  0  0  0  0  0  0  0  0
   20.4852  -20.1446  -13.8878 O   0  0  0  0  0  0  0  0  0  0  0  0
   22.1172  -19.1156  -12.6664 O   0  0  0  0  0  0  0  0  0  0  0  0
  2  1  1  6
  3  2  1  0
  4  3  1  0
  5  4  2  0
  6  5  1  0
  7  6  2  0
  7  8  1  0
  8  9  2  0
  9  4  1  0
 10  2  1  0
 10 17  1  0
 11 10  2  0
 13 12  1  0
 14 16  1  0
 14 13  1  0
 14 15  1  6
 16 17  1  1
 18 16  1  0
 19 18  2  0
 20 18  1  0
 21 22  1  1
 21 20  1  0
 22 23  1  0
 24 25  1  0
 24 21  1  0
 26 24  2  0
M  END
$$$$
