FIC.pdb
     RDKit          3D

 26 26  0  0  1  0  0  0  0  0999 V2000
   24.7934  -17.4693  -16.4174 N   0  0  0  0  0  0  0  0  0  0  0  0
   25.8245  -17.8803  -15.4937 C   0  0  1  0  0  0  0  0  0  0  0  0
   26.6415  -16.6826  -15.0158 C   0  0  0  0  0  0  0  0  0  0  0  0
   27.5011  -16.1326  -16.0717 C   0  0  0  0  0  0  0  0  0  0  0  0
   27.1619  -14.9490  -16.6662 C   0  0  0  0  0  0  0  0  0  0  0  0
   27.9959  -14.4639  -17.6556 C   0  0  0  0  0  0  0  0  0  0  0  0
   29.1301  -15.1553  -18.0258 C   0  0  0  0  0  0  0  0  0  0  0  0
   29.4323  -16.3351  -17.4056 C   0  0  0  0  0  0  0  0  0  0  0  0
   28.6375  -16.8544  -16.4217 C   0  0  0  0  0  0  0  0  0  0  0  0
   25.2047  -18.4824  -14.3073 C   0  0  0  0  0  0  0  0  0  0  0  0
   24.0559  -18.0878  -13.9370 O   0  0  0  0  0  0  0  0  0  0  0  0
   23.9573  -23.9073  -12.8075 C   0  0  0  0  0  0  0  0  0  0  0  0
   24.1589  -22.5479  -12.2016 C   0  0  0  0  0  0  0  0  0  0  0  0
   24.8881  -21.6118  -13.1219 C   0  0  2  0  0  0  0  0  0  0  0  0
   26.1599  -22.2644  -13.5894 C   0  0  0  0  0  0  0  0  0  0  0  0
   25.1622  -20.2665  -12.5257 C   0  0  2  0  0  0  0  0  0  0  0  0
   25.8380  -19.4785  -13.5687 N   0  0  0  0  0  0  0  0  0  0  0  0
   26.0315  -20.3224  -11.3348 C   0  0  0  0  0  0  0  0  0  0  0  0
   27.1868  -20.8071  -11.4280 O   0  0  0  0  0  0  0  0  0  0  0  0
   25.6625  -19.8598  -10.0492 N   0  0  0  0  0  0  0  0  0  0  0  0
   26.4810  -20.0642   -8.9229 C   0  0  1  0  0  0  0  0  0  0  0  0
   26.5052  -18.9897   -7.8887 C   0  0  0  0  0  0  0  0  0  0  0  0
   26.7192  -17.3861   -8.7371 S   0  0  0  0  0  0  0  0  0  0  0  0
   26.1662  -21.3481   -8.1958 C   0  0  0  0  0  0  0  0  0  0  0  0
   27.0162  -21.7405   -7.1689 O   0  0  0  0  0  0  0  0  0  0  0  0
   25.1824  -22.0400   -8.4961 O   0  0  0  0  0  0  0  0  0  0  0  0
  2  1  1  6
  3  2  1  0
  4  3  1  0
  5  4  2  0
  6  5  1  0
  7  6  2  0
  7  8  1  0
  8  9  2  0
  9  4  1  0
 10  2  1  0
 10 17  1  0
 11 10  2  0
 13 12  1  0
 14 16  1  0
 14 13  1  0
 14 15  1  1
 16 17  1  6
 18 16  1  0
 19 18  2  0
 20 18  1  0
 21 22  1  1
 21 20  1  0
 22 23  1  0
 24 25  1  0
 24 21  1  0
 26 24  2  0
M  END
$$$$
