FIC.pdb
     RDKit          3D

 26 26  0  0  1  0  0  0  0  0999 V2000
   28.3212  -20.7939   -8.5436 N   0  0  0  0  0  0  0  0  0  0  0  0
   26.8844  -20.9117   -8.4595 C   0  0  1  0  0  0  0  0  0  0  0  0
   26.3295  -20.0542   -7.3250 C   0  0  0  0  0  0  0  0  0  0  0  0
   27.2513  -19.9669   -6.1852 C   0  0  0  0  0  0  0  0  0  0  0  0
   28.1866  -18.9702   -6.1519 C   0  0  0  0  0  0  0  0  0  0  0  0
   29.0359  -18.9212   -5.0629 C   0  0  0  0  0  0  0  0  0  0  0  0
   28.9379  -19.8492   -4.0478 C   0  0  0  0  0  0  0  0  0  0  0  0
   27.9884  -20.8296   -4.1207 C   0  0  0  0  0  0  0  0  0  0  0  0
   27.1261  -20.9183   -5.1781 C   0  0  0  0  0  0  0  0  0  0  0  0
   26.2813  -20.4239   -9.7055 C   0  0  0  0  0  0  0  0  0  0  0  0
   26.3842  -19.1946  -10.0073 O   0  0  0  0  0  0  0  0  0  0  0  0
   28.4022  -20.9117  -13.7257 C   0  0  0  0  0  0  0  0  0  0  0  0
   27.4126  -20.5719  -12.6482 C   0  0  0  0  0  0  0  0  0  0  0  0
   26.0584  -21.1687  -12.9038 C   0  0  2  0  0  0  0  0  0  0  0  0
   25.5874  -20.7646  -14.2738 C   0  0  0  0  0  0  0  0  0  0  0  0
   25.0389  -20.8268  -11.8626 C   0  0  2  0  0  0  0  0  0  0  0  0
   25.5953  -21.2689  -10.5739 N   0  0  0  0  0  0  0  0  0  0  0  0
   23.7415  -21.4968  -12.0744 C   0  0  0  0  0  0  0  0  0  0  0  0
   23.5253  -22.6177  -11.5499 O   0  0  0  0  0  0  0  0  0  0  0  0
   22.6804  -20.9660  -12.8459 N   0  0  0  0  0  0  0  0  0  0  0  0
   21.3365  -21.2897  -12.5831 C   0  0  1  0  0  0  0  0  0  0  0  0
   20.8478  -21.1075  -11.1856 C   0  0  0  0  0  0  0  0  0  0  0  0
   19.1175  -21.6878  -11.1062 S   0  0  0  0  0  0  0  0  0  0  0  0
   20.3706  -20.5463  -13.4723 C   0  0  0  0  0  0  0  0  0  0  0  0
   19.1815  -21.1785  -13.8146 O   0  0  0  0  0  0  0  0  0  0  0  0
   20.6191  -19.4061  -13.8907 O   0  0  0  0  0  0  0  0  0  0  0  0
  2  1  1  6
  3  2  1  0
  4  3  1  0
  5  4  2  0
  6  5  1  0
  7  6  2  0
  7  8  1  0
  8  9  2  0
  9  4  1  0
 10  2  1  0
 10 17  1  0
 11 10  2  0
 13 12  1  0
 14 16  1  0
 14 13  1  0
 14 15  1  6
 16 17  1  1
 18 16  1  0
 19 18  2  0
 20 18  1  0
 21 22  1  1
 21 20  1  0
 22 23  1  0
 24 25  1  0
 24 21  1  0
 26 24  2  0
M  END
$$$$
