FIC.pdb
     RDKit          3D

 26 26  0  0  1  0  0  0  0  0999 V2000
   22.3056  -20.3277  -14.2542 N   0  0  0  0  0  0  0  0  0  0  0  0
   21.2436  -20.1301  -13.2959 C   0  0  1  0  0  0  0  0  0  0  0  0
   19.8754  -20.3017  -13.9508 C   0  0  0  0  0  0  0  0  0  0  0  0
   19.5700  -19.2258  -14.9023 C   0  0  0  0  0  0  0  0  0  0  0  0
   19.9281  -19.3670  -16.2142 C   0  0  0  0  0  0  0  0  0  0  0  0
   19.6236  -18.3330  -17.0790 C   0  0  0  0  0  0  0  0  0  0  0  0
   18.9803  -17.2001  -16.6274 C   0  0  0  0  0  0  0  0  0  0  0  0
   18.6399  -17.0996  -15.3075 C   0  0  0  0  0  0  0  0  0  0  0  0
   18.9204  -18.0965  -14.4147 C   0  0  0  0  0  0  0  0  0  0  0  0
   21.3468  -21.1421  -12.2378 C   0  0  0  0  0  0  0  0  0  0  0  0
   21.6141  -22.3437  -12.5496 O   0  0  0  0  0  0  0  0  0  0  0  0
   24.4369  -20.2482   -8.1597 C   0  0  0  0  0  0  0  0  0  0  0  0
   23.6120  -20.9453   -9.2034 C   0  0  0  0  0  0  0  0  0  0  0  0
   22.1867  -21.1401   -8.7726 C   0  0  2  0  0  0  0  0  0  0  0  0
   22.1587  -21.9028   -7.4766 C   0  0  0  0  0  0  0  0  0  0  0  0
   21.3265  -21.8013   -9.8038 C   0  0  2  0  0  0  0  0  0  0  0  0
   21.1604  -20.8272  -10.8943 N   0  0  0  0  0  0  0  0  0  0  0  0
   19.9932  -22.1783   -9.2968 C   0  0  0  0  0  0  0  0  0  0  0  0
   19.1540  -21.2842   -9.0237 O   0  0  0  0  0  0  0  0  0  0  0  0
   19.5623  -23.5094   -9.0837 N   0  0  0  0  0  0  0  0  0  0  0  0
   18.2871  -23.8037   -8.5668 C   0  0  1  0  0  0  0  0  0  0  0  0
   17.5683  -24.9776   -9.1414 C   0  0  0  0  0  0  0  0  0  0  0  0
   17.7494  -24.9240  -10.9584 S   0  0  0  0  0  0  0  0  0  0  0  0
   18.2925  -23.9983   -7.0707 C   0  0  0  0  0  0  0  0  0  0  0  0
   17.0686  -24.0292   -6.4133 O   0  0  0  0  0  0  0  0  0  0  0  0
   19.3498  -24.1277   -6.4366 O   0  0  0  0  0  0  0  0  0  0  0  0
  2  1  1  6
  3  2  1  0
  4  3  1  0
  5  4  2  0
  6  5  1  0
  7  6  2  0
  7  8  1  0
  8  9  2  0
  9  4  1  0
 10  2  1  0
 10 17  1  0
 11 10  2  0
 13 12  1  0
 14 16  1  0
 14 13  1  0
 14 15  1  1
 16 17  1  6
 18 16  1  0
 19 18  2  0
 20 18  1  0
 21 22  1  6
 21 20  1  0
 22 23  1  0
 24 25  1  0
 24 21  1  0
 26 24  2  0
M  END
$$$$
