FIC.pdb
     RDKit          3D

 26 26  0  0  1  0  0  0  0  0999 V2000
   24.0766    3.6376  -11.5743 N   0  0  0  0  0  0  0  0  0  0  0  0
   25.2787    3.1378  -10.9493 C   0  0  1  0  0  0  0  0  0  0  0  0
   26.5038    3.9223  -11.4118 C   0  0  0  0  0  0  0  0  0  0  0  0
   26.7631    3.7623  -12.8483 C   0  0  0  0  0  0  0  0  0  0  0  0
   26.4116    4.7635  -13.7104 C   0  0  0  0  0  0  0  0  0  0  0  0
   26.6718    4.5758  -15.0546 C   0  0  0  0  0  0  0  0  0  0  0  0
   27.2661    3.4156  -15.5042 C   0  0  0  0  0  0  0  0  0  0  0  0
   27.6016    2.4396  -14.6082 C   0  0  0  0  0  0  0  0  0  0  0  0
   27.3638    2.5803  -13.2691 C   0  0  0  0  0  0  0  0  0  0  0  0
   25.1794    3.3082   -9.4949 C   0  0  0  0  0  0  0  0  0  0  0  0
   24.5458    4.3042   -9.0267 O   0  0  0  0  0  0  0  0  0  0  0  0
   23.5341    2.1016   -4.7275 C   0  0  0  0  0  0  0  0  0  0  0  0
   24.6988    1.2714   -5.1856 C   0  0  0  0  0  0  0  0  0  0  0  0
   24.8928    1.3264   -6.6737 C   0  0  2  0  0  0  0  0  0  0  0  0
   25.5566    0.0585   -7.1359 C   0  0  0  0  0  0  0  0  0  0  0  0
   25.6486    2.5303   -7.1425 C   0  0  2  0  0  0  0  0  0  0  0  0
   25.7602    2.4087   -8.6048 N   0  0  0  0  0  0  0  0  0  0  0  0
   27.0047    2.6275   -6.5693 C   0  0  0  0  0  0  0  0  0  0  0  0
   27.9087    1.8532   -6.9712 O   0  0  0  0  0  0  0  0  0  0  0  0
   27.3891    3.5519   -5.5690 N   0  0  0  0  0  0  0  0  0  0  0  0
   28.6948    3.5797   -5.0454 C   0  0  1  0  0  0  0  0  0  0  0  0
   29.5285    4.7798   -5.3451 C   0  0  0  0  0  0  0  0  0  0  0  0
   29.7924    4.8545   -7.1512 S   0  0  0  0  0  0  0  0  0  0  0  0
   28.7290    3.4008   -3.5477 C   0  0  0  0  0  0  0  0  0  0  0  0
   29.9413    3.0611   -2.9596 O   0  0  0  0  0  0  0  0  0  0  0  0
   27.7133    3.5496   -2.8527 O   0  0  0  0  0  0  0  0  0  0  0  0
  2  1  1  6
  3  2  1  0
  4  3  1  0
  5  4  2  0
  6  5  1  0
  7  6  2  0
  7  8  1  0
  8  9  2  0
  9  4  1  0
 10  2  1  0
 10 17  1  0
 11 10  2  0
 13 12  1  0
 14 16  1  0
 14 13  1  0
 14 15  1  1
 16 17  1  6
 18 16  1  0
 19 18  2  0
 20 18  1  0
 21 22  1  1
 21 20  1  0
 22 23  1  0
 24 25  1  0
 24 21  1  0
 26 24  2  0
M  END
$$$$
