HKC.pdb
     RDKit          3D

 26 26  0  0  1  0  0  0  0  0999 V2000
    8.2197  -16.0614   20.0322 N   0  0  0  0  0  0  0  0  0  0  0  0
    8.4688  -14.9032   20.8672 C   0  0  1  0  0  0  0  0  0  0  0  0
    7.7025  -13.7356   20.2365 C   0  0  0  0  0  0  0  0  0  0  0  0
    7.9269  -13.7005   18.7720 C   0  0  0  0  0  0  0  0  0  0  0  0
    7.0171  -13.3449   17.8051 C   0  0  0  0  0  0  0  0  0  0  0  0
    7.6090  -13.4427   16.5845 N   0  0  0  0  0  0  0  0  0  0  0  0
    8.8670  -13.8532   16.7964 C   0  0  0  0  0  0  0  0  0  0  0  0
    9.0523  -14.0078   18.1325 N   0  0  0  0  0  0  0  0  0  0  0  0
    7.9924  -15.1850   22.2194 C   0  0  0  0  0  0  0  0  0  0  0  0
    7.4259  -14.3015   22.8923 O   0  0  0  0  0  0  0  0  0  0  0  0
    8.1347  -16.4634   22.8607 N   0  0  0  0  0  0  0  0  0  0  0  0
    7.7505  -16.6893   24.2278 C   0  0  1  0  0  0  0  0  0  0  0  0
    7.5224  -18.2043   24.3612 C   0  0  0  0  0  0  0  0  0  0  0  0
    6.2513  -18.5353   23.6305 C   0  0  0  0  0  0  0  0  0  0  0  0
    5.9893  -20.0256   23.6314 C   0  0  0  0  0  0  0  0  0  0  0  0
    4.7247  -20.3003   22.8838 C   0  0  0  0  0  0  0  0  0  0  0  0
    4.5954  -21.7499   22.7472 N   0  0  0  0  0  0  0  0  0  0  0  0
    8.7091  -16.2040   25.2158 C   0  0  0  0  0  0  0  0  0  0  0  0
    9.9514  -16.3093   25.0522 O   0  0  0  0  0  0  0  0  0  0  0  0
    8.2612  -15.5876   26.4126 N   0  0  0  0  0  0  0  0  0  0  0  0
    9.2254  -15.0594   27.3545 C   0  0  1  0  0  0  0  0  0  0  0  0
    8.5952  -13.9230   28.0969 C   0  0  0  0  0  0  0  0  0  0  0  0
    7.9347  -12.7035   26.9234 S   0  0  0  0  0  0  0  0  0  0  0  0
    9.6939  -16.0858   28.3075 C   0  0  0  0  0  0  0  0  0  0  0  0
    9.1922  -17.2312   28.2361 O   0  0  0  0  0  0  0  0  0  0  0  0
   10.6525  -15.8276   29.2602 O   0  0  0  0  0  0  0  0  0  0  0  0
  2  1  1  6
  3  2  1  0
  4  3  1  0
  5  4  2  0
  6  7  1  0
  6  5  1  0
  7  8  2  0
  8  4  1  0
  9  2  1  0
  9 11  1  0
 10  9  2  0
 12 11  1  0
 12 13  1  6
 13 14  1  0
 14 15  1  0
 15 16  1  0
 17 16  1  0
 18 12  1  0
 19 18  2  0
 20 18  1  0
 21 20  1  0
 21 22  1  1
 22 23  1  0
 24 21  1  0
 25 24  2  0
 26 24  1  0
M  END
$$$$
