HKC.pdb
     RDKit          3D

 26 26  0  0  1  0  0  0  0  0999 V2000
    7.1777  -16.4679   20.1496 N   0  0  0  0  0  0  0  0  0  0  0  0
    7.9794  -15.5417   20.9243 C   0  0  1  0  0  0  0  0  0  0  0  0
    7.5810  -14.1329   20.4717 C   0  0  0  0  0  0  0  0  0  0  0  0
    7.9430  -13.9247   19.0497 C   0  0  0  0  0  0  0  0  0  0  0  0
    7.7704  -12.7775   18.3127 C   0  0  0  0  0  0  0  0  0  0  0  0
    8.2296  -12.9904   17.0504 N   0  0  0  0  0  0  0  0  0  0  0  0
    8.6794  -14.2522   17.0100 C   0  0  0  0  0  0  0  0  0  0  0  0
    8.5009  -14.8143   18.2329 N   0  0  0  0  0  0  0  0  0  0  0  0
    7.6966  -15.7455   22.3432 C   0  0  0  0  0  0  0  0  0  0  0  0
    6.7302  -15.1771   22.8882 O   0  0  0  0  0  0  0  0  0  0  0  0
    8.4859  -16.5912   23.1963 N   0  0  0  0  0  0  0  0  0  0  0  0
    8.1789  -16.7882   24.5871 C   0  0  1  0  0  0  0  0  0  0  0  0
    8.6329  -18.2182   24.9250 C   0  0  0  0  0  0  0  0  0  0  0  0
    7.9989  -19.1415   23.9227 C   0  0  0  0  0  0  0  0  0  0  0  0
    6.5273  -19.3406   24.2133 C   0  0  0  0  0  0  0  0  0  0  0  0
    5.9717  -20.3461   23.2573 C   0  0  0  0  0  0  0  0  0  0  0  0
    4.5409  -20.4733   23.5283 N   0  0  0  0  0  0  0  0  0  0  0  0
    8.7821  -15.8094   25.4865 C   0  0  0  0  0  0  0  0  0  0  0  0
   10.0067  -15.5272   25.4457 O   0  0  0  0  0  0  0  0  0  0  0  0
    7.9914  -15.1341   26.4517 N   0  0  0  0  0  0  0  0  0  0  0  0
    8.6261  -14.2712   27.4255 C   0  0  1  0  0  0  0  0  0  0  0  0
    7.6207  -13.2722   27.9061 C   0  0  0  0  0  0  0  0  0  0  0  0
    6.8944  -12.3914   26.4928 S   0  0  0  0  0  0  0  0  0  0  0  0
    9.1708  -15.0285   28.5705 C   0  0  0  0  0  0  0  0  0  0  0  0
    8.9677  -16.2638   28.6121 O   0  0  0  0  0  0  0  0  0  0  0  0
    9.8858  -14.4282   29.5813 O   0  0  0  0  0  0  0  0  0  0  0  0
  2  1  1  6
  3  2  1  0
  4  3  1  0
  5  4  2  0
  6  7  1  0
  6  5  1  0
  7  8  2  0
  8  4  1  0
  9  2  1  0
  9 11  1  0
 10  9  2  0
 12 11  1  0
 12 13  1  1
 13 14  1  0
 14 15  1  0
 15 16  1  0
 17 16  1  0
 18 12  1  0
 19 18  2  0
 20 18  1  0
 21 20  1  0
 21 22  1  1
 22 23  1  0
 24 21  1  0
 25 24  2  0
 26 24  1  0
M  END
$$$$
