HKC.pdb
     RDKit          3D

 26 26  0  0  1  0  0  0  0  0999 V2000
    9.9429  -14.7784   20.2803 N   0  0  0  0  0  0  0  0  0  0  0  0
    9.4251  -13.6401   21.0130 C   0  0  1  0  0  0  0  0  0  0  0  0
    8.7753  -12.7132   19.9801 C   0  0  0  0  0  0  0  0  0  0  0  0
    8.3274  -13.4881   18.7989 C   0  0  0  0  0  0  0  0  0  0  0  0
    7.0871  -13.4502   18.2078 C   0  0  0  0  0  0  0  0  0  0  0  0
    7.0754  -14.3064   17.1510 N   0  0  0  0  0  0  0  0  0  0  0  0
    8.2924  -14.8644   17.0917 C   0  0  0  0  0  0  0  0  0  0  0  0
    9.0492  -14.3600   18.0998 N   0  0  0  0  0  0  0  0  0  0  0  0
    8.4498  -14.1134   21.9925 C   0  0  0  0  0  0  0  0  0  0  0  0
    7.6832  -13.3145   22.5654 O   0  0  0  0  0  0  0  0  0  0  0  0
    8.3018  -15.4947   22.3615 N   0  0  0  0  0  0  0  0  0  0  0  0
    7.3928  -15.9271   23.3883 C   0  0  1  0  0  0  0  0  0  0  0  0
    7.0629  -17.3960   23.0739 C   0  0  0  0  0  0  0  0  0  0  0  0
    5.6639  -17.4368   22.5260 C   0  0  0  0  0  0  0  0  0  0  0  0
    5.5676  -18.3642   21.3343 C   0  0  0  0  0  0  0  0  0  0  0  0
    4.1462  -18.4265   20.8766 C   0  0  0  0  0  0  0  0  0  0  0  0
    4.1063  -19.2362   19.6603 N   0  0  0  0  0  0  0  0  0  0  0  0
    7.8965  -15.7720   24.7495 C   0  0  0  0  0  0  0  0  0  0  0  0
    7.3569  -16.3406   25.7326 O   0  0  0  0  0  0  0  0  0  0  0  0
    9.0306  -14.9605   25.0103 N   0  0  0  0  0  0  0  0  0  0  0  0
    9.4855  -14.7759   26.3723 C   0  0  1  0  0  0  0  0  0  0  0  0
    8.5537  -13.8305   27.0634 C   0  0  0  0  0  0  0  0  0  0  0  0
    9.1442  -13.4961   28.7487 S   0  0  0  0  0  0  0  0  0  0  0  0
    9.5526  -16.0505   27.1153 C   0  0  0  0  0  0  0  0  0  0  0  0
    8.6182  -16.8712   26.9662 O   0  0  0  0  0  0  0  0  0  0  0  0
   10.5961  -16.3621   27.9564 O   0  0  0  0  0  0  0  0  0  0  0  0
  2  1  1  6
  3  2  1  0
  4  3  1  0
  5  4  2  0
  6  7  1  0
  6  5  1  0
  7  8  2  0
  8  4  1  0
  9  2  1  0
  9 11  1  0
 10  9  2  0
 12 11  1  0
 12 13  1  6
 13 14  1  0
 14 15  1  0
 15 16  1  0
 17 16  1  0
 18 12  1  0
 19 18  2  0
 20 18  1  0
 21 20  1  0
 21 22  1  1
 22 23  1  0
 24 21  1  0
 25 24  2  0
 26 24  1  0
M  END
$$$$
