HKC.pdb
     RDKit          3D

 26 26  0  0  1  0  0  0  0  0999 V2000
    7.2906  -17.1221   19.8800 N   0  0  0  0  0  0  0  0  0  0  0  0
    7.9218  -16.0393   20.6080 C   0  0  1  0  0  0  0  0  0  0  0  0
    7.2907  -14.7404   20.0951 C   0  0  0  0  0  0  0  0  0  0  0  0
    7.8204  -14.4026   18.7529 C   0  0  0  0  0  0  0  0  0  0  0  0
    8.6840  -13.3805   18.4388 C   0  0  0  0  0  0  0  0  0  0  0  0
    8.9289  -13.4048   17.1012 N   0  0  0  0  0  0  0  0  0  0  0  0
    8.2256  -14.4284   16.5976 C   0  0  0  0  0  0  0  0  0  0  0  0
    7.5528  -15.0311   17.6113 N   0  0  0  0  0  0  0  0  0  0  0  0
    7.6752  -16.2241   22.0361 C   0  0  0  0  0  0  0  0  0  0  0  0
    6.5158  -16.1841   22.4928 O   0  0  0  0  0  0  0  0  0  0  0  0
    8.7174  -16.4592   22.9976 N   0  0  0  0  0  0  0  0  0  0  0  0
    8.4799  -16.4372   24.4156 C   0  0  1  0  0  0  0  0  0  0  0  0
    9.5751  -17.3150   25.0444 C   0  0  0  0  0  0  0  0  0  0  0  0
    9.3681  -17.2973   26.5330 C   0  0  0  0  0  0  0  0  0  0  0  0
   10.4684  -18.0494   27.2496 C   0  0  0  0  0  0  0  0  0  0  0  0
   10.1813  -18.0560   28.7162 C   0  0  0  0  0  0  0  0  0  0  0  0
   11.2138  -18.8602   29.3673 N   0  0  0  0  0  0  0  0  0  0  0  0
    8.4593  -15.1029   25.0071 C   0  0  0  0  0  0  0  0  0  0  0  0
    9.4315  -14.3115   24.9093 O   0  0  0  0  0  0  0  0  0  0  0  0
    7.3217  -14.6494   25.7233 N   0  0  0  0  0  0  0  0  0  0  0  0
    7.3582  -13.3675   26.3951 C   0  0  1  0  0  0  0  0  0  0  0  0
    5.9557  -12.8683   26.5488 C   0  0  0  0  0  0  0  0  0  0  0  0
    5.9502  -11.3035   27.4718 S   0  0  0  0  0  0  0  0  0  0  0  0
    8.0116  -13.4492   27.7170 C   0  0  0  0  0  0  0  0  0  0  0  0
    8.3498  -12.3805   28.2759 O   0  0  0  0  0  0  0  0  0  0  0  0
    8.2582  -14.6472   28.3473 O   0  0  0  0  0  0  0  0  0  0  0  0
  2  1  1  6
  3  2  1  0
  4  3  1  0
  5  4  2  0
  6  7  1  0
  6  5  1  0
  7  8  2  0
  8  4  1  0
  9  2  1  0
  9 11  1  0
 10  9  2  0
 12 11  1  0
 12 13  1  1
 13 14  1  0
 14 15  1  0
 15 16  1  0
 17 16  1  0
 18 12  1  0
 19 18  2  0
 20 18  1  0
 21 20  1  0
 21 22  1  1
 22 23  1  0
 24 21  1  0
 25 24  2  0
 26 24  1  0
M  END
$$$$
