HKC.pdb
     RDKit          3D

 26 26  0  0  1  0  0  0  0  0999 V2000
   -4.6985  -22.4812   23.8568 N   0  0  0  0  0  0  0  0  0  0  0  0
   -5.2684  -21.3894   24.6209 C   0  0  1  0  0  0  0  0  0  0  0  0
   -5.4740  -20.2295   23.6409 C   0  0  0  0  0  0  0  0  0  0  0  0
   -4.1799  -19.8177   23.0478 C   0  0  0  0  0  0  0  0  0  0  0  0
   -2.9437  -20.3615   23.3033 C   0  0  0  0  0  0  0  0  0  0  0  0
   -2.0111  -19.7061   22.5613 N   0  0  0  0  0  0  0  0  0  0  0  0
   -2.6640  -18.7707   21.8578 C   0  0  0  0  0  0  0  0  0  0  0  0
   -3.9854  -18.8457   22.1604 N   0  0  0  0  0  0  0  0  0  0  0  0
   -6.5358  -21.8295   25.1994 C   0  0  0  0  0  0  0  0  0  0  0  0
   -7.2342  -21.0471   25.8735 O   0  0  0  0  0  0  0  0  0  0  0  0
   -7.0613  -23.1580   25.0420 N   0  0  0  0  0  0  0  0  0  0  0  0
   -8.3019  -23.5740   25.6381 C   0  0  1  0  0  0  0  0  0  0  0  0
   -8.6989  -24.8792   24.9282 C   0  0  0  0  0  0  0  0  0  0  0  0
  -10.1001  -25.2166   25.3548 C   0  0  0  0  0  0  0  0  0  0  0  0
  -10.5732  -26.5049   24.7175 C   0  0  0  0  0  0  0  0  0  0  0  0
  -11.9769  -26.7785   25.1513 C   0  0  0  0  0  0  0  0  0  0  0  0
  -12.3383  -28.1111   24.6715 N   0  0  0  0  0  0  0  0  0  0  0  0
   -8.2513  -23.7476   27.0866 C   0  0  0  0  0  0  0  0  0  0  0  0
   -7.3048  -24.3476   27.6569 O   0  0  0  0  0  0  0  0  0  0  0  0
   -9.2866  -23.2358   27.9105 N   0  0  0  0  0  0  0  0  0  0  0  0
   -9.2178  -23.4124   29.3458 C   0  0  1  0  0  0  0  0  0  0  0  0
   -8.3457  -22.3393   29.9181 C   0  0  0  0  0  0  0  0  0  0  0  0
   -8.4301  -22.3711   31.7327 S   0  0  0  0  0  0  0  0  0  0  0  0
  -10.5520  -23.3677   29.9776 C   0  0  0  0  0  0  0  0  0  0  0  0
  -11.4631  -22.7403   29.3903 O   0  0  0  0  0  0  0  0  0  0  0  0
  -10.8233  -23.9857   31.1767 O   0  0  0  0  0  0  0  0  0  0  0  0
  2  1  1  6
  3  2  1  0
  4  3  1  0
  5  4  2  0
  6  7  1  0
  6  5  1  0
  7  8  2  0
  8  4  1  0
  9  2  1  0
  9 11  1  0
 10  9  2  0
 12 11  1  0
 12 13  1  6
 13 14  1  0
 14 15  1  0
 15 16  1  0
 17 16  1  0
 18 12  1  0
 19 18  2  0
 20 18  1  0
 21 20  1  0
 21 22  1  1
 22 23  1  0
 24 21  1  0
 25 24  2  0
 26 24  1  0
M  END
$$$$
