HKC.pdb
     RDKit          3D

 26 26  0  0  1  0  0  0  0  0999 V2000
    6.6452  -16.8512   19.6006 N   0  0  0  0  0  0  0  0  0  0  0  0
    7.5757  -15.9564   20.2596 C   0  0  1  0  0  0  0  0  0  0  0  0
    7.2516  -14.5436   19.7623 C   0  0  0  0  0  0  0  0  0  0  0  0
    7.7399  -14.3586   18.3754 C   0  0  0  0  0  0  0  0  0  0  0  0
    8.4044  -15.2815   17.6035 C   0  0  0  0  0  0  0  0  0  0  0  0
    8.6804  -14.7274   16.3925 N   0  0  0  0  0  0  0  0  0  0  0  0
    8.1925  -13.4796   16.4177 C   0  0  0  0  0  0  0  0  0  0  0  0
    7.6209  -13.2631   17.6301 N   0  0  0  0  0  0  0  0  0  0  0  0
    7.3938  -16.0675   21.7050 C   0  0  0  0  0  0  0  0  0  0  0  0
    6.3171  -15.7360   22.2389 O   0  0  0  0  0  0  0  0  0  0  0  0
    8.4103  -16.5527   22.5979 N   0  0  0  0  0  0  0  0  0  0  0  0
    8.2234  -16.6121   24.0224 C   0  0  1  0  0  0  0  0  0  0  0  0
    8.9418  -17.8878   24.4933 C   0  0  0  0  0  0  0  0  0  0  0  0
    8.7525  -17.9891   25.9809 C   0  0  0  0  0  0  0  0  0  0  0  0
    9.4477  -19.2108   26.5411 C   0  0  0  0  0  0  0  0  0  0  0  0
    9.2376  -19.2580   28.0201 C   0  0  0  0  0  0  0  0  0  0  0  0
    9.8490  -20.4894   28.5165 N   0  0  0  0  0  0  0  0  0  0  0  0
    8.6946  -15.4353   24.7461 C   0  0  0  0  0  0  0  0  0  0  0  0
    9.8038  -14.8968   24.4999 O   0  0  0  0  0  0  0  0  0  0  0  0
    7.9017  -14.8521   25.7679 N   0  0  0  0  0  0  0  0  0  0  0  0
    8.3865  -13.6879   26.4788 C   0  0  1  0  0  0  0  0  0  0  0  0
    7.3107  -12.6476   26.4824 C   0  0  0  0  0  0  0  0  0  0  0  0
    5.7483  -13.3707   27.0630 S   0  0  0  0  0  0  0  0  0  0  0  0
    8.7838  -14.0066   27.8651 C   0  0  0  0  0  0  0  0  0  0  0  0
    8.5697  -15.1654   28.2895 O   0  0  0  0  0  0  0  0  0  0  0  0
    9.3747  -13.0826   28.6960 O   0  0  0  0  0  0  0  0  0  0  0  0
  2  1  1  6
  3  2  1  0
  4  3  1  0
  5  4  2  0
  6  7  1  0
  6  5  1  0
  7  8  2  0
  8  4  1  0
  9  2  1  0
  9 11  1  0
 10  9  2  0
 12 11  1  0
 12 13  1  1
 13 14  1  0
 14 15  1  0
 15 16  1  0
 17 16  1  0
 18 12  1  0
 19 18  2  0
 20 18  1  0
 21 20  1  0
 21 22  1  1
 22 23  1  0
 24 21  1  0
 25 24  2  0
 26 24  1  0
M  END
$$$$
