SEL.pdb
     RDKit          3D

 24 23  0  0  1  0  0  0  0  0999 V2000
    8.1809  -12.2161   20.9671 O   0  0  0  0  0  0  0  0  0  0  0  0
    8.8343  -13.0414   20.0540 C   0  0  0  0  0  0  0  0  0  0  0  0
    8.0094  -14.3004   19.8916 C   0  0  2  0  0  0  0  0  0  0  0  0
    6.6368  -13.9406   19.6385 N   0  0  0  0  0  0  0  0  0  0  0  0
    8.0758  -15.0491   21.1735 C   0  0  0  0  0  0  0  0  0  0  0  0
    7.0459  -15.0315   21.9297 O   0  0  0  0  0  0  0  0  0  0  0  0
    9.2466  -15.7504   21.5263 N   0  0  0  0  0  0  0  0  0  0  0  0
    9.4246  -16.4937   22.7439 C   0  0  1  0  0  0  0  0  0  0  0  0
   10.4176  -17.5943   22.6916 C   0  0  0  0  0  0  0  0  0  0  0  0
   10.0928  -18.6555   21.6662 C   0  0  0  0  0  0  0  0  0  0  0  0
   11.2907  -19.5118   21.4055 C   0  0  0  0  0  0  0  0  0  0  0  0
   12.2023  -19.0849   20.6509 O   0  0  0  0  0  0  0  0  0  0  0  0
    9.5534  -15.6183   23.9577 C   0  0  0  0  0  0  0  0  0  0  0  0
   10.4473  -14.7466   24.0306 O   0  0  0  0  0  0  0  0  0  0  0  0
   11.3999  -20.7637   21.9863 O   0  0  0  0  0  0  0  0  0  0  0  0
    7.8244  -12.1392   25.4487 C   0  0  0  0  0  0  0  0  0  0  0  0
    6.9592  -13.3384   25.6937 C   0  0  2  0  0  0  0  0  0  0  0  0
    5.5358  -13.0088   26.0109 C   0  0  0  0  0  0  0  0  0  0  0  0
    7.5565  -14.3519   26.5882 C   0  0  0  0  0  0  0  0  0  0  0  0
    8.8849  -14.9144   26.2920 C   0  0  2  0  0  0  0  0  0  0  0  0
    8.6850  -15.7341   25.0599 N   0  0  0  0  0  0  0  0  0  0  0  0
    9.4225  -15.7519   27.3548 C   0  0  0  0  0  0  0  0  0  0  0  0
    9.3507  -17.0171   27.1930 O   0  0  0  0  0  0  0  0  0  0  0  0
   10.0100  -15.3450   28.5209 O   0  0  0  0  0  0  0  0  0  0  0  0
  2  3  1  0
  2  1  1  0
  3  4  1  1
  5  3  1  0
  5  6  2  0
  7  5  1  0
  8  7  1  0
  8 13  1  0
  8  9  1  6
 10  9  1  0
 10 11  1  0
 11 12  2  0
 13 21  1  0
 14 13  2  0
 15 11  1  0
 17 18  1  1
 17 16  1  0
 19 17  1  0
 20 19  1  1
 21 20  1  0
 22 24  1  0
 22 20  1  0
 23 22  2  0
M  END
$$$$
