SEL.pdb
     RDKit          3D

 24 23  0  0  1  0  0  0  0  0999 V2000
    7.3664  -13.1056   21.2924 O   0  0  0  0  0  0  0  0  0  0  0  0
    7.9158  -13.7274   20.1729 C   0  0  0  0  0  0  0  0  0  0  0  0
    7.5555  -15.1965   20.2330 C   0  0  2  0  0  0  0  0  0  0  0  0
    6.1222  -15.3377   20.1758 N   0  0  0  0  0  0  0  0  0  0  0  0
    8.0330  -15.7228   21.5381 C   0  0  0  0  0  0  0  0  0  0  0  0
    7.1631  -15.9432   22.4478 O   0  0  0  0  0  0  0  0  0  0  0  0
    9.4060  -15.9649   21.7465 N   0  0  0  0  0  0  0  0  0  0  0  0
    9.9662  -16.5564   22.9310 C   0  0  1  0  0  0  0  0  0  0  0  0
   11.2722  -17.2383   22.7590 C   0  0  0  0  0  0  0  0  0  0  0  0
   11.2878  -18.2419   21.6295 C   0  0  0  0  0  0  0  0  0  0  0  0
   12.6947  -18.5619   21.2367 C   0  0  0  0  0  0  0  0  0  0  0  0
   13.2055  -17.9823   20.2438 O   0  0  0  0  0  0  0  0  0  0  0  0
    9.9082  -15.6510   24.1282 C   0  0  0  0  0  0  0  0  0  0  0  0
   10.7556  -14.7458   24.2922 O   0  0  0  0  0  0  0  0  0  0  0  0
   13.4322  -19.4872   21.9553 O   0  0  0  0  0  0  0  0  0  0  0  0
    5.9180  -12.6274   26.5857 C   0  0  0  0  0  0  0  0  0  0  0  0
    7.3524  -13.0213   26.4009 C   0  0  2  0  0  0  0  0  0  0  0  0
    7.9979  -12.4239   25.1918 C   0  0  0  0  0  0  0  0  0  0  0  0
    7.6181  -14.4647   26.5743 C   0  0  0  0  0  0  0  0  0  0  0  0
    8.9780  -14.9980   26.3864 C   0  0  2  0  0  0  0  0  0  0  0  0
    8.9095  -15.7749   25.1129 N   0  0  0  0  0  0  0  0  0  0  0  0
    9.4266  -15.8664   27.4656 C   0  0  0  0  0  0  0  0  0  0  0  0
    9.2367  -17.1214   27.3214 O   0  0  0  0  0  0  0  0  0  0  0  0
   10.0419  -15.4991   28.6306 O   0  0  0  0  0  0  0  0  0  0  0  0
  2  3  1  0
  2  1  1  0
  3  4  1  1
  5  3  1  0
  5  6  2  0
  7  5  1  0
  8  7  1  0
  8 13  1  0
  8  9  1  6
 10  9  1  0
 10 11  1  0
 11 12  2  0
 13 21  1  0
 14 13  2  0
 15 11  1  0
 17 18  1  6
 17 16  1  0
 19 17  1  0
 20 19  1  1
 21 20  1  0
 22 24  1  0
 22 20  1  0
 23 22  2  0
M  END
$$$$
