SEL.pdb
     RDKit          3D

 24 23  0  0  1  0  0  0  0  0999 V2000
   12.9820  -14.9794   20.0918 O   0  0  0  0  0  0  0  0  0  0  0  0
   12.0886  -15.2294   21.1316 C   0  0  0  0  0  0  0  0  0  0  0  0
   11.4998  -16.6075   20.9178 C   0  0  2  0  0  0  0  0  0  0  0  0
   10.4830  -16.5378   19.8985 N   0  0  0  0  0  0  0  0  0  0  0  0
   10.8650  -17.0274   22.1941 C   0  0  0  0  0  0  0  0  0  0  0  0
    9.6541  -16.6768   22.4029 O   0  0  0  0  0  0  0  0  0  0  0  0
   11.5922  -17.7881   23.1321 N   0  0  0  0  0  0  0  0  0  0  0  0
   11.0589  -18.3028   24.3639 C   0  0  1  0  0  0  0  0  0  0  0  0
   11.2551  -19.7542   24.5984 C   0  0  0  0  0  0  0  0  0  0  0  0
   10.6300  -20.2509   25.8813 C   0  0  0  0  0  0  0  0  0  0  0  0
   10.8758  -21.7166   26.0470 C   0  0  0  0  0  0  0  0  0  0  0  0
   10.2855  -22.5309   25.2913 O   0  0  0  0  0  0  0  0  0  0  0  0
   11.3873  -17.4468   25.5538 C   0  0  0  0  0  0  0  0  0  0  0  0
   12.5478  -17.0182   25.7377 O   0  0  0  0  0  0  0  0  0  0  0  0
   11.7435  -22.1781   27.0220 O   0  0  0  0  0  0  0  0  0  0  0  0
   10.7918  -13.2250   27.4501 C   0  0  0  0  0  0  0  0  0  0  0  0
    9.6593  -14.1768   27.2088 C   0  0  2  0  0  0  0  0  0  0  0  0
    8.3116  -13.5296   27.1935 C   0  0  0  0  0  0  0  0  0  0  0  0
    9.7221  -15.4183   28.0080 C   0  0  0  0  0  0  0  0  0  0  0  0
   10.7977  -16.3974   27.7770 C   0  0  2  0  0  0  0  0  0  0  0  0
   10.4171  -17.0889   26.5093 N   0  0  0  0  0  0  0  0  0  0  0  0
   10.9439  -17.3775   28.8438 C   0  0  0  0  0  0  0  0  0  0  0  0
   11.4480  -16.9703   29.9447 O   0  0  0  0  0  0  0  0  0  0  0  0
   10.5966  -18.7000   28.8147 O   0  0  0  0  0  0  0  0  0  0  0  0
  2  3  1  0
  2  1  1  0
  3  4  1  6
  5  3  1  0
  5  6  2  0
  7  5  1  0
  8  7  1  0
  8 13  1  0
  8  9  1  1
 10  9  1  0
 10 11  1  0
 11 12  2  0
 13 21  1  0
 14 13  2  0
 15 11  1  0
 17 18  1  1
 17 16  1  0
 19 17  1  0
 20 19  1  1
 21 20  1  0
 22 24  1  0
 22 20  1  0
 23 22  2  0
M  END
$$$$
