SEL.pdb
     RDKit          3D

 24 23  0  0  1  0  0  0  0  0999 V2000
    8.3686  -12.3646   19.1067 O   0  0  0  0  0  0  0  0  0  0  0  0
    8.3215  -13.1172   20.2785 C   0  0  0  0  0  0  0  0  0  0  0  0
    7.9959  -14.5465   19.9006 C   0  0  2  0  0  0  0  0  0  0  0  0
    6.5912  -14.6496   19.5945 N   0  0  0  0  0  0  0  0  0  0  0  0
    8.2890  -15.4008   21.0807 C   0  0  0  0  0  0  0  0  0  0  0  0
    7.3023  -15.9402   21.6876 O   0  0  0  0  0  0  0  0  0  0  0  0
    9.6199  -15.5977   21.5017 N   0  0  0  0  0  0  0  0  0  0  0  0
   10.0229  -16.4635   22.5762 C   0  0  1  0  0  0  0  0  0  0  0  0
   11.3991  -17.0095   22.4867 C   0  0  0  0  0  0  0  0  0  0  0  0
   12.4662  -15.9466   22.3658 C   0  0  0  0  0  0  0  0  0  0  0  0
   13.8231  -16.5735   22.3210 C   0  0  0  0  0  0  0  0  0  0  0  0
   14.1415  -17.2865   21.3347 O   0  0  0  0  0  0  0  0  0  0  0  0
    9.6719  -15.9242   23.9335 C   0  0  0  0  0  0  0  0  0  0  0  0
    9.9814  -16.5468   24.9732 O   0  0  0  0  0  0  0  0  0  0  0  0
   14.7239  -16.3746   23.3533 O   0  0  0  0  0  0  0  0  0  0  0  0
    5.3883  -12.2077   26.0755 C   0  0  0  0  0  0  0  0  0  0  0  0
    6.7928  -12.6474   26.3600 C   0  0  2  0  0  0  0  0  0  0  0  0
    7.6253  -11.6177   27.0544 C   0  0  0  0  0  0  0  0  0  0  0  0
    7.4712  -13.3034   25.2227 C   0  0  0  0  0  0  0  0  0  0  0  0
    8.6064  -14.2117   25.4578 C   0  0  2  0  0  0  0  0  0  0  0  0
    8.9855  -14.7063   24.1007 N   0  0  0  0  0  0  0  0  0  0  0  0
    8.2904  -15.3419   26.3196 C   0  0  0  0  0  0  0  0  0  0  0  0
    8.8659  -15.3851   27.4593 O   0  0  0  0  0  0  0  0  0  0  0  0
    7.4348  -16.3764   26.0581 O   0  0  0  0  0  0  0  0  0  0  0  0
  2  3  1  0
  2  1  1  0
  3  4  1  1
  5  3  1  0
  5  6  2  0
  7  5  1  0
  8  7  1  0
  8 13  1  0
  8  9  1  1
 10  9  1  0
 10 11  1  0
 11 12  2  0
 13 21  1  0
 14 13  2  0
 15 11  1  0
 17 18  1  6
 17 16  1  0
 19 17  1  0
 20 19  1  6
 21 20  1  0
 22 24  1  0
 22 20  1  0
 23 22  2  0
M  END
$$$$
