SEL.pdb
     RDKit          3D

 24 23  0  0  1  0  0  0  0  0999 V2000
    8.8517  -12.1257   18.2667 O   0  0  0  0  0  0  0  0  0  0  0  0
    8.5321  -12.8361   19.4221 C   0  0  0  0  0  0  0  0  0  0  0  0
    8.4157  -14.2992   19.0513 C   0  0  2  0  0  0  0  0  0  0  0  0
    7.2134  -14.5011   18.2823 N   0  0  0  0  0  0  0  0  0  0  0  0
    8.3079  -15.0751   20.3141 C   0  0  0  0  0  0  0  0  0  0  0  0
    7.1380  -15.3453   20.7513 O   0  0  0  0  0  0  0  0  0  0  0  0
    9.4710  -15.4910   20.9934 N   0  0  0  0  0  0  0  0  0  0  0  0
    9.4835  -16.2634   22.2058 C   0  0  1  0  0  0  0  0  0  0  0  0
   10.3431  -17.4721   22.1950 C   0  0  0  0  0  0  0  0  0  0  0  0
   11.7638  -17.2016   21.7573 C   0  0  0  0  0  0  0  0  0  0  0  0
   12.6103  -18.4183   21.9548 C   0  0  0  0  0  0  0  0  0  0  0  0
   13.5120  -18.4073   22.8321 O   0  0  0  0  0  0  0  0  0  0  0  0
    9.6356  -15.4224   23.4411 C   0  0  0  0  0  0  0  0  0  0  0  0
   10.0675  -14.2506   23.3729 O   0  0  0  0  0  0  0  0  0  0  0  0
   12.4080  -19.5487   21.1816 O   0  0  0  0  0  0  0  0  0  0  0  0
    5.6592  -13.2391   26.2850 C   0  0  0  0  0  0  0  0  0  0  0  0
    7.1482  -13.3384   26.4255 C   0  0  2  0  0  0  0  0  0  0  0  0
    7.8395  -12.0175   26.5380 C   0  0  0  0  0  0  0  0  0  0  0  0
    7.7911  -14.2762   25.4813 C   0  0  0  0  0  0  0  0  0  0  0  0
    9.0344  -14.9715   25.8550 C   0  0  2  0  0  0  0  0  0  0  0  0
    9.3035  -15.9055   24.7213 N   0  0  0  0  0  0  0  0  0  0  0  0
    8.9398  -15.7247   27.0974 C   0  0  0  0  0  0  0  0  0  0  0  0
    9.2714  -15.1200   28.1727 O   0  0  0  0  0  0  0  0  0  0  0  0
    8.5271  -17.0186   27.2589 O   0  0  0  0  0  0  0  0  0  0  0  0
  2  3  1  0
  2  1  1  0
  3  4  1  6
  5  3  1  0
  5  6  2  0
  7  5  1  0
  8  7  1  0
  8 13  1  0
  8  9  1  6
 10  9  1  0
 10 11  1  0
 11 12  2  0
 13 21  1  0
 14 13  2  0
 15 11  1  0
 17 18  1  6
 17 16  1  0
 19 17  1  0
 20 19  1  6
 21 20  1  0
 22 24  1  0
 22 20  1  0
 23 22  2  0
M  END
$$$$
