SEL.pdb
     RDKit          3D

 24 23  0  0  1  0  0  0  0  0999 V2000
    8.2532  -11.9796   20.7104 O   0  0  0  0  0  0  0  0  0  0  0  0
    8.9379  -12.8424   19.8568 C   0  0  0  0  0  0  0  0  0  0  0  0
    8.0815  -14.0743   19.6555 C   0  0  2  0  0  0  0  0  0  0  0  0
    6.7413  -13.6712   19.3107 N   0  0  0  0  0  0  0  0  0  0  0  0
    8.0395  -14.8078   20.9472 C   0  0  0  0  0  0  0  0  0  0  0  0
    6.9760  -14.7198   21.6500 O   0  0  0  0  0  0  0  0  0  0  0  0
    9.1479  -15.5713   21.3665 N   0  0  0  0  0  0  0  0  0  0  0  0
    9.1645  -16.4343   22.5161 C   0  0  1  0  0  0  0  0  0  0  0  0
    9.9804  -17.6665   22.3893 C   0  0  0  0  0  0  0  0  0  0  0  0
   10.6803  -17.7956   21.0564 C   0  0  0  0  0  0  0  0  0  0  0  0
   11.5107  -19.0387   21.0225 C   0  0  0  0  0  0  0  0  0  0  0  0
   10.9673  -20.1366   20.7359 O   0  0  0  0  0  0  0  0  0  0  0  0
    9.3780  -15.6960   23.8067 C   0  0  0  0  0  0  0  0  0  0  0  0
   10.4159  -15.0255   24.0005 O   0  0  0  0  0  0  0  0  0  0  0  0
   12.8653  -18.9873   21.3035 O   0  0  0  0  0  0  0  0  0  0  0  0
    7.7742  -12.1185   25.8422 C   0  0  0  0  0  0  0  0  0  0  0  0
    6.8694  -13.3135   25.8615 C   0  0  2  0  0  0  0  0  0  0  0  0
    5.4506  -12.9985   26.2127 C   0  0  0  0  0  0  0  0  0  0  0  0
    7.4196  -14.4866   26.5723 C   0  0  0  0  0  0  0  0  0  0  0  0
    8.7097  -15.0665   26.1622 C   0  0  2  0  0  0  0  0  0  0  0  0
    8.4321  -15.7218   24.8493 N   0  0  0  0  0  0  0  0  0  0  0  0
    9.2399  -16.0490   27.0969 C   0  0  0  0  0  0  0  0  0  0  0  0
    9.6319  -15.6195   28.2343 O   0  0  0  0  0  0  0  0  0  0  0  0
    9.3661  -17.3975   26.9069 O   0  0  0  0  0  0  0  0  0  0  0  0
  2  3  1  0
  2  1  1  0
  3  4  1  1
  5  3  1  0
  5  6  2  0
  7  5  1  0
  8  7  1  0
  8 13  1  0
  8  9  1  6
 10  9  1  0
 10 11  1  0
 11 12  2  0
 13 21  1  0
 14 13  2  0
 15 11  1  0
 17 18  1  1
 17 16  1  0
 19 17  1  0
 20 19  1  1
 21 20  1  0
 22 24  1  0
 22 20  1  0
 23 22  2  0
M  END
$$$$
