SEL.pdb
     RDKit          3D

 24 23  0  0  1  0  0  0  0  0999 V2000
    5.6634  -17.9199   23.8701 O   0  0  0  0  0  0  0  0  0  0  0  0
    5.4952  -17.0854   22.7669 C   0  0  0  0  0  0  0  0  0  0  0  0
    6.3129  -17.6521   21.6259 C   0  0  2  0  0  0  0  0  0  0  0  0
    5.8477  -18.9819   21.3216 N   0  0  0  0  0  0  0  0  0  0  0  0
    7.7244  -17.7355   22.0833 C   0  0  0  0  0  0  0  0  0  0  0  0
    8.1692  -18.8781   22.4432 O   0  0  0  0  0  0  0  0  0  0  0  0
    8.5309  -16.5798   22.1118 N   0  0  0  0  0  0  0  0  0  0  0  0
    9.8748  -16.5271   22.6197 C   0  0  1  0  0  0  0  0  0  0  0  0
   10.8706  -15.8561   21.7490 C   0  0  0  0  0  0  0  0  0  0  0  0
   12.2870  -15.9457   22.2673 C   0  0  0  0  0  0  0  0  0  0  0  0
   13.2600  -15.5945   21.1875 C   0  0  0  0  0  0  0  0  0  0  0  0
   13.1268  -14.5090   20.5656 O   0  0  0  0  0  0  0  0  0  0  0  0
    9.9466  -16.1053   24.0596 C   0  0  0  0  0  0  0  0  0  0  0  0
   11.0413  -16.0587   24.6627 O   0  0  0  0  0  0  0  0  0  0  0  0
   14.2990  -16.4527   20.8708 O   0  0  0  0  0  0  0  0  0  0  0  0
    8.2793  -12.2919   25.9237 C   0  0  0  0  0  0  0  0  0  0  0  0
    7.2703  -13.3915   25.7826 C   0  0  2  0  0  0  0  0  0  0  0  0
    5.8559  -12.9505   25.9833 C   0  0  0  0  0  0  0  0  0  0  0  0
    7.6195  -14.6380   26.4956 C   0  0  0  0  0  0  0  0  0  0  0  0
    8.8959  -15.3192   26.2204 C   0  0  2  0  0  0  0  0  0  0  0  0
    8.7995  -15.7457   24.7926 N   0  0  0  0  0  0  0  0  0  0  0  0
    9.1390  -16.4816   27.0628 C   0  0  0  0  0  0  0  0  0  0  0  0
    8.7237  -17.6105   26.6328 O   0  0  0  0  0  0  0  0  0  0  0  0
    9.7731  -16.5158   28.2742 O   0  0  0  0  0  0  0  0  0  0  0  0
  2  3  1  0
  2  1  1  0
  3  4  1  1
  5  3  1  0
  5  6  2  0
  7  5  1  0
  8  7  1  0
  8 13  1  0
  8  9  1  6
 10  9  1  0
 10 11  1  0
 11 12  2  0
 13 21  1  0
 14 13  2  0
 15 11  1  0
 17 18  1  1
 17 16  1  0
 19 17  1  0
 20 19  1  1
 21 20  1  0
 22 24  1  0
 22 20  1  0
 23 22  2  0
M  END
$$$$
