SEL.pdb
     RDKit          3D

 24 23  0  0  1  0  0  0  0  0999 V2000
    5.5395  -15.9867   20.8457 O   0  0  0  0  0  0  0  0  0  0  0  0
    6.5034  -15.1897   20.2313 C   0  0  0  0  0  0  0  0  0  0  0  0
    7.6029  -16.0978   19.7230 C   0  0  2  0  0  0  0  0  0  0  0  0
    7.0237  -17.1367   18.9088 N   0  0  0  0  0  0  0  0  0  0  0  0
    8.2492  -16.7252   20.9050 C   0  0  0  0  0  0  0  0  0  0  0  0
    7.7668  -17.8277   21.3347 O   0  0  0  0  0  0  0  0  0  0  0  0
    9.3582  -16.1083   21.5186 N   0  0  0  0  0  0  0  0  0  0  0  0
   10.0330  -16.6045   22.6870 C   0  0  1  0  0  0  0  0  0  0  0  0
   11.3424  -17.2597   22.4497 C   0  0  0  0  0  0  0  0  0  0  0  0
   11.7564  -17.2782   20.9967 C   0  0  0  0  0  0  0  0  0  0  0  0
   13.0727  -17.9697   20.8389 C   0  0  0  0  0  0  0  0  0  0  0  0
   13.4996  -18.2286   19.6841 O   0  0  0  0  0  0  0  0  0  0  0  0
   10.0432  -15.6240   23.8250 C   0  0  0  0  0  0  0  0  0  0  0  0
   10.5728  -14.4979   23.6996 O   0  0  0  0  0  0  0  0  0  0  0  0
   13.8183  -18.3244   21.9501 O   0  0  0  0  0  0  0  0  0  0  0  0
    8.6889  -12.1025   27.0454 C   0  0  0  0  0  0  0  0  0  0  0  0
    7.7320  -12.7367   26.0816 C   0  0  2  0  0  0  0  0  0  0  0  0
    6.3512  -12.9203   26.6248 C   0  0  0  0  0  0  0  0  0  0  0  0
    8.2658  -13.9229   25.3801 C   0  0  0  0  0  0  0  0  0  0  0  0
    9.1831  -14.8449   26.0710 C   0  0  2  0  0  0  0  0  0  0  0  0
    9.4643  -15.9204   25.0738 N   0  0  0  0  0  0  0  0  0  0  0  0
    8.6284  -15.4335   27.2818 C   0  0  0  0  0  0  0  0  0  0  0  0
    9.1089  -15.0357   28.3966 O   0  0  0  0  0  0  0  0  0  0  0  0
    7.6359  -16.3699   27.3748 O   0  0  0  0  0  0  0  0  0  0  0  0
  2  3  1  0
  2  1  1  0
  3  4  1  6
  5  3  1  0
  5  6  2  0
  7  5  1  0
  8  7  1  0
  8 13  1  0
  8  9  1  6
 10  9  1  0
 10 11  1  0
 11 12  2  0
 13 21  1  0
 14 13  2  0
 15 11  1  0
 17 18  1  1
 17 16  1  0
 19 17  1  0
 20 19  1  6
 21 20  1  0
 22 24  1  0
 22 20  1  0
 23 22  2  0
M  END
$$$$
