FKP.pdb
     RDKit          3D

 28 29  0  0  1  0  0  0  0  0999 V2000
    6.1072  -17.8983   26.0791 N   0  0  0  0  0  0  0  0  0  0  0  0
    6.5189  -16.5667   25.7762 C   0  0  1  0  0  0  0  0  0  0  0  0
    7.2240  -15.9308   26.9540 C   0  0  0  0  0  0  0  0  0  0  0  0
    7.2633  -14.4642   26.8570 C   0  0  0  0  0  0  0  0  0  0  0  0
    6.0693  -13.7815   26.8625 C   0  0  0  0  0  0  0  0  0  0  0  0
    5.9934  -12.4050   26.7762 C   0  0  0  0  0  0  0  0  0  0  0  0
    7.1730  -11.7124   26.6819 C   0  0  0  0  0  0  0  0  0  0  0  0
    8.3829  -12.3724   26.6743 C   0  0  0  0  0  0  0  0  0  0  0  0
    8.4288  -13.7370   26.7610 C   0  0  0  0  0  0  0  0  0  0  0  0
    7.3336  -16.4729   24.5378 C   0  0  0  0  0  0  0  0  0  0  0  0
    8.2931  -17.3147   24.4559 O   0  0  0  0  0  0  0  0  0  0  0  0
    7.0879  -15.5350   23.5141 N   0  0  0  0  0  0  0  0  0  0  0  0
    7.9795  -15.4717   22.3643 C   0  0  1  0  0  0  0  0  0  0  0  0
    7.5414  -14.2829   21.5687 C   0  0  0  0  0  0  0  0  0  0  0  0
    7.8973  -14.2626   20.1301 C   0  0  0  0  0  0  0  0  0  0  0  0
    8.2647  -12.8901   19.6173 C   0  0  0  0  0  0  0  0  0  0  0  0
    8.4393  -12.8817   18.1117 C   0  0  0  0  0  0  0  0  0  0  0  0
    9.4862  -13.8620   17.8115 N   0  0  0  0  0  0  0  0  0  0  0  0
    9.3972  -15.5205   22.6927 C   0  0  0  0  0  0  0  0  0  0  0  0
    9.7610  -14.7900   23.6869 O   0  0  0  0  0  0  0  0  0  0  0  0
   10.4339  -16.2560   22.0765 N   0  0  0  0  0  0  0  0  0  0  0  0
   10.2143  -17.1073   20.8807 C   0  0  0  0  0  0  0  0  0  0  0  0
   11.3165  -18.1241   20.8700 C   0  0  0  0  0  0  0  0  0  0  0  0
   12.0276  -17.9165   22.1881 C   0  0  0  0  0  0  0  0  0  0  0  0
   11.8405  -16.3948   22.3393 C   0  0  1  0  0  0  0  0  0  0  0  0
   12.6761  -15.7605   21.3015 C   0  0  0  0  0  0  0  0  0  0  0  0
   13.8808  -15.4987   21.5243 O   0  0  0  0  0  0  0  0  0  0  0  0
   12.1650  -15.4405   20.0725 O   0  0  0  0  0  0  0  0  0  0  0  0
  2  1  1  1
  3  2  1  0
  4  3  1  0
  4  9  1  0
  5  4  2  0
  6  5  1  0
  6  7  2  0
  7  8  1  0
  8  9  2  0
 10  2  1  0
 10 11  2  0
 12 10  1  0
 13 12  1  0
 13 14  1  1
 15 14  1  0
 16 15  1  0
 17 16  1  0
 18 17  1  0
 19 13  1  0
 20 19  2  0
 21 25  1  0
 21 19  1  0
 22 21  1  0
 23 22  1  0
 23 24  1  0
 24 25  1  0
 25 26  1  6
 26 27  2  0
 26 28  1  0
M  END
$$$$
