FKP.pdb
     RDKit          3D

 28 29  0  0  1  0  0  0  0  0999 V2000
    6.2617  -17.3911   26.3973 N   0  0  0  0  0  0  0  0  0  0  0  0
    6.7853  -16.2171   25.7791 C   0  0  1  0  0  0  0  0  0  0  0  0
    7.7432  -15.4944   26.7004 C   0  0  0  0  0  0  0  0  0  0  0  0
    7.4066  -14.0712   26.8522 C   0  0  0  0  0  0  0  0  0  0  0  0
    6.1491  -13.6585   26.4776 C   0  0  0  0  0  0  0  0  0  0  0  0
    5.7308  -12.3459   26.5787 C   0  0  0  0  0  0  0  0  0  0  0  0
    6.6259  -11.4346   27.0767 C   0  0  0  0  0  0  0  0  0  0  0  0
    7.8921  -11.8221   27.4593 C   0  0  0  0  0  0  0  0  0  0  0  0
    8.2802  -13.1293   27.3483 C   0  0  0  0  0  0  0  0  0  0  0  0
    7.3983  -16.4780   24.4515 C   0  0  0  0  0  0  0  0  0  0  0  0
    7.9973  -17.6030   24.3434 O   0  0  0  0  0  0  0  0  0  0  0  0
    7.3381  -15.5697   23.3748 N   0  0  0  0  0  0  0  0  0  0  0  0
    8.1888  -15.7735   22.2104 C   0  0  1  0  0  0  0  0  0  0  0  0
    7.7499  -14.7632   21.1981 C   0  0  0  0  0  0  0  0  0  0  0  0
    8.4698  -14.7461   19.9026 C   0  0  0  0  0  0  0  0  0  0  0  0
    7.9232  -13.7373   18.9203 C   0  0  0  0  0  0  0  0  0  0  0  0
    8.7075  -13.7349   17.6233 C   0  0  0  0  0  0  0  0  0  0  0  0
    8.2590  -12.5601   16.8711 N   0  0  0  0  0  0  0  0  0  0  0  0
    9.6159  -15.7959   22.4984 C   0  0  0  0  0  0  0  0  0  0  0  0
   10.0148  -14.9564   23.3876 O   0  0  0  0  0  0  0  0  0  0  0  0
   10.6288  -16.6081   21.9417 N   0  0  0  0  0  0  0  0  0  0  0  0
   10.3888  -17.5191   20.7948 C   0  0  0  0  0  0  0  0  0  0  0  0
   11.4480  -18.5787   20.8600 C   0  0  0  0  0  0  0  0  0  0  0  0
   12.1508  -18.3224   22.1740 C   0  0  0  0  0  0  0  0  0  0  0  0
   12.0251  -16.7880   22.2328 C   0  0  1  0  0  0  0  0  0  0  0  0
   12.8989  -16.2508   21.1719 C   0  0  0  0  0  0  0  0  0  0  0  0
   14.1091  -16.0192   21.3985 O   0  0  0  0  0  0  0  0  0  0  0  0
   12.4182  -15.9905   19.9169 O   0  0  0  0  0  0  0  0  0  0  0  0
  2  1  1  1
  3  2  1  0
  4  3  1  0
  4  9  1  0
  5  4  2  0
  6  5  1  0
  6  7  2  0
  7  8  1  0
  8  9  2  0
 10  2  1  0
 10 11  2  0
 12 10  1  0
 13 12  1  0
 13 14  1  6
 15 14  1  0
 16 15  1  0
 17 16  1  0
 18 17  1  0
 19 13  1  0
 20 19  2  0
 21 25  1  0
 21 19  1  0
 22 21  1  0
 23 22  1  0
 23 24  1  0
 24 25  1  0
 25 26  1  6
 26 27  2  0
 26 28  1  0
M  END
$$$$
