FKP.pdb
     RDKit          3D

 28 29  0  0  1  0  0  0  0  0999 V2000
    6.6199  -16.6019   26.1003 N   0  0  0  0  0  0  0  0  0  0  0  0
    6.9019  -15.5886   25.1368 C   0  0  1  0  0  0  0  0  0  0  0  0
    7.9622  -14.6344   25.6406 C   0  0  0  0  0  0  0  0  0  0  0  0
    7.3869  -13.4881   26.3596 C   0  0  0  0  0  0  0  0  0  0  0  0
    7.8125  -13.2490   27.6455 C   0  0  0  0  0  0  0  0  0  0  0  0
    7.3370  -12.2004   28.4088 C   0  0  0  0  0  0  0  0  0  0  0  0
    6.4014  -11.3770   27.8373 C   0  0  0  0  0  0  0  0  0  0  0  0
    5.9582  -11.5947   26.5505 C   0  0  0  0  0  0  0  0  0  0  0  0
    6.4462  -12.6413   25.8169 C   0  0  0  0  0  0  0  0  0  0  0  0
    7.2496  -16.1329   23.7992 C   0  0  0  0  0  0  0  0  0  0  0  0
    7.6575  -17.3452   23.7973 O   0  0  0  0  0  0  0  0  0  0  0  0
    7.1462  -15.3891   22.6059 N   0  0  0  0  0  0  0  0  0  0  0  0
    7.9402  -15.7714   21.4463 C   0  0  1  0  0  0  0  0  0  0  0  0
    7.6823  -14.7258   20.4079 C   0  0  0  0  0  0  0  0  0  0  0  0
    8.3795  -14.8755   19.1086 C   0  0  0  0  0  0  0  0  0  0  0  0
    7.9952  -13.8268   18.0917 C   0  0  0  0  0  0  0  0  0  0  0  0
    8.7147  -14.0329   16.7736 C   0  0  0  0  0  0  0  0  0  0  0  0
    8.2238  -12.9912   15.8675 N   0  0  0  0  0  0  0  0  0  0  0  0
    9.3423  -16.0400   21.7332 C   0  0  0  0  0  0  0  0  0  0  0  0
    9.9106  -15.2151   22.5400 O   0  0  0  0  0  0  0  0  0  0  0  0
   10.1713  -17.0781   21.2529 N   0  0  0  0  0  0  0  0  0  0  0  0
    9.7380  -18.0309   20.2007 C   0  0  0  0  0  0  0  0  0  0  0  0
   10.5802  -19.2611   20.3631 C   0  0  0  0  0  0  0  0  0  0  0  0
   11.3486  -19.0201   21.6428 C   0  0  0  0  0  0  0  0  0  0  0  0
   11.5151  -17.4911   21.5535 C   0  0  1  0  0  0  0  0  0  0  0  0
   12.4498  -17.2314   20.4416 C   0  0  0  0  0  0  0  0  0  0  0  0
   13.6879  -17.3062   20.6181 O   0  0  0  0  0  0  0  0  0  0  0  0
   11.9970  -16.9028   19.1922 O   0  0  0  0  0  0  0  0  0  0  0  0
  2  1  1  1
  3  2  1  0
  4  3  1  0
  4  9  1  0
  5  4  2  0
  6  5  1  0
  6  7  2  0
  7  8  1  0
  8  9  2  0
 10  2  1  0
 10 11  2  0
 12 10  1  0
 13 12  1  0
 13 14  1  6
 15 14  1  0
 16 15  1  0
 17 16  1  0
 18 17  1  0
 19 13  1  0
 20 19  2  0
 21 25  1  0
 21 19  1  0
 22 21  1  0
 23 22  1  0
 23 24  1  0
 24 25  1  0
 25 26  1  6
 26 27  2  0
 26 28  1  0
M  END
$$$$
