FKP.pdb
     RDKit          3D

 28 29  0  0  1  0  0  0  0  0999 V2000
    5.2528  -16.1140   24.3353 N   0  0  0  0  0  0  0  0  0  0  0  0
    6.6027  -16.1380   23.8751 C   0  0  1  0  0  0  0  0  0  0  0  0
    7.0433  -14.7708   23.4004 C   0  0  0  0  0  0  0  0  0  0  0  0
    6.9681  -13.7585   24.4641 C   0  0  0  0  0  0  0  0  0  0  0  0
    8.0184  -12.8807   24.5996 C   0  0  0  0  0  0  0  0  0  0  0  0
    8.0487  -11.8926   25.5645 C   0  0  0  0  0  0  0  0  0  0  0  0
    6.9739  -11.8038   26.4111 C   0  0  0  0  0  0  0  0  0  0  0  0
    5.9087  -12.6711   26.2966 C   0  0  0  0  0  0  0  0  0  0  0  0
    5.9049  -13.6407   25.3314 C   0  0  0  0  0  0  0  0  0  0  0  0
    7.5507  -16.7011   24.8702 C   0  0  0  0  0  0  0  0  0  0  0  0
    7.2093  -16.5437   26.0928 O   0  0  0  0  0  0  0  0  0  0  0  0
    8.7444  -17.3642   24.5189 N   0  0  0  0  0  0  0  0  0  0  0  0
    9.6219  -17.8727   25.5641 C   0  0  1  0  0  0  0  0  0  0  0  0
   10.1878  -19.1543   25.0392 C   0  0  0  0  0  0  0  0  0  0  0  0
   11.1300  -19.8881   25.9170 C   0  0  0  0  0  0  0  0  0  0  0  0
   10.4936  -21.0402   26.6581 C   0  0  0  0  0  0  0  0  0  0  0  0
   11.4894  -21.7501   27.5535 C   0  0  0  0  0  0  0  0  0  0  0  0
   11.5565  -20.9735   28.7943 N   0  0  0  0  0  0  0  0  0  0  0  0
   10.5969  -16.9109   26.0586 C   0  0  0  0  0  0  0  0  0  0  0  0
   11.3464  -16.3718   25.1631 O   0  0  0  0  0  0  0  0  0  0  0  0
   10.8397  -16.4826   27.3826 N   0  0  0  0  0  0  0  0  0  0  0  0
    9.8871  -16.7276   28.4941 C   0  0  0  0  0  0  0  0  0  0  0  0
   10.1718  -15.6905   29.5392 C   0  0  0  0  0  0  0  0  0  0  0  0
   11.1748  -14.7676   28.8847 C   0  0  0  0  0  0  0  0  0  0  0  0
   11.9299  -15.7910   28.0151 C   0  0  1  0  0  0  0  0  0  0  0  0
   12.6883  -16.6549   28.9404 C   0  0  0  0  0  0  0  0  0  0  0  0
   12.2715  -17.8003   29.2301 O   0  0  0  0  0  0  0  0  0  0  0  0
   13.8616  -16.2350   29.5070 O   0  0  0  0  0  0  0  0  0  0  0  0
  2  1  1  1
  3  2  1  0
  4  3  1  0
  4  9  1  0
  5  4  2  0
  6  5  1  0
  6  7  2  0
  7  8  1  0
  8  9  2  0
 10  2  1  0
 10 11  2  0
 12 10  1  0
 13 12  1  0
 13 14  1  6
 15 14  1  0
 16 15  1  0
 17 16  1  0
 18 17  1  0
 19 13  1  0
 20 19  2  0
 21 25  1  0
 21 19  1  0
 22 21  1  0
 23 22  1  0
 23 24  1  0
 24 25  1  0
 25 26  1  1
 26 27  2  0
 26 28  1  0
M  END
$$$$
