FKP.pdb
     RDKit          3D

 28 29  0  0  1  0  0  0  0  0999 V2000
    6.8744  -18.0118   26.4323 N   0  0  0  0  0  0  0  0  0  0  0  0
    7.5822  -16.8465   26.0130 C   0  0  1  0  0  0  0  0  0  0  0  0
    8.9450  -16.7699   26.6653 C   0  0  0  0  0  0  0  0  0  0  0  0
    9.0610  -15.6293   27.5859 C   0  0  0  0  0  0  0  0  0  0  0  0
    8.6823  -14.3876   27.1313 C   0  0  0  0  0  0  0  0  0  0  0  0
    8.7508  -13.2510   27.9133 C   0  0  0  0  0  0  0  0  0  0  0  0
    9.2198  -13.3930   29.1938 C   0  0  0  0  0  0  0  0  0  0  0  0
    9.6058  -14.6260   29.6738 C   0  0  0  0  0  0  0  0  0  0  0  0
    9.5275  -15.7356   28.8773 C   0  0  0  0  0  0  0  0  0  0  0  0
    7.6768  -16.7185   24.5363 C   0  0  0  0  0  0  0  0  0  0  0  0
    7.8471  -17.8191   23.9071 O   0  0  0  0  0  0  0  0  0  0  0  0
    7.5883  -15.4873   23.8549 N   0  0  0  0  0  0  0  0  0  0  0  0
    8.0178  -15.3987   22.4661 C   0  0  1  0  0  0  0  0  0  0  0  0
    7.6358  -14.0281   22.0037 C   0  0  0  0  0  0  0  0  0  0  0  0
    8.3991  -13.4598   20.8674 C   0  0  0  0  0  0  0  0  0  0  0  0
    7.6588  -13.5183   19.5520 C   0  0  0  0  0  0  0  0  0  0  0  0
    8.4801  -12.9353   18.4194 C   0  0  0  0  0  0  0  0  0  0  0  0
    7.6800  -13.0976   17.2025 N   0  0  0  0  0  0  0  0  0  0  0  0
    9.4050  -15.7762   22.2350 C   0  0  0  0  0  0  0  0  0  0  0  0
   10.2415  -15.3876   23.1314 O   0  0  0  0  0  0  0  0  0  0  0  0
    9.9670  -16.5095   21.1663 N   0  0  0  0  0  0  0  0  0  0  0  0
    9.2167  -16.8237   19.9249 C   0  0  0  0  0  0  0  0  0  0  0  0
    9.8713  -18.0308   19.3222 C   0  0  0  0  0  0  0  0  0  0  0  0
   10.8752  -18.4694   20.3642 C   0  0  0  0  0  0  0  0  0  0  0  0
   11.2611  -17.0929   20.9387 C   0  0  1  0  0  0  0  0  0  0  0  0
   12.0209  -16.3926   19.8852 C   0  0  0  0  0  0  0  0  0  0  0  0
   13.2548  -16.5717   19.7625 O   0  0  0  0  0  0  0  0  0  0  0  0
   11.4062  -15.5319   19.0160 O   0  0  0  0  0  0  0  0  0  0  0  0
  2  1  1  6
  3  2  1  0
  4  3  1  0
  4  9  1  0
  5  4  2  0
  6  5  1  0
  6  7  2  0
  7  8  1  0
  8  9  2  0
 10  2  1  0
 10 11  2  0
 12 10  1  0
 13 12  1  0
 13 14  1  1
 15 14  1  0
 16 15  1  0
 17 16  1  0
 18 17  1  0
 19 13  1  0
 20 19  2  0
 21 25  1  0
 21 19  1  0
 22 21  1  0
 23 22  1  0
 23 24  1  0
 24 25  1  0
 25 26  1  6
 26 27  2  0
 26 28  1  0
M  END
$$$$
