FKP.pdb
     RDKit          3D

 28 29  0  0  1  0  0  0  0  0999 V2000
   11.2032  -17.7604   26.1237 N   0  0  0  0  0  0  0  0  0  0  0  0
   10.8338  -16.4523   25.6913 C   0  0  1  0  0  0  0  0  0  0  0  0
   11.6674  -15.3932   26.3782 C   0  0  0  0  0  0  0  0  0  0  0  0
   10.9636  -14.7757   27.5119 C   0  0  0  0  0  0  0  0  0  0  0  0
   11.3438  -15.1339   28.7843 C   0  0  0  0  0  0  0  0  0  0  0  0
   10.7491  -14.6143   29.9177 C   0  0  0  0  0  0  0  0  0  0  0  0
    9.7390  -13.7043   29.7399 C   0  0  0  0  0  0  0  0  0  0  0  0
    9.3390  -13.3284   28.4756 C   0  0  0  0  0  0  0  0  0  0  0  0
    9.9456  -13.8591   27.3701 C   0  0  0  0  0  0  0  0  0  0  0  0
   10.8606  -16.2943   24.2147 C   0  0  0  0  0  0  0  0  0  0  0  0
   11.9319  -15.7771   23.7448 O   0  0  0  0  0  0  0  0  0  0  0  0
    9.7974  -16.6779   23.3718 N   0  0  0  0  0  0  0  0  0  0  0  0
    9.8375  -16.3334   21.9573 C   0  0  1  0  0  0  0  0  0  0  0  0
   10.5016  -17.4854   21.2717 C   0  0  0  0  0  0  0  0  0  0  0  0
   10.6071  -17.4246   19.7945 C   0  0  0  0  0  0  0  0  0  0  0  0
   11.1976  -18.6710   19.1786 C   0  0  0  0  0  0  0  0  0  0  0  0
   11.3852  -18.5226   17.6819 C   0  0  0  0  0  0  0  0  0  0  0  0
   11.8683  -19.8176   17.1955 N   0  0  0  0  0  0  0  0  0  0  0  0
    8.5584  -15.9209   21.3971 C   0  0  0  0  0  0  0  0  0  0  0  0
    7.5212  -16.4770   21.9162 O   0  0  0  0  0  0  0  0  0  0  0  0
    8.2904  -14.9961   20.3635 N   0  0  0  0  0  0  0  0  0  0  0  0
    9.3594  -14.2419   19.6627 C   0  0  0  0  0  0  0  0  0  0  0  0
    8.7149  -13.0131   19.0938 C   0  0  0  0  0  0  0  0  0  0  0  0
    7.3139  -13.0304   19.6620 C   0  0  0  0  0  0  0  0  0  0  0  0
    7.0835  -14.5526   19.7203 C   0  0  1  0  0  0  0  0  0  0  0  0
    6.9814  -15.0190   18.3240 C   0  0  0  0  0  0  0  0  0  0  0  0
    5.9118  -14.8895   17.6847 O   0  0  0  0  0  0  0  0  0  0  0  0
    8.0438  -15.6034   17.6885 O   0  0  0  0  0  0  0  0  0  0  0  0
  2  1  1  6
  3  2  1  0
  4  3  1  0
  4  9  1  0
  5  4  2  0
  6  5  1  0
  6  7  2  0
  7  8  1  0
  8  9  2  0
 10  2  1  0
 10 11  2  0
 12 10  1  0
 13 12  1  0
 13 14  1  6
 15 14  1  0
 16 15  1  0
 17 16  1  0
 18 17  1  0
 19 13  1  0
 20 19  2  0
 21 25  1  0
 21 19  1  0
 22 21  1  0
 23 22  1  0
 23 24  1  0
 24 25  1  0
 25 26  1  6
 26 27  2  0
 26 28  1  0
M  END
$$$$
