FKP.pdb
     RDKit          3D

 28 29  0  0  1  0  0  0  0  0999 V2000
    5.7974  -17.8485   26.1349 N   0  0  0  0  0  0  0  0  0  0  0  0
    6.3805  -16.5937   25.7882 C   0  0  1  0  0  0  0  0  0  0  0  0
    7.1280  -15.9954   26.9595 C   0  0  0  0  0  0  0  0  0  0  0  0
    7.1480  -14.5258   26.9183 C   0  0  0  0  0  0  0  0  0  0  0  0
    8.3664  -13.8915   26.9904 C   0  0  0  0  0  0  0  0  0  0  0  0
    8.4977  -12.5167   26.9602 C   0  0  0  0  0  0  0  0  0  0  0  0
    7.3495  -11.7750   26.8532 C   0  0  0  0  0  0  0  0  0  0  0  0
    6.1162  -12.3861   26.7793 C   0  0  0  0  0  0  0  0  0  0  0  0
    6.0152  -13.7501   26.8115 C   0  0  0  0  0  0  0  0  0  0  0  0
    7.2332  -16.6599   24.5738 C   0  0  0  0  0  0  0  0  0  0  0  0
    8.0483  -17.6450   24.5375 O   0  0  0  0  0  0  0  0  0  0  0  0
    7.1682  -15.7194   23.5254 N   0  0  0  0  0  0  0  0  0  0  0  0
    8.1352  -15.7827   22.4382 C   0  0  1  0  0  0  0  0  0  0  0  0
    7.8122  -14.6364   21.5327 C   0  0  0  0  0  0  0  0  0  0  0  0
    8.6435  -14.4799   20.3157 C   0  0  0  0  0  0  0  0  0  0  0  0
    7.9235  -13.8009   19.1746 C   0  0  0  0  0  0  0  0  0  0  0  0
    8.7670  -13.7736   17.9156 C   0  0  0  0  0  0  0  0  0  0  0  0
    7.9596  -13.1057   16.8914 N   0  0  0  0  0  0  0  0  0  0  0  0
    9.5240  -15.8736   22.8663 C   0  0  0  0  0  0  0  0  0  0  0  0
    9.8121  -15.2431   23.9497 O   0  0  0  0  0  0  0  0  0  0  0  0
   10.6038  -16.5558   22.2628 N   0  0  0  0  0  0  0  0  0  0  0  0
   10.4832  -17.2602   20.9620 C   0  0  0  0  0  0  0  0  0  0  0  0
   11.5707  -18.2923   20.9310 C   0  0  0  0  0  0  0  0  0  0  0  0
   12.1627  -18.2516   22.3216 C   0  0  0  0  0  0  0  0  0  0  0  0
   11.9795  -16.7534   22.6306 C   0  0  1  0  0  0  0  0  0  0  0  0
   12.9117  -16.0226   21.7505 C   0  0  0  0  0  0  0  0  0  0  0  0
   12.7121  -15.9676   20.5150 O   0  0  0  0  0  0  0  0  0  0  0  0
   14.0154  -15.3872   22.2527 O   0  0  0  0  0  0  0  0  0  0  0  0
  2  1  1  1
  3  2  1  0
  4  3  1  0
  4  9  1  0
  5  4  2  0
  6  5  1  0
  6  7  2  0
  7  8  1  0
  8  9  2  0
 10  2  1  0
 10 11  2  0
 12 10  1  0
 13 12  1  0
 13 14  1  6
 15 14  1  0
 16 15  1  0
 17 16  1  0
 18 17  1  0
 19 13  1  0
 20 19  2  0
 21 25  1  0
 21 19  1  0
 22 21  1  0
 23 22  1  0
 23 24  1  0
 24 25  1  0
 25 26  1  6
 26 27  2  0
 26 28  1  0
M  END
$$$$
