WHK.pdb
     RDKit          3D

 34 36  0  0  1  0  0  0  0  0999 V2000
    6.5868  -17.1720   20.7892 N   0  0  0  0  0  0  0  0  0  0  0  0
    7.3466  -16.2510   21.6089 C   0  0  1  0  0  0  0  0  0  0  0  0
    6.5763  -15.6378   22.7128 C   0  0  0  0  0  0  0  0  0  0  0  0
    7.0640  -14.4108   23.3211 C   0  0  0  0  0  0  0  0  0  0  0  0
    7.6106  -13.3796   22.5276 C   0  0  0  0  0  0  0  0  0  0  0  0
    7.9691  -12.3760   23.3151 N   0  0  0  0  0  0  0  0  0  0  0  0
    7.7021  -12.6536   24.6051 C   0  0  0  0  0  0  0  0  0  0  0  0
    7.8867  -11.9489   25.7753 C   0  0  0  0  0  0  0  0  0  0  0  0
    7.5005  -12.5229   26.9704 C   0  0  0  0  0  0  0  0  0  0  0  0
    6.9379  -13.7903   26.9664 C   0  0  0  0  0  0  0  0  0  0  0  0
    6.7491  -14.5036   25.7986 C   0  0  0  0  0  0  0  0  0  0  0  0
    7.1314  -13.9374   24.6071 C   0  0  0  0  0  0  0  0  0  0  0  0
    8.4579  -17.0699   22.2730 C   0  0  0  0  0  0  0  0  0  0  0  0
    8.1650  -18.2133   22.6503 O   0  0  0  0  0  0  0  0  0  0  0  0
    9.7601  -16.5701   22.4585 N   0  0  0  0  0  0  0  0  0  0  0  0
   10.8141  -17.3112   23.0784 C   0  0  1  0  0  0  0  0  0  0  0  0
   12.0764  -17.3323   22.3163 C   0  0  0  0  0  0  0  0  0  0  0  0
   12.0640  -17.9790   21.0012 C   0  0  0  0  0  0  0  0  0  0  0  0
   11.3388  -18.9710   20.4248 C   0  0  0  0  0  0  0  0  0  0  0  0
   11.7315  -19.1559   19.1550 N   0  0  0  0  0  0  0  0  0  0  0  0
   12.7068  -18.2771   18.9303 C   0  0  0  0  0  0  0  0  0  0  0  0
   12.9291  -17.5566   20.0191 N   0  0  0  0  0  0  0  0  0  0  0  0
   11.0937  -16.8273   24.4693 C   0  0  0  0  0  0  0  0  0  0  0  0
   12.0246  -16.0113   24.6292 O   0  0  0  0  0  0  0  0  0  0  0  0
   10.3602  -17.2456   25.6019 N   0  0  0  0  0  0  0  0  0  0  0  0
   11.0156  -17.6299   26.8714 C   0  0  1  0  0  0  0  0  0  0  0  0
   10.3091  -18.8253   27.4481 C   0  0  0  0  0  0  0  0  0  0  0  0
   10.9925  -19.3153   28.6741 C   0  0  0  0  0  0  0  0  0  0  0  0
   10.2413  -20.4677   29.3332 C   0  0  0  0  0  0  0  0  0  0  0  0
   10.8587  -20.8464   30.6458 C   0  0  0  0  0  0  0  0  0  0  0  0
   10.1605  -22.0084   31.1911 N   0  0  0  0  0  0  0  0  0  0  0  0
   12.3939  -17.9735   26.5116 C   0  0  0  0  0  0  0  0  0  0  0  0
   13.4621  -17.4822   27.2138 O   0  0  0  0  0  0  0  0  0  0  0  0
   12.6423  -18.7293   25.5435 O   0  0  0  0  0  0  0  0  0  0  0  0
  2  1  1  1
  2  3  1  0
  4  5  2  0
  4  3  1  0
  6  5  1  0
  7 12  2  0
  7  6  1  0
  8  7  1  0
  9 10  1  0
  9  8  2  0
 10 11  2  0
 11 12  1  0
 12  4  1  0
 13  2  1  0
 14 13  2  0
 15 13  1  0
 16 17  1  6
 16 15  1  0
 17 18  1  0
 18 22  1  0
 19 18  2  0
 19 20  1  0
 20 21  1  0
 22 21  2  0
 23 24  2  0
 23 16  1  0
 25 23  1  0
 26 27  1  6
 26 25  1  0
 27 28  1  0
 29 28  1  0
 30 29  1  0
 31 30  1  0
 32 26  1  0
 33 32  1  0
 34 32  2  0
M  END
$$$$
