WHK.pdb
     RDKit          3D

 34 36  0  0  1  0  0  0  0  0999 V2000
    5.6982  -17.1139   23.1000 N   0  0  0  0  0  0  0  0  0  0  0  0
    6.7718  -16.1421   23.0850 C   0  0  1  0  0  0  0  0  0  0  0  0
    7.4656  -15.9784   24.3810 C   0  0  0  0  0  0  0  0  0  0  0  0
    6.8886  -15.1031   25.3882 C   0  0  0  0  0  0  0  0  0  0  0  0
    5.8947  -15.5760   26.2716 C   0  0  0  0  0  0  0  0  0  0  0  0
    5.5452  -14.5941   27.0899 N   0  0  0  0  0  0  0  0  0  0  0  0
    6.2392  -13.4717   26.8236 C   0  0  0  0  0  0  0  0  0  0  0  0
    6.2368  -12.2112   27.3813 C   0  0  0  0  0  0  0  0  0  0  0  0
    7.0867  -11.2509   26.8691 C   0  0  0  0  0  0  0  0  0  0  0  0
    7.9201  -11.5750   25.8093 C   0  0  0  0  0  0  0  0  0  0  0  0
    7.9292  -12.8355   25.2443 C   0  0  0  0  0  0  0  0  0  0  0  0
    7.0859  -13.7944   25.7500 C   0  0  0  0  0  0  0  0  0  0  0  0
    7.8253  -16.6680   22.1052 C   0  0  0  0  0  0  0  0  0  0  0  0
    7.4560  -17.5234   21.2882 O   0  0  0  0  0  0  0  0  0  0  0  0
    9.1583  -16.2174   22.1115 N   0  0  0  0  0  0  0  0  0  0  0  0
   10.1304  -16.6002   21.1354 C   0  0  1  0  0  0  0  0  0  0  0  0
    9.7077  -16.3927   19.7380 C   0  0  0  0  0  0  0  0  0  0  0  0
    9.0280  -15.1352   19.4145 C   0  0  0  0  0  0  0  0  0  0  0  0
    9.3852  -13.8259   19.3997 C   0  0  0  0  0  0  0  0  0  0  0  0
    8.3566  -13.0684   18.9884 N   0  0  0  0  0  0  0  0  0  0  0  0
    7.3484  -13.9031   18.7427 C   0  0  0  0  0  0  0  0  0  0  0  0
    7.7204  -15.1502   18.9888 N   0  0  0  0  0  0  0  0  0  0  0  0
   11.4430  -15.9101   21.3541 C   0  0  0  0  0  0  0  0  0  0  0  0
   11.4839  -14.6709   21.2108 O   0  0  0  0  0  0  0  0  0  0  0  0
   12.6292  -16.5881   21.7132 N   0  0  0  0  0  0  0  0  0  0  0  0
   13.1077  -16.6592   23.1114 C   0  0  1  0  0  0  0  0  0  0  0  0
   12.0277  -17.2542   23.9717 C   0  0  0  0  0  0  0  0  0  0  0  0
   12.4965  -17.4451   25.3696 C   0  0  0  0  0  0  0  0  0  0  0  0
   11.4165  -18.0442   26.2647 C   0  0  0  0  0  0  0  0  0  0  0  0
   11.9149  -18.2513   27.6634 C   0  0  0  0  0  0  0  0  0  0  0  0
   10.8686  -18.8882   28.4601 N   0  0  0  0  0  0  0  0  0  0  0  0
   14.2799  -17.5380   23.0794 C   0  0  0  0  0  0  0  0  0  0  0  0
   15.3439  -17.3451   23.9198 O   0  0  0  0  0  0  0  0  0  0  0  0
   14.3493  -18.4976   22.2768 O   0  0  0  0  0  0  0  0  0  0  0  0
  2  1  1  1
  2  3  1  0
  4  5  2  0
  4  3  1  0
  6  5  1  0
  7 12  2  0
  7  6  1  0
  8  7  1  0
  9 10  1  0
  9  8  2  0
 10 11  2  0
 11 12  1  0
 12  4  1  0
 13  2  1  0
 14 13  2  0
 15 13  1  0
 16 17  1  6
 16 15  1  0
 17 18  1  0
 18 22  1  0
 19 18  2  0
 19 20  1  0
 20 21  1  0
 22 21  2  0
 23 24  2  0
 23 16  1  0
 25 23  1  0
 26 27  1  1
 26 25  1  0
 27 28  1  0
 29 28  1  0
 30 29  1  0
 31 30  1  0
 32 26  1  0
 33 32  1  0
 34 32  2  0
M  END
$$$$
