WHK.pdb
     RDKit          3D

 34 36  0  0  1  0  0  0  0  0999 V2000
    6.1368  -17.6979   23.5082 N   0  0  0  0  0  0  0  0  0  0  0  0
    6.8590  -16.4437   23.4551 C   0  0  1  0  0  0  0  0  0  0  0  0
    7.4461  -16.0220   24.7456 C   0  0  0  0  0  0  0  0  0  0  0  0
    6.8378  -14.9212   25.4749 C   0  0  0  0  0  0  0  0  0  0  0  0
    5.7537  -15.1467   26.3497 C   0  0  0  0  0  0  0  0  0  0  0  0
    5.3924  -13.9928   26.8920 N   0  0  0  0  0  0  0  0  0  0  0  0
    6.1633  -12.9845   26.4433 C   0  0  0  0  0  0  0  0  0  0  0  0
    6.1829  -11.6306   26.7011 C   0  0  0  0  0  0  0  0  0  0  0  0
    7.1200  -10.8413   26.0641 C   0  0  0  0  0  0  0  0  0  0  0  0
    8.0167  -11.4263   25.1828 C   0  0  0  0  0  0  0  0  0  0  0  0
    8.0043  -12.7821   24.9185 C   0  0  0  0  0  0  0  0  0  0  0  0
    7.0744  -13.5717   25.5494 C   0  0  0  0  0  0  0  0  0  0  0  0
    8.0402  -16.6581   22.5036 C   0  0  0  0  0  0  0  0  0  0  0  0
    8.2561  -17.8191   22.1280 O   0  0  0  0  0  0  0  0  0  0  0  0
    8.8585  -15.6025   22.0612 N   0  0  0  0  0  0  0  0  0  0  0  0
    9.9224  -15.7635   21.1196 C   0  0  1  0  0  0  0  0  0  0  0  0
   10.0550  -14.6584   20.1524 C   0  0  0  0  0  0  0  0  0  0  0  0
    9.0144  -14.5240   19.1290 C   0  0  0  0  0  0  0  0  0  0  0  0
    7.9044  -15.2272   18.7891 C   0  0  0  0  0  0  0  0  0  0  0  0
    7.2760  -14.6351   17.7617 N   0  0  0  0  0  0  0  0  0  0  0  0
    7.9920  -13.5552   17.4538 C   0  0  0  0  0  0  0  0  0  0  0  0
    9.0412  -13.4613   18.2566 N   0  0  0  0  0  0  0  0  0  0  0  0
   11.2417  -15.9764   21.7988 C   0  0  0  0  0  0  0  0  0  0  0  0
   12.0823  -15.0552   21.7465 O   0  0  0  0  0  0  0  0  0  0  0  0
   11.5791  -17.1603   22.4918 N   0  0  0  0  0  0  0  0  0  0  0  0
   12.8492  -17.3066   23.2363 C   0  0  1  0  0  0  0  0  0  0  0  0
   12.6857  -18.3723   24.2842 C   0  0  0  0  0  0  0  0  0  0  0  0
   11.6640  -17.9844   25.2922 C   0  0  0  0  0  0  0  0  0  0  0  0
   11.3590  -19.1143   26.2705 C   0  0  0  0  0  0  0  0  0  0  0  0
   10.3094  -18.7131   27.2630 C   0  0  0  0  0  0  0  0  0  0  0  0
   10.0478  -19.8301   28.1680 N   0  0  0  0  0  0  0  0  0  0  0  0
   13.8419  -17.7163   22.2393 C   0  0  0  0  0  0  0  0  0  0  0  0
   15.1819  -17.7235   22.5223 O   0  0  0  0  0  0  0  0  0  0  0  0
   13.4967  -18.0726   21.0886 O   0  0  0  0  0  0  0  0  0  0  0  0
  2  1  1  1
  2  3  1  0
  4  5  2  0
  4  3  1  0
  6  5  1  0
  7 12  2  0
  7  6  1  0
  8  7  1  0
  9 10  1  0
  9  8  2  0
 10 11  2  0
 11 12  1  0
 12  4  1  0
 13  2  1  0
 14 13  2  0
 15 13  1  0
 16 17  1  1
 16 15  1  0
 17 18  1  0
 18 22  1  0
 19 18  2  0
 19 20  1  0
 20 21  1  0
 22 21  2  0
 23 24  2  0
 23 16  1  0
 25 23  1  0
 26 27  1  1
 26 25  1  0
 27 28  1  0
 29 28  1  0
 30 29  1  0
 31 30  1  0
 32 26  1  0
 33 32  1  0
 34 32  2  0
M  END
$$$$
