WHK.pdb
     RDKit          3D

 34 36  0  0  1  0  0  0  0  0999 V2000
    5.9618  -16.9467   23.2006 N   0  0  0  0  0  0  0  0  0  0  0  0
    7.1773  -16.3424   22.6959 C   0  0  1  0  0  0  0  0  0  0  0  0
    8.0679  -15.7958   23.7428 C   0  0  0  0  0  0  0  0  0  0  0  0
    7.4826  -15.1202   24.8892 C   0  0  0  0  0  0  0  0  0  0  0  0
    6.5397  -15.7758   25.7094 C   0  0  0  0  0  0  0  0  0  0  0  0
    6.1707  -14.9539   26.6811 N   0  0  0  0  0  0  0  0  0  0  0  0
    6.8032  -13.7698   26.5799 C   0  0  0  0  0  0  0  0  0  0  0  0
    6.7598  -12.6145   27.3304 C   0  0  0  0  0  0  0  0  0  0  0  0
    7.5479  -11.5437   26.9573 C   0  0  0  0  0  0  0  0  0  0  0  0
    8.3621  -11.6544   25.8403 C   0  0  0  0  0  0  0  0  0  0  0  0
    8.4120  -12.8083   25.0825 C   0  0  0  0  0  0  0  0  0  0  0  0
    7.6302  -13.8763   25.4492 C   0  0  0  0  0  0  0  0  0  0  0  0
    7.9691  -17.4592   22.0084 C   0  0  0  0  0  0  0  0  0  0  0  0
    7.5974  -18.6227   22.2174 O   0  0  0  0  0  0  0  0  0  0  0  0
    9.0722  -17.2028   21.1734 N   0  0  0  0  0  0  0  0  0  0  0  0
    9.8091  -15.9775   21.1852 C   0  0  1  0  0  0  0  0  0  0  0  0
    8.9740  -14.7622   21.1947 C   0  0  0  0  0  0  0  0  0  0  0  0
    8.4120  -14.3153   19.9170 C   0  0  0  0  0  0  0  0  0  0  0  0
    7.5563  -13.3337   19.5344 C   0  0  0  0  0  0  0  0  0  0  0  0
    7.3971  -13.3496   18.2020 N   0  0  0  0  0  0  0  0  0  0  0  0
    8.1553  -14.3440   17.7436 C   0  0  0  0  0  0  0  0  0  0  0  0
    8.7767  -14.9422   18.7486 N   0  0  0  0  0  0  0  0  0  0  0  0
   10.7711  -15.9156   22.3331 C   0  0  0  0  0  0  0  0  0  0  0  0
   11.5037  -14.9097   22.4293 O   0  0  0  0  0  0  0  0  0  0  0  0
   10.8889  -16.9326   23.3066 N   0  0  0  0  0  0  0  0  0  0  0  0
   11.6472  -16.7417   24.5625 C   0  0  1  0  0  0  0  0  0  0  0  0
   10.8188  -17.2322   25.7173 C   0  0  0  0  0  0  0  0  0  0  0  0
   11.6078  -17.2498   26.9773 C   0  0  0  0  0  0  0  0  0  0  0  0
   10.8905  -16.5359   28.1185 C   0  0  0  0  0  0  0  0  0  0  0  0
   11.6855  -16.5933   29.3882 C   0  0  0  0  0  0  0  0  0  0  0  0
   10.9399  -15.9305   30.4559 N   0  0  0  0  0  0  0  0  0  0  0  0
   12.8566  -17.5563   24.4168 C   0  0  0  0  0  0  0  0  0  0  0  0
   13.0102  -18.4320   23.3751 O   0  0  0  0  0  0  0  0  0  0  0  0
   13.7933  -17.4805   25.2455 O   0  0  0  0  0  0  0  0  0  0  0  0
  2  1  1  1
  2  3  1  0
  4  5  2  0
  4  3  1  0
  6  5  1  0
  7 12  2  0
  7  6  1  0
  8  7  1  0
  9 10  1  0
  9  8  2  0
 10 11  2  0
 11 12  1  0
 12  4  1  0
 13  2  1  0
 14 13  2  0
 15 13  1  0
 16 17  1  1
 16 15  1  0
 17 18  1  0
 18 22  1  0
 19 18  2  0
 19 20  1  0
 20 21  1  0
 22 21  2  0
 23 24  2  0
 23 16  1  0
 25 23  1  0
 26 27  1  1
 26 25  1  0
 27 28  1  0
 29 28  1  0
 30 29  1  0
 31 30  1  0
 32 26  1  0
 33 32  1  0
 34 32  2  0
M  END
$$$$
