SFK.pdb
     RDKit          3D

 27 27  0  0  1  0  0  0  0  0999 V2000
    8.9002  -19.8120   22.1040 O   0  0  0  0  0  0  0  0  0  0  0  0
    7.5577  -19.6436   21.7758 C   0  0  0  0  0  0  0  0  0  0  0  0
    7.3446  -18.2514   21.1811 C   0  0  2  0  0  0  0  0  0  0  0  0
    7.9896  -18.1389   19.9133 N   0  0  0  0  0  0  0  0  0  0  0  0
    7.7700  -17.2001   22.1426 C   0  0  0  0  0  0  0  0  0  0  0  0
    8.8351  -16.5553   21.9494 O   0  0  0  0  0  0  0  0  0  0  0  0
    7.0157  -16.8751   23.3023 N   0  0  0  0  0  0  0  0  0  0  0  0
    7.4894  -15.8740   24.2048 C   0  0  1  0  0  0  0  0  0  0  0  0
    6.3885  -15.3091   25.0812 C   0  0  0  0  0  0  0  0  0  0  0  0
    6.8345  -14.1482   25.8728 C   0  0  0  0  0  0  0  0  0  0  0  0
    6.9635  -12.8786   25.3442 C   0  0  0  0  0  0  0  0  0  0  0  0
    7.3880  -11.8078   26.1246 C   0  0  0  0  0  0  0  0  0  0  0  0
    7.6969  -11.9725   27.4580 C   0  0  0  0  0  0  0  0  0  0  0  0
    7.5694  -13.2383   27.9893 C   0  0  0  0  0  0  0  0  0  0  0  0
    7.1480  -14.2948   27.2094 C   0  0  0  0  0  0  0  0  0  0  0  0
    8.4924  -16.4607   25.1273 C   0  0  0  0  0  0  0  0  0  0  0  0
    8.1892  -17.5050   25.7458 O   0  0  0  0  0  0  0  0  0  0  0  0
    9.7753  -15.8903   25.3367 N   0  0  0  0  0  0  0  0  0  0  0  0
   10.8457  -16.5842   26.0695 C   0  0  1  0  0  0  0  0  0  0  0  0
   12.1811  -16.0958   25.6390 C   0  0  0  0  0  0  0  0  0  0  0  0
   12.8126  -17.0264   24.6585 C   0  0  0  0  0  0  0  0  0  0  0  0
   13.6731  -16.2672   23.6465 C   0  0  0  0  0  0  0  0  0  0  0  0
   14.3339  -17.2088   22.6695 C   0  0  0  0  0  0  0  0  0  0  0  0
   15.1809  -16.4820   21.7578 N   0  0  0  0  0  0  0  0  0  0  0  0
   10.6079  -16.3409   27.4894 C   0  0  0  0  0  0  0  0  0  0  0  0
    9.7388  -15.5489   27.8870 O   0  0  0  0  0  0  0  0  0  0  0  0
   11.3580  -16.9980   28.4458 O   0  0  0  0  0  0  0  0  0  0  0  0
  2  1  1  0
  3  2  1  0
  3  4  1  6
  5  3  1  0
  5  7  1  0
  6  5  2  0
  8  7  1  0
  8  9  1  1
 10  9  1  0
 10 15  2  0
 11 10  1  0
 12 11  2  0
 12 13  1  0
 13 14  2  0
 14 15  1  0
 16  8  1  0
 17 16  2  0
 18 16  1  0
 19 20  1  6
 19 18  1  0
 21 20  1  0
 22 21  1  0
 23 22  1  0
 24 23  1  0
 25 19  1  0
 26 25  2  0
 27 25  1  0
M  END
$$$$
