SFK.pdb
     RDKit          3D

 27 27  0  0  1  0  0  0  0  0999 V2000
    8.1733  -18.1099   20.7175 O   0  0  0  0  0  0  0  0  0  0  0  0
    7.0287  -17.3963   20.3726 C   0  0  0  0  0  0  0  0  0  0  0  0
    7.3590  -15.9061   20.2844 C   0  0  2  0  0  0  0  0  0  0  0  0
    8.2321  -15.6458   19.1863 N   0  0  0  0  0  0  0  0  0  0  0  0
    7.8942  -15.4104   21.5801 C   0  0  0  0  0  0  0  0  0  0  0  0
    9.1301  -15.2117   21.7230 O   0  0  0  0  0  0  0  0  0  0  0  0
    7.0598  -15.1412   22.6983 N   0  0  0  0  0  0  0  0  0  0  0  0
    7.6366  -14.7105   23.9324 C   0  0  1  0  0  0  0  0  0  0  0  0
    6.5935  -14.2973   24.9524 C   0  0  0  0  0  0  0  0  0  0  0  0
    7.1899  -13.7101   26.1660 C   0  0  0  0  0  0  0  0  0  0  0  0
    7.3382  -14.4086   27.3482 C   0  0  0  0  0  0  0  0  0  0  0  0
    7.9063  -13.8186   28.4730 C   0  0  0  0  0  0  0  0  0  0  0  0
    8.3440  -12.5116   28.4512 C   0  0  0  0  0  0  0  0  0  0  0  0
    8.1977  -11.8108   27.2728 C   0  0  0  0  0  0  0  0  0  0  0  0
    7.6336  -12.4026   26.1621 C   0  0  0  0  0  0  0  0  0  0  0  0
    8.3990  -15.8243   24.5484 C   0  0  0  0  0  0  0  0  0  0  0  0
    7.8907  -16.9674   24.5379 O   0  0  0  0  0  0  0  0  0  0  0  0
    9.6745  -15.6489   25.1462 N   0  0  0  0  0  0  0  0  0  0  0  0
   10.5330  -16.7777   25.5374 C   0  0  1  0  0  0  0  0  0  0  0  0
   11.9137  -16.5935   25.0204 C   0  0  0  0  0  0  0  0  0  0  0  0
   12.8280  -17.6653   25.5117 C   0  0  0  0  0  0  0  0  0  0  0  0
   13.8817  -18.0215   24.4612 C   0  0  0  0  0  0  0  0  0  0  0  0
   14.7705  -19.1466   24.9322 C   0  0  0  0  0  0  0  0  0  0  0  0
   15.8729  -19.3370   24.0238 N   0  0  0  0  0  0  0  0  0  0  0  0
   10.5012  -16.8434   26.9955 C   0  0  0  0  0  0  0  0  0  0  0  0
   10.6444  -17.9114   27.6116 O   0  0  0  0  0  0  0  0  0  0  0  0
   10.3073  -15.6971   27.7422 O   0  0  0  0  0  0  0  0  0  0  0  0
  2  1  1  0
  3  2  1  0
  3  4  1  6
  5  3  1  0
  5  7  1  0
  6  5  2  0
  8  7  1  0
  8  9  1  1
 10  9  1  0
 10 15  2  0
 11 10  1  0
 12 11  2  0
 12 13  1  0
 13 14  2  0
 14 15  1  0
 16  8  1  0
 17 16  2  0
 18 16  1  0
 19 20  1  1
 19 18  1  0
 21 20  1  0
 22 21  1  0
 23 22  1  0
 24 23  1  0
 25 19  1  0
 26 25  2  0
 27 25  1  0
M  END
$$$$
