SFK.pdb
     RDKit          3D

 27 27  0  0  1  0  0  0  0  0999 V2000
    7.9323  -16.3426   19.7775 O   0  0  0  0  0  0  0  0  0  0  0  0
    6.7918  -15.5539   19.9030 C   0  0  0  0  0  0  0  0  0  0  0  0
    7.1718  -14.1880   20.4750 C   0  0  2  0  0  0  0  0  0  0  0  0
    7.8225  -13.3896   19.4877 N   0  0  0  0  0  0  0  0  0  0  0  0
    7.9765  -14.3448   21.7155 C   0  0  0  0  0  0  0  0  0  0  0  0
    9.2158  -14.1185   21.7022 O   0  0  0  0  0  0  0  0  0  0  0  0
    7.4035  -14.7485   22.9517 N   0  0  0  0  0  0  0  0  0  0  0  0
    8.2151  -14.8198   24.1253 C   0  0  1  0  0  0  0  0  0  0  0  0
    7.4024  -14.7462   25.4033 C   0  0  0  0  0  0  0  0  0  0  0  0
    7.1299  -13.3592   25.8219 C   0  0  0  0  0  0  0  0  0  0  0  0
    8.1190  -12.4058   25.9657 C   0  0  0  0  0  0  0  0  0  0  0  0
    7.8213  -11.1061   26.3633 C   0  0  0  0  0  0  0  0  0  0  0  0
    6.5254  -10.7186   26.6296 C   0  0  0  0  0  0  0  0  0  0  0  0
    5.5353  -11.6674   26.4872 C   0  0  0  0  0  0  0  0  0  0  0  0
    5.8382  -12.9537   26.0927 C   0  0  0  0  0  0  0  0  0  0  0  0
    8.9313  -16.1186   24.1648 C   0  0  0  0  0  0  0  0  0  0  0  0
    8.2613  -17.1685   24.0469 O   0  0  0  0  0  0  0  0  0  0  0  0
   10.3375  -16.2200   24.3299 N   0  0  0  0  0  0  0  0  0  0  0  0
   11.0513  -17.5062   24.3097 C   0  0  1  0  0  0  0  0  0  0  0  0
   12.4551  -17.3227   23.8590 C   0  0  0  0  0  0  0  0  0  0  0  0
   13.1876  -18.6217   23.8122 C   0  0  0  0  0  0  0  0  0  0  0  0
   14.6459  -18.4226   23.3947 C   0  0  0  0  0  0  0  0  0  0  0  0
   15.3786  -19.7392   23.3080 C   0  0  0  0  0  0  0  0  0  0  0  0
   16.7720  -19.5261   23.0084 N   0  0  0  0  0  0  0  0  0  0  0  0
   10.9799  -18.0470   25.6639 C   0  0  0  0  0  0  0  0  0  0  0  0
   10.8510  -17.3177   26.6601 O   0  0  0  0  0  0  0  0  0  0  0  0
   11.0551  -19.4101   25.8765 O   0  0  0  0  0  0  0  0  0  0  0  0
  2  1  1  0
  3  2  1  0
  3  4  1  6
  5  3  1  0
  5  7  1  0
  6  5  2  0
  8  7  1  0
  8  9  1  1
 10  9  1  0
 10 15  2  0
 11 10  1  0
 12 11  2  0
 12 13  1  0
 13 14  2  0
 14 15  1  0
 16  8  1  0
 17 16  2  0
 18 16  1  0
 19 20  1  1
 19 18  1  0
 21 20  1  0
 22 21  1  0
 23 22  1  0
 24 23  1  0
 25 19  1  0
 26 25  2  0
 27 25  1  0
M  END
$$$$
