SFK.pdb
     RDKit          3D

 27 27  0  0  1  0  0  0  0  0999 V2000
    8.6940  -18.6382   20.4768 O   0  0  0  0  0  0  0  0  0  0  0  0
    7.9270  -17.6974   19.7949 C   0  0  0  0  0  0  0  0  0  0  0  0
    8.6935  -16.3777   19.7040 C   0  0  2  0  0  0  0  0  0  0  0  0
    9.9363  -16.5604   19.0273 N   0  0  0  0  0  0  0  0  0  0  0  0
    8.8516  -15.7696   21.0516 C   0  0  0  0  0  0  0  0  0  0  0  0
    9.9536  -15.8451   21.6578 O   0  0  0  0  0  0  0  0  0  0  0  0
    7.7935  -15.0876   21.7108 N   0  0  0  0  0  0  0  0  0  0  0  0
    7.9941  -14.5553   23.0214 C   0  0  1  0  0  0  0  0  0  0  0  0
    6.9161  -13.5672   23.4223 C   0  0  0  0  0  0  0  0  0  0  0  0
    7.1440  -12.9927   24.7606 C   0  0  0  0  0  0  0  0  0  0  0  0
    8.1247  -12.0561   25.0232 C   0  0  0  0  0  0  0  0  0  0  0  0
    8.3087  -11.5373   26.3011 C   0  0  0  0  0  0  0  0  0  0  0  0
    7.5181  -11.9387   27.3567 C   0  0  0  0  0  0  0  0  0  0  0  0
    6.5381  -12.8735   27.0987 C   0  0  0  0  0  0  0  0  0  0  0  0
    6.3618  -13.3830   25.8293 C   0  0  0  0  0  0  0  0  0  0  0  0
    7.9458  -15.6491   24.0226 C   0  0  0  0  0  0  0  0  0  0  0  0
    7.1209  -16.5738   23.8506 O   0  0  0  0  0  0  0  0  0  0  0  0
    8.7917  -15.6907   25.1618 N   0  0  0  0  0  0  0  0  0  0  0  0
    9.5465  -16.8923   25.5501 C   0  0  1  0  0  0  0  0  0  0  0  0
   10.6199  -17.1814   24.5643 C   0  0  0  0  0  0  0  0  0  0  0  0
   11.4004  -18.3941   24.9472 C   0  0  0  0  0  0  0  0  0  0  0  0
   12.5013  -18.6913   23.9273 C   0  0  0  0  0  0  0  0  0  0  0  0
   13.2849  -19.9242   24.3063 C   0  0  0  0  0  0  0  0  0  0  0  0
   14.3277  -20.1785   23.3448 N   0  0  0  0  0  0  0  0  0  0  0  0
   10.0849  -16.6370   26.8830 C   0  0  0  0  0  0  0  0  0  0  0  0
   10.0584  -17.4937   27.7808 O   0  0  0  0  0  0  0  0  0  0  0  0
   10.6486  -15.4125   27.1858 O   0  0  0  0  0  0  0  0  0  0  0  0
  2  1  1  0
  3  2  1  0
  3  4  1  1
  5  3  1  0
  5  7  1  0
  6  5  2  0
  8  7  1  0
  8  9  1  1
 10  9  1  0
 10 15  2  0
 11 10  1  0
 12 11  2  0
 12 13  1  0
 13 14  2  0
 14 15  1  0
 16  8  1  0
 17 16  2  0
 18 16  1  0
 19 20  1  6
 19 18  1  0
 21 20  1  0
 22 21  1  0
 23 22  1  0
 24 23  1  0
 25 19  1  0
 26 25  2  0
 27 25  1  0
M  END
$$$$
