SFK.pdb
     RDKit          3D

 27 27  0  0  1  0  0  0  0  0999 V2000
    8.6654  -18.4146   20.9325 O   0  0  0  0  0  0  0  0  0  0  0  0
    8.4424  -17.6005   19.8253 C   0  0  0  0  0  0  0  0  0  0  0  0
    9.2957  -16.3368   19.9362 C   0  0  2  0  0  0  0  0  0  0  0  0
   10.6236  -16.5811   19.4746 N   0  0  0  0  0  0  0  0  0  0  0  0
    9.2541  -15.7961   21.3207 C   0  0  0  0  0  0  0  0  0  0  0  0
   10.2189  -15.9889   22.1077 O   0  0  0  0  0  0  0  0  0  0  0  0
    8.1502  -15.0515   21.8170 N   0  0  0  0  0  0  0  0  0  0  0  0
    8.1870  -14.5173   23.1416 C   0  0  1  0  0  0  0  0  0  0  0  0
    7.0482  -13.5543   23.4153 C   0  0  0  0  0  0  0  0  0  0  0  0
    7.0646  -13.0355   24.7950 C   0  0  0  0  0  0  0  0  0  0  0  0
    6.1430  -13.4097   25.7534 C   0  0  0  0  0  0  0  0  0  0  0  0
    6.1918  -12.8971   27.0460 C   0  0  0  0  0  0  0  0  0  0  0  0
    7.1637  -11.9943   27.4212 C   0  0  0  0  0  0  0  0  0  0  0  0
    8.0856  -11.6183   26.4674 C   0  0  0  0  0  0  0  0  0  0  0  0
    8.0306  -12.1308   25.1882 C   0  0  0  0  0  0  0  0  0  0  0  0
    8.0483  -15.6138   24.1314 C   0  0  0  0  0  0  0  0  0  0  0  0
    7.1983  -16.5053   23.9129 O   0  0  0  0  0  0  0  0  0  0  0  0
    8.8354  -15.6939   25.3100 N   0  0  0  0  0  0  0  0  0  0  0  0
    9.1646  -16.9705   25.9629 C   0  0  1  0  0  0  0  0  0  0  0  0
    9.9947  -17.8200   25.0703 C   0  0  0  0  0  0  0  0  0  0  0  0
   10.3212  -19.1278   25.7102 C   0  0  0  0  0  0  0  0  0  0  0  0
   11.1905  -19.9925   24.7951 C   0  0  0  0  0  0  0  0  0  0  0  0
   11.5139  -21.3200   25.4360 C   0  0  0  0  0  0  0  0  0  0  0  0
   12.3094  -22.1313   24.5497 N   0  0  0  0  0  0  0  0  0  0  0  0
    9.8605  -16.6402   27.2031 C   0  0  0  0  0  0  0  0  0  0  0  0
    9.8547  -17.3989   28.1855 O   0  0  0  0  0  0  0  0  0  0  0  0
   10.5571  -15.4525   27.3182 O   0  0  0  0  0  0  0  0  0  0  0  0
  2  1  1  0
  3  2  1  0
  3  4  1  1
  5  3  1  0
  5  7  1  0
  6  5  2  0
  8  7  1  0
  8  9  1  6
 10  9  1  0
 10 15  2  0
 11 10  1  0
 12 11  2  0
 12 13  1  0
 13 14  2  0
 14 15  1  0
 16  8  1  0
 17 16  2  0
 18 16  1  0
 19 20  1  6
 19 18  1  0
 21 20  1  0
 22 21  1  0
 23 22  1  0
 24 23  1  0
 25 19  1  0
 26 25  2  0
 27 25  1  0
M  END
$$$$
