ECC.pdb
     RDKit          3D

 22 21  0  0  1  0  0  0  0  0999 V2000
   20.7789  -12.5566  -18.3799 N   0  0  0  0  0  0  0  0  0  0  0  0
   20.5457  -11.1744  -18.6795 C   0  0  1  0  0  0  0  0  0  0  0  0
   19.3784  -10.8800  -19.5520 C   0  0  0  0  0  0  0  0  0  0  0  0
   19.3756  -11.4313  -20.9212 C   0  0  0  0  0  0  0  0  0  0  0  0
   18.2437  -11.0902  -21.7890 C   0  0  0  0  0  0  0  0  0  0  0  0
   18.1522  -11.5285  -22.9500 O   0  0  0  0  0  0  0  0  0  0  0  0
   20.4949  -10.4238  -17.3926 C   0  0  0  0  0  0  0  0  0  0  0  0
   19.6227  -10.7271  -16.5441 O   0  0  0  0  0  0  0  0  0  0  0  0
   17.2058  -10.2531  -21.3573 O   0  0  0  0  0  0  0  0  0  0  0  0
   21.3795   -9.3812  -17.0681 N   0  0  0  0  0  0  0  0  0  0  0  0
   21.3252   -8.6212  -15.8099 C   0  0  1  0  0  0  0  0  0  0  0  0
   22.5504   -9.1162  -15.0347 C   0  0  0  0  0  0  0  0  0  0  0  0
   22.4790   -8.7641  -13.2839 S   0  0  0  0  0  0  0  0  0  0  0  0
   21.5021   -7.1821  -16.0575 C   0  0  0  0  0  0  0  0  0  0  0  0
   22.3606   -6.8388  -16.9339 O   0  0  0  0  0  0  0  0  0  0  0  0
   20.8160   -6.1362  -15.4238 N   0  0  0  0  0  0  0  0  0  0  0  0
   21.0014   -4.7292  -15.7516 C   0  0  1  0  0  0  0  0  0  0  0  0
   19.6605   -4.0262  -15.9215 C   0  0  0  0  0  0  0  0  0  0  0  0
   19.9452   -2.2510  -16.0648 S   0  0  0  0  0  0  0  0  0  0  0  0
   21.6808   -4.1014  -14.5874 C   0  0  0  0  0  0  0  0  0  0  0  0
   22.5634   -3.0402  -14.7192 O   0  0  0  0  0  0  0  0  0  0  0  0
   21.4560   -4.5374  -13.4423 O   0  0  0  0  0  0  0  0  0  0  0  0
  2  1  1  1
  2  3  1  0
  3  4  1  0
  4  5  1  0
  5  9  1  0
  6  5  2  0
  7  2  1  0
  8  7  2  0
 10  7  1  0
 11 10  1  0
 11 14  1  0
 11 12  1  1
 13 12  1  0
 14 15  2  0
 14 16  1  0
 16 17  1  0
 17 20  1  0
 17 18  1  1
 19 18  1  0
 20 22  2  0
 20 21  1  0
M  END
$$$$
