ECC.pdb
     RDKit          3D

 22 21  0  0  1  0  0  0  0  0999 V2000
   28.1791  -21.7222  -15.9903 N   0  0  0  0  0  0  0  0  0  0  0  0
   27.7805  -20.6852  -15.0847 C   0  0  1  0  0  0  0  0  0  0  0  0
   27.3571  -19.4011  -15.7029 C   0  0  0  0  0  0  0  0  0  0  0  0
   28.3250  -18.6877  -16.5591 C   0  0  0  0  0  0  0  0  0  0  0  0
   28.0164  -18.5780  -17.9885 C   0  0  0  0  0  0  0  0  0  0  0  0
   28.7809  -17.9997  -18.7818 O   0  0  0  0  0  0  0  0  0  0  0  0
   26.7438  -21.2426  -14.1700 C   0  0  0  0  0  0  0  0  0  0  0  0
   25.9378  -22.0965  -14.6104 O   0  0  0  0  0  0  0  0  0  0  0  0
   26.8451  -19.1184  -18.5366 O   0  0  0  0  0  0  0  0  0  0  0  0
   26.6139  -20.8632  -12.8230 N   0  0  0  0  0  0  0  0  0  0  0  0
   25.5067  -21.2901  -11.9538 C   0  0  1  0  0  0  0  0  0  0  0  0
   25.9262  -20.7979  -10.5650 C   0  0  0  0  0  0  0  0  0  0  0  0
   24.6572  -20.9972   -9.3223 S   0  0  0  0  0  0  0  0  0  0  0  0
   24.2587  -20.6010  -12.3161 C   0  0  0  0  0  0  0  0  0  0  0  0
   24.2949  -19.3308  -12.4067 O   0  0  0  0  0  0  0  0  0  0  0  0
   23.0192  -21.2026  -12.5768 N   0  0  0  0  0  0  0  0  0  0  0  0
   21.7931  -20.4573  -12.8269 C   0  0  1  0  0  0  0  0  0  0  0  0
   21.2228  -20.7882  -14.2004 C   0  0  0  0  0  0  0  0  0  0  0  0
   22.4752  -20.4439  -15.4518 S   0  0  0  0  0  0  0  0  0  0  0  0
   20.7992  -20.9119  -11.8187 C   0  0  0  0  0  0  0  0  0  0  0  0
   19.6588  -20.1852  -11.5120 O   0  0  0  0  0  0  0  0  0  0  0  0
   20.9873  -21.9874  -11.2189 O   0  0  0  0  0  0  0  0  0  0  0  0
  2  1  1  6
  2  3  1  0
  3  4  1  0
  4  5  1  0
  5  9  1  0
  6  5  2  0
  7  2  1  0
  8  7  2  0
 10  7  1  0
 11 10  1  0
 11 14  1  0
 11 12  1  1
 13 12  1  0
 14 15  2  0
 14 16  1  0
 16 17  1  0
 17 20  1  0
 17 18  1  6
 19 18  1  0
 20 22  2  0
 20 21  1  0
M  END
$$$$
