ECC.pdb
     RDKit          3D

 22 21  0  0  1  0  0  0  0  0999 V2000
   19.7585  -13.7629  -16.5669 N   0  0  0  0  0  0  0  0  0  0  0  0
   19.4576  -12.5300  -17.2330 C   0  0  1  0  0  0  0  0  0  0  0  0
   18.1738  -12.4849  -17.9817 C   0  0  0  0  0  0  0  0  0  0  0  0
   18.0151  -13.3778  -19.1464 C   0  0  0  0  0  0  0  0  0  0  0  0
   16.7651  -13.2862  -19.9077 C   0  0  0  0  0  0  0  0  0  0  0  0
   15.8501  -12.5112  -19.5754 O   0  0  0  0  0  0  0  0  0  0  0  0
   19.5720  -11.4261  -16.2378 C   0  0  0  0  0  0  0  0  0  0  0  0
   19.0411  -11.5645  -15.1102 O   0  0  0  0  0  0  0  0  0  0  0  0
   16.5348  -14.0661  -21.0493 O   0  0  0  0  0  0  0  0  0  0  0  0
   20.2500  -10.2214  -16.4912 N   0  0  0  0  0  0  0  0  0  0  0  0
   20.2989   -9.0937  -15.5481 C   0  0  1  0  0  0  0  0  0  0  0  0
   21.7949   -8.7855  -15.4294 C   0  0  0  0  0  0  0  0  0  0  0  0
   22.1508   -7.3399  -14.4403 S   0  0  0  0  0  0  0  0  0  0  0  0
   19.6396   -7.9068  -16.1140 C   0  0  0  0  0  0  0  0  0  0  0  0
   19.9166   -7.6006  -17.3192 O   0  0  0  0  0  0  0  0  0  0  0  0
   18.7266   -7.0680  -15.4590 N   0  0  0  0  0  0  0  0  0  0  0  0
   18.0971   -5.9117  -16.0821 C   0  0  1  0  0  0  0  0  0  0  0  0
   16.5822   -6.0689  -16.1211 C   0  0  0  0  0  0  0  0  0  0  0  0
   16.1681   -7.4866  -17.1563 S   0  0  0  0  0  0  0  0  0  0  0  0
   18.3938   -4.7404  -15.2154 C   0  0  0  0  0  0  0  0  0  0  0  0
   17.9609   -3.4581  -15.5168 O   0  0  0  0  0  0  0  0  0  0  0  0
   19.0570   -4.9050  -14.1738 O   0  0  0  0  0  0  0  0  0  0  0  0
  2  1  1  1
  2  3  1  0
  3  4  1  0
  4  5  1  0
  5  9  1  0
  6  5  2  0
  7  2  1  0
  8  7  2  0
 10  7  1  0
 11 10  1  0
 11 14  1  0
 11 12  1  6
 13 12  1  0
 14 15  2  0
 14 16  1  0
 16 17  1  0
 17 20  1  0
 17 18  1  1
 19 18  1  0
 20 22  2  0
 20 21  1  0
M  END
$$$$
