ECC.pdb
     RDKit          3D

 22 21  0  0  1  0  0  0  0  0999 V2000
   18.3393  -13.0286  -17.4424 N   0  0  0  0  0  0  0  0  0  0  0  0
   18.0642  -11.7695  -16.8150 C   0  0  1  0  0  0  0  0  0  0  0  0
   17.2911  -11.8237  -15.5462 C   0  0  0  0  0  0  0  0  0  0  0  0
   15.8356  -12.0552  -15.6268 C   0  0  0  0  0  0  0  0  0  0  0  0
   15.0562  -11.9190  -14.3921 C   0  0  0  0  0  0  0  0  0  0  0  0
   14.7820  -10.8055  -13.9092 O   0  0  0  0  0  0  0  0  0  0  0  0
   19.3534  -11.0369  -16.6621 C   0  0  0  0  0  0  0  0  0  0  0  0
   20.4085  -11.6906  -16.4830 O   0  0  0  0  0  0  0  0  0  0  0  0
   14.5790  -13.0349  -13.6910 O   0  0  0  0  0  0  0  0  0  0  0  0
   19.4590   -9.6363  -16.7077 N   0  0  0  0  0  0  0  0  0  0  0  0
   20.7184   -8.9019  -16.5124 C   0  0  1  0  0  0  0  0  0  0  0  0
   21.1196   -8.4872  -17.9316 C   0  0  0  0  0  0  0  0  0  0  0  0
   20.1068   -9.2260  -19.2056 S   0  0  0  0  0  0  0  0  0  0  0  0
   20.4953   -7.6748  -15.7325 C   0  0  0  0  0  0  0  0  0  0  0  0
   19.4612   -6.9840  -16.0087 O   0  0  0  0  0  0  0  0  0  0  0  0
   21.3103   -7.1806  -14.7040 N   0  0  0  0  0  0  0  0  0  0  0  0
   21.0229   -5.9647  -13.9554 C   0  0  1  0  0  0  0  0  0  0  0  0
   21.4941   -6.0872  -12.5118 C   0  0  0  0  0  0  0  0  0  0  0  0
   20.5637   -7.4036  -11.7029 S   0  0  0  0  0  0  0  0  0  0  0  0
   21.8151   -4.8744  -14.5838 C   0  0  0  0  0  0  0  0  0  0  0  0
   21.6524   -3.5401  -14.2439 O   0  0  0  0  0  0  0  0  0  0  0  0
   22.6621   -5.1586  -15.4519 O   0  0  0  0  0  0  0  0  0  0  0  0
  2  1  1  1
  2  3  1  0
  3  4  1  0
  4  5  1  0
  5  9  1  0
  6  5  2  0
  7  2  1  0
  8  7  2  0
 10  7  1  0
 11 10  1  0
 11 14  1  0
 11 12  1  6
 13 12  1  0
 14 15  2  0
 14 16  1  0
 16 17  1  0
 17 20  1  0
 17 18  1  1
 19 18  1  0
 20 22  2  0
 20 21  1  0
M  END
$$$$
