ECC.pdb
     RDKit          3D

 22 21  0  0  1  0  0  0  0  0999 V2000
   27.9603  -22.3460  -15.8376 N   0  0  0  0  0  0  0  0  0  0  0  0
   27.7900  -21.2174  -14.9705 C   0  0  1  0  0  0  0  0  0  0  0  0
   27.7153  -19.8877  -15.6314 C   0  0  0  0  0  0  0  0  0  0  0  0
   27.1107  -19.8110  -16.9757 C   0  0  0  0  0  0  0  0  0  0  0  0
   27.9771  -19.4099  -18.0889 C   0  0  0  0  0  0  0  0  0  0  0  0
   27.7917  -18.3510  -18.7155 O   0  0  0  0  0  0  0  0  0  0  0  0
   26.6140  -21.4809  -14.0932 C   0  0  0  0  0  0  0  0  0  0  0  0
   25.6283  -22.0971  -14.5638 O   0  0  0  0  0  0  0  0  0  0  0  0
   29.0591  -20.1973  -18.5057 O   0  0  0  0  0  0  0  0  0  0  0  0
   26.5427  -21.0744  -12.7498 N   0  0  0  0  0  0  0  0  0  0  0  0
   25.3725  -21.2963  -11.8867 C   0  0  1  0  0  0  0  0  0  0  0  0
   25.8049  -20.7191  -10.5350 C   0  0  0  0  0  0  0  0  0  0  0  0
   27.3229  -21.4247   -9.9089 S   0  0  0  0  0  0  0  0  0  0  0  0
   24.2170  -20.5179  -12.3582 C   0  0  0  0  0  0  0  0  0  0  0  0
   24.4484  -19.5405  -13.1418 O   0  0  0  0  0  0  0  0  0  0  0  0
   22.8715  -20.7422  -12.0330 N   0  0  0  0  0  0  0  0  0  0  0  0
   21.7584  -20.4018  -12.9086 C   0  0  1  0  0  0  0  0  0  0  0  0
   21.8088  -21.2129  -14.1973 C   0  0  0  0  0  0  0  0  0  0  0  0
   21.2798  -20.1663  -15.5677 S   0  0  0  0  0  0  0  0  0  0  0  0
   20.5137  -20.7913  -12.1944 C   0  0  0  0  0  0  0  0  0  0  0  0
   19.3111  -20.1235  -12.3687 O   0  0  0  0  0  0  0  0  0  0  0  0
   20.5396  -21.7547  -11.4050 O   0  0  0  0  0  0  0  0  0  0  0  0
  2  1  1  6
  2  3  1  0
  3  4  1  0
  4  5  1  0
  5  9  1  0
  6  5  2  0
  7  2  1  0
  8  7  2  0
 10  7  1  0
 11 10  1  0
 11 14  1  0
 11 12  1  1
 13 12  1  0
 14 15  2  0
 14 16  1  0
 16 17  1  0
 17 20  1  0
 17 18  1  6
 19 18  1  0
 20 22  2  0
 20 21  1  0
M  END
$$$$
