ECC.pdb
     RDKit          3D

 22 21  0  0  1  0  0  0  0  0999 V2000
   21.3336  -19.8511  -13.5143 N   0  0  0  0  0  0  0  0  0  0  0  0
   22.3319  -20.2983  -14.4405 C   0  0  1  0  0  0  0  0  0  0  0  0
   21.8520  -21.1456  -15.5640 C   0  0  0  0  0  0  0  0  0  0  0  0
   20.4511  -21.6098  -15.5373 C   0  0  0  0  0  0  0  0  0  0  0  0
   19.6163  -21.3194  -16.7074 C   0  0  0  0  0  0  0  0  0  0  0  0
   18.7824  -20.3959  -16.7050 O   0  0  0  0  0  0  0  0  0  0  0  0
   23.0913  -19.1062  -14.9141 C   0  0  0  0  0  0  0  0  0  0  0  0
   22.4593  -18.0871  -15.2811 O   0  0  0  0  0  0  0  0  0  0  0  0
   19.7132  -22.0659  -17.8897 O   0  0  0  0  0  0  0  0  0  0  0  0
   24.4944  -19.0549  -14.9745 N   0  0  0  0  0  0  0  0  0  0  0  0
   25.2522  -17.8973  -15.4739 C   0  0  1  0  0  0  0  0  0  0  0  0
   26.4802  -17.8465  -14.5594 C   0  0  0  0  0  0  0  0  0  0  0  0
   27.6930  -16.6318  -15.0577 S   0  0  0  0  0  0  0  0  0  0  0  0
   25.7245  -18.1316  -16.8471 C   0  0  0  0  0  0  0  0  0  0  0  0
   26.2702  -19.2555  -17.0960 O   0  0  0  0  0  0  0  0  0  0  0  0
   25.6351  -17.2377  -17.9237 N   0  0  0  0  0  0  0  0  0  0  0  0
   26.0966  -17.5429  -19.2711 C   0  0  1  0  0  0  0  0  0  0  0  0
   25.1587  -16.9532  -20.3169 C   0  0  0  0  0  0  0  0  0  0  0  0
   23.5403  -17.7332  -20.1568 S   0  0  0  0  0  0  0  0  0  0  0  0
   27.4141  -16.8736  -19.4372 C   0  0  0  0  0  0  0  0  0  0  0  0
   28.5280  -17.5290  -19.9393 O   0  0  0  0  0  0  0  0  0  0  0  0
   27.5345  -15.6761  -19.1160 O   0  0  0  0  0  0  0  0  0  0  0  0
  2  1  1  6
  2  3  1  0
  3  4  1  0
  4  5  1  0
  5  9  1  0
  6  5  2  0
  7  2  1  0
  8  7  2  0
 10  7  1  0
 11 10  1  0
 11 14  1  0
 11 12  1  1
 13 12  1  0
 14 15  2  0
 14 16  1  0
 16 17  1  0
 17 20  1  0
 17 18  1  6
 19 18  1  0
 20 22  2  0
 20 21  1  0
M  END
$$$$
