ECC.pdb
     RDKit          3D

 22 21  0  0  1  0  0  0  0  0999 V2000
   17.6729  -14.3181  -15.4282 N   0  0  0  0  0  0  0  0  0  0  0  0
   17.2797  -13.0681  -16.0090 C   0  0  1  0  0  0  0  0  0  0  0  0
   15.8168  -12.8354  -16.1370 C   0  0  0  0  0  0  0  0  0  0  0  0
   15.0492  -13.7103  -17.0448 C   0  0  0  0  0  0  0  0  0  0  0  0
   13.6020  -13.4915  -17.1372 C   0  0  0  0  0  0  0  0  0  0  0  0
   13.0424  -13.2573  -18.2236 O   0  0  0  0  0  0  0  0  0  0  0  0
   17.9641  -11.9748  -15.2619 C   0  0  0  0  0  0  0  0  0  0  0  0
   17.7474  -11.8476  -14.0332 O   0  0  0  0  0  0  0  0  0  0  0  0
   12.7732  -13.5347  -16.0078 O   0  0  0  0  0  0  0  0  0  0  0  0
   18.8515  -11.0644  -15.8608 N   0  0  0  0  0  0  0  0  0  0  0  0
   19.4398   -9.9116  -15.1616 C   0  0  1  0  0  0  0  0  0  0  0  0
   20.9446  -10.0738  -15.3986 C   0  0  0  0  0  0  0  0  0  0  0  0
   21.9228   -8.7393  -14.7227 S   0  0  0  0  0  0  0  0  0  0  0  0
   19.0205   -8.6481  -15.7871 C   0  0  0  0  0  0  0  0  0  0  0  0
   18.9879   -8.6061  -17.0600 O   0  0  0  0  0  0  0  0  0  0  0  0
   18.6472   -7.4716  -15.1217 N   0  0  0  0  0  0  0  0  0  0  0  0
   18.2751   -6.2387  -15.8022 C   0  0  1  0  0  0  0  0  0  0  0  0
   16.8821   -5.7834  -15.3856 C   0  0  0  0  0  0  0  0  0  0  0  0
   16.6220   -4.0948  -15.9634 S   0  0  0  0  0  0  0  0  0  0  0  0
   19.2309   -5.1925  -15.3516 C   0  0  0  0  0  0  0  0  0  0  0  0
   20.1695   -5.4157  -14.3558 O   0  0  0  0  0  0  0  0  0  0  0  0
   19.1970   -4.0662  -15.8827 O   0  0  0  0  0  0  0  0  0  0  0  0
  2  1  1  1
  2  3  1  0
  3  4  1  0
  4  5  1  0
  5  9  1  0
  6  5  2  0
  7  2  1  0
  8  7  2  0
 10  7  1  0
 11 10  1  0
 11 14  1  0
 11 12  1  6
 13 12  1  0
 14 15  2  0
 14 16  1  0
 16 17  1  0
 17 20  1  0
 17 18  1  1
 19 18  1  0
 20 22  2  0
 20 21  1  0
M  END
$$$$
