MTQ.pdb
     RDKit          3D

 25 24  0  0  1  0  0  0  0  0999 V2000
    7.7841  -11.6473   26.8422 C   0  0  0  0  0  0  0  0  0  0  0  0
    6.2472  -12.4994   27.1177 S   0  0  0  0  0  0  0  0  0  0  0  0
    5.8740  -13.8770   26.0815 C   0  0  0  0  0  0  0  0  0  0  0  0
    7.0026  -14.6085   25.4334 C   0  0  0  0  0  0  0  0  0  0  0  0
    6.6677  -15.7776   24.5882 C   0  0  2  0  0  0  0  0  0  0  0  0
    6.0248  -16.8301   25.4048 N   0  0  0  0  0  0  0  0  0  0  0  0
    7.8864  -16.4461   24.0403 C   0  0  0  0  0  0  0  0  0  0  0  0
    8.5253  -17.3250   24.6670 O   0  0  0  0  0  0  0  0  0  0  0  0
    8.3666  -16.5206   20.0134 C   0  0  0  0  0  0  0  0  0  0  0  0
    9.6677  -16.3207   20.7442 C   0  0  1  0  0  0  0  0  0  0  0  0
   10.1429  -15.0403   20.6058 O   0  0  0  0  0  0  0  0  0  0  0  0
    9.5737  -16.7782   22.1951 C   0  0  2  0  0  0  0  0  0  0  0  0
    8.4041  -16.1143   22.7419 N   0  0  0  0  0  0  0  0  0  0  0  0
   10.8034  -16.4537   22.9605 C   0  0  0  0  0  0  0  0  0  0  0  0
   10.9311  -15.3630   23.5742 O   0  0  0  0  0  0  0  0  0  0  0  0
   10.5332  -18.6799   27.4291 N   0  0  0  0  0  0  0  0  0  0  0  0
   11.9258  -18.5218   27.6979 C   0  0  0  0  0  0  0  0  0  0  0  0
   12.3718  -18.7567   28.8364 O   0  0  0  0  0  0  0  0  0  0  0  0
   12.7959  -18.0770   26.5976 C   0  0  0  0  0  0  0  0  0  0  0  0
   12.0311  -17.8493   25.3379 C   0  0  0  0  0  0  0  0  0  0  0  0
   12.8317  -17.3805   24.1541 C   0  0  2  0  0  0  0  0  0  0  0  0
   11.8878  -17.3643   23.0308 N   0  0  0  0  0  0  0  0  0  0  0  0
   13.9431  -18.3071   23.8960 C   0  0  0  0  0  0  0  0  0  0  0  0
   13.8968  -19.1928   22.9882 O   0  0  0  0  0  0  0  0  0  0  0  0
   15.0948  -18.2354   24.6507 O   0  0  0  0  0  0  0  0  0  0  0  0
  2  3  1  0
  2  1  1  0
  4  5  1  0
  4  3  1  0
  5  7  1  0
  5  6  1  1
  7  8  2  0
  7 13  1  0
 10  9  1  1
 11 10  1  0
 12 10  1  0
 12 14  1  0
 12 13  1  1
 14 15  2  0
 16 17  1  0
 17 19  1  0
 18 17  2  0
 19 20  1  0
 21 20  1  1
 22 14  1  0
 22 21  1  0
 23 21  1  0
 23 25  1  0
 24 23  2  0
M  END
$$$$
