MTQ.pdb
     RDKit          3D

 25 24  0  0  1  0  0  0  0  0999 V2000
    7.1275  -11.2721   26.3419 C   0  0  0  0  0  0  0  0  0  0  0  0
    5.9546  -12.4132   27.0393 S   0  0  0  0  0  0  0  0  0  0  0  0
    5.9747  -14.0754   26.4497 C   0  0  0  0  0  0  0  0  0  0  0  0
    6.3825  -14.3258   25.0356 C   0  0  0  0  0  0  0  0  0  0  0  0
    6.3062  -15.7175   24.5351 C   0  0  2  0  0  0  0  0  0  0  0  0
    5.8379  -16.6209   25.6087 N   0  0  0  0  0  0  0  0  0  0  0  0
    7.6494  -16.2617   24.1719 C   0  0  0  0  0  0  0  0  0  0  0  0
    8.2750  -17.0769   24.8913 O   0  0  0  0  0  0  0  0  0  0  0  0
    8.3458  -16.8275   20.3589 C   0  0  0  0  0  0  0  0  0  0  0  0
    9.6034  -16.3279   21.0188 C   0  0  1  0  0  0  0  0  0  0  0  0
    9.9164  -15.0503   20.6263 O   0  0  0  0  0  0  0  0  0  0  0  0
    9.5511  -16.5007   22.5323 C   0  0  2  0  0  0  0  0  0  0  0  0
    8.3118  -15.8752   22.9571 N   0  0  0  0  0  0  0  0  0  0  0  0
   10.7324  -15.9000   23.2010 C   0  0  0  0  0  0  0  0  0  0  0  0
   10.7996  -14.6669   23.4411 O   0  0  0  0  0  0  0  0  0  0  0  0
   11.1365  -14.1771   27.9122 N   0  0  0  0  0  0  0  0  0  0  0  0
   11.4651  -15.5341   28.2073 C   0  0  0  0  0  0  0  0  0  0  0  0
   10.9967  -16.0827   29.2222 O   0  0  0  0  0  0  0  0  0  0  0  0
   12.3635  -16.2444   27.2832 C   0  0  0  0  0  0  0  0  0  0  0  0
   11.7389  -16.4501   25.9448 C   0  0  0  0  0  0  0  0  0  0  0  0
   12.6658  -16.3680   24.7632 C   0  0  2  0  0  0  0  0  0  0  0  0
   11.8367  -16.6956   23.5977 N   0  0  0  0  0  0  0  0  0  0  0  0
   13.7660  -17.3307   24.9153 C   0  0  0  0  0  0  0  0  0  0  0  0
   13.7037  -18.5155   24.4648 O   0  0  0  0  0  0  0  0  0  0  0  0
   14.9244  -16.9622   25.5660 O   0  0  0  0  0  0  0  0  0  0  0  0
  2  3  1  0
  2  1  1  0
  4  5  1  0
  4  3  1  0
  5  7  1  0
  5  6  1  1
  7  8  2  0
  7 13  1  0
 10  9  1  6
 11 10  1  0
 12 10  1  0
 12 14  1  0
 12 13  1  1
 14 15  2  0
 16 17  1  0
 17 19  1  0
 18 17  2  0
 19 20  1  0
 21 20  1  1
 22 14  1  0
 22 21  1  0
 23 21  1  0
 23 25  1  0
 24 23  2  0
M  END
$$$$
