MTQ.pdb
     RDKit          3D

 25 24  0  0  1  0  0  0  0  0999 V2000
    7.4713  -11.4290   27.3060 C   0  0  0  0  0  0  0  0  0  0  0  0
    6.0116  -11.6651   26.3172 S   0  0  0  0  0  0  0  0  0  0  0  0
    5.7357  -13.2651   25.6280 C   0  0  0  0  0  0  0  0  0  0  0  0
    6.9193  -14.0909   25.2459 C   0  0  0  0  0  0  0  0  0  0  0  0
    6.6639  -15.4082   24.6191 C   0  0  2  0  0  0  0  0  0  0  0  0
    5.9806  -16.3049   25.5767 N   0  0  0  0  0  0  0  0  0  0  0  0
    7.9288  -16.1330   24.2922 C   0  0  0  0  0  0  0  0  0  0  0  0
    8.5563  -16.8260   25.1284 O   0  0  0  0  0  0  0  0  0  0  0  0
    8.5655  -17.2983   20.5047 C   0  0  0  0  0  0  0  0  0  0  0  0
    9.8285  -16.7753   21.1356 C   0  0  1  0  0  0  0  0  0  0  0  0
   10.2001  -15.5623   20.6113 O   0  0  0  0  0  0  0  0  0  0  0  0
    9.7388  -16.7753   22.6572 C   0  0  2  0  0  0  0  0  0  0  0  0
    8.5077  -16.0761   22.9786 N   0  0  0  0  0  0  0  0  0  0  0  0
   10.9209  -16.1320   23.2832 C   0  0  0  0  0  0  0  0  0  0  0  0
   11.3061  -14.9838   22.9426 O   0  0  0  0  0  0  0  0  0  0  0  0
   12.1143  -17.2761   29.0308 N   0  0  0  0  0  0  0  0  0  0  0  0
   11.4063  -16.1064   28.6216 C   0  0  0  0  0  0  0  0  0  0  0  0
   10.6304  -15.5385   29.4126 O   0  0  0  0  0  0  0  0  0  0  0  0
   11.6246  -15.6095   27.2538 C   0  0  0  0  0  0  0  0  0  0  0  0
   12.5307  -16.5008   26.4738 C   0  0  0  0  0  0  0  0  0  0  0  0
   12.7471  -16.1260   25.0334 C   0  0  2  0  0  0  0  0  0  0  0  0
   11.6663  -16.7888   24.2947 N   0  0  0  0  0  0  0  0  0  0  0  0
   14.0630  -16.5982   24.5798 C   0  0  0  0  0  0  0  0  0  0  0  0
   15.1501  -16.0868   24.9887 O   0  0  0  0  0  0  0  0  0  0  0  0
   14.1533  -17.6366   23.6771 O   0  0  0  0  0  0  0  0  0  0  0  0
  2  3  1  0
  2  1  1  0
  4  5  1  0
  4  3  1  0
  5  7  1  0
  5  6  1  1
  7  8  2  0
  7 13  1  0
 10  9  1  6
 11 10  1  0
 12 10  1  0
 12 14  1  0
 12 13  1  6
 14 15  2  0
 16 17  1  0
 17 19  1  0
 18 17  2  0
 19 20  1  0
 21 20  1  1
 22 14  1  0
 22 21  1  0
 23 21  1  0
 23 25  1  0
 24 23  2  0
M  END
$$$$
