MTQ.pdb
     RDKit          3D

 25 24  0  0  1  0  0  0  0  0999 V2000
    7.0129  -10.7882   26.1192 C   0  0  0  0  0  0  0  0  0  0  0  0
    6.4323  -12.4644   26.2506 S   0  0  0  0  0  0  0  0  0  0  0  0
    6.5351  -13.4847   24.8155 C   0  0  0  0  0  0  0  0  0  0  0  0
    7.6040  -13.1999   23.8129 C   0  0  0  0  0  0  0  0  0  0  0  0
    7.7164  -14.1118   22.6514 C   0  0  2  0  0  0  0  0  0  0  0  0
    6.3786  -14.3748   22.0778 N   0  0  0  0  0  0  0  0  0  0  0  0
    8.2093  -15.4669   23.0426 C   0  0  0  0  0  0  0  0  0  0  0  0
    7.4563  -16.3684   23.4828 O   0  0  0  0  0  0  0  0  0  0  0  0
   10.4065  -17.6409   20.8793 C   0  0  0  0  0  0  0  0  0  0  0  0
   11.0711  -17.5397   22.2265 C   0  0  1  0  0  0  0  0  0  0  0  0
   12.1918  -16.7479   22.1879 O   0  0  0  0  0  0  0  0  0  0  0  0
   10.0813  -17.1355   23.3129 C   0  0  2  0  0  0  0  0  0  0  0  0
    9.5977  -15.8200   22.9347 N   0  0  0  0  0  0  0  0  0  0  0  0
   10.7061  -17.1302   24.6593 C   0  0  0  0  0  0  0  0  0  0  0  0
   11.2335  -16.0935   25.1388 O   0  0  0  0  0  0  0  0  0  0  0  0
    8.8733  -20.7848   29.1403 N   0  0  0  0  0  0  0  0  0  0  0  0
   10.1777  -20.5561   29.6722 C   0  0  0  0  0  0  0  0  0  0  0  0
   10.5334  -21.1286   30.7191 O   0  0  0  0  0  0  0  0  0  0  0  0
   11.0671  -19.6334   28.9488 C   0  0  0  0  0  0  0  0  0  0  0  0
   10.5472  -19.3071   27.5898 C   0  0  0  0  0  0  0  0  0  0  0  0
   11.3612  -18.3289   26.7881 C   0  0  2  0  0  0  0  0  0  0  0  0
   10.7332  -18.2983   25.4622 N   0  0  0  0  0  0  0  0  0  0  0  0
   12.7562  -18.7833   26.7008 C   0  0  0  0  0  0  0  0  0  0  0  0
   13.6247  -18.4946   27.5800 O   0  0  0  0  0  0  0  0  0  0  0  0
   13.1680  -19.5560   25.6357 O   0  0  0  0  0  0  0  0  0  0  0  0
  2  3  1  0
  2  1  1  0
  4  5  1  0
  4  3  1  0
  5  7  1  0
  5  6  1  1
  7  8  2  0
  7 13  1  0
 10  9  1  6
 11 10  1  0
 12 10  1  0
 12 14  1  0
 12 13  1  6
 14 15  2  0
 16 17  1  0
 17 19  1  0
 18 17  2  0
 19 20  1  0
 21 20  1  1
 22 14  1  0
 22 21  1  0
 23 21  1  0
 23 25  1  0
 24 23  2  0
M  END
$$$$
