MTQ.pdb
     RDKit          3D

 25 24  0  0  1  0  0  0  0  0999 V2000
    6.8409  -10.9700   27.8114 C   0  0  0  0  0  0  0  0  0  0  0  0
    5.8652  -11.8315   26.5990 S   0  0  0  0  0  0  0  0  0  0  0  0
    5.9167  -13.5945   26.6045 C   0  0  0  0  0  0  0  0  0  0  0  0
    6.9570  -14.2803   25.7822 C   0  0  0  0  0  0  0  0  0  0  0  0
    6.5358  -15.4513   24.9793 C   0  0  2  0  0  0  0  0  0  0  0  0
    6.0542  -16.5320   25.8670 N   0  0  0  0  0  0  0  0  0  0  0  0
    7.6790  -16.0746   24.2466 C   0  0  0  0  0  0  0  0  0  0  0  0
    8.4351  -16.9331   24.7609 O   0  0  0  0  0  0  0  0  0  0  0  0
   10.0662  -16.4162   19.8702 C   0  0  0  0  0  0  0  0  0  0  0  0
    8.9676  -15.8557   20.7338 C   0  0  1  0  0  0  0  0  0  0  0  0
    7.7234  -16.1186   20.2168 O   0  0  0  0  0  0  0  0  0  0  0  0
    9.1218  -16.2844   22.1884 C   0  0  2  0  0  0  0  0  0  0  0  0
    7.9819  -15.7195   22.8879 N   0  0  0  0  0  0  0  0  0  0  0  0
   10.4096  -15.8278   22.7684 C   0  0  0  0  0  0  0  0  0  0  0  0
   10.9086  -14.7116   22.4723 O   0  0  0  0  0  0  0  0  0  0  0  0
   12.3110  -17.3515   28.3041 N   0  0  0  0  0  0  0  0  0  0  0  0
   11.4818  -16.2398   27.9676 C   0  0  0  0  0  0  0  0  0  0  0  0
   10.8202  -15.6649   28.8520 O   0  0  0  0  0  0  0  0  0  0  0  0
   11.4396  -15.8100   26.5608 C   0  0  0  0  0  0  0  0  0  0  0  0
   12.3558  -16.6153   25.7031 C   0  0  0  0  0  0  0  0  0  0  0  0
   12.4193  -16.2221   24.2527 C   0  0  2  0  0  0  0  0  0  0  0  0
   11.1315  -16.6350   23.6833 N   0  0  0  0  0  0  0  0  0  0  0  0
   13.5349  -16.9121   23.5897 C   0  0  0  0  0  0  0  0  0  0  0  0
   14.7474  -16.5898   23.7807 O   0  0  0  0  0  0  0  0  0  0  0  0
   13.2874  -17.9553   22.7226 O   0  0  0  0  0  0  0  0  0  0  0  0
  2  3  1  0
  2  1  1  0
  4  5  1  0
  4  3  1  0
  5  7  1  0
  5  6  1  1
  7  8  2  0
  7 13  1  0
 10  9  1  6
 11 10  1  0
 12 10  1  0
 12 14  1  0
 12 13  1  1
 14 15  2  0
 16 17  1  0
 17 19  1  0
 18 17  2  0
 19 20  1  0
 21 20  1  1
 22 14  1  0
 22 21  1  0
 23 21  1  0
 23 25  1  0
 24 23  2  0
M  END
$$$$
