MTQ.pdb
     RDKit          3D

 25 24  0  0  1  0  0  0  0  0999 V2000
    8.0476  -13.4715   15.7099 C   0  0  0  0  0  0  0  0  0  0  0  0
    8.2026  -13.7218   17.4641 S   0  0  0  0  0  0  0  0  0  0  0  0
    7.3264  -12.6244   18.5315 C   0  0  0  0  0  0  0  0  0  0  0  0
    7.4154  -12.8410   20.0059 C   0  0  0  0  0  0  0  0  0  0  0  0
    7.7914  -14.1928   20.4799 C   0  0  2  0  0  0  0  0  0  0  0  0
    6.6312  -15.1059   20.3904 N   0  0  0  0  0  0  0  0  0  0  0  0
    8.1433  -14.2047   21.9319 C   0  0  0  0  0  0  0  0  0  0  0  0
    7.7777  -13.3107   22.7322 O   0  0  0  0  0  0  0  0  0  0  0  0
    7.1125  -13.9822   24.2851 C   0  0  0  0  0  0  0  0  0  0  0  0
    7.8323  -15.2654   24.6047 C   0  0  1  0  0  0  0  0  0  0  0  0
    7.0513  -16.3671   24.3586 O   0  0  0  0  0  0  0  0  0  0  0  0
    9.1973  -15.3277   23.9293 C   0  0  2  0  0  0  0  0  0  0  0  0
    8.9341  -15.2593   22.5033 N   0  0  0  0  0  0  0  0  0  0  0  0
    9.9431  -16.5574   24.2967 C   0  0  0  0  0  0  0  0  0  0  0  0
    9.4285  -17.7000   24.1857 O   0  0  0  0  0  0  0  0  0  0  0  0
   14.7409  -15.4041   22.4578 N   0  0  0  0  0  0  0  0  0  0  0  0
   14.9191  -16.0925   23.6952 C   0  0  0  0  0  0  0  0  0  0  0  0
   15.7281  -15.6615   24.5378 O   0  0  0  0  0  0  0  0  0  0  0  0
   14.1253  -17.3093   23.9296 C   0  0  0  0  0  0  0  0  0  0  0  0
   13.4460  -17.2858   25.2569 C   0  0  0  0  0  0  0  0  0  0  0  0
   11.9941  -17.6784   25.2633 C   0  0  2  0  0  0  0  0  0  0  0  0
   11.2709  -16.4929   24.7893 N   0  0  0  0  0  0  0  0  0  0  0  0
   11.5746  -18.0433   26.6238 C   0  0  0  0  0  0  0  0  0  0  0  0
   10.7823  -17.3270   27.3093 O   0  0  0  0  0  0  0  0  0  0  0  0
   12.0407  -19.2035   27.2051 O   0  0  0  0  0  0  0  0  0  0  0  0
  2  3  1  0
  2  1  1  0
  4  5  1  0
  4  3  1  0
  5  7  1  0
  5  6  1  1
  7  8  2  0
  7 13  1  0
 10  9  1  6
 11 10  1  0
 12 10  1  0
 12 14  1  0
 12 13  1  6
 14 15  2  0
 16 17  1  0
 17 19  1  0
 18 17  2  0
 19 20  1  0
 21 20  1  1
 22 14  1  0
 22 21  1  0
 23 21  1  0
 23 25  1  0
 24 23  2  0
M  END
$$$$
