MTQ.pdb
     RDKit          3D

 25 24  0  0  1  0  0  0  0  0999 V2000
    5.6246  -11.8940   27.5625 C   0  0  0  0  0  0  0  0  0  0  0  0
    6.5378  -12.0424   26.0433 S   0  0  0  0  0  0  0  0  0  0  0  0
    7.3085  -13.5903   25.6955 C   0  0  0  0  0  0  0  0  0  0  0  0
    6.5987  -14.8443   26.0861 C   0  0  0  0  0  0  0  0  0  0  0  0
    6.2620  -15.8059   25.0113 C   0  0  2  0  0  0  0  0  0  0  0  0
    5.7541  -17.0665   25.5952 N   0  0  0  0  0  0  0  0  0  0  0  0
    7.4664  -16.2317   24.2365 C   0  0  0  0  0  0  0  0  0  0  0  0
    8.3278  -17.0226   24.6902 O   0  0  0  0  0  0  0  0  0  0  0  0
    9.9242  -15.8079   19.9004 C   0  0  0  0  0  0  0  0  0  0  0  0
    8.7088  -15.5801   20.7592 C   0  0  1  0  0  0  0  0  0  0  0  0
    7.5648  -16.0526   20.1656 O   0  0  0  0  0  0  0  0  0  0  0  0
    8.9157  -16.1021   22.1763 C   0  0  2  0  0  0  0  0  0  0  0  0
    7.7101  -15.7510   22.9048 N   0  0  0  0  0  0  0  0  0  0  0  0
   10.1310  -15.5292   22.8072 C   0  0  0  0  0  0  0  0  0  0  0  0
   10.1410  -14.3656   23.2854 O   0  0  0  0  0  0  0  0  0  0  0  0
   11.7882  -17.6738   28.2885 N   0  0  0  0  0  0  0  0  0  0  0  0
   11.7312  -16.3802   27.6882 C   0  0  0  0  0  0  0  0  0  0  0  0
   11.0404  -15.4826   28.2055 O   0  0  0  0  0  0  0  0  0  0  0  0
   12.5047  -16.1550   26.4568 C   0  0  0  0  0  0  0  0  0  0  0  0
   11.6519  -16.2475   25.2369 C   0  0  0  0  0  0  0  0  0  0  0  0
   12.3481  -16.0126   23.9245 C   0  0  2  0  0  0  0  0  0  0  0  0
   11.3341  -16.2739   22.8966 N   0  0  0  0  0  0  0  0  0  0  0  0
   13.4885  -16.9293   23.7855 C   0  0  0  0  0  0  0  0  0  0  0  0
   14.6871  -16.5632   23.9855 O   0  0  0  0  0  0  0  0  0  0  0  0
   13.2809  -18.2445   23.4272 O   0  0  0  0  0  0  0  0  0  0  0  0
  2  3  1  0
  2  1  1  0
  4  5  1  0
  4  3  1  0
  5  7  1  0
  5  6  1  1
  7  8  2  0
  7 13  1  0
 10  9  1  6
 11 10  1  0
 12 10  1  0
 12 14  1  0
 12 13  1  1
 14 15  2  0
 16 17  1  0
 17 19  1  0
 18 17  2  0
 19 20  1  0
 21 20  1  1
 22 14  1  0
 22 21  1  0
 23 21  1  0
 23 25  1  0
 24 23  2  0
M  END
$$$$
