MTQ.pdb
     RDKit          3D

 25 24  0  0  1  0  0  0  0  0999 V2000
    5.1048  -20.3004   18.2098 C   0  0  0  0  0  0  0  0  0  0  0  0
    6.8311  -20.4673   17.8149 S   0  0  0  0  0  0  0  0  0  0  0  0
    7.7273  -19.0027   17.4113 C   0  0  0  0  0  0  0  0  0  0  0  0
    6.9752  -17.7200   17.2789 C   0  0  0  0  0  0  0  0  0  0  0  0
    7.7435  -16.5083   16.9117 C   0  0  2  0  0  0  0  0  0  0  0  0
    8.7343  -16.8310   15.8618 N   0  0  0  0  0  0  0  0  0  0  0  0
    8.5763  -16.0026   18.0444 C   0  0  0  0  0  0  0  0  0  0  0  0
    9.7857  -16.3012   18.1915 O   0  0  0  0  0  0  0  0  0  0  0  0
    7.7466  -12.4208   19.9188 C   0  0  0  0  0  0  0  0  0  0  0  0
    7.9934  -13.5823   20.8443 C   0  0  1  0  0  0  0  0  0  0  0  0
    6.8300  -14.0500   21.4029 O   0  0  0  0  0  0  0  0  0  0  0  0
    8.8225  -14.6706   20.1721 C   0  0  2  0  0  0  0  0  0  0  0  0
    8.0293  -15.1306   19.0465 N   0  0  0  0  0  0  0  0  0  0  0  0
    9.1508  -15.7757   21.1070 C   0  0  0  0  0  0  0  0  0  0  0  0
    8.4699  -16.8329   21.1454 O   0  0  0  0  0  0  0  0  0  0  0  0
   11.9669  -20.0184   20.5888 N   0  0  0  0  0  0  0  0  0  0  0  0
   12.7546  -18.8337   20.4755 C   0  0  0  0  0  0  0  0  0  0  0  0
   13.7782  -18.8308   19.7666 O   0  0  0  0  0  0  0  0  0  0  0  0
   12.3180  -17.6399   21.2169 C   0  0  0  0  0  0  0  0  0  0  0  0
   11.0793  -17.8952   22.0070 C   0  0  0  0  0  0  0  0  0  0  0  0
   10.6245  -16.7761   22.9030 C   0  0  2  0  0  0  0  0  0  0  0  0
   10.2500  -15.6836   21.9977 N   0  0  0  0  0  0  0  0  0  0  0  0
   11.7168  -16.3685   23.7979 C   0  0  0  0  0  0  0  0  0  0  0  0
   12.1631  -17.1210   24.7172 O   0  0  0  0  0  0  0  0  0  0  0  0
   12.3015  -15.1277   23.6575 O   0  0  0  0  0  0  0  0  0  0  0  0
  2  3  1  0
  2  1  1  0
  4  5  1  0
  4  3  1  0
  5  7  1  0
  5  6  1  6
  7  8  2  0
  7 13  1  0
 10  9  1  6
 11 10  1  0
 12 10  1  0
 12 14  1  0
 12 13  1  6
 14 15  2  0
 16 17  1  0
 17 19  1  0
 18 17  2  0
 19 20  1  0
 21 20  1  6
 22 14  1  0
 22 21  1  0
 23 21  1  0
 23 25  1  0
 24 23  2  0
M  END
$$$$
