MTQ.pdb
     RDKit          3D

 25 24  0  0  1  0  0  0  0  0999 V2000
    6.7789  -11.2284   25.5961 C   0  0  0  0  0  0  0  0  0  0  0  0
    6.2434  -12.4016   26.8212 S   0  0  0  0  0  0  0  0  0  0  0  0
    6.4841  -14.1151   26.4790 C   0  0  0  0  0  0  0  0  0  0  0  0
    6.2253  -14.6091   25.0942 C   0  0  0  0  0  0  0  0  0  0  0  0
    6.3842  -16.0597   24.8418 C   0  0  2  0  0  0  0  0  0  0  0  0
    6.1562  -16.8226   26.0884 N   0  0  0  0  0  0  0  0  0  0  0  0
    7.7831  -16.4162   24.4565 C   0  0  0  0  0  0  0  0  0  0  0  0
    8.5701  -17.0234   25.2214 O   0  0  0  0  0  0  0  0  0  0  0  0
    8.4555  -17.0063   20.5755 C   0  0  0  0  0  0  0  0  0  0  0  0
    9.6503  -16.3601   21.2247 C   0  0  1  0  0  0  0  0  0  0  0  0
    9.8104  -15.0571   20.8236 O   0  0  0  0  0  0  0  0  0  0  0  0
    9.6272  -16.5289   22.7394 C   0  0  2  0  0  0  0  0  0  0  0  0
    8.3148  -16.0776   23.1655 N   0  0  0  0  0  0  0  0  0  0  0  0
   10.7165  -15.7670   23.3998 C   0  0  0  0  0  0  0  0  0  0  0  0
   10.5133  -14.6388   23.9182 O   0  0  0  0  0  0  0  0  0  0  0  0
   11.5377  -17.3911   28.1580 N   0  0  0  0  0  0  0  0  0  0  0  0
   11.4043  -15.9789   28.0014 C   0  0  0  0  0  0  0  0  0  0  0  0
   10.9018  -15.2951   28.9126 O   0  0  0  0  0  0  0  0  0  0  0  0
   11.8735  -15.3756   26.7438 C   0  0  0  0  0  0  0  0  0  0  0  0
   12.4139  -16.3975   25.8017 C   0  0  0  0  0  0  0  0  0  0  0  0
   12.9851  -15.8721   24.5134 C   0  0  2  0  0  0  0  0  0  0  0  0
   12.0350  -16.2826   23.4732 N   0  0  0  0  0  0  0  0  0  0  0  0
   14.3133  -16.4542   24.2742 C   0  0  0  0  0  0  0  0  0  0  0  0
   15.3879  -15.8504   24.5763 O   0  0  0  0  0  0  0  0  0  0  0  0
   14.4298  -17.7037   23.7028 O   0  0  0  0  0  0  0  0  0  0  0  0
  2  3  1  0
  2  1  1  0
  4  5  1  0
  4  3  1  0
  5  7  1  0
  5  6  1  1
  7  8  2  0
  7 13  1  0
 10  9  1  6
 11 10  1  0
 12 10  1  0
 12 14  1  0
 12 13  1  1
 14 15  2  0
 16 17  1  0
 17 19  1  0
 18 17  2  0
 19 20  1  0
 21 20  1  1
 22 14  1  0
 22 21  1  0
 23 21  1  0
 23 25  1  0
 24 23  2  0
M  END
$$$$
