IKK.pdb
     RDKit          3D

 27 26  0  0  1  0  0  0  0  0999 V2000
   25.3316  -20.8976   -8.6826 C   0  0  0  0  0  0  0  0  0  0  0  0
   25.8730  -21.3360  -10.0037 C   0  0  0  0  0  0  0  0  0  0  0  0
   25.1814  -20.7019  -11.1766 C   0  0  2  0  0  0  0  0  0  0  0  0
   23.6856  -20.8158  -11.1249 C   0  0  0  0  0  0  0  0  0  0  0  0
   25.7526  -21.2574  -12.4883 C   0  0  2  0  0  0  0  0  0  0  0  0
   27.1882  -21.0870  -12.3995 N   0  0  0  0  0  0  0  0  0  0  0  0
   25.2277  -20.4380  -13.5859 C   0  0  0  0  0  0  0  0  0  0  0  0
   25.2985  -19.1834  -13.5261 O   0  0  0  0  0  0  0  0  0  0  0  0
   24.6218  -20.9817  -14.7566 N   0  0  0  0  0  0  0  0  0  0  0  0
   24.2168  -20.2193  -15.8928 C   0  0  1  0  0  0  0  0  0  0  0  0
   25.0311  -20.7113  -17.0993 C   0  0  0  0  0  0  0  0  0  0  0  0
   24.7523  -19.9003  -18.3124 C   0  0  0  0  0  0  0  0  0  0  0  0
   25.5211  -20.2725  -19.5412 C   0  0  0  0  0  0  0  0  0  0  0  0
   25.3386  -19.3700  -20.7047 C   0  0  0  0  0  0  0  0  0  0  0  0
   26.0675  -19.7307  -21.8881 N   0  0  0  0  0  0  0  0  0  0  0  0
   22.7786  -20.2821  -16.1745 C   0  0  0  0  0  0  0  0  0  0  0  0
   22.1850  -21.3849  -16.0787 O   0  0  0  0  0  0  0  0  0  0  0  0
   22.0553  -19.1373  -16.5479 N   0  0  0  0  0  0  0  0  0  0  0  0
   20.6321  -19.2753  -16.8499 C   0  0  1  0  0  0  0  0  0  0  0  0
   19.9934  -17.9622  -17.1082 C   0  0  0  0  0  0  0  0  0  0  0  0
   18.5101  -18.0945  -17.2782 C   0  0  0  0  0  0  0  0  0  0  0  0
   17.8169  -16.7694  -17.5043 C   0  0  0  0  0  0  0  0  0  0  0  0
   16.3213  -17.0318  -17.5713 C   0  0  0  0  0  0  0  0  0  0  0  0
   15.5965  -15.7656  -17.5247 N   0  0  0  0  0  0  0  0  0  0  0  0
   20.4510  -20.1731  -18.0218 C   0  0  0  0  0  0  0  0  0  0  0  0
   21.1422  -20.1436  -19.0552 O   0  0  0  0  0  0  0  0  0  0  0  0
   19.4348  -21.1491  -18.0140 O   0  0  0  0  0  0  0  0  0  0  0  0
  1  2  1  0
  3  2  1  0
  3  4  1  1
  5  6  1  1
  5  3  1  0
  7  5  1  0
  8  7  2  0
  9  7  1  0
 10  9  1  0
 10 11  1  6
 11 12  1  0
 12 13  1  0
 14 13  1  0
 15 14  1  0
 16 18  1  0
 16 10  1  0
 17 16  2  0
 19 18  1  0
 20 21  1  0
 19 20  1  6
 21 22  1  0
 22 23  1  0
 23 24  1  0
 25 27  1  0
 25 19  1  0
 26 25  2  0
M  END
$$$$
