IKK.pdb
     RDKit          3D

 27 26  0  0  1  0  0  0  0  0999 V2000
   22.7320  -14.6557  -19.3385 C   0  0  0  0  0  0  0  0  0  0  0  0
   22.6627  -14.0208  -17.9884 C   0  0  0  0  0  0  0  0  0  0  0  0
   22.0195  -12.6634  -17.9952 C   0  0  2  0  0  0  0  0  0  0  0  0
   22.5833  -11.7373  -19.0332 C   0  0  0  0  0  0  0  0  0  0  0  0
   22.0725  -12.0484  -16.5902 C   0  0  2  0  0  0  0  0  0  0  0  0
   21.5623  -13.0643  -15.6928 N   0  0  0  0  0  0  0  0  0  0  0  0
   21.1765  -10.8871  -16.5774 C   0  0  0  0  0  0  0  0  0  0  0  0
   21.4581   -9.8657  -17.2558 O   0  0  0  0  0  0  0  0  0  0  0  0
   19.9669  -10.8318  -15.8244 N   0  0  0  0  0  0  0  0  0  0  0  0
   19.0936   -9.7047  -15.7681 C   0  0  1  0  0  0  0  0  0  0  0  0
   17.8895  -10.0904  -14.8951 C   0  0  0  0  0  0  0  0  0  0  0  0
   16.9188   -8.9717  -14.7803 C   0  0  0  0  0  0  0  0  0  0  0  0
   15.5050   -9.2891  -15.1542 C   0  0  0  0  0  0  0  0  0  0  0  0
   14.5351   -8.1800  -14.9789 C   0  0  0  0  0  0  0  0  0  0  0  0
   13.1668   -8.5020  -15.2720 N   0  0  0  0  0  0  0  0  0  0  0  0
   19.7279   -8.4800  -15.2686 C   0  0  0  0  0  0  0  0  0  0  0  0
   20.4987   -8.5509  -14.2793 O   0  0  0  0  0  0  0  0  0  0  0  0
   19.4910   -7.2342  -15.8730 N   0  0  0  0  0  0  0  0  0  0  0  0
   20.2191   -6.0668  -15.3805 C   0  0  1  0  0  0  0  0  0  0  0  0
   21.1802   -5.5520  -16.3856 C   0  0  0  0  0  0  0  0  0  0  0  0
   21.9131   -4.3459  -15.8807 C   0  0  0  0  0  0  0  0  0  0  0  0
   22.9445   -3.8250  -16.8565 C   0  0  0  0  0  0  0  0  0  0  0  0
   23.5610   -2.5716  -16.2573 C   0  0  0  0  0  0  0  0  0  0  0  0
   24.4014   -1.9121  -17.2522 N   0  0  0  0  0  0  0  0  0  0  0  0
   19.2575   -4.9990  -14.9965 C   0  0  0  0  0  0  0  0  0  0  0  0
   18.0663   -4.9522  -15.3505 O   0  0  0  0  0  0  0  0  0  0  0  0
   19.6744   -3.9362  -14.1706 O   0  0  0  0  0  0  0  0  0  0  0  0
  1  2  1  0
  3  2  1  0
  3  4  1  6
  5  6  1  1
  5  3  1  0
  7  5  1  0
  8  7  2  0
  9  7  1  0
 10  9  1  0
 10 11  1  1
 11 12  1  0
 12 13  1  0
 14 13  1  0
 15 14  1  0
 16 18  1  0
 16 10  1  0
 17 16  2  0
 19 18  1  0
 20 21  1  0
 19 20  1  6
 21 22  1  0
 22 23  1  0
 23 24  1  0
 25 27  1  0
 25 19  1  0
 26 25  2  0
M  END
$$$$
