IKK.pdb
     RDKit          3D

 27 26  0  0  1  0  0  0  0  0999 V2000
   29.3324  -17.1390  -17.8006 C   0  0  0  0  0  0  0  0  0  0  0  0
   28.8636  -17.5674  -16.4487 C   0  0  0  0  0  0  0  0  0  0  0  0
   27.4441  -18.0583  -16.4328 C   0  0  2  0  0  0  0  0  0  0  0  0
   26.4728  -17.1066  -17.0684 C   0  0  0  0  0  0  0  0  0  0  0  0
   27.0305  -18.4275  -15.0018 C   0  0  2  0  0  0  0  0  0  0  0  0
   28.1253  -19.2061  -14.4607 N   0  0  0  0  0  0  0  0  0  0  0  0
   25.8282  -19.2635  -15.0866 C   0  0  0  0  0  0  0  0  0  0  0  0
   24.9026  -18.9583  -15.8821 O   0  0  0  0  0  0  0  0  0  0  0  0
   25.6272  -20.4384  -14.3040 N   0  0  0  0  0  0  0  0  0  0  0  0
   24.4555  -21.2520  -14.3429 C   0  0  1  0  0  0  0  0  0  0  0  0
   24.6971  -22.4622  -13.4275 C   0  0  0  0  0  0  0  0  0  0  0  0
   23.6072  -23.4642  -13.5495 C   0  0  0  0  0  0  0  0  0  0  0  0
   23.9038  -24.6551  -14.4058 C   0  0  0  0  0  0  0  0  0  0  0  0
   22.7943  -25.6299  -14.5480 C   0  0  0  0  0  0  0  0  0  0  0  0
   23.0520  -26.7374  -15.4249 N   0  0  0  0  0  0  0  0  0  0  0  0
   23.2253  -20.5491  -13.9631 C   0  0  0  0  0  0  0  0  0  0  0  0
   23.1580  -20.0020  -12.8344 O   0  0  0  0  0  0  0  0  0  0  0  0
   22.1255  -20.4762  -14.8338 N   0  0  0  0  0  0  0  0  0  0  0  0
   20.9250  -19.7717  -14.3887 C   0  0  1  0  0  0  0  0  0  0  0  0
   20.2745  -19.0348  -15.4991 C   0  0  0  0  0  0  0  0  0  0  0  0
   19.0267  -18.3404  -15.0436 C   0  0  0  0  0  0  0  0  0  0  0  0
   18.2562  -17.6988  -16.1759 C   0  0  0  0  0  0  0  0  0  0  0  0
   17.0310  -17.0237  -15.5815 C   0  0  0  0  0  0  0  0  0  0  0  0
   16.3045  -16.3115  -16.6283 N   0  0  0  0  0  0  0  0  0  0  0  0
   19.9690  -20.7381  -13.7851 C   0  0  0  0  0  0  0  0  0  0  0  0
   19.1914  -20.4807  -12.8494 O   0  0  0  0  0  0  0  0  0  0  0  0
   19.8971  -22.0586  -14.2716 O   0  0  0  0  0  0  0  0  0  0  0  0
  1  2  1  0
  3  2  1  0
  3  4  1  1
  5  6  1  6
  5  3  1  0
  7  5  1  0
  8  7  2  0
  9  7  1  0
 10  9  1  0
 10 11  1  1
 11 12  1  0
 12 13  1  0
 14 13  1  0
 15 14  1  0
 16 18  1  0
 16 10  1  0
 17 16  2  0
 19 18  1  0
 20 21  1  0
 19 20  1  6
 21 22  1  0
 22 23  1  0
 23 24  1  0
 25 27  1  0
 25 19  1  0
 26 25  2  0
M  END
$$$$
