IKK.pdb
     RDKit          3D

 27 26  0  0  1  0  0  0  0  0999 V2000
   29.6445  -20.0051  -12.6656 C   0  0  0  0  0  0  0  0  0  0  0  0
   28.5333  -20.5220  -11.8120 C   0  0  0  0  0  0  0  0  0  0  0  0
   27.1932  -20.4965  -12.4899 C   0  0  2  0  0  0  0  0  0  0  0  0
   26.8617  -19.1725  -13.1147 C   0  0  0  0  0  0  0  0  0  0  0  0
   26.1012  -20.9591  -11.5159 C   0  0  2  0  0  0  0  0  0  0  0  0
   26.4803  -22.2934  -11.0993 N   0  0  0  0  0  0  0  0  0  0  0  0
   24.8370  -21.0167  -12.2576 C   0  0  0  0  0  0  0  0  0  0  0  0
   24.7540  -21.7002  -13.3104 O   0  0  0  0  0  0  0  0  0  0  0  0
   23.6543  -20.3289  -11.8558 N   0  0  0  0  0  0  0  0  0  0  0  0
   22.4080  -20.3791  -12.5488 C   0  0  1  0  0  0  0  0  0  0  0  0
   21.2965  -20.0730  -11.5331 C   0  0  0  0  0  0  0  0  0  0  0  0
   19.9499  -20.1695  -12.1530 C   0  0  0  0  0  0  0  0  0  0  0  0
   18.7874  -20.0033  -11.2254 C   0  0  0  0  0  0  0  0  0  0  0  0
   17.4487  -20.0979  -11.8583 C   0  0  0  0  0  0  0  0  0  0  0  0
   16.3327  -20.0521  -10.9558 N   0  0  0  0  0  0  0  0  0  0  0  0
   22.3257  -19.4733  -13.6996 C   0  0  0  0  0  0  0  0  0  0  0  0
   22.6969  -18.2807  -13.5662 O   0  0  0  0  0  0  0  0  0  0  0  0
   21.8416  -19.9120  -14.9432 N   0  0  0  0  0  0  0  0  0  0  0  0
   21.8659  -18.9836  -16.0716 C   0  0  1  0  0  0  0  0  0  0  0  0
   22.8314  -19.4080  -17.1140 C   0  0  0  0  0  0  0  0  0  0  0  0
   22.9336  -18.3965  -18.2155 C   0  0  0  0  0  0  0  0  0  0  0  0
   23.8180  -18.8472  -19.3565 C   0  0  0  0  0  0  0  0  0  0  0  0
   23.8883  -17.7138  -20.3668 C   0  0  0  0  0  0  0  0  0  0  0  0
   24.6972  -18.1232  -21.5109 N   0  0  0  0  0  0  0  0  0  0  0  0
   20.5025  -18.8633  -16.6537 C   0  0  0  0  0  0  0  0  0  0  0  0
   19.6097  -19.7240  -16.5605 O   0  0  0  0  0  0  0  0  0  0  0  0
   20.1415  -17.7080  -17.3752 O   0  0  0  0  0  0  0  0  0  0  0  0
  1  2  1  0
  3  2  1  0
  3  4  1  1
  5  6  1  6
  5  3  1  0
  7  5  1  0
  8  7  2  0
  9  7  1  0
 10  9  1  0
 10 11  1  1
 11 12  1  0
 12 13  1  0
 14 13  1  0
 15 14  1  0
 16 18  1  0
 16 10  1  0
 17 16  2  0
 19 18  1  0
 20 21  1  0
 19 20  1  6
 21 22  1  0
 22 23  1  0
 23 24  1  0
 25 27  1  0
 25 19  1  0
 26 25  2  0
M  END
$$$$
