IKK.pdb
     RDKit          3D

 27 26  0  0  1  0  0  0  0  0999 V2000
   28.2851  -20.7765   -6.2969 C   0  0  0  0  0  0  0  0  0  0  0  0
   27.4491  -19.8226   -7.0855 C   0  0  0  0  0  0  0  0  0  0  0  0
   26.7682  -20.4547   -8.2658 C   0  0  2  0  0  0  0  0  0  0  0  0
   27.6693  -21.3418   -9.0745 C   0  0  0  0  0  0  0  0  0  0  0  0
   26.1021  -19.3754   -9.1298 C   0  0  2  0  0  0  0  0  0  0  0  0
   25.1469  -18.7105   -8.2677 N   0  0  0  0  0  0  0  0  0  0  0  0
   25.3916  -20.0523  -10.2201 C   0  0  0  0  0  0  0  0  0  0  0  0
   26.0384  -20.6294  -11.1318 O   0  0  0  0  0  0  0  0  0  0  0  0
   23.9704  -20.1043  -10.3234 N   0  0  0  0  0  0  0  0  0  0  0  0
   23.2539  -20.6591  -11.4256 C   0  0  1  0  0  0  0  0  0  0  0  0
   21.8406  -21.0092  -10.9349 C   0  0  0  0  0  0  0  0  0  0  0  0
   21.0286  -21.6327  -12.0114 C   0  0  0  0  0  0  0  0  0  0  0  0
   19.6272  -22.0065  -11.6430 C   0  0  0  0  0  0  0  0  0  0  0  0
   18.8391  -22.6608  -12.7164 C   0  0  0  0  0  0  0  0  0  0  0  0
   17.5084  -23.0591  -12.3524 N   0  0  0  0  0  0  0  0  0  0  0  0
   23.1950  -19.7855  -12.6025 C   0  0  0  0  0  0  0  0  0  0  0  0
   23.0123  -18.5534  -12.4402 O   0  0  0  0  0  0  0  0  0  0  0  0
   23.3384  -20.2982  -13.9024 N   0  0  0  0  0  0  0  0  0  0  0  0
   23.2729  -19.3729  -15.0317 C   0  0  1  0  0  0  0  0  0  0  0  0
   24.4949  -19.4376  -15.8692 C   0  0  0  0  0  0  0  0  0  0  0  0
   24.4142  -18.5000  -17.0358 C   0  0  0  0  0  0  0  0  0  0  0  0
   25.6263  -18.5673  -17.9378 C   0  0  0  0  0  0  0  0  0  0  0  0
   25.4522  -17.5250  -19.0303 C   0  0  0  0  0  0  0  0  0  0  0  0
   26.6612  -17.4593  -19.8456 N   0  0  0  0  0  0  0  0  0  0  0  0
   22.0703  -19.6685  -15.8555 C   0  0  0  0  0  0  0  0  0  0  0  0
   21.5253  -18.8662  -16.6338 O   0  0  0  0  0  0  0  0  0  0  0  0
   21.4620  -20.9377  -15.7880 O   0  0  0  0  0  0  0  0  0  0  0  0
  1  2  1  0
  3  2  1  0
  3  4  1  6
  5  6  1  1
  5  3  1  0
  7  5  1  0
  8  7  2  0
  9  7  1  0
 10  9  1  0
 10 11  1  1
 11 12  1  0
 12 13  1  0
 14 13  1  0
 15 14  1  0
 16 18  1  0
 16 10  1  0
 17 16  2  0
 19 18  1  0
 20 21  1  0
 19 20  1  6
 21 22  1  0
 22 23  1  0
 23 24  1  0
 25 27  1  0
 25 19  1  0
 26 25  2  0
M  END
$$$$
