IKK.pdb
     RDKit          3D

 27 26  0  0  1  0  0  0  0  0999 V2000
   27.6479  -15.9560  -16.0010 C   0  0  0  0  0  0  0  0  0  0  0  0
   26.3439  -16.5305  -15.5533 C   0  0  0  0  0  0  0  0  0  0  0  0
   25.1619  -15.6625  -15.8780 C   0  0  2  0  0  0  0  0  0  0  0  0
   25.2671  -14.2724  -15.3213 C   0  0  0  0  0  0  0  0  0  0  0  0
   23.8638  -16.3562  -15.4436 C   0  0  2  0  0  0  0  0  0  0  0  0
   23.9524  -17.7128  -15.9432 N   0  0  0  0  0  0  0  0  0  0  0  0
   22.7478  -15.6641  -16.0971 C   0  0  0  0  0  0  0  0  0  0  0  0
   22.7067  -15.5780  -17.3514 O   0  0  0  0  0  0  0  0  0  0  0  0
   21.6686  -15.0609  -15.3865 N   0  0  0  0  0  0  0  0  0  0  0  0
   20.5922  -14.3471  -15.9933 C   0  0  1  0  0  0  0  0  0  0  0  0
   19.3333  -14.5936  -15.1476 C   0  0  0  0  0  0  0  0  0  0  0  0
   18.8134  -15.9728  -15.3331 C   0  0  0  0  0  0  0  0  0  0  0  0
   17.6814  -16.3728  -14.4397 C   0  0  0  0  0  0  0  0  0  0  0  0
   17.1984  -17.7656  -14.6080 C   0  0  0  0  0  0  0  0  0  0  0  0
   16.2068  -18.1954  -13.6625 N   0  0  0  0  0  0  0  0  0  0  0  0
   20.8402  -12.9100  -16.1513 C   0  0  0  0  0  0  0  0  0  0  0  0
   21.3652  -12.2729  -15.2045 O   0  0  0  0  0  0  0  0  0  0  0  0
   20.5034  -12.2352  -17.3364 N   0  0  0  0  0  0  0  0  0  0  0  0
   20.8321  -10.8160  -17.4521 C   0  0  1  0  0  0  0  0  0  0  0  0
   20.7985  -10.3553  -18.8612 C   0  0  0  0  0  0  0  0  0  0  0  0
   21.0511   -8.8816  -18.9658 C   0  0  0  0  0  0  0  0  0  0  0  0
   20.8564   -8.3427  -20.3654 C   0  0  0  0  0  0  0  0  0  0  0  0
   21.1318   -6.8483  -20.3314 C   0  0  0  0  0  0  0  0  0  0  0  0
   20.8402   -6.2638  -21.6369 N   0  0  0  0  0  0  0  0  0  0  0  0
   19.8908  -10.0124  -16.6273 C   0  0  0  0  0  0  0  0  0  0  0  0
   18.6905  -10.2840  -16.4481 O   0  0  0  0  0  0  0  0  0  0  0  0
   20.3397   -8.8457  -15.9772 O   0  0  0  0  0  0  0  0  0  0  0  0
  1  2  1  0
  3  2  1  0
  3  4  1  1
  5  6  1  6
  5  3  1  0
  7  5  1  0
  8  7  2  0
  9  7  1  0
 10  9  1  0
 10 11  1  1
 11 12  1  0
 12 13  1  0
 14 13  1  0
 15 14  1  0
 16 18  1  0
 16 10  1  0
 17 16  2  0
 19 18  1  0
 20 21  1  0
 19 20  1  6
 21 22  1  0
 22 23  1  0
 23 24  1  0
 25 27  1  0
 25 19  1  0
 26 25  2  0
M  END
$$$$
