IKK.pdb
     RDKit          3D

 27 26  0  0  1  0  0  0  0  0999 V2000
   26.0328  -20.5610   -7.5931 C   0  0  0  0  0  0  0  0  0  0  0  0
   25.4378  -21.2604   -8.7711 C   0  0  0  0  0  0  0  0  0  0  0  0
   25.2407  -20.3679   -9.9630 C   0  0  2  0  0  0  0  0  0  0  0  0
   24.3813  -19.1701   -9.6804 C   0  0  0  0  0  0  0  0  0  0  0  0
   24.7124  -21.1839  -11.1505 C   0  0  2  0  0  0  0  0  0  0  0  0
   25.5726  -22.3451  -11.2480 N   0  0  0  0  0  0  0  0  0  0  0  0
   24.8581  -20.3621  -12.3567 C   0  0  0  0  0  0  0  0  0  0  0  0
   24.1645  -19.3223  -12.4991 O   0  0  0  0  0  0  0  0  0  0  0  0
   25.7619  -20.6689  -13.4162 N   0  0  0  0  0  0  0  0  0  0  0  0
   25.9573  -19.8643  -14.5783 C   0  0  1  0  0  0  0  0  0  0  0  0
   27.2842  -20.2919  -15.2243 C   0  0  0  0  0  0  0  0  0  0  0  0
   28.4480  -19.9069  -14.3851 C   0  0  0  0  0  0  0  0  0  0  0  0
   29.0743  -21.0073  -13.5875 C   0  0  0  0  0  0  0  0  0  0  0  0
   30.3130  -20.6401  -12.8579 C   0  0  0  0  0  0  0  0  0  0  0  0
   30.8919  -21.6823  -12.0575 N   0  0  0  0  0  0  0  0  0  0  0  0
   24.8591  -19.9360  -15.5481 C   0  0  0  0  0  0  0  0  0  0  0  0
   24.2815  -21.0354  -15.7368 O   0  0  0  0  0  0  0  0  0  0  0  0
   24.4423  -18.8034  -16.2669 N   0  0  0  0  0  0  0  0  0  0  0  0
   23.2735  -18.9166  -17.1368 C   0  0  1  0  0  0  0  0  0  0  0  0
   22.5982  -17.6100  -17.3259 C   0  0  0  0  0  0  0  0  0  0  0  0
   21.4043  -17.7311  -18.2240 C   0  0  0  0  0  0  0  0  0  0  0  0
   20.7421  -16.4030  -18.5154 C   0  0  0  0  0  0  0  0  0  0  0  0
   19.5727  -16.6612  -19.4513 C   0  0  0  0  0  0  0  0  0  0  0  0
   18.9797  -15.3917  -19.8606 N   0  0  0  0  0  0  0  0  0  0  0  0
   23.6780  -19.4800  -18.4526 C   0  0  0  0  0  0  0  0  0  0  0  0
   24.6922  -19.1449  -19.0894 O   0  0  0  0  0  0  0  0  0  0  0  0
   22.8890  -20.4710  -19.0697 O   0  0  0  0  0  0  0  0  0  0  0  0
  1  2  1  0
  3  2  1  0
  3  4  1  1
  5  6  1  6
  5  3  1  0
  7  5  1  0
  8  7  2  0
  9  7  1  0
 10  9  1  0
 10 11  1  6
 11 12  1  0
 12 13  1  0
 14 13  1  0
 15 14  1  0
 16 18  1  0
 16 10  1  0
 17 16  2  0
 19 18  1  0
 20 21  1  0
 19 20  1  6
 21 22  1  0
 22 23  1  0
 23 24  1  0
 25 27  1  0
 25 19  1  0
 26 25  2  0
M  END
$$$$
