IKK.pdb
     RDKit          3D

 27 26  0  0  1  0  0  0  0  0999 V2000
   28.2965  -16.6912  -16.5729 C   0  0  0  0  0  0  0  0  0  0  0  0
   26.8127  -16.5847  -16.4400 C   0  0  0  0  0  0  0  0  0  0  0  0
   26.1623  -17.8436  -15.9415 C   0  0  2  0  0  0  0  0  0  0  0  0
   26.6310  -19.0819  -16.6487 C   0  0  0  0  0  0  0  0  0  0  0  0
   24.6350  -17.7015  -15.9880 C   0  0  2  0  0  0  0  0  0  0  0  0
   24.3256  -16.4978  -15.2443 N   0  0  0  0  0  0  0  0  0  0  0  0
   24.0577  -18.8635  -15.3039 C   0  0  0  0  0  0  0  0  0  0  0  0
   24.0218  -19.9811  -15.8802 O   0  0  0  0  0  0  0  0  0  0  0  0
   23.5156  -18.8144  -13.9859 N   0  0  0  0  0  0  0  0  0  0  0  0
   22.9296  -19.9229  -13.3047 C   0  0  1  0  0  0  0  0  0  0  0  0
   23.1895  -19.7374  -11.8018 C   0  0  0  0  0  0  0  0  0  0  0  0
   24.4836  -20.3422  -11.3936 C   0  0  0  0  0  0  0  0  0  0  0  0
   24.8491  -20.1968   -9.9498 C   0  0  0  0  0  0  0  0  0  0  0  0
   26.1493  -20.7950   -9.5583 C   0  0  0  0  0  0  0  0  0  0  0  0
   26.5258  -20.6131   -8.1846 N   0  0  0  0  0  0  0  0  0  0  0  0
   21.4973  -20.0984  -13.5677 C   0  0  0  0  0  0  0  0  0  0  0  0
   20.7314  -19.1081  -13.4649 O   0  0  0  0  0  0  0  0  0  0  0  0
   20.9676  -21.3477  -13.9310 N   0  0  0  0  0  0  0  0  0  0  0  0
   19.5278  -21.4599  -14.1550 C   0  0  1  0  0  0  0  0  0  0  0  0
   19.1926  -22.6193  -15.0166 C   0  0  0  0  0  0  0  0  0  0  0  0
   17.7170  -22.7160  -15.2613 C   0  0  0  0  0  0  0  0  0  0  0  0
   17.3272  -23.9309  -16.0733 C   0  0  0  0  0  0  0  0  0  0  0  0
   15.8430  -23.8266  -16.3842 C   0  0  0  0  0  0  0  0  0  0  0  0
   15.4500  -24.9103  -17.2797 N   0  0  0  0  0  0  0  0  0  0  0  0
   18.8226  -21.5698  -12.8501 C   0  0  0  0  0  0  0  0  0  0  0  0
   19.2600  -22.1694  -11.8523 O   0  0  0  0  0  0  0  0  0  0  0  0
   17.5605  -20.9679  -12.6760 O   0  0  0  0  0  0  0  0  0  0  0  0
  1  2  1  0
  3  2  1  0
  3  4  1  6
  5  6  1  1
  5  3  1  0
  7  5  1  0
  8  7  2  0
  9  7  1  0
 10  9  1  0
 10 11  1  1
 11 12  1  0
 12 13  1  0
 14 13  1  0
 15 14  1  0
 16 18  1  0
 16 10  1  0
 17 16  2  0
 19 18  1  0
 20 21  1  0
 19 20  1  6
 21 22  1  0
 22 23  1  0
 23 24  1  0
 25 27  1  0
 25 19  1  0
 26 25  2  0
M  END
$$$$
