WKN.pdb
     RDKit          3D

 32 33  0  0  1  0  0  0  0  0999 V2000
   27.8681  -21.2527  -10.8981 N   0  0  0  0  0  0  0  0  0  0  0  0
   26.5947  -21.2731  -10.2170 C   0  0  1  0  0  0  0  0  0  0  0  0
   26.6815  -20.6230   -8.8601 C   0  0  0  0  0  0  0  0  0  0  0  0
   27.9263  -20.7424   -8.1451 C   0  0  0  0  0  0  0  0  0  0  0  0
   29.0694  -21.3824   -8.6469 C   0  0  0  0  0  0  0  0  0  0  0  0
   30.0471  -21.2892   -7.7452 N   0  0  0  0  0  0  0  0  0  0  0  0
   29.6057  -20.6200   -6.6688 C   0  0  0  0  0  0  0  0  0  0  0  0
   30.2745  -20.3012   -5.5113 C   0  0  0  0  0  0  0  0  0  0  0  0
   29.6015  -19.6027   -4.5313 C   0  0  0  0  0  0  0  0  0  0  0  0
   28.2864  -19.2460   -4.7392 C   0  0  0  0  0  0  0  0  0  0  0  0
   27.6444  -19.5725   -5.8957 C   0  0  0  0  0  0  0  0  0  0  0  0
   28.2684  -20.2698   -6.9097 C   0  0  0  0  0  0  0  0  0  0  0  0
   25.4732  -20.7310  -10.9722 C   0  0  0  0  0  0  0  0  0  0  0  0
   25.1642  -19.5119  -10.9980 O   0  0  0  0  0  0  0  0  0  0  0  0
   24.6109  -21.5879  -11.7743 N   0  0  0  0  0  0  0  0  0  0  0  0
   23.5304  -21.1070  -12.5732 C   0  0  1  0  0  0  0  0  0  0  0  0
   23.6772  -21.1015  -14.0414 C   0  0  0  0  0  0  0  0  0  0  0  0
   24.7800  -20.3382  -14.6412 C   0  0  0  0  0  0  0  0  0  0  0  0
   24.5313  -18.8960  -14.9404 C   0  0  0  0  0  0  0  0  0  0  0  0
   25.7721  -18.3218  -15.6643 C   0  0  0  0  0  0  0  0  0  0  0  0
   25.4681  -16.9668  -16.0550 N   0  0  0  0  0  0  0  0  0  0  0  0
   22.3356  -21.9752  -12.2006 C   0  0  0  0  0  0  0  0  0  0  0  0
   22.3985  -23.2249  -12.1512 O   0  0  0  0  0  0  0  0  0  0  0  0
   18.7962  -23.9570   -8.5309 N   0  0  0  0  0  0  0  0  0  0  0  0
   18.6754  -23.1219   -9.6857 C   0  0  0  0  0  0  0  0  0  0  0  0
   17.6102  -23.1851  -10.3417 O   0  0  0  0  0  0  0  0  0  0  0  0
   19.7905  -22.2278  -10.0551 C   0  0  0  0  0  0  0  0  0  0  0  0
   19.9228  -22.2348  -11.5700 C   0  0  2  0  0  0  0  0  0  0  0  0
   21.0792  -21.3987  -11.8860 N   0  0  0  0  0  0  0  0  0  0  0  0
   18.7048  -21.7295  -12.2398 C   0  0  0  0  0  0  0  0  0  0  0  0
   18.4787  -20.4950  -12.2920 O   0  0  0  0  0  0  0  0  0  0  0  0
   17.7670  -22.5672  -12.8337 O   0  0  0  0  0  0  0  0  0  0  0  0
  2  3  1  0
  2  1  1  6
  3  4  1  0
  4  5  2  0
  6  5  1  0
  7  6  1  0
  8  7  2  0
  9  8  1  0
 10  9  2  0
 10 11  1  0
 11 12  2  0
 12  7  1  0
 12  4  1  0
 13  2  1  0
 13 14  2  0
 15 13  1  0
 16 22  1  0
 16 15  1  0
 16 17  1  6
 18 17  1  0
 19 18  1  0
 20 21  1  0
 20 19  1  0
 22 29  1  0
 23 22  2  0
 24 25  1  0
 25 26  2  0
 27 25  1  0
 28 27  1  1
 28 30  1  0
 29 28  1  0
 30 31  2  0
 30 32  1  0
M  END
$$$$
