WKN.pdb
     RDKit          3D

 32 33  0  0  1  0  0  0  0  0999 V2000
   25.0275  -16.3944  -18.9929 N   0  0  0  0  0  0  0  0  0  0  0  0
   25.1076  -16.6976  -17.5831 C   0  0  1  0  0  0  0  0  0  0  0  0
   24.7415  -15.5047  -16.7381 C   0  0  0  0  0  0  0  0  0  0  0  0
   25.5629  -14.3275  -16.8597 C   0  0  0  0  0  0  0  0  0  0  0  0
   25.0926  -13.0147  -16.7065 C   0  0  0  0  0  0  0  0  0  0  0  0
   26.1136  -12.1703  -16.8561 N   0  0  0  0  0  0  0  0  0  0  0  0
   27.2376  -12.8610  -17.1032 C   0  0  0  0  0  0  0  0  0  0  0  0
   28.5115  -12.3946  -17.3233 C   0  0  0  0  0  0  0  0  0  0  0  0
   29.5163  -13.3078  -17.5636 C   0  0  0  0  0  0  0  0  0  0  0  0
   29.2167  -14.6532  -17.5755 C   0  0  0  0  0  0  0  0  0  0  0  0
   27.9461  -15.0919  -17.3536 C   0  0  0  0  0  0  0  0  0  0  0  0
   26.9023  -14.2235  -17.1078 C   0  0  0  0  0  0  0  0  0  0  0  0
   24.3650  -17.8749  -17.1538 C   0  0  0  0  0  0  0  0  0  0  0  0
   23.2798  -18.2500  -17.6677 O   0  0  0  0  0  0  0  0  0  0  0  0
   24.8440  -18.7238  -16.0717 N   0  0  0  0  0  0  0  0  0  0  0  0
   24.3057  -20.0110  -15.7708 C   0  0  1  0  0  0  0  0  0  0  0  0
   25.1402  -20.9773  -15.0314 C   0  0  0  0  0  0  0  0  0  0  0  0
   24.6144  -22.3271  -14.7863 C   0  0  0  0  0  0  0  0  0  0  0  0
   25.0188  -23.4032  -15.7400 C   0  0  0  0  0  0  0  0  0  0  0  0
   24.3712  -24.7329  -15.2862 C   0  0  0  0  0  0  0  0  0  0  0  0
   24.8001  -25.7665  -16.1965 N   0  0  0  0  0  0  0  0  0  0  0  0
   23.0379  -19.7410  -14.9708 C   0  0  0  0  0  0  0  0  0  0  0  0
   23.0362  -19.0659  -13.9161 O   0  0  0  0  0  0  0  0  0  0  0  0
   20.4699  -17.4785  -15.3864 N   0  0  0  0  0  0  0  0  0  0  0  0
   19.5433  -18.3573  -16.0303 C   0  0  0  0  0  0  0  0  0  0  0  0
   18.8397  -17.8871  -16.9537 O   0  0  0  0  0  0  0  0  0  0  0  0
   19.4533  -19.7644  -15.5931 C   0  0  0  0  0  0  0  0  0  0  0  0
   20.5746  -20.0255  -14.5995 C   0  0  2  0  0  0  0  0  0  0  0  0
   21.7826  -20.2481  -15.3916 N   0  0  0  0  0  0  0  0  0  0  0  0
   20.2906  -21.1866  -13.7286 C   0  0  0  0  0  0  0  0  0  0  0  0
   20.4999  -22.3536  -14.1436 O   0  0  0  0  0  0  0  0  0  0  0  0
   19.7907  -21.0575  -12.4373 O   0  0  0  0  0  0  0  0  0  0  0  0
  2  3  1  0
  2  1  1  6
  3  4  1  0
  4  5  2  0
  6  5  1  0
  7  6  1  0
  8  7  2  0
  9  8  1  0
 10  9  2  0
 10 11  1  0
 11 12  2  0
 12  7  1  0
 12  4  1  0
 13  2  1  0
 13 14  2  0
 15 13  1  0
 16 22  1  0
 16 15  1  0
 16 17  1  1
 18 17  1  0
 19 18  1  0
 20 21  1  0
 20 19  1  0
 22 29  1  0
 23 22  2  0
 24 25  1  0
 25 26  2  0
 27 25  1  0
 28 27  1  6
 28 30  1  0
 29 28  1  0
 30 31  2  0
 30 32  1  0
M  END
$$$$
