WKN.pdb
     RDKit          3D

 32 33  0  0  1  0  0  0  0  0999 V2000
   28.0997  -21.1229  -10.7441 N   0  0  0  0  0  0  0  0  0  0  0  0
   26.7604  -21.3101  -10.2372 C   0  0  1  0  0  0  0  0  0  0  0  0
   26.6378  -20.8431   -8.8096 C   0  0  0  0  0  0  0  0  0  0  0  0
   27.8251  -20.8801   -7.9946 C   0  0  0  0  0  0  0  0  0  0  0  0
   29.0185  -21.5191   -8.3628 C   0  0  0  0  0  0  0  0  0  0  0  0
   29.9201  -21.3394   -7.3971 N   0  0  0  0  0  0  0  0  0  0  0  0
   29.3802  -20.6137   -6.4054 C   0  0  0  0  0  0  0  0  0  0  0  0
   29.9485  -20.2009   -5.2241 C   0  0  0  0  0  0  0  0  0  0  0  0
   29.1847  -19.4590   -4.3482 C   0  0  0  0  0  0  0  0  0  0  0  0
   27.8821  -19.1540   -4.6801 C   0  0  0  0  0  0  0  0  0  0  0  0
   27.3406  -19.5737   -5.8577 C   0  0  0  0  0  0  0  0  0  0  0  0
   28.0582  -20.3181   -6.7714 C   0  0  0  0  0  0  0  0  0  0  0  0
   25.6975  -20.7400  -11.0541 C   0  0  0  0  0  0  0  0  0  0  0  0
   25.5607  -19.5090  -11.2740 O   0  0  0  0  0  0  0  0  0  0  0  0
   24.6944  -21.5810  -11.6927 N   0  0  0  0  0  0  0  0  0  0  0  0
   23.9811  -21.2136  -12.8731 C   0  0  1  0  0  0  0  0  0  0  0  0
   23.9141  -22.1724  -13.9925 C   0  0  0  0  0  0  0  0  0  0  0  0
   24.7779  -23.3605  -13.9616 C   0  0  0  0  0  0  0  0  0  0  0  0
   25.6529  -23.6021  -15.1479 C   0  0  0  0  0  0  0  0  0  0  0  0
   25.0547  -24.7664  -15.9725 C   0  0  0  0  0  0  0  0  0  0  0  0
   25.9163  -24.9926  -17.1071 N   0  0  0  0  0  0  0  0  0  0  0  0
   22.5652  -20.8999  -12.4075 C   0  0  0  0  0  0  0  0  0  0  0  0
   22.0079  -21.5219  -11.4743 O   0  0  0  0  0  0  0  0  0  0  0  0
   18.1125  -16.8982  -12.7267 N   0  0  0  0  0  0  0  0  0  0  0  0
   18.5162  -18.2061  -13.1415 C   0  0  0  0  0  0  0  0  0  0  0  0
   17.6348  -19.0933  -13.2106 O   0  0  0  0  0  0  0  0  0  0  0  0
   19.9329  -18.4584  -13.4709 C   0  0  0  0  0  0  0  0  0  0  0  0
   20.4143  -19.6306  -12.6302 C   0  0  2  0  0  0  0  0  0  0  0  0
   21.8028  -19.8721  -13.0177 N   0  0  0  0  0  0  0  0  0  0  0  0
   19.5891  -20.8409  -12.8342 C   0  0  0  0  0  0  0  0  0  0  0  0
   18.6992  -21.1463  -12.0020 O   0  0  0  0  0  0  0  0  0  0  0  0
   19.7456  -21.6860  -13.9275 O   0  0  0  0  0  0  0  0  0  0  0  0
  2  3  1  0
  2  1  1  6
  3  4  1  0
  4  5  2  0
  6  5  1  0
  7  6  1  0
  8  7  2  0
  9  8  1  0
 10  9  2  0
 10 11  1  0
 11 12  2  0
 12  7  1  0
 12  4  1  0
 13  2  1  0
 13 14  2  0
 15 13  1  0
 16 22  1  0
 16 15  1  0
 16 17  1  6
 18 17  1  0
 19 18  1  0
 20 21  1  0
 20 19  1  0
 22 29  1  0
 23 22  2  0
 24 25  1  0
 25 26  2  0
 27 25  1  0
 28 27  1  6
 28 30  1  0
 29 28  1  0
 30 31  2  0
 30 32  1  0
M  END
$$$$
