WKN.pdb
     RDKit          3D

 32 33  0  0  1  0  0  0  0  0999 V2000
   21.5438  -19.5056  -17.4273 N   0  0  0  0  0  0  0  0  0  0  0  0
   22.2614  -18.7034  -16.4643 C   0  0  1  0  0  0  0  0  0  0  0  0
   21.3334  -18.1100  -15.4358 C   0  0  0  0  0  0  0  0  0  0  0  0
   20.2639  -17.2706  -15.9121 C   0  0  0  0  0  0  0  0  0  0  0  0
   18.9781  -17.7316  -16.2318 C   0  0  0  0  0  0  0  0  0  0  0  0
   18.2306  -16.6955  -16.6134 N   0  0  0  0  0  0  0  0  0  0  0  0
   18.9606  -15.5703  -16.5638 C   0  0  0  0  0  0  0  0  0  0  0  0
   18.5919  -14.2829  -16.8731 C   0  0  0  0  0  0  0  0  0  0  0  0
   19.5293  -13.2797  -16.7471 C   0  0  0  0  0  0  0  0  0  0  0  0
   20.8005  -13.5941  -16.3169 C   0  0  0  0  0  0  0  0  0  0  0  0
   21.1426  -14.8779  -16.0152 C   0  0  0  0  0  0  0  0  0  0  0  0
   20.2456  -15.9209  -16.1225 C   0  0  0  0  0  0  0  0  0  0  0  0
   23.3872  -19.3628  -15.8164 C   0  0  0  0  0  0  0  0  0  0  0  0
   23.3479  -20.5315  -15.3526 O   0  0  0  0  0  0  0  0  0  0  0  0
   24.6725  -18.6959  -15.6603 N   0  0  0  0  0  0  0  0  0  0  0  0
   25.8155  -19.3003  -15.0557 C   0  0  1  0  0  0  0  0  0  0  0  0
   27.1527  -18.7531  -15.3545 C   0  0  0  0  0  0  0  0  0  0  0  0
   28.2427  -19.6824  -15.6814 C   0  0  0  0  0  0  0  0  0  0  0  0
   27.9615  -20.7357  -16.7026 C   0  0  0  0  0  0  0  0  0  0  0  0
   29.2669  -21.5203  -16.9737 C   0  0  0  0  0  0  0  0  0  0  0  0
   28.9595  -22.5829  -17.8996 N   0  0  0  0  0  0  0  0  0  0  0  0
   25.5714  -19.2129  -13.5547 C   0  0  0  0  0  0  0  0  0  0  0  0
   24.9585  -18.2580  -13.0249 O   0  0  0  0  0  0  0  0  0  0  0  0
   23.1318  -19.7644   -9.3366 N   0  0  0  0  0  0  0  0  0  0  0  0
   23.2597  -20.7986  -10.3162 C   0  0  0  0  0  0  0  0  0  0  0  0
   22.7983  -21.9285  -10.0342 O   0  0  0  0  0  0  0  0  0  0  0  0
   23.9168  -20.5015  -11.6042 C   0  0  0  0  0  0  0  0  0  0  0  0
   25.4168  -20.4256  -11.3656 C   0  0  2  0  0  0  0  0  0  0  0  0
   26.0323  -20.2255  -12.6760 N   0  0  0  0  0  0  0  0  0  0  0  0
   25.9416  -21.6453  -10.7143 C   0  0  0  0  0  0  0  0  0  0  0  0
   26.0727  -21.6881   -9.4658 O   0  0  0  0  0  0  0  0  0  0  0  0
   26.3090  -22.7825  -11.4255 O   0  0  0  0  0  0  0  0  0  0  0  0
  2  3  1  0
  2  1  1  1
  3  4  1  0
  4  5  2  0
  6  5  1  0
  7  6  1  0
  8  7  2  0
  9  8  1  0
 10  9  2  0
 10 11  1  0
 11 12  2  0
 12  7  1  0
 12  4  1  0
 13  2  1  0
 13 14  2  0
 15 13  1  0
 16 22  1  0
 16 15  1  0
 16 17  1  1
 18 17  1  0
 19 18  1  0
 20 21  1  0
 20 19  1  0
 22 29  1  0
 23 22  2  0
 24 25  1  0
 25 26  2  0
 27 25  1  0
 28 27  1  6
 28 30  1  0
 29 28  1  0
 30 31  2  0
 30 32  1  0
M  END
$$$$
