WKN.pdb
     RDKit          3D

 32 33  0  0  1  0  0  0  0  0999 V2000
   26.9412  -21.2098  -11.9572 N   0  0  0  0  0  0  0  0  0  0  0  0
   25.7395  -20.6841  -12.5618 C   0  0  1  0  0  0  0  0  0  0  0  0
   25.7723  -20.8133  -14.0630 C   0  0  0  0  0  0  0  0  0  0  0  0
   26.8518  -20.1641  -14.7619 C   0  0  0  0  0  0  0  0  0  0  0  0
   28.0727  -20.7782  -15.0784 C   0  0  0  0  0  0  0  0  0  0  0  0
   28.8326  -19.9096  -15.7460 N   0  0  0  0  0  0  0  0  0  0  0  0
   28.1742  -18.7482  -15.8851 C   0  0  0  0  0  0  0  0  0  0  0  0
   28.5817  -17.5883  -16.4992 C   0  0  0  0  0  0  0  0  0  0  0  0
   27.7217  -16.5106  -16.5112 C   0  0  0  0  0  0  0  0  0  0  0  0
   26.4859  -16.6267  -15.9117 C   0  0  0  0  0  0  0  0  0  0  0  0
   26.1035  -17.7876  -15.3096 C   0  0  0  0  0  0  0  0  0  0  0  0
   26.9228  -18.8970  -15.2678 C   0  0  0  0  0  0  0  0  0  0  0  0
   24.4900  -21.2122  -12.0309 C   0  0  0  0  0  0  0  0  0  0  0  0
   24.3302  -22.4028  -11.6574 O   0  0  0  0  0  0  0  0  0  0  0  0
   23.3083  -20.3728  -11.8893 N   0  0  0  0  0  0  0  0  0  0  0  0
   22.0693  -20.8265  -11.3452 C   0  0  1  0  0  0  0  0  0  0  0  0
   21.3180  -19.9335  -10.4424 C   0  0  0  0  0  0  0  0  0  0  0  0
   20.1668  -20.4738   -9.7066 C   0  0  0  0  0  0  0  0  0  0  0  0
   20.4114  -21.6524   -8.8222 C   0  0  0  0  0  0  0  0  0  0  0  0
   19.0799  -22.0377   -8.1350 C   0  0  0  0  0  0  0  0  0  0  0  0
   19.3311  -23.1842   -7.2963 N   0  0  0  0  0  0  0  0  0  0  0  0
   21.1970  -21.1574  -12.5493 C   0  0  0  0  0  0  0  0  0  0  0  0
   20.8173  -20.2884  -13.3671 O   0  0  0  0  0  0  0  0  0  0  0  0
   22.5806  -25.3141  -14.1123 N   0  0  0  0  0  0  0  0  0  0  0  0
   21.7319  -24.3415  -14.7281 C   0  0  0  0  0  0  0  0  0  0  0  0
   22.2386  -23.5899  -15.5926 O   0  0  0  0  0  0  0  0  0  0  0  0
   20.3121  -24.2618  -14.3317 C   0  0  0  0  0  0  0  0  0  0  0  0
   19.9932  -22.8129  -13.9974 C   0  0  2  0  0  0  0  0  0  0  0  0
   20.7706  -22.4853  -12.8038 N   0  0  0  0  0  0  0  0  0  0  0  0
   18.5486  -22.5980  -13.7645 C   0  0  0  0  0  0  0  0  0  0  0  0
   17.8763  -21.9020  -14.5655 O   0  0  0  0  0  0  0  0  0  0  0  0
   17.8705  -23.1385  -12.6773 O   0  0  0  0  0  0  0  0  0  0  0  0
  2  3  1  0
  2  1  1  1
  3  4  1  0
  4  5  2  0
  6  5  1  0
  7  6  1  0
  8  7  2  0
  9  8  1  0
 10  9  2  0
 10 11  1  0
 11 12  2  0
 12  7  1  0
 12  4  1  0
 13  2  1  0
 13 14  2  0
 15 13  1  0
 16 22  1  0
 16 15  1  0
 16 17  1  6
 18 17  1  0
 19 18  1  0
 20 21  1  0
 20 19  1  0
 22 29  1  0
 23 22  2  0
 24 25  1  0
 25 26  2  0
 27 25  1  0
 28 27  1  1
 28 30  1  0
 29 28  1  0
 30 31  2  0
 30 32  1  0
M  END
$$$$
