WKN.pdb
     RDKit          3D

 32 33  0  0  1  0  0  0  0  0999 V2000
   27.6436  -20.3305  -11.2434 N   0  0  0  0  0  0  0  0  0  0  0  0
   26.4736  -20.9426  -10.6583 C   0  0  1  0  0  0  0  0  0  0  0  0
   26.5200  -20.8997   -9.1526 C   0  0  0  0  0  0  0  0  0  0  0  0
   27.8177  -20.9180   -8.5275 C   0  0  0  0  0  0  0  0  0  0  0  0
   28.9609  -21.5017   -9.0935 C   0  0  0  0  0  0  0  0  0  0  0  0
   29.9924  -21.3185   -8.2688 N   0  0  0  0  0  0  0  0  0  0  0  0
   29.5867  -20.6431   -7.1822 C   0  0  0  0  0  0  0  0  0  0  0  0
   30.3144  -20.2456   -6.0862 C   0  0  0  0  0  0  0  0  0  0  0  0
   29.6693  -19.5586   -5.0796 C   0  0  0  0  0  0  0  0  0  0  0  0
   28.3225  -19.2913   -5.2007 C   0  0  0  0  0  0  0  0  0  0  0  0
   27.6221  -19.6948   -6.2974 C   0  0  0  0  0  0  0  0  0  0  0  0
   28.2159  -20.3848   -7.3343 C   0  0  0  0  0  0  0  0  0  0  0  0
   25.1958  -20.4396  -11.1445 C   0  0  0  0  0  0  0  0  0  0  0  0
   24.4983  -19.5853  -10.5395 O   0  0  0  0  0  0  0  0  0  0  0  0
   24.6245  -20.9025  -12.4016 N   0  0  0  0  0  0  0  0  0  0  0  0
   23.4001  -20.4134  -12.9484 C   0  0  1  0  0  0  0  0  0  0  0  0
   23.3360  -20.1064  -14.3901 C   0  0  0  0  0  0  0  0  0  0  0  0
   22.0990  -19.5346  -14.9393 C   0  0  0  0  0  0  0  0  0  0  0  0
   22.0398  -19.3222  -16.4166 C   0  0  0  0  0  0  0  0  0  0  0  0
   20.6708  -18.6939  -16.7697 C   0  0  0  0  0  0  0  0  0  0  0  0
   20.5748  -18.6230  -18.2073 N   0  0  0  0  0  0  0  0  0  0  0  0
   22.3600  -21.4779  -12.6243 C   0  0  0  0  0  0  0  0  0  0  0  0
   22.6683  -22.6213  -12.2173 O   0  0  0  0  0  0  0  0  0  0  0  0
   19.1954  -23.6819   -8.9598 N   0  0  0  0  0  0  0  0  0  0  0  0
   19.3680  -23.5098  -10.3691 C   0  0  0  0  0  0  0  0  0  0  0  0
   18.6802  -24.2265  -11.1322 O   0  0  0  0  0  0  0  0  0  0  0  0
   20.3319  -22.5081  -10.8656 C   0  0  0  0  0  0  0  0  0  0  0  0
   19.9732  -22.1771  -12.3059 C   0  0  2  0  0  0  0  0  0  0  0  0
   20.9739  -21.2177  -12.7691 N   0  0  0  0  0  0  0  0  0  0  0  0
   18.6087  -21.6200  -12.4282 C   0  0  0  0  0  0  0  0  0  0  0  0
   17.6465  -22.3672  -12.7349 O   0  0  0  0  0  0  0  0  0  0  0  0
   18.3198  -20.2763  -12.2163 O   0  0  0  0  0  0  0  0  0  0  0  0
  2  3  1  0
  2  1  1  6
  3  4  1  0
  4  5  2  0
  6  5  1  0
  7  6  1  0
  8  7  2  0
  9  8  1  0
 10  9  2  0
 10 11  1  0
 11 12  2  0
 12  7  1  0
 12  4  1  0
 13  2  1  0
 13 14  2  0
 15 13  1  0
 16 22  1  0
 16 15  1  0
 16 17  1  6
 18 17  1  0
 19 18  1  0
 20 21  1  0
 20 19  1  0
 22 29  1  0
 23 22  2  0
 24 25  1  0
 25 26  2  0
 27 25  1  0
 28 27  1  1
 28 30  1  0
 29 28  1  0
 30 31  2  0
 30 32  1  0
M  END
$$$$
