WKN.pdb
     RDKit          3D

 32 33  0  0  1  0  0  0  0  0999 V2000
   26.7151  -18.7610   -9.1869 N   0  0  0  0  0  0  0  0  0  0  0  0
   26.5111  -20.1107   -9.6587 C   0  0  1  0  0  0  0  0  0  0  0  0
   26.0481  -21.0210   -8.5505 C   0  0  0  0  0  0  0  0  0  0  0  0
   26.4248  -20.6731   -7.2043 C   0  0  0  0  0  0  0  0  0  0  0  0
   25.5166  -20.3315   -6.1912 C   0  0  0  0  0  0  0  0  0  0  0  0
   26.1931  -20.0933   -5.0673 N   0  0  0  0  0  0  0  0  0  0  0  0
   27.5067  -20.2586   -5.2879 C   0  0  0  0  0  0  0  0  0  0  0  0
   28.5579  -20.1130   -4.4147 C   0  0  0  0  0  0  0  0  0  0  0  0
   29.8371  -20.3348   -4.8791 C   0  0  0  0  0  0  0  0  0  0  0  0
   30.0238  -20.6945   -6.1966 C   0  0  0  0  0  0  0  0  0  0  0  0
   28.9657  -20.8337   -7.0435 C   0  0  0  0  0  0  0  0  0  0  0  0
   27.6650  -20.6247   -6.6332 C   0  0  0  0  0  0  0  0  0  0  0  0
   25.6450  -20.2418  -10.8227 C   0  0  0  0  0  0  0  0  0  0  0  0
   24.6020  -19.5627  -11.0053 O   0  0  0  0  0  0  0  0  0  0  0  0
   25.9384  -21.1928  -11.8860 N   0  0  0  0  0  0  0  0  0  0  0  0
   25.3144  -21.1704  -13.1695 C   0  0  1  0  0  0  0  0  0  0  0  0
   25.9629  -21.8788  -14.2895 C   0  0  0  0  0  0  0  0  0  0  0  0
   27.2646  -21.3994  -14.7735 C   0  0  0  0  0  0  0  0  0  0  0  0
   27.9291  -22.1926  -15.8508 C   0  0  0  0  0  0  0  0  0  0  0  0
   29.2229  -21.4587  -16.2764 C   0  0  0  0  0  0  0  0  0  0  0  0
   29.8705  -22.2564  -17.2890 N   0  0  0  0  0  0  0  0  0  0  0  0
   23.9256  -21.7575  -12.9530 C   0  0  0  0  0  0  0  0  0  0  0  0
   23.7351  -22.8316  -12.3381 O   0  0  0  0  0  0  0  0  0  0  0  0
   18.8687  -21.7675  -11.1361 N   0  0  0  0  0  0  0  0  0  0  0  0
   19.2698  -21.0259  -12.2913 C   0  0  0  0  0  0  0  0  0  0  0  0
   18.3978  -20.7759  -13.1550 O   0  0  0  0  0  0  0  0  0  0  0  0
   20.6731  -20.5863  -12.4208 C   0  0  0  0  0  0  0  0  0  0  0  0
   21.4330  -21.6475  -13.2012 C   0  0  2  0  0  0  0  0  0  0  0  0
   22.7676  -21.1032  -13.4437 N   0  0  0  0  0  0  0  0  0  0  0  0
   20.7625  -21.9931  -14.4733 C   0  0  0  0  0  0  0  0  0  0  0  0
   21.0328  -21.3577  -15.5227 O   0  0  0  0  0  0  0  0  0  0  0  0
   19.8220  -23.0120  -14.5787 O   0  0  0  0  0  0  0  0  0  0  0  0
  2  3  1  0
  2  1  1  1
  3  4  1  0
  4  5  2  0
  6  5  1  0
  7  6  1  0
  8  7  2  0
  9  8  1  0
 10  9  2  0
 10 11  1  0
 11 12  2  0
 12  7  1  0
 12  4  1  0
 13  2  1  0
 13 14  2  0
 15 13  1  0
 16 22  1  0
 16 15  1  0
 16 17  1  6
 18 17  1  0
 19 18  1  0
 20 21  1  0
 20 19  1  0
 22 29  1  0
 23 22  2  0
 24 25  1  0
 25 26  2  0
 27 25  1  0
 28 27  1  6
 28 30  1  0
 29 28  1  0
 30 31  2  0
 30 32  1  0
M  END
$$$$
