AKV.pdb
     RDKit          3D

 22 21  0  0  1  0  0  0  0  0999 V2000
   28.4776  -22.7200  -16.3864 C   0  0  0  0  0  0  0  0  0  0  0  0
   27.5747  -21.7677  -17.1497 C   0  0  2  0  0  0  0  0  0  0  0  0
   28.3227  -20.9591  -18.0730 N   0  0  0  0  0  0  0  0  0  0  0  0
   26.8093  -20.8972  -16.2375 C   0  0  0  0  0  0  0  0  0  0  0  0
   27.3807  -19.9939  -15.5547 O   0  0  0  0  0  0  0  0  0  0  0  0
   25.4201  -21.0623  -16.1143 N   0  0  0  0  0  0  0  0  0  0  0  0
   24.6087  -20.1813  -15.2822 C   0  0  1  0  0  0  0  0  0  0  0  0
   23.3665  -19.8672  -16.0551 C   0  0  0  0  0  0  0  0  0  0  0  0
   23.3811  -18.5851  -16.8118 C   0  0  0  0  0  0  0  0  0  0  0  0
   22.1122  -18.4170  -17.6249 C   0  0  0  0  0  0  0  0  0  0  0  0
   22.1556  -17.2099  -18.5224 C   0  0  0  0  0  0  0  0  0  0  0  0
   20.9776  -17.1507  -19.3779 N   0  0  0  0  0  0  0  0  0  0  0  0
   24.2747  -20.8617  -13.9906 C   0  0  0  0  0  0  0  0  0  0  0  0
   23.8258  -22.0331  -13.9615 O   0  0  0  0  0  0  0  0  0  0  0  0
   26.5234  -20.6480  -10.6286 C   0  0  0  0  0  0  0  0  0  0  0  0
   25.0469  -20.4149  -10.3814 C   0  0  2  0  0  0  0  0  0  0  0  0
   24.6518  -21.2001   -9.1513 C   0  0  0  0  0  0  0  0  0  0  0  0
   24.2040  -20.9115  -11.5317 C   0  0  2  0  0  0  0  0  0  0  0  0
   24.4649  -20.1769  -12.7483 N   0  0  0  0  0  0  0  0  0  0  0  0
   22.7812  -20.7502  -11.1446 C   0  0  0  0  0  0  0  0  0  0  0  0
   22.0188  -21.7193  -10.5418 O   0  0  0  0  0  0  0  0  0  0  0  0
   22.2239  -19.6506  -11.3815 O   0  0  0  0  0  0  0  0  0  0  0  0
  2  1  1  1
  2  4  1  0
  3  2  1  0
  4  6  1  0
  4  5  2  0
  6  7  1  0
  7 13  1  0
  7  8  1  6
  8  9  1  0
  9 10  1  0
 10 11  1  0
 11 12  1  0
 13 14  2  0
 16 15  1  6
 16 18  1  0
 16 17  1  0
 19 13  1  0
 18 19  1  6
 20 18  1  0
 20 21  1  0
 22 20  2  0
M  END
$$$$
