AKV.pdb
     RDKit          3D

 22 21  0  0  1  0  0  0  0  0999 V2000
   24.5197  -10.4286  -18.7823 C   0  0  0  0  0  0  0  0  0  0  0  0
   23.4132  -11.0329  -17.9366 C   0  0  2  0  0  0  0  0  0  0  0  0
   22.8852  -12.2278  -18.5361 N   0  0  0  0  0  0  0  0  0  0  0  0
   22.3194  -10.0704  -17.7058 C   0  0  0  0  0  0  0  0  0  0  0  0
   21.9285   -9.2852  -18.6220 O   0  0  0  0  0  0  0  0  0  0  0  0
   21.6909  -10.0133  -16.4512 N   0  0  0  0  0  0  0  0  0  0  0  0
   20.5525   -9.1379  -16.1973 C   0  0  1  0  0  0  0  0  0  0  0  0
   19.4457   -9.9969  -15.6718 C   0  0  0  0  0  0  0  0  0  0  0  0
   18.1651   -9.2961  -15.3789 C   0  0  0  0  0  0  0  0  0  0  0  0
   17.0868  -10.2796  -14.9671 C   0  0  0  0  0  0  0  0  0  0  0  0
   15.7315   -9.6365  -14.8487 C   0  0  0  0  0  0  0  0  0  0  0  0
   14.7507  -10.5752  -14.3198 N   0  0  0  0  0  0  0  0  0  0  0  0
   20.9287   -8.0852  -15.2007 C   0  0  0  0  0  0  0  0  0  0  0  0
   21.4223   -8.3818  -14.0858 O   0  0  0  0  0  0  0  0  0  0  0  0
   21.4254   -4.0491  -16.3936 C   0  0  0  0  0  0  0  0  0  0  0  0
   22.0917   -4.6915  -15.1939 C   0  0  2  0  0  0  0  0  0  0  0  0
   23.3399   -5.3950  -15.6767 C   0  0  0  0  0  0  0  0  0  0  0  0
   21.2017   -5.7280  -14.5508 C   0  0  2  0  0  0  0  0  0  0  0  0
   20.7286   -6.7017  -15.5078 N   0  0  0  0  0  0  0  0  0  0  0  0
   20.0482   -5.0148  -13.9499 C   0  0  0  0  0  0  0  0  0  0  0  0
   20.0976   -4.2833  -12.7897 O   0  0  0  0  0  0  0  0  0  0  0  0
   18.9408   -5.0788  -14.5378 O   0  0  0  0  0  0  0  0  0  0  0  0
  2  1  1  6
  2  4  1  0
  3  2  1  0
  4  6  1  0
  4  5  2  0
  6  7  1  0
  7 13  1  0
  7  8  1  1
  8  9  1  0
  9 10  1  0
 10 11  1  0
 11 12  1  0
 13 14  2  0
 16 15  1  6
 16 18  1  0
 16 17  1  0
 19 13  1  0
 18 19  1  6
 20 18  1  0
 20 21  1  0
 22 20  2  0
M  END
$$$$
