AKV.pdb
     RDKit          3D

 22 21  0  0  1  0  0  0  0  0999 V2000
   20.5837  -21.7402  -15.8810 C   0  0  0  0  0  0  0  0  0  0  0  0
   21.1528  -22.8447  -15.0088 C   0  0  2  0  0  0  0  0  0  0  0  0
   21.9040  -23.7937  -15.7840 N   0  0  0  0  0  0  0  0  0  0  0  0
   20.0925  -23.5461  -14.2607 C   0  0  0  0  0  0  0  0  0  0  0  0
   19.3973  -24.4584  -14.8022 O   0  0  0  0  0  0  0  0  0  0  0  0
   19.8385  -23.2059  -12.9220 N   0  0  0  0  0  0  0  0  0  0  0  0
   18.7598  -23.8239  -12.1596 C   0  0  1  0  0  0  0  0  0  0  0  0
   19.2360  -23.9502  -10.7467 C   0  0  0  0  0  0  0  0  0  0  0  0
   18.2897  -24.6018   -9.7999 C   0  0  0  0  0  0  0  0  0  0  0  0
   18.8983  -24.7219   -8.4163 C   0  0  0  0  0  0  0  0  0  0  0  0
   17.9218  -25.2451   -7.3978 C   0  0  0  0  0  0  0  0  0  0  0  0
   18.5187  -25.2792   -6.0691 N   0  0  0  0  0  0  0  0  0  0  0  0
   17.5291  -22.9738  -12.2330 C   0  0  0  0  0  0  0  0  0  0  0  0
   17.5721  -21.7360  -12.0314 O   0  0  0  0  0  0  0  0  0  0  0  0
   15.1698  -22.8037  -15.2623 C   0  0  0  0  0  0  0  0  0  0  0  0
   14.3674  -23.0560  -14.0021 C   0  0  2  0  0  0  0  0  0  0  0  0
   13.1353  -22.1813  -14.0524 C   0  0  0  0  0  0  0  0  0  0  0  0
   15.1442  -22.6818  -12.7624 C   0  0  2  0  0  0  0  0  0  0  0  0
   16.2634  -23.5678  -12.5391 N   0  0  0  0  0  0  0  0  0  0  0  0
   14.2106  -22.7542  -11.6120 C   0  0  0  0  0  0  0  0  0  0  0  0
   13.5160  -21.6876  -11.0987 O   0  0  0  0  0  0  0  0  0  0  0  0
   14.0362  -23.8682  -11.0601 O   0  0  0  0  0  0  0  0  0  0  0  0
  2  1  1  6
  2  4  1  0
  3  2  1  0
  4  6  1  0
  4  5  2  0
  6  7  1  0
  7 13  1  0
  7  8  1  1
  8  9  1  0
  9 10  1  0
 10 11  1  0
 11 12  1  0
 13 14  2  0
 16 15  1  6
 16 18  1  0
 16 17  1  0
 19 13  1  0
 18 19  1  1
 20 18  1  0
 20 21  1  0
 22 20  2  0
M  END
$$$$
