AKV.pdb
     RDKit          3D

 22 21  0  0  1  0  0  0  0  0999 V2000
   15.5860   -7.0090  -17.7451 C   0  0  0  0  0  0  0  0  0  0  0  0
   16.1462   -8.4186  -17.6825 C   0  0  2  0  0  0  0  0  0  0  0  0
   15.1413   -9.3677  -17.2884 N   0  0  0  0  0  0  0  0  0  0  0  0
   17.2961   -8.5052  -16.7627 C   0  0  0  0  0  0  0  0  0  0  0  0
   17.1309   -8.6138  -15.5098 O   0  0  0  0  0  0  0  0  0  0  0  0
   18.6042   -8.4676  -17.2724 N   0  0  0  0  0  0  0  0  0  0  0  0
   19.7726   -8.4513  -16.3998 C   0  0  1  0  0  0  0  0  0  0  0  0
   20.7090   -9.5064  -16.8987 C   0  0  0  0  0  0  0  0  0  0  0  0
   21.9796   -9.6573  -16.1375 C   0  0  0  0  0  0  0  0  0  0  0  0
   22.7420  -10.8886  -16.5871 C   0  0  0  0  0  0  0  0  0  0  0  0
   24.0348  -11.0739  -15.8396 C   0  0  0  0  0  0  0  0  0  0  0  0
   24.6832  -12.3232  -16.2162 N   0  0  0  0  0  0  0  0  0  0  0  0
   20.4212   -7.1020  -16.4384 C   0  0  0  0  0  0  0  0  0  0  0  0
   20.7923   -6.5815  -17.5182 O   0  0  0  0  0  0  0  0  0  0  0  0
   19.3313   -3.9080  -16.4290 C   0  0  0  0  0  0  0  0  0  0  0  0
   20.2434   -3.9539  -15.2200 C   0  0  2  0  0  0  0  0  0  0  0  0
   21.0065   -2.6500  -15.1636 C   0  0  0  0  0  0  0  0  0  0  0  0
   21.2535   -5.0713  -15.3260 C   0  0  2  0  0  0  0  0  0  0  0  0
   20.6320   -6.3718  -15.2255 N   0  0  0  0  0  0  0  0  0  0  0  0
   22.2300   -4.8962  -14.2233 C   0  0  0  0  0  0  0  0  0  0  0  0
   23.3942   -4.1752  -14.3151 O   0  0  0  0  0  0  0  0  0  0  0  0
   21.9830   -5.4439  -13.1210 O   0  0  0  0  0  0  0  0  0  0  0  0
  2  1  1  1
  2  4  1  0
  3  2  1  0
  4  6  1  0
  4  5  2  0
  6  7  1  0
  7 13  1  0
  7  8  1  6
  8  9  1  0
  9 10  1  0
 10 11  1  0
 11 12  1  0
 13 14  2  0
 16 15  1  6
 16 18  1  0
 16 17  1  0
 19 13  1  0
 18 19  1  1
 20 18  1  0
 20 21  1  0
 22 20  2  0
M  END
$$$$
