AKV.pdb
     RDKit          3D

 22 21  0  0  1  0  0  0  0  0999 V2000
   29.4624  -21.7067  -17.8050 C   0  0  0  0  0  0  0  0  0  0  0  0
   28.4587  -22.4046  -16.9048 C   0  0  2  0  0  0  0  0  0  0  0  0
   27.5093  -23.1682  -17.6673 N   0  0  0  0  0  0  0  0  0  0  0  0
   27.7432  -21.4446  -16.0431 C   0  0  0  0  0  0  0  0  0  0  0  0
   28.3657  -20.7072  -15.2200 O   0  0  0  0  0  0  0  0  0  0  0  0
   26.3456  -21.3360  -16.1268 N   0  0  0  0  0  0  0  0  0  0  0  0
   25.5939  -20.3942  -15.3054 C   0  0  1  0  0  0  0  0  0  0  0  0
   24.5746  -19.7523  -16.1932 C   0  0  0  0  0  0  0  0  0  0  0  0
   25.0819  -18.6788  -17.0914 C   0  0  0  0  0  0  0  0  0  0  0  0
   23.9721  -18.1304  -17.9673 C   0  0  0  0  0  0  0  0  0  0  0  0
   24.4292  -16.9876  -18.8330 C   0  0  0  0  0  0  0  0  0  0  0  0
   23.3435  -16.5008  -19.6740 N   0  0  0  0  0  0  0  0  0  0  0  0
   24.9336  -21.1171  -14.1723 C   0  0  0  0  0  0  0  0  0  0  0  0
   24.2322  -22.1397  -14.3645 O   0  0  0  0  0  0  0  0  0  0  0  0
   25.2295  -19.8143   -9.9952 C   0  0  0  0  0  0  0  0  0  0  0  0
   25.0250  -21.2431  -10.4558 C   0  0  2  0  0  0  0  0  0  0  0  0
   26.3872  -21.8786  -10.6186 C   0  0  0  0  0  0  0  0  0  0  0  0
   24.3290  -21.3029  -11.7945 C   0  0  2  0  0  0  0  0  0  0  0  0
   25.0937  -20.6466  -12.8300 N   0  0  0  0  0  0  0  0  0  0  0  0
   23.0133  -20.6347  -11.6437 C   0  0  0  0  0  0  0  0  0  0  0  0
   22.6704  -19.4400  -12.2256 O   0  0  0  0  0  0  0  0  0  0  0  0
   22.1426  -21.1947  -10.9337 O   0  0  0  0  0  0  0  0  0  0  0  0
  2  1  1  6
  2  4  1  0
  3  2  1  0
  4  6  1  0
  4  5  2  0
  6  7  1  0
  7 13  1  0
  7  8  1  6
  8  9  1  0
  9 10  1  0
 10 11  1  0
 11 12  1  0
 13 14  2  0
 16 15  1  6
 16 18  1  0
 16 17  1  0
 19 13  1  0
 18 19  1  6
 20 18  1  0
 20 21  1  0
 22 20  2  0
M  END
$$$$
