AKV.pdb
     RDKit          3D

 22 21  0  0  1  0  0  0  0  0999 V2000
   21.4793  -12.6098  -22.8595 C   0  0  0  0  0  0  0  0  0  0  0  0
   21.3888  -13.2229  -21.4737 C   0  0  2  0  0  0  0  0  0  0  0  0
   21.1623  -14.6407  -21.5388 N   0  0  0  0  0  0  0  0  0  0  0  0
   20.3279  -12.5891  -20.6682 C   0  0  0  0  0  0  0  0  0  0  0  0
   19.2474  -12.1897  -21.1989 O   0  0  0  0  0  0  0  0  0  0  0  0
   20.5064  -12.4191  -19.2855 N   0  0  0  0  0  0  0  0  0  0  0  0
   19.4396  -11.9212  -18.4249 C   0  0  1  0  0  0  0  0  0  0  0  0
   19.3780  -12.8244  -17.2335 C   0  0  0  0  0  0  0  0  0  0  0  0
   18.4292  -13.9672  -17.3353 C   0  0  0  0  0  0  0  0  0  0  0  0
   18.4831  -14.8335  -16.0919 C   0  0  0  0  0  0  0  0  0  0  0  0
   17.5867  -16.0385  -16.1866 C   0  0  0  0  0  0  0  0  0  0  0  0
   17.7262  -16.8888  -15.0118 N   0  0  0  0  0  0  0  0  0  0  0  0
   19.7321  -10.5121  -18.0106 C   0  0  0  0  0  0  0  0  0  0  0  0
   20.8647  -10.1718  -17.5910 O   0  0  0  0  0  0  0  0  0  0  0  0
   17.2413   -7.3499  -19.2387 C   0  0  0  0  0  0  0  0  0  0  0  0
   18.6819   -7.1727  -18.8043 C   0  0  2  0  0  0  0  0  0  0  0  0
   19.5647   -7.4353  -20.0033 C   0  0  0  0  0  0  0  0  0  0  0  0
   19.0652   -8.1607  -17.7285 C   0  0  2  0  0  0  0  0  0  0  0  0
   18.7089   -9.5142  -18.0873 N   0  0  0  0  0  0  0  0  0  0  0  0
   18.3538   -7.7676  -16.4877 C   0  0  0  0  0  0  0  0  0  0  0  0
   18.6538   -6.6641  -15.7289 O   0  0  0  0  0  0  0  0  0  0  0  0
   17.4062   -8.4908  -16.0939 O   0  0  0  0  0  0  0  0  0  0  0  0
  2  1  1  6
  2  4  1  0
  3  2  1  0
  4  6  1  0
  4  5  2  0
  6  7  1  0
  7 13  1  0
  7  8  1  1
  8  9  1  0
  9 10  1  0
 10 11  1  0
 11 12  1  0
 13 14  2  0
 16 15  1  6
 16 18  1  0
 16 17  1  0
 19 13  1  0
 18 19  1  6
 20 18  1  0
 20 21  1  0
 22 20  2  0
M  END
$$$$
