AKV.pdb
     RDKit          3D

 22 21  0  0  1  0  0  0  0  0999 V2000
   24.0773  -13.9642  -16.5133 C   0  0  0  0  0  0  0  0  0  0  0  0
   25.4782  -14.5403  -16.4130 C   0  0  2  0  0  0  0  0  0  0  0  0
   26.2638  -14.2195  -17.5732 N   0  0  0  0  0  0  0  0  0  0  0  0
   25.4512  -16.0028  -16.2229 C   0  0  0  0  0  0  0  0  0  0  0  0
   24.9102  -16.7684  -17.0774 O   0  0  0  0  0  0  0  0  0  0  0  0
   26.0327  -16.5704  -15.0774 N   0  0  0  0  0  0  0  0  0  0  0  0
   26.0041  -18.0070  -14.8282 C   0  0  1  0  0  0  0  0  0  0  0  0
   27.1072  -18.3080  -13.8631 C   0  0  0  0  0  0  0  0  0  0  0  0
   27.2181  -19.7276  -13.4282 C   0  0  0  0  0  0  0  0  0  0  0  0
   28.3551  -19.9087  -12.4414 C   0  0  0  0  0  0  0  0  0  0  0  0
   28.5597  -21.3478  -12.0518 C   0  0  0  0  0  0  0  0  0  0  0  0
   29.7738  -21.5093  -11.2627 N   0  0  0  0  0  0  0  0  0  0  0  0
   24.6761  -18.4013  -14.2592 C   0  0  0  0  0  0  0  0  0  0  0  0
   24.1178  -17.7239  -13.3625 O   0  0  0  0  0  0  0  0  0  0  0  0
   21.4105  -18.7836  -15.9994 C   0  0  0  0  0  0  0  0  0  0  0  0
   21.6665  -20.0702  -15.2414 C   0  0  2  0  0  0  0  0  0  0  0  0
   20.3797  -20.4696  -14.5554 C   0  0  0  0  0  0  0  0  0  0  0  0
   22.7175  -19.8878  -14.1726 C   0  0  2  0  0  0  0  0  0  0  0  0
   24.0110  -19.5757  -14.7357 N   0  0  0  0  0  0  0  0  0  0  0  0
   22.7978  -21.1545  -13.4049 C   0  0  0  0  0  0  0  0  0  0  0  0
   22.0809  -21.4274  -12.2669 O   0  0  0  0  0  0  0  0  0  0  0  0
   23.5759  -22.0489  -13.8179 O   0  0  0  0  0  0  0  0  0  0  0  0
  2  1  1  6
  2  4  1  0
  3  2  1  0
  4  6  1  0
  4  5  2  0
  6  7  1  0
  7 13  1  0
  7  8  1  1
  8  9  1  0
  9 10  1  0
 10 11  1  0
 11 12  1  0
 13 14  2  0
 16 15  1  1
 16 18  1  0
 16 17  1  0
 19 13  1  0
 18 19  1  6
 20 18  1  0
 20 21  1  0
 22 20  2  0
M  END
$$$$
