YDY.pdb
     RDKit          3D

 33 34  0  0  1  0  0  0  0  0999 V2000
    6.8244  -11.9849   17.4829 O   0  0  0  0  0  0  0  0  0  0  0  0
    7.2028  -12.6963   18.6155 C   0  0  0  0  0  0  0  0  0  0  0  0
    6.2678  -13.5002   19.2336 C   0  0  0  0  0  0  0  0  0  0  0  0
    6.6311  -14.2013   20.3452 C   0  0  0  0  0  0  0  0  0  0  0  0
    7.9161  -14.1468   20.8964 C   0  0  0  0  0  0  0  0  0  0  0  0
    8.2648  -14.9280   22.1077 C   0  0  0  0  0  0  0  0  0  0  0  0
    8.9496  -16.2107   21.6863 C   0  0  2  0  0  0  0  0  0  0  0  0
    7.9449  -17.0803   21.1090 N   0  0  0  0  0  0  0  0  0  0  0  0
    9.5965  -16.9024   22.8014 C   0  0  0  0  0  0  0  0  0  0  0  0
    8.9223  -17.6045   23.5869 O   0  0  0  0  0  0  0  0  0  0  0  0
    8.8212  -13.3315   20.2486 C   0  0  0  0  0  0  0  0  0  0  0  0
    8.4861  -12.6064   19.1187 C   0  0  0  0  0  0  0  0  0  0  0  0
   10.9960  -16.8325   23.0699 N   0  0  0  0  0  0  0  0  0  0  0  0
   11.6026  -17.4453   24.2103 C   0  0  1  0  0  0  0  0  0  0  0  0
   13.0764  -17.6826   24.0704 C   0  0  0  0  0  0  0  0  0  0  0  0
   13.6599  -18.4814   25.1496 C   0  0  0  0  0  0  0  0  0  0  0  0
   14.7505  -18.1629   25.6625 O   0  0  0  0  0  0  0  0  0  0  0  0
   11.2847  -16.6876   25.4454 C   0  0  0  0  0  0  0  0  0  0  0  0
   11.7512  -15.5285   25.5716 O   0  0  0  0  0  0  0  0  0  0  0  0
   13.0226  -19.6016   25.6255 O   0  0  0  0  0  0  0  0  0  0  0  0
    6.8651  -11.7022   25.2030 O   0  0  0  0  0  0  0  0  0  0  0  0
    7.3243  -12.8412   25.8714 C   0  0  0  0  0  0  0  0  0  0  0  0
    8.0256  -12.7761   27.0484 C   0  0  0  0  0  0  0  0  0  0  0  0
    8.5008  -13.8600   27.7484 C   0  0  0  0  0  0  0  0  0  0  0  0
    8.2531  -15.1339   27.2245 C   0  0  0  0  0  0  0  0  0  0  0  0
    8.7597  -16.3287   27.9345 C   0  0  0  0  0  0  0  0  0  0  0  0
   10.2373  -16.5254   27.7207 C   0  0  2  0  0  0  0  0  0  0  0  0
   10.4738  -17.2535   26.4624 N   0  0  0  0  0  0  0  0  0  0  0  0
   10.8774  -17.2905   28.8124 C   0  0  0  0  0  0  0  0  0  0  0  0
   10.8303  -16.8481   29.9833 O   0  0  0  0  0  0  0  0  0  0  0  0
    7.5417  -15.2259   26.0280 C   0  0  0  0  0  0  0  0  0  0  0  0
    7.0833  -14.1131   25.3588 C   0  0  0  0  0  0  0  0  0  0  0  0
   11.5388  -18.4925   28.6065 O   0  0  0  0  0  0  0  0  0  0  0  0
  2  1  1  0
  3  2  2  0
  4  3  1  0
  5 11  1  0
  5  4  2  0
  6  5  1  0
  7  9  1  0
  7  6  1  0
  7  8  1  1
  9 10  2  0
 11 12  2  0
 12  2  1  0
 13 14  1  0
 13  9  1  0
 14 15  1  6
 15 16  1  0
 16 20  1  0
 17 16  2  0
 18 14  1  0
 19 18  2  0
 22 23  2  0
 22 21  1  0
 24 23  1  0
 25 24  2  0
 27 26  1  1
 26 25  1  0
 27 28  1  0
 28 18  1  0
 29 27  1  0
 29 33  1  0
 30 29  2  0
 31 25  1  0
 31 32  2  0
 32 22  1  0
M  END
$$$$
