YDY.pdb
     RDKit          3D

 33 34  0  0  1  0  0  0  0  0999 V2000
    5.6578  -12.1358   25.7072 O   0  0  0  0  0  0  0  0  0  0  0  0
    5.8798  -13.2863   24.9593 C   0  0  0  0  0  0  0  0  0  0  0  0
    6.7233  -13.2137   23.8704 C   0  0  0  0  0  0  0  0  0  0  0  0
    6.9464  -14.3378   23.1316 C   0  0  0  0  0  0  0  0  0  0  0  0
    6.3578  -15.5731   23.4242 C   0  0  0  0  0  0  0  0  0  0  0  0
    6.6307  -16.7692   22.5910 C   0  0  0  0  0  0  0  0  0  0  0  0
    7.3735  -17.7914   23.4248 C   0  0  2  0  0  0  0  0  0  0  0  0
    7.1871  -17.4454   24.8192 N   0  0  0  0  0  0  0  0  0  0  0  0
    8.8059  -17.8325   23.1301 C   0  0  0  0  0  0  0  0  0  0  0  0
    9.2639  -18.6829   22.3352 O   0  0  0  0  0  0  0  0  0  0  0  0
    5.5211  -15.6033   24.5208 C   0  0  0  0  0  0  0  0  0  0  0  0
    5.2728  -14.4816   25.2922 C   0  0  0  0  0  0  0  0  0  0  0  0
    9.7573  -16.9385   23.7053 N   0  0  0  0  0  0  0  0  0  0  0  0
   11.1569  -17.2235   23.7670 C   0  0  1  0  0  0  0  0  0  0  0  0
   12.0265  -16.1765   23.1379 C   0  0  0  0  0  0  0  0  0  0  0  0
   11.9819  -16.1603   21.6747 C   0  0  0  0  0  0  0  0  0  0  0  0
   11.9616  -17.2234   21.0242 O   0  0  0  0  0  0  0  0  0  0  0  0
   11.5728  -17.5158   25.1607 C   0  0  0  0  0  0  0  0  0  0  0  0
   12.7301  -17.9620   25.3573 O   0  0  0  0  0  0  0  0  0  0  0  0
   11.9612  -14.9751   20.9801 O   0  0  0  0  0  0  0  0  0  0  0  0
   11.4777  -11.5332   28.5000 O   0  0  0  0  0  0  0  0  0  0  0  0
   11.1667  -12.8959   28.5334 C   0  0  0  0  0  0  0  0  0  0  0  0
   11.8545  -13.7930   29.3103 C   0  0  0  0  0  0  0  0  0  0  0  0
   11.5939  -15.1411   29.3832 C   0  0  0  0  0  0  0  0  0  0  0  0
   10.5449  -15.6451   28.6058 C   0  0  0  0  0  0  0  0  0  0  0  0
   10.2386  -17.0920   28.6392 C   0  0  0  0  0  0  0  0  0  0  0  0
   10.9929  -17.8510   27.5796 C   0  0  2  0  0  0  0  0  0  0  0  0
   10.6889  -17.2985   26.2485 N   0  0  0  0  0  0  0  0  0  0  0  0
   10.6576  -19.2912   27.5583 C   0  0  0  0  0  0  0  0  0  0  0  0
   11.3551  -20.0950   28.2188 O   0  0  0  0  0  0  0  0  0  0  0  0
    9.8304  -14.7520   27.8070 C   0  0  0  0  0  0  0  0  0  0  0  0
   10.1252  -13.4076   27.7639 C   0  0  0  0  0  0  0  0  0  0  0  0
    9.5940  -19.8093   26.8337 O   0  0  0  0  0  0  0  0  0  0  0  0
  2  1  1  0
  3  2  2  0
  4  3  1  0
  5 11  1  0
  5  4  2  0
  6  5  1  0
  7  9  1  0
  7  6  1  0
  7  8  1  1
  9 10  2  0
 11 12  2  0
 12  2  1  0
 13 14  1  0
 13  9  1  0
 14 15  1  1
 15 16  1  0
 16 20  1  0
 17 16  2  0
 18 14  1  0
 19 18  2  0
 22 23  2  0
 22 21  1  0
 24 23  1  0
 25 24  2  0
 27 26  1  1
 26 25  1  0
 27 28  1  0
 28 18  1  0
 29 27  1  0
 29 33  1  0
 30 29  2  0
 31 25  1  0
 31 32  2  0
 32 22  1  0
M  END
$$$$
