YDY.pdb
     RDKit          3D

 33 34  0  0  1  0  0  0  0  0999 V2000
    7.1858  -12.3798   16.6356 O   0  0  0  0  0  0  0  0  0  0  0  0
    7.3127  -13.0478   17.8480 C   0  0  0  0  0  0  0  0  0  0  0  0
    6.7502  -14.3009   17.9738 C   0  0  0  0  0  0  0  0  0  0  0  0
    6.8702  -14.9628   19.1598 C   0  0  0  0  0  0  0  0  0  0  0  0
    7.5413  -14.4310   20.2665 C   0  0  0  0  0  0  0  0  0  0  0  0
    7.6460  -15.1890   21.5368 C   0  0  0  0  0  0  0  0  0  0  0  0
    9.0786  -15.1387   22.0238 C   0  0  2  0  0  0  0  0  0  0  0  0
    9.9358  -15.5136   20.9177 N   0  0  0  0  0  0  0  0  0  0  0  0
    9.3284  -16.0400   23.1488 C   0  0  0  0  0  0  0  0  0  0  0  0
    8.4780  -16.1687   24.0570 O   0  0  0  0  0  0  0  0  0  0  0  0
    8.0895  -13.1760   20.0996 C   0  0  0  0  0  0  0  0  0  0  0  0
    7.9864  -12.4766   18.9100 C   0  0  0  0  0  0  0  0  0  0  0  0
   10.5182  -16.8141   23.2923 N   0  0  0  0  0  0  0  0  0  0  0  0
   10.8280  -17.5556   24.4748 C   0  0  1  0  0  0  0  0  0  0  0  0
   12.0246  -18.4496   24.3449 C   0  0  0  0  0  0  0  0  0  0  0  0
   11.9476  -19.3959   23.2306 C   0  0  0  0  0  0  0  0  0  0  0  0
   10.9173  -20.0694   23.0343 O   0  0  0  0  0  0  0  0  0  0  0  0
   10.9435  -16.6525   25.6461 C   0  0  0  0  0  0  0  0  0  0  0  0
   11.7557  -15.6967   25.5853 O   0  0  0  0  0  0  0  0  0  0  0  0
   13.0069  -19.5670   22.3726 O   0  0  0  0  0  0  0  0  0  0  0  0
    6.1155  -12.4694   24.6096 O   0  0  0  0  0  0  0  0  0  0  0  0
    6.8198  -13.2190   25.5567 C   0  0  0  0  0  0  0  0  0  0  0  0
    6.5092  -14.5229   25.8480 C   0  0  0  0  0  0  0  0  0  0  0  0
    7.1652  -15.3072   26.7674 C   0  0  0  0  0  0  0  0  0  0  0  0
    8.2357  -14.7364   27.4653 C   0  0  0  0  0  0  0  0  0  0  0  0
    8.9605  -15.5370   28.4762 C   0  0  0  0  0  0  0  0  0  0  0  0
   10.3119  -15.9789   27.9801 C   0  0  2  0  0  0  0  0  0  0  0  0
   10.1580  -16.8589   26.8090 N   0  0  0  0  0  0  0  0  0  0  0  0
   11.0839  -16.7181   29.0021 C   0  0  0  0  0  0  0  0  0  0  0  0
   11.4037  -16.1419   30.0674 O   0  0  0  0  0  0  0  0  0  0  0  0
    8.5706  -13.4112   27.1865 C   0  0  0  0  0  0  0  0  0  0  0  0
    7.8862  -12.6608   26.2566 C   0  0  0  0  0  0  0  0  0  0  0  0
   11.4801  -18.0381   28.8424 O   0  0  0  0  0  0  0  0  0  0  0  0
  2  1  1  0
  3  2  2  0
  4  3  1  0
  5 11  1  0
  5  4  2  0
  6  5  1  0
  7  9  1  0
  7  6  1  0
  7  8  1  6
  9 10  2  0
 11 12  2  0
 12  2  1  0
 13 14  1  0
 13  9  1  0
 14 15  1  6
 15 16  1  0
 16 20  1  0
 17 16  2  0
 18 14  1  0
 19 18  2  0
 22 23  2  0
 22 21  1  0
 24 23  1  0
 25 24  2  0
 27 26  1  1
 26 25  1  0
 27 28  1  0
 28 18  1  0
 29 27  1  0
 29 33  1  0
 30 29  2  0
 31 25  1  0
 31 32  2  0
 32 22  1  0
M  END
$$$$
