YDY.pdb
     RDKit          3D

 33 34  0  0  1  0  0  0  0  0999 V2000
    8.6205  -11.5494   20.6825 O   0  0  0  0  0  0  0  0  0  0  0  0
    8.0107  -12.7815   20.4768 C   0  0  0  0  0  0  0  0  0  0  0  0
    7.4754  -13.0545   19.2353 C   0  0  0  0  0  0  0  0  0  0  0  0
    6.8756  -14.2608   19.0254 C   0  0  0  0  0  0  0  0  0  0  0  0
    6.7743  -15.2456   20.0142 C   0  0  0  0  0  0  0  0  0  0  0  0
    6.1122  -16.5437   19.7388 C   0  0  0  0  0  0  0  0  0  0  0  0
    6.2913  -17.4520   20.9367 C   0  0  2  0  0  0  0  0  0  0  0  0
    5.5724  -16.8649   22.0490 N   0  0  0  0  0  0  0  0  0  0  0  0
    7.6942  -17.6263   21.3131 C   0  0  0  0  0  0  0  0  0  0  0  0
    7.9995  -17.9588   22.4796 O   0  0  0  0  0  0  0  0  0  0  0  0
    7.3220  -14.9334   21.2414 C   0  0  0  0  0  0  0  0  0  0  0  0
    7.9378  -13.7191   21.4886 C   0  0  0  0  0  0  0  0  0  0  0  0
    8.7838  -17.4374   20.4116 N   0  0  0  0  0  0  0  0  0  0  0  0
   10.1402  -17.7302   20.7559 C   0  0  1  0  0  0  0  0  0  0  0  0
   11.1018  -17.6279   19.6101 C   0  0  0  0  0  0  0  0  0  0  0  0
   12.4555  -18.0910   19.9205 C   0  0  0  0  0  0  0  0  0  0  0  0
   13.4281  -17.7312   19.2291 O   0  0  0  0  0  0  0  0  0  0  0  0
   10.5774  -16.9109   21.9127 C   0  0  0  0  0  0  0  0  0  0  0  0
   10.6721  -15.6678   21.7621 O   0  0  0  0  0  0  0  0  0  0  0  0
   12.6900  -18.9332   20.9803 O   0  0  0  0  0  0  0  0  0  0  0  0
   10.1903  -13.4694   29.8403 O   0  0  0  0  0  0  0  0  0  0  0  0
   10.0631  -14.1950   28.6519 C   0  0  0  0  0  0  0  0  0  0  0  0
   10.2626  -15.5505   28.5877 C   0  0  0  0  0  0  0  0  0  0  0  0
   10.1517  -16.3146   27.4500 C   0  0  0  0  0  0  0  0  0  0  0  0
    9.8082  -15.6644   26.2591 C   0  0  0  0  0  0  0  0  0  0  0  0
    9.6937  -16.4433   25.0066 C   0  0  0  0  0  0  0  0  0  0  0  0
   11.0368  -16.6847   24.3699 C   0  0  2  0  0  0  0  0  0  0  0  0
   10.8822  -17.5117   23.1609 N   0  0  0  0  0  0  0  0  0  0  0  0
   11.9827  -17.3761   25.2722 C   0  0  0  0  0  0  0  0  0  0  0  0
   12.8746  -16.7148   25.8521 O   0  0  0  0  0  0  0  0  0  0  0  0
    9.6003  -14.2856   26.2990 C   0  0  0  0  0  0  0  0  0  0  0  0
    9.7220  -13.5580   27.4618 C   0  0  0  0  0  0  0  0  0  0  0  0
   11.9351  -18.7411   25.5154 O   0  0  0  0  0  0  0  0  0  0  0  0
  2  1  1  0
  3  2  2  0
  4  3  1  0
  5 11  1  0
  5  4  2  0
  6  5  1  0
  7  9  1  0
  7  6  1  0
  7  8  1  1
  9 10  2  0
 11 12  2  0
 12  2  1  0
 13 14  1  0
 13  9  1  0
 14 15  1  6
 15 16  1  0
 16 20  1  0
 17 16  2  0
 18 14  1  0
 19 18  2  0
 22 23  2  0
 22 21  1  0
 24 23  1  0
 25 24  2  0
 27 26  1  1
 26 25  1  0
 27 28  1  0
 28 18  1  0
 29 27  1  0
 29 33  1  0
 30 29  2  0
 31 25  1  0
 31 32  2  0
 32 22  1  0
M  END
$$$$
