YDY.pdb
     RDKit          3D

 33 34  0  0  1  0  0  0  0  0999 V2000
    6.7198  -12.1774   16.8099 O   0  0  0  0  0  0  0  0  0  0  0  0
    7.0974  -12.8816   17.9473 C   0  0  0  0  0  0  0  0  0  0  0  0
    8.3697  -12.6964   18.4468 C   0  0  0  0  0  0  0  0  0  0  0  0
    8.7478  -13.3834   19.5622 C   0  0  0  0  0  0  0  0  0  0  0  0
    7.9034  -14.2754   20.2325 C   0  0  0  0  0  0  0  0  0  0  0  0
    8.3596  -15.0006   21.4430 C   0  0  0  0  0  0  0  0  0  0  0  0
    9.1941  -16.1905   21.0191 C   0  0  2  0  0  0  0  0  0  0  0  0
    8.3169  -17.1322   20.3538 N   0  0  0  0  0  0  0  0  0  0  0  0
    9.8455  -16.8583   22.1460 C   0  0  0  0  0  0  0  0  0  0  0  0
    9.2059  -17.6606   22.8615 O   0  0  0  0  0  0  0  0  0  0  0  0
    6.6399  -14.4322   19.7010 C   0  0  0  0  0  0  0  0  0  0  0  0
    6.2236  -13.7509   18.5709 C   0  0  0  0  0  0  0  0  0  0  0  0
   11.2114  -16.6538   22.5039 N   0  0  0  0  0  0  0  0  0  0  0  0
   11.7853  -17.1607   23.7112 C   0  0  1  0  0  0  0  0  0  0  0  0
   13.2817  -17.0809   23.7621 C   0  0  0  0  0  0  0  0  0  0  0  0
   13.9518  -17.6330   22.5835 C   0  0  0  0  0  0  0  0  0  0  0  0
   13.7451  -18.8080   22.2227 O   0  0  0  0  0  0  0  0  0  0  0  0
   11.1621  -16.5238   24.8972 C   0  0  0  0  0  0  0  0  0  0  0  0
   10.9303  -15.2902   24.8597 O   0  0  0  0  0  0  0  0  0  0  0  0
   14.8252  -16.8724   21.8444 O   0  0  0  0  0  0  0  0  0  0  0  0
    6.7970  -11.1408   26.9428 O   0  0  0  0  0  0  0  0  0  0  0  0
    7.2181  -12.4631   26.7722 C   0  0  0  0  0  0  0  0  0  0  0  0
    8.3176  -12.7989   26.0241 C   0  0  0  0  0  0  0  0  0  0  0  0
    8.7775  -14.0788   25.8219 C   0  0  0  0  0  0  0  0  0  0  0  0
    8.0728  -15.1274   26.4243 C   0  0  0  0  0  0  0  0  0  0  0  0
    8.5209  -16.5224   26.2209 C   0  0  0  0  0  0  0  0  0  0  0  0
    9.7886  -16.8216   26.9768 C   0  0  2  0  0  0  0  0  0  0  0  0
   10.8339  -17.2849   26.0483 N   0  0  0  0  0  0  0  0  0  0  0  0
    9.6073  -17.8645   28.0095 C   0  0  0  0  0  0  0  0  0  0  0  0
    9.7397  -19.0700   27.6962 O   0  0  0  0  0  0  0  0  0  0  0  0
    6.9506  -14.8109   27.1902 C   0  0  0  0  0  0  0  0  0  0  0  0
    6.5242  -13.5135   27.3670 C   0  0  0  0  0  0  0  0  0  0  0  0
    9.2930  -17.5751   29.3294 O   0  0  0  0  0  0  0  0  0  0  0  0
  2  1  1  0
  3  2  2  0
  4  3  1  0
  5 11  1  0
  5  4  2  0
  6  5  1  0
  7  9  1  0
  7  6  1  0
  7  8  1  1
  9 10  2  0
 11 12  2  0
 12  2  1  0
 13 14  1  0
 13  9  1  0
 14 15  1  6
 15 16  1  0
 16 20  1  0
 17 16  2  0
 18 14  1  0
 19 18  2  0
 22 23  2  0
 22 21  1  0
 24 23  1  0
 25 24  2  0
 27 26  1  6
 26 25  1  0
 27 28  1  0
 28 18  1  0
 29 27  1  0
 29 33  1  0
 30 29  2  0
 31 25  1  0
 31 32  2  0
 32 22  1  0
M  END
$$$$
