YDY.pdb
     RDKit          3D

 33 34  0  0  1  0  0  0  0  0999 V2000
    7.2189  -12.4829   16.9273 O   0  0  0  0  0  0  0  0  0  0  0  0
    7.6390  -13.1402   18.0778 C   0  0  0  0  0  0  0  0  0  0  0  0
    6.7045  -13.8263   18.8251 C   0  0  0  0  0  0  0  0  0  0  0  0
    7.1085  -14.4736   19.9550 C   0  0  0  0  0  0  0  0  0  0  0  0
    8.4352  -14.4777   20.3998 C   0  0  0  0  0  0  0  0  0  0  0  0
    8.8274  -15.1966   21.6362 C   0  0  0  0  0  0  0  0  0  0  0  0
    9.6143  -16.4335   21.2581 C   0  0  2  0  0  0  0  0  0  0  0  0
    8.7116  -17.3435   20.5830 N   0  0  0  0  0  0  0  0  0  0  0  0
   10.1986  -17.1111   22.4156 C   0  0  0  0  0  0  0  0  0  0  0  0
    9.4745  -17.7668   23.1968 O   0  0  0  0  0  0  0  0  0  0  0  0
    9.3384  -13.7800   19.6245 C   0  0  0  0  0  0  0  0  0  0  0  0
    8.9625  -13.1122   18.4723 C   0  0  0  0  0  0  0  0  0  0  0  0
   11.5894  -17.0779   22.7319 N   0  0  0  0  0  0  0  0  0  0  0  0
   12.1276  -17.6229   23.9391 C   0  0  1  0  0  0  0  0  0  0  0  0
   13.6002  -17.8996   23.8866 C   0  0  0  0  0  0  0  0  0  0  0  0
   14.1246  -18.5815   25.0712 C   0  0  0  0  0  0  0  0  0  0  0  0
   13.3548  -19.1001   25.9032 O   0  0  0  0  0  0  0  0  0  0  0  0
   11.7708  -16.7754   25.1032 C   0  0  0  0  0  0  0  0  0  0  0  0
   12.1459  -15.5770   25.1066 O   0  0  0  0  0  0  0  0  0  0  0  0
   15.4769  -18.6679   25.2978 O   0  0  0  0  0  0  0  0  0  0  0  0
    6.6064  -11.2154   26.8706 O   0  0  0  0  0  0  0  0  0  0  0  0
    7.1535  -12.5020   26.8834 C   0  0  0  0  0  0  0  0  0  0  0  0
    8.0714  -12.9065   27.8188 C   0  0  0  0  0  0  0  0  0  0  0  0
    8.6420  -14.1561   27.8803 C   0  0  0  0  0  0  0  0  0  0  0  0
    8.2605  -15.0950   26.9150 C   0  0  0  0  0  0  0  0  0  0  0  0
    8.8606  -16.4470   26.9316 C   0  0  0  0  0  0  0  0  0  0  0  0
   10.3514  -16.3980   27.1386 C   0  0  2  0  0  0  0  0  0  0  0  0
   11.0240  -17.3006   26.1888 N   0  0  0  0  0  0  0  0  0  0  0  0
   10.7537  -16.7983   28.5043 C   0  0  0  0  0  0  0  0  0  0  0  0
   11.0209  -17.9992   28.7397 O   0  0  0  0  0  0  0  0  0  0  0  0
    7.3281  -14.7070   25.9526 C   0  0  0  0  0  0  0  0  0  0  0  0
    6.7809  -13.4436   25.9277 C   0  0  0  0  0  0  0  0  0  0  0  0
   10.8529  -15.9002   29.5571 O   0  0  0  0  0  0  0  0  0  0  0  0
  2  1  1  0
  3  2  2  0
  4  3  1  0
  5 11  1  0
  5  4  2  0
  6  5  1  0
  7  9  1  0
  7  6  1  0
  7  8  1  1
  9 10  2  0
 11 12  2  0
 12  2  1  0
 13 14  1  0
 13  9  1  0
 14 15  1  6
 15 16  1  0
 16 20  1  0
 17 16  2  0
 18 14  1  0
 19 18  2  0
 22 23  2  0
 22 21  1  0
 24 23  1  0
 25 24  2  0
 27 26  1  1
 26 25  1  0
 27 28  1  0
 28 18  1  0
 29 27  1  0
 29 33  1  0
 30 29  2  0
 31 25  1  0
 31 32  2  0
 32 22  1  0
M  END
$$$$
