YDY.pdb
     RDKit          3D

 33 34  0  0  1  0  0  0  0  0999 V2000
    7.1906  -12.2065   17.1436 O   0  0  0  0  0  0  0  0  0  0  0  0
    7.5101  -12.9080   18.3003 C   0  0  0  0  0  0  0  0  0  0  0  0
    6.8117  -12.6285   19.4565 C   0  0  0  0  0  0  0  0  0  0  0  0
    7.1190  -13.3123   20.5953 C   0  0  0  0  0  0  0  0  0  0  0  0
    8.1161  -14.2924   20.6521 C   0  0  0  0  0  0  0  0  0  0  0  0
    8.4149  -15.0102   21.9149 C   0  0  0  0  0  0  0  0  0  0  0  0
    8.8247  -16.4307   21.5890 C   0  0  2  0  0  0  0  0  0  0  0  0
    7.6417  -17.1440   21.1528 N   0  0  0  0  0  0  0  0  0  0  0  0
    9.4098  -17.1301   22.7330 C   0  0  0  0  0  0  0  0  0  0  0  0
    8.6961  -17.8473   23.4684 O   0  0  0  0  0  0  0  0  0  0  0  0
    8.7908  -14.5419   19.4748 C   0  0  0  0  0  0  0  0  0  0  0  0
    8.5046  -13.8667   18.3014 C   0  0  0  0  0  0  0  0  0  0  0  0
   10.7899  -17.0514   23.0861 N   0  0  0  0  0  0  0  0  0  0  0  0
   11.3363  -17.6896   24.2429 C   0  0  1  0  0  0  0  0  0  0  0  0
   12.7751  -18.0877   24.1044 C   0  0  0  0  0  0  0  0  0  0  0  0
   13.3056  -18.8269   25.2513 C   0  0  0  0  0  0  0  0  0  0  0  0
   12.6048  -19.6656   25.8506 O   0  0  0  0  0  0  0  0  0  0  0  0
   11.1106  -16.8639   25.4545 C   0  0  0  0  0  0  0  0  0  0  0  0
   11.6285  -15.7210   25.5031 O   0  0  0  0  0  0  0  0  0  0  0  0
   14.5879  -18.6166   25.6975 O   0  0  0  0  0  0  0  0  0  0  0  0
    6.9634  -11.7376   25.0116 O   0  0  0  0  0  0  0  0  0  0  0  0
    7.4071  -12.8388   25.7499 C   0  0  0  0  0  0  0  0  0  0  0  0
    6.8719  -14.0931   25.6020 C   0  0  0  0  0  0  0  0  0  0  0  0
    7.2673  -15.2104   26.2990 C   0  0  0  0  0  0  0  0  0  0  0  0
    8.2971  -15.0639   27.2354 C   0  0  0  0  0  0  0  0  0  0  0  0
    8.7443  -16.2350   28.0209 C   0  0  0  0  0  0  0  0  0  0  0  0
   10.1935  -16.5594   27.7710 C   0  0  2  0  0  0  0  0  0  0  0  0
   10.3295  -17.3485   26.5348 N   0  0  0  0  0  0  0  0  0  0  0  0
   10.8050  -17.3351   28.8716 C   0  0  0  0  0  0  0  0  0  0  0  0
   10.8040  -16.8628   30.0317 O   0  0  0  0  0  0  0  0  0  0  0  0
    8.8574  -13.7976   27.4040 C   0  0  0  0  0  0  0  0  0  0  0  0
    8.4308  -12.7040   26.6840 C   0  0  0  0  0  0  0  0  0  0  0  0
   11.3899  -18.5794   28.6857 O   0  0  0  0  0  0  0  0  0  0  0  0
  2  1  1  0
  3  2  2  0
  4  3  1  0
  5 11  1  0
  5  4  2  0
  6  5  1  0
  7  9  1  0
  7  6  1  0
  7  8  1  1
  9 10  2  0
 11 12  2  0
 12  2  1  0
 13 14  1  0
 13  9  1  0
 14 15  1  6
 15 16  1  0
 16 20  1  0
 17 16  2  0
 18 14  1  0
 19 18  2  0
 22 23  2  0
 22 21  1  0
 24 23  1  0
 25 24  2  0
 27 26  1  1
 26 25  1  0
 27 28  1  0
 28 18  1  0
 29 27  1  0
 29 33  1  0
 30 29  2  0
 31 25  1  0
 31 32  2  0
 32 22  1  0
M  END
$$$$
