YDY.pdb
     RDKit          3D

 33 34  0  0  1  0  0  0  0  0999 V2000
    7.5342  -12.0930   26.4198 O   0  0  0  0  0  0  0  0  0  0  0  0
    7.1409  -13.1222   25.5723 C   0  0  0  0  0  0  0  0  0  0  0  0
    7.7414  -13.2248   24.3348 C   0  0  0  0  0  0  0  0  0  0  0  0
    7.3611  -14.2316   23.4977 C   0  0  0  0  0  0  0  0  0  0  0  0
    6.3837  -15.1752   23.8326 C   0  0  0  0  0  0  0  0  0  0  0  0
    6.0030  -16.2534   22.8882 C   0  0  0  0  0  0  0  0  0  0  0  0
    6.7175  -17.5285   23.2825 C   0  0  2  0  0  0  0  0  0  0  0  0
    6.4936  -17.7422   24.6977 N   0  0  0  0  0  0  0  0  0  0  0  0
    8.1573  -17.4748   23.0292 C   0  0  0  0  0  0  0  0  0  0  0  0
    8.9516  -18.1112   23.7563 O   0  0  0  0  0  0  0  0  0  0  0  0
    5.8077  -15.0376   25.0787 C   0  0  0  0  0  0  0  0  0  0  0  0
    6.1698  -14.0279   25.9530 C   0  0  0  0  0  0  0  0  0  0  0  0
    8.7462  -16.7198   21.9715 N   0  0  0  0  0  0  0  0  0  0  0  0
   10.1006  -16.8953   21.5487 C   0  0  1  0  0  0  0  0  0  0  0  0
   10.4051  -16.3129   20.2011 C   0  0  0  0  0  0  0  0  0  0  0  0
   10.7936  -17.3023   19.1944 C   0  0  0  0  0  0  0  0  0  0  0  0
   11.0000  -18.4898   19.5119 O   0  0  0  0  0  0  0  0  0  0  0  0
   11.0423  -16.4026   22.5837 C   0  0  0  0  0  0  0  0  0  0  0  0
   11.3386  -15.1823   22.5891 O   0  0  0  0  0  0  0  0  0  0  0  0
   10.9410  -16.9493   17.8748 O   0  0  0  0  0  0  0  0  0  0  0  0
   10.9610  -14.4580   30.8293 O   0  0  0  0  0  0  0  0  0  0  0  0
   10.8257  -14.9454   29.5259 C   0  0  0  0  0  0  0  0  0  0  0  0
   10.6478  -16.2769   29.2485 C   0  0  0  0  0  0  0  0  0  0  0  0
   10.5092  -16.8124   27.9897 C   0  0  0  0  0  0  0  0  0  0  0  0
   10.5519  -15.9351   26.8999 C   0  0  0  0  0  0  0  0  0  0  0  0
   10.4239  -16.4680   25.5258 C   0  0  0  0  0  0  0  0  0  0  0  0
   11.7588  -16.8552   24.9463 C   0  0  2  0  0  0  0  0  0  0  0  0
   11.5974  -17.2840   23.5465 N   0  0  0  0  0  0  0  0  0  0  0  0
   12.4054  -17.9607   25.6857 C   0  0  0  0  0  0  0  0  0  0  0  0
   12.1159  -19.1450   25.3985 O   0  0  0  0  0  0  0  0  0  0  0  0
   10.7321  -14.5758   27.1566 C   0  0  0  0  0  0  0  0  0  0  0  0
   10.8668  -14.0814   28.4348 C   0  0  0  0  0  0  0  0  0  0  0  0
   13.3315  -17.7537   26.6978 O   0  0  0  0  0  0  0  0  0  0  0  0
  2  1  1  0
  3  2  2  0
  4  3  1  0
  5 11  1  0
  5  4  2  0
  6  5  1  0
  7  9  1  0
  7  6  1  0
  7  8  1  1
  9 10  2  0
 11 12  2  0
 12  2  1  0
 13 14  1  0
 13  9  1  0
 14 15  1  6
 15 16  1  0
 16 20  1  0
 17 16  2  0
 18 14  1  0
 19 18  2  0
 22 23  2  0
 22 21  1  0
 24 23  1  0
 25 24  2  0
 27 26  1  1
 26 25  1  0
 27 28  1  0
 28 18  1  0
 29 27  1  0
 29 33  1  0
 30 29  2  0
 31 25  1  0
 31 32  2  0
 32 22  1  0
M  END
$$$$
