YDY.pdb
     RDKit          3D

 33 34  0  0  1  0  0  0  0  0999 V2000
   18.1023  -21.6622   20.0484 O   0  0  0  0  0  0  0  0  0  0  0  0
   17.1316  -20.7167   20.3581 C   0  0  0  0  0  0  0  0  0  0  0  0
   15.9545  -21.1436   20.9367 C   0  0  0  0  0  0  0  0  0  0  0  0
   14.9973  -20.2224   21.2436 C   0  0  0  0  0  0  0  0  0  0  0  0
   15.1491  -18.8530   20.9993 C   0  0  0  0  0  0  0  0  0  0  0  0
   14.0792  -17.8880   21.3507 C   0  0  0  0  0  0  0  0  0  0  0  0
   12.9343  -18.0444   20.3726 C   0  0  2  0  0  0  0  0  0  0  0  0
   13.3562  -17.4862   19.1040 N   0  0  0  0  0  0  0  0  0  0  0  0
   11.7151  -17.3654   20.8116 C   0  0  0  0  0  0  0  0  0  0  0  0
   11.6130  -16.1225   20.7138 O   0  0  0  0  0  0  0  0  0  0  0  0
   16.3403  -18.4674   20.4198 C   0  0  0  0  0  0  0  0  0  0  0  0
   17.3327  -19.3755   20.0956 C   0  0  0  0  0  0  0  0  0  0  0  0
   10.5884  -18.0433   21.3654 N   0  0  0  0  0  0  0  0  0  0  0  0
    9.4321  -17.3610   21.8566 C   0  0  1  0  0  0  0  0  0  0  0  0
    8.1517  -18.1241   21.6936 C   0  0  0  0  0  0  0  0  0  0  0  0
    8.1367  -19.0313   20.5447 C   0  0  0  0  0  0  0  0  0  0  0  0
    8.5349  -18.6523   19.4260 O   0  0  0  0  0  0  0  0  0  0  0  0
    9.6354  -16.9257   23.2601 C   0  0  0  0  0  0  0  0  0  0  0  0
    9.3297  -17.7214   24.1823 O   0  0  0  0  0  0  0  0  0  0  0  0
    7.6842  -20.3226   20.6683 O   0  0  0  0  0  0  0  0  0  0  0  0
    5.5958  -11.4212   28.3479 O   0  0  0  0  0  0  0  0  0  0  0  0
    6.2702  -12.0900   27.3219 C   0  0  0  0  0  0  0  0  0  0  0  0
    7.3353  -11.5400   26.6552 C   0  0  0  0  0  0  0  0  0  0  0  0
    8.0353  -12.1495   25.6407 C   0  0  0  0  0  0  0  0  0  0  0  0
    7.6349  -13.4332   25.2523 C   0  0  0  0  0  0  0  0  0  0  0  0
    8.3479  -14.1213   24.1539 C   0  0  0  0  0  0  0  0  0  0  0  0
    9.5823  -14.8317   24.6430 C   0  0  2  0  0  0  0  0  0  0  0  0
   10.1621  -15.6431   23.5590 N   0  0  0  0  0  0  0  0  0  0  0  0
    9.3110  -15.7313   25.7850 C   0  0  0  0  0  0  0  0  0  0  0  0
    9.7174  -15.4155   26.9269 O   0  0  0  0  0  0  0  0  0  0  0  0
    6.5537  -14.0137   25.9156 C   0  0  0  0  0  0  0  0  0  0  0  0
    5.8800  -13.3671   26.9277 C   0  0  0  0  0  0  0  0  0  0  0  0
    8.6188  -16.9270   25.6578 O   0  0  0  0  0  0  0  0  0  0  0  0
  2  1  1  0
  3  2  2  0
  4  3  1  0
  5 11  1  0
  5  4  2  0
  6  5  1  0
  7  9  1  0
  7  6  1  0
  7  8  1  6
  9 10  2  0
 11 12  2  0
 12  2  1  0
 13 14  1  0
 13  9  1  0
 14 15  1  1
 15 16  1  0
 16 20  1  0
 17 16  2  0
 18 14  1  0
 19 18  2  0
 22 23  2  0
 22 21  1  0
 24 23  1  0
 25 24  2  0
 27 26  1  6
 26 25  1  0
 27 28  1  0
 28 18  1  0
 29 27  1  0
 29 33  1  0
 30 29  2  0
 31 25  1  0
 31 32  2  0
 32 22  1  0
M  END
$$$$
