DLR.pdb
     RDKit          3D

 28 27  0  0  1  0  0  0  0  0999 V2000
   17.8359  -11.4657  -16.4671 N   0  0  0  0  0  0  0  0  0  0  0  0
   17.8898  -10.0697  -16.1826 C   0  0  1  0  0  0  0  0  0  0  0  0
   16.6598   -9.3122  -16.6314 C   0  0  0  0  0  0  0  0  0  0  0  0
   16.4799   -9.5485  -18.0860 C   0  0  0  0  0  0  0  0  0  0  0  0
   15.3822   -9.8452  -18.5918 O   0  0  0  0  0  0  0  0  0  0  0  0
   18.2673   -9.7331  -14.7917 C   0  0  0  0  0  0  0  0  0  0  0  0
   17.8503  -10.4537  -13.8640 O   0  0  0  0  0  0  0  0  0  0  0  0
   17.5693   -9.4435  -18.9686 O   0  0  0  0  0  0  0  0  0  0  0  0
   23.2732   -7.8492  -13.7673 C   0  0  0  0  0  0  0  0  0  0  0  0
   21.9421   -8.5324  -13.6379 C   0  0  1  0  0  0  0  0  0  0  0  0
   22.1538   -9.7237  -12.6930 C   0  0  0  0  0  0  0  0  0  0  0  0
   20.8329   -7.6534  -13.1293 C   0  0  0  0  0  0  0  0  0  0  0  0
   19.4813   -8.2336  -13.1334 C   0  0  2  0  0  0  0  0  0  0  0  0
   19.0720   -8.6401  -14.4776 N   0  0  0  0  0  0  0  0  0  0  0  0
   18.4161   -7.5702  -12.3992 C   0  0  0  0  0  0  0  0  0  0  0  0
   17.8767   -6.5494  -12.9592 O   0  0  0  0  0  0  0  0  0  0  0  0
   11.3745   -9.4435   -7.3990 N   0  0  0  0  0  0  0  0  0  0  0  0
   11.4808   -8.0124   -7.3981 C   0  0  0  0  0  0  0  0  0  0  0  0
   10.5626   -7.2799   -6.8464 N   0  0  0  0  0  0  0  0  0  0  0  0
   12.5817   -7.3795   -7.9941 N   0  0  0  0  0  0  0  0  0  0  0  0
   13.6129   -8.1108   -8.6970 C   0  0  0  0  0  0  0  0  0  0  0  0
   14.7280   -7.2199   -9.2053 C   0  0  0  0  0  0  0  0  0  0  0  0
   15.7985   -7.9956   -9.9070 C   0  0  0  0  0  0  0  0  0  0  0  0
   16.8534   -7.1136  -10.4677 C   0  0  2  0  0  0  0  0  0  0  0  0
   17.8934   -7.9069  -11.1399 N   0  0  0  0  0  0  0  0  0  0  0  0
   17.4457   -6.2761   -9.4212 C   0  0  0  0  0  0  0  0  0  0  0  0
   18.6083   -6.6084   -8.9871 O   0  0  0  0  0  0  0  0  0  0  0  0
   16.9112   -5.1608   -8.8346 O   0  0  0  0  0  0  0  0  0  0  0  0
  2  1  1  1
  2  3  1  0
  3  4  1  0
  4  5  2  0
  6  7  2  0
  6  2  1  0
  8  4  1  0
 10  9  1  1
 10 12  1  0
 11 10  1  0
 13 12  1  6
 13 14  1  0
 14  6  1  0
 15 13  1  0
 16 15  2  0
 18 17  1  0
 19 18  2  0
 20 18  1  0
 21 20  1  0
 22 21  1  0
 23 22  1  0
 24 23  1  1
 24 25  1  0
 25 15  1  0
 26 24  1  0
 26 28  1  0
 27 26  2  0
M  END
$$$$
