DLR.pdb
     RDKit          3D

 28 27  0  0  1  0  0  0  0  0999 V2000
   19.8773  -14.4485  -17.2449 N   0  0  0  0  0  0  0  0  0  0  0  0
   20.3009  -13.2317  -17.8552 C   0  0  1  0  0  0  0  0  0  0  0  0
   19.1810  -12.4702  -18.5291 C   0  0  0  0  0  0  0  0  0  0  0  0
   18.4757  -13.4036  -19.4432 C   0  0  0  0  0  0  0  0  0  0  0  0
   17.4791  -13.0720  -20.1106 O   0  0  0  0  0  0  0  0  0  0  0  0
   21.1205  -12.3547  -16.9893 C   0  0  0  0  0  0  0  0  0  0  0  0
   20.7064  -12.0815  -15.8459 O   0  0  0  0  0  0  0  0  0  0  0  0
   18.9180  -14.7298  -19.5932 O   0  0  0  0  0  0  0  0  0  0  0  0
   25.3839  -10.1737  -14.5840 C   0  0  0  0  0  0  0  0  0  0  0  0
   25.5290  -10.2151  -16.0781 C   0  0  1  0  0  0  0  0  0  0  0  0
   26.9856  -10.6069  -16.3638 C   0  0  0  0  0  0  0  0  0  0  0  0
   24.5883  -11.1600  -16.7735 C   0  0  0  0  0  0  0  0  0  0  0  0
   23.1528  -10.8607  -16.6580 C   0  0  2  0  0  0  0  0  0  0  0  0
   22.3391  -11.8211  -17.4031 N   0  0  0  0  0  0  0  0  0  0  0  0
   22.6926   -9.4911  -16.8194 C   0  0  0  0  0  0  0  0  0  0  0  0
   22.9433   -8.9256  -17.9437 O   0  0  0  0  0  0  0  0  0  0  0  0
   15.2620   -6.1872  -17.9658 N   0  0  0  0  0  0  0  0  0  0  0  0
   16.2992   -6.9773  -18.5653 C   0  0  0  0  0  0  0  0  0  0  0  0
   16.0382   -7.7689  -19.5600 N   0  0  0  0  0  0  0  0  0  0  0  0
   17.6156   -6.9069  -18.0859 N   0  0  0  0  0  0  0  0  0  0  0  0
   18.0046   -6.0255  -17.0070 C   0  0  0  0  0  0  0  0  0  0  0  0
   19.5006   -6.0084  -16.7672 C   0  0  0  0  0  0  0  0  0  0  0  0
   20.0336   -7.3611  -16.4120 C   0  0  0  0  0  0  0  0  0  0  0  0
   21.5042   -7.3477  -16.2071 C   0  0  2  0  0  0  0  0  0  0  0  0
   21.9991   -8.6963  -15.8922 N   0  0  0  0  0  0  0  0  0  0  0  0
   21.8761   -6.4062  -15.1474 C   0  0  0  0  0  0  0  0  0  0  0  0
   22.4537   -6.8883  -14.1059 O   0  0  0  0  0  0  0  0  0  0  0  0
   21.6861   -5.0509  -15.1229 O   0  0  0  0  0  0  0  0  0  0  0  0
  2  1  1  1
  2  3  1  0
  3  4  1  0
  4  5  2  0
  6  7  2  0
  6  2  1  0
  8  4  1  0
 10  9  1  1
 10 12  1  0
 11 10  1  0
 13 12  1  6
 13 14  1  0
 14  6  1  0
 15 13  1  0
 16 15  2  0
 18 17  1  0
 19 18  2  0
 20 18  1  0
 21 20  1  0
 22 21  1  0
 23 22  1  0
 24 23  1  1
 24 25  1  0
 25 15  1  0
 26 24  1  0
 26 28  1  0
 27 26  2  0
M  END
$$$$
