DLR.pdb
     RDKit          3D

 28 27  0  0  1  0  0  0  0  0999 V2000
   17.1014  -21.1787  -11.1718 N   0  0  0  0  0  0  0  0  0  0  0  0
   18.3362  -21.8532  -11.4015 C   0  0  1  0  0  0  0  0  0  0  0  0
   18.3181  -22.7525  -12.6177 C   0  0  0  0  0  0  0  0  0  0  0  0
   17.3970  -23.8831  -12.3395 C   0  0  0  0  0  0  0  0  0  0  0  0
   16.7641  -23.9928  -11.2735 O   0  0  0  0  0  0  0  0  0  0  0  0
   19.5334  -20.9833  -11.3772 C   0  0  0  0  0  0  0  0  0  0  0  0
   19.4470  -19.8281  -11.8372 O   0  0  0  0  0  0  0  0  0  0  0  0
   17.1999  -24.8975  -13.2930 O   0  0  0  0  0  0  0  0  0  0  0  0
   24.6974  -19.3416   -9.9444 C   0  0  0  0  0  0  0  0  0  0  0  0
   24.4801  -20.7582  -10.3931 C   0  0  1  0  0  0  0  0  0  0  0  0
   25.4887  -21.6197   -9.6200 C   0  0  0  0  0  0  0  0  0  0  0  0
   23.0836  -21.2751  -10.1837 C   0  0  0  0  0  0  0  0  0  0  0  0
   22.0567  -20.7890  -11.1179 C   0  0  2  0  0  0  0  0  0  0  0  0
   20.7559  -21.4059  -10.8595 N   0  0  0  0  0  0  0  0  0  0  0  0
   22.3642  -20.7013  -12.5362 C   0  0  0  0  0  0  0  0  0  0  0  0
   21.9235  -21.6473  -13.2829 O   0  0  0  0  0  0  0  0  0  0  0  0
   28.0557  -20.6973  -17.5179 N   0  0  0  0  0  0  0  0  0  0  0  0
   27.9267  -21.7162  -16.5156 C   0  0  0  0  0  0  0  0  0  0  0  0
   28.9769  -22.2980  -16.0228 N   0  0  0  0  0  0  0  0  0  0  0  0
   26.6607  -22.1011  -16.0499 N   0  0  0  0  0  0  0  0  0  0  0  0
   25.4680  -21.9952  -16.8612 C   0  0  0  0  0  0  0  0  0  0  0  0
   24.5950  -20.8174  -16.4788 C   0  0  0  0  0  0  0  0  0  0  0  0
   24.3389  -20.7559  -15.0055 C   0  0  0  0  0  0  0  0  0  0  0  0
   23.3318  -19.7227  -14.6545 C   0  0  2  0  0  0  0  0  0  0  0  0
   23.0901  -19.7016  -13.2041 N   0  0  0  0  0  0  0  0  0  0  0  0
   22.0777  -19.9473  -15.3787 C   0  0  0  0  0  0  0  0  0  0  0  0
   21.9753  -19.4371  -16.5534 O   0  0  0  0  0  0  0  0  0  0  0  0
   20.9784  -20.6463  -14.9585 O   0  0  0  0  0  0  0  0  0  0  0  0
  2  1  1  6
  2  3  1  0
  3  4  1  0
  4  5  2  0
  6  7  2  0
  6  2  1  0
  8  4  1  0
 10  9  1  1
 10 12  1  0
 11 10  1  0
 13 12  1  1
 13 14  1  0
 14  6  1  0
 15 13  1  0
 16 15  2  0
 18 17  1  0
 19 18  2  0
 20 18  1  0
 21 20  1  0
 22 21  1  0
 23 22  1  0
 24 23  1  1
 24 25  1  0
 25 15  1  0
 26 24  1  0
 26 28  1  0
 27 26  2  0
M  END
$$$$
