DLR.pdb
     RDKit          3D

 28 27  0  0  1  0  0  0  0  0999 V2000
   27.8785  -22.5266  -16.4179 N   0  0  0  0  0  0  0  0  0  0  0  0
   27.4628  -21.4175  -15.6243 C   0  0  1  0  0  0  0  0  0  0  0  0
   26.8981  -20.2713  -16.4339 C   0  0  0  0  0  0  0  0  0  0  0  0
   27.9560  -19.7996  -17.3626 C   0  0  0  0  0  0  0  0  0  0  0  0
   29.1657  -19.8105  -17.0706 O   0  0  0  0  0  0  0  0  0  0  0  0
   26.5921  -21.7646  -14.4789 C   0  0  0  0  0  0  0  0  0  0  0  0
   25.8108  -22.7296  -14.5880 O   0  0  0  0  0  0  0  0  0  0  0  0
   27.6231  -19.3108  -18.6382 O   0  0  0  0  0  0  0  0  0  0  0  0
   24.7733  -21.8593   -9.2442 C   0  0  0  0  0  0  0  0  0  0  0  0
   25.1678  -20.5206   -9.7986 C   0  0  1  0  0  0  0  0  0  0  0  0
   25.7737  -19.7273   -8.6322 C   0  0  0  0  0  0  0  0  0  0  0  0
   26.1349  -20.5785  -10.9487 C   0  0  0  0  0  0  0  0  0  0  0  0
   25.6327  -21.1668  -12.1998 C   0  0  2  0  0  0  0  0  0  0  0  0
   26.6113  -21.0535  -13.2810 N   0  0  0  0  0  0  0  0  0  0  0  0
   24.2779  -20.8704  -12.6360 C   0  0  0  0  0  0  0  0  0  0  0  0
   24.0893  -19.7369  -13.2073 O   0  0  0  0  0  0  0  0  0  0  0  0
   22.6796  -24.3071  -17.4606 N   0  0  0  0  0  0  0  0  0  0  0  0
   21.3895  -23.9862  -18.0011 C   0  0  0  0  0  0  0  0  0  0  0  0
   21.1888  -23.9887  -19.2833 N   0  0  0  0  0  0  0  0  0  0  0  0
   20.3209  -23.6644  -17.1512 N   0  0  0  0  0  0  0  0  0  0  0  0
   20.4344  -23.7033  -15.7098 C   0  0  0  0  0  0  0  0  0  0  0  0
   21.0849  -22.4621  -15.1338 C   0  0  0  0  0  0  0  0  0  0  0  0
   21.1379  -22.4914  -13.6384 C   0  0  0  0  0  0  0  0  0  0  0  0
   21.8285  -21.3020  -13.0788 C   0  0  2  0  0  0  0  0  0  0  0  0
   23.1335  -21.6751  -12.5124 N   0  0  0  0  0  0  0  0  0  0  0  0
   20.9998  -20.6451  -12.0642 C   0  0  0  0  0  0  0  0  0  0  0  0
   21.3302  -20.8123  -10.8340 O   0  0  0  0  0  0  0  0  0  0  0  0
   19.8971  -19.8583  -12.2607 O   0  0  0  0  0  0  0  0  0  0  0  0
  2  1  1  6
  2  3  1  0
  3  4  1  0
  4  5  2  0
  6  7  2  0
  6  2  1  0
  8  4  1  0
 10  9  1  1
 10 12  1  0
 11 10  1  0
 13 12  1  1
 13 14  1  0
 14  6  1  0
 15 13  1  0
 16 15  2  0
 18 17  1  0
 19 18  2  0
 20 18  1  0
 21 20  1  0
 22 21  1  0
 23 22  1  0
 24 23  1  1
 24 25  1  0
 25 15  1  0
 26 24  1  0
 26 28  1  0
 27 26  2  0
M  END
$$$$
