DLR.pdb
     RDKit          3D

 28 27  0  0  1  0  0  0  0  0999 V2000
   24.1499  -20.0978  -11.2369 N   0  0  0  0  0  0  0  0  0  0  0  0
   23.9654  -20.6085  -12.5551 C   0  0  1  0  0  0  0  0  0  0  0  0
   22.6258  -21.2799  -12.7626 C   0  0  0  0  0  0  0  0  0  0  0  0
   22.1048  -21.6863  -11.4332 C   0  0  0  0  0  0  0  0  0  0  0  0
   22.6856  -21.4129  -10.3671 O   0  0  0  0  0  0  0  0  0  0  0  0
   24.2766  -19.6524  -13.6412 C   0  0  0  0  0  0  0  0  0  0  0  0
   23.3631  -18.9317  -14.0882 O   0  0  0  0  0  0  0  0  0  0  0  0
   20.9060  -22.4132  -11.3257 O   0  0  0  0  0  0  0  0  0  0  0  0
   27.3983  -15.9720  -16.1350 C   0  0  0  0  0  0  0  0  0  0  0  0
   27.9228  -17.3744  -16.2504 C   0  0  1  0  0  0  0  0  0  0  0  0
   29.4521  -17.2766  -16.1574 C   0  0  0  0  0  0  0  0  0  0  0  0
   27.3967  -18.3280  -15.2135 C   0  0  0  0  0  0  0  0  0  0  0  0
   25.9493  -18.5893  -15.2361 C   0  0  2  0  0  0  0  0  0  0  0  0
   25.5531  -19.5260  -14.1849 N   0  0  0  0  0  0  0  0  0  0  0  0
   25.2909  -18.8578  -16.5042 C   0  0  0  0  0  0  0  0  0  0  0  0
   25.4237  -20.0398  -16.9858 O   0  0  0  0  0  0  0  0  0  0  0  0
   18.0232  -19.5678  -16.3097 N   0  0  0  0  0  0  0  0  0  0  0  0
   18.5743  -18.6433  -17.2589 C   0  0  0  0  0  0  0  0  0  0  0  0
   17.9017  -17.5988  -17.6341 N   0  0  0  0  0  0  0  0  0  0  0  0
   19.8523  -18.8528  -17.7981 N   0  0  0  0  0  0  0  0  0  0  0  0
   20.6511  -20.0152  -17.4771 C   0  0  0  0  0  0  0  0  0  0  0  0
   22.1406  -19.7507  -17.5603 C   0  0  0  0  0  0  0  0  0  0  0  0
   22.4605  -18.5778  -18.4333 C   0  0  0  0  0  0  0  0  0  0  0  0
   23.9235  -18.3637  -18.5700 C   0  0  2  0  0  0  0  0  0  0  0  0
   24.5171  -17.9796  -17.2805 N   0  0  0  0  0  0  0  0  0  0  0  0
   24.2108  -17.3489  -19.5875 C   0  0  0  0  0  0  0  0  0  0  0  0
   24.4053  -16.1454  -19.1821 O   0  0  0  0  0  0  0  0  0  0  0  0
   24.3026  -17.5202  -20.9425 O   0  0  0  0  0  0  0  0  0  0  0  0
  2  1  1  1
  2  3  1  0
  3  4  1  0
  4  5  2  0
  6  7  2  0
  6  2  1  0
  8  4  1  0
 10  9  1  1
 10 12  1  0
 11 10  1  0
 13 12  1  6
 13 14  1  0
 14  6  1  0
 15 13  1  0
 16 15  2  0
 18 17  1  0
 19 18  2  0
 20 18  1  0
 21 20  1  0
 22 21  1  0
 23 22  1  0
 24 23  1  1
 24 25  1  0
 25 15  1  0
 26 24  1  0
 26 28  1  0
 27 26  2  0
M  END
$$$$
