DLR.pdb
     RDKit          3D

 28 27  0  0  1  0  0  0  0  0999 V2000
   21.2999  -15.6225  -16.9428 N   0  0  0  0  0  0  0  0  0  0  0  0
   21.4175  -14.4131  -17.6884 C   0  0  1  0  0  0  0  0  0  0  0  0
   20.1431  -14.0127  -18.3981 C   0  0  0  0  0  0  0  0  0  0  0  0
   19.6769  -15.1746  -19.1960 C   0  0  0  0  0  0  0  0  0  0  0  0
   20.4558  -15.9486  -19.7817 O   0  0  0  0  0  0  0  0  0  0  0  0
   22.0136  -13.2803  -16.9454 C   0  0  0  0  0  0  0  0  0  0  0  0
   21.3405  -12.7232  -16.0564 O   0  0  0  0  0  0  0  0  0  0  0  0
   18.3042  -15.4514  -19.3231 O   0  0  0  0  0  0  0  0  0  0  0  0
   26.0114  -10.4237  -14.5663 C   0  0  0  0  0  0  0  0  0  0  0  0
   26.1878  -10.6126  -16.0456 C   0  0  1  0  0  0  0  0  0  0  0  0
   27.6918  -10.8086  -16.2836 C   0  0  0  0  0  0  0  0  0  0  0  0
   25.4131  -11.7626  -16.6277 C   0  0  0  0  0  0  0  0  0  0  0  0
   23.9472  -11.6772  -16.5412 C   0  0  2  0  0  0  0  0  0  0  0  0
   23.3003  -12.8111  -17.2010 N   0  0  0  0  0  0  0  0  0  0  0  0
   23.2866  -10.4130  -16.8224 C   0  0  0  0  0  0  0  0  0  0  0  0
   23.3135  -10.0045  -18.0386 O   0  0  0  0  0  0  0  0  0  0  0  0
   15.7409   -8.7423  -18.1620 N   0  0  0  0  0  0  0  0  0  0  0  0
   16.2999   -8.7412  -16.8403 C   0  0  0  0  0  0  0  0  0  0  0  0
   15.5718   -9.0535  -15.8124 N   0  0  0  0  0  0  0  0  0  0  0  0
   17.6459   -8.4028  -16.6363 N   0  0  0  0  0  0  0  0  0  0  0  0
   18.4031   -7.6173  -17.5859 C   0  0  0  0  0  0  0  0  0  0  0  0
   19.8196   -7.3380  -17.1265 C   0  0  0  0  0  0  0  0  0  0  0  0
   20.5176   -8.5754  -16.6558 C   0  0  0  0  0  0  0  0  0  0  0  0
   21.9469   -8.3265  -16.3394 C   0  0  2  0  0  0  0  0  0  0  0  0
   22.6131   -9.5699  -15.9235 N   0  0  0  0  0  0  0  0  0  0  0  0
   22.0818   -7.3019  -15.3004 C   0  0  0  0  0  0  0  0  0  0  0  0
   22.3925   -7.6978  -14.1183 O   0  0  0  0  0  0  0  0  0  0  0  0
   21.9184   -5.9489  -15.4284 O   0  0  0  0  0  0  0  0  0  0  0  0
  2  1  1  1
  2  3  1  0
  3  4  1  0
  4  5  2  0
  6  7  2  0
  6  2  1  0
  8  4  1  0
 10  9  1  1
 10 12  1  0
 11 10  1  0
 13 12  1  6
 13 14  1  0
 14  6  1  0
 15 13  1  0
 16 15  2  0
 18 17  1  0
 19 18  2  0
 20 18  1  0
 21 20  1  0
 22 21  1  0
 23 22  1  0
 24 23  1  1
 24 25  1  0
 25 15  1  0
 26 24  1  0
 26 28  1  0
 27 26  2  0
M  END
$$$$
