DLR.pdb
     RDKit          3D

 28 27  0  0  1  0  0  0  0  0999 V2000
   17.8598  -27.0893   -0.2696 N   0  0  0  0  0  0  0  0  0  0  0  0
   16.7872  -26.6554    0.5634 C   0  0  1  0  0  0  0  0  0  0  0  0
   15.6116  -27.6070    0.5820 C   0  0  0  0  0  0  0  0  0  0  0  0
   15.0950  -27.7263   -0.8047 C   0  0  0  0  0  0  0  0  0  0  0  0
   14.6245  -26.7626   -1.4360 O   0  0  0  0  0  0  0  0  0  0  0  0
   17.1869  -26.2467    1.9286 C   0  0  0  0  0  0  0  0  0  0  0  0
   17.1890  -27.1012    2.8360 O   0  0  0  0  0  0  0  0  0  0  0  0
   15.1184  -28.9629   -1.4736 O   0  0  0  0  0  0  0  0  0  0  0  0
   20.5275  -24.4214    5.7877 C   0  0  0  0  0  0  0  0  0  0  0  0
   19.9387  -23.4448    4.8105 C   0  0  1  0  0  0  0  0  0  0  0  0
   21.0463  -22.4327    4.4851 C   0  0  0  0  0  0  0  0  0  0  0  0
   19.4100  -24.0643    3.5464 C   0  0  0  0  0  0  0  0  0  0  0  0
   17.9941  -24.4628    3.5529 C   0  0  2  0  0  0  0  0  0  0  0  0
   17.5616  -24.9414    2.2402 N   0  0  0  0  0  0  0  0  0  0  0  0
   17.0112  -23.5993    4.1871 C   0  0  0  0  0  0  0  0  0  0  0  0
   16.9190  -22.4008    3.7380 O   0  0  0  0  0  0  0  0  0  0  0  0
   15.8077  -24.2911   12.9031 N   0  0  0  0  0  0  0  0  0  0  0  0
   15.2121  -23.0335   12.5524 C   0  0  0  0  0  0  0  0  0  0  0  0
   14.6765  -22.2774   13.4611 N   0  0  0  0  0  0  0  0  0  0  0  0
   15.1993  -22.5984   11.2189 N   0  0  0  0  0  0  0  0  0  0  0  0
   15.6451  -23.4322   10.1243 C   0  0  0  0  0  0  0  0  0  0  0  0
   15.5471  -22.7437    8.7782 C   0  0  0  0  0  0  0  0  0  0  0  0
   15.9557  -23.6401    7.6515 C   0  0  0  0  0  0  0  0  0  0  0  0
   15.8311  -22.9726    6.3310 C   0  0  2  0  0  0  0  0  0  0  0  0
   16.1371  -23.9115    5.2411 N   0  0  0  0  0  0  0  0  0  0  0  0
   16.7042  -21.7981    6.2542 C   0  0  0  0  0  0  0  0  0  0  0  0
   17.9408  -21.9998    5.9703 O   0  0  0  0  0  0  0  0  0  0  0  0
   16.3662  -20.4859    6.4478 O   0  0  0  0  0  0  0  0  0  0  0  0
  2  1  1  1
  2  3  1  0
  3  4  1  0
  4  5  2  0
  6  7  2  0
  6  2  1  0
  8  4  1  0
 10  9  1  1
 10 12  1  0
 11 10  1  0
 13 12  1  6
 13 14  1  0
 14  6  1  0
 15 13  1  0
 16 15  2  0
 18 17  1  0
 19 18  2  0
 20 18  1  0
 21 20  1  0
 22 21  1  0
 23 22  1  0
 24 23  1  1
 24 25  1  0
 25 15  1  0
 26 24  1  0
 26 28  1  0
 27 26  2  0
M  END
$$$$
