DLR.pdb
     RDKit          3D

 28 27  0  0  1  0  0  0  0  0999 V2000
   24.9537  -19.2456  -17.4959 N   0  0  0  0  0  0  0  0  0  0  0  0
   24.4090  -18.7664  -16.2687 C   0  0  1  0  0  0  0  0  0  0  0  0
   23.1251  -17.9852  -16.4399 C   0  0  0  0  0  0  0  0  0  0  0  0
   23.3818  -16.8847  -17.4028 C   0  0  0  0  0  0  0  0  0  0  0  0
   22.8807  -16.8523  -18.5415 O   0  0  0  0  0  0  0  0  0  0  0  0
   24.2966  -19.7837  -15.1995 C   0  0  0  0  0  0  0  0  0  0  0  0
   23.9085  -20.9299  -15.4981 O   0  0  0  0  0  0  0  0  0  0  0  0
   24.2212  -15.8113  -17.0563 O   0  0  0  0  0  0  0  0  0  0  0  0
   26.1461  -22.2736  -10.5946 C   0  0  0  0  0  0  0  0  0  0  0  0
   25.4311  -20.9614  -10.4455 C   0  0  1  0  0  0  0  0  0  0  0  0
   26.0905  -20.2378   -9.2628 C   0  0  0  0  0  0  0  0  0  0  0  0
   25.4576  -20.0901  -11.6709 C   0  0  0  0  0  0  0  0  0  0  0  0
   24.5391  -20.4593  -12.7588 C   0  0  2  0  0  0  0  0  0  0  0  0
   24.6079  -19.5099  -13.8694 N   0  0  0  0  0  0  0  0  0  0  0  0
   23.1761  -20.8533  -12.4412 C   0  0  0  0  0  0  0  0  0  0  0  0
   22.3310  -19.9072  -12.2476 O   0  0  0  0  0  0  0  0  0  0  0  0
   16.6825  -23.5290   -9.6376 N   0  0  0  0  0  0  0  0  0  0  0  0
   17.6617  -24.5750   -9.7164 C   0  0  0  0  0  0  0  0  0  0  0  0
   17.3187  -25.7799  -10.0553 N   0  0  0  0  0  0  0  0  0  0  0  0
   19.0093  -24.3125   -9.4286 N   0  0  0  0  0  0  0  0  0  0  0  0
   19.4848  -22.9962   -9.0637 C   0  0  0  0  0  0  0  0  0  0  0  0
   19.5159  -22.0332  -10.2330 C   0  0  0  0  0  0  0  0  0  0  0  0
   20.9115  -21.7271  -10.6786 C   0  0  0  0  0  0  0  0  0  0  0  0
   21.2617  -22.4241  -11.9422 C   0  0  2  0  0  0  0  0  0  0  0  0
   22.6574  -22.1526  -12.3180 N   0  0  0  0  0  0  0  0  0  0  0  0
   20.3551  -22.0318  -13.0246 C   0  0  0  0  0  0  0  0  0  0  0  0
   20.6463  -20.9665  -13.6811 O   0  0  0  0  0  0  0  0  0  0  0  0
   19.2151  -22.6669  -13.4375 O   0  0  0  0  0  0  0  0  0  0  0  0
  2  1  1  6
  2  3  1  0
  3  4  1  0
  4  5  2  0
  6  7  2  0
  6  2  1  0
  8  4  1  0
 10  9  1  6
 10 12  1  0
 11 10  1  0
 13 12  1  1
 13 14  1  0
 14  6  1  0
 15 13  1  0
 16 15  2  0
 18 17  1  0
 19 18  2  0
 20 18  1  0
 21 20  1  0
 22 21  1  0
 23 22  1  0
 24 23  1  1
 24 25  1  0
 25 15  1  0
 26 24  1  0
 26 28  1  0
 27 26  2  0
M  END
$$$$
