DLR.pdb
     RDKit          3D

 28 27  0  0  1  0  0  0  0  0999 V2000
   18.9606  -21.6567  -11.4105 N   0  0  0  0  0  0  0  0  0  0  0  0
   19.7668  -22.0522  -12.5179 C   0  0  1  0  0  0  0  0  0  0  0  0
   18.9863  -22.2349  -13.8007 C   0  0  0  0  0  0  0  0  0  0  0  0
   17.9949  -23.3188  -13.5849 C   0  0  0  0  0  0  0  0  0  0  0  0
   16.8322  -23.2689  -14.0257 O   0  0  0  0  0  0  0  0  0  0  0  0
   20.9829  -21.2344  -12.7247 C   0  0  0  0  0  0  0  0  0  0  0  0
   20.8890  -19.9926  -12.6715 O   0  0  0  0  0  0  0  0  0  0  0  0
   18.3407  -24.4708  -12.8567 O   0  0  0  0  0  0  0  0  0  0  0  0
   25.6406  -21.6730   -9.9346 C   0  0  0  0  0  0  0  0  0  0  0  0
   24.5255  -21.1351  -10.7847 C   0  0  1  0  0  0  0  0  0  0  0  0
   24.6511  -19.6054  -10.7513 C   0  0  0  0  0  0  0  0  0  0  0  0
   24.5263  -21.6280  -12.2054 C   0  0  0  0  0  0  0  0  0  0  0  0
   23.4947  -21.0714  -13.0939 C   0  0  2  0  0  0  0  0  0  0  0  0
   22.2313  -21.7991  -12.9772 N   0  0  0  0  0  0  0  0  0  0  0  0
   23.8335  -20.7528  -14.4715 C   0  0  0  0  0  0  0  0  0  0  0  0
   24.0435  -21.7438  -15.2592 O   0  0  0  0  0  0  0  0  0  0  0  0
   27.1945  -16.5638  -19.9127 N   0  0  0  0  0  0  0  0  0  0  0  0
   26.0643  -16.1013  -20.6663 C   0  0  0  0  0  0  0  0  0  0  0  0
   26.1696  -15.8569  -21.9365 N   0  0  0  0  0  0  0  0  0  0  0  0
   24.8234  -15.9058  -20.0419 N   0  0  0  0  0  0  0  0  0  0  0  0
   24.6168  -16.1436  -18.6302 C   0  0  0  0  0  0  0  0  0  0  0  0
   24.6070  -17.6161  -18.2735 C   0  0  0  0  0  0  0  0  0  0  0  0
   24.2971  -17.8474  -16.8277 C   0  0  0  0  0  0  0  0  0  0  0  0
   24.2968  -19.2907  -16.4787 C   0  0  2  0  0  0  0  0  0  0  0  0
   23.9616  -19.4841  -15.0599 N   0  0  0  0  0  0  0  0  0  0  0  0
   25.5920  -19.9034  -16.7861 C   0  0  0  0  0  0  0  0  0  0  0  0
   25.7835  -20.3048  -17.9915 O   0  0  0  0  0  0  0  0  0  0  0  0
   26.6477  -20.1064  -15.9389 O   0  0  0  0  0  0  0  0  0  0  0  0
  2  1  1  1
  2  3  1  0
  3  4  1  0
  4  5  2  0
  6  7  2  0
  6  2  1  0
  8  4  1  0
 10  9  1  1
 10 12  1  0
 11 10  1  0
 13 12  1  6
 13 14  1  0
 14  6  1  0
 15 13  1  0
 16 15  2  0
 18 17  1  0
 19 18  2  0
 20 18  1  0
 21 20  1  0
 22 21  1  0
 23 22  1  0
 24 23  1  1
 24 25  1  0
 25 15  1  0
 26 24  1  0
 26 28  1  0
 27 26  2  0
M  END
$$$$
