DLR.pdb
     RDKit          3D

 28 27  0  0  1  0  0  0  0  0999 V2000
   14.2789  -22.0806    4.1370 N   0  0  0  0  0  0  0  0  0  0  0  0
   15.4839  -21.4649    3.6879 C   0  0  1  0  0  0  0  0  0  0  0  0
   15.2755  -20.0921    3.0880 C   0  0  0  0  0  0  0  0  0  0  0  0
   14.5848  -20.2602    1.7846 C   0  0  0  0  0  0  0  0  0  0  0  0
   14.2018  -21.3656    1.3603 O   0  0  0  0  0  0  0  0  0  0  0  0
   16.5903  -21.4745    4.6709 C   0  0  0  0  0  0  0  0  0  0  0  0
   16.3353  -21.2298    5.8662 O   0  0  0  0  0  0  0  0  0  0  0  0
   14.3311  -19.1498    0.9602 O   0  0  0  0  0  0  0  0  0  0  0  0
   20.5408  -25.1938    4.2623 C   0  0  0  0  0  0  0  0  0  0  0  0
   19.5528  -24.2015    4.8047 C   0  0  1  0  0  0  0  0  0  0  0  0
   19.1978  -24.6706    6.2228 C   0  0  0  0  0  0  0  0  0  0  0  0
   20.0426  -22.7800    4.8325 C   0  0  0  0  0  0  0  0  0  0  0  0
   19.0599  -21.7543    5.2144 C   0  0  2  0  0  0  0  0  0  0  0  0
   17.9087  -21.7467    4.3119 N   0  0  0  0  0  0  0  0  0  0  0  0
   19.5172  -20.4161    5.5517 C   0  0  0  0  0  0  0  0  0  0  0  0
   19.6546  -19.5899    4.5795 O   0  0  0  0  0  0  0  0  0  0  0  0
   18.3843  -12.7761    5.6258 N   0  0  0  0  0  0  0  0  0  0  0  0
   19.5944  -12.7901    6.3971 C   0  0  0  0  0  0  0  0  0  0  0  0
   20.3856  -11.7614    6.4076 N   0  0  0  0  0  0  0  0  0  0  0  0
   19.9431  -13.9177    7.1551 N   0  0  0  0  0  0  0  0  0  0  0  0
   19.3625  -15.2218    6.9219 C   0  0  0  0  0  0  0  0  0  0  0  0
   19.8868  -16.2809    7.8700 C   0  0  0  0  0  0  0  0  0  0  0  0
   19.3394  -17.6393    7.5615 C   0  0  0  0  0  0  0  0  0  0  0  0
   20.3790  -18.5537    7.0248 C   0  0  2  0  0  0  0  0  0  0  0  0
   19.8315  -19.9033    6.8208 N   0  0  0  0  0  0  0  0  0  0  0  0
   21.5422  -18.6030    7.9148 C   0  0  0  0  0  0  0  0  0  0  0  0
   21.6836  -19.6518    8.6433 O   0  0  0  0  0  0  0  0  0  0  0  0
   22.5196  -17.6579    8.0732 O   0  0  0  0  0  0  0  0  0  0  0  0
  2  1  1  1
  2  3  1  0
  3  4  1  0
  4  5  2  0
  6  7  2  0
  6  2  1  0
  8  4  1  0
 10  9  1  1
 10 12  1  0
 11 10  1  0
 13 12  1  6
 13 14  1  0
 14  6  1  0
 15 13  1  0
 16 15  2  0
 18 17  1  0
 19 18  2  0
 20 18  1  0
 21 20  1  0
 22 21  1  0
 23 22  1  0
 24 23  1  1
 24 25  1  0
 25 15  1  0
 26 24  1  0
 26 28  1  0
 27 26  2  0
M  END
$$$$
