CPW.pdb
     RDKit          3D

 28 30  0  0  1  0  0  0  0  0999 V2000
   26.2114  -23.2299  -16.7449 N   0  0  0  0  0  0  0  0  0  0  0  0
   25.7532  -21.9649  -16.1753 C   0  0  1  0  0  0  0  0  0  0  0  0
   24.2397  -22.1026  -16.0086 C   0  0  0  0  0  0  0  0  0  0  0  0
   23.4245  -21.8797  -17.6101 S   0  0  0  0  0  0  0  0  0  0  0  0
   26.3995  -21.7371  -14.8610 C   0  0  0  0  0  0  0  0  0  0  0  0
   26.5876  -22.7458  -14.0978 O   0  0  0  0  0  0  0  0  0  0  0  0
   26.8142  -20.4546  -14.4202 N   0  0  0  0  0  0  0  0  0  0  0  0
   26.7516  -19.2224  -15.1692 C   0  0  0  0  0  0  0  0  0  0  0  0
   27.9719  -18.4908  -14.6462 C   0  0  0  0  0  0  0  0  0  0  0  0
   27.7494  -18.6958  -13.1386 C   0  0  0  0  0  0  0  0  0  0  0  0
   27.3755  -20.1459  -13.1240 C   0  0  1  0  0  0  0  0  0  0  0  0
   26.4203  -20.4869  -12.0419 C   0  0  0  0  0  0  0  0  0  0  0  0
   25.1755  -20.4397  -12.2503 O   0  0  0  0  0  0  0  0  0  0  0  0
   26.8395  -20.8755  -10.7457 N   0  0  0  0  0  0  0  0  0  0  0  0
   25.8820  -21.2592   -9.7111 C   0  0  1  0  0  0  0  0  0  0  0  0
   26.6917  -21.6181   -8.4969 C   0  0  0  0  0  0  0  0  0  0  0  0
   27.1103  -20.4715   -7.6915 C   0  0  0  0  0  0  0  0  0  0  0  0
   26.8037  -19.1474   -7.9591 C   0  0  0  0  0  0  0  0  0  0  0  0
   27.3580  -18.3896   -6.9948 N   0  0  0  0  0  0  0  0  0  0  0  0
   28.0219  -19.1572   -6.0957 C   0  0  0  0  0  0  0  0  0  0  0  0
   28.7457  -18.8968   -4.9520 C   0  0  0  0  0  0  0  0  0  0  0  0
   29.3048  -19.9461   -4.2607 C   0  0  0  0  0  0  0  0  0  0  0  0
   29.1674  -21.2561   -4.6711 C   0  0  0  0  0  0  0  0  0  0  0  0
   28.4358  -21.4870   -5.8220 C   0  0  0  0  0  0  0  0  0  0  0  0
   27.8577  -20.4640   -6.5465 C   0  0  0  0  0  0  0  0  0  0  0  0
   24.9631  -20.1275   -9.4119 C   0  0  0  0  0  0  0  0  0  0  0  0
   23.7125  -20.3209   -8.8665 O   0  0  0  0  0  0  0  0  0  0  0  0
   25.3478  -18.9635   -9.6677 O   0  0  0  0  0  0  0  0  0  0  0  0
  2  3  1  0
  2  1  1  1
  4  3  1  0
  5  2  1  0
  5  6  2  0
  7  5  1  0
  8  7  1  0
  9  8  1  0
 10  9  1  0
 10 11  1  0
 11  7  1  0
 12 13  2  0
 11 12  1  1
 14 12  1  0
 15 16  1  1
 15 14  1  0
 16 17  1  0
 17 18  2  0
 19 18  1  0
 20 19  1  0
 21 20  2  0
 22 21  1  0
 23 22  2  0
 23 24  1  0
 24 25  2  0
 25 20  1  0
 25 17  1  0
 26 15  1  0
 27 26  1  0
 28 26  2  0
M  END
$$$$
