CPW.pdb
     RDKit          3D

 28 30  0  0  1  0  0  0  0  0999 V2000
   21.2496  -20.2817  -14.8583 N   0  0  0  0  0  0  0  0  0  0  0  0
   22.5121  -19.5682  -14.6798 C   0  0  1  0  0  0  0  0  0  0  0  0
   22.1570  -18.2525  -13.9869 C   0  0  0  0  0  0  0  0  0  0  0  0
   22.0335  -16.9275  -15.2150 S   0  0  0  0  0  0  0  0  0  0  0  0
   23.4305  -20.3667  -13.8336 C   0  0  0  0  0  0  0  0  0  0  0  0
   22.9589  -20.9082  -12.7753 O   0  0  0  0  0  0  0  0  0  0  0  0
   24.8005  -20.5524  -14.1491 N   0  0  0  0  0  0  0  0  0  0  0  0
   25.4845  -20.0879  -15.3321 C   0  0  0  0  0  0  0  0  0  0  0  0
   26.5118  -21.1841  -15.5349 C   0  0  0  0  0  0  0  0  0  0  0  0
   27.0558  -21.2747  -14.0996 C   0  0  0  0  0  0  0  0  0  0  0  0
   25.7712  -21.2437  -13.3303 C   0  0  1  0  0  0  0  0  0  0  0  0
   25.9047  -20.5890  -12.0063 C   0  0  0  0  0  0  0  0  0  0  0  0
   25.2252  -19.5606  -11.7306 O   0  0  0  0  0  0  0  0  0  0  0  0
   26.7797  -21.0681  -11.0005 N   0  0  0  0  0  0  0  0  0  0  0  0
   26.9543  -20.3622   -9.7334 C   0  0  1  0  0  0  0  0  0  0  0  0
   25.6776  -20.5517   -8.9636 C   0  0  0  0  0  0  0  0  0  0  0  0
   25.8490  -20.5848   -7.5116 C   0  0  0  0  0  0  0  0  0  0  0  0
   24.9903  -21.1998   -6.6155 C   0  0  0  0  0  0  0  0  0  0  0  0
   25.4848  -21.0206   -5.3766 N   0  0  0  0  0  0  0  0  0  0  0  0
   26.6391  -20.3104   -5.4127 C   0  0  0  0  0  0  0  0  0  0  0  0
   27.5258  -19.8601   -4.4584 C   0  0  0  0  0  0  0  0  0  0  0  0
   28.6293  -19.1420   -4.8563 C   0  0  0  0  0  0  0  0  0  0  0  0
   28.8832  -18.8543   -6.1815 C   0  0  0  0  0  0  0  0  0  0  0  0
   27.9762  -19.3190   -7.1167 C   0  0  0  0  0  0  0  0  0  0  0  0
   26.8559  -20.0431   -6.7616 C   0  0  0  0  0  0  0  0  0  0  0  0
   28.1079  -20.9271   -8.9817 C   0  0  0  0  0  0  0  0  0  0  0  0
   28.3015  -22.2844   -8.8442 O   0  0  0  0  0  0  0  0  0  0  0  0
   28.9251  -20.1345   -8.4597 O   0  0  0  0  0  0  0  0  0  0  0  0
  2  3  1  0
  2  1  1  1
  4  3  1  0
  5  2  1  0
  5  6  2  0
  7  5  1  0
  8  7  1  0
  9  8  1  0
 10  9  1  0
 10 11  1  0
 11  7  1  0
 12 13  2  0
 11 12  1  1
 14 12  1  0
 15 16  1  1
 15 14  1  0
 16 17  1  0
 17 18  2  0
 19 18  1  0
 20 19  1  0
 21 20  2  0
 22 21  1  0
 23 22  2  0
 23 24  1  0
 24 25  2  0
 25 20  1  0
 25 17  1  0
 26 15  1  0
 27 26  1  0
 28 26  2  0
M  END
$$$$
