CPW.pdb
     RDKit          3D

 28 30  0  0  1  0  0  0  0  0999 V2000
   28.3590  -20.7601  -16.4848 N   0  0  0  0  0  0  0  0  0  0  0  0
   28.7121  -20.0230  -15.2737 C   0  0  1  0  0  0  0  0  0  0  0  0
   27.9866  -18.6809  -15.3717 C   0  0  0  0  0  0  0  0  0  0  0  0
   29.0411  -17.4750  -16.2159 S   0  0  0  0  0  0  0  0  0  0  0  0
   28.2591  -20.7694  -14.0758 C   0  0  0  0  0  0  0  0  0  0  0  0
   27.0992  -21.3075  -14.1026 O   0  0  0  0  0  0  0  0  0  0  0  0
   29.0551  -20.9091  -12.9105 N   0  0  0  0  0  0  0  0  0  0  0  0
   30.4649  -20.6249  -12.7890 C   0  0  0  0  0  0  0  0  0  0  0  0
   30.8932  -21.6607  -11.7684 C   0  0  0  0  0  0  0  0  0  0  0  0
   29.7884  -21.4407  -10.7219 C   0  0  0  0  0  0  0  0  0  0  0  0
   28.5911  -21.3612  -11.6179 C   0  0  1  0  0  0  0  0  0  0  0  0
   27.5341  -20.4623  -11.0941 C   0  0  0  0  0  0  0  0  0  0  0  0
   27.6110  -19.2142  -11.2720 O   0  0  0  0  0  0  0  0  0  0  0  0
   26.4064  -20.9405  -10.3825 N   0  0  0  0  0  0  0  0  0  0  0  0
   25.5260  -20.0399   -9.6422 C   0  0  1  0  0  0  0  0  0  0  0  0
   24.8796  -19.1458  -10.6627 C   0  0  0  0  0  0  0  0  0  0  0  0
   23.9679  -19.8344  -11.5756 C   0  0  0  0  0  0  0  0  0  0  0  0
   22.9283  -20.6671  -11.1956 C   0  0  0  0  0  0  0  0  0  0  0  0
   22.3169  -21.1042  -12.3121 N   0  0  0  0  0  0  0  0  0  0  0  0
   22.9088  -20.5952  -13.4206 C   0  0  0  0  0  0  0  0  0  0  0  0
   22.6883  -20.7183  -14.7757 C   0  0  0  0  0  0  0  0  0  0  0  0
   23.5070  -20.0432  -15.6507 C   0  0  0  0  0  0  0  0  0  0  0  0
   24.5456  -19.2434  -15.2208 C   0  0  0  0  0  0  0  0  0  0  0  0
   24.7428  -19.1388  -13.8557 C   0  0  0  0  0  0  0  0  0  0  0  0
   23.9454  -19.7987  -12.9424 C   0  0  0  0  0  0  0  0  0  0  0  0
   24.4965  -20.8175   -8.9004 C   0  0  0  0  0  0  0  0  0  0  0  0
   23.5708  -20.2134   -8.0777 O   0  0  0  0  0  0  0  0  0  0  0  0
   24.4786  -22.0626   -9.0344 O   0  0  0  0  0  0  0  0  0  0  0  0
  2  3  1  0
  2  1  1  6
  4  3  1  0
  5  2  1  0
  5  6  2  0
  7  5  1  0
  8  7  1  0
  9  8  1  0
 10  9  1  0
 10 11  1  0
 11  7  1  0
 12 13  2  0
 11 12  1  1
 14 12  1  0
 15 16  1  6
 15 14  1  0
 16 17  1  0
 17 18  2  0
 19 18  1  0
 20 19  1  0
 21 20  2  0
 22 21  1  0
 23 22  2  0
 23 24  1  0
 24 25  2  0
 25 20  1  0
 25 17  1  0
 26 15  1  0
 27 26  1  0
 28 26  2  0
M  END
$$$$
