CPW.pdb
     RDKit          3D

 28 30  0  0  1  0  0  0  0  0999 V2000
   25.7531  -20.6011  -17.2750 N   0  0  0  0  0  0  0  0  0  0  0  0
   26.1779  -21.8691  -16.6864 C   0  0  1  0  0  0  0  0  0  0  0  0
   27.1849  -22.4712  -17.6665 C   0  0  0  0  0  0  0  0  0  0  0  0
   27.8566  -24.0093  -16.9866 S   0  0  0  0  0  0  0  0  0  0  0  0
   26.8172  -21.6284  -15.3709 C   0  0  0  0  0  0  0  0  0  0  0  0
   27.2082  -22.6415  -14.6953 O   0  0  0  0  0  0  0  0  0  0  0  0
   27.0109  -20.3292  -14.8365 N   0  0  0  0  0  0  0  0  0  0  0  0
   26.7110  -19.0754  -15.4854 C   0  0  0  0  0  0  0  0  0  0  0  0
   27.7968  -18.1792  -14.9234 C   0  0  0  0  0  0  0  0  0  0  0  0
   27.6559  -18.5329  -13.4337 C   0  0  0  0  0  0  0  0  0  0  0  0
   27.5445  -20.0234  -13.5279 C   0  0  1  0  0  0  0  0  0  0  0  0
   26.6948  -20.6092  -12.4629 C   0  0  0  0  0  0  0  0  0  0  0  0
   25.4926  -20.9149  -12.7004 O   0  0  0  0  0  0  0  0  0  0  0  0
   27.1716  -20.8534  -11.1514 N   0  0  0  0  0  0  0  0  0  0  0  0
   26.3015  -21.3808  -10.1030 C   0  0  1  0  0  0  0  0  0  0  0  0
   27.1822  -21.6426   -8.9136 C   0  0  0  0  0  0  0  0  0  0  0  0
   27.3625  -20.4897   -8.0322 C   0  0  0  0  0  0  0  0  0  0  0  0
   26.8037  -19.2369   -8.2241 C   0  0  0  0  0  0  0  0  0  0  0  0
   27.1924  -18.4481   -7.2053 N   0  0  0  0  0  0  0  0  0  0  0  0
   27.9883  -19.1266   -6.3425 C   0  0  0  0  0  0  0  0  0  0  0  0
   28.6397  -18.8028   -5.1717 C   0  0  0  0  0  0  0  0  0  0  0  0
   29.3896  -19.7643   -4.5354 C   0  0  0  0  0  0  0  0  0  0  0  0
   29.5146  -21.0471   -5.0275 C   0  0  0  0  0  0  0  0  0  0  0  0
   28.8497  -21.3431   -6.2038 C   0  0  0  0  0  0  0  0  0  0  0  0
   28.0867  -20.4090   -6.8751 C   0  0  0  0  0  0  0  0  0  0  0  0
   25.2433  -20.3911   -9.7632 C   0  0  0  0  0  0  0  0  0  0  0  0
   24.0986  -20.7440   -9.0822 O   0  0  0  0  0  0  0  0  0  0  0  0
   25.4073  -19.1995  -10.1119 O   0  0  0  0  0  0  0  0  0  0  0  0
  2  3  1  0
  2  1  1  6
  4  3  1  0
  5  2  1  0
  5  6  2  0
  7  5  1  0
  8  7  1  0
  9  8  1  0
 10  9  1  0
 10 11  1  0
 11  7  1  0
 12 13  2  0
 11 12  1  1
 14 12  1  0
 15 16  1  1
 15 14  1  0
 16 17  1  0
 17 18  2  0
 19 18  1  0
 20 19  1  0
 21 20  2  0
 22 21  1  0
 23 22  2  0
 23 24  1  0
 24 25  2  0
 25 20  1  0
 25 17  1  0
 26 15  1  0
 27 26  1  0
 28 26  2  0
M  END
$$$$
