CPW.pdb
     RDKit          3D

 28 30  0  0  1  0  0  0  0  0999 V2000
   29.7033  -18.0081  -16.5983 N   0  0  0  0  0  0  0  0  0  0  0  0
   28.5432  -18.8046  -16.9914 C   0  0  1  0  0  0  0  0  0  0  0  0
   29.0591  -20.2304  -17.1875 C   0  0  0  0  0  0  0  0  0  0  0  0
   29.6802  -20.4299  -18.8766 S   0  0  0  0  0  0  0  0  0  0  0  0
   27.5175  -18.7684  -15.9219 C   0  0  0  0  0  0  0  0  0  0  0  0
   27.9132  -18.6889  -14.7084 O   0  0  0  0  0  0  0  0  0  0  0  0
   26.1258  -18.8180  -16.1895 N   0  0  0  0  0  0  0  0  0  0  0  0
   25.4962  -18.8241  -17.4882 C   0  0  0  0  0  0  0  0  0  0  0  0
   24.2110  -18.0727  -17.2023 C   0  0  0  0  0  0  0  0  0  0  0  0
   23.7712  -18.8196  -15.9323 C   0  0  0  0  0  0  0  0  0  0  0  0
   25.0751  -18.8778  -15.1980 C   0  0  1  0  0  0  0  0  0  0  0  0
   25.2129  -20.0919  -14.3575 C   0  0  0  0  0  0  0  0  0  0  0  0
   25.8546  -21.0935  -14.7822 O   0  0  0  0  0  0  0  0  0  0  0  0
   24.6470  -20.1946  -13.0629 N   0  0  0  0  0  0  0  0  0  0  0  0
   24.8552  -21.3725  -12.2242 C   0  0  1  0  0  0  0  0  0  0  0  0
   26.2347  -21.2400  -11.6428 C   0  0  0  0  0  0  0  0  0  0  0  0
   26.2728  -20.6263  -10.3160 C   0  0  0  0  0  0  0  0  0  0  0  0
   25.2101  -19.9922   -9.6937 C   0  0  0  0  0  0  0  0  0  0  0  0
   25.6294  -19.5650   -8.4883 N   0  0  0  0  0  0  0  0  0  0  0  0
   26.9297  -19.8896   -8.2836 C   0  0  0  0  0  0  0  0  0  0  0  0
   27.8228  -19.6941   -7.2520 C   0  0  0  0  0  0  0  0  0  0  0  0
   29.1079  -20.1669   -7.3810 C   0  0  0  0  0  0  0  0  0  0  0  0
   29.5386  -20.8330   -8.5098 C   0  0  0  0  0  0  0  0  0  0  0  0
   28.6206  -21.0145   -9.5284 C   0  0  0  0  0  0  0  0  0  0  0  0
   27.3214  -20.5566   -9.4410 C   0  0  0  0  0  0  0  0  0  0  0  0
   23.8340  -21.4242  -11.1429 C   0  0  0  0  0  0  0  0  0  0  0  0
   23.5732  -22.5760  -10.4329 O   0  0  0  0  0  0  0  0  0  0  0  0
   23.1950  -20.3807  -10.8760 O   0  0  0  0  0  0  0  0  0  0  0  0
  2  3  1  0
  2  1  1  1
  4  3  1  0
  5  2  1  0
  5  6  2  0
  7  5  1  0
  8  7  1  0
  9  8  1  0
 10  9  1  0
 10 11  1  0
 11  7  1  0
 12 13  2  0
 11 12  1  6
 14 12  1  0
 15 16  1  1
 15 14  1  0
 16 17  1  0
 17 18  2  0
 19 18  1  0
 20 19  1  0
 21 20  2  0
 22 21  1  0
 23 22  2  0
 23 24  1  0
 24 25  2  0
 25 20  1  0
 25 17  1  0
 26 15  1  0
 27 26  1  0
 28 26  2  0
M  END
$$$$
