CPW.pdb
     RDKit          3D

 28 30  0  0  1  0  0  0  0  0999 V2000
   26.4333  -23.1164  -16.9798 N   0  0  0  0  0  0  0  0  0  0  0  0
   26.1056  -21.8289  -16.3718 C   0  0  1  0  0  0  0  0  0  0  0  0
   24.5799  -21.7804  -16.2865 C   0  0  0  0  0  0  0  0  0  0  0  0
   23.9072  -21.0128  -17.7822 S   0  0  0  0  0  0  0  0  0  0  0  0
   26.7021  -21.7412  -15.0177 C   0  0  0  0  0  0  0  0  0  0  0  0
   26.7931  -22.8140  -14.3274 O   0  0  0  0  0  0  0  0  0  0  0  0
   27.1723  -20.5242  -14.4621 N   0  0  0  0  0  0  0  0  0  0  0  0
   27.2521  -19.2456  -15.1269 C   0  0  0  0  0  0  0  0  0  0  0  0
   28.4788  -18.6425  -14.4717 C   0  0  0  0  0  0  0  0  0  0  0  0
   28.1318  -18.9258  -13.0009 C   0  0  0  0  0  0  0  0  0  0  0  0
   27.6567  -20.3417  -13.1120 C   0  0  1  0  0  0  0  0  0  0  0  0
   26.6026  -20.6782  -12.1245 C   0  0  0  0  0  0  0  0  0  0  0  0
   25.3821  -20.5773  -12.4335 O   0  0  0  0  0  0  0  0  0  0  0  0
   26.8974  -21.1210  -10.8116 N   0  0  0  0  0  0  0  0  0  0  0  0
   25.8425  -21.4174   -9.8453 C   0  0  1  0  0  0  0  0  0  0  0  0
   26.5276  -21.6485   -8.5278 C   0  0  0  0  0  0  0  0  0  0  0  0
   26.9897  -20.4285   -7.8670 C   0  0  0  0  0  0  0  0  0  0  0  0
   26.6769  -19.1365   -8.2565 C   0  0  0  0  0  0  0  0  0  0  0  0
   27.2803  -18.2880   -7.4037 N   0  0  0  0  0  0  0  0  0  0  0  0
   27.9827  -18.9643   -6.4617 C   0  0  0  0  0  0  0  0  0  0  0  0
   28.7615  -18.5935   -5.3866 C   0  0  0  0  0  0  0  0  0  0  0  0
   29.3480  -19.5707   -4.6167 C   0  0  0  0  0  0  0  0  0  0  0  0
   29.1849  -20.9148   -4.8814 C   0  0  0  0  0  0  0  0  0  0  0  0
   28.3981  -21.2570   -5.9662 C   0  0  0  0  0  0  0  0  0  0  0  0
   27.7909  -20.3093   -6.7654 C   0  0  0  0  0  0  0  0  0  0  0  0
   24.8939  -20.2747   -9.7489 C   0  0  0  0  0  0  0  0  0  0  0  0
   25.1849  -19.0323  -10.2690 O   0  0  0  0  0  0  0  0  0  0  0  0
   23.7965  -20.4577   -9.1740 O   0  0  0  0  0  0  0  0  0  0  0  0
  2  3  1  0
  2  1  1  1
  4  3  1  0
  5  2  1  0
  5  6  2  0
  7  5  1  0
  8  7  1  0
  9  8  1  0
 10  9  1  0
 10 11  1  0
 11  7  1  0
 12 13  2  0
 11 12  1  1
 14 12  1  0
 15 16  1  1
 15 14  1  0
 16 17  1  0
 17 18  2  0
 19 18  1  0
 20 19  1  0
 21 20  2  0
 22 21  1  0
 23 22  2  0
 23 24  1  0
 24 25  2  0
 25 20  1  0
 25 17  1  0
 26 15  1  0
 27 26  1  0
 28 26  2  0
M  END
$$$$
