DEP.pdb
     RDKit          3D

 25 25  0  0  1  0  0  0  0  0999 V2000
   22.1116  -12.5713  -18.7467 N   0  0  0  0  0  0  0  0  0  0  0  0
   22.6804  -11.2654  -18.5174 C   0  0  1  0  0  0  0  0  0  0  0  0
   23.1699  -10.7195  -19.8344 C   0  0  0  0  0  0  0  0  0  0  0  0
   24.3337  -11.5136  -20.2650 C   0  0  0  0  0  0  0  0  0  0  0  0
   25.3800  -11.5081  -19.5903 O   0  0  0  0  0  0  0  0  0  0  0  0
   21.7089  -10.4119  -17.8512 C   0  0  0  0  0  0  0  0  0  0  0  0
   20.4584  -10.5189  -17.9667 O   0  0  0  0  0  0  0  0  0  0  0  0
   24.2963  -12.2800  -21.4184 O   0  0  0  0  0  0  0  0  0  0  0  0
   22.1919   -9.3579  -16.9891 N   0  0  0  0  0  0  0  0  0  0  0  0
   21.2257   -8.5798  -16.2252 C   0  0  1  0  0  0  0  0  0  0  0  0
   21.0611   -9.2941  -14.9065 C   0  0  0  0  0  0  0  0  0  0  0  0
   20.0013  -10.3608  -14.9052 C   0  0  0  0  0  0  0  0  0  0  0  0
   18.6999   -9.6708  -14.5880 C   0  0  0  0  0  0  0  0  0  0  0  0
   18.4712   -9.1781  -13.4764 O   0  0  0  0  0  0  0  0  0  0  0  0
   21.6657   -7.1926  -16.0763 C   0  0  0  0  0  0  0  0  0  0  0  0
   22.8708   -7.0678  -15.6552 O   0  0  0  0  0  0  0  0  0  0  0  0
   17.7616   -9.6252  -15.6406 O   0  0  0  0  0  0  0  0  0  0  0  0
   20.9510   -6.0037  -16.3274 N   0  0  0  0  0  0  0  0  0  0  0  0
   19.6611   -5.8558  -16.9918 C   0  0  0  0  0  0  0  0  0  0  0  0
   19.4000   -4.3791  -17.0381 C   0  0  0  0  0  0  0  0  0  0  0  0
   20.1805   -3.8684  -15.8707 C   0  0  0  0  0  0  0  0  0  0  0  0
   21.4817   -4.6820  -15.9873 C   0  0  1  0  0  0  0  0  0  0  0  0
   22.1493   -4.6806  -14.6568 C   0  0  0  0  0  0  0  0  0  0  0  0
   21.9573   -5.7094  -13.9484 O   0  0  0  0  0  0  0  0  0  0  0  0
   22.9367   -3.6930  -14.1459 O   0  0  0  0  0  0  0  0  0  0  0  0
  2  1  1  6
  2  3  1  0
  3  4  1  0
  4  8  1  0
  5  4  2  0
  6  2  1  0
  7  6  2  0
  9  6  1  0
 10 11  1  1
 10  9  1  0
 11 12  1  0
 13 12  1  0
 13 17  1  0
 14 13  2  0
 15 10  1  0
 16 15  2  0
 18 15  1  0
 18 22  1  0
 19 18  1  0
 20 19  1  0
 20 21  1  0
 21 22  1  0
 22 23  1  1
 23 25  1  0
 24 23  2  0
M  END
$$$$
