DEP.pdb
     RDKit          3D

 25 25  0  0  1  0  0  0  0  0999 V2000
   20.0752   -5.0823  -15.9617 N   0  0  0  0  0  0  0  0  0  0  0  0
   21.2023   -5.5644  -16.7224 C   0  0  1  0  0  0  0  0  0  0  0  0
   22.1492   -4.4148  -16.9541 C   0  0  0  0  0  0  0  0  0  0  0  0
   21.4721   -3.4153  -17.7986 C   0  0  0  0  0  0  0  0  0  0  0  0
   20.6372   -3.7761  -18.6488 O   0  0  0  0  0  0  0  0  0  0  0  0
   21.8091   -6.6990  -16.0438 C   0  0  0  0  0  0  0  0  0  0  0  0
   22.0160   -6.7684  -14.8025 O   0  0  0  0  0  0  0  0  0  0  0  0
   21.7416   -2.0625  -17.6709 O   0  0  0  0  0  0  0  0  0  0  0  0
   22.2114   -7.8410  -16.8323 N   0  0  0  0  0  0  0  0  0  0  0  0
   22.6331   -9.0538  -16.1441 C   0  0  1  0  0  0  0  0  0  0  0  0
   21.4289   -9.9627  -16.1209 C   0  0  0  0  0  0  0  0  0  0  0  0
   21.6680  -11.2948  -15.4657 C   0  0  0  0  0  0  0  0  0  0  0  0
   20.3601  -12.0408  -15.5228 C   0  0  0  0  0  0  0  0  0  0  0  0
   20.1920  -13.0165  -16.2647 O   0  0  0  0  0  0  0  0  0  0  0  0
   23.7943   -9.6552  -16.7997 C   0  0  0  0  0  0  0  0  0  0  0  0
   23.6445   -9.8454  -18.0593 O   0  0  0  0  0  0  0  0  0  0  0  0
   19.3422  -11.5525  -14.6766 O   0  0  0  0  0  0  0  0  0  0  0  0
   25.0265  -10.0462  -16.2373 N   0  0  0  0  0  0  0  0  0  0  0  0
   25.4722   -9.8909  -14.8573 C   0  0  0  0  0  0  0  0  0  0  0  0
   26.8739  -10.4251  -14.8254 C   0  0  0  0  0  0  0  0  0  0  0  0
   26.8807  -11.4040  -15.9543 C   0  0  0  0  0  0  0  0  0  0  0  0
   26.1028  -10.6349  -17.0368 C   0  0  1  0  0  0  0  0  0  0  0  0
   25.5823  -11.6219  -18.0221 C   0  0  0  0  0  0  0  0  0  0  0  0
   24.4384  -12.0956  -17.7685 O   0  0  0  0  0  0  0  0  0  0  0  0
   26.2124  -12.0486  -19.1523 O   0  0  0  0  0  0  0  0  0  0  0  0
  2  1  1  1
  2  3  1  0
  3  4  1  0
  4  8  1  0
  5  4  2  0
  6  2  1  0
  7  6  2  0
  9  6  1  0
 10 11  1  6
 10  9  1  0
 11 12  1  0
 13 12  1  0
 13 17  1  0
 14 13  2  0
 15 10  1  0
 16 15  2  0
 18 15  1  0
 18 22  1  0
 19 18  1  0
 20 19  1  0
 20 21  1  0
 21 22  1  0
 22 23  1  6
 23 25  1  0
 24 23  2  0
M  END
$$$$
