DEP.pdb
     RDKit          3D

 25 25  0  0  1  0  0  0  0  0999 V2000
   20.3945  -21.6019  -15.2486 N   0  0  0  0  0  0  0  0  0  0  0  0
   20.6579  -20.1834  -15.2507 C   0  0  1  0  0  0  0  0  0  0  0  0
   19.4250  -19.4678  -14.7608 C   0  0  0  0  0  0  0  0  0  0  0  0
   19.4159  -18.1096  -15.3316 C   0  0  0  0  0  0  0  0  0  0  0  0
   20.4716  -17.5987  -15.7493 O   0  0  0  0  0  0  0  0  0  0  0  0
   21.8521  -19.9000  -14.4699 C   0  0  0  0  0  0  0  0  0  0  0  0
   21.8522  -19.4344  -13.2987 O   0  0  0  0  0  0  0  0  0  0  0  0
   18.2462  -17.3726  -15.4193 O   0  0  0  0  0  0  0  0  0  0  0  0
   23.1433  -20.1649  -15.0618 N   0  0  0  0  0  0  0  0  0  0  0  0
   24.2997  -20.3040  -14.1867 C   0  0  1  0  0  0  0  0  0  0  0  0
   23.9541  -21.3975  -13.2062 C   0  0  0  0  0  0  0  0  0  0  0  0
   25.0137  -21.6640  -12.1732 C   0  0  0  0  0  0  0  0  0  0  0  0
   24.5978  -20.9189  -10.9314 C   0  0  0  0  0  0  0  0  0  0  0  0
   25.4084  -20.2900  -10.2398 O   0  0  0  0  0  0  0  0  0  0  0  0
   25.5121  -20.5839  -14.9558 C   0  0  0  0  0  0  0  0  0  0  0  0
   25.4879  -21.7027  -15.5828 O   0  0  0  0  0  0  0  0  0  0  0  0
   23.2256  -20.9869  -10.6103 O   0  0  0  0  0  0  0  0  0  0  0  0
   26.6772  -19.8018  -15.0907 N   0  0  0  0  0  0  0  0  0  0  0  0
   26.9532  -18.4951  -14.5046 C   0  0  0  0  0  0  0  0  0  0  0  0
   28.3077  -18.1030  -15.0171 C   0  0  0  0  0  0  0  0  0  0  0  0
   28.9528  -19.4227  -15.2905 C   0  0  0  0  0  0  0  0  0  0  0  0
   27.7981  -20.2035  -15.9430 C   0  0  1  0  0  0  0  0  0  0  0  0
   28.0936  -21.6571  -15.8183 C   0  0  0  0  0  0  0  0  0  0  0  0
   27.5372  -22.2462  -14.8484 O   0  0  0  0  0  0  0  0  0  0  0  0
   28.8892  -22.3962  -16.6411 O   0  0  0  0  0  0  0  0  0  0  0  0
  2  1  1  1
  2  3  1  0
  3  4  1  0
  4  8  1  0
  5  4  2  0
  6  2  1  0
  7  6  2  0
  9  6  1  0
 10 11  1  1
 10  9  1  0
 11 12  1  0
 13 12  1  0
 13 17  1  0
 14 13  2  0
 15 10  1  0
 16 15  2  0
 18 15  1  0
 18 22  1  0
 19 18  1  0
 20 19  1  0
 20 21  1  0
 21 22  1  0
 22 23  1  1
 23 25  1  0
 24 23  2  0
M  END
$$$$
