DEP.pdb
     RDKit          3D

 25 25  0  0  1  0  0  0  0  0999 V2000
   19.5402  -12.7197  -14.9863 N   0  0  0  0  0  0  0  0  0  0  0  0
   19.4834  -12.4950  -16.4102 C   0  0  1  0  0  0  0  0  0  0  0  0
   18.3120  -13.2619  -16.9686 C   0  0  0  0  0  0  0  0  0  0  0  0
   18.5731  -14.7018  -16.7986 C   0  0  0  0  0  0  0  0  0  0  0  0
   19.7088  -15.1625  -17.0178 O   0  0  0  0  0  0  0  0  0  0  0  0
   19.4368  -11.0672  -16.6850 C   0  0  0  0  0  0  0  0  0  0  0  0
   19.4171  -10.5566  -17.8371 O   0  0  0  0  0  0  0  0  0  0  0  0
   17.5745  -15.5725  -16.3941 O   0  0  0  0  0  0  0  0  0  0  0  0
   19.4104  -10.1496  -15.5692 N   0  0  0  0  0  0  0  0  0  0  0  0
   19.3699   -8.7187  -15.8399 C   0  0  1  0  0  0  0  0  0  0  0  0
   18.0673   -8.2200  -15.2645 C   0  0  0  0  0  0  0  0  0  0  0  0
   16.8562   -8.5445  -16.0945 C   0  0  0  0  0  0  0  0  0  0  0  0
   15.6734   -7.9471  -15.3775 C   0  0  0  0  0  0  0  0  0  0  0  0
   14.7708   -8.6472  -14.9021 O   0  0  0  0  0  0  0  0  0  0  0  0
   20.5409   -8.0432  -15.2812 C   0  0  0  0  0  0  0  0  0  0  0  0
   20.8128   -8.3794  -14.0736 O   0  0  0  0  0  0  0  0  0  0  0  0
   15.6633   -6.5392  -15.2857 O   0  0  0  0  0  0  0  0  0  0  0  0
   21.3870   -7.0905  -15.8844 N   0  0  0  0  0  0  0  0  0  0  0  0
   21.4853   -6.7455  -17.2980 C   0  0  0  0  0  0  0  0  0  0  0  0
   22.5759   -5.7189  -17.3861 C   0  0  0  0  0  0  0  0  0  0  0  0
   22.5542   -5.0958  -16.0282 C   0  0  0  0  0  0  0  0  0  0  0  0
   22.3795   -6.3285  -15.1236 C   0  0  1  0  0  0  0  0  0  0  0  0
   21.8387   -5.8695  -13.8149 C   0  0  0  0  0  0  0  0  0  0  0  0
   20.5787   -5.8631  -13.7166 O   0  0  0  0  0  0  0  0  0  0  0  0
   22.5643   -5.4685  -12.7337 O   0  0  0  0  0  0  0  0  0  0  0  0
  2  1  1  1
  2  3  1  0
  3  4  1  0
  4  8  1  0
  5  4  2  0
  6  2  1  0
  7  6  2  0
  9  6  1  0
 10 11  1  1
 10  9  1  0
 11 12  1  0
 13 12  1  0
 13 17  1  0
 14 13  2  0
 15 10  1  0
 16 15  2  0
 18 15  1  0
 18 22  1  0
 19 18  1  0
 20 19  1  0
 20 21  1  0
 21 22  1  0
 22 23  1  1
 23 25  1  0
 24 23  2  0
M  END
$$$$
