DEP.pdb
     RDKit          3D

 25 25  0  0  1  0  0  0  0  0999 V2000
   15.4587  -10.8599  -14.2126 N   0  0  0  0  0  0  0  0  0  0  0  0
   15.9149   -9.7647  -15.0333 C   0  0  1  0  0  0  0  0  0  0  0  0
   15.0226   -8.5759  -14.7828 C   0  0  0  0  0  0  0  0  0  0  0  0
   13.6990   -8.8546  -15.3668 C   0  0  0  0  0  0  0  0  0  0  0  0
   13.6060   -9.4937  -16.4312 O   0  0  0  0  0  0  0  0  0  0  0  0
   17.3236   -9.5073  -14.7776 C   0  0  0  0  0  0  0  0  0  0  0  0
   17.8716   -9.5664  -13.6442 O   0  0  0  0  0  0  0  0  0  0  0  0
   12.5351   -8.4194  -14.7545 O   0  0  0  0  0  0  0  0  0  0  0  0
   18.1749   -9.1567  -15.8912 N   0  0  0  0  0  0  0  0  0  0  0  0
   19.5991   -8.9657  -15.6512 C   0  0  1  0  0  0  0  0  0  0  0  0
   20.3128   -9.6896  -16.7661 C   0  0  0  0  0  0  0  0  0  0  0  0
   21.8105   -9.5593  -16.7334 C   0  0  0  0  0  0  0  0  0  0  0  0
   22.3323  -10.3192  -17.9252 C   0  0  0  0  0  0  0  0  0  0  0  0
   22.5427   -9.7704  -19.0139 O   0  0  0  0  0  0  0  0  0  0  0  0
   19.9358   -7.5438  -15.5813 C   0  0  0  0  0  0  0  0  0  0  0  0
   19.4734   -6.8477  -16.5544 O   0  0  0  0  0  0  0  0  0  0  0  0
   22.5634  -11.6954  -17.7173 O   0  0  0  0  0  0  0  0  0  0  0  0
   20.6881   -6.8574  -14.6064 N   0  0  0  0  0  0  0  0  0  0  0  0
   21.1165   -7.3415  -13.2991 C   0  0  0  0  0  0  0  0  0  0  0  0
   21.8329   -6.1891  -12.6590 C   0  0  0  0  0  0  0  0  0  0  0  0
   22.3217   -5.4086  -13.8357 C   0  0  0  0  0  0  0  0  0  0  0  0
   21.1019   -5.4626  -14.7725 C   0  0  1  0  0  0  0  0  0  0  0  0
   21.5700   -5.1867  -16.1584 C   0  0  0  0  0  0  0  0  0  0  0  0
   21.8208   -6.2055  -16.8631 O   0  0  0  0  0  0  0  0  0  0  0  0
   21.7442   -3.9605  -16.7262 O   0  0  0  0  0  0  0  0  0  0  0  0
  2  1  1  1
  2  3  1  0
  3  4  1  0
  4  8  1  0
  5  4  2  0
  6  2  1  0
  7  6  2  0
  9  6  1  0
 10 11  1  6
 10  9  1  0
 11 12  1  0
 13 12  1  0
 13 17  1  0
 14 13  2  0
 15 10  1  0
 16 15  2  0
 18 15  1  0
 18 22  1  0
 19 18  1  0
 20 19  1  0
 20 21  1  0
 21 22  1  0
 22 23  1  6
 23 25  1  0
 24 23  2  0
M  END
$$$$
