DEP.pdb
     RDKit          3D

 25 25  0  0  1  0  0  0  0  0999 V2000
   20.8978  -13.7132  -17.5947 N   0  0  0  0  0  0  0  0  0  0  0  0
   19.7237  -12.8850  -17.4645 C   0  0  1  0  0  0  0  0  0  0  0  0
   18.5245  -13.7807  -17.2863 C   0  0  0  0  0  0  0  0  0  0  0  0
   18.2686  -14.4767  -18.5593 C   0  0  0  0  0  0  0  0  0  0  0  0
   18.6645  -15.6455  -18.7247 O   0  0  0  0  0  0  0  0  0  0  0  0
   19.9094  -11.9285  -16.3844 C   0  0  0  0  0  0  0  0  0  0  0  0
   20.4802  -12.1815  -15.2895 O   0  0  0  0  0  0  0  0  0  0  0  0
   17.5877  -13.8578  -19.5949 O   0  0  0  0  0  0  0  0  0  0  0  0
   19.4104  -10.5838  -16.5592 N   0  0  0  0  0  0  0  0  0  0  0  0
   19.8936   -9.5362  -15.6695 C   0  0  1  0  0  0  0  0  0  0  0  0
   21.3809   -9.4400  -15.9043 C   0  0  0  0  0  0  0  0  0  0  0  0
   22.0997   -8.5104  -14.9661 C   0  0  0  0  0  0  0  0  0  0  0  0
   23.5657   -8.6179  -15.2968 C   0  0  0  0  0  0  0  0  0  0  0  0
   24.2722   -9.5355  -14.8612 O   0  0  0  0  0  0  0  0  0  0  0  0
   19.1913   -8.2756  -15.9093 C   0  0  0  0  0  0  0  0  0  0  0  0
   19.3553   -7.8010  -17.0896 O   0  0  0  0  0  0  0  0  0  0  0  0
   24.0780   -7.6039  -16.1335 O   0  0  0  0  0  0  0  0  0  0  0  0
   18.3792   -7.5315  -15.0294 N   0  0  0  0  0  0  0  0  0  0  0  0
   17.9213   -7.9078  -13.6968 C   0  0  0  0  0  0  0  0  0  0  0  0
   17.0471   -6.7778  -13.2385 C   0  0  0  0  0  0  0  0  0  0  0  0
   17.5821   -5.6131  -14.0066 C   0  0  0  0  0  0  0  0  0  0  0  0
   17.8069   -6.2346  -15.3965 C   0  0  1  0  0  0  0  0  0  0  0  0
   18.7861   -5.3866  -16.1299 C   0  0  0  0  0  0  0  0  0  0  0  0
   19.9666   -5.8349  -16.1806 O   0  0  0  0  0  0  0  0  0  0  0  0
   18.5291   -4.1974  -16.7434 O   0  0  0  0  0  0  0  0  0  0  0  0
  2  1  1  1
  2  3  1  0
  3  4  1  0
  4  8  1  0
  5  4  2  0
  6  2  1  0
  7  6  2  0
  9  6  1  0
 10 11  1  6
 10  9  1  0
 11 12  1  0
 13 12  1  0
 13 17  1  0
 14 13  2  0
 15 10  1  0
 16 15  2  0
 18 15  1  0
 18 22  1  0
 19 18  1  0
 20 19  1  0
 20 21  1  0
 21 22  1  0
 22 23  1  6
 23 25  1  0
 24 23  2  0
M  END
$$$$
