DEP.pdb
     RDKit          3D

 25 25  0  0  1  0  0  0  0  0999 V2000
   27.2408  -19.3824  -17.8959 N   0  0  0  0  0  0  0  0  0  0  0  0
   26.0605  -18.7624  -17.3444 C   0  0  1  0  0  0  0  0  0  0  0  0
   25.3453  -18.0287  -18.4499 C   0  0  0  0  0  0  0  0  0  0  0  0
   26.0894  -16.7924  -18.7472 C   0  0  0  0  0  0  0  0  0  0  0  0
   25.8262  -15.7405  -18.1353 O   0  0  0  0  0  0  0  0  0  0  0  0
   25.2420  -19.7621  -16.6760 C   0  0  0  0  0  0  0  0  0  0  0  0
   24.5789  -20.6587  -17.2633 O   0  0  0  0  0  0  0  0  0  0  0  0
   27.0912  -16.7665  -19.7036 O   0  0  0  0  0  0  0  0  0  0  0  0
   25.1705  -19.7438  -15.2330 N   0  0  0  0  0  0  0  0  0  0  0  0
   24.3890  -20.7711  -14.5574 C   0  0  1  0  0  0  0  0  0  0  0  0
   24.9816  -20.9081  -13.1766 C   0  0  0  0  0  0  0  0  0  0  0  0
   24.2765  -21.8995  -12.2930 C   0  0  0  0  0  0  0  0  0  0  0  0
   25.3474  -22.7652  -11.6815 C   0  0  0  0  0  0  0  0  0  0  0  0
   25.3251  -23.9991  -11.7700 O   0  0  0  0  0  0  0  0  0  0  0  0
   22.9675  -20.4265  -14.5410 C   0  0  0  0  0  0  0  0  0  0  0  0
   22.7097  -19.2926  -13.9997 O   0  0  0  0  0  0  0  0  0  0  0  0
   26.3741  -22.0763  -11.0019 O   0  0  0  0  0  0  0  0  0  0  0  0
   21.8703  -21.1646  -15.0296 N   0  0  0  0  0  0  0  0  0  0  0  0
   21.8922  -22.3310  -15.9049 C   0  0  0  0  0  0  0  0  0  0  0  0
   20.4529  -22.6763  -16.1501 C   0  0  0  0  0  0  0  0  0  0  0  0
   19.7717  -22.1387  -14.9337 C   0  0  0  0  0  0  0  0  0  0  0  0
   20.4832  -20.7863  -14.7516 C   0  0  1  0  0  0  0  0  0  0  0  0
   20.3012  -20.3540  -13.3388 C   0  0  0  0  0  0  0  0  0  0  0  0
   21.1002  -20.8657  -12.5039 O   0  0  0  0  0  0  0  0  0  0  0  0
   19.3735  -19.4707  -12.8744 O   0  0  0  0  0  0  0  0  0  0  0  0
  2  1  1  6
  2  3  1  0
  3  4  1  0
  4  8  1  0
  5  4  2  0
  6  2  1  0
  7  6  2  0
  9  6  1  0
 10 11  1  1
 10  9  1  0
 11 12  1  0
 13 12  1  0
 13 17  1  0
 14 13  2  0
 15 10  1  0
 16 15  2  0
 18 15  1  0
 18 22  1  0
 19 18  1  0
 20 19  1  0
 20 21  1  0
 21 22  1  0
 22 23  1  1
 23 25  1  0
 24 23  2  0
M  END
$$$$
