DEP.pdb
     RDKit          3D

 25 25  0  0  1  0  0  0  0  0999 V2000
   16.1618  -10.5238  -16.4323 N   0  0  0  0  0  0  0  0  0  0  0  0
   16.9379  -10.9903  -15.3091 C   0  0  1  0  0  0  0  0  0  0  0  0
   17.0029  -12.4952  -15.3654 C   0  0  0  0  0  0  0  0  0  0  0  0
   15.7003  -13.0349  -14.9381 C   0  0  0  0  0  0  0  0  0  0  0  0
   14.7641  -12.2633  -14.6579 O   0  0  0  0  0  0  0  0  0  0  0  0
   18.2415  -10.3448  -15.3053 C   0  0  0  0  0  0  0  0  0  0  0  0
   19.2273  -10.7184  -14.6146 O   0  0  0  0  0  0  0  0  0  0  0  0
   15.4832  -14.3994  -14.8383 O   0  0  0  0  0  0  0  0  0  0  0  0
   18.4422   -9.1887  -16.1485 N   0  0  0  0  0  0  0  0  0  0  0  0
   19.7465   -8.5397  -16.1483 C   0  0  1  0  0  0  0  0  0  0  0  0
   20.1413   -8.3920  -17.5971 C   0  0  0  0  0  0  0  0  0  0  0  0
   19.0869   -7.7672  -18.4682 C   0  0  0  0  0  0  0  0  0  0  0  0
   19.8153   -6.9374  -19.4934 C   0  0  0  0  0  0  0  0  0  0  0  0
   19.2205   -6.1731  -20.2633 O   0  0  0  0  0  0  0  0  0  0  0  0
   19.7008   -7.2648  -15.4324 C   0  0  0  0  0  0  0  0  0  0  0  0
   18.6568   -6.5621  -15.6804 O   0  0  0  0  0  0  0  0  0  0  0  0
   21.2177   -7.0906  -19.5172 O   0  0  0  0  0  0  0  0  0  0  0  0
   20.6363   -6.7211  -14.5288 N   0  0  0  0  0  0  0  0  0  0  0  0
   21.7754   -7.3873  -13.9078 C   0  0  0  0  0  0  0  0  0  0  0  0
   22.3918   -6.3653  -12.9986 C   0  0  0  0  0  0  0  0  0  0  0  0
   21.9973   -5.0734  -13.6373 C   0  0  0  0  0  0  0  0  0  0  0  0
   20.5331   -5.3513  -14.0214 C   0  0  1  0  0  0  0  0  0  0  0  0
   20.1458   -4.3932  -15.0928 C   0  0  0  0  0  0  0  0  0  0  0  0
   19.5523   -3.3479  -14.7023 O   0  0  0  0  0  0  0  0  0  0  0  0
   20.3729   -4.5357  -16.4287 O   0  0  0  0  0  0  0  0  0  0  0  0
  2  1  1  6
  2  3  1  0
  3  4  1  0
  4  8  1  0
  5  4  2  0
  6  2  1  0
  7  6  2  0
  9  6  1  0
 10 11  1  6
 10  9  1  0
 11 12  1  0
 13 12  1  0
 13 17  1  0
 14 13  2  0
 15 10  1  0
 16 15  2  0
 18 15  1  0
 18 22  1  0
 19 18  1  0
 20 19  1  0
 20 21  1  0
 21 22  1  0
 22 23  1  6
 23 25  1  0
 24 23  2  0
M  END
$$$$
