DEP.pdb
     RDKit          3D

 25 25  0  0  1  0  0  0  0  0999 V2000
   14.9938  -22.8065    3.4123 N   0  0  0  0  0  0  0  0  0  0  0  0
   16.3399  -23.2925    3.5947 C   0  0  1  0  0  0  0  0  0  0  0  0
   16.7529  -24.0340    2.3491 C   0  0  0  0  0  0  0  0  0  0  0  0
   16.0351  -25.3200    2.3119 C   0  0  0  0  0  0  0  0  0  0  0  0
   15.8064  -25.9404    3.3669 O   0  0  0  0  0  0  0  0  0  0  0  0
   17.2220  -22.1893    3.9426 C   0  0  0  0  0  0  0  0  0  0  0  0
   18.4793  -22.2619    3.9927 O   0  0  0  0  0  0  0  0  0  0  0  0
   15.5991  -25.8677    1.1165 O   0  0  0  0  0  0  0  0  0  0  0  0
   16.6341  -20.9075    4.2571 N   0  0  0  0  0  0  0  0  0  0  0  0
   17.5158  -19.7771    4.5160 C   0  0  1  0  0  0  0  0  0  0  0  0
   16.6700  -18.5389    4.3485 C   0  0  0  0  0  0  0  0  0  0  0  0
   17.3714  -17.2551    4.6963 C   0  0  0  0  0  0  0  0  0  0  0  0
   16.3668  -16.1504    4.4947 C   0  0  0  0  0  0  0  0  0  0  0  0
   15.2270  -16.3688    4.0658 O   0  0  0  0  0  0  0  0  0  0  0  0
   18.1290  -19.8793    5.8402 C   0  0  0  0  0  0  0  0  0  0  0  0
   17.3074  -20.1893    6.7753 O   0  0  0  0  0  0  0  0  0  0  0  0
   16.8122  -14.8533    4.8260 O   0  0  0  0  0  0  0  0  0  0  0  0
   19.4745  -19.6825    6.2121 N   0  0  0  0  0  0  0  0  0  0  0  0
   20.6376  -19.5618    5.3405 C   0  0  0  0  0  0  0  0  0  0  0  0
   21.8154  -19.4225    6.2594 C   0  0  0  0  0  0  0  0  0  0  0  0
   21.2076  -18.8292    7.4888 C   0  0  0  0  0  0  0  0  0  0  0  0
   19.9036  -19.6373    7.6114 C   0  0  1  0  0  0  0  0  0  0  0  0
   18.9550  -18.8599    8.4552 C   0  0  0  0  0  0  0  0  0  0  0  0
   18.1229  -18.1466    7.8259 O   0  0  0  0  0  0  0  0  0  0  0  0
   18.9004  -18.8518    9.8166 O   0  0  0  0  0  0  0  0  0  0  0  0
  2  1  1  6
  2  3  1  0
  3  4  1  0
  4  8  1  0
  5  4  2  0
  6  2  1  0
  7  6  2  0
  9  6  1  0
 10 11  1  1
 10  9  1  0
 11 12  1  0
 13 12  1  0
 13 17  1  0
 14 13  2  0
 15 10  1  0
 16 15  2  0
 18 15  1  0
 18 22  1  0
 19 18  1  0
 20 19  1  0
 20 21  1  0
 21 22  1  0
 22 23  1  1
 23 25  1  0
 24 23  2  0
M  END
$$$$
