DEP.pdb
     RDKit          3D

 25 25  0  0  1  0  0  0  0  0999 V2000
   24.6099  -20.4129  -17.0267 N   0  0  0  0  0  0  0  0  0  0  0  0
   25.0561  -19.2357  -16.3220 C   0  0  1  0  0  0  0  0  0  0  0  0
   25.2711  -18.1313  -17.3250 C   0  0  0  0  0  0  0  0  0  0  0  0
   26.3918  -18.5099  -18.2031 C   0  0  0  0  0  0  0  0  0  0  0  0
   26.9440  -19.6180  -18.0713 O   0  0  0  0  0  0  0  0  0  0  0  0
   24.1092  -18.8993  -15.2702 C   0  0  0  0  0  0  0  0  0  0  0  0
   24.1333  -17.8362  -14.5935 O   0  0  0  0  0  0  0  0  0  0  0  0
   26.8561  -17.6543  -19.1887 O   0  0  0  0  0  0  0  0  0  0  0  0
   23.0557  -19.8391  -14.9628 N   0  0  0  0  0  0  0  0  0  0  0  0
   22.1595  -19.5479  -13.8516 C   0  0  1  0  0  0  0  0  0  0  0  0
   20.7922  -19.3477  -14.4573 C   0  0  0  0  0  0  0  0  0  0  0  0
   20.6421  -18.0771  -15.2474 C   0  0  0  0  0  0  0  0  0  0  0  0
   19.2074  -18.0245  -15.7046 C   0  0  0  0  0  0  0  0  0  0  0  0
   18.2708  -17.8612  -14.9128 O   0  0  0  0  0  0  0  0  0  0  0  0
   22.1946  -20.6156  -12.8524 C   0  0  0  0  0  0  0  0  0  0  0  0
   21.6604  -21.7149  -13.2416 O   0  0  0  0  0  0  0  0  0  0  0  0
   19.0039  -18.1746  -17.0927 O   0  0  0  0  0  0  0  0  0  0  0  0
   22.7249  -20.5910  -11.5464 N   0  0  0  0  0  0  0  0  0  0  0  0
   23.6662  -19.6327  -10.9784 C   0  0  0  0  0  0  0  0  0  0  0  0
   23.9309  -20.1098   -9.5807 C   0  0  0  0  0  0  0  0  0  0  0  0
   22.6853  -20.8648   -9.2474 C   0  0  0  0  0  0  0  0  0  0  0  0
   22.4254  -21.6289  -10.5578 C   0  0  1  0  0  0  0  0  0  0  0  0
   20.9900  -22.0222  -10.5874 C   0  0  0  0  0  0  0  0  0  0  0  0
   20.2125  -21.2082  -11.1622 O   0  0  0  0  0  0  0  0  0  0  0  0
   20.4500  -23.1593  -10.0662 O   0  0  0  0  0  0  0  0  0  0  0  0
  2  1  1  6
  2  3  1  0
  3  4  1  0
  4  8  1  0
  5  4  2  0
  6  2  1  0
  7  6  2  0
  9  6  1  0
 10 11  1  6
 10  9  1  0
 11 12  1  0
 13 12  1  0
 13 17  1  0
 14 13  2  0
 15 10  1  0
 16 15  2  0
 18 15  1  0
 18 22  1  0
 19 18  1  0
 20 19  1  0
 20 21  1  0
 21 22  1  0
 22 23  1  1
 23 25  1  0
 24 23  2  0
M  END
$$$$
