DEP.pdb
     RDKit          3D

 25 25  0  0  1  0  0  0  0  0999 V2000
   28.4899  -20.9045  -17.9476 N   0  0  0  0  0  0  0  0  0  0  0  0
   27.8698  -21.7620  -16.9671 C   0  0  1  0  0  0  0  0  0  0  0  0
   28.9549  -22.4728  -16.1994 C   0  0  0  0  0  0  0  0  0  0  0  0
   29.5700  -23.4783  -17.0833 C   0  0  0  0  0  0  0  0  0  0  0  0
   30.4673  -24.2259  -16.6522 O   0  0  0  0  0  0  0  0  0  0  0  0
   26.9681  -20.9862  -16.1297 C   0  0  0  0  0  0  0  0  0  0  0  0
   27.2735  -19.9109  -15.5474 O   0  0  0  0  0  0  0  0  0  0  0  0
   29.1710  -23.6186  -18.4024 O   0  0  0  0  0  0  0  0  0  0  0  0
   25.6186  -21.4657  -15.9386 N   0  0  0  0  0  0  0  0  0  0  0  0
   24.6866  -20.6482  -15.1736 C   0  0  1  0  0  0  0  0  0  0  0  0
   23.5023  -20.4066  -16.0767 C   0  0  0  0  0  0  0  0  0  0  0  0
   22.4040  -19.5881  -15.4562 C   0  0  0  0  0  0  0  0  0  0  0  0
   22.8011  -18.1441  -15.6209 C   0  0  0  0  0  0  0  0  0  0  0  0
   23.5768  -17.7731  -16.5105 O   0  0  0  0  0  0  0  0  0  0  0  0
   24.3255  -21.2990  -13.9143 C   0  0  0  0  0  0  0  0  0  0  0  0
   23.4969  -22.2694  -14.0450 O   0  0  0  0  0  0  0  0  0  0  0  0
   22.2314  -17.2455  -14.6943 O   0  0  0  0  0  0  0  0  0  0  0  0
   24.7588  -21.0016  -12.6061 N   0  0  0  0  0  0  0  0  0  0  0  0
   25.8691  -20.1468  -12.2016 C   0  0  0  0  0  0  0  0  0  0  0  0
   25.9154  -20.2302  -10.7043 C   0  0  0  0  0  0  0  0  0  0  0  0
   24.5025  -20.5605  -10.3475 C   0  0  0  0  0  0  0  0  0  0  0  0
   24.1475  -21.6052  -11.4203 C   0  0  1  0  0  0  0  0  0  0  0  0
   22.6645  -21.6664  -11.5340 C   0  0  0  0  0  0  0  0  0  0  0  0
   22.1567  -20.9529  -12.4452 O   0  0  0  0  0  0  0  0  0  0  0  0
   21.8224  -22.4108  -10.7638 O   0  0  0  0  0  0  0  0  0  0  0  0
  2  1  1  6
  2  3  1  0
  3  4  1  0
  4  8  1  0
  5  4  2  0
  6  2  1  0
  7  6  2  0
  9  6  1  0
 10 11  1  6
 10  9  1  0
 11 12  1  0
 13 12  1  0
 13 17  1  0
 14 13  2  0
 15 10  1  0
 16 15  2  0
 18 15  1  0
 18 22  1  0
 19 18  1  0
 20 19  1  0
 20 21  1  0
 21 22  1  0
 22 23  1  6
 23 25  1  0
 24 23  2  0
M  END
$$$$
