MPM.pdb
     RDKit          3D

 24 24  0  0  1  0  0  0  0  0999 V2000
   22.9564  -15.9866  -17.0651 C   0  0  0  0  0  0  0  0  0  0  0  0
   24.2854  -15.7004  -18.2514 S   0  0  0  0  0  0  0  0  0  0  0  0
   25.8320  -16.5372  -17.7248 C   0  0  0  0  0  0  0  0  0  0  0  0
   25.4704  -17.5683  -16.7157 C   0  0  0  0  0  0  0  0  0  0  0  0
   25.9810  -18.9569  -16.9955 C   0  0  2  0  0  0  0  0  0  0  0  0
   25.3277  -19.4225  -18.1768 N   0  0  0  0  0  0  0  0  0  0  0  0
   25.9556  -19.8659  -15.8463 C   0  0  0  0  0  0  0  0  0  0  0  0
   24.9208  -20.6210  -15.7340 O   0  0  0  0  0  0  0  0  0  0  0  0
   26.9427  -20.0063  -14.8451 N   0  0  0  0  0  0  0  0  0  0  0  0
   28.2167  -19.3555  -14.6336 C   0  0  0  0  0  0  0  0  0  0  0  0
   29.1153  -20.5495  -14.3031 C   0  0  0  0  0  0  0  0  0  0  0  0
   28.2426  -21.3414  -13.3550 C   0  0  0  0  0  0  0  0  0  0  0  0
   26.8372  -20.9282  -13.7246 C   0  0  1  0  0  0  0  0  0  0  0  0
   26.2049  -20.3026  -12.5477 C   0  0  0  0  0  0  0  0  0  0  0  0
   26.5107  -19.0962  -12.3179 O   0  0  0  0  0  0  0  0  0  0  0  0
   20.1893  -18.9543   -9.4308 C   0  0  0  0  0  0  0  0  0  0  0  0
   20.8477  -20.6272   -9.3135 S   0  0  0  0  0  0  0  0  0  0  0  0
   22.6788  -20.5560   -9.2120 C   0  0  0  0  0  0  0  0  0  0  0  0
   23.2636  -20.2209  -10.5531 C   0  0  0  0  0  0  0  0  0  0  0  0
   24.7611  -20.2227  -10.4946 C   0  0  2  0  0  0  0  0  0  0  0  0
   25.3012  -20.9346  -11.6736 N   0  0  0  0  0  0  0  0  0  0  0  0
   25.2480  -20.8599   -9.2626 C   0  0  0  0  0  0  0  0  0  0  0  0
   25.2311  -20.1115   -8.0624 O   0  0  0  0  0  0  0  0  0  0  0  0
   25.6898  -22.0166   -9.1341 O   0  0  0  0  0  0  0  0  0  0  0  0
  1  2  1  0
  3  4  1  0
  3  2  1  0
  5  4  1  0
  5  6  1  6
  7  5  1  0
  8  7  2  0
  9 10  1  0
  9  7  1  0
 11 10  1  0
 12 13  1  0
 12 11  1  0
 13  9  1  0
 14 21  1  0
 13 14  1  1
 15 14  2  0
 17 16  1  0
 18 17  1  0
 19 18  1  0
 20 19  1  1
 20 21  1  0
 22 20  1  0
 22 23  1  0
 24 22  2  0
M  END
$$$$
