MPM.pdb
     RDKit          3D

 24 24  0  0  1  0  0  0  0  0999 V2000
   28.4040  -10.1053  -16.9215 C   0  0  0  0  0  0  0  0  0  0  0  0
   27.6173  -11.7218  -17.0755 S   0  0  0  0  0  0  0  0  0  0  0  0
   26.3353  -11.9578  -15.7829 C   0  0  0  0  0  0  0  0  0  0  0  0
   25.3668  -10.8344  -15.8923 C   0  0  0  0  0  0  0  0  0  0  0  0
   24.0260  -11.1884  -16.4788 C   0  0  2  0  0  0  0  0  0  0  0  0
   24.2579  -11.7269  -17.7808 N   0  0  0  0  0  0  0  0  0  0  0  0
   23.0164  -10.1298  -16.3916 C   0  0  0  0  0  0  0  0  0  0  0  0
   22.8464   -9.4102  -17.4436 O   0  0  0  0  0  0  0  0  0  0  0  0
   22.2067   -9.8101  -15.2787 N   0  0  0  0  0  0  0  0  0  0  0  0
   22.0379  -10.4327  -13.9844 C   0  0  0  0  0  0  0  0  0  0  0  0
   20.5136  -10.4372  -13.8471 C   0  0  0  0  0  0  0  0  0  0  0  0
   20.1548   -9.0489  -14.3284 C   0  0  0  0  0  0  0  0  0  0  0  0
   21.3046   -8.6695  -15.2320 C   0  0  1  0  0  0  0  0  0  0  0  0
   21.9580   -7.4661  -14.6833 C   0  0  0  0  0  0  0  0  0  0  0  0
   23.1370   -7.6137  -14.2475 O   0  0  0  0  0  0  0  0  0  0  0  0
   25.8182   -2.3523  -17.8317 C   0  0  0  0  0  0  0  0  0  0  0  0
   24.7841   -3.8224  -17.7064 S   0  0  0  0  0  0  0  0  0  0  0  0
   23.8546   -3.7810  -16.1245 C   0  0  0  0  0  0  0  0  0  0  0  0
   23.0001   -5.0075  -15.9886 C   0  0  0  0  0  0  0  0  0  0  0  0
   22.2144   -4.9682  -14.7130 C   0  0  2  0  0  0  0  0  0  0  0  0
   21.3800   -6.1853  -14.6085 N   0  0  0  0  0  0  0  0  0  0  0  0
   21.3613   -3.7730  -14.6462 C   0  0  0  0  0  0  0  0  0  0  0  0
   20.1401   -3.7735  -15.3599 O   0  0  0  0  0  0  0  0  0  0  0  0
   21.5831   -2.7206  -14.0192 O   0  0  0  0  0  0  0  0  0  0  0  0
  1  2  1  0
  3  4  1  0
  3  2  1  0
  5  4  1  0
  5  6  1  6
  7  5  1  0
  8  7  2  0
  9 10  1  0
  9  7  1  0
 11 10  1  0
 12 13  1  0
 12 11  1  0
 13  9  1  0
 14 21  1  0
 13 14  1  1
 15 14  2  0
 17 16  1  0
 18 17  1  0
 19 18  1  0
 20 19  1  6
 20 21  1  0
 22 20  1  0
 22 23  1  0
 24 22  2  0
M  END
$$$$
