MPM.pdb
     RDKit          3D

 24 24  0  0  1  0  0  0  0  0999 V2000
   27.0800  -19.8090   -7.5922 C   0  0  0  0  0  0  0  0  0  0  0  0
   25.7540  -20.9894   -7.9144 S   0  0  0  0  0  0  0  0  0  0  0  0
   24.5619  -20.3245   -9.1418 C   0  0  0  0  0  0  0  0  0  0  0  0
   25.0607  -20.6772  -10.4978 C   0  0  0  0  0  0  0  0  0  0  0  0
   24.2798  -20.0977  -11.6474 C   0  0  2  0  0  0  0  0  0  0  0  0
   22.9047  -20.4180  -11.4345 N   0  0  0  0  0  0  0  0  0  0  0  0
   24.8145  -20.4108  -12.9754 C   0  0  0  0  0  0  0  0  0  0  0  0
   23.9702  -20.8290  -13.8505 O   0  0  0  0  0  0  0  0  0  0  0  0
   26.1569  -20.3047  -13.4036 N   0  0  0  0  0  0  0  0  0  0  0  0
   27.3818  -19.9876  -12.7033 C   0  0  0  0  0  0  0  0  0  0  0  0
   28.0287  -18.9863  -13.6630 C   0  0  0  0  0  0  0  0  0  0  0  0
   27.8019  -19.6501  -15.0030 C   0  0  0  0  0  0  0  0  0  0  0  0
   26.5916  -20.5250  -14.7744 C   0  0  1  0  0  0  0  0  0  0  0  0
   26.9723  -21.9293  -15.0180 C   0  0  0  0  0  0  0  0  0  0  0  0
   27.3495  -22.5943  -14.0094 O   0  0  0  0  0  0  0  0  0  0  0  0
   22.2092  -23.5294  -14.1769 C   0  0  0  0  0  0  0  0  0  0  0  0
   23.1697  -25.0416  -13.9852 S   0  0  0  0  0  0  0  0  0  0  0  0
   24.8832  -24.7546  -14.5765 C   0  0  0  0  0  0  0  0  0  0  0  0
   24.8920  -23.7336  -15.6766 C   0  0  0  0  0  0  0  0  0  0  0  0
   26.1634  -23.8146  -16.4660 C   0  0  2  0  0  0  0  0  0  0  0  0
   26.9488  -22.5769  -16.2670 N   0  0  0  0  0  0  0  0  0  0  0  0
   25.8931  -24.0076  -17.8979 C   0  0  0  0  0  0  0  0  0  0  0  0
   25.3454  -22.9306  -18.6335 O   0  0  0  0  0  0  0  0  0  0  0  0
   26.0912  -25.0349  -18.5725 O   0  0  0  0  0  0  0  0  0  0  0  0
  1  2  1  0
  3  4  1  0
  3  2  1  0
  5  4  1  0
  5  6  1  6
  7  5  1  0
  8  7  2  0
  9 10  1  0
  9  7  1  0
 11 10  1  0
 12 13  1  0
 12 11  1  0
 13  9  1  0
 14 21  1  0
 13 14  1  1
 15 14  2  0
 17 16  1  0
 18 17  1  0
 19 18  1  0
 20 19  1  1
 20 21  1  0
 22 20  1  0
 22 23  1  0
 24 22  2  0
M  END
$$$$
