MPM.pdb
     RDKit          3D

 24 24  0  0  1  0  0  0  0  0999 V2000
   21.2343  -18.2374  -13.0350 C   0  0  0  0  0  0  0  0  0  0  0  0
   21.3252  -17.6098  -14.7242 S   0  0  0  0  0  0  0  0  0  0  0  0
   22.6810  -18.4219  -15.6581 C   0  0  0  0  0  0  0  0  0  0  0  0
   23.3819  -19.3483  -14.7292 C   0  0  0  0  0  0  0  0  0  0  0  0
   24.5837  -20.0531  -15.3002 C   0  0  2  0  0  0  0  0  0  0  0  0
   24.1341  -20.8374  -16.4054 N   0  0  0  0  0  0  0  0  0  0  0  0
   25.4158  -20.7488  -14.3147 C   0  0  0  0  0  0  0  0  0  0  0  0
   25.0923  -21.9637  -14.0451 O   0  0  0  0  0  0  0  0  0  0  0  0
   26.5365  -20.2334  -13.6256 N   0  0  0  0  0  0  0  0  0  0  0  0
   27.1898  -18.9434  -13.6531 C   0  0  0  0  0  0  0  0  0  0  0  0
   28.6626  -19.3517  -13.7324 C   0  0  0  0  0  0  0  0  0  0  0  0
   28.7297  -20.4700  -12.7163 C   0  0  0  0  0  0  0  0  0  0  0  0
   27.3130  -20.9916  -12.6566 C   0  0  1  0  0  0  0  0  0  0  0  0
   26.8055  -20.8211  -11.2820 C   0  0  0  0  0  0  0  0  0  0  0  0
   26.4830  -19.6456  -10.9417 O   0  0  0  0  0  0  0  0  0  0  0  0
   27.7282  -18.7909   -4.4932 C   0  0  0  0  0  0  0  0  0  0  0  0
   28.0394  -18.9809   -6.2575 S   0  0  0  0  0  0  0  0  0  0  0  0
   26.8386  -20.1759   -6.9633 C   0  0  0  0  0  0  0  0  0  0  0  0
   27.2443  -20.5635   -8.3554 C   0  0  0  0  0  0  0  0  0  0  0  0
   26.2731  -21.5455   -8.9373 C   0  0  2  0  0  0  0  0  0  0  0  0
   26.6544  -21.8499  -10.3339 N   0  0  0  0  0  0  0  0  0  0  0  0
   24.8986  -21.0259   -8.8989 C   0  0  0  0  0  0  0  0  0  0  0  0
   24.2194  -20.8199  -10.1225 O   0  0  0  0  0  0  0  0  0  0  0  0
   24.2297  -20.7326   -7.8908 O   0  0  0  0  0  0  0  0  0  0  0  0
  1  2  1  0
  3  4  1  0
  3  2  1  0
  5  4  1  0
  5  6  1  6
  7  5  1  0
  8  7  2  0
  9 10  1  0
  9  7  1  0
 11 10  1  0
 12 13  1  0
 12 11  1  0
 13  9  1  0
 14 21  1  0
 13 14  1  1
 15 14  2  0
 17 16  1  0
 18 17  1  0
 19 18  1  0
 20 19  1  6
 20 21  1  0
 22 20  1  0
 22 23  1  0
 24 22  2  0
M  END
$$$$
