MPM.pdb
     RDKit          3D

 24 24  0  0  1  0  0  0  0  0999 V2000
   15.7016   -9.7091  -16.7315 C   0  0  0  0  0  0  0  0  0  0  0  0
   15.6730  -11.3889  -17.3895 S   0  0  0  0  0  0  0  0  0  0  0  0
   17.3007  -11.8455  -18.1051 C   0  0  0  0  0  0  0  0  0  0  0  0
   18.3326  -10.9756  -17.4799 C   0  0  0  0  0  0  0  0  0  0  0  0
   19.7323  -11.5306  -17.4746 C   0  0  2  0  0  0  0  0  0  0  0  0
   19.6729  -12.8345  -16.8957 N   0  0  0  0  0  0  0  0  0  0  0  0
   20.7501  -10.6298  -16.9266 C   0  0  0  0  0  0  0  0  0  0  0  0
   21.2990  -10.9886  -15.8205 O   0  0  0  0  0  0  0  0  0  0  0  0
   21.1973   -9.4083  -17.4783 N   0  0  0  0  0  0  0  0  0  0  0  0
   20.9192   -8.7451  -18.7330 C   0  0  0  0  0  0  0  0  0  0  0  0
   22.3238   -8.3222  -19.1696 C   0  0  0  0  0  0  0  0  0  0  0  0
   22.9023   -7.7879  -17.8782 C   0  0  0  0  0  0  0  0  0  0  0  0
   22.1131   -8.5003  -16.8048 C   0  0  1  0  0  0  0  0  0  0  0  0
   21.4019   -7.4927  -15.9955 C   0  0  0  0  0  0  0  0  0  0  0  0
   20.1813   -7.3061  -16.2726 O   0  0  0  0  0  0  0  0  0  0  0  0
   18.2086   -5.5269   -9.5527 C   0  0  0  0  0  0  0  0  0  0  0  0
   19.3019   -6.5799  -10.5232 S   0  0  0  0  0  0  0  0  0  0  0  0
   19.8196   -5.6871  -12.0407 C   0  0  0  0  0  0  0  0  0  0  0  0
   20.7143   -6.5544  -12.8774 C   0  0  0  0  0  0  0  0  0  0  0  0
   21.1315   -5.8380  -14.1260 C   0  0  2  0  0  0  0  0  0  0  0  0
   21.9680   -6.7341  -14.9542 N   0  0  0  0  0  0  0  0  0  0  0  0
   21.8760   -4.6093  -13.8148 C   0  0  0  0  0  0  0  0  0  0  0  0
   21.1488   -3.4544  -13.4429 O   0  0  0  0  0  0  0  0  0  0  0  0
   23.1101   -4.4476  -13.8371 O   0  0  0  0  0  0  0  0  0  0  0  0
  1  2  1  0
  3  4  1  0
  3  2  1  0
  5  4  1  0
  5  6  1  1
  7  5  1  0
  8  7  2  0
  9 10  1  0
  9  7  1  0
 11 10  1  0
 12 13  1  0
 12 11  1  0
 13  9  1  0
 14 21  1  0
 13 14  1  6
 15 14  2  0
 17 16  1  0
 18 17  1  0
 19 18  1  0
 20 19  1  1
 20 21  1  0
 22 20  1  0
 22 23  1  0
 24 22  2  0
M  END
$$$$
