MPM.pdb
     RDKit          3D

 24 24  0  0  1  0  0  0  0  0999 V2000
   20.4143  -19.2883  -12.9181 C   0  0  0  0  0  0  0  0  0  0  0  0
   21.7534  -18.3770  -13.7130 S   0  0  0  0  0  0  0  0  0  0  0  0
   23.0654  -19.5155  -14.3065 C   0  0  0  0  0  0  0  0  0  0  0  0
   23.5499  -20.2994  -13.1390 C   0  0  0  0  0  0  0  0  0  0  0  0
   24.5208  -21.4051  -13.4578 C   0  0  2  0  0  0  0  0  0  0  0  0
   23.7672  -22.4961  -13.9876 N   0  0  0  0  0  0  0  0  0  0  0  0
   25.4560  -21.7341  -12.3785 C   0  0  0  0  0  0  0  0  0  0  0  0
   25.1370  -22.7257  -11.6246 O   0  0  0  0  0  0  0  0  0  0  0  0
   26.6718  -21.0826  -12.0723 N   0  0  0  0  0  0  0  0  0  0  0  0
   27.3451  -19.9467  -12.6621 C   0  0  0  0  0  0  0  0  0  0  0  0
   28.7834  -20.4613  -12.7535 C   0  0  0  0  0  0  0  0  0  0  0  0
   28.9623  -21.1233  -11.4054 C   0  0  0  0  0  0  0  0  0  0  0  0
   27.5552  -21.4805  -10.9870 C   0  0  1  0  0  0  0  0  0  0  0  0
   27.2438  -20.7747   -9.7296 C   0  0  0  0  0  0  0  0  0  0  0  0
   26.6035  -19.6883   -9.8364 O   0  0  0  0  0  0  0  0  0  0  0  0
   29.8089  -21.9743   -3.8702 C   0  0  0  0  0  0  0  0  0  0  0  0
   29.1449  -20.3244   -3.5828 S   0  0  0  0  0  0  0  0  0  0  0  0
   27.9701  -19.8972   -4.9264 C   0  0  0  0  0  0  0  0  0  0  0  0
   28.2782  -20.6920   -6.1618 C   0  0  0  0  0  0  0  0  0  0  0  0
   27.2931  -20.3861   -7.2492 C   0  0  2  0  0  0  0  0  0  0  0  0
   27.5987  -21.2099   -8.4393 N   0  0  0  0  0  0  0  0  0  0  0  0
   27.3195  -18.9614   -7.6101 C   0  0  0  0  0  0  0  0  0  0  0  0
   26.3148  -18.1133   -7.0883 O   0  0  0  0  0  0  0  0  0  0  0  0
   28.1426  -18.3829   -8.3432 O   0  0  0  0  0  0  0  0  0  0  0  0
  1  2  1  0
  3  4  1  0
  3  2  1  0
  5  4  1  0
  5  6  1  1
  7  5  1  0
  8  7  2  0
  9 10  1  0
  9  7  1  0
 11 10  1  0
 12 13  1  0
 12 11  1  0
 13  9  1  0
 14 21  1  0
 13 14  1  1
 15 14  2  0
 17 16  1  0
 18 17  1  0
 19 18  1  0
 20 19  1  1
 20 21  1  0
 22 20  1  0
 22 23  1  0
 24 22  2  0
M  END
$$$$
