MIT.pdb
     RDKit          3D

 24 23  0  0  1  0  0  0  0  0999 V2000
   20.7026  -21.3190  -10.7987 C   0  0  0  0  0  0  0  0  0  0  0  0
   20.8410  -21.5237   -9.0265 S   0  0  0  0  0  0  0  0  0  0  0  0
   22.5527  -21.4513   -8.4736 C   0  0  0  0  0  0  0  0  0  0  0  0
   23.4238  -20.9401   -9.6130 C   0  0  0  0  0  0  0  0  0  0  0  0
   24.8852  -21.0081   -9.2401 C   0  0  2  0  0  0  0  0  0  0  0  0
   25.1970  -20.4005   -7.9901 N   0  0  0  0  0  0  0  0  0  0  0  0
   25.6807  -20.3225  -10.3280 C   0  0  0  0  0  0  0  0  0  0  0  0
   25.8338  -19.0849  -10.2010 O   0  0  0  0  0  0  0  0  0  0  0  0
   30.3322  -21.4979  -11.1012 C   0  0  0  0  0  0  0  0  0  0  0  0
   28.9986  -20.8150  -11.2430 C   0  0  0  0  0  0  0  0  0  0  0  0
   28.3107  -21.1356  -12.5407 C   0  0  2  0  0  0  0  0  0  0  0  0
   29.2324  -20.5600  -13.6274 C   0  0  0  0  0  0  0  0  0  0  0  0
   26.9234  -20.5740  -12.5626 C   0  0  2  0  0  0  0  0  0  0  0  0
   26.2033  -21.0513  -11.4017 N   0  0  0  0  0  0  0  0  0  0  0  0
   26.1505  -20.8289  -13.7898 C   0  0  0  0  0  0  0  0  0  0  0  0
   26.2524  -21.9745  -14.3724 O   0  0  0  0  0  0  0  0  0  0  0  0
   22.4852  -20.8835  -14.1893 C   0  0  0  0  0  0  0  0  0  0  0  0
   22.9958  -19.8914  -15.2121 C   0  0  1  0  0  0  0  0  0  0  0  0
   22.6380  -18.6119  -14.8370 O   0  0  0  0  0  0  0  0  0  0  0  0
   24.4533  -20.0537  -15.4739 C   0  0  2  0  0  0  0  0  0  0  0  0
   25.3036  -19.8380  -14.3256 N   0  0  0  0  0  0  0  0  0  0  0  0
   24.9202  -19.3147  -16.6995 C   0  0  0  0  0  0  0  0  0  0  0  0
   24.3744  -19.4567  -17.9522 O   0  0  0  0  0  0  0  0  0  0  0  0
   25.8910  -18.5158  -16.4885 O   0  0  0  0  0  0  0  0  0  0  0  0
  1  2  1  0
  2  3  1  0
  4  3  1  0
  5  4  1  0
  5  6  1  1
  7 14  1  0
  7  5  1  0
  8  7  2  0
 10  9  1  0
 10 11  1  0
 11 12  1  6
 11 13  1  0
 13 14  1  1
 15 13  1  0
 15 21  1  0
 16 15  2  0
 18 17  1  1
 18 20  1  0
 19 18  1  0
 20 21  1  1
 20 22  1  0
 22 23  1  0
 24 22  2  0
M  END
$$$$
