MIT.pdb
     RDKit          3D

 24 23  0  0  1  0  0  0  0  0999 V2000
   16.9383  -11.2608  -22.3962 C   0  0  0  0  0  0  0  0  0  0  0  0
   18.4750  -11.5191  -23.2758 S   0  0  0  0  0  0  0  0  0  0  0  0
   19.7346  -12.2593  -22.2240 C   0  0  0  0  0  0  0  0  0  0  0  0
   19.5827  -11.7198  -20.8084 C   0  0  0  0  0  0  0  0  0  0  0  0
   20.6689  -12.2619  -19.9106 C   0  0  2  0  0  0  0  0  0  0  0  0
   20.6060  -13.6698  -19.7038 N   0  0  0  0  0  0  0  0  0  0  0  0
   20.5633  -11.5668  -18.5720 C   0  0  0  0  0  0  0  0  0  0  0  0
   19.4914  -11.7393  -17.9454 O   0  0  0  0  0  0  0  0  0  0  0  0
   24.1100  -12.3234  -15.0529 C   0  0  0  0  0  0  0  0  0  0  0  0
   22.8299  -11.8279  -15.6699 C   0  0  0  0  0  0  0  0  0  0  0  0
   22.9066  -10.3909  -16.1049 C   0  0  2  0  0  0  0  0  0  0  0  0
   23.1076   -9.5964  -14.8048 C   0  0  0  0  0  0  0  0  0  0  0  0
   21.6822   -9.9991  -16.8717 C   0  0  2  0  0  0  0  0  0  0  0  0
   21.6154  -10.7834  -18.0859 N   0  0  0  0  0  0  0  0  0  0  0  0
   21.5513   -8.5643  -17.1764 C   0  0  0  0  0  0  0  0  0  0  0  0
   22.3766   -8.0175  -18.0024 O   0  0  0  0  0  0  0  0  0  0  0  0
   18.9388   -6.8184  -18.9331 C   0  0  0  0  0  0  0  0  0  0  0  0
   19.0220   -6.1197  -17.5930 C   0  0  1  0  0  0  0  0  0  0  0  0
   17.9027   -6.4194  -16.8426 O   0  0  0  0  0  0  0  0  0  0  0  0
   20.3062   -6.3996  -16.8918 C   0  0  2  0  0  0  0  0  0  0  0  0
   20.5356   -7.7916  -16.5788 N   0  0  0  0  0  0  0  0  0  0  0  0
   20.5535   -5.4846  -15.7222 C   0  0  0  0  0  0  0  0  0  0  0  0
   20.6254   -5.8932  -14.4126 O   0  0  0  0  0  0  0  0  0  0  0  0
   20.7005   -4.2590  -16.0409 O   0  0  0  0  0  0  0  0  0  0  0  0
  1  2  1  0
  2  3  1  0
  4  3  1  0
  5  4  1  0
  5  6  1  1
  7 14  1  0
  7  5  1  0
  8  7  2  0
 10  9  1  0
 10 11  1  0
 11 12  1  1
 11 13  1  0
 13 14  1  6
 15 13  1  0
 15 21  1  0
 16 15  2  0
 18 17  1  6
 18 20  1  0
 19 18  1  0
 20 21  1  1
 20 22  1  0
 22 23  1  0
 24 22  2  0
M  END
$$$$
