MIT.pdb
     RDKit          3D

 24 23  0  0  1  0  0  0  0  0999 V2000
   17.0236  -28.2349   -9.4819 C   0  0  0  0  0  0  0  0  0  0  0  0
   18.2922  -28.6412   -8.2872 S   0  0  0  0  0  0  0  0  0  0  0  0
   18.6631  -27.2528   -7.2029 C   0  0  0  0  0  0  0  0  0  0  0  0
   18.3795  -25.9525   -7.9426 C   0  0  0  0  0  0  0  0  0  0  0  0
   18.8258  -24.7644   -7.1248 C   0  0  2  0  0  0  0  0  0  0  0  0
   18.0682  -24.5566   -5.9366 N   0  0  0  0  0  0  0  0  0  0  0  0
   18.7215  -23.5303   -7.9922 C   0  0  0  0  0  0  0  0  0  0  0  0
   17.6337  -22.9098   -7.9380 O   0  0  0  0  0  0  0  0  0  0  0  0
   23.2939  -20.8345   -8.5497 C   0  0  0  0  0  0  0  0  0  0  0  0
   21.8362  -21.2057   -8.5043 C   0  0  0  0  0  0  0  0  0  0  0  0
   21.2830  -21.5754   -9.8524 C   0  0  2  0  0  0  0  0  0  0  0  0
   21.4659  -20.3146  -10.7119 C   0  0  0  0  0  0  0  0  0  0  0  0
   19.8617  -22.0312   -9.7396 C   0  0  2  0  0  0  0  0  0  0  0  0
   19.7918  -23.1279   -8.7981 N   0  0  0  0  0  0  0  0  0  0  0  0
   19.2056  -22.3962  -11.0064 C   0  0  0  0  0  0  0  0  0  0  0  0
   19.7686  -23.2583  -11.7824 O   0  0  0  0  0  0  0  0  0  0  0  0
   16.0926  -24.1760  -11.8977 C   0  0  0  0  0  0  0  0  0  0  0  0
   15.9677  -22.7742  -12.4548 C   0  0  1  0  0  0  0  0  0  0  0  0
   15.0712  -22.0504  -11.6944 O   0  0  0  0  0  0  0  0  0  0  0  0
   17.2925  -22.1114  -12.6116 C   0  0  2  0  0  0  0  0  0  0  0  0
   17.9741  -21.8168  -11.3719 N   0  0  0  0  0  0  0  0  0  0  0  0
   17.2607  -20.9415  -13.5585 C   0  0  0  0  0  0  0  0  0  0  0  0
   16.8598  -21.0098  -14.8707 O   0  0  0  0  0  0  0  0  0  0  0  0
   17.6421  -19.8409  -13.0405 O   0  0  0  0  0  0  0  0  0  0  0  0
  1  2  1  0
  2  3  1  0
  4  3  1  0
  5  4  1  0
  5  6  1  1
  7 14  1  0
  7  5  1  0
  8  7  2  0
 10  9  1  0
 10 11  1  0
 11 12  1  6
 11 13  1  0
 13 14  1  1
 15 13  1  0
 15 21  1  0
 16 15  2  0
 18 17  1  1
 18 20  1  0
 19 18  1  0
 20 21  1  1
 20 22  1  0
 22 23  1  0
 24 22  2  0
M  END
$$$$
