MIT.pdb
     RDKit          3D

 24 23  0  0  1  0  0  0  0  0999 V2000
   15.8070  -16.5120    6.4206 C   0  0  0  0  0  0  0  0  0  0  0  0
   16.2419  -18.2383    6.2399 S   0  0  0  0  0  0  0  0  0  0  0  0
   16.4757  -18.6949    4.5144 C   0  0  0  0  0  0  0  0  0  0  0  0
   16.6812  -20.2007    4.4202 C   0  0  0  0  0  0  0  0  0  0  0  0
   16.7984  -20.6348    2.9789 C   0  0  2  0  0  0  0  0  0  0  0  0
   15.7173  -20.2128    2.1530 N   0  0  0  0  0  0  0  0  0  0  0  0
   16.8763  -22.1445    2.9472 C   0  0  0  0  0  0  0  0  0  0  0  0
   15.9626  -22.7297    2.3197 O   0  0  0  0  0  0  0  0  0  0  0  0
   21.6527  -23.8890    1.8445 C   0  0  0  0  0  0  0  0  0  0  0  0
   20.1588  -23.8739    2.0263 C   0  0  0  0  0  0  0  0  0  0  0  0
   19.7270  -24.3802    3.3743 C   0  0  2  0  0  0  0  0  0  0  0  0
   20.2155  -25.8366    3.4225 C   0  0  0  0  0  0  0  0  0  0  0  0
   18.2484  -24.2306    3.5524 C   0  0  2  0  0  0  0  0  0  0  0  0
   17.9182  -22.8222    3.5892 N   0  0  0  0  0  0  0  0  0  0  0  0
   17.6715  -24.9262    4.7151 C   0  0  0  0  0  0  0  0  0  0  0  0
   17.9391  -24.4992    5.9018 O   0  0  0  0  0  0  0  0  0  0  0  0
   14.2198  -25.3161    5.9171 C   0  0  0  0  0  0  0  0  0  0  0  0
   14.7397  -26.7167    5.6742 C   0  0  1  0  0  0  0  0  0  0  0  0
   14.1392  -27.2467    4.5499 O   0  0  0  0  0  0  0  0  0  0  0  0
   16.2281  -26.7654    5.6379 C   0  0  2  0  0  0  0  0  0  0  0  0
   16.8322  -26.0448    4.5407 N   0  0  0  0  0  0  0  0  0  0  0  0
   16.7789  -28.1567    5.8029 C   0  0  0  0  0  0  0  0  0  0  0  0
   16.5509  -28.9628    6.8917 O   0  0  0  0  0  0  0  0  0  0  0  0
   17.4958  -28.5530    4.8260 O   0  0  0  0  0  0  0  0  0  0  0  0
  1  2  1  0
  2  3  1  0
  4  3  1  0
  5  4  1  0
  5  6  1  6
  7 14  1  0
  7  5  1  0
  8  7  2  0
 10  9  1  0
 10 11  1  0
 11 12  1  6
 11 13  1  0
 13 14  1  1
 15 13  1  0
 15 21  1  0
 16 15  2  0
 18 17  1  6
 18 20  1  0
 19 18  1  0
 20 21  1  6
 20 22  1  0
 22 23  1  0
 24 22  2  0
M  END
$$$$
