NHE.pdb
     RDKit          3D

 28 28  0  0  1  0  0  0  0  0999 V2000
   14.6703  -15.3052   14.5001 N   0  0  0  0  0  0  0  0  0  0  0  0
   15.0958  -14.2034   15.3365 C   0  0  0  0  0  0  0  0  0  0  0  0
   16.0318  -13.4873   14.8968 O   0  0  0  0  0  0  0  0  0  0  0  0
   14.4482  -13.9596   16.6299 C   0  0  0  0  0  0  0  0  0  0  0  0
   13.8273  -15.1970   17.2038 C   0  0  2  0  0  0  0  0  0  0  0  0
   12.6686  -15.5216   16.3625 N   0  0  0  0  0  0  0  0  0  0  0  0
   13.2688  -14.9612   18.5795 C   0  0  0  0  0  0  0  0  0  0  0  0
   13.9650  -14.3994   19.4582 O   0  0  0  0  0  0  0  0  0  0  0  0
   11.9552  -15.3610   18.9235 N   0  0  0  0  0  0  0  0  0  0  0  0
   11.3935  -15.2783   20.2247 C   0  0  1  0  0  0  0  0  0  0  0  0
    9.8912  -15.4206   20.2767 C   0  0  0  0  0  0  0  0  0  0  0  0
    9.2192  -14.2543   19.6227 C   0  0  0  0  0  0  0  0  0  0  0  0
    9.7991  -13.1254   19.0899 C   0  0  0  0  0  0  0  0  0  0  0  0
    8.8049  -12.3375   18.6020 N   0  0  0  0  0  0  0  0  0  0  0  0
    7.6263  -12.9350   18.8116 C   0  0  0  0  0  0  0  0  0  0  0  0
    7.8901  -14.1039   19.4349 N   0  0  0  0  0  0  0  0  0  0  0  0
   12.0073  -16.2100   21.2308 C   0  0  0  0  0  0  0  0  0  0  0  0
   12.1327  -17.4285   20.9567 O   0  0  0  0  0  0  0  0  0  0  0  0
   12.4546  -15.7783   22.4808 N   0  0  0  0  0  0  0  0  0  0  0  0
   13.1421  -16.6682   23.4585 C   0  0  1  0  0  0  0  0  0  0  0  0
   14.4963  -16.0725   23.6373 C   0  0  0  0  0  0  0  0  0  0  0  0
   15.6772  -16.9271   23.7741 C   0  0  0  0  0  0  0  0  0  0  0  0
   16.9843  -16.3282   23.9591 C   0  0  0  0  0  0  0  0  0  0  0  0
   17.2477  -15.1082   23.9818 O   0  0  0  0  0  0  0  0  0  0  0  0
   12.3395  -16.7169   24.6581 C   0  0  0  0  0  0  0  0  0  0  0  0
   11.3744  -15.9290   24.9090 O   0  0  0  0  0  0  0  0  0  0  0  0
   18.0819  -17.1980   24.1322 O   0  0  0  0  0  0  0  0  0  0  0  0
   12.5950  -17.6664   25.6336 O   0  0  0  0  0  0  0  0  0  0  0  0
  2  1  1  0
  2  3  2  0
  4  2  1  0
  5  4  1  0
  5  6  1  6
  7  5  1  0
  7  8  2  0
  9  7  1  0
 10 17  1  0
 10  9  1  0
 10 11  1  6
 12 11  1  0
 12 16  1  0
 13 14  1  0
 13 12  2  0
 14 15  1  0
 15 16  2  0
 17 19  1  0
 18 17  2  0
 19 20  1  0
 20 25  1  0
 20 21  1  1
 22 21  1  0
 23 22  1  0
 24 23  2  0
 25 26  2  0
 25 28  1  0
 27 23  1  0
M  END
$$$$
