NHE.pdb
     RDKit          3D

 28 28  0  0  1  0  0  0  0  0999 V2000
   14.8102  -16.4474   15.9321 N   0  0  0  0  0  0  0  0  0  0  0  0
   15.4428  -15.7100   17.0047 C   0  0  0  0  0  0  0  0  0  0  0  0
   16.6592  -15.4261   16.8563 O   0  0  0  0  0  0  0  0  0  0  0  0
   14.6764  -15.3271   18.1954 C   0  0  0  0  0  0  0  0  0  0  0  0
   13.2330  -15.0644   17.8897 C   0  0  2  0  0  0  0  0  0  0  0  0
   13.1796  -13.8059   17.1352 N   0  0  0  0  0  0  0  0  0  0  0  0
   12.4289  -14.8176   19.1357 C   0  0  0  0  0  0  0  0  0  0  0  0
   12.8344  -14.0056   20.0010 O   0  0  0  0  0  0  0  0  0  0  0  0
   11.2032  -15.4858   19.3700 N   0  0  0  0  0  0  0  0  0  0  0  0
   10.4277  -15.3728   20.5538 C   0  0  1  0  0  0  0  0  0  0  0  0
    8.9336  -15.3772   20.3355 C   0  0  0  0  0  0  0  0  0  0  0  0
    8.5382  -14.3585   19.3130 C   0  0  0  0  0  0  0  0  0  0  0  0
    8.2141  -13.0352   19.5092 C   0  0  0  0  0  0  0  0  0  0  0  0
    7.9226  -12.4939   18.2971 N   0  0  0  0  0  0  0  0  0  0  0  0
    8.0535  -13.4324   17.3525 C   0  0  0  0  0  0  0  0  0  0  0  0
    8.4295  -14.5663   17.9827 N   0  0  0  0  0  0  0  0  0  0  0  0
   10.7679  -16.3731   21.6218 C   0  0  0  0  0  0  0  0  0  0  0  0
   11.1867  -17.5115   21.2990 O   0  0  0  0  0  0  0  0  0  0  0  0
   10.6393  -16.0927   22.9834 N   0  0  0  0  0  0  0  0  0  0  0  0
   11.4059  -16.8055   24.0439 C   0  0  1  0  0  0  0  0  0  0  0  0
   12.8387  -16.5582   23.7173 C   0  0  0  0  0  0  0  0  0  0  0  0
   13.9020  -17.0559   24.5921 C   0  0  0  0  0  0  0  0  0  0  0  0
   15.2903  -16.8443   24.2333 C   0  0  0  0  0  0  0  0  0  0  0  0
   15.8224  -15.7579   23.9251 O   0  0  0  0  0  0  0  0  0  0  0  0
   10.9799  -16.2909   25.3242 C   0  0  0  0  0  0  0  0  0  0  0  0
   10.4225  -15.1616   25.4950 O   0  0  0  0  0  0  0  0  0  0  0  0
   16.1412  -17.9700   24.2260 O   0  0  0  0  0  0  0  0  0  0  0  0
   11.1665  -17.0370   26.4761 O   0  0  0  0  0  0  0  0  0  0  0  0
  2  1  1  0
  2  3  2  0
  4  2  1  0
  5  4  1  0
  5  6  1  6
  7  5  1  0
  7  8  2  0
  9  7  1  0
 10 17  1  0
 10  9  1  0
 10 11  1  6
 12 11  1  0
 12 16  1  0
 13 14  1  0
 13 12  2  0
 14 15  1  0
 15 16  2  0
 17 19  1  0
 18 17  2  0
 19 20  1  0
 20 25  1  0
 20 21  1  6
 22 21  1  0
 23 22  1  0
 24 23  2  0
 25 26  2  0
 25 28  1  0
 27 23  1  0
M  END
$$$$
