NHE.pdb
     RDKit          3D

 28 28  0  0  1  0  0  0  0  0999 V2000
   15.6210  -17.8367   16.1731 N   0  0  0  0  0  0  0  0  0  0  0  0
   14.2342  -17.4337   16.2674 C   0  0  0  0  0  0  0  0  0  0  0  0
   13.5376  -17.5537   15.2270 O   0  0  0  0  0  0  0  0  0  0  0  0
   13.6963  -16.9131   17.5289 C   0  0  0  0  0  0  0  0  0  0  0  0
   12.6248  -15.8871   17.3166 C   0  0  2  0  0  0  0  0  0  0  0  0
   13.2605  -14.7363   16.6630 N   0  0  0  0  0  0  0  0  0  0  0  0
   12.0839  -15.3600   18.6165 C   0  0  0  0  0  0  0  0  0  0  0  0
   12.6873  -14.4481   19.2305 O   0  0  0  0  0  0  0  0  0  0  0  0
   10.8910  -15.8697   19.1828 N   0  0  0  0  0  0  0  0  0  0  0  0
   10.3643  -15.4938   20.4465 C   0  0  1  0  0  0  0  0  0  0  0  0
    8.8756  -15.2416   20.4630 C   0  0  0  0  0  0  0  0  0  0  0  0
    8.4807  -14.2913   19.3765 C   0  0  0  0  0  0  0  0  0  0  0  0
    8.3124  -12.9275   19.4566 C   0  0  0  0  0  0  0  0  0  0  0  0
    7.9532  -12.4795   18.2247 N   0  0  0  0  0  0  0  0  0  0  0  0
    7.8916  -13.5151   17.3799 C   0  0  0  0  0  0  0  0  0  0  0  0
    8.2153  -14.6159   18.0925 N   0  0  0  0  0  0  0  0  0  0  0  0
   10.7141  -16.4257   21.5717 C   0  0  0  0  0  0  0  0  0  0  0  0
   10.4945  -17.6559   21.4534 O   0  0  0  0  0  0  0  0  0  0  0  0
   11.2836  -15.9818   22.7665 N   0  0  0  0  0  0  0  0  0  0  0  0
   11.8397  -16.8989   23.8010 C   0  0  1  0  0  0  0  0  0  0  0  0
   13.3134  -16.8812   23.5810 C   0  0  0  0  0  0  0  0  0  0  0  0
   14.0650  -15.6266   23.6497 C   0  0  0  0  0  0  0  0  0  0  0  0
   15.5085  -15.6416   23.5184 C   0  0  0  0  0  0  0  0  0  0  0  0
   16.2711  -16.5913   23.7917 O   0  0  0  0  0  0  0  0  0  0  0  0
   11.4156  -16.4201   25.0957 C   0  0  0  0  0  0  0  0  0  0  0  0
   11.7061  -16.9800   26.1990 O   0  0  0  0  0  0  0  0  0  0  0  0
   16.1317  -14.4718   23.0342 O   0  0  0  0  0  0  0  0  0  0  0  0
   10.6389  -15.2781   25.2001 O   0  0  0  0  0  0  0  0  0  0  0  0
  2  1  1  0
  2  3  2  0
  4  2  1  0
  5  4  1  0
  5  6  1  6
  7  5  1  0
  7  8  2  0
  9  7  1  0
 10 17  1  0
 10  9  1  0
 10 11  1  6
 12 11  1  0
 12 16  1  0
 13 14  1  0
 13 12  2  0
 14 15  1  0
 15 16  2  0
 17 19  1  0
 18 17  2  0
 19 20  1  0
 20 25  1  0
 20 21  1  1
 22 21  1  0
 23 22  1  0
 24 23  2  0
 25 26  2  0
 25 28  1  0
 27 23  1  0
M  END
$$$$
