NHE.pdb
     RDKit          3D

 28 28  0  0  1  0  0  0  0  0999 V2000
    9.2320  -14.8956   14.7764 N   0  0  0  0  0  0  0  0  0  0  0  0
   10.5822  -15.3587   14.5379 C   0  0  0  0  0  0  0  0  0  0  0  0
   10.7111  -16.3813   13.8169 O   0  0  0  0  0  0  0  0  0  0  0  0
   11.7249  -14.6491   15.1232 C   0  0  0  0  0  0  0  0  0  0  0  0
   12.4890  -15.4947   16.0964 C   0  0  2  0  0  0  0  0  0  0  0  0
   11.9116  -16.8432   16.0339 N   0  0  0  0  0  0  0  0  0  0  0  0
   12.2897  -15.0402   17.5155 C   0  0  0  0  0  0  0  0  0  0  0  0
   13.0007  -14.1243   17.9931 O   0  0  0  0  0  0  0  0  0  0  0  0
   11.3055  -15.6243   18.3484 N   0  0  0  0  0  0  0  0  0  0  0  0
   11.1574  -15.3677   19.7368 C   0  0  1  0  0  0  0  0  0  0  0  0
    9.7373  -15.4343   20.2458 C   0  0  0  0  0  0  0  0  0  0  0  0
    8.9111  -14.3241   19.6761 C   0  0  0  0  0  0  0  0  0  0  0  0
    9.3141  -13.2985   18.8513 C   0  0  0  0  0  0  0  0  0  0  0  0
    8.2271  -12.5272   18.5848 N   0  0  0  0  0  0  0  0  0  0  0  0
    7.1613  -13.0355   19.2138 C   0  0  0  0  0  0  0  0  0  0  0  0
    7.5893  -14.1317   19.8768 N   0  0  0  0  0  0  0  0  0  0  0  0
   12.0338  -16.2053   20.6242 C   0  0  0  0  0  0  0  0  0  0  0  0
   12.7539  -17.1023   20.1217 O   0  0  0  0  0  0  0  0  0  0  0  0
   12.0881  -16.0311   22.0083 N   0  0  0  0  0  0  0  0  0  0  0  0
   13.2101  -16.5271   22.8542 C   0  0  1  0  0  0  0  0  0  0  0  0
   14.4183  -15.8157   22.3494 C   0  0  0  0  0  0  0  0  0  0  0  0
   15.7057  -15.9495   23.0339 C   0  0  0  0  0  0  0  0  0  0  0  0
   16.8493  -15.1852   22.5767 C   0  0  0  0  0  0  0  0  0  0  0  0
   16.8582  -14.3312   21.6663 O   0  0  0  0  0  0  0  0  0  0  0  0
   12.8814  -16.2566   24.2342 C   0  0  0  0  0  0  0  0  0  0  0  0
   11.9559  -15.4717   24.6115 O   0  0  0  0  0  0  0  0  0  0  0  0
   18.0866  -15.4179   23.2140 O   0  0  0  0  0  0  0  0  0  0  0  0
   13.5902  -16.8672   25.2556 O   0  0  0  0  0  0  0  0  0  0  0  0
  2  1  1  0
  2  3  2  0
  4  2  1  0
  5  4  1  0
  5  6  1  1
  7  5  1  0
  7  8  2  0
  9  7  1  0
 10 17  1  0
 10  9  1  0
 10 11  1  1
 12 11  1  0
 12 16  1  0
 13 14  1  0
 13 12  2  0
 14 15  1  0
 15 16  2  0
 17 19  1  0
 18 17  2  0
 19 20  1  0
 20 25  1  0
 20 21  1  6
 22 21  1  0
 23 22  1  0
 24 23  2  0
 25 26  2  0
 25 28  1  0
 27 23  1  0
M  END
$$$$
