NHE.pdb
     RDKit          3D

 28 28  0  0  1  0  0  0  0  0999 V2000
   16.3759  -13.7607   15.9046 N   0  0  0  0  0  0  0  0  0  0  0  0
   16.9425  -13.9403   17.2241 C   0  0  0  0  0  0  0  0  0  0  0  0
   18.1963  -13.8920   17.3133 O   0  0  0  0  0  0  0  0  0  0  0  0
   16.0710  -14.1668   18.3821 C   0  0  0  0  0  0  0  0  0  0  0  0
   14.6425  -14.3941   17.9902 C   0  0  2  0  0  0  0  0  0  0  0  0
   14.1283  -13.1122   17.4921 N   0  0  0  0  0  0  0  0  0  0  0  0
   13.7813  -14.7373   19.1737 C   0  0  0  0  0  0  0  0  0  0  0  0
   13.9311  -14.1337   20.2625 O   0  0  0  0  0  0  0  0  0  0  0  0
   12.7859  -15.7409   19.0984 N   0  0  0  0  0  0  0  0  0  0  0  0
   11.9624  -16.1534   20.1787 C   0  0  1  0  0  0  0  0  0  0  0  0
   10.6362  -16.7505   19.7728 C   0  0  0  0  0  0  0  0  0  0  0  0
    9.8668  -17.2116   20.9707 C   0  0  0  0  0  0  0  0  0  0  0  0
    9.4905  -18.4940   21.3001 C   0  0  0  0  0  0  0  0  0  0  0  0
    8.8099  -18.4391   22.4753 N   0  0  0  0  0  0  0  0  0  0  0  0
    8.7487  -17.1685   22.8900 C   0  0  0  0  0  0  0  0  0  0  0  0
    9.3966  -16.4276   21.9650 N   0  0  0  0  0  0  0  0  0  0  0  0
   12.6323  -17.0736   21.1594 C   0  0  0  0  0  0  0  0  0  0  0  0
   13.3676  -18.0012   20.7417 O   0  0  0  0  0  0  0  0  0  0  0  0
   12.4745  -16.9446   22.5405 N   0  0  0  0  0  0  0  0  0  0  0  0
   13.0385  -17.9110   23.5246 C   0  0  1  0  0  0  0  0  0  0  0  0
   14.5149  -17.7234   23.4477 C   0  0  0  0  0  0  0  0  0  0  0  0
   15.1364  -16.4820   23.9128 C   0  0  0  0  0  0  0  0  0  0  0  0
   16.5789  -16.3420   23.8842 C   0  0  0  0  0  0  0  0  0  0  0  0
   17.3795  -16.7011   24.7721 O   0  0  0  0  0  0  0  0  0  0  0  0
   12.4586  -17.6226   24.8153 C   0  0  0  0  0  0  0  0  0  0  0  0
   11.7154  -16.6214   25.0613 O   0  0  0  0  0  0  0  0  0  0  0  0
   17.1535  -15.7404   22.7444 O   0  0  0  0  0  0  0  0  0  0  0  0
   12.6953  -18.4605   25.8924 O   0  0  0  0  0  0  0  0  0  0  0  0
  2  1  1  0
  2  3  2  0
  4  2  1  0
  5  4  1  0
  5  6  1  1
  7  5  1  0
  7  8  2  0
  9  7  1  0
 10 17  1  0
 10  9  1  0
 10 11  1  6
 12 11  1  0
 12 16  1  0
 13 14  1  0
 13 12  2  0
 14 15  1  0
 15 16  2  0
 17 19  1  0
 18 17  2  0
 19 20  1  0
 20 25  1  0
 20 21  1  1
 22 21  1  0
 23 22  1  0
 24 23  2  0
 25 26  2  0
 25 28  1  0
 27 23  1  0
M  END
$$$$
