NHE.pdb
     RDKit          3D

 28 28  0  0  1  0  0  0  0  0999 V2000
   11.6113  -16.5497   13.8616 N   0  0  0  0  0  0  0  0  0  0  0  0
   11.1687  -15.1955   14.1157 C   0  0  0  0  0  0  0  0  0  0  0  0
   10.7652  -14.5360   13.1236 O   0  0  0  0  0  0  0  0  0  0  0  0
   11.2020  -14.6462   15.4755 C   0  0  0  0  0  0  0  0  0  0  0  0
   11.7337  -15.6253   16.4778 C   0  0  2  0  0  0  0  0  0  0  0  0
   10.8062  -16.7634   16.4949 N   0  0  0  0  0  0  0  0  0  0  0  0
   11.7109  -15.0702   17.8747 C   0  0  0  0  0  0  0  0  0  0  0  0
   12.5298  -14.1847   18.2181 O   0  0  0  0  0  0  0  0  0  0  0  0
   10.7762  -15.5237   18.8362 N   0  0  0  0  0  0  0  0  0  0  0  0
   10.7402  -15.1115   20.1942 C   0  0  1  0  0  0  0  0  0  0  0  0
    9.3549  -14.8911   20.7531 C   0  0  0  0  0  0  0  0  0  0  0  0
    8.5663  -13.9645   19.8817 C   0  0  0  0  0  0  0  0  0  0  0  0
    8.4945  -12.5913   19.9430 C   0  0  0  0  0  0  0  0  0  0  0  0
    7.6591  -12.1738   18.9555 N   0  0  0  0  0  0  0  0  0  0  0  0
    7.2079  -13.2375   18.2810 C   0  0  0  0  0  0  0  0  0  0  0  0
    7.7674  -14.3252   18.8540 N   0  0  0  0  0  0  0  0  0  0  0  0
   11.5119  -15.9922   21.1354 C   0  0  0  0  0  0  0  0  0  0  0  0
   11.3512  -17.2365   21.0978 O   0  0  0  0  0  0  0  0  0  0  0  0
   12.4179  -15.4844   22.0682 N   0  0  0  0  0  0  0  0  0  0  0  0
   13.4417  -16.3200   22.7568 C   0  0  1  0  0  0  0  0  0  0  0  0
   14.7443  -15.6628   22.4536 C   0  0  0  0  0  0  0  0  0  0  0  0
   15.9836  -16.1379   23.0718 C   0  0  0  0  0  0  0  0  0  0  0  0
   17.2421  -15.4924   22.7549 C   0  0  0  0  0  0  0  0  0  0  0  0
   17.4275  -14.2714   22.5729 O   0  0  0  0  0  0  0  0  0  0  0  0
   13.1033  -16.3737   24.1596 C   0  0  0  0  0  0  0  0  0  0  0  0
   12.2611  -15.6082   24.7252 O   0  0  0  0  0  0  0  0  0  0  0  0
   18.3842  -16.3126   22.6356 O   0  0  0  0  0  0  0  0  0  0  0  0
   13.7069  -17.3030   24.9905 O   0  0  0  0  0  0  0  0  0  0  0  0
  2  1  1  0
  2  3  2  0
  4  2  1  0
  5  4  1  0
  5  6  1  1
  7  5  1  0
  7  8  2  0
  9  7  1  0
 10 17  1  0
 10  9  1  0
 10 11  1  1
 12 11  1  0
 12 16  1  0
 13 14  1  0
 13 12  2  0
 14 15  1  0
 15 16  2  0
 17 19  1  0
 18 17  2  0
 19 20  1  0
 20 25  1  0
 20 21  1  1
 22 21  1  0
 23 22  1  0
 24 23  2  0
 25 26  2  0
 25 28  1  0
 27 23  1  0
M  END
$$$$
