NHE.pdb
     RDKit          3D

 28 28  0  0  1  0  0  0  0  0999 V2000
   11.8724  -17.1876   14.2785 N   0  0  0  0  0  0  0  0  0  0  0  0
   11.5968  -15.7678   14.3278 C   0  0  0  0  0  0  0  0  0  0  0  0
   11.2930  -15.2117   13.2412 O   0  0  0  0  0  0  0  0  0  0  0  0
   11.6770  -15.0395   15.5986 C   0  0  0  0  0  0  0  0  0  0  0  0
   12.1020  -15.9161   16.7374 C   0  0  2  0  0  0  0  0  0  0  0  0
   11.1268  -17.0106   16.8193 N   0  0  0  0  0  0  0  0  0  0  0  0
   12.0160  -15.2046   18.0588 C   0  0  0  0  0  0  0  0  0  0  0  0
   12.8136  -14.2762   18.3316 O   0  0  0  0  0  0  0  0  0  0  0  0
   11.0443  -15.5554   19.0264 N   0  0  0  0  0  0  0  0  0  0  0  0
   10.9836  -15.0341   20.3455 C   0  0  1  0  0  0  0  0  0  0  0  0
    9.5889  -14.7607   20.8556 C   0  0  0  0  0  0  0  0  0  0  0  0
    8.8105  -13.9410   19.8748 C   0  0  0  0  0  0  0  0  0  0  0  0
    8.8365  -12.5767   19.6939 C   0  0  0  0  0  0  0  0  0  0  0  0
    7.9693  -12.2732   18.6923 N   0  0  0  0  0  0  0  0  0  0  0  0
    7.4041  -13.3993   18.2426 C   0  0  0  0  0  0  0  0  0  0  0  0
    7.9241  -14.4112   18.9705 N   0  0  0  0  0  0  0  0  0  0  0  0
   11.7291  -15.8401   21.3710 C   0  0  0  0  0  0  0  0  0  0  0  0
   11.3446  -17.0018   21.6507 O   0  0  0  0  0  0  0  0  0  0  0  0
   12.8518  -15.3508   22.0413 N   0  0  0  0  0  0  0  0  0  0  0  0
   13.9939  -16.2094   22.4640 C   0  0  1  0  0  0  0  0  0  0  0  0
   15.1699  -15.6848   21.7140 C   0  0  0  0  0  0  0  0  0  0  0  0
   16.5158  -16.1957   21.9808 C   0  0  0  0  0  0  0  0  0  0  0  0
   17.6715  -15.4911   21.4620 C   0  0  0  0  0  0  0  0  0  0  0  0
   18.6168  -15.0200   22.1274 O   0  0  0  0  0  0  0  0  0  0  0  0
   14.1068  -16.1256   23.9013 C   0  0  0  0  0  0  0  0  0  0  0  0
   14.9177  -16.8114   24.5993 O   0  0  0  0  0  0  0  0  0  0  0  0
   17.7522  -15.3099   20.0649 O   0  0  0  0  0  0  0  0  0  0  0  0
   13.3015  -15.2555   24.6174 O   0  0  0  0  0  0  0  0  0  0  0  0
  2  1  1  0
  2  3  2  0
  4  2  1  0
  5  4  1  0
  5  6  1  1
  7  5  1  0
  7  8  2  0
  9  7  1  0
 10 17  1  0
 10  9  1  0
 10 11  1  1
 12 11  1  0
 12 16  1  0
 13 14  1  0
 13 12  2  0
 14 15  1  0
 15 16  2  0
 17 19  1  0
 18 17  2  0
 19 20  1  0
 20 25  1  0
 20 21  1  6
 22 21  1  0
 23 22  1  0
 24 23  2  0
 25 26  2  0
 25 28  1  0
 27 23  1  0
M  END
$$$$
