NHE.pdb
     RDKit          3D

 28 28  0  0  1  0  0  0  0  0999 V2000
    4.0468  -20.3714   22.3111 N   0  0  0  0  0  0  0  0  0  0  0  0
    4.8619  -20.1072   23.4774 C   0  0  0  0  0  0  0  0  0  0  0  0
    4.5038  -20.6509   24.5537 O   0  0  0  0  0  0  0  0  0  0  0  0
    6.0423  -19.2420   23.3780 C   0  0  0  0  0  0  0  0  0  0  0  0
    6.0797  -18.4663   22.0963 C   0  0  2  0  0  0  0  0  0  0  0  0
    6.0486  -19.4469   21.0039 N   0  0  0  0  0  0  0  0  0  0  0  0
    7.3737  -17.7201   21.9267 C   0  0  0  0  0  0  0  0  0  0  0  0
    8.4437  -18.3438   21.7303 O   0  0  0  0  0  0  0  0  0  0  0  0
    7.4258  -16.3067   21.9830 N   0  0  0  0  0  0  0  0  0  0  0  0
    8.6041  -15.5289   21.8344 C   0  0  1  0  0  0  0  0  0  0  0  0
    8.3727  -14.1087   21.3768 C   0  0  0  0  0  0  0  0  0  0  0  0
    8.0688  -14.0601   19.9122 C   0  0  0  0  0  0  0  0  0  0  0  0
    8.0732  -15.0962   19.0060 C   0  0  0  0  0  0  0  0  0  0  0  0
    7.7350  -14.5884   17.7916 N   0  0  0  0  0  0  0  0  0  0  0  0
    7.5199  -13.2730   17.9085 C   0  0  0  0  0  0  0  0  0  0  0  0
    7.7261  -12.9607   19.2062 N   0  0  0  0  0  0  0  0  0  0  0  0
    9.4990  -15.5132   23.0410 C   0  0  0  0  0  0  0  0  0  0  0  0
    8.9952  -15.4935   24.1905 O   0  0  0  0  0  0  0  0  0  0  0  0
   10.8917  -15.5204   22.9447 N   0  0  0  0  0  0  0  0  0  0  0  0
   11.7865  -16.0190   24.0269 C   0  0  1  0  0  0  0  0  0  0  0  0
   11.4018  -17.4457   24.2196 C   0  0  0  0  0  0  0  0  0  0  0  0
   11.0264  -17.9469   25.5431 C   0  0  0  0  0  0  0  0  0  0  0  0
   10.6816  -19.3444   25.7147 C   0  0  0  0  0  0  0  0  0  0  0  0
   11.4773  -20.2946   25.8638 O   0  0  0  0  0  0  0  0  0  0  0  0
   13.1526  -15.8125   23.6065 C   0  0  0  0  0  0  0  0  0  0  0  0
   13.5372  -15.7995   22.3953 O   0  0  0  0  0  0  0  0  0  0  0  0
    9.3118  -19.6831   25.7154 O   0  0  0  0  0  0  0  0  0  0  0  0
   14.1510  -15.6094   24.5448 O   0  0  0  0  0  0  0  0  0  0  0  0
  2  1  1  0
  2  3  2  0
  4  2  1  0
  5  4  1  0
  5  6  1  6
  7  5  1  0
  7  8  2  0
  9  7  1  0
 10 17  1  0
 10  9  1  0
 10 11  1  1
 12 11  1  0
 12 16  1  0
 13 14  1  0
 13 12  2  0
 14 15  1  0
 15 16  2  0
 17 19  1  0
 18 17  2  0
 19 20  1  0
 20 25  1  0
 20 21  1  6
 22 21  1  0
 23 22  1  0
 24 23  2  0
 25 26  2  0
 25 28  1  0
 27 23  1  0
M  END
$$$$
