NHE.pdb
     RDKit          3D

 28 28  0  0  1  0  0  0  0  0999 V2000
   15.8190  -14.5846   18.7386 N   0  0  0  0  0  0  0  0  0  0  0  0
   15.3099  -15.8058   18.1522 C   0  0  0  0  0  0  0  0  0  0  0  0
   16.1136  -16.7693   18.0633 O   0  0  0  0  0  0  0  0  0  0  0  0
   13.9193  -15.8851   17.6921 C   0  0  0  0  0  0  0  0  0  0  0  0
   13.1499  -14.6294   17.9694 C   0  0  2  0  0  0  0  0  0  0  0  0
   14.1297  -13.5391   18.0524 N   0  0  0  0  0  0  0  0  0  0  0  0
   12.4776  -14.6657   19.3136 C   0  0  0  0  0  0  0  0  0  0  0  0
   13.0364  -14.1590   20.3153 O   0  0  0  0  0  0  0  0  0  0  0  0
   11.2079  -15.2659   19.4901 N   0  0  0  0  0  0  0  0  0  0  0  0
   10.4978  -15.3227   20.7182 C   0  0  1  0  0  0  0  0  0  0  0  0
    8.9951  -15.3748   20.5797 C   0  0  0  0  0  0  0  0  0  0  0  0
    8.5001  -14.2759   19.6926 C   0  0  0  0  0  0  0  0  0  0  0  0
    8.5296  -12.9186   19.9197 C   0  0  0  0  0  0  0  0  0  0  0  0
    7.9731  -12.3042   18.8426 N   0  0  0  0  0  0  0  0  0  0  0  0
    7.5979  -13.2300   17.9525 C   0  0  0  0  0  0  0  0  0  0  0  0
    7.9239  -14.4296   18.4806 N   0  0  0  0  0  0  0  0  0  0  0  0
   10.9408  -16.4179   21.6462 C   0  0  0  0  0  0  0  0  0  0  0  0
   10.7360  -17.6172   21.3377 O   0  0  0  0  0  0  0  0  0  0  0  0
   11.5827  -16.1621   22.8593 N   0  0  0  0  0  0  0  0  0  0  0  0
   12.0143  -17.2331   23.8011 C   0  0  1  0  0  0  0  0  0  0  0  0
   13.5031  -17.2257   23.7385 C   0  0  0  0  0  0  0  0  0  0  0  0
   14.2486  -15.9677   23.8114 C   0  0  0  0  0  0  0  0  0  0  0  0
   15.6969  -15.9823   23.7531 C   0  0  0  0  0  0  0  0  0  0  0  0
   16.4683  -16.5538   24.5510 O   0  0  0  0  0  0  0  0  0  0  0  0
   11.4620  -16.9327   25.1012 C   0  0  0  0  0  0  0  0  0  0  0  0
   10.8058  -15.8799   25.3771 O   0  0  0  0  0  0  0  0  0  0  0  0
   16.3143  -15.2843   22.6935 O   0  0  0  0  0  0  0  0  0  0  0  0
   11.6287  -17.8170   26.1542 O   0  0  0  0  0  0  0  0  0  0  0  0
  2  1  1  0
  2  3  2  0
  4  2  1  0
  5  4  1  0
  5  6  1  1
  7  5  1  0
  7  8  2  0
  9  7  1  0
 10 17  1  0
 10  9  1  0
 10 11  1  6
 12 11  1  0
 12 16  1  0
 13 14  1  0
 13 12  2  0
 14 15  1  0
 15 16  2  0
 17 19  1  0
 18 17  2  0
 19 20  1  0
 20 25  1  0
 20 21  1  1
 22 21  1  0
 23 22  1  0
 24 23  2  0
 25 26  2  0
 25 28  1  0
 27 23  1  0
M  END
$$$$
