NHE.pdb
     RDKit          3D

 28 28  0  0  1  0  0  0  0  0999 V2000
   10.3427  -18.9962   15.5130 N   0  0  0  0  0  0  0  0  0  0  0  0
   10.4940  -17.5571   15.4883 C   0  0  0  0  0  0  0  0  0  0  0  0
   10.6060  -17.0187   14.3570 O   0  0  0  0  0  0  0  0  0  0  0  0
   10.5132  -16.7909   16.7390 C   0  0  0  0  0  0  0  0  0  0  0  0
   10.5238  -17.6711   17.9519 C   0  0  2  0  0  0  0  0  0  0  0  0
    9.2043  -18.3108   18.0255 N   0  0  0  0  0  0  0  0  0  0  0  0
   10.6549  -16.8782   19.2224 C   0  0  0  0  0  0  0  0  0  0  0  0
   11.7128  -16.2534   19.4730 O   0  0  0  0  0  0  0  0  0  0  0  0
    9.6015  -16.8123   20.1657 N   0  0  0  0  0  0  0  0  0  0  0  0
    9.6393  -16.0745   21.3779 C   0  0  1  0  0  0  0  0  0  0  0  0
    8.3241  -15.4527   21.7827 C   0  0  0  0  0  0  0  0  0  0  0  0
    7.8494  -14.4812   20.7480 C   0  0  0  0  0  0  0  0  0  0  0  0
    6.8173  -14.6296   19.8495 C   0  0  0  0  0  0  0  0  0  0  0  0
    6.7466  -13.4942   19.1058 N   0  0  0  0  0  0  0  0  0  0  0  0
    7.6975  -12.6436   19.5087 C   0  0  0  0  0  0  0  0  0  0  0  0
    8.3648  -13.2554   20.5111 N   0  0  0  0  0  0  0  0  0  0  0  0
   10.2052  -16.8256   22.5495 C   0  0  0  0  0  0  0  0  0  0  0  0
    9.6884  -17.9143   22.9005 O   0  0  0  0  0  0  0  0  0  0  0  0
   11.3003  -16.3631   23.2815 N   0  0  0  0  0  0  0  0  0  0  0  0
   12.0933  -17.2238   24.2039 C   0  0  1  0  0  0  0  0  0  0  0  0
   13.5126  -16.8334   23.9722 C   0  0  0  0  0  0  0  0  0  0  0  0
   14.5849  -17.3830   24.8040 C   0  0  0  0  0  0  0  0  0  0  0  0
   15.9517  -16.9447   24.6024 C   0  0  0  0  0  0  0  0  0  0  0  0
   16.4046  -15.7998   24.8087 O   0  0  0  0  0  0  0  0  0  0  0  0
   11.6150  -16.9967   25.5474 C   0  0  0  0  0  0  0  0  0  0  0  0
   10.8568  -16.0349   25.8869 O   0  0  0  0  0  0  0  0  0  0  0  0
   16.8780  -17.8957   24.1241 O   0  0  0  0  0  0  0  0  0  0  0  0
   11.9756  -17.8542   26.5735 O   0  0  0  0  0  0  0  0  0  0  0  0
  2  1  1  0
  2  3  2  0
  4  2  1  0
  5  4  1  0
  5  6  1  1
  7  5  1  0
  7  8  2  0
  9  7  1  0
 10 17  1  0
 10  9  1  0
 10 11  1  1
 12 11  1  0
 12 16  1  0
 13 14  1  0
 13 12  2  0
 14 15  1  0
 15 16  2  0
 17 19  1  0
 18 17  2  0
 19 20  1  0
 20 25  1  0
 20 21  1  1
 22 21  1  0
 23 22  1  0
 24 23  2  0
 25 26  2  0
 25 28  1  0
 27 23  1  0
M  END
$$$$
