KAI.pdb
     RDKit          3D

 23 22  0  0  1  0  0  0  0  0999 V2000
   29.2754  -23.1223  -16.7995 N   0  0  0  0  0  0  0  0  0  0  0  0
   27.8785  -23.2812  -17.0509 C   0  0  1  0  0  0  0  0  0  0  0  0
   27.3630  -24.6799  -16.8539 C   0  0  0  0  0  0  0  0  0  0  0  0
   27.7547  -25.6483  -17.9035 C   0  0  0  0  0  0  0  0  0  0  0  0
   28.5201  -26.8363  -17.4503 C   0  0  0  0  0  0  0  0  0  0  0  0
   28.8843  -27.7940  -18.5529 C   0  0  0  0  0  0  0  0  0  0  0  0
   29.7747  -28.7969  -17.9487 N   0  0  0  0  0  0  0  0  0  0  0  0
   27.1070  -22.2817  -16.2789 C   0  0  0  0  0  0  0  0  0  0  0  0
   27.3342  -22.0712  -15.0382 O   0  0  0  0  0  0  0  0  0  0  0  0
   24.6120  -19.5195  -17.0216 C   0  0  0  0  0  0  0  0  0  0  0  0
   25.3686  -20.4523  -16.1218 C   0  0  2  0  0  0  0  0  0  0  0  0
   26.0710  -21.4920  -16.8479 N   0  0  0  0  0  0  0  0  0  0  0  0
   24.5354  -21.0128  -15.0303 C   0  0  0  0  0  0  0  0  0  0  0  0
   23.8071  -22.0174  -15.2655 O   0  0  0  0  0  0  0  0  0  0  0  0
   26.0129  -20.7952   -9.6812 C   0  0  0  0  0  0  0  0  0  0  0  0
   25.4648  -21.4151  -10.9471 C   0  0  0  0  0  0  0  0  0  0  0  0
   24.2531  -20.6246  -11.3677 C   0  0  2  0  0  0  0  0  0  0  0  0
   23.1722  -20.6515  -10.3012 C   0  0  0  0  0  0  0  0  0  0  0  0
   23.6563  -21.0451  -12.6624 C   0  0  2  0  0  0  0  0  0  0  0  0
   24.5114  -20.4772  -13.7236 N   0  0  0  0  0  0  0  0  0  0  0  0
   22.2768  -20.5692  -12.7897 C   0  0  0  0  0  0  0  0  0  0  0  0
   21.9830  -19.3762  -13.3984 O   0  0  0  0  0  0  0  0  0  0  0  0
   21.3406  -21.2660  -12.3318 O   0  0  0  0  0  0  0  0  0  0  0  0
  2  1  1  1
  2  3  1  0
  3  4  1  0
  5  4  1  0
  6  7  1  0
  6  5  1  0
  8  2  1  0
  9  8  2  0
 11 10  1  6
 11 13  1  0
 11 12  1  0
 12  8  1  0
 13 20  1  0
 14 13  2  0
 16 15  1  0
 17 16  1  0
 17 18  1  1
 19 17  1  0
 19 21  1  0
 19 20  1  6
 21 23  2  0
 21 22  1  0
M  END
$$$$
