KAI.pdb
     RDKit          3D

 23 22  0  0  1  0  0  0  0  0999 V2000
   26.9370  -20.5116  -17.5629 N   0  0  0  0  0  0  0  0  0  0  0  0
   27.2753  -19.5847  -16.5303 C   0  0  1  0  0  0  0  0  0  0  0  0
   26.4513  -18.3269  -16.5248 C   0  0  0  0  0  0  0  0  0  0  0  0
   26.9125  -17.2687  -17.4522 C   0  0  0  0  0  0  0  0  0  0  0  0
   28.3218  -17.3613  -17.9079 C   0  0  0  0  0  0  0  0  0  0  0  0
   28.7651  -16.2184  -18.7813 C   0  0  0  0  0  0  0  0  0  0  0  0
   27.9733  -16.3144  -20.0172 N   0  0  0  0  0  0  0  0  0  0  0  0
   27.2738  -20.2658  -15.2164 C   0  0  0  0  0  0  0  0  0  0  0  0
   26.2616  -20.9315  -14.8070 O   0  0  0  0  0  0  0  0  0  0  0  0
   29.6758  -20.7495  -12.2982 C   0  0  0  0  0  0  0  0  0  0  0  0
   28.3427  -20.7914  -12.9860 C   0  0  2  0  0  0  0  0  0  0  0  0
   28.3792  -20.2328  -14.3234 N   0  0  0  0  0  0  0  0  0  0  0  0
   27.2498  -20.2018  -12.1752 C   0  0  0  0  0  0  0  0  0  0  0  0
   27.0674  -18.9525  -12.2032 O   0  0  0  0  0  0  0  0  0  0  0  0
   22.3521  -21.2510  -12.7007 C   0  0  0  0  0  0  0  0  0  0  0  0
   23.7009  -20.6312  -12.4108 C   0  0  0  0  0  0  0  0  0  0  0  0
   24.0474  -20.9179  -10.9729 C   0  0  2  0  0  0  0  0  0  0  0  0
   22.9549  -20.4431  -10.0308 C   0  0  0  0  0  0  0  0  0  0  0  0
   25.3455  -20.3511  -10.5222 C   0  0  2  0  0  0  0  0  0  0  0  0
   26.3894  -20.9719  -11.3617 N   0  0  0  0  0  0  0  0  0  0  0  0
   25.5805  -20.6275   -9.1031 C   0  0  0  0  0  0  0  0  0  0  0  0
   25.3781  -19.6698   -8.1428 O   0  0  0  0  0  0  0  0  0  0  0  0
   25.9767  -21.7647   -8.7549 O   0  0  0  0  0  0  0  0  0  0  0  0
  2  1  1  6
  2  3  1  0
  3  4  1  0
  5  4  1  0
  6  7  1  0
  6  5  1  0
  8  2  1  0
  9  8  2  0
 11 10  1  1
 11 13  1  0
 11 12  1  0
 12  8  1  0
 13 20  1  0
 14 13  2  0
 16 15  1  0
 17 16  1  0
 17 18  1  1
 19 17  1  0
 19 21  1  0
 19 20  1  6
 21 23  2  0
 21 22  1  0
M  END
$$$$
