KAI.pdb
     RDKit          3D

 23 22  0  0  1  0  0  0  0  0999 V2000
   18.8283  -23.0167   -9.7705 N   0  0  0  0  0  0  0  0  0  0  0  0
   19.1247  -23.1804  -11.1580 C   0  0  1  0  0  0  0  0  0  0  0  0
   17.9499  -23.5857  -12.0045 C   0  0  0  0  0  0  0  0  0  0  0  0
   17.7565  -25.0461  -12.1542 C   0  0  0  0  0  0  0  0  0  0  0  0
   18.3239  -25.8987  -11.0800 C   0  0  0  0  0  0  0  0  0  0  0  0
   18.0813  -27.3722  -11.2678 C   0  0  0  0  0  0  0  0  0  0  0  0
   18.7382  -28.0444  -10.1363 N   0  0  0  0  0  0  0  0  0  0  0  0
   19.8045  -21.9729  -11.6776 C   0  0  0  0  0  0  0  0  0  0  0  0
   19.3938  -20.7961  -11.3914 O   0  0  0  0  0  0  0  0  0  0  0  0
   23.0296  -21.1420  -13.4856 C   0  0  0  0  0  0  0  0  0  0  0  0
   21.6367  -20.8495  -13.0098 C   0  0  2  0  0  0  0  0  0  0  0  0
   20.9474  -22.0276  -12.5210 N   0  0  0  0  0  0  0  0  0  0  0  0
   20.8230  -20.1123  -14.0069 C   0  0  0  0  0  0  0  0  0  0  0  0
   20.0665  -20.7594  -14.7838 O   0  0  0  0  0  0  0  0  0  0  0  0
   19.0766  -15.7769  -12.4037 C   0  0  0  0  0  0  0  0  0  0  0  0
   18.6099  -16.4693  -13.6647 C   0  0  0  0  0  0  0  0  0  0  0  0
   19.7969  -16.6234  -14.5797 C   0  0  2  0  0  0  0  0  0  0  0  0
   19.7313  -15.6531  -15.7462 C   0  0  0  0  0  0  0  0  0  0  0  0
   19.9962  -17.9967  -15.1121 C   0  0  2  0  0  0  0  0  0  0  0  0
   20.8483  -18.7061  -14.1371 N   0  0  0  0  0  0  0  0  0  0  0  0
   20.6257  -17.9665  -16.4344 C   0  0  0  0  0  0  0  0  0  0  0  0
   19.8787  -17.9572  -17.5842 O   0  0  0  0  0  0  0  0  0  0  0  0
   21.8762  -17.9495  -16.5205 O   0  0  0  0  0  0  0  0  0  0  0  0
  2  1  1  1
  2  3  1  0
  3  4  1  0
  5  4  1  0
  6  7  1  0
  6  5  1  0
  8  2  1  0
  9  8  2  0
 11 10  1  6
 11 13  1  0
 11 12  1  0
 12  8  1  0
 13 20  1  0
 14 13  2  0
 16 15  1  0
 17 16  1  0
 17 18  1  6
 19 17  1  0
 19 21  1  0
 19 20  1  1
 21 23  2  0
 21 22  1  0
M  END
$$$$
