KAI.pdb
     RDKit          3D

 23 22  0  0  1  0  0  0  0  0999 V2000
   25.3642  -20.4784  -12.7461 N   0  0  0  0  0  0  0  0  0  0  0  0
   24.7104  -20.4879  -11.4764 C   0  0  1  0  0  0  0  0  0  0  0  0
   23.4862  -21.3587  -11.4102 C   0  0  0  0  0  0  0  0  0  0  0  0
   22.6755  -21.3994  -12.6487 C   0  0  0  0  0  0  0  0  0  0  0  0
   21.9370  -20.1590  -12.9929 C   0  0  0  0  0  0  0  0  0  0  0  0
   20.4742  -20.3699  -13.2780 C   0  0  0  0  0  0  0  0  0  0  0  0
   19.9255  -19.0465  -13.6116 N   0  0  0  0  0  0  0  0  0  0  0  0
   25.6838  -20.8010  -10.4065 C   0  0  0  0  0  0  0  0  0  0  0  0
   25.3052  -21.1293   -9.2300 O   0  0  0  0  0  0  0  0  0  0  0  0
   29.4712  -21.0410  -10.0469 C   0  0  0  0  0  0  0  0  0  0  0  0
   28.0508  -21.0888   -9.5651 C   0  0  2  0  0  0  0  0  0  0  0  0
   27.0913  -20.7614  -10.6014 N   0  0  0  0  0  0  0  0  0  0  0  0
   27.8250  -20.2894   -8.3364 C   0  0  0  0  0  0  0  0  0  0  0  0
   27.2781  -19.1551   -8.4316 O   0  0  0  0  0  0  0  0  0  0  0  0
   27.0613  -20.5780   -2.7218 C   0  0  0  0  0  0  0  0  0  0  0  0
   28.3192  -20.0232   -3.3520 C   0  0  0  0  0  0  0  0  0  0  0  0
   28.5010  -20.6855   -4.6930 C   0  0  2  0  0  0  0  0  0  0  0  0
   29.9509  -21.0680   -4.9338 C   0  0  0  0  0  0  0  0  0  0  0  0
   28.0200  -19.8864   -5.8504 C   0  0  2  0  0  0  0  0  0  0  0  0
   28.1933  -20.7335   -7.0472 N   0  0  0  0  0  0  0  0  0  0  0  0
   28.7712  -18.6356   -5.9799 C   0  0  0  0  0  0  0  0  0  0  0  0
   29.9080  -18.5575   -6.7425 O   0  0  0  0  0  0  0  0  0  0  0  0
   28.3687  -17.6110   -5.3801 O   0  0  0  0  0  0  0  0  0  0  0  0
  2  1  1  6
  2  3  1  0
  3  4  1  0
  5  4  1  0
  6  7  1  0
  6  5  1  0
  8  2  1  0
  9  8  2  0
 11 10  1  6
 11 13  1  0
 11 12  1  0
 12  8  1  0
 13 20  1  0
 14 13  2  0
 16 15  1  0
 17 16  1  0
 17 18  1  6
 19 17  1  0
 19 21  1  0
 19 20  1  6
 21 23  2  0
 21 22  1  0
M  END
$$$$
