KAI.pdb
     RDKit          3D

 23 22  0  0  1  0  0  0  0  0999 V2000
   27.1765  -19.8279  -18.8690 N   0  0  0  0  0  0  0  0  0  0  0  0
   27.8459  -19.4987  -17.6511 C   0  0  1  0  0  0  0  0  0  0  0  0
   28.7158  -18.2745  -17.7270 C   0  0  0  0  0  0  0  0  0  0  0  0
   28.6545  -17.5380  -19.0101 C   0  0  0  0  0  0  0  0  0  0  0  0
   27.5916  -16.5090  -19.1283 C   0  0  0  0  0  0  0  0  0  0  0  0
   27.5922  -15.7677  -20.4383 C   0  0  0  0  0  0  0  0  0  0  0  0
   28.7001  -16.3280  -21.2271 N   0  0  0  0  0  0  0  0  0  0  0  0
   26.8718  -19.4304  -16.5390 C   0  0  0  0  0  0  0  0  0  0  0  0
   26.8921  -18.4771  -15.6869 O   0  0  0  0  0  0  0  0  0  0  0  0
   23.4818  -20.6721  -15.7509 C   0  0  0  0  0  0  0  0  0  0  0  0
   24.8621  -20.3134  -15.2840 C   0  0  2  0  0  0  0  0  0  0  0  0
   25.8556  -20.4034  -16.3360 N   0  0  0  0  0  0  0  0  0  0  0  0
   25.2789  -21.0580  -14.0709 C   0  0  0  0  0  0  0  0  0  0  0  0
   25.5374  -22.2907  -14.1636 O   0  0  0  0  0  0  0  0  0  0  0  0
   29.5133  -20.5022  -11.3862 C   0  0  0  0  0  0  0  0  0  0  0  0
   28.2737  -21.1550  -11.9561 C   0  0  0  0  0  0  0  0  0  0  0  0
   27.0897  -20.6978  -11.1442 C   0  0  2  0  0  0  0  0  0  0  0  0
   27.2632  -21.0266   -9.6717 C   0  0  0  0  0  0  0  0  0  0  0  0
   25.7801  -21.2320  -11.6012 C   0  0  2  0  0  0  0  0  0  0  0  0
   25.4045  -20.4556  -12.7996 N   0  0  0  0  0  0  0  0  0  0  0  0
   24.7624  -21.1070  -10.5551 C   0  0  0  0  0  0  0  0  0  0  0  0
   23.7687  -20.1651  -10.6301 O   0  0  0  0  0  0  0  0  0  0  0  0
   24.7983  -21.8770   -9.5665 O   0  0  0  0  0  0  0  0  0  0  0  0
  2  1  1  6
  2  3  1  0
  3  4  1  0
  5  4  1  0
  6  7  1  0
  6  5  1  0
  8  2  1  0
  9  8  2  0
 11 10  1  6
 11 13  1  0
 11 12  1  0
 12  8  1  0
 13 20  1  0
 14 13  2  0
 16 15  1  0
 17 16  1  0
 17 18  1  1
 19 17  1  0
 19 21  1  0
 19 20  1  6
 21 23  2  0
 21 22  1  0
M  END
$$$$
