KAI.pdb
     RDKit          3D

 23 22  0  0  1  0  0  0  0  0999 V2000
   25.4682  -17.3722  -19.6149 N   0  0  0  0  0  0  0  0  0  0  0  0
   25.3102  -18.6341  -18.9651 C   0  0  1  0  0  0  0  0  0  0  0  0
   26.5475  -19.4885  -18.9493 C   0  0  0  0  0  0  0  0  0  0  0  0
   27.1162  -19.7965  -20.2814 C   0  0  0  0  0  0  0  0  0  0  0  0
   28.2352  -20.7709  -20.3100 C   0  0  0  0  0  0  0  0  0  0  0  0
   28.7808  -21.0451  -21.6857 C   0  0  0  0  0  0  0  0  0  0  0  0
   29.8310  -22.0609  -21.5165 N   0  0  0  0  0  0  0  0  0  0  0  0
   24.7409  -18.4409  -17.6128 C   0  0  0  0  0  0  0  0  0  0  0  0
   25.3331  -17.7288  -16.7310 O   0  0  0  0  0  0  0  0  0  0  0  0
   21.4751  -18.3591  -15.9889 C   0  0  0  0  0  0  0  0  0  0  0  0
   22.9126  -18.7806  -15.8995 C   0  0  2  0  0  0  0  0  0  0  0  0
   23.5123  -19.0225  -17.1971 N   0  0  0  0  0  0  0  0  0  0  0  0
   23.1295  -19.9193  -14.9743 C   0  0  0  0  0  0  0  0  0  0  0  0
   22.8310  -21.0863  -15.3536 O   0  0  0  0  0  0  0  0  0  0  0  0
   27.4608  -20.2175  -11.7534 C   0  0  0  0  0  0  0  0  0  0  0  0
   26.3495  -20.5492  -12.7241 C   0  0  0  0  0  0  0  0  0  0  0  0
   25.0578  -20.6139  -11.9511 C   0  0  2  0  0  0  0  0  0  0  0  0
   25.1389  -21.6164  -10.8132 C   0  0  0  0  0  0  0  0  0  0  0  0
   23.8575  -20.9205  -12.7724 C   0  0  2  0  0  0  0  0  0  0  0  0
   23.6593  -19.7681  -13.6737 N   0  0  0  0  0  0  0  0  0  0  0  0
   22.6792  -21.1358  -11.9293 C   0  0  0  0  0  0  0  0  0  0  0  0
   22.2930  -22.3940  -11.5443 O   0  0  0  0  0  0  0  0  0  0  0  0
   22.0053  -20.1492  -11.5497 O   0  0  0  0  0  0  0  0  0  0  0  0
  2  1  1  1
  2  3  1  0
  3  4  1  0
  5  4  1  0
  6  7  1  0
  6  5  1  0
  8  2  1  0
  9  8  2  0
 11 10  1  6
 11 13  1  0
 11 12  1  0
 12  8  1  0
 13 20  1  0
 14 13  2  0
 16 15  1  0
 17 16  1  0
 17 18  1  1
 19 17  1  0
 19 21  1  0
 19 20  1  6
 21 23  2  0
 21 22  1  0
M  END
$$$$
