KAI.pdb
     RDKit          3D

 23 22  0  0  1  0  0  0  0  0999 V2000
   17.0311  -12.5364  -13.7363 N   0  0  0  0  0  0  0  0  0  0  0  0
   16.0238  -11.5252  -13.7876 C   0  0  1  0  0  0  0  0  0  0  0  0
   14.6512  -11.9892  -13.3854 C   0  0  0  0  0  0  0  0  0  0  0  0
   14.0193  -12.9590  -14.3089 C   0  0  0  0  0  0  0  0  0  0  0  0
   12.6070  -13.3152  -14.0239 C   0  0  0  0  0  0  0  0  0  0  0  0
   12.0194  -14.3218  -14.9762 C   0  0  0  0  0  0  0  0  0  0  0  0
   10.5975  -14.4433  -14.6201 N   0  0  0  0  0  0  0  0  0  0  0  0
   16.4617  -10.3335  -13.0272 C   0  0  0  0  0  0  0  0  0  0  0  0
   16.5498  -10.3467  -11.7515 O   0  0  0  0  0  0  0  0  0  0  0  0
   17.9857   -6.9458  -13.7860 C   0  0  0  0  0  0  0  0  0  0  0  0
   17.2867   -7.9461  -12.9125 C   0  0  2  0  0  0  0  0  0  0  0  0
   16.8122   -9.1029  -13.6463 N   0  0  0  0  0  0  0  0  0  0  0  0
   16.2145   -7.3460  -12.0819 C   0  0  0  0  0  0  0  0  0  0  0  0
   15.0359   -7.3043  -12.5339 O   0  0  0  0  0  0  0  0  0  0  0  0
   13.9422   -8.4049   -8.5210 C   0  0  0  0  0  0  0  0  0  0  0  0
   15.4003   -8.0908   -8.2707 C   0  0  0  0  0  0  0  0  0  0  0  0
   15.6225   -6.6318   -8.5734 C   0  0  2  0  0  0  0  0  0  0  0  0
   14.8059   -5.7409   -7.6535 C   0  0  0  0  0  0  0  0  0  0  0  0
   15.3497   -6.2412   -9.9814 C   0  0  2  0  0  0  0  0  0  0  0  0
   16.4423   -6.8108  -10.7948 N   0  0  0  0  0  0  0  0  0  0  0  0
   15.2926   -4.7847  -10.1259 C   0  0  0  0  0  0  0  0  0  0  0  0
   14.0984   -4.1109  -10.1317 O   0  0  0  0  0  0  0  0  0  0  0  0
   16.3583   -4.1360  -10.2483 O   0  0  0  0  0  0  0  0  0  0  0  0
  2  1  1  1
  2  3  1  0
  3  4  1  0
  5  4  1  0
  6  7  1  0
  6  5  1  0
  8  2  1  0
  9  8  2  0
 11 10  1  6
 11 13  1  0
 11 12  1  0
 12  8  1  0
 13 20  1  0
 14 13  2  0
 16 15  1  0
 17 16  1  0
 17 18  1  1
 19 17  1  0
 19 21  1  0
 19 20  1  6
 21 23  2  0
 21 22  1  0
M  END
$$$$
