KAI.pdb
     RDKit          3D

 23 22  0  0  1  0  0  0  0  0999 V2000
   15.6042  -13.0577  -17.9050 N   0  0  0  0  0  0  0  0  0  0  0  0
   15.6487  -12.4936  -16.5937 C   0  0  1  0  0  0  0  0  0  0  0  0
   16.0247  -13.4639  -15.5083 C   0  0  0  0  0  0  0  0  0  0  0  0
   15.4391  -14.8172  -15.6439 C   0  0  0  0  0  0  0  0  0  0  0  0
   15.6331  -15.7365  -14.4951 C   0  0  0  0  0  0  0  0  0  0  0  0
   14.9151  -17.0525  -14.6287 C   0  0  0  0  0  0  0  0  0  0  0  0
   15.3225  -17.8626  -13.4705 N   0  0  0  0  0  0  0  0  0  0  0  0
   16.5023  -11.2846  -16.5900 C   0  0  0  0  0  0  0  0  0  0  0  0
   17.6396  -11.2645  -17.1743 O   0  0  0  0  0  0  0  0  0  0  0  0
   16.1037   -7.6208  -15.7570 C   0  0  0  0  0  0  0  0  0  0  0  0
   16.9145   -8.8561  -16.0190 C   0  0  2  0  0  0  0  0  0  0  0  0
   16.1296  -10.0729  -15.9470 N   0  0  0  0  0  0  0  0  0  0  0  0
   18.1353   -8.9406  -15.1811 C   0  0  0  0  0  0  0  0  0  0  0  0
   18.0641   -9.4815  -14.0421 O   0  0  0  0  0  0  0  0  0  0  0  0
   23.0945   -8.6825  -17.6376 C   0  0  0  0  0  0  0  0  0  0  0  0
   22.0322   -8.0545  -16.7633 C   0  0  0  0  0  0  0  0  0  0  0  0
   21.6901   -9.0319  -15.6689 C   0  0  2  0  0  0  0  0  0  0  0  0
   21.3309  -10.3959  -16.2319 C   0  0  0  0  0  0  0  0  0  0  0  0
   20.6009   -8.5893  -14.7594 C   0  0  2  0  0  0  0  0  0  0  0  0
   19.3911   -8.4423  -15.5928 N   0  0  0  0  0  0  0  0  0  0  0  0
   20.9409   -7.3259  -14.1008 C   0  0  0  0  0  0  0  0  0  0  0  0
   21.7429   -7.2897  -12.9892 O   0  0  0  0  0  0  0  0  0  0  0  0
   20.4891   -6.2508  -14.5609 O   0  0  0  0  0  0  0  0  0  0  0  0
  2  1  1  6
  2  3  1  0
  3  4  1  0
  5  4  1  0
  6  7  1  0
  6  5  1  0
  8  2  1  0
  9  8  2  0
 11 10  1  1
 11 13  1  0
 11 12  1  0
 12  8  1  0
 13 20  1  0
 14 13  2  0
 16 15  1  0
 17 16  1  0
 17 18  1  6
 19 17  1  0
 19 21  1  0
 19 20  1  6
 21 23  2  0
 21 22  1  0
M  END
$$$$
