SNR.pdb
     RDKit          3D

 26 25  0  0  1  0  0  0  0  0999 V2000
    9.8791  -19.2768   21.2958 O   0  0  0  0  0  0  0  0  0  0  0  0
   10.8164  -19.6242   20.3147 C   0  0  0  0  0  0  0  0  0  0  0  0
   10.4305  -18.8830   19.0544 C   0  0  2  0  0  0  0  0  0  0  0  0
   11.4088  -19.1687   18.0150 N   0  0  0  0  0  0  0  0  0  0  0  0
   10.3265  -17.4218   19.2778 C   0  0  0  0  0  0  0  0  0  0  0  0
   11.3409  -16.7130   19.1582 O   0  0  0  0  0  0  0  0  0  0  0  0
    8.6196  -12.5337   20.0172 N   0  0  0  0  0  0  0  0  0  0  0  0
    7.5555  -13.3375   19.6025 C   0  0  0  0  0  0  0  0  0  0  0  0
    6.4550  -12.7356   19.3310 O   0  0  0  0  0  0  0  0  0  0  0  0
    7.5986  -14.8307   19.4507 C   0  0  0  0  0  0  0  0  0  0  0  0
    8.9526  -15.3659   19.8509 C   0  0  2  0  0  0  0  0  0  0  0  0
    9.1111  -16.7690   19.6269 N   0  0  0  0  0  0  0  0  0  0  0  0
    9.1796  -15.0958   21.3192 C   0  0  0  0  0  0  0  0  0  0  0  0
    9.1860  -13.8995   21.7405 O   0  0  0  0  0  0  0  0  0  0  0  0
    7.6585  -11.0901   26.6683 N   0  0  0  0  0  0  0  0  0  0  0  0
    6.5167  -11.9353   26.5315 C   0  0  0  0  0  0  0  0  0  0  0  0
    5.4169  -11.6228   27.1271 N   0  0  0  0  0  0  0  0  0  0  0  0
    6.5265  -13.1235   25.7608 N   0  0  0  0  0  0  0  0  0  0  0  0
    7.7707  -13.9172   25.6090 C   0  0  0  0  0  0  0  0  0  0  0  0
    7.4431  -15.0551   24.7305 C   0  0  0  0  0  0  0  0  0  0  0  0
    8.4255  -16.1042   24.4564 C   0  0  0  0  0  0  0  0  0  0  0  0
    9.6597  -15.8765   23.7065 C   0  0  2  0  0  0  0  0  0  0  0  0
    9.3845  -16.1277   22.2425 N   0  0  0  0  0  0  0  0  0  0  0  0
   10.7938  -16.7889   24.0405 C   0  0  0  0  0  0  0  0  0  0  0  0
   11.4939  -16.5027   25.2422 O   0  0  0  0  0  0  0  0  0  0  0  0
   11.2085  -17.7604   23.4211 O   0  0  0  0  0  0  0  0  0  0  0  0
  2  1  1  0
  3  2  1  0
  3  4  1  6
  5  6  2  0
  5  3  1  0
  7  8  1  0
  8 10  1  0
  9  8  2  0
 11 10  1  1
 11 12  1  0
 12  5  1  0
 13 11  1  0
 13 23  1  0
 14 13  2  0
 16 17  2  0
 16 15  1  0
 18 16  1  0
 19 18  1  0
 20 19  1  0
 22 21  1  1
 21 20  1  0
 22 23  1  0
 22 24  1  0
 24 25  1  0
 26 24  2  0
M  END
$$$$
