SNR.pdb
     RDKit          3D

 26 25  0  0  1  0  0  0  0  0999 V2000
    3.9609  -20.7796   19.6867 O   0  0  0  0  0  0  0  0  0  0  0  0
    4.6496  -20.0014   20.6258 C   0  0  0  0  0  0  0  0  0  0  0  0
    3.9242  -20.1563   21.9435 C   0  0  2  0  0  0  0  0  0  0  0  0
    2.5743  -19.6283   21.8095 N   0  0  0  0  0  0  0  0  0  0  0  0
    4.6354  -19.4793   23.0532 C   0  0  0  0  0  0  0  0  0  0  0  0
    4.1288  -18.4724   23.5779 O   0  0  0  0  0  0  0  0  0  0  0  0
    7.3517  -18.7894   27.8590 N   0  0  0  0  0  0  0  0  0  0  0  0
    7.7546  -19.6328   26.8214 C   0  0  0  0  0  0  0  0  0  0  0  0
    9.0116  -19.8779   26.7379 O   0  0  0  0  0  0  0  0  0  0  0  0
    6.8438  -20.2671   25.8102 C   0  0  0  0  0  0  0  0  0  0  0  0
    6.6010  -19.3287   24.6523 C   0  0  2  0  0  0  0  0  0  0  0  0
    5.8876  -19.9220   23.5646 N   0  0  0  0  0  0  0  0  0  0  0  0
    7.9274  -18.8316   24.1290 C   0  0  0  0  0  0  0  0  0  0  0  0
    8.4368  -19.3743   23.1020 O   0  0  0  0  0  0  0  0  0  0  0  0
    8.1392  -14.2415   19.0046 N   0  0  0  0  0  0  0  0  0  0  0  0
    8.3384  -13.0345   19.7397 C   0  0  0  0  0  0  0  0  0  0  0  0
    8.9372  -12.0389   19.1810 N   0  0  0  0  0  0  0  0  0  0  0  0
    7.9048  -12.8677   21.0776 N   0  0  0  0  0  0  0  0  0  0  0  0
    7.3068  -14.0002   21.8265 C   0  0  0  0  0  0  0  0  0  0  0  0
    8.4174  -14.6939   22.5040 C   0  0  0  0  0  0  0  0  0  0  0  0
    8.1831  -15.9062   23.2892 C   0  0  0  0  0  0  0  0  0  0  0  0
    9.2473  -16.6476   23.9639 C   0  0  2  0  0  0  0  0  0  0  0  0
    8.6226  -17.7823   24.7414 N   0  0  0  0  0  0  0  0  0  0  0  0
   10.0256  -15.8767   24.9789 C   0  0  0  0  0  0  0  0  0  0  0  0
   11.2243  -15.2700   24.5193 O   0  0  0  0  0  0  0  0  0  0  0  0
    9.7735  -15.6886   26.1623 O   0  0  0  0  0  0  0  0  0  0  0  0
  2  1  1  0
  3  2  1  0
  3  4  1  6
  5  6  2  0
  5  3  1  0
  7  8  1  0
  8 10  1  0
  9  8  2  0
 11 10  1  1
 11 12  1  0
 12  5  1  0
 13 11  1  0
 13 23  1  0
 14 13  2  0
 16 17  2  0
 16 15  1  0
 18 16  1  0
 19 18  1  0
 20 19  1  0
 22 21  1  1
 21 20  1  0
 22 23  1  0
 22 24  1  0
 24 25  1  0
 26 24  2  0
M  END
$$$$
