SNR.pdb
     RDKit          3D

 26 25  0  0  1  0  0  0  0  0999 V2000
   10.5564  -17.8763   13.1657 O   0  0  0  0  0  0  0  0  0  0  0  0
   10.3658  -17.9613   14.5507 C   0  0  0  0  0  0  0  0  0  0  0  0
    8.9090  -17.6536   14.8147 C   0  0  2  0  0  0  0  0  0  0  0  0
    8.5805  -16.3627   14.2277 N   0  0  0  0  0  0  0  0  0  0  0  0
    8.5928  -17.6577   16.2624 C   0  0  0  0  0  0  0  0  0  0  0  0
    8.6538  -16.5938   16.9029 O   0  0  0  0  0  0  0  0  0  0  0  0
    7.4956  -19.2185   21.1869 N   0  0  0  0  0  0  0  0  0  0  0  0
    6.9787  -20.1499   20.2838 C   0  0  0  0  0  0  0  0  0  0  0  0
    6.2362  -21.0738   20.7760 O   0  0  0  0  0  0  0  0  0  0  0  0
    7.2201  -20.1538   18.8018 C   0  0  0  0  0  0  0  0  0  0  0  0
    7.9507  -18.9015   18.3798 C   0  0  2  0  0  0  0  0  0  0  0  0
    8.2154  -18.8293   16.9767 N   0  0  0  0  0  0  0  0  0  0  0  0
    9.2695  -18.8253   19.1114 C   0  0  0  0  0  0  0  0  0  0  0  0
   10.1579  -19.7032   18.8909 O   0  0  0  0  0  0  0  0  0  0  0  0
    7.3665  -12.1153   20.2483 N   0  0  0  0  0  0  0  0  0  0  0  0
    7.6836  -13.3786   19.6648 C   0  0  0  0  0  0  0  0  0  0  0  0
    7.2636  -13.6564   18.4781 N   0  0  0  0  0  0  0  0  0  0  0  0
    8.4506  -14.3642   20.3329 N   0  0  0  0  0  0  0  0  0  0  0  0
    9.8063  -14.0490   20.8465 C   0  0  0  0  0  0  0  0  0  0  0  0
   10.3062  -15.2716   21.5016 C   0  0  0  0  0  0  0  0  0  0  0  0
   11.1834  -16.2032   20.7920 C   0  0  0  0  0  0  0  0  0  0  0  0
   10.9096  -17.6343   20.6706 C   0  0  2  0  0  0  0  0  0  0  0  0
    9.5513  -17.8102   20.0332 N   0  0  0  0  0  0  0  0  0  0  0  0
   10.8233  -18.3849   21.9588 C   0  0  0  0  0  0  0  0  0  0  0  0
   12.0466  -18.5781   22.6533 O   0  0  0  0  0  0  0  0  0  0  0  0
    9.8377  -18.8597   22.5087 O   0  0  0  0  0  0  0  0  0  0  0  0
  2  1  1  0
  3  2  1  0
  3  4  1  1
  5  6  2  0
  5  3  1  0
  7  8  1  0
  8 10  1  0
  9  8  2  0
 11 10  1  6
 11 12  1  0
 12  5  1  0
 13 11  1  0
 13 23  1  0
 14 13  2  0
 16 17  2  0
 16 15  1  0
 18 16  1  0
 19 18  1  0
 20 19  1  0
 22 21  1  1
 21 20  1  0
 22 23  1  0
 22 24  1  0
 24 25  1  0
 26 24  2  0
M  END
$$$$
