SNR.pdb
     RDKit          3D

 26 25  0  0  1  0  0  0  0  0999 V2000
    7.0336  -20.3151   21.4575 O   0  0  0  0  0  0  0  0  0  0  0  0
    6.0257  -19.6254   20.7719 C   0  0  0  0  0  0  0  0  0  0  0  0
    5.0608  -19.1051   21.8134 C   0  0  2  0  0  0  0  0  0  0  0  0
    3.9955  -18.3675   21.1501 N   0  0  0  0  0  0  0  0  0  0  0  0
    5.7343  -18.2481   22.8173 C   0  0  0  0  0  0  0  0  0  0  0  0
    5.4675  -17.0346   22.8604 O   0  0  0  0  0  0  0  0  0  0  0  0
    8.6554  -16.7104   26.9650 N   0  0  0  0  0  0  0  0  0  0  0  0
    8.1106  -17.9820   27.1563 C   0  0  0  0  0  0  0  0  0  0  0  0
    8.2737  -18.5063   28.3163 O   0  0  0  0  0  0  0  0  0  0  0  0
    7.3586  -18.7724   26.1246 C   0  0  0  0  0  0  0  0  0  0  0  0
    7.2567  -17.9973   24.8327 C   0  0  2  0  0  0  0  0  0  0  0  0
    6.6860  -18.7412   23.7534 N   0  0  0  0  0  0  0  0  0  0  0  0
    8.6354  -17.5450   24.4146 C   0  0  0  0  0  0  0  0  0  0  0  0
    9.3164  -16.8133   25.1953 O   0  0  0  0  0  0  0  0  0  0  0  0
    8.4333  -12.2529   20.8792 N   0  0  0  0  0  0  0  0  0  0  0  0
    7.8765  -13.2061   19.9746 C   0  0  0  0  0  0  0  0  0  0  0  0
    6.6997  -13.0100   19.4861 N   0  0  0  0  0  0  0  0  0  0  0  0
    8.5609  -14.3803   19.5763 N   0  0  0  0  0  0  0  0  0  0  0  0
    9.8904  -14.7117   20.1453 C   0  0  0  0  0  0  0  0  0  0  0  0
    9.7206  -15.9514   20.9251 C   0  0  0  0  0  0  0  0  0  0  0  0
   10.5393  -16.2167   22.1084 C   0  0  0  0  0  0  0  0  0  0  0  0
   10.5965  -17.5174   22.7737 C   0  0  2  0  0  0  0  0  0  0  0  0
    9.1962  -17.9079   23.1844 N   0  0  0  0  0  0  0  0  0  0  0  0
   11.3878  -17.5589   24.0396 C   0  0  0  0  0  0  0  0  0  0  0  0
   11.9627  -18.8126   24.3770 O   0  0  0  0  0  0  0  0  0  0  0  0
   11.6163  -16.6562   24.8347 O   0  0  0  0  0  0  0  0  0  0  0  0
  2  1  1  0
  3  2  1  0
  3  4  1  6
  5  6  2  0
  5  3  1  0
  7  8  1  0
  8 10  1  0
  9  8  2  0
 11 10  1  1
 11 12  1  0
 12  5  1  0
 13 11  1  0
 13 23  1  0
 14 13  2  0
 16 17  2  0
 16 15  1  0
 18 16  1  0
 19 18  1  0
 20 19  1  0
 22 21  1  1
 21 20  1  0
 22 23  1  0
 22 24  1  0
 24 25  1  0
 26 24  2  0
M  END
$$$$
