SNR.pdb
     RDKit          3D

 26 25  0  0  1  0  0  0  0  0999 V2000
    7.3055  -19.5219   17.6385 O   0  0  0  0  0  0  0  0  0  0  0  0
    8.3517  -20.1333   18.3410 C   0  0  0  0  0  0  0  0  0  0  0  0
    8.5608  -19.3318   19.6060 C   0  0  2  0  0  0  0  0  0  0  0  0
    7.3242  -19.3218   20.3739 N   0  0  0  0  0  0  0  0  0  0  0  0
    9.0022  -17.9464   19.3205 C   0  0  0  0  0  0  0  0  0  0  0  0
   10.0904  -17.7586   18.7493 O   0  0  0  0  0  0  0  0  0  0  0  0
    7.7572  -12.0351   19.8415 N   0  0  0  0  0  0  0  0  0  0  0  0
    8.0832  -13.0913   18.9879 C   0  0  0  0  0  0  0  0  0  0  0  0
    8.8985  -12.8253   18.0331 O   0  0  0  0  0  0  0  0  0  0  0  0
    7.5617  -14.4950   19.0994 C   0  0  0  0  0  0  0  0  0  0  0  0
    8.6634  -15.4386   19.5189 C   0  0  2  0  0  0  0  0  0  0  0  0
    8.2395  -16.7959   19.6671 N   0  0  0  0  0  0  0  0  0  0  0  0
    9.2363  -14.9784   20.8381 C   0  0  0  0  0  0  0  0  0  0  0  0
    9.7416  -13.8187   20.9292 O   0  0  0  0  0  0  0  0  0  0  0  0
    7.6573  -12.9518   27.5638 N   0  0  0  0  0  0  0  0  0  0  0  0
    6.6972  -12.3183   26.7190 C   0  0  0  0  0  0  0  0  0  0  0  0
    6.3378  -11.1040   26.9605 N   0  0  0  0  0  0  0  0  0  0  0  0
    6.1054  -12.9648   25.6064 N   0  0  0  0  0  0  0  0  0  0  0  0
    6.4787  -14.3564   25.2526 C   0  0  0  0  0  0  0  0  0  0  0  0
    7.6247  -14.2661   24.3294 C   0  0  0  0  0  0  0  0  0  0  0  0
    8.6290  -15.3284   24.2670 C   0  0  0  0  0  0  0  0  0  0  0  0
    9.7428  -15.3297   23.3200 C   0  0  2  0  0  0  0  0  0  0  0  0
    9.2296  -15.7928   21.9767 N   0  0  0  0  0  0  0  0  0  0  0  0
   10.8604  -16.2667   23.6416 C   0  0  0  0  0  0  0  0  0  0  0  0
   11.8006  -15.8120   24.6036 O   0  0  0  0  0  0  0  0  0  0  0  0
   11.0822  -17.3837   23.1917 O   0  0  0  0  0  0  0  0  0  0  0  0
  2  1  1  0
  3  2  1  0
  3  4  1  6
  5  6  2  0
  5  3  1  0
  7  8  1  0
  8 10  1  0
  9  8  2  0
 11 10  1  1
 11 12  1  0
 12  5  1  0
 13 11  1  0
 13 23  1  0
 14 13  2  0
 16 17  2  0
 16 15  1  0
 18 16  1  0
 19 18  1  0
 20 19  1  0
 22 21  1  1
 21 20  1  0
 22 23  1  0
 22 24  1  0
 24 25  1  0
 26 24  2  0
M  END
$$$$
