SNR.pdb
     RDKit          3D

 26 25  0  0  1  0  0  0  0  0999 V2000
    9.8097  -15.8743   17.4809 O   0  0  0  0  0  0  0  0  0  0  0  0
   11.1524  -15.6473   17.1532 C   0  0  0  0  0  0  0  0  0  0  0  0
   11.8385  -16.9949   17.1469 C   0  0  2  0  0  0  0  0  0  0  0  0
   11.2262  -17.8368   16.1294 N   0  0  0  0  0  0  0  0  0  0  0  0
   11.7761  -17.6573   18.4709 C   0  0  0  0  0  0  0  0  0  0  0  0
   11.0025  -18.6163   18.6371 O   0  0  0  0  0  0  0  0  0  0  0  0
   14.8172  -19.2110   23.5826 N   0  0  0  0  0  0  0  0  0  0  0  0
   13.8021  -19.0953   22.6305 C   0  0  0  0  0  0  0  0  0  0  0  0
   12.6859  -19.6630   22.9114 O   0  0  0  0  0  0  0  0  0  0  0  0
   13.9133  -18.3674   21.3219 C   0  0  0  0  0  0  0  0  0  0  0  0
   12.5599  -17.8676   20.8760 C   0  0  2  0  0  0  0  0  0  0  0  0
   12.5648  -17.2539   19.5847 N   0  0  0  0  0  0  0  0  0  0  0  0
   12.0497  -16.8566   21.8749 C   0  0  0  0  0  0  0  0  0  0  0  0
   12.7236  -15.8060   22.1002 O   0  0  0  0  0  0  0  0  0  0  0  0
    8.6466  -12.1668   20.1219 N   0  0  0  0  0  0  0  0  0  0  0  0
    8.2663  -13.2295   19.2484 C   0  0  0  0  0  0  0  0  0  0  0  0
    8.5293  -13.1451   17.9892 N   0  0  0  0  0  0  0  0  0  0  0  0
    7.6016  -14.3960   19.6993 N   0  0  0  0  0  0  0  0  0  0  0  0
    7.4640  -14.6762   21.1497 C   0  0  0  0  0  0  0  0  0  0  0  0
    8.8004  -15.0673   21.6345 C   0  0  0  0  0  0  0  0  0  0  0  0
    8.9951  -15.5529   23.0010 C   0  0  0  0  0  0  0  0  0  0  0  0
   10.2849  -16.0067   23.5188 C   0  0  2  0  0  0  0  0  0  0  0  0
   10.8473  -17.0375   22.5684 N   0  0  0  0  0  0  0  0  0  0  0  0
   10.2406  -16.6966   24.8426 C   0  0  0  0  0  0  0  0  0  0  0  0
   10.0918  -15.8592   25.9797 O   0  0  0  0  0  0  0  0  0  0  0  0
   10.3120  -17.8937   25.0897 O   0  0  0  0  0  0  0  0  0  0  0  0
  2  1  1  0
  3  2  1  0
  3  4  1  6
  5  6  2  0
  5  3  1  0
  7  8  1  0
  8 10  1  0
  9  8  2  0
 11 10  1  1
 11 12  1  0
 12  5  1  0
 13 11  1  0
 13 23  1  0
 14 13  2  0
 16 17  2  0
 16 15  1  0
 18 16  1  0
 19 18  1  0
 20 19  1  0
 22 21  1  6
 21 20  1  0
 22 23  1  0
 22 24  1  0
 24 25  1  0
 26 24  2  0
M  END
$$$$
