SNR.pdb
     RDKit          3D

 26 25  0  0  1  0  0  0  0  0999 V2000
    7.6917  -14.4250   19.7445 O   0  0  0  0  0  0  0  0  0  0  0  0
    7.9590  -13.0819   19.4506 C   0  0  0  0  0  0  0  0  0  0  0  0
    8.8040  -13.0649   18.1966 C   0  0  2  0  0  0  0  0  0  0  0  0
    7.9808  -13.4564   17.0617 N   0  0  0  0  0  0  0  0  0  0  0  0
    9.9845  -13.9534   18.3089 C   0  0  0  0  0  0  0  0  0  0  0  0
   10.0252  -15.0007   17.6401 O   0  0  0  0  0  0  0  0  0  0  0  0
   15.2918  -15.1731   18.4147 N   0  0  0  0  0  0  0  0  0  0  0  0
   14.7036  -14.6625   19.5738 C   0  0  0  0  0  0  0  0  0  0  0  0
   15.2337  -15.0151   20.6882 O   0  0  0  0  0  0  0  0  0  0  0  0
   13.5158  -13.7450   19.6170 C   0  0  0  0  0  0  0  0  0  0  0  0
   12.2460  -14.5063   19.3202 C   0  0  2  0  0  0  0  0  0  0  0  0
   11.0961  -13.6735   19.1523 N   0  0  0  0  0  0  0  0  0  0  0  0
   11.9682  -15.4689   20.4500 C   0  0  0  0  0  0  0  0  0  0  0  0
   10.8419  -15.4402   21.0325 O   0  0  0  0  0  0  0  0  0  0  0  0
    8.4333  -22.2647   18.4644 N   0  0  0  0  0  0  0  0  0  0  0  0
    8.2104  -21.5829   19.6982 C   0  0  0  0  0  0  0  0  0  0  0  0
    7.0577  -21.6598   20.2703 N   0  0  0  0  0  0  0  0  0  0  0  0
    9.2078  -20.8102   20.3418 N   0  0  0  0  0  0  0  0  0  0  0  0
   10.5102  -20.5522   19.6797 C   0  0  0  0  0  0  0  0  0  0  0  0
   11.3637  -19.8748   20.6729 C   0  0  0  0  0  0  0  0  0  0  0  0
   11.7026  -18.4580   20.5356 C   0  0  0  0  0  0  0  0  0  0  0  0
   12.5420  -17.7341   21.4889 C   0  0  2  0  0  0  0  0  0  0  0  0
   12.9175  -16.4024   20.8824 N   0  0  0  0  0  0  0  0  0  0  0  0
   13.8469  -18.3812   21.8188 C   0  0  0  0  0  0  0  0  0  0  0  0
   13.8779  -19.1558   23.0084 O   0  0  0  0  0  0  0  0  0  0  0  0
   14.9039  -18.3412   21.2019 O   0  0  0  0  0  0  0  0  0  0  0  0
  2  1  1  0
  3  2  1  0
  3  4  1  6
  5  6  2  0
  5  3  1  0
  7  8  1  0
  8 10  1  0
  9  8  2  0
 11 10  1  1
 11 12  1  0
 12  5  1  0
 13 11  1  0
 13 23  1  0
 14 13  2  0
 16 17  2  0
 16 15  1  0
 18 16  1  0
 19 18  1  0
 20 19  1  0
 22 21  1  6
 21 20  1  0
 22 23  1  0
 22 24  1  0
 24 25  1  0
 26 24  2  0
M  END
$$$$
