SNR.pdb
     RDKit          3D

 26 25  0  0  1  0  0  0  0  0999 V2000
   12.5964  -22.8759   25.9915 O   0  0  0  0  0  0  0  0  0  0  0  0
   11.8134  -23.1431   24.8613 C   0  0  0  0  0  0  0  0  0  0  0  0
   11.6428  -21.8341   24.1237 C   0  0  2  0  0  0  0  0  0  0  0  0
   12.9469  -21.3639   23.6794 N   0  0  0  0  0  0  0  0  0  0  0  0
   10.9811  -20.8059   24.9607 C   0  0  0  0  0  0  0  0  0  0  0  0
   10.9421  -19.6285   24.5630 O   0  0  0  0  0  0  0  0  0  0  0  0
    7.5485  -18.9868   28.6116 N   0  0  0  0  0  0  0  0  0  0  0  0
    7.2802  -19.2364   27.2640 C   0  0  0  0  0  0  0  0  0  0  0  0
    6.1359  -18.8531   26.8272 O   0  0  0  0  0  0  0  0  0  0  0  0
    8.2142  -19.9085   26.2993 C   0  0  0  0  0  0  0  0  0  0  0  0
    9.5396  -20.2016   26.9606 C   0  0  2  0  0  0  0  0  0  0  0  0
   10.3751  -21.0915   26.2163 N   0  0  0  0  0  0  0  0  0  0  0  0
    9.2926  -20.8143   28.3186 C   0  0  0  0  0  0  0  0  0  0  0  0
    8.7305  -21.9483   28.3993 O   0  0  0  0  0  0  0  0  0  0  0  0
   15.5215  -22.3091   33.6527 N   0  0  0  0  0  0  0  0  0  0  0  0
   15.8024  -21.9046   32.3132 C   0  0  0  0  0  0  0  0  0  0  0  0
   16.9007  -21.2822   32.0520 N   0  0  0  0  0  0  0  0  0  0  0  0
   14.9215  -22.1549   31.2328 N   0  0  0  0  0  0  0  0  0  0  0  0
   13.5091  -21.7042   31.2875 C   0  0  0  0  0  0  0  0  0  0  0  0
   12.8623  -22.1864   30.0533 C   0  0  0  0  0  0  0  0  0  0  0  0
   11.6019  -21.6080   29.5864 C   0  0  0  0  0  0  0  0  0  0  0  0
   10.8465  -20.6078   30.3390 C   0  0  2  0  0  0  0  0  0  0  0  0
    9.6658  -20.1705   29.5042 N   0  0  0  0  0  0  0  0  0  0  0  0
   11.5806  -19.3444   30.6476 C   0  0  0  0  0  0  0  0  0  0  0  0
   11.9856  -19.1700   31.9974 O   0  0  0  0  0  0  0  0  0  0  0  0
   11.8887  -18.4293   29.8946 O   0  0  0  0  0  0  0  0  0  0  0  0
  2  1  1  0
  3  2  1  0
  3  4  1  1
  5  6  2  0
  5  3  1  0
  7  8  1  0
  8 10  1  0
  9  8  2  0
 11 10  1  6
 11 12  1  0
 12  5  1  0
 13 11  1  0
 13 23  1  0
 14 13  2  0
 16 17  2  0
 16 15  1  0
 18 16  1  0
 19 18  1  0
 20 19  1  0
 22 21  1  6
 21 20  1  0
 22 23  1  0
 22 24  1  0
 24 25  1  0
 26 24  2  0
M  END
$$$$
