WMS.pdb
     RDKit          3D

 29 30  0  0  1  0  0  0  0  0999 V2000
   23.5943  -21.0780  -17.2728 N   0  0  0  0  0  0  0  0  0  0  0  0
   23.2610  -20.0957  -16.2825 C   0  0  1  0  0  0  0  0  0  0  0  0
   21.7698  -19.7885  -16.4274 C   0  0  0  0  0  0  0  0  0  0  0  0
   21.4306  -19.1670  -17.7048 C   0  0  0  0  0  0  0  0  0  0  0  0
   20.6220  -19.6497  -18.7077 C   0  0  0  0  0  0  0  0  0  0  0  0
   20.5749  -18.7681  -19.7088 N   0  0  0  0  0  0  0  0  0  0  0  0
   21.3398  -17.6855  -19.4088 C   0  0  0  0  0  0  0  0  0  0  0  0
   21.6332  -16.5082  -20.0832 C   0  0  0  0  0  0  0  0  0  0  0  0
   22.4736  -15.6046  -19.4576 C   0  0  0  0  0  0  0  0  0  0  0  0
   23.0231  -15.8212  -18.2115 C   0  0  0  0  0  0  0  0  0  0  0  0
   22.7117  -16.9999  -17.5689 C   0  0  0  0  0  0  0  0  0  0  0  0
   21.8746  -17.9421  -18.1489 C   0  0  0  0  0  0  0  0  0  0  0  0
   23.4303  -20.6272  -14.9060 C   0  0  0  0  0  0  0  0  0  0  0  0
   23.2112  -21.8505  -14.7444 O   0  0  0  0  0  0  0  0  0  0  0  0
   26.3085  -21.5723   -8.1717 C   0  0  0  0  0  0  0  0  0  0  0  0
   26.2844  -21.1064   -9.9121 S   0  0  0  0  0  0  0  0  0  0  0  0
   25.0191  -19.8529  -10.2063 C   0  0  0  0  0  0  0  0  0  0  0  0
   24.8567  -19.4855  -11.6281 C   0  0  0  0  0  0  0  0  0  0  0  0
   23.9315  -20.3266  -12.4576 C   0  0  2  0  0  0  0  0  0  0  0  0
   23.8216  -19.8259  -13.7892 N   0  0  0  0  0  0  0  0  0  0  0  0
   22.6082  -20.5084  -11.8064 C   0  0  0  0  0  0  0  0  0  0  0  0
   22.4459  -21.2131  -10.7757 O   0  0  0  0  0  0  0  0  0  0  0  0
   19.5472  -18.7197  -13.6214 O   0  0  0  0  0  0  0  0  0  0  0  0
   19.3539  -18.7860  -12.2333 C   0  0  0  0  0  0  0  0  0  0  0  0
   20.1539  -19.9549  -11.6946 C   0  0  2  0  0  0  0  0  0  0  0  0
   21.4656  -19.8779  -12.3411 N   0  0  0  0  0  0  0  0  0  0  0  0
   19.4459  -21.1956  -12.1445 C   0  0  0  0  0  0  0  0  0  0  0  0
   19.8924  -21.9389  -13.0320 O   0  0  0  0  0  0  0  0  0  0  0  0
   18.2432  -21.4958  -11.5214 O   0  0  0  0  0  0  0  0  0  0  0  0
  2  1  1  6
  2  3  1  0
  2 13  1  0
  3  4  1  0
  4 12  1  0
  4  5  2  0
  5  6  1  0
  7  8  2  0
  7  6  1  0
  9  8  1  0
 10  9  2  0
 11 10  1  0
 11 12  2  0
 12  7  1  0
 13 20  1  0
 14 13  2  0
 16 17  1  0
 16 15  1  0
 18 17  1  0
 19 18  1  1
 20 19  1  0
 21 22  2  0
 21 19  1  0
 23 24  1  0
 25 24  1  6
 25 27  1  0
 25 26  1  0
 26 21  1  0
 27 29  1  0
 28 27  2  0
M  END
$$$$
