WMS.pdb
     RDKit          3D

 29 30  0  0  1  0  0  0  0  0999 V2000
   24.1513  -28.4819  -17.5289 N   0  0  0  0  0  0  0  0  0  0  0  0
   22.8675  -27.8437  -17.4921 C   0  0  1  0  0  0  0  0  0  0  0  0
   21.8089  -28.9382  -17.6354 C   0  0  0  0  0  0  0  0  0  0  0  0
   21.6832  -29.4439  -18.9997 C   0  0  0  0  0  0  0  0  0  0  0  0
   21.8402  -28.7650  -20.1860 C   0  0  0  0  0  0  0  0  0  0  0  0
   21.6393  -29.5983  -21.2092 N   0  0  0  0  0  0  0  0  0  0  0  0
   21.3462  -30.8411  -20.7437 C   0  0  0  0  0  0  0  0  0  0  0  0
   21.0579  -32.0488  -21.3642 C   0  0  0  0  0  0  0  0  0  0  0  0
   20.8020  -33.1400  -20.5530 C   0  0  0  0  0  0  0  0  0  0  0  0
   20.8211  -33.0789  -19.1756 C   0  0  0  0  0  0  0  0  0  0  0  0
   21.1108  -31.8649  -18.5911 C   0  0  0  0  0  0  0  0  0  0  0  0
   21.3754  -30.7375  -19.3553 C   0  0  0  0  0  0  0  0  0  0  0  0
   22.6111  -27.2060  -16.1756 C   0  0  0  0  0  0  0  0  0  0  0  0
   23.2702  -27.6404  -15.2022 O   0  0  0  0  0  0  0  0  0  0  0  0
   21.4170  -20.3807  -12.5852 C   0  0  0  0  0  0  0  0  0  0  0  0
   21.4618  -21.3306  -14.1157 S   0  0  0  0  0  0  0  0  0  0  0  0
   21.4828  -23.0990  -13.7536 C   0  0  0  0  0  0  0  0  0  0  0  0
   21.5680  -23.9568  -14.9534 C   0  0  0  0  0  0  0  0  0  0  0  0
   21.5253  -25.4421  -14.7451 C   0  0  2  0  0  0  0  0  0  0  0  0
   21.6715  -26.1476  -15.9768 N   0  0  0  0  0  0  0  0  0  0  0  0
   20.3193  -25.8645  -13.9865 C   0  0  0  0  0  0  0  0  0  0  0  0
   19.1574  -25.8150  -14.4693 O   0  0  0  0  0  0  0  0  0  0  0  0
   18.7769  -27.5657   -9.7062 O   0  0  0  0  0  0  0  0  0  0  0  0
   19.8444  -27.1152  -10.4976 C   0  0  0  0  0  0  0  0  0  0  0  0
   19.2871  -26.6305  -11.8208 C   0  0  2  0  0  0  0  0  0  0  0  0
   20.4478  -26.3463  -12.6673 N   0  0  0  0  0  0  0  0  0  0  0  0
   18.5551  -25.3565  -11.5307 C   0  0  0  0  0  0  0  0  0  0  0  0
   19.1359  -24.3015  -11.2324 O   0  0  0  0  0  0  0  0  0  0  0  0
   17.1703  -25.3939  -11.6080 O   0  0  0  0  0  0  0  0  0  0  0  0
  2  1  1  1
  2  3  1  0
  2 13  1  0
  3  4  1  0
  4 12  1  0
  4  5  2  0
  5  6  1  0
  7  8  2  0
  7  6  1  0
  9  8  1  0
 10  9  2  0
 11 10  1  0
 11 12  2  0
 12  7  1  0
 13 20  1  0
 14 13  2  0
 16 17  1  0
 16 15  1  0
 18 17  1  0
 19 18  1  6
 20 19  1  0
 21 22  2  0
 21 19  1  0
 23 24  1  0
 25 24  1  1
 25 27  1  0
 25 26  1  0
 26 21  1  0
 27 29  1  0
 28 27  2  0
M  END
$$$$
