WMS.pdb
     RDKit          3D

 29 30  0  0  1  0  0  0  0  0999 V2000
   26.9714  -21.5777  -13.4230 N   0  0  0  0  0  0  0  0  0  0  0  0
   26.1338  -20.5994  -12.7918 C   0  0  1  0  0  0  0  0  0  0  0  0
   24.7425  -20.7182  -13.4156 C   0  0  0  0  0  0  0  0  0  0  0  0
   24.6762  -20.2012  -14.7799 C   0  0  0  0  0  0  0  0  0  0  0  0
   25.2878  -20.6850  -15.9133 C   0  0  0  0  0  0  0  0  0  0  0  0
   24.9655  -19.9194  -16.9580 N   0  0  0  0  0  0  0  0  0  0  0  0
   24.1407  -18.9155  -16.5595 C   0  0  0  0  0  0  0  0  0  0  0  0
   23.5245  -17.8655  -17.2264 C   0  0  0  0  0  0  0  0  0  0  0  0
   22.7308  -17.0119  -16.4812 C   0  0  0  0  0  0  0  0  0  0  0  0
   22.5293  -17.1583  -15.1249 C   0  0  0  0  0  0  0  0  0  0  0  0
   23.1554  -18.2109  -14.4931 C   0  0  0  0  0  0  0  0  0  0  0  0
   23.9628  -19.0979  -15.1905 C   0  0  0  0  0  0  0  0  0  0  0  0
   25.9522  -20.8858  -11.3459 C   0  0  0  0  0  0  0  0  0  0  0  0
   25.5986  -22.0494  -11.0430 O   0  0  0  0  0  0  0  0  0  0  0  0
   28.9794  -20.5111   -4.7345 C   0  0  0  0  0  0  0  0  0  0  0  0
   27.4821  -19.9053   -5.5332 S   0  0  0  0  0  0  0  0  0  0  0  0
   27.7517  -19.7198   -7.3085 C   0  0  0  0  0  0  0  0  0  0  0  0
   26.5806  -19.1980   -8.0426 C   0  0  0  0  0  0  0  0  0  0  0  0
   25.8476  -20.1507   -8.9407 C   0  0  2  0  0  0  0  0  0  0  0  0
   26.1576  -19.9186  -10.3140 N   0  0  0  0  0  0  0  0  0  0  0  0
   24.3848  -20.1505   -8.6791 C   0  0  0  0  0  0  0  0  0  0  0  0
   23.6241  -19.2211   -9.0574 O   0  0  0  0  0  0  0  0  0  0  0  0
   20.6474  -22.3842   -9.2717 O   0  0  0  0  0  0  0  0  0  0  0  0
   21.9240  -21.8052   -9.3337 C   0  0  0  0  0  0  0  0  0  0  0  0
   22.3420  -21.4182   -7.9294 C   0  0  2  0  0  0  0  0  0  0  0  0
   23.7923  -21.2224   -7.9799 N   0  0  0  0  0  0  0  0  0  0  0  0
   22.0253  -22.5921   -7.0549 C   0  0  0  0  0  0  0  0  0  0  0  0
   22.8719  -23.4432   -6.7412 O   0  0  0  0  0  0  0  0  0  0  0  0
   20.7212  -22.7008   -6.5940 O   0  0  0  0  0  0  0  0  0  0  0  0
  2  1  1  6
  2  3  1  0
  2 13  1  0
  3  4  1  0
  4 12  1  0
  4  5  2  0
  5  6  1  0
  7  8  2  0
  7  6  1  0
  9  8  1  0
 10  9  2  0
 11 10  1  0
 11 12  2  0
 12  7  1  0
 13 20  1  0
 14 13  2  0
 16 17  1  0
 16 15  1  0
 18 17  1  0
 19 18  1  1
 20 19  1  0
 21 22  2  0
 21 19  1  0
 23 24  1  0
 25 24  1  6
 25 27  1  0
 25 26  1  0
 26 21  1  0
 27 29  1  0
 28 27  2  0
M  END
$$$$
