WMS.pdb
     RDKit          3D

 29 30  0  0  1  0  0  0  0  0999 V2000
   28.6795  -21.0811  -15.3074 N   0  0  0  0  0  0  0  0  0  0  0  0
   27.6799  -20.1942  -14.7870 C   0  0  1  0  0  0  0  0  0  0  0  0
   26.8815  -19.6575  -15.9759 C   0  0  0  0  0  0  0  0  0  0  0  0
   27.5080  -18.5052  -16.6183 C   0  0  0  0  0  0  0  0  0  0  0  0
   28.1905  -18.4519  -17.8116 C   0  0  0  0  0  0  0  0  0  0  0  0
   28.6033  -17.2027  -18.0364 N   0  0  0  0  0  0  0  0  0  0  0  0
   28.2144  -16.3955  -17.0145 C   0  0  0  0  0  0  0  0  0  0  0  0
   28.3776  -15.0421  -16.7526 C   0  0  0  0  0  0  0  0  0  0  0  0
   27.8332  -14.5468  -15.5812 C   0  0  0  0  0  0  0  0  0  0  0  0
   27.1459  -15.3290  -14.6771 C   0  0  0  0  0  0  0  0  0  0  0  0
   27.0016  -16.6685  -14.9671 C   0  0  0  0  0  0  0  0  0  0  0  0
   27.5269  -17.2195  -16.1270 C   0  0  0  0  0  0  0  0  0  0  0  0
   26.6989  -20.9146  -13.9359 C   0  0  0  0  0  0  0  0  0  0  0  0
   26.4508  -22.1032  -14.2464 O   0  0  0  0  0  0  0  0  0  0  0  0
   27.9604  -21.1841   -7.3273 C   0  0  0  0  0  0  0  0  0  0  0  0
   26.4261  -20.6317   -8.0939 S   0  0  0  0  0  0  0  0  0  0  0  0
   26.3754  -21.1374   -9.8261 C   0  0  0  0  0  0  0  0  0  0  0  0
   25.1971  -20.6369  -10.5636 C   0  0  0  0  0  0  0  0  0  0  0  0
   25.0786  -21.0108  -12.0119 C   0  0  2  0  0  0  0  0  0  0  0  0
   26.0441  -20.3271  -12.8096 N   0  0  0  0  0  0  0  0  0  0  0  0
   23.6934  -20.8374  -12.5212 C   0  0  0  0  0  0  0  0  0  0  0  0
   23.1247  -19.7158  -12.5838 O   0  0  0  0  0  0  0  0  0  0  0  0
   19.8095  -23.2195  -14.2163 O   0  0  0  0  0  0  0  0  0  0  0  0
   21.1348  -23.2635  -13.7576 C   0  0  0  0  0  0  0  0  0  0  0  0
   21.5703  -21.8522  -13.4185 C   0  0  2  0  0  0  0  0  0  0  0  0
   22.9574  -21.9572  -12.9610 N   0  0  0  0  0  0  0  0  0  0  0  0
   20.7017  -21.4021  -12.2845 C   0  0  0  0  0  0  0  0  0  0  0  0
   19.6627  -20.7456  -12.4543 O   0  0  0  0  0  0  0  0  0  0  0  0
   21.1059  -21.7516  -11.0041 O   0  0  0  0  0  0  0  0  0  0  0  0
  2  1  1  6
  2  3  1  0
  2 13  1  0
  3  4  1  0
  4 12  1  0
  4  5  2  0
  5  6  1  0
  7  8  2  0
  7  6  1  0
  9  8  1  0
 10  9  2  0
 11 10  1  0
 11 12  2  0
 12  7  1  0
 13 20  1  0
 14 13  2  0
 16 17  1  0
 16 15  1  0
 18 17  1  0
 19 18  1  1
 20 19  1  0
 21 22  2  0
 21 19  1  0
 23 24  1  0
 25 24  1  1
 25 27  1  0
 25 26  1  0
 26 21  1  0
 27 29  1  0
 28 27  2  0
M  END
$$$$
