WMS.pdb
     RDKit          3D

 29 30  0  0  1  0  0  0  0  0999 V2000
   24.0406  -20.4462  -10.6850 N   0  0  0  0  0  0  0  0  0  0  0  0
   25.2657  -19.7027  -10.7406 C   0  0  1  0  0  0  0  0  0  0  0  0
   26.3375  -20.5346  -10.0347 C   0  0  0  0  0  0  0  0  0  0  0  0
   26.2125  -20.5209   -8.5796 C   0  0  0  0  0  0  0  0  0  0  0  0
   25.1351  -20.8858   -7.8059 C   0  0  0  0  0  0  0  0  0  0  0  0
   25.4349  -20.7240   -6.5153 N   0  0  0  0  0  0  0  0  0  0  0  0
   26.7035  -20.2529   -6.3901 C   0  0  0  0  0  0  0  0  0  0  0  0
   27.4938  -19.9189   -5.2989 C   0  0  0  0  0  0  0  0  0  0  0  0
   28.7737  -19.4588   -5.5526 C   0  0  0  0  0  0  0  0  0  0  0  0
   29.2890  -19.3205   -6.8241 C   0  0  0  0  0  0  0  0  0  0  0  0
   28.4785  -19.6607   -7.8855 C   0  0  0  0  0  0  0  0  0  0  0  0
   27.1866  -20.1275   -7.6901 C   0  0  0  0  0  0  0  0  0  0  0  0
   25.7414  -19.5357  -12.1376 C   0  0  0  0  0  0  0  0  0  0  0  0
   25.3236  -20.3670  -12.9772 O   0  0  0  0  0  0  0  0  0  0  0  0
   25.5487  -14.6746  -17.4718 C   0  0  0  0  0  0  0  0  0  0  0  0
   25.4323  -15.4549  -15.8519 S   0  0  0  0  0  0  0  0  0  0  0  0
   27.0772  -15.8867  -15.2464 C   0  0  0  0  0  0  0  0  0  0  0  0
   27.0758  -16.5557  -13.9291 C   0  0  0  0  0  0  0  0  0  0  0  0
   26.7027  -18.0086  -13.8926 C   0  0  2  0  0  0  0  0  0  0  0  0
   26.6300  -18.4967  -12.5537 N   0  0  0  0  0  0  0  0  0  0  0  0
   27.5901  -18.8342  -14.7524 C   0  0  0  0  0  0  0  0  0  0  0  0
   27.8512  -18.5370  -15.9477 O   0  0  0  0  0  0  0  0  0  0  0  0
   28.3224  -22.7379  -13.8313 O   0  0  0  0  0  0  0  0  0  0  0  0
   29.4764  -22.0001  -14.1353 C   0  0  0  0  0  0  0  0  0  0  0  0
   29.0821  -20.8437  -15.0318 C   0  0  2  0  0  0  0  0  0  0  0  0
   28.1806  -20.0067  -14.2373 N   0  0  0  0  0  0  0  0  0  0  0  0
   28.3299  -21.4376  -16.1826 C   0  0  0  0  0  0  0  0  0  0  0  0
   28.8575  -22.1987  -17.0083 O   0  0  0  0  0  0  0  0  0  0  0  0
   26.9890  -21.1012  -16.2997 O   0  0  0  0  0  0  0  0  0  0  0  0
  2  1  1  6
  2  3  1  0
  2 13  1  0
  3  4  1  0
  4 12  1  0
  4  5  2  0
  5  6  1  0
  7  8  2  0
  7  6  1  0
  9  8  1  0
 10  9  2  0
 11 10  1  0
 11 12  2  0
 12  7  1  0
 13 20  1  0
 14 13  2  0
 16 17  1  0
 16 15  1  0
 18 17  1  0
 19 18  1  1
 20 19  1  0
 21 22  2  0
 21 19  1  0
 23 24  1  0
 25 24  1  1
 25 27  1  0
 25 26  1  0
 26 21  1  0
 27 29  1  0
 28 27  2  0
M  END
$$$$
