WMS.pdb
     RDKit          3D

 29 30  0  0  1  0  0  0  0  0999 V2000
   21.3303  -17.3498  -17.5697 N   0  0  0  0  0  0  0  0  0  0  0  0
   21.6877  -18.7168  -17.3241 C   0  0  1  0  0  0  0  0  0  0  0  0
   22.8091  -19.0782  -18.2993 C   0  0  0  0  0  0  0  0  0  0  0  0
   22.3784  -19.0894  -19.6948 C   0  0  0  0  0  0  0  0  0  0  0  0
   22.7631  -18.2564  -20.7199 C   0  0  0  0  0  0  0  0  0  0  0  0
   22.1331  -18.6075  -21.8430 N   0  0  0  0  0  0  0  0  0  0  0  0
   21.3203  -19.6704  -21.6052 C   0  0  0  0  0  0  0  0  0  0  0  0
   20.4621  -20.4128  -22.4046 C   0  0  0  0  0  0  0  0  0  0  0  0
   19.7740  -21.4550  -21.8093 C   0  0  0  0  0  0  0  0  0  0  0  0
   19.9031  -21.7820  -20.4759 C   0  0  0  0  0  0  0  0  0  0  0  0
   20.7632  -21.0252  -19.7100 C   0  0  0  0  0  0  0  0  0  0  0  0
   21.4788  -19.9683  -20.2542 C   0  0  0  0  0  0  0  0  0  0  0  0
   22.2619  -18.8967  -15.9663 C   0  0  0  0  0  0  0  0  0  0  0  0
   23.1585  -18.0910  -15.6234 O   0  0  0  0  0  0  0  0  0  0  0  0
   22.2515  -19.9652   -8.6714 C   0  0  0  0  0  0  0  0  0  0  0  0
   21.6398  -19.5268  -10.3086 S   0  0  0  0  0  0  0  0  0  0  0  0
   21.7690  -20.9407  -11.4235 C   0  0  0  0  0  0  0  0  0  0  0  0
   21.3430  -20.6542  -12.8088 C   0  0  0  0  0  0  0  0  0  0  0  0
   22.3618  -20.0588  -13.7356 C   0  0  2  0  0  0  0  0  0  0  0  0
   21.8474  -19.9204  -15.0594 N   0  0  0  0  0  0  0  0  0  0  0  0
   23.6493  -20.8000  -13.6996 C   0  0  0  0  0  0  0  0  0  0  0  0
   23.7452  -22.0166  -14.0095 O   0  0  0  0  0  0  0  0  0  0  0  0
   28.3626  -20.4522  -12.5861 O   0  0  0  0  0  0  0  0  0  0  0  0
   27.1579  -19.8151  -12.9200 C   0  0  0  0  0  0  0  0  0  0  0  0
   26.0690  -20.8655  -13.0045 C   0  0  2  0  0  0  0  0  0  0  0  0
   24.8325  -20.1412  -13.3059 N   0  0  0  0  0  0  0  0  0  0  0  0
   25.9690  -21.4821  -11.6433 C   0  0  0  0  0  0  0  0  0  0  0  0
   25.2760  -20.9968  -10.7358 O   0  0  0  0  0  0  0  0  0  0  0  0
   26.6948  -22.6439  -11.4231 O   0  0  0  0  0  0  0  0  0  0  0  0
  2  1  1  6
  2  3  1  0
  2 13  1  0
  3  4  1  0
  4 12  1  0
  4  5  2  0
  5  6  1  0
  7  8  2  0
  7  6  1  0
  9  8  1  0
 10  9  2  0
 11 10  1  0
 11 12  2  0
 12  7  1  0
 13 20  1  0
 14 13  2  0
 16 17  1  0
 16 15  1  0
 18 17  1  0
 19 18  1  1
 20 19  1  0
 21 22  2  0
 21 19  1  0
 23 24  1  0
 25 24  1  1
 25 27  1  0
 25 26  1  0
 26 21  1  0
 27 29  1  0
 28 27  2  0
M  END
$$$$
