WMS.pdb
     RDKit          3D

 29 30  0  0  1  0  0  0  0  0999 V2000
   28.3778  -21.5263  -16.4393 N   0  0  0  0  0  0  0  0  0  0  0  0
   27.7513  -20.5148  -15.6386 C   0  0  1  0  0  0  0  0  0  0  0  0
   26.8244  -19.7153  -16.5554 C   0  0  0  0  0  0  0  0  0  0  0  0
   27.4399  -18.4986  -17.0786 C   0  0  0  0  0  0  0  0  0  0  0  0
   28.0800  -18.3077  -18.2813 C   0  0  0  0  0  0  0  0  0  0  0  0
   28.4978  -17.0432  -18.3708 N   0  0  0  0  0  0  0  0  0  0  0  0
   28.1542  -16.3612  -17.2466 C   0  0  0  0  0  0  0  0  0  0  0  0
   28.3411  -15.0498  -16.8316 C   0  0  0  0  0  0  0  0  0  0  0  0
   27.8440  -14.6943  -15.5904 C   0  0  0  0  0  0  0  0  0  0  0  0
   27.1811  -15.5745  -14.7613 C   0  0  0  0  0  0  0  0  0  0  0  0
   27.0122  -16.8689  -15.2031 C   0  0  0  0  0  0  0  0  0  0  0  0
   27.4900  -17.2808  -16.4389 C   0  0  0  0  0  0  0  0  0  0  0  0
   26.8739  -21.1071  -14.5970 C   0  0  0  0  0  0  0  0  0  0  0  0
   26.2735  -22.1642  -14.9017 O   0  0  0  0  0  0  0  0  0  0  0  0
   24.6161  -21.2591   -6.9753 C   0  0  0  0  0  0  0  0  0  0  0  0
   25.7582  -20.6248   -8.2164 S   0  0  0  0  0  0  0  0  0  0  0  0
   25.1855  -21.0582   -9.8725 C   0  0  0  0  0  0  0  0  0  0  0  0
   26.1294  -20.6938  -10.9490 C   0  0  0  0  0  0  0  0  0  0  0  0
   25.7261  -21.0123  -12.3587 C   0  0  2  0  0  0  0  0  0  0  0  0
   26.6901  -20.5394  -13.2984 N   0  0  0  0  0  0  0  0  0  0  0  0
   24.3514  -20.5390  -12.6660 C   0  0  0  0  0  0  0  0  0  0  0  0
   24.0506  -19.3186  -12.7404 O   0  0  0  0  0  0  0  0  0  0  0  0
   21.7479  -23.4047  -13.4930 O   0  0  0  0  0  0  0  0  0  0  0  0
   21.3753  -22.1804  -14.0682 C   0  0  0  0  0  0  0  0  0  0  0  0
   21.9519  -21.0610  -13.2250 C   0  0  2  0  0  0  0  0  0  0  0  0
   23.3169  -21.4712  -12.8891 N   0  0  0  0  0  0  0  0  0  0  0  0
   21.1255  -21.0019  -11.9774 C   0  0  0  0  0  0  0  0  0  0  0  0
   21.5692  -21.3180  -10.8627 O   0  0  0  0  0  0  0  0  0  0  0  0
   19.8133  -20.5712  -12.1106 O   0  0  0  0  0  0  0  0  0  0  0  0
  2  1  1  6
  2  3  1  0
  2 13  1  0
  3  4  1  0
  4 12  1  0
  4  5  2  0
  5  6  1  0
  7  8  2  0
  7  6  1  0
  9  8  1  0
 10  9  2  0
 11 10  1  0
 11 12  2  0
 12  7  1  0
 13 20  1  0
 14 13  2  0
 16 17  1  0
 16 15  1  0
 18 17  1  0
 19 18  1  1
 20 19  1  0
 21 22  2  0
 21 19  1  0
 23 24  1  0
 25 24  1  6
 25 27  1  0
 25 26  1  0
 26 21  1  0
 27 29  1  0
 28 27  2  0
M  END
$$$$
