ATW.pdb
     RDKit          3D

 27 28  0  0  1  0  0  0  0  0999 V2000
    8.5036  -12.1562   19.4878 C   0  0  0  0  0  0  0  0  0  0  0  0
    8.4407  -13.5672   18.9770 C   0  0  2  0  0  0  0  0  0  0  0  0
    7.4703  -13.6272   17.9027 N   0  0  0  0  0  0  0  0  0  0  0  0
    8.0925  -14.5519   20.0368 C   0  0  0  0  0  0  0  0  0  0  0  0
    6.9369  -14.6329   20.5231 O   0  0  0  0  0  0  0  0  0  0  0  0
    8.1049  -17.8136   19.7720 C   0  0  0  0  0  0  0  0  0  0  0  0
    9.0335  -17.7519   20.9957 C   0  0  1  0  0  0  0  0  0  0  0  0
   10.3219  -17.9022   20.4661 O   0  0  0  0  0  0  0  0  0  0  0  0
    8.8402  -16.3965   21.5824 C   0  0  2  0  0  0  0  0  0  0  0  0
    9.0889  -15.4199   20.5101 N   0  0  0  0  0  0  0  0  0  0  0  0
    9.6800  -16.0949   22.7649 C   0  0  0  0  0  0  0  0  0  0  0  0
   10.7942  -15.5353   22.6156 O   0  0  0  0  0  0  0  0  0  0  0  0
    9.2908  -16.4093   24.0911 N   0  0  0  0  0  0  0  0  0  0  0  0
   10.1980  -16.2496   25.2526 C   0  0  1  0  0  0  0  0  0  0  0  0
    9.7209  -15.1436   26.1219 C   0  0  0  0  0  0  0  0  0  0  0  0
    8.3269  -14.7555   26.0613 C   0  0  0  0  0  0  0  0  0  0  0  0
    7.2653  -15.6291   25.9151 C   0  0  0  0  0  0  0  0  0  0  0  0
    6.1296  -14.9185   25.8680 N   0  0  0  0  0  0  0  0  0  0  0  0
    6.3851  -13.6027   25.9773 C   0  0  0  0  0  0  0  0  0  0  0  0
    5.6107  -12.4704   26.0032 C   0  0  0  0  0  0  0  0  0  0  0  0
    6.1267  -11.2018   26.1476 C   0  0  0  0  0  0  0  0  0  0  0  0
    7.4986  -11.0885   26.2709 C   0  0  0  0  0  0  0  0  0  0  0  0
    8.2748  -12.2146   26.2448 C   0  0  0  0  0  0  0  0  0  0  0  0
    7.7780  -13.4959   26.1003 C   0  0  0  0  0  0  0  0  0  0  0  0
   10.2599  -17.5564   25.8984 C   0  0  0  0  0  0  0  0  0  0  0  0
   11.1772  -17.8247   26.8904 O   0  0  0  0  0  0  0  0  0  0  0  0
    9.4739  -18.4683   25.5607 O   0  0  0  0  0  0  0  0  0  0  0  0
  2  1  1  1
  2  3  1  0
  4  2  1  0
  4  5  2  0
  7  6  1  6
  7  9  1  0
  8  7  1  0
  9 11  1  0
  9 10  1  6
 10  4  1  0
 11 13  1  0
 12 11  2  0
 13 14  1  0
 14 25  1  0
 14 15  1  1
 16 15  1  0
 16 17  2  0
 18 17  1  0
 19 18  1  0
 20 19  2  0
 21 20  1  0
 22 21  2  0
 22 23  1  0
 23 24  2  0
 24 19  1  0
 24 16  1  0
 25 27  2  0
 25 26  1  0
M  END
$$$$
