ATW.pdb
     RDKit          3D

 27 28  0  0  1  0  0  0  0  0999 V2000
    8.0016  -12.3489   19.2627 C   0  0  0  0  0  0  0  0  0  0  0  0
    8.6102  -13.5967   18.6895 C   0  0  2  0  0  0  0  0  0  0  0  0
    8.0690  -13.8075   17.3621 N   0  0  0  0  0  0  0  0  0  0  0  0
    8.3737  -14.7978   19.5353 C   0  0  0  0  0  0  0  0  0  0  0  0
    7.6368  -15.7450   19.1634 O   0  0  0  0  0  0  0  0  0  0  0  0
    8.7813  -17.0598   19.4024 C   0  0  0  0  0  0  0  0  0  0  0  0
    9.4925  -17.2052   20.7576 C   0  0  1  0  0  0  0  0  0  0  0  0
   10.8505  -17.0283   20.4617 O   0  0  0  0  0  0  0  0  0  0  0  0
    8.9716  -16.0994   21.6087 C   0  0  2  0  0  0  0  0  0  0  0  0
    8.9943  -14.8755   20.7920 N   0  0  0  0  0  0  0  0  0  0  0  0
    9.6976  -15.8875   22.8824 C   0  0  0  0  0  0  0  0  0  0  0  0
   10.6991  -15.1306   22.9143 O   0  0  0  0  0  0  0  0  0  0  0  0
    9.3197  -16.5054   24.1008 N   0  0  0  0  0  0  0  0  0  0  0  0
    9.9686  -16.1895   25.3957 C   0  0  1  0  0  0  0  0  0  0  0  0
    8.9564  -16.1822   26.4830 C   0  0  0  0  0  0  0  0  0  0  0  0
    7.7791  -15.3511   26.3395 C   0  0  0  0  0  0  0  0  0  0  0  0
    6.5318  -15.8018   25.9490 C   0  0  0  0  0  0  0  0  0  0  0  0
    5.6957  -14.7554   25.8961 N   0  0  0  0  0  0  0  0  0  0  0  0
    6.3306  -13.6196   26.2358 C   0  0  0  0  0  0  0  0  0  0  0  0
    5.9545  -12.3059   26.3582 C   0  0  0  0  0  0  0  0  0  0  0  0
    6.8138  -11.3044   26.7520 C   0  0  0  0  0  0  0  0  0  0  0  0
    8.1178  -11.6658   27.0332 C   0  0  0  0  0  0  0  0  0  0  0  0
    8.4977  -12.9743   26.9119 C   0  0  0  0  0  0  0  0  0  0  0  0
    7.6523  -13.9940   26.5180 C   0  0  0  0  0  0  0  0  0  0  0  0
   11.0395  -17.1667   25.5590 C   0  0  0  0  0  0  0  0  0  0  0  0
   12.0045  -17.0192   26.5309 O   0  0  0  0  0  0  0  0  0  0  0  0
   11.1037  -18.1676   24.8124 O   0  0  0  0  0  0  0  0  0  0  0  0
  2  1  1  1
  2  3  1  0
  4  2  1  0
  4  5  2  0
  7  6  1  6
  7  9  1  0
  8  7  1  0
  9 11  1  0
  9 10  1  6
 10  4  1  0
 11 13  1  0
 12 11  2  0
 13 14  1  0
 14 25  1  0
 14 15  1  1
 16 15  1  0
 16 17  2  0
 18 17  1  0
 19 18  1  0
 20 19  2  0
 21 20  1  0
 22 21  2  0
 22 23  1  0
 23 24  2  0
 24 19  1  0
 24 16  1  0
 25 27  2  0
 25 26  1  0
M  END
$$$$
