ATW.pdb
     RDKit          3D

 27 28  0  0  1  0  0  0  0  0999 V2000
    8.1816  -12.5005   19.1855 C   0  0  0  0  0  0  0  0  0  0  0  0
    8.6107  -13.7868   18.5396 C   0  0  2  0  0  0  0  0  0  0  0  0
    7.8821  -13.9460   17.2973 N   0  0  0  0  0  0  0  0  0  0  0  0
    8.3981  -14.9726   19.4130 C   0  0  0  0  0  0  0  0  0  0  0  0
    7.6301  -15.9133   19.0910 O   0  0  0  0  0  0  0  0  0  0  0  0
    9.0155  -17.1132   19.2418 C   0  0  0  0  0  0  0  0  0  0  0  0
    9.5275  -17.3825   20.6661 C   0  0  1  0  0  0  0  0  0  0  0  0
   10.9233  -17.3730   20.5446 O   0  0  0  0  0  0  0  0  0  0  0  0
    9.0447  -16.2411   21.4923 C   0  0  2  0  0  0  0  0  0  0  0  0
    9.0783  -15.0428   20.6389 N   0  0  0  0  0  0  0  0  0  0  0  0
    9.7972  -16.0069   22.7466 C   0  0  0  0  0  0  0  0  0  0  0  0
   10.7201  -15.1559   22.7739 O   0  0  0  0  0  0  0  0  0  0  0  0
    9.5310  -16.7056   23.9508 N   0  0  0  0  0  0  0  0  0  0  0  0
   10.1909  -16.3707   25.2354 C   0  0  1  0  0  0  0  0  0  0  0  0
    9.7996  -15.0041   25.6667 C   0  0  0  0  0  0  0  0  0  0  0  0
    8.4082  -14.7341   25.9638 C   0  0  0  0  0  0  0  0  0  0  0  0
    7.4018  -15.6819   25.9819 C   0  0  0  0  0  0  0  0  0  0  0  0
    6.2427  -15.0703   26.2637 N   0  0  0  0  0  0  0  0  0  0  0  0
    6.4296  -13.7498   26.4364 C   0  0  0  0  0  0  0  0  0  0  0  0
    5.6103  -12.6939   26.7465 C   0  0  0  0  0  0  0  0  0  0  0  0
    6.0612  -11.4005   26.8890 C   0  0  0  0  0  0  0  0  0  0  0  0
    7.4130  -11.1793   26.7054 C   0  0  0  0  0  0  0  0  0  0  0  0
    8.2336  -12.2288   26.3953 C   0  0  0  0  0  0  0  0  0  0  0  0
    7.8021  -13.5332   26.2471 C   0  0  0  0  0  0  0  0  0  0  0  0
    9.8291  -17.4359   26.1642 C   0  0  0  0  0  0  0  0  0  0  0  0
   10.3330  -17.4734   27.4457 O   0  0  0  0  0  0  0  0  0  0  0  0
    9.0468  -18.3455   25.8121 O   0  0  0  0  0  0  0  0  0  0  0  0
  2  1  1  1
  2  3  1  0
  4  2  1  0
  4  5  2  0
  7  6  1  6
  7  9  1  0
  8  7  1  0
  9 11  1  0
  9 10  1  6
 10  4  1  0
 11 13  1  0
 12 11  2  0
 13 14  1  0
 14 25  1  0
 14 15  1  1
 16 15  1  0
 16 17  2  0
 18 17  1  0
 19 18  1  0
 20 19  2  0
 21 20  1  0
 22 21  2  0
 22 23  1  0
 23 24  2  0
 24 19  1  0
 24 16  1  0
 25 27  2  0
 25 26  1  0
M  END
$$$$
