ATW.pdb
     RDKit          3D

 27 28  0  0  1  0  0  0  0  0999 V2000
    8.0165  -12.4570   19.2505 C   0  0  0  0  0  0  0  0  0  0  0  0
    8.4009  -13.7603   18.6106 C   0  0  2  0  0  0  0  0  0  0  0  0
    7.5407  -13.9850   17.4665 N   0  0  0  0  0  0  0  0  0  0  0  0
    8.3172  -14.9128   19.5480 C   0  0  0  0  0  0  0  0  0  0  0  0
    7.2187  -15.3941   19.9222 O   0  0  0  0  0  0  0  0  0  0  0  0
    9.7645  -17.9080   19.0181 C   0  0  0  0  0  0  0  0  0  0  0  0
   10.3212  -17.6841   20.4334 C   0  0  1  0  0  0  0  0  0  0  0  0
   11.6520  -17.2962   20.2295 O   0  0  0  0  0  0  0  0  0  0  0  0
    9.5137  -16.5759   21.0153 C   0  0  2  0  0  0  0  0  0  0  0  0
    9.5059  -15.4817   20.0315 N   0  0  0  0  0  0  0  0  0  0  0  0
    9.9741  -16.0848   22.3349 C   0  0  0  0  0  0  0  0  0  0  0  0
   10.6447  -15.0258   22.4100 O   0  0  0  0  0  0  0  0  0  0  0  0
    9.6958  -16.7574   23.5511 N   0  0  0  0  0  0  0  0  0  0  0  0
   10.1978  -16.2835   24.8631 C   0  0  1  0  0  0  0  0  0  0  0  0
    9.7527  -14.8868   25.1031 C   0  0  0  0  0  0  0  0  0  0  0  0
    8.3785  -14.6457   25.4914 C   0  0  0  0  0  0  0  0  0  0  0  0
    7.3480  -15.5599   25.3734 C   0  0  0  0  0  0  0  0  0  0  0  0
    6.2147  -14.9851   25.8000 N   0  0  0  0  0  0  0  0  0  0  0  0
    6.4420  -13.7216   26.2006 C   0  0  0  0  0  0  0  0  0  0  0  0
    5.6609  -12.7220   26.7232 C   0  0  0  0  0  0  0  0  0  0  0  0
    6.1503  -11.4853   27.0803 C   0  0  0  0  0  0  0  0  0  0  0  0
    7.5015  -11.2630   26.8933 C   0  0  0  0  0  0  0  0  0  0  0  0
    8.2841  -12.2563   26.3718 C   0  0  0  0  0  0  0  0  0  0  0  0
    7.8136  -13.5033   26.0064 C   0  0  0  0  0  0  0  0  0  0  0  0
    9.7330  -17.2549   25.8473 C   0  0  0  0  0  0  0  0  0  0  0  0
   10.1046  -17.1702   27.1711 O   0  0  0  0  0  0  0  0  0  0  0  0
    8.9807  -18.1933   25.5056 O   0  0  0  0  0  0  0  0  0  0  0  0
  2  1  1  1
  2  3  1  0
  4  2  1  0
  4  5  2  0
  7  6  1  6
  7  9  1  0
  8  7  1  0
  9 11  1  0
  9 10  1  6
 10  4  1  0
 11 13  1  0
 12 11  2  0
 13 14  1  0
 14 25  1  0
 14 15  1  1
 16 15  1  0
 16 17  2  0
 18 17  1  0
 19 18  1  0
 20 19  2  0
 21 20  1  0
 22 21  2  0
 22 23  1  0
 23 24  2  0
 24 19  1  0
 24 16  1  0
 25 27  2  0
 25 26  1  0
M  END
$$$$
