LPK.pdb
     RDKit          3D

 25 25  0  0  1  0  0  0  0  0999 V2000
   25.5613  -14.3133  -15.0491 C   0  0  0  0  0  0  0  0  0  0  0  0
   24.3307  -14.7728  -15.7512 C   0  0  2  0  0  0  0  0  0  0  0  0
   24.6497  -15.6962  -16.9207 C   0  0  0  0  0  0  0  0  0  0  0  0
   23.3898  -13.6986  -16.1022 C   0  0  0  0  0  0  0  0  0  0  0  0
   22.1497  -14.0148  -16.8532 C   0  0  2  0  0  0  0  0  0  0  0  0
   22.2882  -14.5917  -18.1484 N   0  0  0  0  0  0  0  0  0  0  0  0
   21.3067  -12.8046  -16.8278 C   0  0  0  0  0  0  0  0  0  0  0  0
   21.5639  -11.9406  -17.7211 O   0  0  0  0  0  0  0  0  0  0  0  0
   20.2453  -12.5096  -15.9182 N   0  0  0  0  0  0  0  0  0  0  0  0
   19.7462  -13.2911  -14.8263 C   0  0  0  0  0  0  0  0  0  0  0  0
   19.1294  -12.2454  -13.9096 C   0  0  0  0  0  0  0  0  0  0  0  0
   18.4709  -11.3021  -14.9328 C   0  0  0  0  0  0  0  0  0  0  0  0
   19.4942  -11.2867  -16.0134 C   0  0  1  0  0  0  0  0  0  0  0  0
   20.3820  -10.0866  -15.9235 C   0  0  0  0  0  0  0  0  0  0  0  0
   21.4482  -10.2030  -15.2758 O   0  0  0  0  0  0  0  0  0  0  0  0
   20.0669   -8.8552  -16.5299 N   0  0  0  0  0  0  0  0  0  0  0  0
   20.9323   -7.6697  -16.4889 C   0  0  1  0  0  0  0  0  0  0  0  0
   20.8673   -6.8975  -17.7530 C   0  0  0  0  0  0  0  0  0  0  0  0
   21.6892   -5.6770  -17.8624 C   0  0  0  0  0  0  0  0  0  0  0  0
   21.7073   -4.9343  -19.1361 C   0  0  0  0  0  0  0  0  0  0  0  0
   22.5251   -3.6917  -19.1879 C   0  0  0  0  0  0  0  0  0  0  0  0
   22.6779   -3.1792  -20.5437 N   0  0  0  0  0  0  0  0  0  0  0  0
   20.7285   -6.9506  -15.2353 C   0  0  0  0  0  0  0  0  0  0  0  0
   19.4898   -6.9027  -14.6490 O   0  0  0  0  0  0  0  0  0  0  0  0
   21.6800   -6.3355  -14.6319 O   0  0  0  0  0  0  0  0  0  0  0  0
  2  1  1  6
  3  2  1  0
  4  2  1  0
  5  4  1  0
  5  6  1  6
  7  5  1  0
  7  8  2  0
  9 10  1  0
  9  7  1  0
 11 10  1  0
 12 11  1  0
 12 13  1  0
 13  9  1  0
 14 15  2  0
 13 14  1  1
 16 14  1  0
 17 18  1  6
 17 16  1  0
 19 18  1  0
 19 20  1  0
 20 21  1  0
 21 22  1  0
 23 17  1  0
 24 23  1  0
 25 23  2  0
M  END
$$$$
