LPK.pdb
     RDKit          3D

 25 25  0  0  1  0  0  0  0  0999 V2000
   28.9759  -18.3449  -14.8127 C   0  0  0  0  0  0  0  0  0  0  0  0
   27.8883  -18.7922  -15.7267 C   0  0  2  0  0  0  0  0  0  0  0  0
   27.3281  -17.6429  -16.5558 C   0  0  0  0  0  0  0  0  0  0  0  0
   26.8445  -19.6040  -15.0836 C   0  0  0  0  0  0  0  0  0  0  0  0
   27.2009  -20.8861  -14.4271 C   0  0  2  0  0  0  0  0  0  0  0  0
   27.7627  -21.9129  -15.2393 N   0  0  0  0  0  0  0  0  0  0  0  0
   26.0232  -21.3184  -13.6512 C   0  0  0  0  0  0  0  0  0  0  0  0
   25.1091  -21.8917  -14.3193 O   0  0  0  0  0  0  0  0  0  0  0  0
   25.8090  -21.1641  -12.2472 N   0  0  0  0  0  0  0  0  0  0  0  0
   26.7334  -20.7605  -11.2301 C   0  0  0  0  0  0  0  0  0  0  0  0
   25.8274  -20.1856  -10.1516 C   0  0  0  0  0  0  0  0  0  0  0  0
   24.6514  -21.1785  -10.1888 C   0  0  0  0  0  0  0  0  0  0  0  0
   24.5263  -21.4251  -11.6512 C   0  0  1  0  0  0  0  0  0  0  0  0
   23.4516  -20.5877  -12.2680 C   0  0  0  0  0  0  0  0  0  0  0  0
   23.8085  -19.5990  -12.9499 O   0  0  0  0  0  0  0  0  0  0  0  0
   22.0802  -20.8671  -12.1117 N   0  0  0  0  0  0  0  0  0  0  0  0
   21.0899  -20.7699  -13.1915 C   0  0  1  0  0  0  0  0  0  0  0  0
   21.4538  -21.6211  -14.3496 C   0  0  0  0  0  0  0  0  0  0  0  0
   20.5116  -21.6885  -15.4832 C   0  0  0  0  0  0  0  0  0  0  0  0
   20.8479  -22.5270  -16.6485 C   0  0  0  0  0  0  0  0  0  0  0  0
   19.8549  -22.5830  -17.7560 C   0  0  0  0  0  0  0  0  0  0  0  0
   20.2165  -23.5526  -18.7823 N   0  0  0  0  0  0  0  0  0  0  0  0
   19.7438  -20.8989  -12.6422 C   0  0  0  0  0  0  0  0  0  0  0  0
   19.4919  -21.7534  -11.5997 O   0  0  0  0  0  0  0  0  0  0  0  0
   18.7463  -20.2340  -13.1013 O   0  0  0  0  0  0  0  0  0  0  0  0
  2  1  1  1
  3  2  1  0
  4  2  1  0
  5  4  1  0
  5  6  1  6
  7  5  1  0
  7  8  2  0
  9 10  1  0
  9  7  1  0
 11 10  1  0
 12 11  1  0
 12 13  1  0
 13  9  1  0
 14 15  2  0
 13 14  1  6
 16 14  1  0
 17 18  1  6
 17 16  1  0
 19 18  1  0
 19 20  1  0
 20 21  1  0
 21 22  1  0
 23 17  1  0
 24 23  1  0
 25 23  2  0
M  END
$$$$
