LPK.pdb
     RDKit          3D

 25 25  0  0  1  0  0  0  0  0999 V2000
   14.2383  -19.4314    1.0174 C   0  0  0  0  0  0  0  0  0  0  0  0
   15.0406  -20.1740    2.0289 C   0  0  2  0  0  0  0  0  0  0  0  0
   14.1709  -21.0645    2.9081 C   0  0  0  0  0  0  0  0  0  0  0  0
   15.9780  -19.3413    2.7971 C   0  0  0  0  0  0  0  0  0  0  0  0
   16.9940  -18.5229    2.0901 C   0  0  2  0  0  0  0  0  0  0  0  0
   17.9443  -19.2041    1.2763 N   0  0  0  0  0  0  0  0  0  0  0  0
   17.6018  -17.6262    3.0912 C   0  0  0  0  0  0  0  0  0  0  0  0
   18.4352  -18.1708    3.8783 O   0  0  0  0  0  0  0  0  0  0  0  0
   17.3564  -16.2292    3.2625 N   0  0  0  0  0  0  0  0  0  0  0  0
   16.5989  -15.3360    2.4376 C   0  0  0  0  0  0  0  0  0  0  0  0
   16.1821  -14.2420    3.4090 C   0  0  0  0  0  0  0  0  0  0  0  0
   17.4613  -14.0873    4.2516 C   0  0  0  0  0  0  0  0  0  0  0  0
   17.8961  -15.5046    4.3816 C   0  0  1  0  0  0  0  0  0  0  0  0
   17.4669  -16.1024    5.6836 C   0  0  0  0  0  0  0  0  0  0  0  0
   16.8818  -17.2097    5.6468 O   0  0  0  0  0  0  0  0  0  0  0  0
   17.6936  -15.4758    6.9242 N   0  0  0  0  0  0  0  0  0  0  0  0
   17.5022  -16.1284    8.2256 C   0  0  1  0  0  0  0  0  0  0  0  0
   18.1374  -17.4674    8.2680 C   0  0  0  0  0  0  0  0  0  0  0  0
   17.9990  -18.2611    9.5041 C   0  0  0  0  0  0  0  0  0  0  0  0
   18.6346  -19.5894    9.5804 C   0  0  0  0  0  0  0  0  0  0  0  0
   18.3728  -20.4002   10.8009 C   0  0  0  0  0  0  0  0  0  0  0  0
   19.0404  -21.6953   10.7656 N   0  0  0  0  0  0  0  0  0  0  0  0
   17.8090  -15.1898    9.3004 C   0  0  0  0  0  0  0  0  0  0  0  0
   17.1663  -15.2746   10.5087 O   0  0  0  0  0  0  0  0  0  0  0  0
   18.6771  -14.2532    9.1696 O   0  0  0  0  0  0  0  0  0  0  0  0
  2  1  1  1
  3  2  1  0
  4  2  1  0
  5  4  1  0
  5  6  1  1
  7  5  1  0
  7  8  2  0
  9 10  1  0
  9  7  1  0
 11 10  1  0
 12 11  1  0
 12 13  1  0
 13  9  1  0
 14 15  2  0
 13 14  1  1
 16 14  1  0
 17 18  1  6
 17 16  1  0
 19 18  1  0
 19 20  1  0
 20 21  1  0
 21 22  1  0
 23 17  1  0
 24 23  1  0
 25 23  2  0
M  END
$$$$
