LPK.pdb
     RDKit          3D

 25 25  0  0  1  0  0  0  0  0999 V2000
   20.8074  -19.6691  -11.5706 C   0  0  0  0  0  0  0  0  0  0  0  0
   21.2105  -19.2570  -12.9440 C   0  0  2  0  0  0  0  0  0  0  0  0
   20.1367  -18.4205  -13.6292 C   0  0  0  0  0  0  0  0  0  0  0  0
   21.7172  -20.3505  -13.7865 C   0  0  0  0  0  0  0  0  0  0  0  0
   22.2794  -20.0544  -15.1274 C   0  0  2  0  0  0  0  0  0  0  0  0
   21.4266  -19.4255  -16.0795 N   0  0  0  0  0  0  0  0  0  0  0  0
   22.9065  -21.2959  -15.6187 C   0  0  0  0  0  0  0  0  0  0  0  0
   22.1296  -22.0999  -16.2193 O   0  0  0  0  0  0  0  0  0  0  0  0
   24.2767  -21.6803  -15.4935 N   0  0  0  0  0  0  0  0  0  0  0  0
   25.3966  -20.9055  -15.0490 C   0  0  0  0  0  0  0  0  0  0  0  0
   26.3650  -21.9627  -14.5401 C   0  0  0  0  0  0  0  0  0  0  0  0
   26.1861  -23.0661  -15.5988 C   0  0  0  0  0  0  0  0  0  0  0  0
   24.7180  -23.0059  -15.8352 C   0  0  1  0  0  0  0  0  0  0  0  0
   23.9842  -24.0491  -15.0541 C   0  0  0  0  0  0  0  0  0  0  0  0
   23.7093  -23.7906  -13.8594 O   0  0  0  0  0  0  0  0  0  0  0  0
   23.5995  -25.2869  -15.6048 N   0  0  0  0  0  0  0  0  0  0  0  0
   22.7541  -26.2698  -14.9154 C   0  0  1  0  0  0  0  0  0  0  0  0
   21.6219  -25.6227  -14.2100 C   0  0  0  0  0  0  0  0  0  0  0  0
   20.5433  -25.0327  -15.0261 C   0  0  0  0  0  0  0  0  0  0  0  0
   19.4076  -24.3778  -14.3513 C   0  0  0  0  0  0  0  0  0  0  0  0
   18.3696  -23.7537  -15.2165 C   0  0  0  0  0  0  0  0  0  0  0  0
   17.3064  -23.1209  -14.4463 N   0  0  0  0  0  0  0  0  0  0  0  0
   22.4572  -27.3830  -15.8115 C   0  0  0  0  0  0  0  0  0  0  0  0
   22.0587  -28.5965  -15.3123 O   0  0  0  0  0  0  0  0  0  0  0  0
   22.5559  -27.2848  -17.0876 O   0  0  0  0  0  0  0  0  0  0  0  0
  2  1  1  1
  3  2  1  0
  4  2  1  0
  5  4  1  0
  5  6  1  6
  7  5  1  0
  7  8  2  0
  9 10  1  0
  9  7  1  0
 11 10  1  0
 12 11  1  0
 12 13  1  0
 13  9  1  0
 14 15  2  0
 13 14  1  1
 16 14  1  0
 17 18  1  6
 17 16  1  0
 19 18  1  0
 19 20  1  0
 20 21  1  0
 21 22  1  0
 23 17  1  0
 24 23  1  0
 25 23  2  0
M  END
$$$$
