LPK.pdb
     RDKit          3D

 25 25  0  0  1  0  0  0  0  0999 V2000
   16.1993  -11.4447  -17.7926 C   0  0  0  0  0  0  0  0  0  0  0  0
   17.6091  -11.8959  -17.9578 C   0  0  2  0  0  0  0  0  0  0  0  0
   17.7112  -13.4076  -18.1203 C   0  0  0  0  0  0  0  0  0  0  0  0
   18.5446  -11.3569  -16.9594 C   0  0  0  0  0  0  0  0  0  0  0  0
   19.9697  -11.7698  -16.9793 C   0  0  2  0  0  0  0  0  0  0  0  0
   20.3154  -12.9896  -16.3296 N   0  0  0  0  0  0  0  0  0  0  0  0
   20.7635  -10.6104  -16.5301 C   0  0  0  0  0  0  0  0  0  0  0  0
   20.9162  -10.5061  -15.2746 O   0  0  0  0  0  0  0  0  0  0  0  0
   21.3716   -9.6099  -17.3487 N   0  0  0  0  0  0  0  0  0  0  0  0
   21.3866   -9.4956  -18.7766 C   0  0  0  0  0  0  0  0  0  0  0  0
   21.5880   -8.0042  -18.9993 C   0  0  0  0  0  0  0  0  0  0  0  0
   22.6062   -7.6718  -17.8934 C   0  0  0  0  0  0  0  0  0  0  0  0
   22.1032   -8.5132  -16.7737 C   0  0  1  0  0  0  0  0  0  0  0  0
   21.2593   -7.7274  -15.8212 C   0  0  0  0  0  0  0  0  0  0  0  0
   20.0542   -8.0523  -15.7126 O   0  0  0  0  0  0  0  0  0  0  0  0
   21.7631   -6.6567  -15.0577 N   0  0  0  0  0  0  0  0  0  0  0  0
   21.0735   -6.0716  -13.9008 C   0  0  1  0  0  0  0  0  0  0  0  0
   20.6888   -7.1050  -12.9096 C   0  0  0  0  0  0  0  0  0  0  0  0
   20.1236   -6.6547  -11.6232 C   0  0  0  0  0  0  0  0  0  0  0  0
   18.7705   -7.0965  -11.2385 C   0  0  0  0  0  0  0  0  0  0  0  0
   18.2707   -6.6738   -9.9016 C   0  0  0  0  0  0  0  0  0  0  0  0
   16.8453   -6.9260   -9.7324 N   0  0  0  0  0  0  0  0  0  0  0  0
   21.8087   -4.9045  -13.4240 C   0  0  0  0  0  0  0  0  0  0  0  0
   21.1572   -3.7277  -13.1571 O   0  0  0  0  0  0  0  0  0  0  0  0
   23.0787   -4.9196  -13.2376 O   0  0  0  0  0  0  0  0  0  0  0  0
  2  1  1  1
  3  2  1  0
  4  2  1  0
  5  4  1  0
  5  6  1  1
  7  5  1  0
  7  8  2  0
  9 10  1  0
  9  7  1  0
 11 10  1  0
 12 11  1  0
 12 13  1  0
 13  9  1  0
 14 15  2  0
 13 14  1  1
 16 14  1  0
 17 18  1  1
 17 16  1  0
 19 18  1  0
 19 20  1  0
 20 21  1  0
 21 22  1  0
 23 17  1  0
 24 23  1  0
 25 23  2  0
M  END
$$$$
