LPK.pdb
     RDKit          3D

 25 25  0  0  1  0  0  0  0  0999 V2000
   20.7864  -13.4440  -20.1812 C   0  0  0  0  0  0  0  0  0  0  0  0
   21.9597  -12.5565  -19.9484 C   0  0  2  0  0  0  0  0  0  0  0  0
   23.2794  -13.2703  -20.2149 C   0  0  0  0  0  0  0  0  0  0  0  0
   21.9388  -11.8394  -18.6648 C   0  0  0  0  0  0  0  0  0  0  0  0
   22.1020  -12.5879  -17.3941 C   0  0  2  0  0  0  0  0  0  0  0  0
   21.0572  -13.4768  -17.0097 N   0  0  0  0  0  0  0  0  0  0  0  0
   22.4597  -11.6047  -16.3543 C   0  0  0  0  0  0  0  0  0  0  0  0
   21.4823  -11.0086  -15.8065 O   0  0  0  0  0  0  0  0  0  0  0  0
   23.7713  -11.2610  -15.9043 N   0  0  0  0  0  0  0  0  0  0  0  0
   25.0331  -11.8269  -16.2780 C   0  0  0  0  0  0  0  0  0  0  0  0
   26.0119  -10.6956  -16.0017 C   0  0  0  0  0  0  0  0  0  0  0  0
   25.4473  -10.1263  -14.6874 C   0  0  0  0  0  0  0  0  0  0  0  0
   23.9830  -10.2176  -14.9372 C   0  0  1  0  0  0  0  0  0  0  0  0
   23.4139   -8.9143  -15.3997 C   0  0  0  0  0  0  0  0  0  0  0  0
   23.3183   -8.7307  -16.6354 O   0  0  0  0  0  0  0  0  0  0  0  0
   22.9902   -7.9069  -14.5115 N   0  0  0  0  0  0  0  0  0  0  0  0
   22.3409   -6.6578  -14.9293 C   0  0  1  0  0  0  0  0  0  0  0  0
   20.9293   -6.8778  -15.3260 C   0  0  0  0  0  0  0  0  0  0  0  0
   20.1140   -5.6969  -15.6692 C   0  0  0  0  0  0  0  0  0  0  0  0
   18.7188   -5.8889  -16.1059 C   0  0  0  0  0  0  0  0  0  0  0  0
   17.9269   -4.6663  -16.4118 C   0  0  0  0  0  0  0  0  0  0  0  0
   16.5248   -4.9608  -16.6793 N   0  0  0  0  0  0  0  0  0  0  0  0
   22.6243   -5.6039  -13.9602 C   0  0  0  0  0  0  0  0  0  0  0  0
   22.9168   -5.9120  -12.6563 O   0  0  0  0  0  0  0  0  0  0  0  0
   22.6106   -4.3590  -14.2731 O   0  0  0  0  0  0  0  0  0  0  0  0
  2  1  1  1
  3  2  1  0
  4  2  1  0
  5  4  1  0
  5  6  1  1
  7  5  1  0
  7  8  2  0
  9 10  1  0
  9  7  1  0
 11 10  1  0
 12 11  1  0
 12 13  1  0
 13  9  1  0
 14 15  2  0
 13 14  1  6
 16 14  1  0
 17 18  1  1
 17 16  1  0
 19 18  1  0
 19 20  1  0
 20 21  1  0
 21 22  1  0
 23 17  1  0
 24 23  1  0
 25 23  2  0
M  END
$$$$
