FNR.pdb
     RDKit          3D

 31 31  0  0  1  0  0  0  0  0999 V2000
   15.2758   -7.1825   -7.8705 N   0  0  0  0  0  0  0  0  0  0  0  0
   14.5098   -8.0060   -8.8188 C   0  0  1  0  0  0  0  0  0  0  0  0
   13.3397   -7.1817   -9.2442 C   0  0  0  0  0  0  0  0  0  0  0  0
   12.3025   -6.9964   -8.2161 C   0  0  0  0  0  0  0  0  0  0  0  0
   12.0411   -5.7279   -7.7359 C   0  0  0  0  0  0  0  0  0  0  0  0
   11.0596   -5.6018   -6.7758 C   0  0  0  0  0  0  0  0  0  0  0  0
   10.3726   -6.7103   -6.3215 C   0  0  0  0  0  0  0  0  0  0  0  0
   10.6301   -7.9766   -6.7975 C   0  0  0  0  0  0  0  0  0  0  0  0
   11.6125   -8.1006   -7.7582 C   0  0  0  0  0  0  0  0  0  0  0  0
   15.3842   -8.4457   -9.9336 C   0  0  0  0  0  0  0  0  0  0  0  0
   16.4416   -7.7727  -10.1340 O   0  0  0  0  0  0  0  0  0  0  0  0
   17.4551  -11.5728   -9.6951 N   0  0  0  0  0  0  0  0  0  0  0  0
   16.6902  -12.2540  -10.6677 C   0  0  0  0  0  0  0  0  0  0  0  0
   16.6770  -13.5233  -10.5697 O   0  0  0  0  0  0  0  0  0  0  0  0
   15.9424  -11.5958  -11.7392 C   0  0  0  0  0  0  0  0  0  0  0  0
   15.8969  -10.1082  -11.6738 C   0  0  2  0  0  0  0  0  0  0  0  0
   15.0165   -9.5578  -10.7005 N   0  0  0  0  0  0  0  0  0  0  0  0
   15.6609   -9.5750  -13.0417 C   0  0  0  0  0  0  0  0  0  0  0  0
   14.4789   -9.7096  -13.4903 O   0  0  0  0  0  0  0  0  0  0  0  0
   20.3794   -4.2571  -18.6635 N   0  0  0  0  0  0  0  0  0  0  0  0
   19.1711   -4.6877  -19.3235 C   0  0  0  0  0  0  0  0  0  0  0  0
   18.8670   -4.2199  -20.5049 N   0  0  0  0  0  0  0  0  0  0  0  0
   18.2893   -5.6165  -18.7232 N   0  0  0  0  0  0  0  0  0  0  0  0
   18.5338   -6.1789  -17.4170 C   0  0  0  0  0  0  0  0  0  0  0  0
   17.3442   -7.0558  -16.9815 C   0  0  0  0  0  0  0  0  0  0  0  0
   17.5378   -7.5748  -15.6011 C   0  0  0  0  0  0  0  0  0  0  0  0
   16.3747   -8.4198  -15.1399 C   0  0  2  0  0  0  0  0  0  0  0  0
   16.6594   -8.9601  -13.8084 N   0  0  0  0  0  0  0  0  0  0  0  0
   15.9944   -9.4917  -16.0700 C   0  0  0  0  0  0  0  0  0  0  0  0
   16.6225  -10.7570  -16.0406 O   0  0  0  0  0  0  0  0  0  0  0  0
   15.1063   -9.3817  -16.9451 O   0  0  0  0  0  0  0  0  0  0  0  0
  2  1  1  1
  3  2  1  0
  4  3  1  0
  4  5  2  0
  6  5  1  0
  7  6  2  0
  8  9  2  0
  8  7  1  0
  9  4  1  0
 10  2  1  0
 11 10  2  0
 13 12  1  0
 14 13  2  0
 15 13  1  0
 16 17  1  0
 16 15  1  6
 17 10  1  0
 18 16  1  0
 19 18  2  0
 20 21  1  0
 21 22  2  0
 21 23  1  0
 23 24  1  0
 25 26  1  0
 25 24  1  0
 27 26  1  6
 27 28  1  0
 28 18  1  0
 29 30  1  0
 29 27  1  0
 31 29  2  0
M  END
$$$$
