FNR.pdb
     RDKit          3D

 31 31  0  0  1  0  0  0  0  0999 V2000
   27.1181  -18.5149  -10.4084 N   0  0  0  0  0  0  0  0  0  0  0  0
   27.5579  -19.8615  -10.8049 C   0  0  1  0  0  0  0  0  0  0  0  0
   26.9984  -20.8040   -9.7908 C   0  0  0  0  0  0  0  0  0  0  0  0
   27.4354  -20.5596   -8.4065 C   0  0  0  0  0  0  0  0  0  0  0  0
   26.5670  -19.9581   -7.5163 C   0  0  0  0  0  0  0  0  0  0  0  0
   27.0182  -19.7515   -6.2299 C   0  0  0  0  0  0  0  0  0  0  0  0
   28.2920  -20.1365   -5.8602 C   0  0  0  0  0  0  0  0  0  0  0  0
   29.1607  -20.7363   -6.7445 C   0  0  0  0  0  0  0  0  0  0  0  0
   28.7073  -20.9422   -8.0312 C   0  0  0  0  0  0  0  0  0  0  0  0
   27.1372  -20.1449  -12.1990 C   0  0  0  0  0  0  0  0  0  0  0  0
   26.0604  -19.6025  -12.5955 O   0  0  0  0  0  0  0  0  0  0  0  0
   28.6866  -23.1682  -17.3353 N   0  0  0  0  0  0  0  0  0  0  0  0
   28.4074  -21.9885  -16.6104 C   0  0  0  0  0  0  0  0  0  0  0  0
   27.8556  -21.0514  -17.2725 O   0  0  0  0  0  0  0  0  0  0  0  0
   28.7103  -21.8006  -15.1915 C   0  0  0  0  0  0  0  0  0  0  0  0
   27.6299  -21.1743  -14.3791 C   0  0  2  0  0  0  0  0  0  0  0  0
   27.9259  -20.9787  -13.0008 N   0  0  0  0  0  0  0  0  0  0  0  0
   26.3653  -21.9235  -14.6036 C   0  0  0  0  0  0  0  0  0  0  0  0
   26.1841  -22.9368  -13.8573 O   0  0  0  0  0  0  0  0  0  0  0  0
   19.9497  -20.2934  -10.2623 N   0  0  0  0  0  0  0  0  0  0  0  0
   19.4055  -21.2072  -11.2368 C   0  0  0  0  0  0  0  0  0  0  0  0
   18.2003  -21.6879  -11.0835 N   0  0  0  0  0  0  0  0  0  0  0  0
   20.1467  -21.6068  -12.3733 N   0  0  0  0  0  0  0  0  0  0  0  0
   21.5270  -21.2319  -12.5647 C   0  0  0  0  0  0  0  0  0  0  0  0
   22.0404  -21.7567  -13.9192 C   0  0  0  0  0  0  0  0  0  0  0  0
   23.4796  -21.4324  -14.1091 C   0  0  0  0  0  0  0  0  0  0  0  0
   24.0077  -21.9301  -15.4330 C   0  0  2  0  0  0  0  0  0  0  0  0
   25.4180  -21.5581  -15.5690 N   0  0  0  0  0  0  0  0  0  0  0  0
   23.2343  -21.4884  -16.6017 C   0  0  0  0  0  0  0  0  0  0  0  0
   22.0616  -22.1607  -17.0127 O   0  0  0  0  0  0  0  0  0  0  0  0
   23.5375  -20.5060  -17.3157 O   0  0  0  0  0  0  0  0  0  0  0  0
  2  1  1  1
  3  2  1  0
  4  3  1  0
  4  5  2  0
  6  5  1  0
  7  6  2  0
  8  9  2  0
  8  7  1  0
  9  4  1  0
 10  2  1  0
 11 10  2  0
 13 12  1  0
 14 13  2  0
 15 13  1  0
 16 17  1  0
 16 15  1  1
 17 10  1  0
 18 16  1  0
 19 18  2  0
 20 21  1  0
 21 22  2  0
 21 23  1  0
 23 24  1  0
 25 26  1  0
 25 24  1  0
 27 26  1  1
 27 28  1  0
 28 18  1  0
 29 30  1  0
 29 27  1  0
 31 29  2  0
M  END
$$$$
