FNR.pdb
     RDKit          3D

 31 31  0  0  1  0  0  0  0  0999 V2000
   24.6363  -21.0457   -8.5266 N   0  0  0  0  0  0  0  0  0  0  0  0
   25.1456  -20.2960   -9.6854 C   0  0  1  0  0  0  0  0  0  0  0  0
   26.6236  -20.5074   -9.7084 C   0  0  0  0  0  0  0  0  0  0  0  0
   27.3395  -20.0265   -8.5154 C   0  0  0  0  0  0  0  0  0  0  0  0
   27.1128  -18.7427   -8.0587 C   0  0  0  0  0  0  0  0  0  0  0  0
   27.8034  -18.3364   -6.9366 C   0  0  0  0  0  0  0  0  0  0  0  0
   28.6846  -19.1913   -6.3042 C   0  0  0  0  0  0  0  0  0  0  0  0
   28.9135  -20.4718   -6.7563 C   0  0  0  0  0  0  0  0  0  0  0  0
   28.2214  -20.8765   -7.8791 C   0  0  0  0  0  0  0  0  0  0  0  0
   24.4476  -20.7307  -10.9201 C   0  0  0  0  0  0  0  0  0  0  0  0
   23.7075  -21.7579  -10.8302 O   0  0  0  0  0  0  0  0  0  0  0  0
   21.4443  -18.9525  -14.8425 N   0  0  0  0  0  0  0  0  0  0  0  0
   22.5873  -18.1393  -14.6774 C   0  0  0  0  0  0  0  0  0  0  0  0
   22.6171  -17.0795  -15.3824 O   0  0  0  0  0  0  0  0  0  0  0  0
   23.6938  -18.4452  -13.7705 C   0  0  0  0  0  0  0  0  0  0  0  0
   23.5284  -19.6727  -12.9426 C   0  0  2  0  0  0  0  0  0  0  0  0
   24.6292  -20.0078  -12.1052 N   0  0  0  0  0  0  0  0  0  0  0  0
   23.1041  -20.7923  -13.8244 C   0  0  0  0  0  0  0  0  0  0  0  0
   22.9345  -20.4965  -15.0493 O   0  0  0  0  0  0  0  0  0  0  0  0
   17.7963  -26.6411  -10.6450 N   0  0  0  0  0  0  0  0  0  0  0  0
   18.1246  -26.8992  -12.0258 C   0  0  0  0  0  0  0  0  0  0  0  0
   17.3499  -27.6598  -12.7527 N   0  0  0  0  0  0  0  0  0  0  0  0
   19.2779  -26.3460  -12.6294 N   0  0  0  0  0  0  0  0  0  0  0  0
   20.2585  -25.5994  -11.8789 C   0  0  0  0  0  0  0  0  0  0  0  0
   20.0002  -24.0870  -12.0183 C   0  0  0  0  0  0  0  0  0  0  0  0
   21.2769  -23.3237  -12.0276 C   0  0  0  0  0  0  0  0  0  0  0  0
   21.5667  -22.7113  -13.3768 C   0  0  2  0  0  0  0  0  0  0  0  0
   22.8970  -22.0980  -13.3607 N   0  0  0  0  0  0  0  0  0  0  0  0
   20.5537  -21.7534  -13.8408 C   0  0  0  0  0  0  0  0  0  0  0  0
   20.0588  -21.7795  -15.1639 O   0  0  0  0  0  0  0  0  0  0  0  0
   20.0544  -20.8557  -13.1256 O   0  0  0  0  0  0  0  0  0  0  0  0
  2  1  1  1
  3  2  1  0
  4  3  1  0
  4  5  2  0
  6  5  1  0
  7  6  2  0
  8  9  2  0
  8  7  1  0
  9  4  1  0
 10  2  1  0
 11 10  2  0
 13 12  1  0
 14 13  2  0
 15 13  1  0
 16 17  1  0
 16 15  1  6
 17 10  1  0
 18 16  1  0
 19 18  2  0
 20 21  1  0
 21 22  2  0
 21 23  1  0
 23 24  1  0
 25 26  1  0
 25 24  1  0
 27 26  1  1
 27 28  1  0
 28 18  1  0
 29 30  1  0
 29 27  1  0
 31 29  2  0
M  END
$$$$
