FNR.pdb
     RDKit          3D

 31 31  0  0  1  0  0  0  0  0999 V2000
   27.4551  -21.9280   -9.1790 N   0  0  0  0  0  0  0  0  0  0  0  0
   26.4618  -20.8933   -8.8518 C   0  0  1  0  0  0  0  0  0  0  0  0
   27.2308  -19.6463   -8.5632 C   0  0  0  0  0  0  0  0  0  0  0  0
   27.8696  -19.6019   -7.2377 C   0  0  0  0  0  0  0  0  0  0  0  0
   29.1248  -20.1537   -7.0698 C   0  0  0  0  0  0  0  0  0  0  0  0
   29.6852  -20.0867   -5.8119 C   0  0  0  0  0  0  0  0  0  0  0  0
   29.0056  -19.4878   -4.7694 C   0  0  0  0  0  0  0  0  0  0  0  0
   27.7542  -18.9365   -4.9325 C   0  0  0  0  0  0  0  0  0  0  0  0
   27.1953  -19.0045   -6.1920 C   0  0  0  0  0  0  0  0  0  0  0  0
   25.4795  -20.7629   -9.9558 C   0  0  0  0  0  0  0  0  0  0  0  0
   25.8767  -21.0813  -11.1185 O   0  0  0  0  0  0  0  0  0  0  0  0
   21.9414  -23.0866   -8.5374 N   0  0  0  0  0  0  0  0  0  0  0  0
   21.6893  -21.6981   -8.4772 C   0  0  0  0  0  0  0  0  0  0  0  0
   21.3765  -21.2432   -7.3299 O   0  0  0  0  0  0  0  0  0  0  0  0
   21.7680  -20.7945   -9.6251 C   0  0  0  0  0  0  0  0  0  0  0  0
   23.0553  -20.8149  -10.3746 C   0  0  2  0  0  0  0  0  0  0  0  0
   24.1861  -20.3051   -9.6770 N   0  0  0  0  0  0  0  0  0  0  0  0
   22.8490  -20.1725  -11.6997 C   0  0  0  0  0  0  0  0  0  0  0  0
   22.5042  -18.9490  -11.6723 O   0  0  0  0  0  0  0  0  0  0  0  0
   23.1879  -16.7065  -17.7884 N   0  0  0  0  0  0  0  0  0  0  0  0
   24.3710  -17.3966  -18.2412 C   0  0  0  0  0  0  0  0  0  0  0  0
   25.4195  -16.7178  -18.6246 N   0  0  0  0  0  0  0  0  0  0  0  0
   24.4345  -18.8089  -18.2844 N   0  0  0  0  0  0  0  0  0  0  0  0
   23.6165  -19.6439  -17.4383 C   0  0  0  0  0  0  0  0  0  0  0  0
   24.3611  -19.9712  -16.1299 C   0  0  0  0  0  0  0  0  0  0  0  0
   23.5693  -20.9008  -15.2805 C   0  0  0  0  0  0  0  0  0  0  0  0
   22.8054  -20.1759  -14.1986 C   0  0  2  0  0  0  0  0  0  0  0  0
   23.0165  -20.8493  -12.9149 N   0  0  0  0  0  0  0  0  0  0  0  0
   21.3717  -20.0089  -14.4732 C   0  0  0  0  0  0  0  0  0  0  0  0
   20.8599  -18.8256  -15.0513 O   0  0  0  0  0  0  0  0  0  0  0  0
   20.5024  -20.8749  -14.2262 O   0  0  0  0  0  0  0  0  0  0  0  0
  2  1  1  6
  3  2  1  0
  4  3  1  0
  4  5  2  0
  6  5  1  0
  7  6  2  0
  8  9  2  0
  8  7  1  0
  9  4  1  0
 10  2  1  0
 11 10  2  0
 13 12  1  0
 14 13  2  0
 15 13  1  0
 16 17  1  0
 16 15  1  1
 17 10  1  0
 18 16  1  0
 19 18  2  0
 20 21  1  0
 21 22  2  0
 21 23  1  0
 23 24  1  0
 25 26  1  0
 25 24  1  0
 27 26  1  6
 27 28  1  0
 28 18  1  0
 29 30  1  0
 29 27  1  0
 31 29  2  0
M  END
$$$$
