FNR.pdb
     RDKit          3D

 31 31  0  0  1  0  0  0  0  0999 V2000
   23.9350  -13.3112  -16.5439 N   0  0  0  0  0  0  0  0  0  0  0  0
   24.0709  -14.7755  -16.5055 C   0  0  1  0  0  0  0  0  0  0  0  0
   25.1041  -15.0765  -15.4703 C   0  0  0  0  0  0  0  0  0  0  0  0
   26.4705  -14.6485  -15.8121 C   0  0  0  0  0  0  0  0  0  0  0  0
   27.0438  -13.5952  -15.1265 C   0  0  0  0  0  0  0  0  0  0  0  0
   28.3261  -13.2308  -15.4786 C   0  0  0  0  0  0  0  0  0  0  0  0
   28.9990  -13.9026  -16.4803 C   0  0  0  0  0  0  0  0  0  0  0  0
   28.4311  -14.9531  -17.1662 C   0  0  0  0  0  0  0  0  0  0  0  0
   27.1479  -15.3161  -16.8123 C   0  0  0  0  0  0  0  0  0  0  0  0
   22.7510  -15.4031  -16.2510 C   0  0  0  0  0  0  0  0  0  0  0  0
   22.0730  -14.9417  -15.2823 O   0  0  0  0  0  0  0  0  0  0  0  0
   18.1352  -15.8356  -18.6245 N   0  0  0  0  0  0  0  0  0  0  0  0
   19.5177  -15.9812  -18.3748 C   0  0  0  0  0  0  0  0  0  0  0  0
   20.2197  -14.9298  -18.5262 O   0  0  0  0  0  0  0  0  0  0  0  0
   20.1553  -17.2332  -17.9666 C   0  0  0  0  0  0  0  0  0  0  0  0
   21.0939  -17.1328  -16.8141 C   0  0  2  0  0  0  0  0  0  0  0  0
   22.3177  -16.4529  -17.0696 N   0  0  0  0  0  0  0  0  0  0  0  0
   21.2895  -18.4884  -16.2352 C   0  0  0  0  0  0  0  0  0  0  0  0
   21.8670  -19.3329  -16.9902 O   0  0  0  0  0  0  0  0  0  0  0  0
   25.1743  -23.5205  -12.9137 N   0  0  0  0  0  0  0  0  0  0  0  0
   25.7252  -22.1876  -12.9432 C   0  0  0  0  0  0  0  0  0  0  0  0
   26.8957  -21.9739  -13.4830 N   0  0  0  0  0  0  0  0  0  0  0  0
   25.0274  -21.0849  -12.3976 N   0  0  0  0  0  0  0  0  0  0  0  0
   23.7509  -21.2286  -11.7403 C   0  0  0  0  0  0  0  0  0  0  0  0
   22.6260  -21.3726  -12.7832 C   0  0  0  0  0  0  0  0  0  0  0  0
   22.2311  -20.0478  -13.3320 C   0  0  0  0  0  0  0  0  0  0  0  0
   21.1551  -20.1631  -14.3849 C   0  0  2  0  0  0  0  0  0  0  0  0
   20.8732  -18.8389  -14.9442 N   0  0  0  0  0  0  0  0  0  0  0  0
   19.9195  -20.8112  -13.9243 C   0  0  0  0  0  0  0  0  0  0  0  0
   18.7063  -20.0968  -13.8068 O   0  0  0  0  0  0  0  0  0  0  0  0
   19.8353  -22.0184  -13.6045 O   0  0  0  0  0  0  0  0  0  0  0  0
  2  1  1  1
  3  2  1  0
  4  3  1  0
  4  5  2  0
  6  5  1  0
  7  6  2  0
  8  9  2  0
  8  7  1  0
  9  4  1  0
 10  2  1  0
 11 10  2  0
 13 12  1  0
 14 13  2  0
 15 13  1  0
 16 17  1  0
 16 15  1  6
 17 10  1  0
 18 16  1  0
 19 18  2  0
 20 21  1  0
 21 22  2  0
 21 23  1  0
 23 24  1  0
 25 26  1  0
 25 24  1  0
 27 26  1  1
 27 28  1  0
 28 18  1  0
 29 30  1  0
 29 27  1  0
 31 29  2  0
M  END
$$$$
