FNR.pdb
     RDKit          3D

 31 31  0  0  1  0  0  0  0  0999 V2000
   17.7272  -25.7134   -8.5573 N   0  0  0  0  0  0  0  0  0  0  0  0
   17.2962  -24.4249   -9.1213 C   0  0  1  0  0  0  0  0  0  0  0  0
   17.5076  -23.4042   -8.0521 C   0  0  0  0  0  0  0  0  0  0  0  0
   16.3968  -23.2654   -7.0961 C   0  0  0  0  0  0  0  0  0  0  0  0
   16.4664  -23.9093   -5.8759 C   0  0  0  0  0  0  0  0  0  0  0  0
   15.4045  -23.7487   -5.0114 C   0  0  0  0  0  0  0  0  0  0  0  0
   14.3197  -22.9707   -5.3655 C   0  0  0  0  0  0  0  0  0  0  0  0
   14.2464  -22.3272   -6.5808 C   0  0  0  0  0  0  0  0  0  0  0  0
   15.3101  -22.4892   -7.4445 C   0  0  0  0  0  0  0  0  0  0  0  0
   18.0293  -24.1496  -10.3813 C   0  0  0  0  0  0  0  0  0  0  0  0
   19.1605  -24.7079  -10.5213 O   0  0  0  0  0  0  0  0  0  0  0  0
   17.6599  -21.6957  -15.8943 N   0  0  0  0  0  0  0  0  0  0  0  0
   17.8779  -22.8178  -15.0647 C   0  0  0  0  0  0  0  0  0  0  0  0
   18.7186  -23.6699  -15.4985 O   0  0  0  0  0  0  0  0  0  0  0  0
   17.2100  -23.0379  -13.7818 C   0  0  0  0  0  0  0  0  0  0  0  0
   18.0999  -23.0616  -12.5873 C   0  0  2  0  0  0  0  0  0  0  0  0
   17.4574  -23.3060  -11.3412 N   0  0  0  0  0  0  0  0  0  0  0  0
   18.9305  -21.8282  -12.5834 C   0  0  0  0  0  0  0  0  0  0  0  0
   18.4001  -20.8073  -12.0421 O   0  0  0  0  0  0  0  0  0  0  0  0
   25.8286  -24.1328  -14.6239 N   0  0  0  0  0  0  0  0  0  0  0  0
   25.5532  -23.2672  -15.7446 C   0  0  0  0  0  0  0  0  0  0  0  0
   25.7764  -23.6816  -16.9634 N   0  0  0  0  0  0  0  0  0  0  0  0
   25.0402  -21.9615  -15.5641 N   0  0  0  0  0  0  0  0  0  0  0  0
   24.5284  -21.5025  -14.2954 C   0  0  0  0  0  0  0  0  0  0  0  0
   23.0217  -21.2000  -14.4049 C   0  0  0  0  0  0  0  0  0  0  0  0
   22.4539  -20.8199  -13.0837 C   0  0  0  0  0  0  0  0  0  0  0  0
   20.9771  -20.5159  -13.1624 C   0  0  2  0  0  0  0  0  0  0  0  0
   20.2171  -21.7678  -13.1345 N   0  0  0  0  0  0  0  0  0  0  0  0
   20.5859  -19.6910  -14.3138 C   0  0  0  0  0  0  0  0  0  0  0  0
   20.6148  -18.2795  -14.2593 O   0  0  0  0  0  0  0  0  0  0  0  0
   20.2036  -20.1527  -15.4125 O   0  0  0  0  0  0  0  0  0  0  0  0
  2  1  1  1
  3  2  1  0
  4  3  1  0
  4  5  2  0
  6  5  1  0
  7  6  2  0
  8  9  2  0
  8  7  1  0
  9  4  1  0
 10  2  1  0
 11 10  2  0
 13 12  1  0
 14 13  2  0
 15 13  1  0
 16 17  1  0
 16 15  1  6
 17 10  1  0
 18 16  1  0
 19 18  2  0
 20 21  1  0
 21 22  2  0
 21 23  1  0
 23 24  1  0
 25 26  1  0
 25 24  1  0
 27 26  1  6
 27 28  1  0
 28 18  1  0
 29 30  1  0
 29 27  1  0
 31 29  2  0
M  END
$$$$
