FNR.pdb
     RDKit          3D

 31 31  0  0  1  0  0  0  0  0999 V2000
   28.3293  -20.6622  -15.6666 N   0  0  0  0  0  0  0  0  0  0  0  0
   27.4260  -19.6998  -15.0169 C   0  0  1  0  0  0  0  0  0  0  0  0
   26.8398  -18.8674  -16.1092 C   0  0  0  0  0  0  0  0  0  0  0  0
   27.6980  -17.7695  -16.5837 C   0  0  0  0  0  0  0  0  0  0  0  0
   27.8067  -16.6176  -15.8290 C   0  0  0  0  0  0  0  0  0  0  0  0
   28.6238  -15.6171  -16.3110 C   0  0  0  0  0  0  0  0  0  0  0  0
   29.3011  -15.7748  -17.5042 C   0  0  0  0  0  0  0  0  0  0  0  0
   29.1954  -16.9215  -18.2595 C   0  0  0  0  0  0  0  0  0  0  0  0
   28.3775  -17.9215  -17.7754 C   0  0  0  0  0  0  0  0  0  0  0  0
   26.4239  -20.4184  -14.1923 C   0  0  0  0  0  0  0  0  0  0  0  0
   26.1196  -21.5961  -14.5551 O   0  0  0  0  0  0  0  0  0  0  0  0
   24.5249  -21.8043   -9.0331 N   0  0  0  0  0  0  0  0  0  0  0  0
   24.0913  -20.7674   -9.8887 C   0  0  0  0  0  0  0  0  0  0  0  0
   22.8479  -20.4975   -9.8427 O   0  0  0  0  0  0  0  0  0  0  0  0
   24.9688  -20.0191  -10.7889 C   0  0  0  0  0  0  0  0  0  0  0  0
   24.9664  -20.4655  -12.2102 C   0  0  2  0  0  0  0  0  0  0  0  0
   25.8681  -19.7839  -13.0749 N   0  0  0  0  0  0  0  0  0  0  0  0
   23.5661  -20.4657  -12.7105 C   0  0  0  0  0  0  0  0  0  0  0  0
   23.1435  -19.3574  -13.1685 O   0  0  0  0  0  0  0  0  0  0  0  0
   19.9637  -28.1762  -13.6632 N   0  0  0  0  0  0  0  0  0  0  0  0
   20.0592  -27.6268  -12.3328 C   0  0  0  0  0  0  0  0  0  0  0  0
   19.9391  -28.4065  -11.2913 N   0  0  0  0  0  0  0  0  0  0  0  0
   20.2827  -26.2472  -12.1149 N   0  0  0  0  0  0  0  0  0  0  0  0
   20.4654  -25.3145  -13.2007 C   0  0  0  0  0  0  0  0  0  0  0  0
   20.8419  -23.9244  -12.6534 C   0  0  0  0  0  0  0  0  0  0  0  0
   21.0256  -22.9452  -13.7580 C   0  0  0  0  0  0  0  0  0  0  0  0
   21.3904  -21.5714  -13.2490 C   0  0  2  0  0  0  0  0  0  0  0  0
   22.7439  -21.5999  -12.6895 N   0  0  0  0  0  0  0  0  0  0  0  0
   20.4366  -21.0064  -12.2846 C   0  0  0  0  0  0  0  0  0  0  0  0
   19.2452  -20.3730  -12.7037 O   0  0  0  0  0  0  0  0  0  0  0  0
   20.5910  -21.0354  -11.0429 O   0  0  0  0  0  0  0  0  0  0  0  0
  2  1  1  6
  3  2  1  0
  4  3  1  0
  4  5  2  0
  6  5  1  0
  7  6  2  0
  8  9  2  0
  8  7  1  0
  9  4  1  0
 10  2  1  0
 11 10  2  0
 13 12  1  0
 14 13  2  0
 15 13  1  0
 16 17  1  0
 16 15  1  1
 17 10  1  0
 18 16  1  0
 19 18  2  0
 20 21  1  0
 21 22  2  0
 21 23  1  0
 23 24  1  0
 25 26  1  0
 25 24  1  0
 27 26  1  1
 27 28  1  0
 28 18  1  0
 29 30  1  0
 29 27  1  0
 31 29  2  0
M  END
$$$$
