FNR.pdb
     RDKit          3D

 31 31  0  0  1  0  0  0  0  0999 V2000
   28.9477  -20.9464   -8.9022 N   0  0  0  0  0  0  0  0  0  0  0  0
   27.4869  -20.8064   -8.7994 C   0  0  1  0  0  0  0  0  0  0  0  0
   27.2368  -19.5957   -7.9621 C   0  0  0  0  0  0  0  0  0  0  0  0
   27.8077  -19.6481   -6.6062 C   0  0  0  0  0  0  0  0  0  0  0  0
   28.7151  -18.6834   -6.2136 C   0  0  0  0  0  0  0  0  0  0  0  0
   29.2215  -18.7707   -4.9342 C   0  0  0  0  0  0  0  0  0  0  0  0
   28.8272  -19.7893   -4.0889 C   0  0  0  0  0  0  0  0  0  0  0  0
   27.9229  -20.7529   -4.4764 C   0  0  0  0  0  0  0  0  0  0  0  0
   27.4173  -20.6637   -5.7570 C   0  0  0  0  0  0  0  0  0  0  0  0
   26.8843  -20.7470  -10.1537 C   0  0  0  0  0  0  0  0  0  0  0  0
   27.3826  -19.9103  -10.9678 O   0  0  0  0  0  0  0  0  0  0  0  0
   25.4561  -22.3505  -14.9675 N   0  0  0  0  0  0  0  0  0  0  0  0
   24.5597  -22.5350  -13.8916 C   0  0  0  0  0  0  0  0  0  0  0  0
   23.3237  -22.5367  -14.1971 O   0  0  0  0  0  0  0  0  0  0  0  0
   24.9686  -22.7170  -12.4987 C   0  0  0  0  0  0  0  0  0  0  0  0
   25.1110  -21.4676  -11.7000 C   0  0  2  0  0  0  0  0  0  0  0  0
   25.8168  -21.5955  -10.4709 N   0  0  0  0  0  0  0  0  0  0  0  0
   23.7702  -20.8446  -11.5408 C   0  0  0  0  0  0  0  0  0  0  0  0
   23.7094  -19.8644  -10.7332 O   0  0  0  0  0  0  0  0  0  0  0  0
   20.8425  -15.2266  -14.9452 N   0  0  0  0  0  0  0  0  0  0  0  0
   19.6188  -15.9710  -15.1164 C   0  0  0  0  0  0  0  0  0  0  0  0
   18.4642  -15.3766  -14.9723 N   0  0  0  0  0  0  0  0  0  0  0  0
   19.6279  -17.3476  -15.4411 N   0  0  0  0  0  0  0  0  0  0  0  0
   20.7701  -18.1923  -15.1877 C   0  0  0  0  0  0  0  0  0  0  0  0
   21.1328  -18.1658  -13.6906 C   0  0  0  0  0  0  0  0  0  0  0  0
   22.1515  -19.2004  -13.3675 C   0  0  0  0  0  0  0  0  0  0  0  0
   21.5623  -20.3654  -12.6092 C   0  0  2  0  0  0  0  0  0  0  0  0
   22.6311  -21.2901  -12.2240 N   0  0  0  0  0  0  0  0  0  0  0  0
   20.4879  -21.0729  -13.3191 C   0  0  0  0  0  0  0  0  0  0  0  0
   20.7339  -22.2612  -14.0428 O   0  0  0  0  0  0  0  0  0  0  0  0
   19.2945  -20.6963  -13.3445 O   0  0  0  0  0  0  0  0  0  0  0  0
  2  1  1  6
  3  2  1  0
  4  3  1  0
  4  5  2  0
  6  5  1  0
  7  6  2  0
  8  9  2  0
  8  7  1  0
  9  4  1  0
 10  2  1  0
 11 10  2  0
 13 12  1  0
 14 13  2  0
 15 13  1  0
 16 17  1  0
 16 15  1  1
 17 10  1  0
 18 16  1  0
 19 18  2  0
 20 21  1  0
 21 22  2  0
 21 23  1  0
 23 24  1  0
 25 26  1  0
 25 24  1  0
 27 26  1  6
 27 28  1  0
 28 18  1  0
 29 30  1  0
 29 27  1  0
 31 29  2  0
M  END
$$$$
