FNR.pdb
     RDKit          3D

 31 31  0  0  1  0  0  0  0  0999 V2000
   28.1724  -16.8275  -18.5810 N   0  0  0  0  0  0  0  0  0  0  0  0
   27.3664  -16.7867  -17.3511 C   0  0  1  0  0  0  0  0  0  0  0  0
   26.4519  -15.6138  -17.4844 C   0  0  0  0  0  0  0  0  0  0  0  0
   27.0978  -14.3003  -17.3282 C   0  0  0  0  0  0  0  0  0  0  0  0
   27.4192  -13.5636  -18.4516 C   0  0  0  0  0  0  0  0  0  0  0  0
   28.0203  -12.3381  -18.2571 C   0  0  0  0  0  0  0  0  0  0  0  0
   28.2847  -11.8780  -16.9820 C   0  0  0  0  0  0  0  0  0  0  0  0
   27.9660  -12.6094  -15.8595 C   0  0  0  0  0  0  0  0  0  0  0  0
   27.3644  -13.8353  -16.0563 C   0  0  0  0  0  0  0  0  0  0  0  0
   26.6720  -18.0827  -17.1538 C   0  0  0  0  0  0  0  0  0  0  0  0
   26.4051  -18.7557  -18.1963 O   0  0  0  0  0  0  0  0  0  0  0  0
   27.7757  -21.2543  -16.7780 N   0  0  0  0  0  0  0  0  0  0  0  0
   27.4132  -21.3934  -15.4199 C   0  0  0  0  0  0  0  0  0  0  0  0
   28.1588  -22.1566  -14.7251 O   0  0  0  0  0  0  0  0  0  0  0  0
   26.2676  -20.7282  -14.7991 C   0  0  0  0  0  0  0  0  0  0  0  0
   25.5979  -19.6885  -15.6298 C   0  0  2  0  0  0  0  0  0  0  0  0
   26.3475  -18.5004  -15.8575 N   0  0  0  0  0  0  0  0  0  0  0  0
   24.2449  -19.4266  -15.0713 C   0  0  0  0  0  0  0  0  0  0  0  0
   24.0649  -18.2672  -14.5814 O   0  0  0  0  0  0  0  0  0  0  0  0
   18.3798  -15.3530  -18.3676 N   0  0  0  0  0  0  0  0  0  0  0  0
   17.6963  -15.9221  -17.2319 C   0  0  0  0  0  0  0  0  0  0  0  0
   16.4831  -15.5374  -16.9365 N   0  0  0  0  0  0  0  0  0  0  0  0
   18.3070  -16.9005  -16.4131 N   0  0  0  0  0  0  0  0  0  0  0  0
   19.6914  -17.2782  -16.5649 C   0  0  0  0  0  0  0  0  0  0  0  0
   20.0287  -18.4579  -15.6331 C   0  0  0  0  0  0  0  0  0  0  0  0
   21.4458  -18.8803  -15.7945 C   0  0  0  0  0  0  0  0  0  0  0  0
   21.8213  -19.9946  -14.8475 C   0  0  2  0  0  0  0  0  0  0  0  0
   23.2171  -20.3786  -15.0719 N   0  0  0  0  0  0  0  0  0  0  0  0
   20.9389  -21.1679  -14.9075 C   0  0  0  0  0  0  0  0  0  0  0  0
   19.9135  -21.3744  -13.9578 O   0  0  0  0  0  0  0  0  0  0  0  0
   21.0157  -22.0620  -15.7800 O   0  0  0  0  0  0  0  0  0  0  0  0
  2  1  1  6
  3  2  1  0
  4  3  1  0
  4  5  2  0
  6  5  1  0
  7  6  2  0
  8  9  2  0
  8  7  1  0
  9  4  1  0
 10  2  1  0
 11 10  2  0
 13 12  1  0
 14 13  2  0
 15 13  1  0
 16 17  1  0
 16 15  1  1
 17 10  1  0
 18 16  1  0
 19 18  2  0
 20 21  1  0
 21 22  2  0
 21 23  1  0
 23 24  1  0
 25 26  1  0
 25 24  1  0
 27 26  1  6
 27 28  1  0
 28 18  1  0
 29 30  1  0
 29 27  1  0
 31 29  2  0
M  END
$$$$
