FNR.pdb
     RDKit          3D

 31 31  0  0  1  0  0  0  0  0999 V2000
   27.1242  -18.0445  -17.0352 N   0  0  0  0  0  0  0  0  0  0  0  0
   26.5652  -17.6320  -15.7385 C   0  0  1  0  0  0  0  0  0  0  0  0
   25.6845  -16.4578  -16.0127 C   0  0  0  0  0  0  0  0  0  0  0  0
   26.3948  -15.2065  -16.3240 C   0  0  0  0  0  0  0  0  0  0  0  0
   26.4061  -14.7370  -17.6231 C   0  0  0  0  0  0  0  0  0  0  0  0
   27.0815  -13.5600  -17.8673 C   0  0  0  0  0  0  0  0  0  0  0  0
   27.7175  -12.8875  -16.8423 C   0  0  0  0  0  0  0  0  0  0  0  0
   27.7086  -13.3522  -15.5460 C   0  0  0  0  0  0  0  0  0  0  0  0
   27.0322  -14.5300  -15.3037 C   0  0  0  0  0  0  0  0  0  0  0  0
   25.8741  -18.7759  -15.0946 C   0  0  0  0  0  0  0  0  0  0  0  0
   25.3418  -19.6328  -15.8649 O   0  0  0  0  0  0  0  0  0  0  0  0
   25.9904  -22.6956  -10.9608 N   0  0  0  0  0  0  0  0  0  0  0  0
   25.2817  -21.4757  -11.0274 C   0  0  0  0  0  0  0  0  0  0  0  0
   24.1301  -21.4761  -10.4845 O   0  0  0  0  0  0  0  0  0  0  0  0
   25.7886  -20.2605  -11.6653 C   0  0  0  0  0  0  0  0  0  0  0  0
   25.2816  -19.9948  -13.0407 C   0  0  2  0  0  0  0  0  0  0  0  0
   25.8382  -18.8617  -13.6976 N   0  0  0  0  0  0  0  0  0  0  0  0
   23.7951  -19.9792  -13.0093 C   0  0  0  0  0  0  0  0  0  0  0  0
   23.2579  -18.8352  -12.8703 O   0  0  0  0  0  0  0  0  0  0  0  0
   17.5128  -17.4571  -12.8651 N   0  0  0  0  0  0  0  0  0  0  0  0
   18.1796  -17.1301  -14.1018 C   0  0  0  0  0  0  0  0  0  0  0  0
   17.9825  -15.9681  -14.6656 N   0  0  0  0  0  0  0  0  0  0  0  0
   19.0556  -18.0423  -14.7352 N   0  0  0  0  0  0  0  0  0  0  0  0
   19.1858  -19.4130  -14.3034 C   0  0  0  0  0  0  0  0  0  0  0  0
   20.0767  -20.1998  -15.2838 C   0  0  0  0  0  0  0  0  0  0  0  0
   21.4804  -20.2672  -14.7965 C   0  0  0  0  0  0  0  0  0  0  0  0
   21.6055  -21.0690  -13.5234 C   0  0  2  0  0  0  0  0  0  0  0  0
   23.0130  -21.1360  -13.1229 N   0  0  0  0  0  0  0  0  0  0  0  0
   21.0152  -22.4129  -13.5898 C   0  0  0  0  0  0  0  0  0  0  0  0
   21.7741  -23.5381  -13.9823 O   0  0  0  0  0  0  0  0  0  0  0  0
   19.8223  -22.6719  -13.3127 O   0  0  0  0  0  0  0  0  0  0  0  0
  2  1  1  6
  3  2  1  0
  4  3  1  0
  4  5  2  0
  6  5  1  0
  7  6  2  0
  8  9  2  0
  8  7  1  0
  9  4  1  0
 10  2  1  0
 11 10  2  0
 13 12  1  0
 14 13  2  0
 15 13  1  0
 16 17  1  0
 16 15  1  1
 17 10  1  0
 18 16  1  0
 19 18  2  0
 20 21  1  0
 21 22  2  0
 21 23  1  0
 23 24  1  0
 25 26  1  0
 25 24  1  0
 27 26  1  6
 27 28  1  0
 28 18  1  0
 29 30  1  0
 29 27  1  0
 31 29  2  0
M  END
$$$$
