FNR.pdb
     RDKit          3D

 31 31  0  0  1  0  0  0  0  0999 V2000
   28.6768  -20.7364   -9.8053 N   0  0  0  0  0  0  0  0  0  0  0  0
   27.3640  -21.3959   -9.8815 C   0  0  1  0  0  0  0  0  0  0  0  0
   26.8128  -21.4006   -8.4937 C   0  0  0  0  0  0  0  0  0  0  0  0
   27.6502  -20.7247   -7.4893 C   0  0  0  0  0  0  0  0  0  0  0  0
   28.7495  -21.3799   -6.9694 C   0  0  0  0  0  0  0  0  0  0  0  0
   29.5062  -20.7072   -6.0336 C   0  0  0  0  0  0  0  0  0  0  0  0
   29.1659  -19.4276   -5.6409 C   0  0  0  0  0  0  0  0  0  0  0  0
   28.0708  -18.7708   -6.1568 C   0  0  0  0  0  0  0  0  0  0  0  0
   27.3150  -19.4457   -7.0931 C   0  0  0  0  0  0  0  0  0  0  0  0
   26.5054  -20.7081  -10.8768 C   0  0  0  0  0  0  0  0  0  0  0  0
   26.2804  -19.4737  -10.6858 O   0  0  0  0  0  0  0  0  0  0  0  0
   26.8460  -18.4275  -14.8618 N   0  0  0  0  0  0  0  0  0  0  0  0
   26.9009  -19.7506  -14.3703 C   0  0  0  0  0  0  0  0  0  0  0  0
   28.0469  -20.1486  -13.9837 O   0  0  0  0  0  0  0  0  0  0  0  0
   25.7491  -20.6488  -14.2877 C   0  0  0  0  0  0  0  0  0  0  0  0
   25.1551  -20.8124  -12.9313 C   0  0  2  0  0  0  0  0  0  0  0  0
   25.9909  -21.4311  -11.9598 N   0  0  0  0  0  0  0  0  0  0  0  0
   23.8289  -21.4716  -13.0647 C   0  0  0  0  0  0  0  0  0  0  0  0
   23.8488  -22.6716  -13.4842 O   0  0  0  0  0  0  0  0  0  0  0  0
   17.9314  -24.2473   -8.3315 N   0  0  0  0  0  0  0  0  0  0  0  0
   18.2662  -24.7449   -9.6435 C   0  0  0  0  0  0  0  0  0  0  0  0
   18.2089  -26.0261   -9.8930 N   0  0  0  0  0  0  0  0  0  0  0  0
   18.6612  -23.8759  -10.6872 N   0  0  0  0  0  0  0  0  0  0  0  0
   18.7221  -22.4442  -10.5174 C   0  0  0  0  0  0  0  0  0  0  0  0
   19.0867  -21.7630  -11.8503 C   0  0  0  0  0  0  0  0  0  0  0  0
   20.4164  -21.1014  -11.7680 C   0  0  0  0  0  0  0  0  0  0  0  0
   21.3366  -21.5270  -12.8867 C   0  0  2  0  0  0  0  0  0  0  0  0
   22.6204  -20.8338  -12.7555 N   0  0  0  0  0  0  0  0  0  0  0  0
   20.7798  -21.3476  -14.2346 C   0  0  0  0  0  0  0  0  0  0  0  0
   20.1055  -22.3933  -14.9040 O   0  0  0  0  0  0  0  0  0  0  0  0
   20.8516  -20.2835  -14.8897 O   0  0  0  0  0  0  0  0  0  0  0  0
  2  1  1  1
  3  2  1  0
  4  3  1  0
  4  5  2  0
  6  5  1  0
  7  6  2  0
  8  9  2  0
  8  7  1  0
  9  4  1  0
 10  2  1  0
 11 10  2  0
 13 12  1  0
 14 13  2  0
 15 13  1  0
 16 17  1  0
 16 15  1  6
 17 10  1  0
 18 16  1  0
 19 18  2  0
 20 21  1  0
 21 22  2  0
 21 23  1  0
 23 24  1  0
 25 26  1  0
 25 24  1  0
 27 26  1  1
 27 28  1  0
 28 18  1  0
 29 30  1  0
 29 27  1  0
 31 29  2  0
M  END
$$$$
