FNR.pdb
     RDKit          3D

 31 31  0  0  1  0  0  0  0  0999 V2000
   26.9817  -22.0039   -8.9401 N   0  0  0  0  0  0  0  0  0  0  0  0
   26.4746  -20.6510   -8.6635 C   0  0  1  0  0  0  0  0  0  0  0  0
   27.6518  -19.8383   -8.2352 C   0  0  0  0  0  0  0  0  0  0  0  0
   27.9508  -19.8874   -6.7946 C   0  0  0  0  0  0  0  0  0  0  0  0
   28.9933  -20.6735   -6.3437 C   0  0  0  0  0  0  0  0  0  0  0  0
   29.2384  -20.6865   -4.9869 C   0  0  0  0  0  0  0  0  0  0  0  0
   28.4629  -19.9371   -4.1241 C   0  0  0  0  0  0  0  0  0  0  0  0
   27.4228  -19.1521   -4.5696 C   0  0  0  0  0  0  0  0  0  0  0  0
   27.1792  -19.1404   -5.9275 C   0  0  0  0  0  0  0  0  0  0  0  0
   25.7663  -20.1192   -9.8535 C   0  0  0  0  0  0  0  0  0  0  0  0
   25.4579  -18.8881   -9.8358 O   0  0  0  0  0  0  0  0  0  0  0  0
   28.2610  -20.3988  -12.5658 N   0  0  0  0  0  0  0  0  0  0  0  0
   27.0954  -20.8851  -13.1982 C   0  0  0  0  0  0  0  0  0  0  0  0
   27.2077  -22.0195  -13.7654 O   0  0  0  0  0  0  0  0  0  0  0  0
   25.8166  -20.1752  -13.2305 C   0  0  0  0  0  0  0  0  0  0  0  0
   24.8768  -20.4888  -12.1179 C   0  0  2  0  0  0  0  0  0  0  0  0
   25.4742  -20.9760  -10.9216 N   0  0  0  0  0  0  0  0  0  0  0  0
   23.7999  -21.3743  -12.6348 C   0  0  0  0  0  0  0  0  0  0  0  0
   24.1042  -22.6032  -12.7513 O   0  0  0  0  0  0  0  0  0  0  0  0
   17.3546  -23.1435   -8.6754 N   0  0  0  0  0  0  0  0  0  0  0  0
   18.3958  -24.0546   -8.2671 C   0  0  0  0  0  0  0  0  0  0  0  0
   18.0868  -25.2125   -7.7466 N   0  0  0  0  0  0  0  0  0  0  0  0
   19.7646  -23.7301   -8.4147 N   0  0  0  0  0  0  0  0  0  0  0  0
   20.2041  -22.4499   -8.9147 C   0  0  0  0  0  0  0  0  0  0  0  0
   20.1927  -22.4453  -10.4553 C   0  0  0  0  0  0  0  0  0  0  0  0
   21.3559  -21.6936  -10.9978 C   0  0  0  0  0  0  0  0  0  0  0  0
   21.3128  -21.5823  -12.5029 C   0  0  2  0  0  0  0  0  0  0  0  0
   22.5238  -20.9097  -12.9792 N   0  0  0  0  0  0  0  0  0  0  0  0
   20.1079  -20.9278  -13.0307 C   0  0  0  0  0  0  0  0  0  0  0  0
   18.9997  -21.6735  -13.4911 O   0  0  0  0  0  0  0  0  0  0  0  0
   19.9612  -19.6877  -13.1165 O   0  0  0  0  0  0  0  0  0  0  0  0
  2  1  1  6
  3  2  1  0
  4  3  1  0
  4  5  2  0
  6  5  1  0
  7  6  2  0
  8  9  2  0
  8  7  1  0
  9  4  1  0
 10  2  1  0
 11 10  2  0
 13 12  1  0
 14 13  2  0
 15 13  1  0
 16 17  1  0
 16 15  1  6
 17 10  1  0
 18 16  1  0
 19 18  2  0
 20 21  1  0
 21 22  2  0
 21 23  1  0
 23 24  1  0
 25 26  1  0
 25 24  1  0
 27 26  1  1
 27 28  1  0
 28 18  1  0
 29 30  1  0
 29 27  1  0
 31 29  2  0
M  END
$$$$
