CRH.pdb
     RDKit          3D

 28 28  0  0  1  0  0  0  0  0999 V2000
    4.5507  -13.5499   26.5958 N   0  0  0  0  0  0  0  0  0  0  0  0
    5.6706  -12.9344   25.9409 C   0  0  1  0  0  0  0  0  0  0  0  0
    6.5889  -12.2615   26.9468 C   0  0  0  0  0  0  0  0  0  0  0  0
    5.8610  -10.7442   27.5828 S   0  0  0  0  0  0  0  0  0  0  0  0
    6.4398  -13.9152   25.1166 C   0  0  0  0  0  0  0  0  0  0  0  0
    6.5381  -15.1175   25.4705 O   0  0  0  0  0  0  0  0  0  0  0  0
    8.7919  -13.3165   16.6166 N   0  0  0  0  0  0  0  0  0  0  0  0
    8.9488  -14.6965   16.9531 C   0  0  0  0  0  0  0  0  0  0  0  0
    9.1993  -15.5734   16.0687 N   0  0  0  0  0  0  0  0  0  0  0  0
    8.8174  -15.0751   18.3200 N   0  0  0  0  0  0  0  0  0  0  0  0
    8.4192  -14.1054   19.2920 C   0  0  0  0  0  0  0  0  0  0  0  0
    8.3692  -14.7605   20.6555 C   0  0  0  0  0  0  0  0  0  0  0  0
    7.8348  -13.7280   21.6243 C   0  0  0  0  0  0  0  0  0  0  0  0
    7.7445  -14.3811   23.0027 C   0  0  2  0  0  0  0  0  0  0  0  0
    7.0762  -13.4888   23.9067 N   0  0  0  0  0  0  0  0  0  0  0  0
    9.1617  -14.5543   23.4566 C   0  0  0  0  0  0  0  0  0  0  0  0
    9.7263  -13.6359   24.0981 O   0  0  0  0  0  0  0  0  0  0  0  0
    9.3451  -16.5646   16.3139 N   0  0  0  0  0  0  0  0  0  0  0  0
    9.9027  -15.7264   23.1895 C   0  0  2  0  0  0  0  0  0  0  0  0
   10.6375  -16.3545   24.2526 C   0  0  0  0  0  0  0  0  0  0  0  0
    9.7583  -16.6461   25.4561 C   0  0  0  0  0  0  0  0  0  0  0  0
   10.1002  -15.6658   26.4973 C   0  0  0  0  0  0  0  0  0  0  0  0
   10.9137  -14.5811   26.3362 N   0  0  0  0  0  0  0  0  0  0  0  0
   10.9870  -13.9176   27.5190 C   0  0  0  0  0  0  0  0  0  0  0  0
   10.2192  -14.6018   28.3900 N   0  0  0  0  0  0  0  0  0  0  0  0
    9.6749  -15.6768   27.7585 C   0  0  0  0  0  0  0  0  0  0  0  0
   11.2468  -17.6463   23.8250 O   0  0  0  0  0  0  0  0  0  0  0  0
   12.0767  -18.1896   24.5709 O   0  0  0  0  0  0  0  0  0  0  0  0
  2  1  1  1
  3  2  1  0
  3  4  1  0
  5  2  1  0
  5  6  2  0
  7  8  1  0
  8  9  2  0
 10  8  1  0
 10 11  1  0
 11 12  1  0
 14 13  1  6
 13 12  1  0
 14 15  1  0
 15  5  1  0
 16 14  1  0
 17 16  2  0
 18 16  1  0
 19 20  1  6
 19 18  1  0
 21 22  2  0
 21 20  1  0
 23 22  1  0
 24 25  2  0
 24 23  1  0
 25 21  1  0
 26 19  1  0
 27 26  2  0
 28 26  1  0
M  END
$$$$
