CRH.pdb
     RDKit          3D

 28 28  0  0  1  0  0  0  0  0999 V2000
    4.6925  -14.0158   26.7247 N   0  0  0  0  0  0  0  0  0  0  0  0
    5.7953  -13.3324   26.1093 C   0  0  1  0  0  0  0  0  0  0  0  0
    6.6511  -12.6298   27.1494 C   0  0  0  0  0  0  0  0  0  0  0  0
    7.8515  -11.5352   26.3764 S   0  0  0  0  0  0  0  0  0  0  0  0
    6.6355  -14.2582   25.2908 C   0  0  0  0  0  0  0  0  0  0  0  0
    6.9934  -15.3747   25.7444 O   0  0  0  0  0  0  0  0  0  0  0  0
    8.4032  -13.2444   16.7805 N   0  0  0  0  0  0  0  0  0  0  0  0
    8.1843  -14.6406   16.9924 C   0  0  0  0  0  0  0  0  0  0  0  0
    8.0733  -15.4522   16.0214 N   0  0  0  0  0  0  0  0  0  0  0  0
    8.0922  -15.1115   18.3336 N   0  0  0  0  0  0  0  0  0  0  0  0
    8.2338  -14.1946   19.4211 C   0  0  0  0  0  0  0  0  0  0  0  0
    8.0810  -14.9450   20.7265 C   0  0  0  0  0  0  0  0  0  0  0  0
    8.1792  -13.9240   21.8392 C   0  0  0  0  0  0  0  0  0  0  0  0
    7.9424  -14.6492   23.1631 C   0  0  2  0  0  0  0  0  0  0  0  0
    7.0427  -13.8769   23.9718 N   0  0  0  0  0  0  0  0  0  0  0  0
    9.2788  -14.6948   23.8386 C   0  0  0  0  0  0  0  0  0  0  0  0
    9.5414  -13.8785   24.7543 O   0  0  0  0  0  0  0  0  0  0  0  0
    7.9002  -16.4577   16.1723 N   0  0  0  0  0  0  0  0  0  0  0  0
   10.2732  -15.6326   23.4836 C   0  0  2  0  0  0  0  0  0  0  0  0
   11.1458  -16.1545   24.4989 C   0  0  0  0  0  0  0  0  0  0  0  0
   10.3759  -16.8550   25.6048 C   0  0  0  0  0  0  0  0  0  0  0  0
   10.3107  -15.9317   26.7471 C   0  0  0  0  0  0  0  0  0  0  0  0
   10.6787  -14.6169   26.7328 N   0  0  0  0  0  0  0  0  0  0  0  0
   10.4747  -14.0984   27.9715 C   0  0  0  0  0  0  0  0  0  0  0  0
    9.9850  -15.0994   28.7296 N   0  0  0  0  0  0  0  0  0  0  0  0
    9.8853  -16.2260   27.9735 C   0  0  0  0  0  0  0  0  0  0  0  0
   12.1221  -17.1369   23.9472 O   0  0  0  0  0  0  0  0  0  0  0  0
   13.0243  -17.5602   24.6869 O   0  0  0  0  0  0  0  0  0  0  0  0
  2  1  1  1
  3  2  1  0
  3  4  1  0
  5  2  1  0
  5  6  2  0
  7  8  1  0
  8  9  2  0
 10  8  1  0
 10 11  1  0
 11 12  1  0
 14 13  1  6
 13 12  1  0
 14 15  1  0
 15  5  1  0
 16 14  1  0
 17 16  2  0
 18 16  1  0
 19 20  1  1
 19 18  1  0
 21 22  2  0
 21 20  1  0
 23 22  1  0
 24 25  2  0
 24 23  1  0
 25 21  1  0
 26 19  1  0
 27 26  2  0
 28 26  1  0
M  END
$$$$
