CRH.pdb
     RDKit          3D

 28 28  0  0  1  0  0  0  0  0999 V2000
    4.9813  -13.3241   27.5358 N   0  0  0  0  0  0  0  0  0  0  0  0
    6.0332  -12.6900   26.7918 C   0  0  1  0  0  0  0  0  0  0  0  0
    7.0677  -12.0791   27.7216 C   0  0  0  0  0  0  0  0  0  0  0  0
    8.3286  -11.1866   26.7995 S   0  0  0  0  0  0  0  0  0  0  0  0
    6.6902  -13.6375   25.8413 C   0  0  0  0  0  0  0  0  0  0  0  0
    7.0158  -14.7953   26.2072 O   0  0  0  0  0  0  0  0  0  0  0  0
    8.9713  -13.1736   17.6808 N   0  0  0  0  0  0  0  0  0  0  0  0
    8.4674  -14.5100   17.6322 C   0  0  0  0  0  0  0  0  0  0  0  0
    8.7146  -15.2799   16.6524 N   0  0  0  0  0  0  0  0  0  0  0  0
    7.6710  -14.9690   18.7204 N   0  0  0  0  0  0  0  0  0  0  0  0
    7.2352  -14.0468   19.7221 C   0  0  0  0  0  0  0  0  0  0  0  0
    7.6677  -14.5501   21.0823 C   0  0  0  0  0  0  0  0  0  0  0  0
    7.1070  -13.5903   22.1093 C   0  0  0  0  0  0  0  0  0  0  0  0
    7.5043  -14.1004   23.4938 C   0  0  2  0  0  0  0  0  0  0  0  0
    6.9562  -13.2297   24.4945 N   0  0  0  0  0  0  0  0  0  0  0  0
    8.9987  -14.0073   23.5404 C   0  0  0  0  0  0  0  0  0  0  0  0
    9.5514  -12.8815   23.5735 O   0  0  0  0  0  0  0  0  0  0  0  0
    8.3720  -16.2523   16.6270 N   0  0  0  0  0  0  0  0  0  0  0  0
    9.8271  -15.1510   23.5489 C   0  0  2  0  0  0  0  0  0  0  0  0
   10.4742  -15.5447   24.7698 C   0  0  0  0  0  0  0  0  0  0  0  0
    9.4727  -15.9088   25.8519 C   0  0  0  0  0  0  0  0  0  0  0  0
   10.2352  -16.2081   27.0730 C   0  0  0  0  0  0  0  0  0  0  0  0
   11.4528  -15.6852   27.4021 N   0  0  0  0  0  0  0  0  0  0  0  0
   11.8331  -16.1988   28.6005 C   0  0  0  0  0  0  0  0  0  0  0  0
   10.8462  -17.0292   28.9916 N   0  0  0  0  0  0  0  0  0  0  0  0
    9.8646  -17.0328   28.0498 C   0  0  0  0  0  0  0  0  0  0  0  0
   11.3659  -16.7237   24.5760 O   0  0  0  0  0  0  0  0  0  0  0  0
   11.1372  -17.7570   25.2243 O   0  0  0  0  0  0  0  0  0  0  0  0
  2  1  1  1
  3  2  1  0
  3  4  1  0
  5  2  1  0
  5  6  2  0
  7  8  1  0
  8  9  2  0
 10  8  1  0
 10 11  1  0
 11 12  1  0
 14 13  1  6
 13 12  1  0
 14 15  1  0
 15  5  1  0
 16 14  1  0
 17 16  2  0
 18 16  1  0
 19 20  1  1
 19 18  1  0
 21 22  2  0
 21 20  1  0
 23 22  1  0
 24 25  2  0
 24 23  1  0
 25 21  1  0
 26 19  1  0
 27 26  2  0
 28 26  1  0
M  END
$$$$
