CRH.pdb
     RDKit          3D

 28 28  0  0  1  0  0  0  0  0999 V2000
    5.8075  -19.9512   21.8554 N   0  0  0  0  0  0  0  0  0  0  0  0
    5.9204  -18.8124   22.7228 C   0  0  1  0  0  0  0  0  0  0  0  0
    6.1743  -19.2422   24.1576 C   0  0  0  0  0  0  0  0  0  0  0  0
    5.9468  -17.8713   25.3002 S   0  0  0  0  0  0  0  0  0  0  0  0
    6.9903  -17.8729   22.2694 C   0  0  0  0  0  0  0  0  0  0  0  0
    8.0963  -18.3059   21.8575 O   0  0  0  0  0  0  0  0  0  0  0  0
    9.2004  -15.6151   16.9854 N   0  0  0  0  0  0  0  0  0  0  0  0
    8.6061  -14.4253   17.5084 C   0  0  0  0  0  0  0  0  0  0  0  0
    8.0751  -13.5566   16.7486 N   0  0  0  0  0  0  0  0  0  0  0  0
    8.6206  -14.2298   18.9193 N   0  0  0  0  0  0  0  0  0  0  0  0
    7.8698  -13.1592   19.4971 C   0  0  0  0  0  0  0  0  0  0  0  0
    8.0223  -13.2016   21.0023 C   0  0  0  0  0  0  0  0  0  0  0  0
    6.9951  -14.1826   21.5247 C   0  0  0  0  0  0  0  0  0  0  0  0
    7.7178  -15.4889   21.8505 C   0  0  2  0  0  0  0  0  0  0  0  0
    6.7613  -16.4595   22.3012 N   0  0  0  0  0  0  0  0  0  0  0  0
    8.6429  -15.1624   22.9826 C   0  0  0  0  0  0  0  0  0  0  0  0
    9.6325  -14.4176   22.7827 O   0  0  0  0  0  0  0  0  0  0  0  0
    7.6297  -12.7062   17.1255 N   0  0  0  0  0  0  0  0  0  0  0  0
    8.4465  -15.6648   24.2878 C   0  0  1  0  0  0  0  0  0  0  0  0
    9.3504  -15.2790   25.3360 C   0  0  0  0  0  0  0  0  0  0  0  0
    8.6561  -15.1997   26.6844 C   0  0  0  0  0  0  0  0  0  0  0  0
    7.5913  -14.1921   26.5713 C   0  0  0  0  0  0  0  0  0  0  0  0
    7.4091  -13.3375   25.5220 N   0  0  0  0  0  0  0  0  0  0  0  0
    6.3259  -12.5604   25.7818 C   0  0  0  0  0  0  0  0  0  0  0  0
    5.8573  -12.9466   26.9850 N   0  0  0  0  0  0  0  0  0  0  0  0
    6.6379  -13.9506   27.4682 C   0  0  0  0  0  0  0  0  0  0  0  0
   10.4852  -16.2356   25.4770 O   0  0  0  0  0  0  0  0  0  0  0  0
   10.5689  -17.1828   24.6795 O   0  0  0  0  0  0  0  0  0  0  0  0
  2  1  1  6
  3  2  1  0
  3  4  1  0
  5  2  1  0
  5  6  2  0
  7  8  1  0
  8  9  2  0
 10  8  1  0
 10 11  1  0
 11 12  1  0
 14 13  1  1
 13 12  1  0
 14 15  1  0
 15  5  1  0
 16 14  1  0
 17 16  2  0
 18 16  1  0
 19 20  1  1
 19 18  1  0
 21 22  2  0
 21 20  1  0
 23 22  1  0
 24 25  2  0
 24 23  1  0
 25 21  1  0
 26 19  1  0
 27 26  2  0
 28 26  1  0
M  END
$$$$
