CRH.pdb
     RDKit          3D

 28 28  0  0  1  0  0  0  0  0999 V2000
    7.2884  -14.2389   17.8763 N   0  0  0  0  0  0  0  0  0  0  0  0
    8.1204  -13.9565   19.0120 C   0  0  1  0  0  0  0  0  0  0  0  0
    7.6859  -12.6746   19.7016 C   0  0  0  0  0  0  0  0  0  0  0  0
    8.6934  -12.3404   21.1542 S   0  0  0  0  0  0  0  0  0  0  0  0
    8.1313  -15.0883   19.9877 C   0  0  0  0  0  0  0  0  0  0  0  0
    7.0633  -15.6601   20.3235 O   0  0  0  0  0  0  0  0  0  0  0  0
   11.3683  -18.7395   18.0815 N   0  0  0  0  0  0  0  0  0  0  0  0
   11.0643  -20.1043   18.3771 C   0  0  0  0  0  0  0  0  0  0  0  0
   11.6940  -21.0610   17.8276 N   0  0  0  0  0  0  0  0  0  0  0  0
   10.0264  -20.3749   19.3144 N   0  0  0  0  0  0  0  0  0  0  0  0
    9.3597  -19.2934   19.9699 C   0  0  0  0  0  0  0  0  0  0  0  0
   10.0970  -18.9572   21.2481 C   0  0  0  0  0  0  0  0  0  0  0  0
   10.6019  -17.5374   21.1086 C   0  0  0  0  0  0  0  0  0  0  0  0
    9.4692  -16.5951   21.5133 C   0  0  2  0  0  0  0  0  0  0  0  0
    9.3698  -15.5338   20.5522 N   0  0  0  0  0  0  0  0  0  0  0  0
    9.8835  -16.0147   22.8308 C   0  0  0  0  0  0  0  0  0  0  0  0
   10.8985  -15.2802   22.8956 O   0  0  0  0  0  0  0  0  0  0  0  0
   11.4643  -22.0466   18.0267 N   0  0  0  0  0  0  0  0  0  0  0  0
    9.1692  -16.2622   24.0236 C   0  0  2  0  0  0  0  0  0  0  0  0
    9.6707  -15.7450   25.2668 C   0  0  0  0  0  0  0  0  0  0  0  0
    8.5492  -15.3520   26.2125 C   0  0  0  0  0  0  0  0  0  0  0  0
    9.1713  -14.8434   27.4438 C   0  0  0  0  0  0  0  0  0  0  0  0
    9.4063  -13.5305   27.7359 N   0  0  0  0  0  0  0  0  0  0  0  0
    9.9927  -13.4590   28.9589 C   0  0  0  0  0  0  0  0  0  0  0  0
   10.1102  -14.7265   29.4018 N   0  0  0  0  0  0  0  0  0  0  0  0
    9.6039  -15.5759   28.4674 C   0  0  0  0  0  0  0  0  0  0  0  0
   10.5263  -16.7354   25.9809 O   0  0  0  0  0  0  0  0  0  0  0  0
   10.1783  -17.9266   25.9902 O   0  0  0  0  0  0  0  0  0  0  0  0
  2  1  1  6
  3  2  1  0
  3  4  1  0
  5  2  1  0
  5  6  2  0
  7  8  1  0
  8  9  2  0
 10  8  1  0
 10 11  1  0
 11 12  1  0
 14 13  1  6
 13 12  1  0
 14 15  1  0
 15  5  1  0
 16 14  1  0
 17 16  2  0
 18 16  1  0
 19 20  1  1
 19 18  1  0
 21 22  2  0
 21 20  1  0
 23 22  1  0
 24 25  2  0
 24 23  1  0
 25 21  1  0
 26 19  1  0
 27 26  2  0
 28 26  1  0
M  END
$$$$
