CRH.pdb
     RDKit          3D

 28 28  0  0  1  0  0  0  0  0999 V2000
    6.9495  -14.4490   19.8131 N   0  0  0  0  0  0  0  0  0  0  0  0
    8.0455  -14.1034   20.6740 C   0  0  1  0  0  0  0  0  0  0  0  0
    7.9479  -12.6569   21.1281 C   0  0  0  0  0  0  0  0  0  0  0  0
    8.0755  -11.5251   19.7355 S   0  0  0  0  0  0  0  0  0  0  0  0
    8.1289  -15.0107   21.8584 C   0  0  0  0  0  0  0  0  0  0  0  0
    7.0874  -15.4245   22.4279 O   0  0  0  0  0  0  0  0  0  0  0  0
   13.7204  -21.1299   21.2009 N   0  0  0  0  0  0  0  0  0  0  0  0
   12.4546  -20.8738   20.5889 C   0  0  0  0  0  0  0  0  0  0  0  0
   11.7350  -21.8140   20.1285 N   0  0  0  0  0  0  0  0  0  0  0  0
   12.0087  -19.5236   20.5046 N   0  0  0  0  0  0  0  0  0  0  0  0
   12.1066  -18.6691   21.6464 C   0  0  0  0  0  0  0  0  0  0  0  0
   10.7554  -18.0424   21.9151 C   0  0  0  0  0  0  0  0  0  0  0  0
   10.9146  -17.1463   23.1242 C   0  0  0  0  0  0  0  0  0  0  0  0
    9.5834  -16.4335   23.3578 C   0  0  2  0  0  0  0  0  0  0  0  0
    9.4075  -15.4191   22.3578 N   0  0  0  0  0  0  0  0  0  0  0  0
    9.7131  -15.7731   24.6962 C   0  0  0  0  0  0  0  0  0  0  0  0
   10.4572  -14.7715   24.8265 O   0  0  0  0  0  0  0  0  0  0  0  0
   10.8085  -21.6340   19.7128 N   0  0  0  0  0  0  0  0  0  0  0  0
    9.0224  -16.2365   25.8375 C   0  0  2  0  0  0  0  0  0  0  0  0
    9.2472  -15.5993   27.1056 C   0  0  0  0  0  0  0  0  0  0  0  0
    7.9497  -15.1442   27.7507 C   0  0  0  0  0  0  0  0  0  0  0  0
    7.3884  -14.0806   26.9049 C   0  0  0  0  0  0  0  0  0  0  0  0
    7.7777  -12.7718   26.9047 N   0  0  0  0  0  0  0  0  0  0  0  0
    7.0298  -12.0996   25.9917 C   0  0  0  0  0  0  0  0  0  0  0  0
    6.1921  -13.0021   25.4438 N   0  0  0  0  0  0  0  0  0  0  0  0
    6.4152  -14.2199   26.0077 C   0  0  0  0  0  0  0  0  0  0  0  0
    9.9303  -16.5042   28.0737 O   0  0  0  0  0  0  0  0  0  0  0  0
   10.1572  -16.0878   29.2206 O   0  0  0  0  0  0  0  0  0  0  0  0
  2  1  1  1
  3  2  1  0
  3  4  1  0
  5  2  1  0
  5  6  2  0
  7  8  1  0
  8  9  2  0
 10  8  1  0
 10 11  1  0
 11 12  1  0
 14 13  1  6
 13 12  1  0
 14 15  1  0
 15  5  1  0
 16 14  1  0
 17 16  2  0
 18 16  1  0
 19 20  1  6
 19 18  1  0
 21 22  2  0
 21 20  1  0
 23 22  1  0
 24 25  2  0
 24 23  1  0
 25 21  1  0
 26 19  1  0
 27 26  2  0
 28 26  1  0
M  END
$$$$
