CRH.pdb
     RDKit          3D

 28 28  0  0  1  0  0  0  0  0999 V2000
   12.7408  -17.8272   16.8034 N   0  0  0  0  0  0  0  0  0  0  0  0
   11.9983  -18.6335   17.7311 C   0  0  1  0  0  0  0  0  0  0  0  0
   12.5660  -20.0404   17.8077 C   0  0  0  0  0  0  0  0  0  0  0  0
   12.0818  -21.0190   16.3777 S   0  0  0  0  0  0  0  0  0  0  0  0
   11.9584  -18.0191   19.0927 C   0  0  0  0  0  0  0  0  0  0  0  0
   12.9843  -17.4914   19.5920 O   0  0  0  0  0  0  0  0  0  0  0  0
    7.5450  -12.0902   18.6718 N   0  0  0  0  0  0  0  0  0  0  0  0
    8.1306  -13.1421   19.4419 C   0  0  0  0  0  0  0  0  0  0  0  0
    9.3813  -13.1918   19.6589 N   0  0  0  0  0  0  0  0  0  0  0  0
    7.2716  -14.1484   19.9696 N   0  0  0  0  0  0  0  0  0  0  0  0
    7.7647  -15.0608   20.9535 C   0  0  0  0  0  0  0  0  0  0  0  0
    8.7283  -16.0258   20.2971 C   0  0  0  0  0  0  0  0  0  0  0  0
    9.1233  -17.0413   21.3474 C   0  0  0  0  0  0  0  0  0  0  0  0
   10.5928  -17.3968   21.1264 C   0  0  2  0  0  0  0  0  0  0  0  0
   10.7400  -18.0272   19.8455 N   0  0  0  0  0  0  0  0  0  0  0  0
   10.9283  -18.3922   22.1945 C   0  0  0  0  0  0  0  0  0  0  0  0
   10.2695  -19.4563   22.2827 O   0  0  0  0  0  0  0  0  0  0  0  0
    9.8074  -13.9583   20.2017 N   0  0  0  0  0  0  0  0  0  0  0  0
   11.9717  -18.1819   23.1226 C   0  0  2  0  0  0  0  0  0  0  0  0
   12.1402  -19.0997   24.2152 C   0  0  0  0  0  0  0  0  0  0  0  0
   13.5613  -19.0908   24.7508 C   0  0  0  0  0  0  0  0  0  0  0  0
   14.4224  -19.6902   23.7207 C   0  0  0  0  0  0  0  0  0  0  0  0
   13.9921  -20.3243   22.5906 N   0  0  0  0  0  0  0  0  0  0  0  0
   15.0784  -20.7409   21.8897 C   0  0  0  0  0  0  0  0  0  0  0  0
   16.1600  -20.3581   22.5968 N   0  0  0  0  0  0  0  0  0  0  0  0
   15.7532  -19.7120   23.7227 C   0  0  0  0  0  0  0  0  0  0  0  0
   11.2342  -18.7840   25.3564 O   0  0  0  0  0  0  0  0  0  0  0  0
   10.4789  -17.8036   25.2643 O   0  0  0  0  0  0  0  0  0  0  0  0
  2  1  1  6
  3  2  1  0
  3  4  1  0
  5  2  1  0
  5  6  2  0
  7  8  1  0
  8  9  2  0
 10  8  1  0
 10 11  1  0
 11 12  1  0
 14 13  1  1
 13 12  1  0
 14 15  1  0
 15  5  1  0
 16 14  1  0
 17 16  2  0
 18 16  1  0
 19 20  1  6
 19 18  1  0
 21 22  2  0
 21 20  1  0
 23 22  1  0
 24 25  2  0
 24 23  1  0
 25 21  1  0
 26 19  1  0
 27 26  2  0
 28 26  1  0
M  END
$$$$
