CRH.pdb
     RDKit          3D

 28 28  0  0  1  0  0  0  0  0999 V2000
    7.8830  -13.8094   18.1903 N   0  0  0  0  0  0  0  0  0  0  0  0
    8.7310  -14.0375   19.3264 C   0  0  1  0  0  0  0  0  0  0  0  0
    9.0864  -12.7301   20.0136 C   0  0  0  0  0  0  0  0  0  0  0  0
   10.5662  -11.9978   19.2990 S   0  0  0  0  0  0  0  0  0  0  0  0
    8.1081  -14.9807   20.3040 C   0  0  0  0  0  0  0  0  0  0  0  0
    6.8627  -15.0032   20.4739 O   0  0  0  0  0  0  0  0  0  0  0  0
    7.3867  -22.2009   19.5667 N   0  0  0  0  0  0  0  0  0  0  0  0
    7.7260  -21.4562   18.3952 C   0  0  0  0  0  0  0  0  0  0  0  0
    7.3106  -21.7989   17.2446 N   0  0  0  0  0  0  0  0  0  0  0  0
    8.5510  -20.3047   18.5451 N   0  0  0  0  0  0  0  0  0  0  0  0
    9.0238  -19.9318   19.8417 C   0  0  0  0  0  0  0  0  0  0  0  0
    8.3805  -18.6234   20.2476 C   0  0  0  0  0  0  0  0  0  0  0  0
    8.9740  -18.2331   21.5839 C   0  0  0  0  0  0  0  0  0  0  0  0
    8.4146  -16.8626   21.9629 C   0  0  2  0  0  0  0  0  0  0  0  0
    8.9329  -15.8737   21.0610 N   0  0  0  0  0  0  0  0  0  0  0  0
    8.9395  -16.5829   23.3379 C   0  0  0  0  0  0  0  0  0  0  0  0
    8.8625  -17.4666   24.2251 O   0  0  0  0  0  0  0  0  0  0  0  0
    7.6109  -21.3050   16.3904 N   0  0  0  0  0  0  0  0  0  0  0  0
    9.5274  -15.3468   23.6852 C   0  0  2  0  0  0  0  0  0  0  0  0
    8.9734  -14.5810   24.7674 C   0  0  0  0  0  0  0  0  0  0  0  0
    7.5052  -14.2624   24.5448 C   0  0  0  0  0  0  0  0  0  0  0  0
    7.1186  -13.2543   25.5429 C   0  0  0  0  0  0  0  0  0  0  0  0
    7.9766  -12.5331   26.3227 N   0  0  0  0  0  0  0  0  0  0  0  0
    7.2470  -11.7074   27.1168 C   0  0  0  0  0  0  0  0  0  0  0  0
    5.9526  -11.9314   26.8154 N   0  0  0  0  0  0  0  0  0  0  0  0
    5.8769  -12.8837   25.8468 C   0  0  0  0  0  0  0  0  0  0  0  0
    9.0791  -15.2965   26.0712 O   0  0  0  0  0  0  0  0  0  0  0  0
    8.8343  -14.6719   27.1153 O   0  0  0  0  0  0  0  0  0  0  0  0
  2  1  1  6
  3  2  1  0
  3  4  1  0
  5  2  1  0
  5  6  2  0
  7  8  1  0
  8  9  2  0
 10  8  1  0
 10 11  1  0
 11 12  1  0
 14 13  1  6
 13 12  1  0
 14 15  1  0
 15  5  1  0
 16 14  1  0
 17 16  2  0
 18 16  1  0
 19 20  1  6
 19 18  1  0
 21 22  2  0
 21 20  1  0
 23 22  1  0
 24 25  2  0
 24 23  1  0
 25 21  1  0
 26 19  1  0
 27 26  2  0
 28 26  1  0
M  END
$$$$
