CRH.pdb
     RDKit          3D

 28 28  0  0  1  0  0  0  0  0999 V2000
    7.5533  -17.9983   14.0061 N   0  0  0  0  0  0  0  0  0  0  0  0
    8.6540  -17.1319   14.3219 C   0  0  1  0  0  0  0  0  0  0  0  0
    8.2974  -15.6787   14.0594 C   0  0  0  0  0  0  0  0  0  0  0  0
    7.7451  -15.4375   12.3642 S   0  0  0  0  0  0  0  0  0  0  0  0
    9.1084  -17.3037   15.7350 C   0  0  0  0  0  0  0  0  0  0  0  0
    8.2834  -17.5438   16.6527 O   0  0  0  0  0  0  0  0  0  0  0  0
   15.2141  -22.2362   15.8780 N   0  0  0  0  0  0  0  0  0  0  0  0
   13.9277  -22.4340   15.2877 C   0  0  0  0  0  0  0  0  0  0  0  0
   13.7161  -23.3631   14.4476 N   0  0  0  0  0  0  0  0  0  0  0  0
   12.8715  -21.5561   15.6658 N   0  0  0  0  0  0  0  0  0  0  0  0
   13.0684  -20.6231   16.7308 C   0  0  0  0  0  0  0  0  0  0  0  0
   11.8247  -19.7742   16.8835 C   0  0  0  0  0  0  0  0  0  0  0  0
   12.2843  -18.3655   17.1915 C   0  0  0  0  0  0  0  0  0  0  0  0
   11.0413  -17.4917   17.3527 C   0  0  2  0  0  0  0  0  0  0  0  0
   10.4997  -17.1952   16.0570 N   0  0  0  0  0  0  0  0  0  0  0  0
   11.5259  -16.2181   17.9751 C   0  0  0  0  0  0  0  0  0  0  0  0
   12.2419  -15.4327   17.3084 O   0  0  0  0  0  0  0  0  0  0  0  0
   12.7828  -23.5223   14.0388 N   0  0  0  0  0  0  0  0  0  0  0  0
   11.2066  -15.8565   19.3023 C   0  0  1  0  0  0  0  0  0  0  0  0
   11.6898  -14.6104   19.8300 C   0  0  0  0  0  0  0  0  0  0  0  0
   10.7651  -14.0477   20.8952 C   0  0  0  0  0  0  0  0  0  0  0  0
    9.4502  -13.8410   20.2704 C   0  0  0  0  0  0  0  0  0  0  0  0
    9.1448  -14.0689   18.9593 N   0  0  0  0  0  0  0  0  0  0  0  0
    7.8364  -13.7625   18.7617 C   0  0  0  0  0  0  0  0  0  0  0  0
    7.3557  -13.3510   19.9517 N   0  0  0  0  0  0  0  0  0  0  0  0
    8.3509  -13.4004   20.8778 C   0  0  0  0  0  0  0  0  0  0  0  0
   13.0413  -14.7489   20.4441 O   0  0  0  0  0  0  0  0  0  0  0  0
   13.5241  -15.8849   20.5723 O   0  0  0  0  0  0  0  0  0  0  0  0
  2  1  1  1
  3  2  1  0
  3  4  1  0
  5  2  1  0
  5  6  2  0
  7  8  1  0
  8  9  2  0
 10  8  1  0
 10 11  1  0
 11 12  1  0
 14 13  1  6
 13 12  1  0
 14 15  1  0
 15  5  1  0
 16 14  1  0
 17 16  2  0
 18 16  1  0
 19 20  1  6
 19 18  1  0
 21 22  2  0
 21 20  1  0
 23 22  1  0
 24 25  2  0
 24 23  1  0
 25 21  1  0
 26 19  1  0
 27 26  2  0
 28 26  1  0
M  END
$$$$
