STK.pdb
     RDKit          3D

 23 22  0  0  1  0  0  0  0  0999 V2000
   22.1493   -9.9055  -16.9839 O   0  0  0  0  0  0  0  0  0  0  0  0
   22.0202   -8.9931  -15.9456 C   0  0  0  0  0  0  0  0  0  0  0  0
   20.8649   -9.3961  -15.0225 C   0  0  2  0  0  0  0  0  0  0  0  0
   19.6186   -9.3173  -15.7583 N   0  0  0  0  0  0  0  0  0  0  0  0
   20.8256   -8.5140  -13.8275 C   0  0  0  0  0  0  0  0  0  0  0  0
   21.7656   -8.5003  -12.9929 O   0  0  0  0  0  0  0  0  0  0  0  0
   21.6784   -5.5452  -12.8764 C   0  0  0  0  0  0  0  0  0  0  0  0
   20.2025   -5.4605  -12.6555 C   0  0  1  0  0  0  0  0  0  0  0  0
   19.5146   -4.8630  -13.6780 O   0  0  0  0  0  0  0  0  0  0  0  0
   19.5919   -6.8412  -12.3695 C   0  0  2  0  0  0  0  0  0  0  0  0
   19.7299   -7.6492  -13.5730 N   0  0  0  0  0  0  0  0  0  0  0  0
   18.1925   -6.7590  -11.9250 C   0  0  0  0  0  0  0  0  0  0  0  0
   17.2800   -6.8967  -12.7771 O   0  0  0  0  0  0  0  0  0  0  0  0
   17.8344   -6.5324  -10.5788 N   0  0  0  0  0  0  0  0  0  0  0  0
   16.4666   -6.3115  -10.1234 C   0  0  1  0  0  0  0  0  0  0  0  0
   15.8532   -7.5279   -9.5540 C   0  0  0  0  0  0  0  0  0  0  0  0
   14.4277   -7.4739   -9.1608 C   0  0  0  0  0  0  0  0  0  0  0  0
   13.8351   -8.7234   -8.5819 C   0  0  0  0  0  0  0  0  0  0  0  0
   12.3834   -8.5266   -8.2232 C   0  0  0  0  0  0  0  0  0  0  0  0
   11.7829   -9.7165   -7.6810 N   0  0  0  0  0  0  0  0  0  0  0  0
   16.3286   -5.1217   -9.2990 C   0  0  0  0  0  0  0  0  0  0  0  0
   17.3332   -4.6732   -8.6842 O   0  0  0  0  0  0  0  0  0  0  0  0
   15.1171   -4.4320   -9.1454 O   0  0  0  0  0  0  0  0  0  0  0  0
  2  1  1  0
  3  4  1  6
  3  2  1  0
  5  6  2  0
  5  3  1  0
  8  7  1  6
  8 10  1  0
  9  8  1  0
 10 11  1  6
 10 12  1  0
 11  5  1  0
 12 14  1  0
 13 12  2  0
 14 15  1  0
 15 21  1  0
 15 16  1  1
 16 17  1  0
 18 17  1  0
 19 18  1  0
 20 19  1  0
 21 22  2  0
 21 23  1  0
M  END
$$$$
