STK.pdb
     RDKit          3D

 23 22  0  0  1  0  0  0  0  0999 V2000
   19.2883  -11.9572  -19.6758 O   0  0  0  0  0  0  0  0  0  0  0  0
   19.6001  -11.3780  -18.4532 C   0  0  0  0  0  0  0  0  0  0  0  0
   20.8615  -12.0204  -17.8655 C   0  0  2  0  0  0  0  0  0  0  0  0
   20.5482  -13.3640  -17.4210 N   0  0  0  0  0  0  0  0  0  0  0  0
   21.3816  -11.2029  -16.7390 C   0  0  0  0  0  0  0  0  0  0  0  0
   20.8663  -11.2633  -15.5939 O   0  0  0  0  0  0  0  0  0  0  0  0
   24.7269  -11.2281  -15.2417 C   0  0  0  0  0  0  0  0  0  0  0  0
   24.5152   -9.8188  -15.6926 C   0  0  1  0  0  0  0  0  0  0  0  0
   25.1653   -9.4968  -16.8542 O   0  0  0  0  0  0  0  0  0  0  0  0
   23.0216   -9.4877  -15.8363 C   0  0  2  0  0  0  0  0  0  0  0  0
   22.4798  -10.3193  -16.9018 N   0  0  0  0  0  0  0  0  0  0  0  0
   22.7810   -8.0582  -16.0838 C   0  0  0  0  0  0  0  0  0  0  0  0
   22.5737   -7.6769  -17.2626 O   0  0  0  0  0  0  0  0  0  0  0  0
   22.7730   -7.0983  -15.0494 N   0  0  0  0  0  0  0  0  0  0  0  0
   22.4891   -5.6820  -15.2514 C   0  0  1  0  0  0  0  0  0  0  0  0
   21.2819   -5.4551  -16.0708 C   0  0  0  0  0  0  0  0  0  0  0  0
   19.9631   -5.5039  -15.4016 C   0  0  0  0  0  0  0  0  0  0  0  0
   18.7592   -5.2328  -16.2529 C   0  0  0  0  0  0  0  0  0  0  0  0
   17.4817   -5.4527  -15.4818 C   0  0  0  0  0  0  0  0  0  0  0  0
   16.3087   -5.1687  -16.2653 N   0  0  0  0  0  0  0  0  0  0  0  0
   22.5368   -4.9127  -14.0184 C   0  0  0  0  0  0  0  0  0  0  0  0
   22.5319   -3.6536  -14.0725 O   0  0  0  0  0  0  0  0  0  0  0  0
   22.5902   -5.5039  -12.7477 O   0  0  0  0  0  0  0  0  0  0  0  0
  2  1  1  0
  3  4  1  1
  3  2  1  0
  5  6  2  0
  5  3  1  0
  8  7  1  6
  8 10  1  0
  9  8  1  0
 10 11  1  6
 10 12  1  0
 11  5  1  0
 12 14  1  0
 13 12  2  0
 14 15  1  0
 15 21  1  0
 15 16  1  1
 16 17  1  0
 18 17  1  0
 19 18  1  0
 20 19  1  0
 21 22  2  0
 21 23  1  0
M  END
$$$$
