STK.pdb
     RDKit          3D

 23 22  0  0  1  0  0  0  0  0999 V2000
   21.8032  -11.9333  -19.2726 O   0  0  0  0  0  0  0  0  0  0  0  0
   20.9115  -10.9891  -18.7821 C   0  0  0  0  0  0  0  0  0  0  0  0
   20.7228  -11.1684  -17.2717 C   0  0  2  0  0  0  0  0  0  0  0  0
   20.0016  -12.4013  -17.0255 N   0  0  0  0  0  0  0  0  0  0  0  0
   19.9901  -10.0088  -16.7005 C   0  0  0  0  0  0  0  0  0  0  0  0
   18.7348   -9.9476  -16.7327 O   0  0  0  0  0  0  0  0  0  0  0  0
   19.7016   -9.1925  -13.3199 C   0  0  0  0  0  0  0  0  0  0  0  0
   20.3122   -7.9591  -13.9028 C   0  0  1  0  0  0  0  0  0  0  0  0
   21.6638   -7.8551  -13.7078 O   0  0  0  0  0  0  0  0  0  0  0  0
   20.0023   -7.8271  -15.4020 C   0  0  2  0  0  0  0  0  0  0  0  0
   20.6695   -8.9206  -16.0944 N   0  0  0  0  0  0  0  0  0  0  0  0
   20.3923   -6.5178  -15.9464 C   0  0  0  0  0  0  0  0  0  0  0  0
   21.5572   -6.3733  -16.3935 O   0  0  0  0  0  0  0  0  0  0  0  0
   19.5092   -5.4178  -15.9872 N   0  0  0  0  0  0  0  0  0  0  0  0
   19.8538   -4.1137  -16.5420 C   0  0  1  0  0  0  0  0  0  0  0  0
   18.6851   -3.4081  -17.1046 C   0  0  0  0  0  0  0  0  0  0  0  0
   18.8948   -2.0672  -17.6941 C   0  0  0  0  0  0  0  0  0  0  0  0
   17.6917   -1.3830  -18.2705 C   0  0  0  0  0  0  0  0  0  0  0  0
   18.0506   -0.0363  -18.8471 C   0  0  0  0  0  0  0  0  0  0  0  0
   16.8920    0.7269  -19.2285 N   0  0  0  0  0  0  0  0  0  0  0  0
   20.6692   -3.3126  -15.6434 C   0  0  0  0  0  0  0  0  0  0  0  0
   20.3406   -3.2126  -14.4308 O   0  0  0  0  0  0  0  0  0  0  0  0
   21.8225   -2.6306  -16.0578 O   0  0  0  0  0  0  0  0  0  0  0  0
  2  1  1  0
  3  4  1  6
  3  2  1  0
  5  6  2  0
  5  3  1  0
  8  7  1  6
  8 10  1  0
  9  8  1  0
 10 11  1  6
 10 12  1  0
 11  5  1  0
 12 14  1  0
 13 12  2  0
 14 15  1  0
 15 21  1  0
 15 16  1  1
 16 17  1  0
 18 17  1  0
 19 18  1  0
 20 19  1  0
 21 22  2  0
 21 23  1  0
M  END
$$$$
