STK.pdb
     RDKit          3D

 23 22  0  0  1  0  0  0  0  0999 V2000
   17.8148  -12.6631  -18.6573 O   0  0  0  0  0  0  0  0  0  0  0  0
   17.7793  -11.5851  -17.7832 C   0  0  0  0  0  0  0  0  0  0  0  0
   18.8220  -11.7637  -16.6742 C   0  0  2  0  0  0  0  0  0  0  0  0
   18.4529  -12.8993  -15.8526 N   0  0  0  0  0  0  0  0  0  0  0  0
   18.9188  -10.5302  -15.8515 C   0  0  0  0  0  0  0  0  0  0  0  0
   18.1277  -10.3154  -14.8984 O   0  0  0  0  0  0  0  0  0  0  0  0
   21.5554   -9.5788  -13.6604 C   0  0  0  0  0  0  0  0  0  0  0  0
   21.4764   -8.4413  -14.6267 C   0  0  1  0  0  0  0  0  0  0  0  0
   22.4396   -8.4629  -15.6001 O   0  0  0  0  0  0  0  0  0  0  0  0
   20.0904   -8.3504  -15.2837 C   0  0  2  0  0  0  0  0  0  0  0  0
   19.9045   -9.5406  -16.1017 N   0  0  0  0  0  0  0  0  0  0  0  0
   19.9158   -7.1177  -16.0663 C   0  0  0  0  0  0  0  0  0  0  0  0
   20.4127   -7.0594  -17.2185 O   0  0  0  0  0  0  0  0  0  0  0  0
   19.2112   -5.9983  -15.5744 N   0  0  0  0  0  0  0  0  0  0  0  0
   19.0192   -4.7607  -16.3220 C   0  0  1  0  0  0  0  0  0  0  0  0
   17.5945   -4.4061  -16.4789 C   0  0  0  0  0  0  0  0  0  0  0  0
   16.7348   -5.3035  -17.2821 C   0  0  0  0  0  0  0  0  0  0  0  0
   15.4969   -5.8298  -16.6201 C   0  0  0  0  0  0  0  0  0  0  0  0
   14.6871   -6.6788  -17.5679 C   0  0  0  0  0  0  0  0  0  0  0  0
   13.4994   -7.2109  -16.9541 N   0  0  0  0  0  0  0  0  0  0  0  0
   19.8642   -3.6758  -15.8494 C   0  0  0  0  0  0  0  0  0  0  0  0
   19.8642   -2.5763  -16.4653 O   0  0  0  0  0  0  0  0  0  0  0  0
   20.6964   -3.7862  -14.7259 O   0  0  0  0  0  0  0  0  0  0  0  0
  2  1  1  0
  3  4  1  1
  3  2  1  0
  5  6  2  0
  5  3  1  0
  8  7  1  6
  8 10  1  0
  9  8  1  0
 10 11  1  6
 10 12  1  0
 11  5  1  0
 12 14  1  0
 13 12  2  0
 14 15  1  0
 15 21  1  0
 15 16  1  1
 16 17  1  0
 18 17  1  0
 19 18  1  0
 20 19  1  0
 21 22  2  0
 21 23  1  0
M  END
$$$$
