STK.pdb
     RDKit          3D

 23 22  0  0  1  0  0  0  0  0999 V2000
   14.8182  -14.9854  -20.0721 O   0  0  0  0  0  0  0  0  0  0  0  0
   14.8309  -14.0609  -19.0365 C   0  0  0  0  0  0  0  0  0  0  0  0
   15.7714  -14.5254  -17.9190 C   0  0  2  0  0  0  0  0  0  0  0  0
   15.1933  -15.6794  -17.2596 N   0  0  0  0  0  0  0  0  0  0  0  0
   16.0019  -13.4260  -16.9464 C   0  0  0  0  0  0  0  0  0  0  0  0
   15.1842  -13.1883  -16.0216 O   0  0  0  0  0  0  0  0  0  0  0  0
   18.6563  -13.2097  -14.5949 C   0  0  0  0  0  0  0  0  0  0  0  0
   18.7791  -11.9283  -15.3545 C   0  0  1  0  0  0  0  0  0  0  0  0
   19.7955  -11.9143  -16.2723 O   0  0  0  0  0  0  0  0  0  0  0  0
   17.4609  -11.5521  -16.0488 C   0  0  2  0  0  0  0  0  0  0  0  0
   17.1508  -12.5961  -17.0152 N   0  0  0  0  0  0  0  0  0  0  0  0
   17.5128  -10.2240  -16.6781 C   0  0  0  0  0  0  0  0  0  0  0  0
   17.4502  -10.1471  -17.9303 O   0  0  0  0  0  0  0  0  0  0  0  0
   17.6292   -9.0326  -15.9307 N   0  0  0  0  0  0  0  0  0  0  0  0
   17.5135   -7.6954  -16.5016 C   0  0  1  0  0  0  0  0  0  0  0  0
   16.3613   -7.5649  -17.4157 C   0  0  0  0  0  0  0  0  0  0  0  0
   16.0934   -6.2405  -18.0187 C   0  0  0  0  0  0  0  0  0  0  0  0
   14.9028   -6.1346  -18.9236 C   0  0  0  0  0  0  0  0  0  0  0  0
   14.7440   -4.7334  -19.4589 C   0  0  0  0  0  0  0  0  0  0  0  0
   13.6874   -4.6305  -20.4302 N   0  0  0  0  0  0  0  0  0  0  0  0
   17.6171   -6.6422  -15.5046 C   0  0  0  0  0  0  0  0  0  0  0  0
   16.9340   -6.7187  -14.4483 O   0  0  0  0  0  0  0  0  0  0  0  0
   18.4496   -5.5235  -15.6551 O   0  0  0  0  0  0  0  0  0  0  0  0
  2  1  1  0
  3  4  1  1
  3  2  1  0
  5  6  2  0
  5  3  1  0
  8  7  1  6
  8 10  1  0
  9  8  1  0
 10 11  1  6
 10 12  1  0
 11  5  1  0
 12 14  1  0
 13 12  2  0
 14 15  1  0
 15 21  1  0
 15 16  1  1
 16 17  1  0
 18 17  1  0
 19 18  1  0
 20 19  1  0
 21 22  2  0
 21 23  1  0
M  END
$$$$
