STK.pdb
     RDKit          3D

 23 22  0  0  1  0  0  0  0  0999 V2000
   16.0890  -11.3701  -14.7758 O   0  0  0  0  0  0  0  0  0  0  0  0
   17.1483  -11.8870  -15.5093 C   0  0  0  0  0  0  0  0  0  0  0  0
   18.2059  -10.8048  -15.7530 C   0  0  2  0  0  0  0  0  0  0  0  0
   19.3121  -11.3789  -16.4930 N   0  0  0  0  0  0  0  0  0  0  0  0
   18.6755  -10.2401  -14.4613 C   0  0  0  0  0  0  0  0  0  0  0  0
   19.3456  -10.9291  -13.6509 O   0  0  0  0  0  0  0  0  0  0  0  0
   21.0810   -7.8433  -13.5537 C   0  0  0  0  0  0  0  0  0  0  0  0
   19.8125   -7.2527  -13.0281 C   0  0  1  0  0  0  0  0  0  0  0  0
   19.2904   -6.2565  -13.8095 O   0  0  0  0  0  0  0  0  0  0  0  0
   18.7413   -8.3287  -12.7916 C   0  0  2  0  0  0  0  0  0  0  0  0
   18.3911   -8.9024  -14.0833 N   0  0  0  0  0  0  0  0  0  0  0  0
   17.5603   -7.8053  -12.0887 C   0  0  0  0  0  0  0  0  0  0  0  0
   16.4342   -7.9209  -12.6331 O   0  0  0  0  0  0  0  0  0  0  0  0
   17.6422   -7.1794  -10.8266 N   0  0  0  0  0  0  0  0  0  0  0  0
   16.4874   -6.6975  -10.0773 C   0  0  1  0  0  0  0  0  0  0  0  0
   15.4478   -7.7321   -9.9069 C   0  0  0  0  0  0  0  0  0  0  0  0
   14.2296   -7.3805   -9.1441 C   0  0  0  0  0  0  0  0  0  0  0  0
   13.1947   -8.4535   -8.9848 C   0  0  0  0  0  0  0  0  0  0  0  0
   11.9874   -7.9443   -8.2378 C   0  0  0  0  0  0  0  0  0  0  0  0
   10.9364   -8.9236   -8.1551 N   0  0  0  0  0  0  0  0  0  0  0  0
   16.8549   -6.0020   -8.8544 C   0  0  0  0  0  0  0  0  0  0  0  0
   15.9824   -5.3391   -8.2318 O   0  0  0  0  0  0  0  0  0  0  0  0
   18.1508   -6.0266   -8.3185 O   0  0  0  0  0  0  0  0  0  0  0  0
  2  1  1  0
  3  4  1  1
  3  2  1  0
  5  6  2  0
  5  3  1  0
  8  7  1  6
  8 10  1  0
  9  8  1  0
 10 11  1  6
 10 12  1  0
 11  5  1  0
 12 14  1  0
 13 12  2  0
 14 15  1  0
 15 21  1  0
 15 16  1  1
 16 17  1  0
 18 17  1  0
 19 18  1  0
 20 19  1  0
 21 22  2  0
 21 23  1  0
M  END
$$$$
