STK.pdb
     RDKit          3D

 23 22  0  0  1  0  0  0  0  0999 V2000
   22.8019  -21.1745  -16.4534 O   0  0  0  0  0  0  0  0  0  0  0  0
   22.6233  -19.9042  -15.9227 C   0  0  0  0  0  0  0  0  0  0  0  0
   23.9798  -19.2466  -15.6461 C   0  0  2  0  0  0  0  0  0  0  0  0
   24.7134  -20.0531  -14.6909 N   0  0  0  0  0  0  0  0  0  0  0  0
   23.7901  -17.8659  -15.1310 C   0  0  0  0  0  0  0  0  0  0  0  0
   23.4482  -17.6529  -13.9401 O   0  0  0  0  0  0  0  0  0  0  0  0
   26.3046  -15.3199  -14.6888 C   0  0  0  0  0  0  0  0  0  0  0  0
   25.3182  -14.7320  -15.6456 C   0  0  1  0  0  0  0  0  0  0  0  0
   25.6939  -14.8124  -16.9602 O   0  0  0  0  0  0  0  0  0  0  0  0
   23.9235  -15.3540  -15.4757 C   0  0  2  0  0  0  0  0  0  0  0  0
   23.9850  -16.7275  -15.9552 N   0  0  0  0  0  0  0  0  0  0  0  0
   22.8741  -14.5837  -16.1598 C   0  0  0  0  0  0  0  0  0  0  0  0
   22.1219  -15.1779  -16.9714 O   0  0  0  0  0  0  0  0  0  0  0  0
   22.6784  -13.2035  -15.9397 N   0  0  0  0  0  0  0  0  0  0  0  0
   21.5386  -12.4487  -16.4482 C   0  0  1  0  0  0  0  0  0  0  0  0
   20.2441  -13.0541  -16.0767 C   0  0  0  0  0  0  0  0  0  0  0  0
   19.0040  -12.3481  -16.4680 C   0  0  0  0  0  0  0  0  0  0  0  0
   17.7091  -12.9364  -15.9937 C   0  0  0  0  0  0  0  0  0  0  0  0
   16.5368  -12.0759  -16.3940 C   0  0  0  0  0  0  0  0  0  0  0  0
   15.2933  -12.5477  -15.8448 N   0  0  0  0  0  0  0  0  0  0  0  0
   21.6384  -11.0228  -16.1817 C   0  0  0  0  0  0  0  0  0  0  0  0
   22.2560  -10.6250  -15.1577 O   0  0  0  0  0  0  0  0  0  0  0  0
   21.0742  -10.0461  -17.0152 O   0  0  0  0  0  0  0  0  0  0  0  0
  2  1  1  0
  3  4  1  1
  3  2  1  0
  5  6  2  0
  5  3  1  0
  8  7  1  1
  8 10  1  0
  9  8  1  0
 10 11  1  6
 10 12  1  0
 11  5  1  0
 12 14  1  0
 13 12  2  0
 14 15  1  0
 15 21  1  0
 15 16  1  1
 16 17  1  0
 18 17  1  0
 19 18  1  0
 20 19  1  0
 21 22  2  0
 21 23  1  0
M  END
$$$$
