STK.pdb
     RDKit          3D

 23 22  0  0  1  0  0  0  0  0999 V2000
   23.3205  -21.3620   -8.5133 O   0  0  0  0  0  0  0  0  0  0  0  0
   23.7006  -20.5781   -9.5942 C   0  0  0  0  0  0  0  0  0  0  0  0
   24.9802  -21.1321  -10.2305 C   0  0  2  0  0  0  0  0  0  0  0  0
   26.0693  -21.0241   -9.2801 N   0  0  0  0  0  0  0  0  0  0  0  0
   25.2987  -20.3934  -11.4797 C   0  0  0  0  0  0  0  0  0  0  0  0
   25.8602  -19.2691  -11.4502 O   0  0  0  0  0  0  0  0  0  0  0  0
   27.5572  -21.0502  -14.1478 C   0  0  0  0  0  0  0  0  0  0  0  0
   26.2302  -20.9932  -14.8333 C   0  0  1  0  0  0  0  0  0  0  0  0
   25.7112  -22.2188  -15.1560 O   0  0  0  0  0  0  0  0  0  0  0  0
   25.1999  -20.2048  -14.0097 C   0  0  2  0  0  0  0  0  0  0  0  0
   24.9853  -20.9199  -12.7596 N   0  0  0  0  0  0  0  0  0  0  0  0
   23.9407  -19.9886  -14.7378 C   0  0  0  0  0  0  0  0  0  0  0  0
   22.9881  -20.7843  -14.5447 O   0  0  0  0  0  0  0  0  0  0  0  0
   23.7599  -18.9221  -15.6441 N   0  0  0  0  0  0  0  0  0  0  0  0
   22.5324  -18.6882  -16.3963 C   0  0  1  0  0  0  0  0  0  0  0  0
   22.4988  -17.3550  -17.0299 C   0  0  0  0  0  0  0  0  0  0  0  0
   21.2253  -16.6019  -17.0074 C   0  0  0  0  0  0  0  0  0  0  0  0
   21.2343  -15.2339  -17.6209 C   0  0  0  0  0  0  0  0  0  0  0  0
   19.8958  -14.5557  -17.4681 C   0  0  0  0  0  0  0  0  0  0  0  0
   19.8641  -13.2538  -18.0802 N   0  0  0  0  0  0  0  0  0  0  0  0
   22.1929  -19.7887  -17.2840 C   0  0  0  0  0  0  0  0  0  0  0  0
   23.1138  -20.4262  -17.8618 O   0  0  0  0  0  0  0  0  0  0  0  0
   20.8730  -20.1880  -17.5395 O   0  0  0  0  0  0  0  0  0  0  0  0
  2  1  1  0
  3  4  1  1
  3  2  1  0
  5  6  2  0
  5  3  1  0
  8  7  1  1
  8 10  1  0
  9  8  1  0
 10 11  1  1
 10 12  1  0
 11  5  1  0
 12 14  1  0
 13 12  2  0
 14 15  1  0
 15 21  1  0
 15 16  1  6
 16 17  1  0
 18 17  1  0
 19 18  1  0
 20 19  1  0
 21 22  2  0
 21 23  1  0
M  END
$$$$
