STK.pdb
     RDKit          3D

 23 22  0  0  1  0  0  0  0  0999 V2000
   17.0769  -12.0340  -17.8899 O   0  0  0  0  0  0  0  0  0  0  0  0
   17.7162  -11.3366  -16.8740 C   0  0  0  0  0  0  0  0  0  0  0  0
   19.1900  -11.7490  -16.7903 C   0  0  2  0  0  0  0  0  0  0  0  0
   19.2718  -13.1562  -16.4527 N   0  0  0  0  0  0  0  0  0  0  0  0
   19.9014  -10.9246  -15.7793 C   0  0  0  0  0  0  0  0  0  0  0  0
   19.6351  -11.0177  -14.5542 O   0  0  0  0  0  0  0  0  0  0  0  0
   23.4443  -10.9670  -15.0305 C   0  0  0  0  0  0  0  0  0  0  0  0
   23.1586   -9.5414  -15.3771 C   0  0  1  0  0  0  0  0  0  0  0  0
   23.5566   -9.1785  -16.6363 O   0  0  0  0  0  0  0  0  0  0  0  0
   21.6714   -9.2006  -15.1951 C   0  0  2  0  0  0  0  0  0  0  0  0
   20.9104   -9.9974  -16.1472 N   0  0  0  0  0  0  0  0  0  0  0  0
   21.3985   -7.7634  -15.3453 C   0  0  0  0  0  0  0  0  0  0  0  0
   20.6463   -7.3866  -16.2780 O   0  0  0  0  0  0  0  0  0  0  0  0
   21.9476   -6.7911  -14.4823 N   0  0  0  0  0  0  0  0  0  0  0  0
   21.6068   -5.3737  -14.5265 C   0  0  1  0  0  0  0  0  0  0  0  0
   20.1532   -5.1348  -14.4261 C   0  0  0  0  0  0  0  0  0  0  0  0
   19.4357   -4.6701  -15.6339 C   0  0  0  0  0  0  0  0  0  0  0  0
   17.9637   -4.4213  -15.4957 C   0  0  0  0  0  0  0  0  0  0  0  0
   17.3640   -3.9445  -16.7949 C   0  0  0  0  0  0  0  0  0  0  0  0
   15.9315   -3.8252  -16.7303 N   0  0  0  0  0  0  0  0  0  0  0  0
   22.4160   -4.5676  -13.6267 C   0  0  0  0  0  0  0  0  0  0  0  0
   22.8993   -5.0932  -12.5882 O   0  0  0  0  0  0  0  0  0  0  0  0
   22.6936   -3.2115  -13.8527 O   0  0  0  0  0  0  0  0  0  0  0  0
  2  1  1  0
  3  4  1  1
  3  2  1  0
  5  6  2  0
  5  3  1  0
  8  7  1  6
  8 10  1  0
  9  8  1  0
 10 11  1  6
 10 12  1  0
 11  5  1  0
 12 14  1  0
 13 12  2  0
 14 15  1  0
 15 21  1  0
 15 16  1  1
 16 17  1  0
 18 17  1  0
 19 18  1  0
 20 19  1  0
 21 22  2  0
 21 23  1  0
M  END
$$$$
