STK.pdb
     RDKit          3D

 23 22  0  0  1  0  0  0  0  0999 V2000
   19.7577  -19.9960  -18.8950 O   0  0  0  0  0  0  0  0  0  0  0  0
   19.5540  -19.6385  -17.5691 C   0  0  0  0  0  0  0  0  0  0  0  0
   20.7592  -18.8551  -17.0373 C   0  0  2  0  0  0  0  0  0  0  0  0
   21.5897  -19.7401  -16.2448 N   0  0  0  0  0  0  0  0  0  0  0  0
   20.3057  -17.6954  -16.2266 C   0  0  0  0  0  0  0  0  0  0  0  0
   19.9929  -17.8254  -15.0160 O   0  0  0  0  0  0  0  0  0  0  0  0
   21.0354  -16.2067  -14.0348 C   0  0  0  0  0  0  0  0  0  0  0  0
   20.9292  -15.0123  -14.9270 C   0  0  1  0  0  0  0  0  0  0  0  0
   22.1087  -14.6464  -15.5191 O   0  0  0  0  0  0  0  0  0  0  0  0
   19.8552  -15.2062  -16.0087 C   0  0  2  0  0  0  0  0  0  0  0  0
   20.2047  -16.3920  -16.7783 N   0  0  0  0  0  0  0  0  0  0  0  0
   19.6997  -14.0237  -16.8690 C   0  0  0  0  0  0  0  0  0  0  0  0
   20.4644  -13.8918  -17.8568 O   0  0  0  0  0  0  0  0  0  0  0  0
   18.7249  -13.0319  -16.6292 N   0  0  0  0  0  0  0  0  0  0  0  0
   18.5622  -11.8325  -17.4430 C   0  0  1  0  0  0  0  0  0  0  0  0
   17.3329  -11.0840  -17.1135 C   0  0  0  0  0  0  0  0  0  0  0  0
   17.0639   -9.8251  -17.8431 C   0  0  0  0  0  0  0  0  0  0  0  0
   15.7962   -9.1005  -17.5028 C   0  0  0  0  0  0  0  0  0  0  0  0
   15.6433   -7.8467  -18.3271 C   0  0  0  0  0  0  0  0  0  0  0  0
   14.4501   -7.1127  -17.9985 N   0  0  0  0  0  0  0  0  0  0  0  0
   19.7670  -11.0206  -17.5035 C   0  0  0  0  0  0  0  0  0  0  0  0
   20.0999  -10.4852  -18.5947 O   0  0  0  0  0  0  0  0  0  0  0  0
   20.5963  -10.7960  -16.3950 O   0  0  0  0  0  0  0  0  0  0  0  0
  2  1  1  0
  3  4  1  1
  3  2  1  0
  5  6  2  0
  5  3  1  0
  8  7  1  6
  8 10  1  0
  9  8  1  0
 10 11  1  6
 10 12  1  0
 11  5  1  0
 12 14  1  0
 13 12  2  0
 14 15  1  0
 15 21  1  0
 15 16  1  1
 16 17  1  0
 18 17  1  0
 19 18  1  0
 20 19  1  0
 21 22  2  0
 21 23  1  0
M  END
$$$$
