LRE.pdb
     RDKit          3D

 29 28  0  0  1  0  0  0  0  0999 V2000
   26.6591  -21.7070   -7.4157 C   0  0  0  0  0  0  0  0  0  0  0  0
   27.4816  -20.5061   -7.8932 C   0  0  2  0  0  0  0  0  0  0  0  0
   27.1956  -19.2995   -7.0292 C   0  0  0  0  0  0  0  0  0  0  0  0
   27.0441  -20.1530   -9.3137 C   0  0  0  0  0  0  0  0  0  0  0  0
   27.5299  -21.2469  -10.2038 C   0  0  2  0  0  0  0  0  0  0  0  0
   28.9515  -21.3639  -10.1400 N   0  0  0  0  0  0  0  0  0  0  0  0
   27.0018  -21.0094  -11.5698 C   0  0  0  0  0  0  0  0  0  0  0  0
   27.7920  -20.5828  -12.4376 O   0  0  0  0  0  0  0  0  0  0  0  0
   20.9203  -23.7413  -15.2237 N   0  0  0  0  0  0  0  0  0  0  0  0
   21.2479  -24.8518  -14.3501 C   0  0  0  0  0  0  0  0  0  0  0  0
   20.3017  -25.5484  -13.9024 N   0  0  0  0  0  0  0  0  0  0  0  0
   22.5801  -25.1141  -14.0386 N   0  0  0  0  0  0  0  0  0  0  0  0
   23.7072  -24.2824  -14.3121 C   0  0  0  0  0  0  0  0  0  0  0  0
   23.7655  -22.9826  -13.5717 C   0  0  0  0  0  0  0  0  0  0  0  0
   25.0545  -22.2754  -13.9564 C   0  0  0  0  0  0  0  0  0  0  0  0
   25.2496  -20.9390  -13.2952 C   0  0  2  0  0  0  0  0  0  0  0  0
   25.6599  -21.2433  -11.9241 N   0  0  0  0  0  0  0  0  0  0  0  0
   23.8941  -20.3083  -13.2632 C   0  0  0  0  0  0  0  0  0  0  0  0
   23.4367  -19.8456  -12.2062 O   0  0  0  0  0  0  0  0  0  0  0  0
   20.3613  -26.3788  -13.3490 N   0  0  0  0  0  0  0  0  0  0  0  0
   23.1431  -20.2455  -14.4484 C   0  0  2  0  0  0  0  0  0  0  0  0
   22.5739  -18.9546  -14.9117 C   0  0  0  0  0  0  0  0  0  0  0  0
   23.4895  -18.4904  -15.9913 C   0  0  0  0  0  0  0  0  0  0  0  0
   24.1917  -17.2327  -15.6069 C   0  0  0  0  0  0  0  0  0  0  0  0
   25.3475  -16.9867  -16.4898 O   0  0  0  0  0  0  0  0  0  0  0  0
   25.5638  -15.7797  -16.8702 C   0  0  0  0  0  0  0  0  0  0  0  0
   21.1925  -19.2285  -15.3392 O   0  0  0  0  0  0  0  0  0  0  0  0
   20.3999  -18.3060  -15.6595 O   0  0  0  0  0  0  0  0  0  0  0  0
   26.2137  -17.9575  -16.9404 O   0  0  0  0  0  0  0  0  0  0  0  0
  2  1  1  1
  2  3  1  0
  2  4  1  0
  5  6  1  6
  5  4  1  0
  7  5  1  0
  8  7  2  0
 10  9  1  0
 10 12  1  0
 11 10  2  0
 13 12  1  0
 13 14  1  0
 14 15  1  0
 16 15  1  6
 16 17  1  0
 17  7  1  0
 18 16  1  0
 18 19  2  0
 20 18  1  0
 21 20  1  0
 21 22  1  1
 23 24  1  0
 23 22  1  0
 24 25  2  0
 26 21  1  0
 27 26  2  0
 28 24  1  0
 29 26  1  0
M  END
$$$$
