LRE.pdb
     RDKit          3D

 29 28  0  0  1  0  0  0  0  0999 V2000
   28.7207  -18.1090  -15.8598 C   0  0  0  0  0  0  0  0  0  0  0  0
   28.1004  -18.9736  -16.9617 C   0  0  2  0  0  0  0  0  0  0  0  0
   27.7848  -18.1285  -18.1743 C   0  0  0  0  0  0  0  0  0  0  0  0
   26.7745  -19.5338  -16.4496 C   0  0  0  0  0  0  0  0  0  0  0  0
   27.0967  -20.4482  -15.3160 C   0  0  2  0  0  0  0  0  0  0  0  0
   27.8886  -21.5508  -15.7585 N   0  0  0  0  0  0  0  0  0  0  0  0
   25.8279  -20.8399  -14.6542 C   0  0  0  0  0  0  0  0  0  0  0  0
   25.1706  -21.7762  -15.1548 O   0  0  0  0  0  0  0  0  0  0  0  0
   23.5233  -22.2262   -7.5104 N   0  0  0  0  0  0  0  0  0  0  0  0
   22.7346  -21.0382   -7.7756 C   0  0  0  0  0  0  0  0  0  0  0  0
   21.5997  -20.9529   -7.2414 N   0  0  0  0  0  0  0  0  0  0  0  0
   23.2490  -20.0389   -8.5988 N   0  0  0  0  0  0  0  0  0  0  0  0
   24.5184  -20.0306   -9.2510 C   0  0  0  0  0  0  0  0  0  0  0  0
   24.6115  -20.8071  -10.5275 C   0  0  0  0  0  0  0  0  0  0  0  0
   23.9240  -20.0061  -11.6209 C   0  0  0  0  0  0  0  0  0  0  0  0
   24.0278  -20.6130  -12.9927 C   0  0  2  0  0  0  0  0  0  0  0  0
   25.3398  -20.2057  -13.4964 N   0  0  0  0  0  0  0  0  0  0  0  0
   22.9694  -19.9404  -13.8074 C   0  0  0  0  0  0  0  0  0  0  0  0
   23.0525  -18.7320  -14.0785 O   0  0  0  0  0  0  0  0  0  0  0  0
   20.9468  -20.1987   -7.3077 N   0  0  0  0  0  0  0  0  0  0  0  0
   21.8771  -20.6961  -14.2638 C   0  0  2  0  0  0  0  0  0  0  0  0
   20.7989  -20.0566  -15.0597 C   0  0  0  0  0  0  0  0  0  0  0  0
   20.7408  -20.8317  -16.3305 C   0  0  0  0  0  0  0  0  0  0  0  0
   21.0215  -19.9650  -17.5107 C   0  0  0  0  0  0  0  0  0  0  0  0
   20.7360  -20.6822  -18.7676 O   0  0  0  0  0  0  0  0  0  0  0  0
   20.3140  -21.8918  -18.6839 C   0  0  0  0  0  0  0  0  0  0  0  0
   19.5777  -20.1089  -14.2398 O   0  0  0  0  0  0  0  0  0  0  0  0
   18.6011  -19.3452  -14.4514 O   0  0  0  0  0  0  0  0  0  0  0  0
   20.8907  -20.1514  -20.0287 O   0  0  0  0  0  0  0  0  0  0  0  0
  2  1  1  1
  2  3  1  0
  2  4  1  0
  5  6  1  6
  5  4  1  0
  7  5  1  0
  8  7  2  0
 10  9  1  0
 10 12  1  0
 11 10  2  0
 13 12  1  0
 13 14  1  0
 14 15  1  0
 16 15  1  1
 16 17  1  0
 17  7  1  0
 18 16  1  0
 18 19  2  0
 20 18  1  0
 21 20  1  0
 21 22  1  1
 23 24  1  0
 23 22  1  0
 24 25  2  0
 26 21  1  0
 27 26  2  0
 28 24  1  0
 29 26  1  0
M  END
$$$$
