LRE.pdb
     RDKit          3D

 29 28  0  0  1  0  0  0  0  0999 V2000
   25.5396  -15.5328  -18.6809 C   0  0  0  0  0  0  0  0  0  0  0  0
   25.0734  -16.5600  -19.7173 C   0  0  2  0  0  0  0  0  0  0  0  0
   24.3850  -15.8651  -20.8693 C   0  0  0  0  0  0  0  0  0  0  0  0
   24.0383  -17.4734  -19.0629 C   0  0  0  0  0  0  0  0  0  0  0  0
   24.7103  -18.1359  -17.9076 C   0  0  2  0  0  0  0  0  0  0  0  0
   25.8858  -18.8283  -18.3290 N   0  0  0  0  0  0  0  0  0  0  0  0
   23.7167  -18.9935  -17.2159 C   0  0  0  0  0  0  0  0  0  0  0  0
   23.4926  -20.1279  -17.6874 O   0  0  0  0  0  0  0  0  0  0  0  0
   26.1583  -22.3291  -12.4067 N   0  0  0  0  0  0  0  0  0  0  0  0
   24.9836  -22.8032  -13.1131 C   0  0  0  0  0  0  0  0  0  0  0  0
   25.1548  -23.5818  -14.0853 N   0  0  0  0  0  0  0  0  0  0  0  0
   23.7182  -22.3924  -12.6999 N   0  0  0  0  0  0  0  0  0  0  0  0
   22.8393  -21.4977  -13.3810 C   0  0  0  0  0  0  0  0  0  0  0  0
   23.1618  -20.0401  -13.2689 C   0  0  0  0  0  0  0  0  0  0  0  0
   22.0860  -19.2586  -14.0048 C   0  0  0  0  0  0  0  0  0  0  0  0
   22.0435  -19.5073  -15.4872 C   0  0  2  0  0  0  0  0  0  0  0  0
   23.0233  -18.5848  -16.0613 N   0  0  0  0  0  0  0  0  0  0  0  0
   20.6754  -19.0886  -15.9226 C   0  0  0  0  0  0  0  0  0  0  0  0
   20.3030  -17.9118  -15.7924 O   0  0  0  0  0  0  0  0  0  0  0  0
   24.4578  -23.9799  -14.6811 N   0  0  0  0  0  0  0  0  0  0  0  0
   19.8151  -20.0468  -16.4830 C   0  0  2  0  0  0  0  0  0  0  0  0
   18.4574  -19.6617  -16.9446 C   0  0  0  0  0  0  0  0  0  0  0  0
   17.9862  -20.8094  -17.7692 C   0  0  0  0  0  0  0  0  0  0  0  0
   16.6292  -20.5553  -18.3320 C   0  0  0  0  0  0  0  0  0  0  0  0
   16.1731  -21.7024  -19.1392 O   0  0  0  0  0  0  0  0  0  0  0  0
   17.0109  -22.6498  -19.3598 C   0  0  0  0  0  0  0  0  0  0  0  0
   17.6595  -19.3904  -15.7379 O   0  0  0  0  0  0  0  0  0  0  0  0
   17.9001  -19.9552  -14.6403 O   0  0  0  0  0  0  0  0  0  0  0  0
   14.9128  -21.8334  -19.6781 O   0  0  0  0  0  0  0  0  0  0  0  0
  2  1  1  1
  2  3  1  0
  2  4  1  0
  5  6  1  6
  5  4  1  0
  7  5  1  0
  8  7  2  0
 10  9  1  0
 10 12  1  0
 11 10  2  0
 13 12  1  0
 13 14  1  0
 14 15  1  0
 16 15  1  1
 16 17  1  0
 17  7  1  0
 18 16  1  0
 18 19  2  0
 20 18  1  0
 21 20  1  0
 21 22  1  6
 23 24  1  0
 23 22  1  0
 24 25  2  0
 26 21  1  0
 27 26  2  0
 28 24  1  0
 29 26  1  0
M  END
$$$$
