LRE.pdb
     RDKit          3D

 29 28  0  0  1  0  0  0  0  0999 V2000
   26.0585  -12.4010  -16.0417 C   0  0  0  0  0  0  0  0  0  0  0  0
   25.0967  -12.8159  -17.1594 C   0  0  2  0  0  0  0  0  0  0  0  0
   23.7993  -12.0492  -17.0444 C   0  0  0  0  0  0  0  0  0  0  0  0
   24.7589  -14.2955  -16.9838 C   0  0  0  0  0  0  0  0  0  0  0  0
   26.0482  -15.0446  -17.0252 C   0  0  2  0  0  0  0  0  0  0  0  0
   26.6315  -14.9857  -18.3271 N   0  0  0  0  0  0  0  0  0  0  0  0
   25.8061  -16.4224  -16.5310 C   0  0  0  0  0  0  0  0  0  0  0  0
   25.2557  -17.2340  -17.3041 O   0  0  0  0  0  0  0  0  0  0  0  0
   25.6725  -22.4578  -11.3869 N   0  0  0  0  0  0  0  0  0  0  0  0
   25.5893  -22.8048  -12.7928 C   0  0  0  0  0  0  0  0  0  0  0  0
   24.8013  -23.7259  -13.1268 N   0  0  0  0  0  0  0  0  0  0  0  0
   26.3694  -22.1173  -13.7198 N   0  0  0  0  0  0  0  0  0  0  0  0
   27.1021  -20.9121  -13.5019 C   0  0  0  0  0  0  0  0  0  0  0  0
   26.3386  -19.7731  -12.9011 C   0  0  0  0  0  0  0  0  0  0  0  0
   26.7110  -18.5048  -13.6511 C   0  0  0  0  0  0  0  0  0  0  0  0
   25.8615  -18.2275  -14.8605 C   0  0  2  0  0  0  0  0  0  0  0  0
   26.1683  -16.8479  -15.2392 N   0  0  0  0  0  0  0  0  0  0  0  0
   24.4476  -18.2909  -14.3775 C   0  0  0  0  0  0  0  0  0  0  0  0
   24.0477  -17.5218  -13.4891 O   0  0  0  0  0  0  0  0  0  0  0  0
   24.6989  -24.1474  -14.0274 N   0  0  0  0  0  0  0  0  0  0  0  0
   23.5752  -19.2344  -14.9442 C   0  0  2  0  0  0  0  0  0  0  0  0
   22.1596  -19.3118  -14.5025 C   0  0  0  0  0  0  0  0  0  0  0  0
   21.3747  -19.5389  -15.7482 C   0  0  0  0  0  0  0  0  0  0  0  0
   19.9225  -19.7049  -15.4546 C   0  0  0  0  0  0  0  0  0  0  0  0
   19.1657  -19.9794  -16.6906 O   0  0  0  0  0  0  0  0  0  0  0  0
   18.3964  -19.0546  -17.1391 C   0  0  0  0  0  0  0  0  0  0  0  0
   22.0830  -20.3956  -13.5097 O   0  0  0  0  0  0  0  0  0  0  0  0
   22.8026  -21.4239  -13.5904 O   0  0  0  0  0  0  0  0  0  0  0  0
   19.2204  -21.1576  -17.4011 O   0  0  0  0  0  0  0  0  0  0  0  0
  2  1  1  1
  2  3  1  0
  2  4  1  0
  5  6  1  6
  5  4  1  0
  7  5  1  0
  8  7  2  0
 10  9  1  0
 10 12  1  0
 11 10  2  0
 13 12  1  0
 13 14  1  0
 14 15  1  0
 16 15  1  1
 16 17  1  0
 17  7  1  0
 18 16  1  0
 18 19  2  0
 20 18  1  0
 21 20  1  0
 21 22  1  6
 23 24  1  0
 23 22  1  0
 24 25  2  0
 26 21  1  0
 27 26  2  0
 28 24  1  0
 29 26  1  0
M  END
$$$$
