LRE.pdb
     RDKit          3D

 29 28  0  0  1  0  0  0  0  0999 V2000
   24.2630  -31.0872  -19.5288 C   0  0  0  0  0  0  0  0  0  0  0  0
   22.9196  -30.9232  -18.8113 C   0  0  2  0  0  0  0  0  0  0  0  0
   21.7859  -30.9545  -19.8103 C   0  0  0  0  0  0  0  0  0  0  0  0
   22.8906  -29.5488  -18.1447 C   0  0  0  0  0  0  0  0  0  0  0  0
   24.0154  -29.5158  -17.1655 C   0  0  2  0  0  0  0  0  0  0  0  0
   23.7628  -30.3932  -16.0678 N   0  0  0  0  0  0  0  0  0  0  0  0
   24.2533  -28.1052  -16.7720 C   0  0  0  0  0  0  0  0  0  0  0  0
   23.6400  -27.6627  -15.7782 O   0  0  0  0  0  0  0  0  0  0  0  0
   29.5128  -28.1813  -16.1463 N   0  0  0  0  0  0  0  0  0  0  0  0
   30.5842  -27.2270  -16.3585 C   0  0  0  0  0  0  0  0  0  0  0  0
   31.7624  -27.6042  -16.1338 N   0  0  0  0  0  0  0  0  0  0  0  0
   30.2840  -25.9408  -16.8013 N   0  0  0  0  0  0  0  0  0  0  0  0
   29.0571  -25.4939  -17.3774 C   0  0  0  0  0  0  0  0  0  0  0  0
   27.8023  -25.9995  -16.7362 C   0  0  0  0  0  0  0  0  0  0  0  0
   26.6175  -25.4213  -17.4922 C   0  0  0  0  0  0  0  0  0  0  0  0
   25.2769  -25.8786  -16.9875 C   0  0  2  0  0  0  0  0  0  0  0  0
   25.1334  -27.2539  -17.4658 N   0  0  0  0  0  0  0  0  0  0  0  0
   24.2731  -25.0186  -17.6868 C   0  0  0  0  0  0  0  0  0  0  0  0
   23.7871  -25.3699  -18.7736 O   0  0  0  0  0  0  0  0  0  0  0  0
   32.6076  -27.0894  -16.2750 N   0  0  0  0  0  0  0  0  0  0  0  0
   23.8856  -23.8049  -17.0960 C   0  0  2  0  0  0  0  0  0  0  0  0
   22.9313  -22.9014  -17.7876 C   0  0  0  0  0  0  0  0  0  0  0  0
   21.5816  -23.4530  -17.4820 C   0  0  0  0  0  0  0  0  0  0  0  0
   20.7338  -22.4552  -16.7690 C   0  0  0  0  0  0  0  0  0  0  0  0
   19.3856  -22.9976  -16.5167 O   0  0  0  0  0  0  0  0  0  0  0  0
   18.5647  -22.2729  -15.8465 C   0  0  0  0  0  0  0  0  0  0  0  0
   23.1825  -21.5451  -17.2745 O   0  0  0  0  0  0  0  0  0  0  0  0
   23.9336  -21.3355  -16.2877 O   0  0  0  0  0  0  0  0  0  0  0  0
   18.9399  -24.2280  -16.9452 O   0  0  0  0  0  0  0  0  0  0  0  0
  2  1  1  6
  2  3  1  0
  2  4  1  0
  5  6  1  1
  5  4  1  0
  7  5  1  0
  8  7  2  0
 10  9  1  0
 10 12  1  0
 11 10  2  0
 13 12  1  0
 13 14  1  0
 14 15  1  0
 16 15  1  6
 16 17  1  0
 17  7  1  0
 18 16  1  0
 18 19  2  0
 20 18  1  0
 21 20  1  0
 21 22  1  6
 23 24  1  0
 23 22  1  0
 24 25  2  0
 26 21  1  0
 27 26  2  0
 28 24  1  0
 29 26  1  0
M  END
$$$$
