LRE.pdb
     RDKit          3D

 29 28  0  0  1  0  0  0  0  0999 V2000
   28.2268  -19.5931   -6.7787 C   0  0  0  0  0  0  0  0  0  0  0  0
   27.2475  -19.3209   -7.9247 C   0  0  2  0  0  0  0  0  0  0  0  0
   25.8303  -19.5975   -7.4785 C   0  0  0  0  0  0  0  0  0  0  0  0
   27.5546  -20.2899   -9.0652 C   0  0  0  0  0  0  0  0  0  0  0  0
   26.2446  -20.7473   -9.6128 C   0  0  2  0  0  0  0  0  0  0  0  0
   26.2534  -22.1555   -9.8487 N   0  0  0  0  0  0  0  0  0  0  0  0
   25.9278  -19.9336  -10.8123 C   0  0  0  0  0  0  0  0  0  0  0  0
   25.9222  -18.6906  -10.6923 O   0  0  0  0  0  0  0  0  0  0  0  0
   26.9152  -23.0051  -15.9913 N   0  0  0  0  0  0  0  0  0  0  0  0
   28.2518  -22.7152  -16.4741 C   0  0  0  0  0  0  0  0  0  0  0  0
   28.8881  -23.6409  -17.0390 N   0  0  0  0  0  0  0  0  0  0  0  0
   28.7842  -21.4390  -16.3047 N   0  0  0  0  0  0  0  0  0  0  0  0
   28.2209  -20.3650  -15.5523 C   0  0  0  0  0  0  0  0  0  0  0  0
   26.9817  -20.6810  -14.7740 C   0  0  0  0  0  0  0  0  0  0  0  0
   26.6204  -19.4613  -13.9424 C   0  0  0  0  0  0  0  0  0  0  0  0
   25.3339  -19.5930  -13.1751 C   0  0  2  0  0  0  0  0  0  0  0  0
   25.6365  -20.4997  -12.0674 N   0  0  0  0  0  0  0  0  0  0  0  0
   24.3817  -20.2724  -14.1069 C   0  0  0  0  0  0  0  0  0  0  0  0
   24.5826  -21.4405  -14.4754 O   0  0  0  0  0  0  0  0  0  0  0  0
   29.8155  -23.6082  -17.4106 N   0  0  0  0  0  0  0  0  0  0  0  0
   23.2535  -19.5698  -14.5607 C   0  0  1  0  0  0  0  0  0  0  0  0
   22.1729  -20.2745  -15.2960 C   0  0  0  0  0  0  0  0  0  0  0  0
   21.0431  -20.3709  -14.3299 C   0  0  0  0  0  0  0  0  0  0  0  0
   21.1226  -21.6208  -13.5212 C   0  0  0  0  0  0  0  0  0  0  0  0
   19.9147  -21.7860  -12.6910 O   0  0  0  0  0  0  0  0  0  0  0  0
   19.0082  -20.8800  -12.7663 C   0  0  0  0  0  0  0  0  0  0  0  0
   21.8951  -19.4823  -16.5049 O   0  0  0  0  0  0  0  0  0  0  0  0
   22.3409  -18.3156  -16.6528 O   0  0  0  0  0  0  0  0  0  0  0  0
   19.6859  -22.8411  -11.8364 O   0  0  0  0  0  0  0  0  0  0  0  0
  2  1  1  1
  2  3  1  0
  2  4  1  0
  5  6  1  6
  5  4  1  0
  7  5  1  0
  8  7  2  0
 10  9  1  0
 10 12  1  0
 11 10  2  0
 13 12  1  0
 13 14  1  0
 14 15  1  0
 16 15  1  6
 16 17  1  0
 17  7  1  0
 18 16  1  0
 18 19  2  0
 20 18  1  0
 21 20  1  0
 21 22  1  6
 23 24  1  0
 23 22  1  0
 24 25  2  0
 26 21  1  0
 27 26  2  0
 28 24  1  0
 29 26  1  0
M  END
$$$$
