LRE.pdb
     RDKit          3D

 29 28  0  0  1  0  0  0  0  0999 V2000
   42.9299  -10.7146   -2.5907 C   0  0  0  0  0  0  0  0  0  0  0  0
   43.7527   -9.4318   -2.7462 C   0  0  2  0  0  0  0  0  0  0  0  0
   43.3095   -8.4004   -1.7343 C   0  0  0  0  0  0  0  0  0  0  0  0
   43.4804   -8.8461   -4.1306 C   0  0  0  0  0  0  0  0  0  0  0  0
   43.8904   -9.8767   -5.1280 C   0  0  2  0  0  0  0  0  0  0  0  0
   45.3040  -10.0759   -5.1050 N   0  0  0  0  0  0  0  0  0  0  0  0
   43.3549   -9.4844   -6.4549 C   0  0  0  0  0  0  0  0  0  0  0  0
   44.0437   -8.7196   -7.1620 O   0  0  0  0  0  0  0  0  0  0  0  0
   39.5274   -9.2619  -12.4516 N   0  0  0  0  0  0  0  0  0  0  0  0
   39.4772  -10.5764  -13.0627 C   0  0  0  0  0  0  0  0  0  0  0  0
   39.2409  -10.6444  -14.2957 N   0  0  0  0  0  0  0  0  0  0  0  0
   39.6920  -11.7089  -12.2805 N   0  0  0  0  0  0  0  0  0  0  0  0
   40.2137  -11.7508  -10.9527 C   0  0  0  0  0  0  0  0  0  0  0  0
   40.6624  -10.4440  -10.3766 C   0  0  0  0  0  0  0  0  0  0  0  0
   41.1792  -10.6984   -8.9702 C   0  0  0  0  0  0  0  0  0  0  0  0
   41.6899   -9.4720   -8.2660 C   0  0  2  0  0  0  0  0  0  0  0  0
   42.1146   -9.9347   -6.9445 N   0  0  0  0  0  0  0  0  0  0  0  0
   40.5002   -8.5805   -8.1044 C   0  0  0  0  0  0  0  0  0  0  0  0
   39.5356   -8.9334   -7.4075 O   0  0  0  0  0  0  0  0  0  0  0  0
   39.1986  -11.4638  -14.8668 N   0  0  0  0  0  0  0  0  0  0  0  0
   40.4884   -7.3348   -8.7529 C   0  0  2  0  0  0  0  0  0  0  0  0
   39.2735   -6.4816   -8.7230 C   0  0  0  0  0  0  0  0  0  0  0  0
   39.7354   -5.1642   -8.2031 C   0  0  0  0  0  0  0  0  0  0  0  0
   39.8575   -5.1772   -6.7173 C   0  0  0  0  0  0  0  0  0  0  0  0
   40.1805   -3.8319   -6.2059 O   0  0  0  0  0  0  0  0  0  0  0  0
   40.4324   -2.9103   -7.0635 C   0  0  0  0  0  0  0  0  0  0  0  0
   38.7366   -6.4588  -10.0932 O   0  0  0  0  0  0  0  0  0  0  0  0
   39.3575   -6.9707  -11.0597 O   0  0  0  0  0  0  0  0  0  0  0  0
   40.2348   -3.4890   -4.8734 O   0  0  0  0  0  0  0  0  0  0  0  0
  2  1  1  1
  2  3  1  0
  2  4  1  0
  5  6  1  6
  5  4  1  0
  7  5  1  0
  8  7  2  0
 10  9  1  0
 10 12  1  0
 11 10  2  0
 13 12  1  0
 13 14  1  0
 14 15  1  0
 16 15  1  6
 16 17  1  0
 17  7  1  0
 18 16  1  0
 18 19  2  0
 20 18  1  0
 21 20  1  0
 21 22  1  6
 23 24  1  0
 23 22  1  0
 24 25  2  0
 26 21  1  0
 27 26  2  0
 28 24  1  0
 29 26  1  0
M  END
$$$$
