PNQ.pdb
     RDKit          3D

 25 25  0  0  1  0  0  0  0  0999 V2000
    8.7157  -13.2489   18.4034 N   0  0  0  0  0  0  0  0  0  0  0  0
    8.2079  -12.8656   17.0973 C   0  0  0  0  0  0  0  0  0  0  0  0
    7.5358  -14.1849   16.6943 C   0  0  0  0  0  0  0  0  0  0  0  0
    6.7037  -14.4229   17.9601 C   0  0  0  0  0  0  0  0  0  0  0  0
    7.6986  -14.0524   19.0405 C   0  0  1  0  0  0  0  0  0  0  0  0
    8.2525  -15.3208   19.5807 C   0  0  0  0  0  0  0  0  0  0  0  0
    7.4792  -16.2059   20.0708 O   0  0  0  0  0  0  0  0  0  0  0  0
   13.1459  -19.0404   19.6773 N   0  0  0  0  0  0  0  0  0  0  0  0
   11.7982  -18.6560   19.9078 C   0  0  0  0  0  0  0  0  0  0  0  0
   11.0775  -19.4289   20.5846 O   0  0  0  0  0  0  0  0  0  0  0  0
   11.3201  -17.3719   19.3406 C   0  0  0  0  0  0  0  0  0  0  0  0
   10.1981  -16.7949   20.2003 C   0  0  2  0  0  0  0  0  0  0  0  0
    9.6352  -15.6133   19.5812 N   0  0  0  0  0  0  0  0  0  0  0  0
   10.6795  -16.4743   21.5609 C   0  0  0  0  0  0  0  0  0  0  0  0
   11.5924  -15.6227   21.6749 O   0  0  0  0  0  0  0  0  0  0  0  0
    7.6102  -13.2629   25.4501 N   0  0  0  0  0  0  0  0  0  0  0  0
    7.5526  -14.5751   24.9049 C   0  0  0  0  0  0  0  0  0  0  0  0
    6.5048  -15.2279   25.0881 O   0  0  0  0  0  0  0  0  0  0  0  0
    8.7167  -15.0683   24.1725 C   0  0  0  0  0  0  0  0  0  0  0  0
    9.5354  -16.0959   24.8593 C   0  0  0  0  0  0  0  0  0  0  0  0
   10.6397  -16.6028   24.0195 C   0  0  2  0  0  0  0  0  0  0  0  0
   10.1441  -17.0941   22.7169 N   0  0  0  0  0  0  0  0  0  0  0  0
   11.5278  -17.5839   24.6398 C   0  0  0  0  0  0  0  0  0  0  0  0
   11.6066  -18.7799   24.1861 O   0  0  0  0  0  0  0  0  0  0  0  0
   12.3433  -17.3432   25.7295 O   0  0  0  0  0  0  0  0  0  0  0  0
  2  1  1  0
  3  2  1  0
  4  3  1  0
  4  5  1  0
  5  6  1  6
  5  1  1  0
  6  7  2  0
  9  8  1  0
 10  9  2  0
 11  9  1  0
 12 11  1  6
 13 12  1  0
 13  6  1  0
 14 12  1  0
 14 15  2  0
 16 17  1  0
 17 19  1  0
 18 17  2  0
 19 20  1  0
 21 20  1  1
 21 22  1  0
 21 23  1  0
 22 14  1  0
 23 24  2  0
 23 25  1  0
M  END
$$$$
