PNQ.pdb
     RDKit          3D

 25 25  0  0  1  0  0  0  0  0999 V2000
   11.5955  -18.8784   23.6358 N   0  0  0  0  0  0  0  0  0  0  0  0
   11.6759  -18.6513   22.2031 C   0  0  0  0  0  0  0  0  0  0  0  0
   11.0475  -19.9605   21.7075 C   0  0  0  0  0  0  0  0  0  0  0  0
    9.7733  -19.9491   22.5605 C   0  0  0  0  0  0  0  0  0  0  0  0
   10.3200  -19.5021   23.9005 C   0  0  1  0  0  0  0  0  0  0  0  0
   10.4619  -20.7169   24.7440 C   0  0  0  0  0  0  0  0  0  0  0  0
    9.4311  -21.3206   25.1851 O   0  0  0  0  0  0  0  0  0  0  0  0
   13.8721  -23.3345   22.9248 N   0  0  0  0  0  0  0  0  0  0  0  0
   12.7971  -23.5776   23.8206 C   0  0  0  0  0  0  0  0  0  0  0  0
   11.7151  -23.9902   23.3370 O   0  0  0  0  0  0  0  0  0  0  0  0
   13.0104  -23.3324   25.2675 C   0  0  0  0  0  0  0  0  0  0  0  0
   11.8694  -22.4949   25.8396 C   0  0  2  0  0  0  0  0  0  0  0  0
   11.7176  -21.2615   25.0967 N   0  0  0  0  0  0  0  0  0  0  0  0
   12.0897  -22.2006   27.2716 C   0  0  0  0  0  0  0  0  0  0  0  0
   12.7218  -23.0417   27.9532 O   0  0  0  0  0  0  0  0  0  0  0  0
   16.5781  -20.2022   30.9798 N   0  0  0  0  0  0  0  0  0  0  0  0
   15.9859  -20.4055   29.7030 C   0  0  0  0  0  0  0  0  0  0  0  0
   16.5257  -21.2372   28.9451 O   0  0  0  0  0  0  0  0  0  0  0  0
   14.7935  -19.6313   29.3657 C   0  0  0  0  0  0  0  0  0  0  0  0
   13.8751  -20.2415   28.3748 C   0  0  0  0  0  0  0  0  0  0  0  0
   12.4966  -20.3856   28.8851 C   0  0  2  0  0  0  0  0  0  0  0  0
   11.6131  -21.0134   27.8806 N   0  0  0  0  0  0  0  0  0  0  0  0
   11.8804  -19.1805   29.4365 C   0  0  0  0  0  0  0  0  0  0  0  0
   12.4019  -18.5739   30.4379 O   0  0  0  0  0  0  0  0  0  0  0  0
   10.7252  -18.5881   28.9623 O   0  0  0  0  0  0  0  0  0  0  0  0
  2  1  1  0
  3  2  1  0
  4  3  1  0
  4  5  1  0
  5  6  1  1
  5  1  1  0
  6  7  2  0
  9  8  1  0
 10  9  2  0
 11  9  1  0
 12 11  1  6
 13 12  1  0
 13  6  1  0
 14 12  1  0
 14 15  2  0
 16 17  1  0
 17 19  1  0
 18 17  2  0
 19 20  1  0
 21 20  1  6
 21 22  1  0
 21 23  1  0
 22 14  1  0
 23 24  2  0
 23 25  1  0
M  END
$$$$
