PNQ.pdb
     RDKit          3D

 25 25  0  0  1  0  0  0  0  0999 V2000
    8.2903  -14.6472   18.6326 N   0  0  0  0  0  0  0  0  0  0  0  0
    7.0820  -13.9688   18.1965 C   0  0  0  0  0  0  0  0  0  0  0  0
    7.0734  -12.8064   19.1981 C   0  0  0  0  0  0  0  0  0  0  0  0
    8.5131  -12.3158   19.0036 C   0  0  0  0  0  0  0  0  0  0  0  0
    9.2660  -13.6288   18.9435 C   0  0  1  0  0  0  0  0  0  0  0  0
    9.8835  -13.8421   20.2779 C   0  0  0  0  0  0  0  0  0  0  0  0
   10.7763  -13.0442   20.7111 O   0  0  0  0  0  0  0  0  0  0  0  0
    9.7199  -14.9532   25.7419 N   0  0  0  0  0  0  0  0  0  0  0  0
    9.7370  -15.9433   24.7238 C   0  0  0  0  0  0  0  0  0  0  0  0
   10.2998  -17.0354   24.9798 O   0  0  0  0  0  0  0  0  0  0  0  0
    9.0938  -15.6349   23.4237 C   0  0  0  0  0  0  0  0  0  0  0  0
   10.1331  -15.1461   22.4179 C   0  0  2  0  0  0  0  0  0  0  0  0
    9.5246  -14.9154   21.1246 N   0  0  0  0  0  0  0  0  0  0  0  0
   11.2464  -16.1104   22.2899 C   0  0  0  0  0  0  0  0  0  0  0  0
   11.1081  -17.0633   21.4871 O   0  0  0  0  0  0  0  0  0  0  0  0
   14.7197  -15.4213   18.5271 N   0  0  0  0  0  0  0  0  0  0  0  0
   15.0331  -14.5445   19.6018 C   0  0  0  0  0  0  0  0  0  0  0  0
   15.6503  -13.4953   19.3262 O   0  0  0  0  0  0  0  0  0  0  0  0
   14.6153  -14.9284   20.9482 C   0  0  0  0  0  0  0  0  0  0  0  0
   13.8600  -16.1990   21.0622 C   0  0  0  0  0  0  0  0  0  0  0  0
   13.6500  -16.6161   22.4635 C   0  0  2  0  0  0  0  0  0  0  0  0
   12.4431  -15.9858   23.0380 N   0  0  0  0  0  0  0  0  0  0  0  0
   14.7920  -16.4646   23.3628 C   0  0  0  0  0  0  0  0  0  0  0  0
   14.7120  -15.7305   24.4104 O   0  0  0  0  0  0  0  0  0  0  0  0
   16.0242  -17.0676   23.1941 O   0  0  0  0  0  0  0  0  0  0  0  0
  2  1  1  0
  3  2  1  0
  4  3  1  0
  4  5  1  0
  5  6  1  1
  5  1  1  0
  6  7  2  0
  9  8  1  0
 10  9  2  0
 11  9  1  0
 12 11  1  1
 13 12  1  0
 13  6  1  0
 14 12  1  0
 14 15  2  0
 16 17  1  0
 17 19  1  0
 18 17  2  0
 19 20  1  0
 21 20  1  6
 21 22  1  0
 21 23  1  0
 22 14  1  0
 23 24  2  0
 23 25  1  0
M  END
$$$$
