PNQ.pdb
     RDKit          3D

 25 25  0  0  1  0  0  0  0  0999 V2000
    8.9931  -14.5569   18.5761 N   0  0  0  0  0  0  0  0  0  0  0  0
    8.2256  -13.8890   17.5392 C   0  0  0  0  0  0  0  0  0  0  0  0
    7.0514  -13.3810   18.3864 C   0  0  0  0  0  0  0  0  0  0  0  0
    7.8456  -12.7037   19.5096 C   0  0  0  0  0  0  0  0  0  0  0  0
    8.9376  -13.7243   19.7549 C   0  0  1  0  0  0  0  0  0  0  0  0
    8.5512  -14.4988   20.9625 C   0  0  0  0  0  0  0  0  0  0  0  0
    8.2580  -13.8997   22.0472 O   0  0  0  0  0  0  0  0  0  0  0  0
    5.5469  -17.8477   20.4376 N   0  0  0  0  0  0  0  0  0  0  0  0
    6.9379  -18.1337   20.4153 C   0  0  0  0  0  0  0  0  0  0  0  0
    7.4636  -18.3933   19.3058 O   0  0  0  0  0  0  0  0  0  0  0  0
    7.6874  -18.1100   21.6947 C   0  0  0  0  0  0  0  0  0  0  0  0
    7.9931  -16.6720   22.1063 C   0  0  2  0  0  0  0  0  0  0  0  0
    8.4864  -15.9106   20.9779 N   0  0  0  0  0  0  0  0  0  0  0  0
    8.9724  -16.6306   23.2131 C   0  0  0  0  0  0  0  0  0  0  0  0
   10.1827  -16.4845   22.9207 O   0  0  0  0  0  0  0  0  0  0  0  0
   10.2802  -13.9045   29.7730 N   0  0  0  0  0  0  0  0  0  0  0  0
    9.6985  -13.9394   28.4758 C   0  0  0  0  0  0  0  0  0  0  0  0
    8.9069  -13.0221   28.1762 O   0  0  0  0  0  0  0  0  0  0  0  0
   10.0632  -15.0400   27.5867 C   0  0  0  0  0  0  0  0  0  0  0  0
    9.1258  -15.3204   26.4729 C   0  0  0  0  0  0  0  0  0  0  0  0
    9.6015  -16.3984   25.5824 C   0  0  2  0  0  0  0  0  0  0  0  0
    8.5836  -16.7495   24.5703 N   0  0  0  0  0  0  0  0  0  0  0  0
   10.1178  -17.5990   26.2367 C   0  0  0  0  0  0  0  0  0  0  0  0
    9.4247  -18.6763   26.2768 O   0  0  0  0  0  0  0  0  0  0  0  0
   11.3506  -17.7026   26.8528 O   0  0  0  0  0  0  0  0  0  0  0  0
  2  1  1  0
  3  2  1  0
  4  3  1  0
  4  5  1  0
  5  6  1  1
  5  1  1  0
  6  7  2  0
  9  8  1  0
 10  9  2  0
 11  9  1  0
 12 11  1  6
 13 12  1  0
 13  6  1  0
 14 12  1  0
 14 15  2  0
 16 17  1  0
 17 19  1  0
 18 17  2  0
 19 20  1  0
 21 20  1  1
 21 22  1  0
 21 23  1  0
 22 14  1  0
 23 24  2  0
 23 25  1  0
M  END
$$$$
