PNQ.pdb
     RDKit          3D

 25 25  0  0  1  0  0  0  0  0999 V2000
    7.9187  -14.2191   19.9505 N   0  0  0  0  0  0  0  0  0  0  0  0
    7.2492  -12.9322   20.0283 C   0  0  0  0  0  0  0  0  0  0  0  0
    8.1679  -12.1171   19.1084 C   0  0  0  0  0  0  0  0  0  0  0  0
    8.1891  -13.0602   17.8994 C   0  0  0  0  0  0  0  0  0  0  0  0
    8.3300  -14.4067   18.5788 C   0  0  1  0  0  0  0  0  0  0  0  0
    9.7586  -14.8018   18.4779 C   0  0  0  0  0  0  0  0  0  0  0  0
   10.2456  -15.1847   17.3653 O   0  0  0  0  0  0  0  0  0  0  0  0
   14.6886  -15.1124   17.4594 N   0  0  0  0  0  0  0  0  0  0  0  0
   14.2275  -14.3615   18.5733 C   0  0  0  0  0  0  0  0  0  0  0  0
   15.0730  -14.0095   19.4313 O   0  0  0  0  0  0  0  0  0  0  0  0
   12.7832  -14.0369   18.6609 C   0  0  0  0  0  0  0  0  0  0  0  0
   12.0491  -15.0927   19.4838 C   0  0  2  0  0  0  0  0  0  0  0  0
   10.6398  -14.7756   19.5826 N   0  0  0  0  0  0  0  0  0  0  0  0
   12.6363  -15.2197   20.8346 C   0  0  0  0  0  0  0  0  0  0  0  0
   12.4549  -14.2799   21.6442 O   0  0  0  0  0  0  0  0  0  0  0  0
   13.1483  -20.0331   25.9020 N   0  0  0  0  0  0  0  0  0  0  0  0
   12.4720  -18.9058   25.3598 C   0  0  0  0  0  0  0  0  0  0  0  0
   11.2337  -18.8534   25.5063 O   0  0  0  0  0  0  0  0  0  0  0  0
   13.2668  -17.8915   24.6709 C   0  0  0  0  0  0  0  0  0  0  0  0
   12.9293  -17.6502   23.2477 C   0  0  0  0  0  0  0  0  0  0  0  0
   13.6565  -16.4995   22.6744 C   0  0  2  0  0  0  0  0  0  0  0  0
   13.3846  -16.3564   21.2289 N   0  0  0  0  0  0  0  0  0  0  0  0
   15.0925  -16.4429   22.9399 C   0  0  0  0  0  0  0  0  0  0  0  0
   15.5376  -16.0212   24.0654 O   0  0  0  0  0  0  0  0  0  0  0  0
   16.0822  -16.8209   22.0522 O   0  0  0  0  0  0  0  0  0  0  0  0
  2  1  1  0
  3  2  1  0
  4  3  1  0
  4  5  1  0
  5  6  1  1
  5  1  1  0
  6  7  2  0
  9  8  1  0
 10  9  2  0
 11  9  1  0
 12 11  1  6
 13 12  1  0
 13  6  1  0
 14 12  1  0
 14 15  2  0
 16 17  1  0
 17 19  1  0
 18 17  2  0
 19 20  1  0
 21 20  1  6
 21 22  1  0
 21 23  1  0
 22 14  1  0
 23 24  2  0
 23 25  1  0
M  END
$$$$
