PNQ.pdb
     RDKit          3D

 25 25  0  0  1  0  0  0  0  0999 V2000
    8.6958  -14.5606   19.3533 N   0  0  0  0  0  0  0  0  0  0  0  0
    8.2065  -13.7367   18.2613 C   0  0  0  0  0  0  0  0  0  0  0  0
    7.0960  -12.9778   18.9998 C   0  0  0  0  0  0  0  0  0  0  0  0
    7.9034  -12.4970   20.2115 C   0  0  0  0  0  0  0  0  0  0  0  0
    8.7087  -13.7372   20.5397 C   0  0  1  0  0  0  0  0  0  0  0  0
    8.0382  -14.4053   21.6849 C   0  0  0  0  0  0  0  0  0  0  0  0
    6.8383  -14.1100   21.9923 O   0  0  0  0  0  0  0  0  0  0  0  0
    6.8056  -17.6661   25.3905 N   0  0  0  0  0  0  0  0  0  0  0  0
    6.2695  -17.7726   24.0795 C   0  0  0  0  0  0  0  0  0  0  0  0
    5.2965  -18.5462   23.9070 O   0  0  0  0  0  0  0  0  0  0  0  0
    6.8840  -16.9699   22.9946 C   0  0  0  0  0  0  0  0  0  0  0  0
    8.0095  -16.0995   23.5481 C   0  0  2  0  0  0  0  0  0  0  0  0
    8.6760  -15.3845   22.4800 N   0  0  0  0  0  0  0  0  0  0  0  0
    8.9882  -16.9099   24.3039 C   0  0  0  0  0  0  0  0  0  0  0  0
   10.0088  -17.3131   23.6978 O   0  0  0  0  0  0  0  0  0  0  0  0
   10.1910  -13.6747   28.7396 N   0  0  0  0  0  0  0  0  0  0  0  0
    9.0096  -13.6997   27.9485 C   0  0  0  0  0  0  0  0  0  0  0  0
    8.0832  -12.9297   28.2748 O   0  0  0  0  0  0  0  0  0  0  0  0
    8.9592  -14.6200   26.8148 C   0  0  0  0  0  0  0  0  0  0  0  0
   10.1767  -15.4312   26.5751 C   0  0  0  0  0  0  0  0  0  0  0  0
    9.9082  -16.8836   26.5877 C   0  0  2  0  0  0  0  0  0  0  0  0
    8.8043  -17.2353   25.6705 N   0  0  0  0  0  0  0  0  0  0  0  0
    9.7061  -17.4939   27.9002 C   0  0  0  0  0  0  0  0  0  0  0  0
    8.5980  -18.0655   28.1967 O   0  0  0  0  0  0  0  0  0  0  0  0
   10.6414  -17.5233   28.9175 O   0  0  0  0  0  0  0  0  0  0  0  0
  2  1  1  0
  3  2  1  0
  4  3  1  0
  4  5  1  0
  5  6  1  1
  5  1  1  0
  6  7  2  0
  9  8  1  0
 10  9  2  0
 11  9  1  0
 12 11  1  6
 13 12  1  0
 13  6  1  0
 14 12  1  0
 14 15  2  0
 16 17  1  0
 17 19  1  0
 18 17  2  0
 19 20  1  0
 21 20  1  1
 21 22  1  0
 21 23  1  0
 22 14  1  0
 23 24  2  0
 23 25  1  0
M  END
$$$$
