PNQ.pdb
     RDKit          3D

 25 25  0  0  1  0  0  0  0  0999 V2000
    9.3813  -13.9485   18.7030 N   0  0  0  0  0  0  0  0  0  0  0  0
    8.4040  -13.5461   17.7063 C   0  0  0  0  0  0  0  0  0  0  0  0
    7.1161  -13.8542   18.4814 C   0  0  0  0  0  0  0  0  0  0  0  0
    7.4425  -13.1165   19.7855 C   0  0  0  0  0  0  0  0  0  0  0  0
    8.8931  -13.5029   19.9872 C   0  0  1  0  0  0  0  0  0  0  0  0
    8.9210  -14.5911   20.9983 C   0  0  0  0  0  0  0  0  0  0  0  0
    8.3414  -14.4428   22.1224 O   0  0  0  0  0  0  0  0  0  0  0  0
    9.2368  -20.4704   21.5814 N   0  0  0  0  0  0  0  0  0  0  0  0
    9.9917  -19.3437   22.0029 C   0  0  0  0  0  0  0  0  0  0  0  0
   10.5133  -19.3831   23.1436 O   0  0  0  0  0  0  0  0  0  0  0  0
   10.1214  -18.1910   21.0791 C   0  0  0  0  0  0  0  0  0  0  0  0
    9.4972  -16.9415   21.6955 C   0  0  2  0  0  0  0  0  0  0  0  0
    9.5746  -15.8247   20.7774 N   0  0  0  0  0  0  0  0  0  0  0  0
   10.1525  -16.5932   22.9742 C   0  0  0  0  0  0  0  0  0  0  0  0
   11.2609  -16.0094   22.9257 O   0  0  0  0  0  0  0  0  0  0  0  0
    9.8873  -13.3653   29.3224 N   0  0  0  0  0  0  0  0  0  0  0  0
    9.2966  -13.8966   28.1430 C   0  0  0  0  0  0  0  0  0  0  0  0
    8.1204  -13.5646   27.8898 O   0  0  0  0  0  0  0  0  0  0  0  0
   10.1003  -14.7906   27.3126 C   0  0  0  0  0  0  0  0  0  0  0  0
    9.4166  -15.3864   26.1398 C   0  0  0  0  0  0  0  0  0  0  0  0
   10.2582  -16.3665   25.4238 C   0  0  2  0  0  0  0  0  0  0  0  0
    9.5692  -16.8971   24.2290 N   0  0  0  0  0  0  0  0  0  0  0  0
   10.8134  -17.4535   26.2276 C   0  0  0  0  0  0  0  0  0  0  0  0
   11.6144  -17.2114   27.1985 O   0  0  0  0  0  0  0  0  0  0  0  0
   10.5486  -18.7972   26.0416 O   0  0  0  0  0  0  0  0  0  0  0  0
  2  1  1  0
  3  2  1  0
  4  3  1  0
  4  5  1  0
  5  6  1  1
  5  1  1  0
  6  7  2  0
  9  8  1  0
 10  9  2  0
 11  9  1  0
 12 11  1  6
 13 12  1  0
 13  6  1  0
 14 12  1  0
 14 15  2  0
 16 17  1  0
 17 19  1  0
 18 17  2  0
 19 20  1  0
 21 20  1  1
 21 22  1  0
 21 23  1  0
 22 14  1  0
 23 24  2  0
 23 25  1  0
M  END
$$$$
