PNQ.pdb
     RDKit          3D

 25 25  0  0  1  0  0  0  0  0999 V2000
    8.9536  -14.7109   19.5135 N   0  0  0  0  0  0  0  0  0  0  0  0
    8.2221  -14.2684   18.3390 C   0  0  0  0  0  0  0  0  0  0  0  0
    6.9982  -13.6486   19.0265 C   0  0  0  0  0  0  0  0  0  0  0  0
    7.7234  -12.7527   20.0379 C   0  0  0  0  0  0  0  0  0  0  0  0
    8.8242  -13.6777   20.5143 C   0  0  1  0  0  0  0  0  0  0  0  0
    8.3975  -14.2281   21.8267 C   0  0  0  0  0  0  0  0  0  0  0  0
    8.1584  -13.4502   22.8061 O   0  0  0  0  0  0  0  0  0  0  0  0
    6.4809  -17.0018   25.6962 N   0  0  0  0  0  0  0  0  0  0  0  0
    6.5467  -17.8446   24.5549 C   0  0  0  0  0  0  0  0  0  0  0  0
    6.3672  -19.0748   24.7255 O   0  0  0  0  0  0  0  0  0  0  0  0
    6.8215  -17.2293   23.2339 C   0  0  0  0  0  0  0  0  0  0  0  0
    7.9125  -16.1686   23.3571 C   0  0  2  0  0  0  0  0  0  0  0  0
    8.2345  -15.6126   22.0596 N   0  0  0  0  0  0  0  0  0  0  0  0
    9.1291  -16.7251   23.9865 C   0  0  0  0  0  0  0  0  0  0  0  0
    9.2772  -17.9699   23.9780 O   0  0  0  0  0  0  0  0  0  0  0  0
   10.0652  -13.0517   28.2416 N   0  0  0  0  0  0  0  0  0  0  0  0
    9.9115  -14.3387   28.8267 C   0  0  0  0  0  0  0  0  0  0  0  0
   10.5333  -14.5669   29.8845 O   0  0  0  0  0  0  0  0  0  0  0  0
    9.0425  -15.3017   28.1542 C   0  0  0  0  0  0  0  0  0  0  0  0
    9.0271  -15.2469   26.6727 C   0  0  0  0  0  0  0  0  0  0  0  0
   10.1865  -15.9291   26.0629 C   0  0  2  0  0  0  0  0  0  0  0  0
   10.1128  -15.9013   24.5872 N   0  0  0  0  0  0  0  0  0  0  0  0
   10.4693  -17.2804   26.5425 C   0  0  0  0  0  0  0  0  0  0  0  0
   11.3004  -17.4792   27.4978 O   0  0  0  0  0  0  0  0  0  0  0  0
    9.8991  -18.4374   26.0461 O   0  0  0  0  0  0  0  0  0  0  0  0
  2  1  1  0
  3  2  1  0
  4  3  1  0
  4  5  1  0
  5  6  1  1
  5  1  1  0
  6  7  2  0
  9  8  1  0
 10  9  2  0
 11  9  1  0
 12 11  1  6
 13 12  1  0
 13  6  1  0
 14 12  1  0
 14 15  2  0
 16 17  1  0
 17 19  1  0
 18 17  2  0
 19 20  1  0
 21 20  1  1
 21 22  1  0
 21 23  1  0
 22 14  1  0
 23 24  2  0
 23 25  1  0
M  END
$$$$
