PNQ.pdb
     RDKit          3D

 25 25  0  0  1  0  0  0  0  0999 V2000
   10.7920  -18.5384   17.6191 N   0  0  0  0  0  0  0  0  0  0  0  0
    9.8693  -18.8123   16.5309 C   0  0  0  0  0  0  0  0  0  0  0  0
    8.7077  -17.9034   16.9543 C   0  0  0  0  0  0  0  0  0  0  0  0
    9.4925  -16.6049   17.1769 C   0  0  0  0  0  0  0  0  0  0  0  0
   10.7207  -17.1228   17.8962 C   0  0  1  0  0  0  0  0  0  0  0  0
   10.5286  -16.8508   19.3442 C   0  0  0  0  0  0  0  0  0  0  0  0
   10.6059  -15.6618   19.7934 O   0  0  0  0  0  0  0  0  0  0  0  0
    7.3108  -19.5250   20.6789 N   0  0  0  0  0  0  0  0  0  0  0  0
    7.7130  -18.4682   21.5383 C   0  0  0  0  0  0  0  0  0  0  0  0
    6.9501  -17.4774   21.6431 O   0  0  0  0  0  0  0  0  0  0  0  0
    9.0028  -18.5925   22.2595 C   0  0  0  0  0  0  0  0  0  0  0  0
   10.0272  -17.6134   21.6914 C   0  0  2  0  0  0  0  0  0  0  0  0
   10.2544  -17.8696   20.2846 N   0  0  0  0  0  0  0  0  0  0  0  0
   11.3041  -17.6872   22.4330 C   0  0  0  0  0  0  0  0  0  0  0  0
   11.5511  -18.7363   23.0732 O   0  0  0  0  0  0  0  0  0  0  0  0
   15.4162  -17.5993   18.8214 N   0  0  0  0  0  0  0  0  0  0  0  0
   15.7097  -17.8143   20.1961 C   0  0  0  0  0  0  0  0  0  0  0  0
   16.5465  -18.6978   20.4736 O   0  0  0  0  0  0  0  0  0  0  0  0
   15.0157  -16.9929   21.1853 C   0  0  0  0  0  0  0  0  0  0  0  0
   14.4165  -17.7157   22.3326 C   0  0  0  0  0  0  0  0  0  0  0  0
   13.5159  -16.8655   23.1372 C   0  0  2  0  0  0  0  0  0  0  0  0
   12.2375  -16.6213   22.4372 N   0  0  0  0  0  0  0  0  0  0  0  0
   14.0810  -15.6135   23.6363 C   0  0  0  0  0  0  0  0  0  0  0  0
   13.5618  -14.4850   23.3207 O   0  0  0  0  0  0  0  0  0  0  0  0
   15.1824  -15.5112   24.4651 O   0  0  0  0  0  0  0  0  0  0  0  0
  2  1  1  0
  3  2  1  0
  4  3  1  0
  4  5  1  0
  5  6  1  1
  5  1  1  0
  6  7  2  0
  9  8  1  0
 10  9  2  0
 11  9  1  0
 12 11  1  1
 13 12  1  0
 13  6  1  0
 14 12  1  0
 14 15  2  0
 16 17  1  0
 17 19  1  0
 18 17  2  0
 19 20  1  0
 21 20  1  6
 21 22  1  0
 21 23  1  0
 22 14  1  0
 23 24  2  0
 23 25  1  0
M  END
$$$$
