SRR.pdb
     RDKit          3D

 29 28  0  0  1  0  0  0  0  0999 V2000
   10.1038  -20.6736   19.3386 O   0  0  0  0  0  0  0  0  0  0  0  0
   10.5241  -20.2978   18.0729 C   0  0  0  0  0  0  0  0  0  0  0  0
    9.8714  -18.9817   17.7064 C   0  0  2  0  0  0  0  0  0  0  0  0
   10.3276  -18.5228   16.4196 N   0  0  0  0  0  0  0  0  0  0  0  0
   10.1399  -18.0113   18.7992 C   0  0  0  0  0  0  0  0  0  0  0  0
   11.1894  -17.3313   18.7195 O   0  0  0  0  0  0  0  0  0  0  0  0
    8.2226  -13.1232   17.0728 N   0  0  0  0  0  0  0  0  0  0  0  0
    8.0225  -12.7199   18.4153 C   0  0  0  0  0  0  0  0  0  0  0  0
    8.7935  -11.8197   18.9120 N   0  0  0  0  0  0  0  0  0  0  0  0
    7.0068  -13.2745   19.2258 N   0  0  0  0  0  0  0  0  0  0  0  0
    7.3689  -13.9819   20.4297 C   0  0  0  0  0  0  0  0  0  0  0  0
    7.6689  -15.4129   20.0614 C   0  0  0  0  0  0  0  0  0  0  0  0
    8.2826  -16.1055   21.2398 C   0  0  0  0  0  0  0  0  0  0  0  0
    9.5351  -16.7961   20.8971 C   0  0  2  0  0  0  0  0  0  0  0  0
    9.2873  -17.8173   19.9076 N   0  0  0  0  0  0  0  0  0  0  0  0
   10.2145  -17.4355   22.0459 C   0  0  0  0  0  0  0  0  0  0  0  0
    9.7102  -18.4545   22.5540 O   0  0  0  0  0  0  0  0  0  0  0  0
    8.7252  -11.4971   19.8997 N   0  0  0  0  0  0  0  0  0  0  0  0
   15.7171  -13.9561   21.3637 C   0  0  0  0  0  0  0  0  0  0  0  0
   15.0049  -14.6538   20.3581 N   0  0  0  0  0  0  0  0  0  0  0  0
   14.5816  -13.9345   19.3557 N   0  0  0  0  0  0  0  0  0  0  0  0
   14.7539  -16.0342   20.4067 C   0  0  0  0  0  0  0  0  0  0  0  0
   15.2826  -16.8217   21.5411 C   0  0  0  0  0  0  0  0  0  0  0  0
   14.2129  -17.6939   22.0950 C   0  0  0  0  0  0  0  0  0  0  0  0
   13.6291  -17.1401   23.3473 C   0  0  2  0  0  0  0  0  0  0  0  0
   12.1891  -17.3947   23.6138 N   0  0  0  0  0  0  0  0  0  0  0  0
   11.4101  -16.8594   22.5174 C   0  0  0  0  0  0  0  0  0  0  0  0
   11.6457  -16.9495   24.9047 O   0  0  0  0  0  0  0  0  0  0  0  0
   10.7172  -16.0749   25.0112 O   0  0  0  0  0  0  0  0  0  0  0  0
  2  1  1  0
  3  4  1  6
  3  2  1  0
  5  3  1  0
  6  5  2  0
  7  8  1  0
  8  9  2  0
 10  8  1  0
 11 10  1  0
 12 11  1  0
 12 13  1  0
 14 15  1  0
 14 13  1  1
 15  5  1  0
 16 14  1  0
 17 16  2  0
 18 19  1  0
 19 20  2  0
 19 21  1  0
 21 22  1  0
 23 22  1  0
 24 23  1  0
 25 24  1  6
 25 26  1  0
 26 16  1  0
 27 29  1  0
 27 25  1  0
 28 27  2  0
M  END
$$$$
