SRR.pdb
     RDKit          3D

 29 28  0  0  1  0  0  0  0  0999 V2000
   15.3572  -17.4270   16.0490 O   0  0  0  0  0  0  0  0  0  0  0  0
   14.2146  -17.2845   15.2784 C   0  0  0  0  0  0  0  0  0  0  0  0
   13.8602  -15.8153   15.1879 C   0  0  2  0  0  0  0  0  0  0  0  0
   14.8743  -15.0853   14.4713 N   0  0  0  0  0  0  0  0  0  0  0  0
   13.6409  -15.3058   16.5664 C   0  0  0  0  0  0  0  0  0  0  0  0
   14.1412  -14.1938   16.8550 O   0  0  0  0  0  0  0  0  0  0  0  0
    6.2507  -14.1108   19.6189 N   0  0  0  0  0  0  0  0  0  0  0  0
    7.2538  -13.3266   18.9993 C   0  0  0  0  0  0  0  0  0  0  0  0
    6.8968  -12.3559   18.2366 N   0  0  0  0  0  0  0  0  0  0  0  0
    8.6312  -13.5768   19.1897 N   0  0  0  0  0  0  0  0  0  0  0  0
    9.0428  -14.6082   20.1105 C   0  0  0  0  0  0  0  0  0  0  0  0
   10.5498  -14.6531   20.1223 C   0  0  0  0  0  0  0  0  0  0  0  0
   11.0336  -15.2628   18.8420 C   0  0  0  0  0  0  0  0  0  0  0  0
   12.4994  -15.3701   18.7883 C   0  0  2  0  0  0  0  0  0  0  0  0
   12.9089  -15.9986   17.5551 N   0  0  0  0  0  0  0  0  0  0  0  0
   13.0976  -16.1346   19.9053 C   0  0  0  0  0  0  0  0  0  0  0  0
   12.9509  -17.3709   19.9370 O   0  0  0  0  0  0  0  0  0  0  0  0
    7.5779  -11.7590   17.7226 N   0  0  0  0  0  0  0  0  0  0  0  0
   19.8167  -17.6063   21.7076 C   0  0  0  0  0  0  0  0  0  0  0  0
   19.6857  -16.4481   20.9034 N   0  0  0  0  0  0  0  0  0  0  0  0
   20.6438  -16.2396   20.0432 N   0  0  0  0  0  0  0  0  0  0  0  0
   18.6032  -15.5595   21.0004 C   0  0  0  0  0  0  0  0  0  0  0  0
   17.5196  -15.8487   21.9641 C   0  0  0  0  0  0  0  0  0  0  0  0
   16.5198  -14.7478   21.9482 C   0  0  0  0  0  0  0  0  0  0  0  0
   15.2975  -15.0882   22.7265 C   0  0  2  0  0  0  0  0  0  0  0  0
   14.3185  -16.0207   22.1089 N   0  0  0  0  0  0  0  0  0  0  0  0
   13.8117  -15.4254   20.8906 C   0  0  0  0  0  0  0  0  0  0  0  0
   13.2149  -16.5054   22.9497 O   0  0  0  0  0  0  0  0  0  0  0  0
   12.0011  -16.1269   22.8015 O   0  0  0  0  0  0  0  0  0  0  0  0
  2  1  1  0
  3  4  1  1
  3  2  1  0
  5  3  1  0
  6  5  2  0
  7  8  1  0
  8  9  2  0
 10  8  1  0
 11 10  1  0
 12 11  1  0
 12 13  1  0
 14 15  1  0
 14 13  1  1
 15  5  1  0
 16 14  1  0
 17 16  2  0
 18 19  1  0
 19 20  2  0
 19 21  1  0
 21 22  1  0
 23 22  1  0
 24 23  1  0
 25 24  1  6
 25 26  1  0
 26 16  1  0
 27 29  1  0
 27 25  1  0
 28 27  2  0
M  END
$$$$
