SRR.pdb
     RDKit          3D

 29 28  0  0  1  0  0  0  0  0999 V2000
    5.0257  -20.0732   23.1471 O   0  0  0  0  0  0  0  0  0  0  0  0
    4.2465  -18.9736   22.8251 C   0  0  0  0  0  0  0  0  0  0  0  0
    4.5403  -18.5610   21.3983 C   0  0  2  0  0  0  0  0  0  0  0  0
    4.4368  -19.6871   20.5061 N   0  0  0  0  0  0  0  0  0  0  0  0
    5.8787  -17.9161   21.3688 C   0  0  0  0  0  0  0  0  0  0  0  0
    6.8642  -18.6478   21.1172 O   0  0  0  0  0  0  0  0  0  0  0  0
    8.2967  -11.6610   17.8877 N   0  0  0  0  0  0  0  0  0  0  0  0
    7.9780  -12.8009   17.1103 C   0  0  0  0  0  0  0  0  0  0  0  0
    7.8803  -12.6722   15.8354 N   0  0  0  0  0  0  0  0  0  0  0  0
    7.7624  -14.0717   17.6887 N   0  0  0  0  0  0  0  0  0  0  0  0
    8.1576  -14.3032   19.0567 C   0  0  0  0  0  0  0  0  0  0  0  0
    6.9475  -14.1078   19.9346 C   0  0  0  0  0  0  0  0  0  0  0  0
    7.2940  -14.4898   21.3414 C   0  0  0  0  0  0  0  0  0  0  0  0
    7.4078  -15.9454   21.5176 C   0  0  2  0  0  0  0  0  0  0  0  0
    6.0962  -16.5415   21.6061 N   0  0  0  0  0  0  0  0  0  0  0  0
    8.1732  -16.3582   22.7151 C   0  0  0  0  0  0  0  0  0  0  0  0
    7.6209  -16.3098   23.8303 O   0  0  0  0  0  0  0  0  0  0  0  0
    7.6456  -13.4649   15.2022 N   0  0  0  0  0  0  0  0  0  0  0  0
    9.4775  -22.7611   26.2520 C   0  0  0  0  0  0  0  0  0  0  0  0
   10.8567  -22.4543   26.3470 N   0  0  0  0  0  0  0  0  0  0  0  0
   11.4329  -22.7614   27.4762 N   0  0  0  0  0  0  0  0  0  0  0  0
   11.5880  -21.8576   25.3077 C   0  0  0  0  0  0  0  0  0  0  0  0
   10.8647  -21.1116   24.2557 C   0  0  0  0  0  0  0  0  0  0  0  0
   11.0527  -19.6492   24.4509 C   0  0  0  0  0  0  0  0  0  0  0  0
   10.2981  -18.8475   23.4492 C   0  0  2  0  0  0  0  0  0  0  0  0
   10.3110  -17.3680   23.5921 N   0  0  0  0  0  0  0  0  0  0  0  0
    9.5021  -16.7905   22.5397 C   0  0  0  0  0  0  0  0  0  0  0  0
   11.6189  -16.7020   23.6683 O   0  0  0  0  0  0  0  0  0  0  0  0
   12.1304  -16.0463   22.6951 O   0  0  0  0  0  0  0  0  0  0  0  0
  2  1  1  0
  3  4  1  6
  3  2  1  0
  5  3  1  0
  6  5  2  0
  7  8  1  0
  8  9  2  0
 10  8  1  0
 11 10  1  0
 12 11  1  0
 12 13  1  0
 14 15  1  0
 14 13  1  1
 15  5  1  0
 16 14  1  0
 17 16  2  0
 18 19  1  0
 19 20  2  0
 19 21  1  0
 21 22  1  0
 23 22  1  0
 24 23  1  0
 25 24  1  1
 25 26  1  0
 26 16  1  0
 27 29  1  0
 27 25  1  0
 28 27  2  0
M  END
$$$$
