SRR.pdb
     RDKit          3D

 29 28  0  0  1  0  0  0  0  0999 V2000
    4.5927  -26.3866   28.6067 O   0  0  0  0  0  0  0  0  0  0  0  0
    5.8315  -26.0688   29.1397 C   0  0  0  0  0  0  0  0  0  0  0  0
    6.9095  -26.7520   28.3251 C   0  0  2  0  0  0  0  0  0  0  0  0
    6.8582  -28.1807   28.5004 N   0  0  0  0  0  0  0  0  0  0  0  0
    8.2204  -26.1655   28.7069 C   0  0  0  0  0  0  0  0  0  0  0  0
    8.7511  -26.5820   29.7629 O   0  0  0  0  0  0  0  0  0  0  0  0
   15.4946  -24.9534   25.5492 N   0  0  0  0  0  0  0  0  0  0  0  0
   15.5564  -23.8974   26.4906 C   0  0  0  0  0  0  0  0  0  0  0  0
   16.7032  -23.3983   26.7856 N   0  0  0  0  0  0  0  0  0  0  0  0
   14.4016  -23.3767   27.1163 N   0  0  0  0  0  0  0  0  0  0  0  0
   13.1030  -23.8732   26.7316 C   0  0  0  0  0  0  0  0  0  0  0  0
   12.0730  -23.2443   27.6353 C   0  0  0  0  0  0  0  0  0  0  0  0
   10.7198  -23.7880   27.2916 C   0  0  0  0  0  0  0  0  0  0  0  0
   10.1705  -24.6435   28.3543 C   0  0  2  0  0  0  0  0  0  0  0  0
    8.8906  -25.1772   27.9538 N   0  0  0  0  0  0  0  0  0  0  0  0
    9.9884  -23.9615   29.6551 C   0  0  0  0  0  0  0  0  0  0  0  0
    8.8397  -23.6372   30.0105 O   0  0  0  0  0  0  0  0  0  0  0  0
   16.8273  -22.6390   27.4874 N   0  0  0  0  0  0  0  0  0  0  0  0
    7.7270  -25.9231   36.8287 C   0  0  0  0  0  0  0  0  0  0  0  0
    8.2108  -24.6200   37.0990 N   0  0  0  0  0  0  0  0  0  0  0  0
    7.8984  -24.1261   38.2651 N   0  0  0  0  0  0  0  0  0  0  0  0
    8.9824  -23.8791   36.1898 C   0  0  0  0  0  0  0  0  0  0  0  0
    9.1318  -24.3728   34.8040 C   0  0  0  0  0  0  0  0  0  0  0  0
   10.0747  -23.5007   34.0541 C   0  0  0  0  0  0  0  0  0  0  0  0
   10.1964  -23.9029   32.6261 C   0  0  1  0  0  0  0  0  0  0  0  0
   11.0914  -23.0994   31.7525 N   0  0  0  0  0  0  0  0  0  0  0  0
   11.1303  -23.7074   30.4394 C   0  0  0  0  0  0  0  0  0  0  0  0
   12.4505  -22.8235   32.2389 O   0  0  0  0  0  0  0  0  0  0  0  0
   13.5014  -23.3256   31.7078 O   0  0  0  0  0  0  0  0  0  0  0  0
  2  1  1  0
  3  4  1  1
  3  2  1  0
  5  3  1  0
  6  5  2  0
  7  8  1  0
  8  9  2  0
 10  8  1  0
 11 10  1  0
 12 11  1  0
 12 13  1  0
 14 15  1  0
 14 13  1  6
 15  5  1  0
 16 14  1  0
 17 16  2  0
 18 19  1  0
 19 20  2  0
 19 21  1  0
 21 22  1  0
 23 22  1  0
 24 23  1  0
 25 24  1  6
 25 26  1  0
 26 16  1  0
 27 29  1  0
 27 25  1  0
 28 27  2  0
M  END
$$$$
