SRR.pdb
     RDKit          3D

 29 28  0  0  1  0  0  0  0  0999 V2000
    8.7518  -15.1918   16.1670 O   0  0  0  0  0  0  0  0  0  0  0  0
    8.4365  -15.5521   17.4672 C   0  0  0  0  0  0  0  0  0  0  0  0
    7.8701  -14.3481   18.1896 C   0  0  2  0  0  0  0  0  0  0  0  0
    8.1456  -13.1359   17.4621 N   0  0  0  0  0  0  0  0  0  0  0  0
    8.4191  -14.3358   19.5704 C   0  0  0  0  0  0  0  0  0  0  0  0
    9.5128  -13.7510   19.7492 O   0  0  0  0  0  0  0  0  0  0  0  0
    8.4222  -11.9626   26.3400 N   0  0  0  0  0  0  0  0  0  0  0  0
    7.1493  -12.5125   26.6271 C   0  0  0  0  0  0  0  0  0  0  0  0
    6.7208  -12.4807   27.8382 N   0  0  0  0  0  0  0  0  0  0  0  0
    6.3373  -13.0956   25.6287 N   0  0  0  0  0  0  0  0  0  0  0  0
    6.4982  -14.4939   25.3125 C   0  0  0  0  0  0  0  0  0  0  0  0
    7.6877  -14.6345   24.3968 C   0  0  0  0  0  0  0  0  0  0  0  0
    7.2203  -14.5930   22.9739 C   0  0  0  0  0  0  0  0  0  0  0  0
    8.3099  -14.8354   22.0163 C   0  0  2  0  0  0  0  0  0  0  0  0
    7.7829  -14.9398   20.6765 N   0  0  0  0  0  0  0  0  0  0  0  0
    9.1010  -16.0565   22.2868 C   0  0  0  0  0  0  0  0  0  0  0  0
    8.5343  -17.1646   22.2427 O   0  0  0  0  0  0  0  0  0  0  0  0
    5.7990  -12.8721   28.1237 N   0  0  0  0  0  0  0  0  0  0  0  0
   17.8133  -17.9803   22.7107 C   0  0  0  0  0  0  0  0  0  0  0  0
   17.0259  -17.4778   21.6463 N   0  0  0  0  0  0  0  0  0  0  0  0
   17.5559  -17.5584   20.4572 N   0  0  0  0  0  0  0  0  0  0  0  0
   15.7493  -16.9221   21.8263 C   0  0  0  0  0  0  0  0  0  0  0  0
   15.1850  -16.8437   23.1908 C   0  0  0  0  0  0  0  0  0  0  0  0
   13.8400  -17.4779   23.2204 C   0  0  0  0  0  0  0  0  0  0  0  0
   12.7607  -16.5230   22.8476 C   0  0  1  0  0  0  0  0  0  0  0  0
   11.3591  -17.0176   22.8670 N   0  0  0  0  0  0  0  0  0  0  0  0
   10.4699  -15.9108   22.5845 C   0  0  0  0  0  0  0  0  0  0  0  0
   10.9124  -17.7534   24.0582 O   0  0  0  0  0  0  0  0  0  0  0  0
   11.1562  -18.9955   24.2484 O   0  0  0  0  0  0  0  0  0  0  0  0
  2  1  1  0
  3  4  1  6
  3  2  1  0
  5  3  1  0
  6  5  2  0
  7  8  1  0
  8  9  2  0
 10  8  1  0
 11 10  1  0
 12 11  1  0
 12 13  1  0
 14 15  1  0
 14 13  1  1
 15  5  1  0
 16 14  1  0
 17 16  2  0
 18 19  1  0
 19 20  2  0
 19 21  1  0
 21 22  1  0
 23 22  1  0
 24 23  1  0
 25 24  1  6
 25 26  1  0
 26 16  1  0
 27 29  1  0
 27 25  1  0
 28 27  2  0
M  END
$$$$
