SRR.pdb
     RDKit          3D

 29 28  0  0  1  0  0  0  0  0999 V2000
    8.6467  -11.8879   19.5133 O   0  0  0  0  0  0  0  0  0  0  0  0
    8.8308  -12.9244   20.4141 C   0  0  0  0  0  0  0  0  0  0  0  0
    8.1226  -14.1590   19.8977 C   0  0  2  0  0  0  0  0  0  0  0  0
    6.6959  -14.0353   20.0522 N   0  0  0  0  0  0  0  0  0  0  0  0
    8.6836  -15.3425   20.5997 C   0  0  0  0  0  0  0  0  0  0  0  0
    8.0688  -15.7569   21.6098 O   0  0  0  0  0  0  0  0  0  0  0  0
   13.3172  -19.5580   17.0383 N   0  0  0  0  0  0  0  0  0  0  0  0
   14.1111  -19.7400   18.1967 C   0  0  0  0  0  0  0  0  0  0  0  0
   15.3891  -19.6588   18.0894 N   0  0  0  0  0  0  0  0  0  0  0  0
   13.5460  -20.0093   19.4632 N   0  0  0  0  0  0  0  0  0  0  0  0
   12.1264  -20.2425   19.5701 C   0  0  0  0  0  0  0  0  0  0  0  0
   11.5744  -19.3080   20.6165 C   0  0  0  0  0  0  0  0  0  0  0  0
   11.0148  -18.0918   19.9436 C   0  0  0  0  0  0  0  0  0  0  0  0
   10.3511  -17.1809   20.8885 C   0  0  2  0  0  0  0  0  0  0  0  0
    9.8566  -16.0158   20.1947 N   0  0  0  0  0  0  0  0  0  0  0  0
   11.2143  -16.7144   21.9964 C   0  0  0  0  0  0  0  0  0  0  0  0
   12.0081  -15.7775   21.7892 O   0  0  0  0  0  0  0  0  0  0  0  0
   16.0345  -19.7817   18.8973 N   0  0  0  0  0  0  0  0  0  0  0  0
   11.0651  -20.1834   30.2610 C   0  0  0  0  0  0  0  0  0  0  0  0
   12.2607  -19.4295   30.1744 N   0  0  0  0  0  0  0  0  0  0  0  0
   12.9818  -19.3770   31.2600 N   0  0  0  0  0  0  0  0  0  0  0  0
   12.6733  -18.7685   29.0066 C   0  0  0  0  0  0  0  0  0  0  0  0
   11.7587  -18.7211   27.8457 C   0  0  0  0  0  0  0  0  0  0  0  0
   12.3955  -17.9736   26.7288 C   0  0  0  0  0  0  0  0  0  0  0  0
   11.5128  -17.8912   25.5331 C   0  0  1  0  0  0  0  0  0  0  0  0
   12.0216  -17.1591   24.3437 N   0  0  0  0  0  0  0  0  0  0  0  0
   11.0992  -17.3552   23.2454 C   0  0  0  0  0  0  0  0  0  0  0  0
   13.4025  -17.4268   23.9179 O   0  0  0  0  0  0  0  0  0  0  0  0
   14.3564  -16.5850   24.0598 O   0  0  0  0  0  0  0  0  0  0  0  0
  2  1  1  0
  3  4  1  1
  3  2  1  0
  5  3  1  0
  6  5  2  0
  7  8  1  0
  8  9  2  0
 10  8  1  0
 11 10  1  0
 12 11  1  0
 12 13  1  0
 14 15  1  0
 14 13  1  6
 15  5  1  0
 16 14  1  0
 17 16  2  0
 18 19  1  0
 19 20  2  0
 19 21  1  0
 21 22  1  0
 23 22  1  0
 24 23  1  0
 25 24  1  1
 25 26  1  0
 26 16  1  0
 27 29  1  0
 27 25  1  0
 28 27  2  0
M  END
$$$$
