SRR.pdb
     RDKit          3D

 29 28  0  0  1  0  0  0  0  0999 V2000
    3.5118  -21.1540   20.2449 O   0  0  0  0  0  0  0  0  0  0  0  0
    4.2442  -20.1240   20.8128 C   0  0  0  0  0  0  0  0  0  0  0  0
    3.5936  -19.7167   22.1178 C   0  0  2  0  0  0  0  0  0  0  0  0
    2.3246  -19.0774   21.8817 N   0  0  0  0  0  0  0  0  0  0  0  0
    4.5489  -18.8564   22.8631 C   0  0  0  0  0  0  0  0  0  0  0  0
    4.3946  -17.6160   22.7758 O   0  0  0  0  0  0  0  0  0  0  0  0
    8.3219  -19.2835   30.9551 N   0  0  0  0  0  0  0  0  0  0  0  0
    8.8572  -19.4947   29.6612 C   0  0  0  0  0  0  0  0  0  0  0  0
    9.8331  -20.3192   29.5228 N   0  0  0  0  0  0  0  0  0  0  0  0
    8.3562  -18.8290   28.5202 N   0  0  0  0  0  0  0  0  0  0  0  0
    8.8707  -19.1728   27.2171 C   0  0  0  0  0  0  0  0  0  0  0  0
    8.1523  -18.3327   26.1918 C   0  0  0  0  0  0  0  0  0  0  0  0
    7.1665  -19.1895   25.4576 C   0  0  0  0  0  0  0  0  0  0  0  0
    6.5352  -18.4832   24.3325 C   0  0  2  0  0  0  0  0  0  0  0  0
    5.6070  -19.3554   23.6534 N   0  0  0  0  0  0  0  0  0  0  0  0
    7.4871  -17.9643   23.3252 C   0  0  0  0  0  0  0  0  0  0  0  0
    7.8899  -18.7269   22.4268 O   0  0  0  0  0  0  0  0  0  0  0  0
   10.2819  -20.5171   28.6042 N   0  0  0  0  0  0  0  0  0  0  0  0
    7.4867  -14.4275   17.3444 C   0  0  0  0  0  0  0  0  0  0  0  0
    8.1239  -13.1840   17.5748 N   0  0  0  0  0  0  0  0  0  0  0  0
    8.6646  -12.6181   16.5314 N   0  0  0  0  0  0  0  0  0  0  0  0
    8.1864  -12.5708   18.8362 C   0  0  0  0  0  0  0  0  0  0  0  0
    7.5395  -13.2319   19.9899 C   0  0  0  0  0  0  0  0  0  0  0  0
    8.5228  -14.0960   20.6959 C   0  0  0  0  0  0  0  0  0  0  0  0
    7.8913  -14.8926   21.7832 C   0  0  2  0  0  0  0  0  0  0  0  0
    8.7109  -15.9458   22.4377 N   0  0  0  0  0  0  0  0  0  0  0  0
    7.8985  -16.6212   23.4275 C   0  0  0  0  0  0  0  0  0  0  0  0
   10.0038  -15.5457   23.0106 O   0  0  0  0  0  0  0  0  0  0  0  0
   10.9729  -15.0928   22.3076 O   0  0  0  0  0  0  0  0  0  0  0  0
  2  1  1  0
  3  4  1  6
  3  2  1  0
  5  3  1  0
  6  5  2  0
  7  8  1  0
  8  9  2  0
 10  8  1  0
 11 10  1  0
 12 11  1  0
 12 13  1  0
 14 15  1  0
 14 13  1  1
 15  5  1  0
 16 14  1  0
 17 16  2  0
 18 19  1  0
 19 20  2  0
 19 21  1  0
 21 22  1  0
 23 22  1  0
 24 23  1  0
 25 24  1  6
 25 26  1  0
 26 16  1  0
 27 29  1  0
 27 25  1  0
 28 27  2  0
M  END
$$$$
