SRR.pdb
     RDKit          3D

 29 28  0  0  1  0  0  0  0  0999 V2000
    7.2551  -14.6699   45.7742 O   0  0  0  0  0  0  0  0  0  0  0  0
    8.0971  -13.5939   45.5436 C   0  0  0  0  0  0  0  0  0  0  0  0
    9.3889  -14.0991   44.9367 C   0  0  2  0  0  0  0  0  0  0  0  0
   10.1645  -14.8245   45.9098 N   0  0  0  0  0  0  0  0  0  0  0  0
   10.1159  -12.9377   44.3615 C   0  0  0  0  0  0  0  0  0  0  0  0
   10.7680  -12.2181   45.1533 O   0  0  0  0  0  0  0  0  0  0  0  0
   14.2740  -14.4108   40.6381 N   0  0  0  0  0  0  0  0  0  0  0  0
   14.0252  -14.0724   39.2858 C   0  0  0  0  0  0  0  0  0  0  0  0
   15.0236  -13.8123   38.5197 N   0  0  0  0  0  0  0  0  0  0  0  0
   12.7183  -14.0094   38.7526 N   0  0  0  0  0  0  0  0  0  0  0  0
   11.8600  -12.9067   39.1106 C   0  0  0  0  0  0  0  0  0  0  0  0
   11.8552  -12.7837   40.6133 C   0  0  0  0  0  0  0  0  0  0  0  0
   11.0072  -11.6133   41.0081 C   0  0  0  0  0  0  0  0  0  0  0  0
   10.8619  -11.4900   42.4664 C   0  0  2  0  0  0  0  0  0  0  0  0
   10.1108  -12.6063   42.9892 N   0  0  0  0  0  0  0  0  0  0  0  0
   10.1926  -10.2473   42.9111 C   0  0  0  0  0  0  0  0  0  0  0  0
    8.9790  -10.2819   43.1888 O   0  0  0  0  0  0  0  0  0  0  0  0
   14.9140  -13.4568   37.5470 N   0  0  0  0  0  0  0  0  0  0  0  0
    7.6117  -11.3525   47.3453 C   0  0  0  0  0  0  0  0  0  0  0  0
    6.6084  -10.3847   47.0962 N   0  0  0  0  0  0  0  0  0  0  0  0
    5.3765  -10.8049   47.1825 N   0  0  0  0  0  0  0  0  0  0  0  0
    6.8890   -9.0472   46.7749 C   0  0  0  0  0  0  0  0  0  0  0  0
    8.2974   -8.6262   46.6157 C   0  0  0  0  0  0  0  0  0  0  0  0
    8.5991   -8.3990   45.1771 C   0  0  0  0  0  0  0  0  0  0  0  0
   10.0306   -8.0597   44.9504 C   0  0  2  0  0  0  0  0  0  0  0  0
   10.4752   -7.8247   43.5517 N   0  0  0  0  0  0  0  0  0  0  0  0
   10.9629   -9.0717   43.0014 C   0  0  0  0  0  0  0  0  0  0  0  0
   11.4381   -6.7397   43.3157 O   0  0  0  0  0  0  0  0  0  0  0  0
   12.6820   -6.9417   43.0914 O   0  0  0  0  0  0  0  0  0  0  0  0
  2  1  1  0
  3  4  1  1
  3  2  1  0
  5  3  1  0
  6  5  2  0
  7  8  1  0
  8  9  2  0
 10  8  1  0
 11 10  1  0
 12 11  1  0
 12 13  1  0
 14 15  1  0
 14 13  1  6
 15  5  1  0
 16 14  1  0
 17 16  2  0
 18 19  1  0
 19 20  2  0
 19 21  1  0
 21 22  1  0
 23 22  1  0
 24 23  1  0
 25 24  1  6
 25 26  1  0
 26 16  1  0
 27 29  1  0
 27 25  1  0
 28 27  2  0
M  END
$$$$
