SRR.pdb
     RDKit          3D

 29 28  0  0  1  0  0  0  0  0999 V2000
   12.4795  -15.9749   13.9047 O   0  0  0  0  0  0  0  0  0  0  0  0
   12.0659  -17.2667   13.6218 C   0  0  0  0  0  0  0  0  0  0  0  0
   10.6329  -17.4377   14.0799 C   0  0  2  0  0  0  0  0  0  0  0  0
    9.8082  -16.3580   13.6017 N   0  0  0  0  0  0  0  0  0  0  0  0
   10.6314  -17.5594   15.5609 C   0  0  0  0  0  0  0  0  0  0  0  0
    9.9900  -16.6991   16.2079 O   0  0  0  0  0  0  0  0  0  0  0  0
   11.3651  -24.6568   15.7308 N   0  0  0  0  0  0  0  0  0  0  0  0
   11.1582  -23.3872   15.1389 C   0  0  0  0  0  0  0  0  0  0  0  0
   11.2551  -23.2769   13.8623 N   0  0  0  0  0  0  0  0  0  0  0  0
   10.8512  -22.2397   15.9039 N   0  0  0  0  0  0  0  0  0  0  0  0
   10.8210  -22.3356   17.3430 C   0  0  0  0  0  0  0  0  0  0  0  0
   10.3249  -21.0214   17.8909 C   0  0  0  0  0  0  0  0  0  0  0  0
   11.4911  -20.1041   18.0993 C   0  0  0  0  0  0  0  0  0  0  0  0
   11.1964  -18.7195   17.7007 C   0  0  2  0  0  0  0  0  0  0  0  0
   11.3052  -18.5786   16.2683 N   0  0  0  0  0  0  0  0  0  0  0  0
   12.0753  -17.7041   18.3225 C   0  0  0  0  0  0  0  0  0  0  0  0
   12.6415  -16.8683   17.5931 O   0  0  0  0  0  0  0  0  0  0  0  0
   11.1591  -22.3680   13.3630 N   0  0  0  0  0  0  0  0  0  0  0  0
    8.2893  -12.5366   17.9889 C   0  0  0  0  0  0  0  0  0  0  0  0
    7.8696  -13.3264   19.0868 N   0  0  0  0  0  0  0  0  0  0  0  0
    6.5980  -13.2754   19.3731 N   0  0  0  0  0  0  0  0  0  0  0  0
    8.7428  -14.1269   19.8403 C   0  0  0  0  0  0  0  0  0  0  0  0
    9.9820  -13.5276   20.3805 C   0  0  0  0  0  0  0  0  0  0  0  0
   10.7580  -14.5540   21.1264 C   0  0  0  0  0  0  0  0  0  0  0  0
   10.9896  -15.7811   20.3165 C   0  0  1  0  0  0  0  0  0  0  0  0
   12.2425  -16.5445   20.5555 N   0  0  0  0  0  0  0  0  0  0  0  0
   12.2341  -17.7278   19.7217 C   0  0  0  0  0  0  0  0  0  0  0  0
   12.5761  -16.8889   21.9448 O   0  0  0  0  0  0  0  0  0  0  0  0
   12.2393  -17.9950   22.4940 O   0  0  0  0  0  0  0  0  0  0  0  0
  2  1  1  0
  3  4  1  1
  3  2  1  0
  5  3  1  0
  6  5  2  0
  7  8  1  0
  8  9  2  0
 10  8  1  0
 11 10  1  0
 12 11  1  0
 12 13  1  0
 14 15  1  0
 14 13  1  6
 15  5  1  0
 16 14  1  0
 17 16  2  0
 18 19  1  0
 19 20  2  0
 19 21  1  0
 21 22  1  0
 23 22  1  0
 24 23  1  0
 25 24  1  6
 25 26  1  0
 26 16  1  0
 27 29  1  0
 27 25  1  0
 28 27  2  0
M  END
$$$$
