DMA.pdb
     RDKit          3D

 22 21  0  0  1  0  0  0  0  0999 V2000
   20.9600  -10.0045  -19.9648 N   0  0  0  0  0  0  0  0  0  0  0  0
   21.3983   -8.6637  -19.6516 C   0  0  1  0  0  0  0  0  0  0  0  0
   20.8932   -7.7385  -20.7393 C   0  0  0  0  0  0  0  0  0  0  0  0
   21.9810   -7.4755  -21.6993 C   0  0  0  0  0  0  0  0  0  0  0  0
   22.6397   -8.4456  -22.1437 O   0  0  0  0  0  0  0  0  0  0  0  0
   20.8741   -8.2035  -18.3420 C   0  0  0  0  0  0  0  0  0  0  0  0
   19.6476   -8.1143  -18.1103 O   0  0  0  0  0  0  0  0  0  0  0  0
   22.2539   -6.1888  -22.0880 O   0  0  0  0  0  0  0  0  0  0  0  0
   22.5083   -9.2614  -10.8622 C   0  0  0  0  0  0  0  0  0  0  0  0
   22.7496   -9.4556  -12.6471 S   0  0  0  0  0  0  0  0  0  0  0  0
   21.7194   -8.2486  -13.5668 C   0  0  0  0  0  0  0  0  0  0  0  0
   22.0370   -8.4724  -15.0317 C   0  0  0  0  0  0  0  0  0  0  0  0
   21.2710   -7.5438  -15.9484 C   0  0  2  0  0  0  0  0  0  0  0  0
   21.7645   -7.8465  -17.3006 N   0  0  0  0  0  0  0  0  0  0  0  0
   21.4942   -6.1183  -15.6680 C   0  0  0  0  0  0  0  0  0  0  0  0
   22.5760   -5.5745  -15.9424 O   0  0  0  0  0  0  0  0  0  0  0  0
   19.3878   -3.2778  -14.4833 C   0  0  0  0  0  0  0  0  0  0  0  0
   20.7106   -3.9488  -14.7849 C   0  0  2  0  0  0  0  0  0  0  0  0
   20.4701   -5.3406  -15.0766 N   0  0  0  0  0  0  0  0  0  0  0  0
   21.5538   -3.7879  -13.5558 C   0  0  0  0  0  0  0  0  0  0  0  0
   21.8682   -4.9369  -12.8452 O   0  0  0  0  0  0  0  0  0  0  0  0
   21.9654   -2.6717  -13.1725 O   0  0  0  0  0  0  0  0  0  0  0  0
  2  1  1  6
  3  4  1  0
  3  2  1  0
  4  5  2  0
  6  7  2  0
  6  2  1  0
  8  4  1  0
  9 10  1  0
 11 10  1  0
 11 12  1  0
 13 12  1  1
 13 14  1  0
 13 15  1  0
 14  6  1  0
 15 19  1  0
 16 15  2  0
 18 17  1  1
 18 20  1  0
 19 18  1  0
 20 22  2  0
 20 21  1  0
M  END
$$$$
