DMA.pdb
     RDKit          3D

 22 21  0  0  1  0  0  0  0  0999 V2000
   19.8823  -12.2521  -16.6250 N   0  0  0  0  0  0  0  0  0  0  0  0
   20.0789  -10.9158  -17.1383 C   0  0  1  0  0  0  0  0  0  0  0  0
   18.7193  -10.3336  -17.4649 C   0  0  0  0  0  0  0  0  0  0  0  0
   18.1752  -11.0063  -18.6588 C   0  0  0  0  0  0  0  0  0  0  0  0
   18.9747  -11.4490  -19.5176 O   0  0  0  0  0  0  0  0  0  0  0  0
   20.7567  -10.0397  -16.1511 C   0  0  0  0  0  0  0  0  0  0  0  0
   20.5193  -10.1109  -14.9245 O   0  0  0  0  0  0  0  0  0  0  0  0
   16.8185  -11.1369  -18.8116 O   0  0  0  0  0  0  0  0  0  0  0  0
   26.9869  -11.5098  -14.9449 C   0  0  0  0  0  0  0  0  0  0  0  0
   26.2031  -10.1342  -15.8252 S   0  0  0  0  0  0  0  0  0  0  0  0
   24.4695   -9.9213  -15.2650 C   0  0  0  0  0  0  0  0  0  0  0  0
   23.9617   -8.6792  -15.9694 C   0  0  0  0  0  0  0  0  0  0  0  0
   22.5311   -8.3423  -15.6101 C   0  0  2  0  0  0  0  0  0  0  0  0
   21.7079   -9.0820  -16.5789 N   0  0  0  0  0  0  0  0  0  0  0  0
   22.2164   -6.9102  -15.7131 C   0  0  0  0  0  0  0  0  0  0  0  0
   22.2710   -6.3205  -16.8042 O   0  0  0  0  0  0  0  0  0  0  0  0
   20.7472   -4.3298  -13.4844 C   0  0  0  0  0  0  0  0  0  0  0  0
   21.5885   -4.7633  -14.6656 C   0  0  2  0  0  0  0  0  0  0  0  0
   21.8440   -6.1788  -14.5600 N   0  0  0  0  0  0  0  0  0  0  0  0
   22.8605   -3.9735  -14.5885 C   0  0  0  0  0  0  0  0  0  0  0  0
   22.8309   -2.6716  -15.0662 O   0  0  0  0  0  0  0  0  0  0  0  0
   23.9139   -4.4527  -14.1162 O   0  0  0  0  0  0  0  0  0  0  0  0
  2  1  1  1
  3  4  1  0
  3  2  1  0
  4  5  2  0
  6  7  2  0
  6  2  1  0
  8  4  1  0
  9 10  1  0
 11 10  1  0
 11 12  1  0
 13 12  1  6
 13 14  1  0
 13 15  1  0
 14  6  1  0
 15 19  1  0
 16 15  2  0
 18 17  1  1
 18 20  1  0
 19 18  1  0
 20 22  2  0
 20 21  1  0
M  END
$$$$
