DMA.pdb
     RDKit          3D

 22 21  0  0  1  0  0  0  0  0999 V2000
   21.6902  -11.0645  -20.4588 N   0  0  0  0  0  0  0  0  0  0  0  0
   22.0356   -9.7586  -19.9459 C   0  0  1  0  0  0  0  0  0  0  0  0
   21.3006   -8.7213  -20.7693 C   0  0  0  0  0  0  0  0  0  0  0  0
   21.9594   -8.5842  -22.0812 C   0  0  0  0  0  0  0  0  0  0  0  0
   23.2081   -8.6822  -22.1412 O   0  0  0  0  0  0  0  0  0  0  0  0
   21.6523   -9.6064  -18.5206 C   0  0  0  0  0  0  0  0  0  0  0  0
   20.5436   -9.9899  -18.0850 O   0  0  0  0  0  0  0  0  0  0  0  0
   21.2062   -8.3543  -23.2041 O   0  0  0  0  0  0  0  0  0  0  0  0
   24.0836  -13.8425  -14.9066 C   0  0  0  0  0  0  0  0  0  0  0  0
   24.2874  -12.0463  -14.7891 S   0  0  0  0  0  0  0  0  0  0  0  0
   22.8860  -11.1889  -15.6047 C   0  0  0  0  0  0  0  0  0  0  0  0
   23.1459   -9.7080  -15.4142 C   0  0  0  0  0  0  0  0  0  0  0  0
   22.1788   -8.8368  -16.1856 C   0  0  2  0  0  0  0  0  0  0  0  0
   22.5476   -9.0122  -17.5986 N   0  0  0  0  0  0  0  0  0  0  0  0
   22.2659   -7.4098  -15.8442 C   0  0  0  0  0  0  0  0  0  0  0  0
   23.2844   -6.7505  -16.1073 O   0  0  0  0  0  0  0  0  0  0  0  0
   19.8880   -4.8197  -14.6315 C   0  0  0  0  0  0  0  0  0  0  0  0
   21.2794   -5.3629  -14.8758 C   0  0  2  0  0  0  0  0  0  0  0  0
   21.1806   -6.7634  -15.2057 N   0  0  0  0  0  0  0  0  0  0  0  0
   22.0415   -5.1563  -13.6013 C   0  0  0  0  0  0  0  0  0  0  0  0
   22.3114   -6.2787  -12.8324 O   0  0  0  0  0  0  0  0  0  0  0  0
   22.4256   -4.0258  -13.2315 O   0  0  0  0  0  0  0  0  0  0  0  0
  2  1  1  6
  3  4  1  0
  3  2  1  0
  4  5  2  0
  6  7  2  0
  6  2  1  0
  8  4  1  0
  9 10  1  0
 11 10  1  0
 11 12  1  0
 13 12  1  1
 13 14  1  0
 13 15  1  0
 14  6  1  0
 15 19  1  0
 16 15  2  0
 18 17  1  1
 18 20  1  0
 19 18  1  0
 20 22  2  0
 20 21  1  0
M  END
$$$$
