DMA.pdb
     RDKit          3D

 22 21  0  0  1  0  0  0  0  0999 V2000
   18.1046  -10.9998  -16.7808 N   0  0  0  0  0  0  0  0  0  0  0  0
   17.9011   -9.6373  -16.3449 C   0  0  1  0  0  0  0  0  0  0  0  0
   16.5747   -9.5705  -15.6165 C   0  0  0  0  0  0  0  0  0  0  0  0
   15.4762   -9.6237  -16.5986 C   0  0  0  0  0  0  0  0  0  0  0  0
   15.7307   -9.3747  -17.8010 O   0  0  0  0  0  0  0  0  0  0  0  0
   18.9788   -9.1833  -15.4317 C   0  0  0  0  0  0  0  0  0  0  0  0
   19.2299   -9.7696  -14.3552 O   0  0  0  0  0  0  0  0  0  0  0  0
   14.2066   -9.9410  -16.1881 O   0  0  0  0  0  0  0  0  0  0  0  0
   26.0647   -9.8162  -14.6573 C   0  0  0  0  0  0  0  0  0  0  0  0
   24.4007   -9.9425  -15.3621 S   0  0  0  0  0  0  0  0  0  0  0  0
   23.3683   -8.5257  -14.8225 C   0  0  0  0  0  0  0  0  0  0  0  0
   21.9827   -8.7960  -15.3737 C   0  0  0  0  0  0  0  0  0  0  0  0
   20.9812   -7.7255  -14.9992 C   0  0  2  0  0  0  0  0  0  0  0  0
   19.7663   -8.0534  -15.7606 N   0  0  0  0  0  0  0  0  0  0  0  0
   21.4105   -6.3643  -15.3505 C   0  0  0  0  0  0  0  0  0  0  0  0
   21.7352   -6.0764  -16.5136 O   0  0  0  0  0  0  0  0  0  0  0  0
   21.5794   -3.0915  -13.5598 C   0  0  0  0  0  0  0  0  0  0  0  0
   21.8655   -4.0197  -14.7206 C   0  0  2  0  0  0  0  0  0  0  0  0
   21.4597   -5.3555  -14.3588 N   0  0  0  0  0  0  0  0  0  0  0  0
   23.3432   -3.9466  -14.9634 C   0  0  0  0  0  0  0  0  0  0  0  0
   23.8223   -2.8354  -15.6413 O   0  0  0  0  0  0  0  0  0  0  0  0
   24.1260   -4.8415  -14.5777 O   0  0  0  0  0  0  0  0  0  0  0  0
  2  1  1  1
  3  4  1  0
  3  2  1  0
  4  5  2  0
  6  7  2  0
  6  2  1  0
  8  4  1  0
  9 10  1  0
 11 10  1  0
 11 12  1  0
 13 12  1  6
 13 14  1  0
 13 15  1  0
 14  6  1  0
 15 19  1  0
 16 15  2  0
 18 17  1  1
 18 20  1  0
 19 18  1  0
 20 22  2  0
 20 21  1  0
M  END
$$$$
