DMA.pdb
     RDKit          3D

 22 21  0  0  1  0  0  0  0  0999 V2000
   20.0720  -12.0919  -17.8578 N   0  0  0  0  0  0  0  0  0  0  0  0
   19.3459  -11.6300  -16.6971 C   0  0  1  0  0  0  0  0  0  0  0  0
   18.7949  -12.8421  -15.9750 C   0  0  0  0  0  0  0  0  0  0  0  0
   17.7572  -13.4761  -16.8088 C   0  0  0  0  0  0  0  0  0  0  0  0
   17.2374  -12.8086  -17.7344 O   0  0  0  0  0  0  0  0  0  0  0  0
   20.2168  -10.8674  -15.7689 C   0  0  0  0  0  0  0  0  0  0  0  0
   19.8328  -10.5209  -14.6294 O   0  0  0  0  0  0  0  0  0  0  0  0
   17.3796  -14.7715  -16.5633 O   0  0  0  0  0  0  0  0  0  0  0  0
   26.7850  -10.2858  -16.7687 C   0  0  0  0  0  0  0  0  0  0  0  0
   26.4140  -10.4107  -15.0000 S   0  0  0  0  0  0  0  0  0  0  0  0
   24.8276   -9.5727  -14.6186 C   0  0  0  0  0  0  0  0  0  0  0  0
   23.7713  -10.3170  -15.4104 C   0  0  0  0  0  0  0  0  0  0  0  0
   22.3923   -9.7112  -15.2666 C   0  0  2  0  0  0  0  0  0  0  0  0
   21.5299  -10.5050  -16.1551 N   0  0  0  0  0  0  0  0  0  0  0  0
   22.3209   -8.2996  -15.6701 C   0  0  0  0  0  0  0  0  0  0  0  0
   22.7318   -7.9309  -16.7820 O   0  0  0  0  0  0  0  0  0  0  0  0
   20.4483   -5.3751  -15.2034 C   0  0  0  0  0  0  0  0  0  0  0  0
   21.8525   -5.9351  -15.1308 C   0  0  2  0  0  0  0  0  0  0  0  0
   21.7781   -7.3342  -14.7887 N   0  0  0  0  0  0  0  0  0  0  0  0
   22.5633   -5.1520  -14.0681 C   0  0  0  0  0  0  0  0  0  0  0  0
   22.8812   -3.8328  -14.3554 O   0  0  0  0  0  0  0  0  0  0  0  0
   22.8649   -5.6516  -12.9628 O   0  0  0  0  0  0  0  0  0  0  0  0
  2  1  1  6
  3  4  1  0
  3  2  1  0
  4  5  2  0
  6  7  2  0
  6  2  1  0
  8  4  1  0
  9 10  1  0
 11 10  1  0
 11 12  1  0
 13 12  1  6
 13 14  1  0
 13 15  1  0
 14  6  1  0
 15 19  1  0
 16 15  2  0
 18 17  1  1
 18 20  1  0
 19 18  1  0
 20 22  2  0
 20 21  1  0
M  END
$$$$
