DMA.pdb
     RDKit          3D

 22 21  0  0  1  0  0  0  0  0999 V2000
   25.3159  -35.3043  -11.2662 N   0  0  0  0  0  0  0  0  0  0  0  0
   25.5989  -33.8874  -11.2743 C   0  0  1  0  0  0  0  0  0  0  0  0
   24.6417  -33.2229  -12.2420 C   0  0  0  0  0  0  0  0  0  0  0  0
   24.9351  -33.6838  -13.6115 C   0  0  0  0  0  0  0  0  0  0  0  0
   25.9228  -34.4342  -13.7958 O   0  0  0  0  0  0  0  0  0  0  0  0
   25.4269  -33.2826   -9.9304 C   0  0  0  0  0  0  0  0  0  0  0  0
   25.5791  -32.0572   -9.7276 O   0  0  0  0  0  0  0  0  0  0  0  0
   24.1333  -33.2900  -14.6522 O   0  0  0  0  0  0  0  0  0  0  0  0
   21.1814  -33.4351   -3.4941 C   0  0  0  0  0  0  0  0  0  0  0  0
   21.5987  -33.8359   -5.2108 S   0  0  0  0  0  0  0  0  0  0  0  0
   23.3387  -33.3796   -5.5693 C   0  0  0  0  0  0  0  0  0  0  0  0
   23.6141  -33.8870   -6.9705 C   0  0  0  0  0  0  0  0  0  0  0  0
   24.9982  -33.5278   -7.4650 C   0  0  2  0  0  0  0  0  0  0  0  0
   25.0793  -34.0912   -8.8213 N   0  0  0  0  0  0  0  0  0  0  0  0
   26.0831  -34.0918   -6.6493 C   0  0  0  0  0  0  0  0  0  0  0  0
   25.9417  -35.1737   -6.0572 O   0  0  0  0  0  0  0  0  0  0  0  0
   29.6199  -33.1414   -5.9024 C   0  0  0  0  0  0  0  0  0  0  0  0
   28.3572  -33.9499   -5.6958 C   0  0  2  0  0  0  0  0  0  0  0  0
   27.3135  -33.4029   -6.5274 N   0  0  0  0  0  0  0  0  0  0  0  0
   28.0137  -33.8294   -4.2414 C   0  0  0  0  0  0  0  0  0  0  0  0
   26.8084  -33.2225   -3.9206 O   0  0  0  0  0  0  0  0  0  0  0  0
   28.7707  -34.2530   -3.3415 O   0  0  0  0  0  0  0  0  0  0  0  0
  2  1  1  1
  3  4  1  0
  3  2  1  0
  4  5  2  0
  6  7  2  0
  6  2  1  0
  8  4  1  0
  9 10  1  0
 11 10  1  0
 11 12  1  0
 13 12  1  1
 13 14  1  0
 13 15  1  0
 14  6  1  0
 15 19  1  0
 16 15  2  0
 18 17  1  1
 18 20  1  0
 19 18  1  0
 20 22  2  0
 20 21  1  0
M  END
$$$$
