DAR.pdb
     RDKit          3D

 25 24  0  0  1  0  0  0  0  0999 V2000
   14.1163  -18.1351   20.6751 N   0  0  0  0  0  0  0  0  0  0  0  0
   13.1470  -17.5673   19.7344 C   0  0  1  0  0  0  0  0  0  0  0  0
   13.1216  -18.3722   18.4728 C   0  0  0  0  0  0  0  0  0  0  0  0
   12.5241  -17.6956   17.3248 C   0  0  0  0  0  0  0  0  0  0  0  0
   12.2155  -16.4751   17.4543 O   0  0  0  0  0  0  0  0  0  0  0  0
   11.8057  -17.6715   20.3938 C   0  0  0  0  0  0  0  0  0  0  0  0
   10.7884  -17.0788   19.9906 O   0  0  0  0  0  0  0  0  0  0  0  0
   12.2813  -18.3208   16.1162 O   0  0  0  0  0  0  0  0  0  0  0  0
   10.2290  -19.9944   22.7771 C   0  0  0  0  0  0  0  0  0  0  0  0
   10.3837  -18.5867   22.2043 C   0  0  2  0  0  0  0  0  0  0  0  0
   11.6576  -18.4929   21.5544 N   0  0  0  0  0  0  0  0  0  0  0  0
   10.2552  -17.6197   23.3524 C   0  0  0  0  0  0  0  0  0  0  0  0
   11.2855  -17.2358   23.9509 O   0  0  0  0  0  0  0  0  0  0  0  0
    6.5806  -10.5689   25.3263 N   0  0  0  0  0  0  0  0  0  0  0  0
    6.0522  -11.1679   26.5148 C   0  0  0  0  0  0  0  0  0  0  0  0
    5.3894  -10.4732   27.3946 N   0  0  0  0  0  0  0  0  0  0  0  0
    6.2898  -12.5553   26.6787 N   0  0  0  0  0  0  0  0  0  0  0  0
    6.7462  -13.3213   25.5440 C   0  0  0  0  0  0  0  0  0  0  0  0
    7.0116  -14.7810   25.9285 C   0  0  0  0  0  0  0  0  0  0  0  0
    7.4342  -15.5685   24.7379 C   0  0  0  0  0  0  0  0  0  0  0  0
    8.7483  -16.2362   24.8551 C   0  0  2  0  0  0  0  0  0  0  0  0
    8.9905  -17.1421   23.7594 N   0  0  0  0  0  0  0  0  0  0  0  0
    9.0493  -16.8875   26.1411 C   0  0  0  0  0  0  0  0  0  0  0  0
    9.6758  -16.2405   27.0072 O   0  0  0  0  0  0  0  0  0  0  0  0
    8.6904  -18.1828   26.4821 O   0  0  0  0  0  0  0  0  0  0  0  0
  2  1  1  1
  2  3  1  0
  3  4  1  0
  4  5  2  0
  4  8  1  0
  6  7  2  0
  6  2  1  0
 10  9  1  1
 10 12  1  0
 10 11  1  0
 11  6  1  0
 12 22  1  0
 13 12  2  0
 15 16  2  0
 15 14  1  0
 17 15  1  0
 18 17  1  0
 19 18  1  0
 21 20  1  1
 20 19  1  0
 22 21  1  0
 23 25  1  0
 23 21  1  0
 24 23  2  0
M  END
$$$$
