DAR.pdb
     RDKit          3D

 25 24  0  0  1  0  0  0  0  0999 V2000
    7.4428  -16.3149   16.2594 N   0  0  0  0  0  0  0  0  0  0  0  0
    8.8929  -16.1062   16.2329 C   0  0  1  0  0  0  0  0  0  0  0  0
    9.2829  -15.3580   14.9967 C   0  0  0  0  0  0  0  0  0  0  0  0
    8.9763  -16.0414   13.7431 C   0  0  0  0  0  0  0  0  0  0  0  0
    9.1198  -17.2983   13.7059 O   0  0  0  0  0  0  0  0  0  0  0  0
    9.2209  -15.2608   17.4257 C   0  0  0  0  0  0  0  0  0  0  0  0
   10.3805  -14.9597   17.7625 O   0  0  0  0  0  0  0  0  0  0  0  0
    8.5424  -15.3853   12.6066 O   0  0  0  0  0  0  0  0  0  0  0  0
    7.3780  -12.9833   19.6661 C   0  0  0  0  0  0  0  0  0  0  0  0
    8.4630  -14.0347   19.4405 C   0  0  2  0  0  0  0  0  0  0  0  0
    8.1599  -14.7573   18.2406 N   0  0  0  0  0  0  0  0  0  0  0  0
    8.4821  -14.9258   20.6551 C   0  0  0  0  0  0  0  0  0  0  0  0
    7.5207  -15.6997   20.8647 O   0  0  0  0  0  0  0  0  0  0  0  0
    9.3088  -21.7030   22.3042 N   0  0  0  0  0  0  0  0  0  0  0  0
   10.6548  -21.4792   22.7386 C   0  0  0  0  0  0  0  0  0  0  0  0
   11.2182  -22.2345   23.6375 N   0  0  0  0  0  0  0  0  0  0  0  0
   11.3376  -20.3934   22.1360 N   0  0  0  0  0  0  0  0  0  0  0  0
   10.6126  -19.1721   21.8800 C   0  0  0  0  0  0  0  0  0  0  0  0
   11.5128  -18.1169   21.2281 C   0  0  0  0  0  0  0  0  0  0  0  0
   10.7241  -16.9086   20.8617 C   0  0  0  0  0  0  0  0  0  0  0  0
   10.3238  -16.0470   21.9946 C   0  0  2  0  0  0  0  0  0  0  0  0
    9.5685  -14.8992   21.5564 N   0  0  0  0  0  0  0  0  0  0  0  0
   11.3883  -15.6403   22.9274 C   0  0  0  0  0  0  0  0  0  0  0  0
   12.1450  -14.7017   22.5993 O   0  0  0  0  0  0  0  0  0  0  0  0
   11.6291  -16.2198   24.1640 O   0  0  0  0  0  0  0  0  0  0  0  0
  2  1  1  6
  2  3  1  0
  3  4  1  0
  4  5  2  0
  4  8  1  0
  6  7  2  0
  6  2  1  0
 10  9  1  1
 10 12  1  0
 10 11  1  0
 11  6  1  0
 12 22  1  0
 13 12  2  0
 15 16  2  0
 15 14  1  0
 17 15  1  0
 18 17  1  0
 19 18  1  0
 21 20  1  6
 20 19  1  0
 22 21  1  0
 23 25  1  0
 23 21  1  0
 24 23  2  0
M  END
$$$$
