DAR.pdb
     RDKit          3D

 25 24  0  0  1  0  0  0  0  0999 V2000
   14.3097  -17.2213   18.1639 N   0  0  0  0  0  0  0  0  0  0  0  0
   14.4786  -16.3672   19.3425 C   0  0  1  0  0  0  0  0  0  0  0  0
   14.3204  -14.9282   18.9625 C   0  0  0  0  0  0  0  0  0  0  0  0
   15.5225  -14.3006   18.4208 C   0  0  0  0  0  0  0  0  0  0  0  0
   16.5896  -14.9809   18.4100 O   0  0  0  0  0  0  0  0  0  0  0  0
   13.3790  -16.7335   20.2921 C   0  0  0  0  0  0  0  0  0  0  0  0
   12.2231  -16.2782   20.2210 O   0  0  0  0  0  0  0  0  0  0  0  0
   15.5487  -13.0103   17.9258 O   0  0  0  0  0  0  0  0  0  0  0  0
   13.1064  -19.2078   23.1094 C   0  0  0  0  0  0  0  0  0  0  0  0
   12.5748  -18.1131   22.1862 C   0  0  2  0  0  0  0  0  0  0  0  0
   13.6456  -17.6578   21.3496 N   0  0  0  0  0  0  0  0  0  0  0  0
   12.0273  -17.0161   23.0617 C   0  0  0  0  0  0  0  0  0  0  0  0
   12.8146  -16.1899   23.5762 O   0  0  0  0  0  0  0  0  0  0  0  0
    7.6118  -11.9500   20.0413 N   0  0  0  0  0  0  0  0  0  0  0  0
    7.8833  -12.9887   19.0938 C   0  0  0  0  0  0  0  0  0  0  0  0
    7.8084  -12.7808   17.8104 N   0  0  0  0  0  0  0  0  0  0  0  0
    8.2381  -14.2517   19.6299 N   0  0  0  0  0  0  0  0  0  0  0  0
    7.9464  -14.5252   21.0165 C   0  0  0  0  0  0  0  0  0  0  0  0
    9.1975  -14.9966   21.7658 C   0  0  0  0  0  0  0  0  0  0  0  0
    8.8874  -15.2448   23.2005 C   0  0  0  0  0  0  0  0  0  0  0  0
    9.9928  -15.8202   23.9962 C   0  0  2  0  0  0  0  0  0  0  0  0
   10.6412  -16.9087   23.3073 N   0  0  0  0  0  0  0  0  0  0  0  0
    9.6834  -16.1983   25.3855 C   0  0  0  0  0  0  0  0  0  0  0  0
    9.7395  -17.4054   25.7035 O   0  0  0  0  0  0  0  0  0  0  0  0
    9.3283  -15.3136   26.3925 O   0  0  0  0  0  0  0  0  0  0  0  0
  2  1  1  6
  2  3  1  0
  3  4  1  0
  4  5  2  0
  4  8  1  0
  6  7  2  0
  6  2  1  0
 10  9  1  1
 10 12  1  0
 10 11  1  0
 11  6  1  0
 12 22  1  0
 13 12  2  0
 15 16  2  0
 15 14  1  0
 17 15  1  0
 18 17  1  0
 19 18  1  0
 21 20  1  6
 20 19  1  0
 22 21  1  0
 23 25  1  0
 23 21  1  0
 24 23  2  0
M  END
$$$$
