DAR.pdb
     RDKit          3D

 25 24  0  0  1  0  0  0  0  0999 V2000
    7.9419  -15.5832   15.2505 N   0  0  0  0  0  0  0  0  0  0  0  0
    9.3761  -15.5592   15.5497 C   0  0  1  0  0  0  0  0  0  0  0  0
   10.0984  -14.7207   14.5420 C   0  0  0  0  0  0  0  0  0  0  0  0
   10.1447  -15.2834   13.1952 C   0  0  0  0  0  0  0  0  0  0  0  0
    9.3555  -14.8057   12.3288 O   0  0  0  0  0  0  0  0  0  0  0  0
    9.5174  -14.9154   16.8953 C   0  0  0  0  0  0  0  0  0  0  0  0
   10.6075  -14.7508   17.4726 O   0  0  0  0  0  0  0  0  0  0  0  0
   11.0009  -16.3042   12.8274 O   0  0  0  0  0  0  0  0  0  0  0  0
    7.1796  -13.2247   19.2838 C   0  0  0  0  0  0  0  0  0  0  0  0
    8.4452  -14.0060   18.9351 C   0  0  2  0  0  0  0  0  0  0  0  0
    8.3488  -14.4538   17.5771 N   0  0  0  0  0  0  0  0  0  0  0  0
    8.5469  -15.1510   19.9088 C   0  0  0  0  0  0  0  0  0  0  0  0
    8.2386  -16.3052   19.5346 O   0  0  0  0  0  0  0  0  0  0  0  0
   16.0511  -13.9054   19.1526 N   0  0  0  0  0  0  0  0  0  0  0  0
   16.2463  -14.9926   20.0639 C   0  0  0  0  0  0  0  0  0  0  0  0
   17.4029  -15.5766   20.1945 N   0  0  0  0  0  0  0  0  0  0  0  0
   15.1135  -15.3951   20.8143 N   0  0  0  0  0  0  0  0  0  0  0  0
   13.8266  -14.8291   20.4883 C   0  0  0  0  0  0  0  0  0  0  0  0
   12.7270  -15.3861   21.3989 C   0  0  0  0  0  0  0  0  0  0  0  0
   11.3906  -14.8874   20.9730 C   0  0  0  0  0  0  0  0  0  0  0  0
   10.2489  -15.3700   21.7791 C   0  0  2  0  0  0  0  0  0  0  0  0
    8.9853  -14.9386   21.2338 N   0  0  0  0  0  0  0  0  0  0  0  0
   10.3028  -15.1106   23.2278 C   0  0  0  0  0  0  0  0  0  0  0  0
   10.4103  -13.9293   23.6204 O   0  0  0  0  0  0  0  0  0  0  0  0
   10.2430  -16.0829   24.2147 O   0  0  0  0  0  0  0  0  0  0  0  0
  2  1  1  6
  2  3  1  0
  3  4  1  0
  4  5  2  0
  4  8  1  0
  6  7  2  0
  6  2  1  0
 10  9  1  1
 10 12  1  0
 10 11  1  0
 11  6  1  0
 12 22  1  0
 13 12  2  0
 15 16  2  0
 15 14  1  0
 17 15  1  0
 18 17  1  0
 19 18  1  0
 21 20  1  6
 20 19  1  0
 22 21  1  0
 23 25  1  0
 23 21  1  0
 24 23  2  0
M  END
$$$$
