DAR.pdb
     RDKit          3D

 25 24  0  0  1  0  0  0  0  0999 V2000
   14.0240  -19.0972   16.8590 N   0  0  0  0  0  0  0  0  0  0  0  0
   14.5925  -18.4150   18.0245 C   0  0  1  0  0  0  0  0  0  0  0  0
   14.9203  -16.9956   17.6812 C   0  0  0  0  0  0  0  0  0  0  0  0
   16.0799  -16.8270   16.8097 C   0  0  0  0  0  0  0  0  0  0  0  0
   16.0304  -15.9174   15.9311 O   0  0  0  0  0  0  0  0  0  0  0  0
   13.5269  -18.4171   19.0779 C   0  0  0  0  0  0  0  0  0  0  0  0
   12.4967  -17.7213   19.0213 O   0  0  0  0  0  0  0  0  0  0  0  0
   17.2168  -17.6081   16.8983 O   0  0  0  0  0  0  0  0  0  0  0  0
   12.8981  -20.5424   22.1043 C   0  0  0  0  0  0  0  0  0  0  0  0
   12.6099  -19.3645   21.1752 C   0  0  2  0  0  0  0  0  0  0  0  0
   13.6766  -19.2580   20.2241 N   0  0  0  0  0  0  0  0  0  0  0  0
   12.4872  -18.1347   22.0367 C   0  0  0  0  0  0  0  0  0  0  0  0
   13.5010  -17.4333   22.2546 O   0  0  0  0  0  0  0  0  0  0  0  0
    6.7252  -13.0675   20.1126 N   0  0  0  0  0  0  0  0  0  0  0  0
    7.8987  -13.1937   19.3018 C   0  0  0  0  0  0  0  0  0  0  0  0
    7.9542  -12.7019   18.0973 N   0  0  0  0  0  0  0  0  0  0  0  0
    8.9934  -13.8810   19.8828 N   0  0  0  0  0  0  0  0  0  0  0  0
    8.8707  -14.3656   21.2367 C   0  0  0  0  0  0  0  0  0  0  0  0
   10.1187  -15.1460   21.6636 C   0  0  0  0  0  0  0  0  0  0  0  0
    9.9084  -15.7863   22.9909 C   0  0  0  0  0  0  0  0  0  0  0  0
   11.0214  -16.6352   23.4672 C   0  0  2  0  0  0  0  0  0  0  0  0
   11.2460  -17.7644   22.5985 N   0  0  0  0  0  0  0  0  0  0  0  0
   10.9716  -17.0668   24.8743 C   0  0  0  0  0  0  0  0  0  0  0  0
   10.7337  -18.2679   25.1235 O   0  0  0  0  0  0  0  0  0  0  0  0
   11.1702  -16.2398   25.9695 O   0  0  0  0  0  0  0  0  0  0  0  0
  2  1  1  6
  2  3  1  0
  3  4  1  0
  4  5  2  0
  4  8  1  0
  6  7  2  0
  6  2  1  0
 10  9  1  1
 10 12  1  0
 10 11  1  0
 11  6  1  0
 12 22  1  0
 13 12  2  0
 15 16  2  0
 15 14  1  0
 17 15  1  0
 18 17  1  0
 19 18  1  0
 21 20  1  6
 20 19  1  0
 22 21  1  0
 23 25  1  0
 23 21  1  0
 24 23  2  0
M  END
$$$$
