DAR.pdb
     RDKit          3D

 25 24  0  0  1  0  0  0  0  0999 V2000
    8.7088  -15.5635   15.0248 N   0  0  0  0  0  0  0  0  0  0  0  0
    7.8460  -15.9650   16.1389 C   0  0  1  0  0  0  0  0  0  0  0  0
    7.8846  -17.4514   16.3104 C   0  0  0  0  0  0  0  0  0  0  0  0
    6.9497  -18.1911   15.4669 C   0  0  0  0  0  0  0  0  0  0  0  0
    6.9163  -17.9078   14.2339 O   0  0  0  0  0  0  0  0  0  0  0  0
    8.4181  -15.3280   17.3685 C   0  0  0  0  0  0  0  0  0  0  0  0
    9.6133  -15.4191   17.7028 O   0  0  0  0  0  0  0  0  0  0  0  0
    6.1071  -19.1752   15.9487 O   0  0  0  0  0  0  0  0  0  0  0  0
    7.0086  -13.0757   20.0307 C   0  0  0  0  0  0  0  0  0  0  0  0
    8.1111  -13.9019   19.3709 C   0  0  2  0  0  0  0  0  0  0  0  0
    7.5641  -14.5654   18.2244 N   0  0  0  0  0  0  0  0  0  0  0  0
    8.6217  -14.8727   20.4036 C   0  0  0  0  0  0  0  0  0  0  0  0
    8.0000  -15.9407   20.6036 O   0  0  0  0  0  0  0  0  0  0  0  0
   16.7027  -16.3362   22.6247 N   0  0  0  0  0  0  0  0  0  0  0  0
   16.1231  -17.0566   23.7181 C   0  0  0  0  0  0  0  0  0  0  0  0
   16.8557  -17.7246   24.5624 N   0  0  0  0  0  0  0  0  0  0  0  0
   14.7115  -17.0007   23.8299 N   0  0  0  0  0  0  0  0  0  0  0  0
   14.0030  -15.9331   23.1657 C   0  0  0  0  0  0  0  0  0  0  0  0
   12.4859  -16.1094   23.2917 C   0  0  0  0  0  0  0  0  0  0  0  0
   11.7706  -15.1303   22.4280 C   0  0  0  0  0  0  0  0  0  0  0  0
   10.3421  -15.4253   22.1863 C   0  0  2  0  0  0  0  0  0  0  0  0
    9.7899  -14.5935   21.1455 N   0  0  0  0  0  0  0  0  0  0  0  0
    9.4581  -15.4353   23.3641 C   0  0  0  0  0  0  0  0  0  0  0  0
    9.5860  -16.3549   24.2003 O   0  0  0  0  0  0  0  0  0  0  0  0
    8.4761  -14.4936   23.6321 O   0  0  0  0  0  0  0  0  0  0  0  0
  2  1  1  6
  2  3  1  0
  3  4  1  0
  4  5  2  0
  4  8  1  0
  6  7  2  0
  6  2  1  0
 10  9  1  1
 10 12  1  0
 10 11  1  0
 11  6  1  0
 12 22  1  0
 13 12  2  0
 15 16  2  0
 15 14  1  0
 17 15  1  0
 18 17  1  0
 19 18  1  0
 21 20  1  1
 20 19  1  0
 22 21  1  0
 23 25  1  0
 23 21  1  0
 24 23  2  0
M  END
$$$$
