HSR.pdb
     RDKit          3D

 28 28  0  0  1  0  0  0  0  0999 V2000
    9.4700  -17.3772   17.1358 N   0  0  0  0  0  0  0  0  0  0  0  0
    8.3793  -17.2389   18.0492 C   0  0  1  0  0  0  0  0  0  0  0  0
    7.8270  -18.5891   18.4508 C   0  0  0  0  0  0  0  0  0  0  0  0
    7.0999  -19.1410   17.2707 C   0  0  0  0  0  0  0  0  0  0  0  0
    6.9746  -18.5148   16.0273 C   0  0  0  0  0  0  0  0  0  0  0  0
    6.2589  -19.2937   15.2063 N   0  0  0  0  0  0  0  0  0  0  0  0
    5.9234  -20.3945   15.8826 C   0  0  0  0  0  0  0  0  0  0  0  0
    6.4369  -20.3009   17.1428 N   0  0  0  0  0  0  0  0  0  0  0  0
    8.8140  -16.4491   19.2255 C   0  0  0  0  0  0  0  0  0  0  0  0
    9.9988  -16.4781   19.6652 O   0  0  0  0  0  0  0  0  0  0  0  0
    5.8425  -15.1291   21.7168 O   0  0  0  0  0  0  0  0  0  0  0  0
    6.8828  -14.2104   21.5123 C   0  0  0  0  0  0  0  0  0  0  0  0
    8.1391  -14.9813   21.1585 C   0  0  2  0  0  0  0  0  0  0  0  0
    7.8895  -15.6288   19.8935 N   0  0  0  0  0  0  0  0  0  0  0  0
    8.4459  -15.9941   22.1977 C   0  0  0  0  0  0  0  0  0  0  0  0
    7.9716  -17.1583   22.1274 O   0  0  0  0  0  0  0  0  0  0  0  0
   15.0563  -16.9989   21.3749 N   0  0  0  0  0  0  0  0  0  0  0  0
   15.3281  -16.3124   22.6144 C   0  0  0  0  0  0  0  0  0  0  0  0
   16.3488  -15.5587   22.7100 N   0  0  0  0  0  0  0  0  0  0  0  0
   14.4686  -16.4664   23.7354 N   0  0  0  0  0  0  0  0  0  0  0  0
   13.3099  -17.3292   23.6623 C   0  0  0  0  0  0  0  0  0  0  0  0
   12.0603  -16.6093   24.1127 C   0  0  0  0  0  0  0  0  0  0  0  0
   10.8249  -17.4237   23.9422 C   0  0  0  0  0  0  0  0  0  0  0  0
    9.5563  -16.7119   24.3450 C   0  0  2  0  0  0  0  0  0  0  0  0
    9.2893  -15.7112   23.3281 N   0  0  0  0  0  0  0  0  0  0  0  0
    9.6119  -16.1338   25.6937 C   0  0  0  0  0  0  0  0  0  0  0  0
    9.5821  -14.7654   25.9348 O   0  0  0  0  0  0  0  0  0  0  0  0
    9.6903  -16.8786   26.7002 O   0  0  0  0  0  0  0  0  0  0  0  0
  2  1  1  6
  2  9  1  0
  3  2  1  0
  4  3  1  0
  4  5  2  0
  6  5  1  0
  7  8  2  0
  7  6  1  0
  8  4  1  0
  9 10  2  0
 11 12  1  0
 13 12  1  1
 13 15  1  0
 14  9  1  0
 14 13  1  0
 15 16  2  0
 18 17  1  0
 19 18  2  0
 20 18  1  0
 21 20  1  0
 22 21  1  0
 23 22  1  0
 24 23  1  6
 24 26  1  0
 25 24  1  0
 25 15  1  0
 26 28  2  0
 26 27  1  0
M  END
$$$$
