HSR.pdb
     RDKit          3D

 28 28  0  0  1  0  0  0  0  0999 V2000
    8.3558  -13.1247   16.3651 N   0  0  0  0  0  0  0  0  0  0  0  0
    8.5361  -14.3450   17.0872 C   0  0  1  0  0  0  0  0  0  0  0  0
    9.7184  -15.1257   16.5563 C   0  0  0  0  0  0  0  0  0  0  0  0
    9.3194  -15.6935   15.2356 C   0  0  0  0  0  0  0  0  0  0  0  0
    8.6455  -16.9025   15.0405 C   0  0  0  0  0  0  0  0  0  0  0  0
    8.4510  -17.0978   13.7302 N   0  0  0  0  0  0  0  0  0  0  0  0
    8.9772  -16.0557   13.0829 C   0  0  0  0  0  0  0  0  0  0  0  0
    9.5072  -15.1986   14.0022 N   0  0  0  0  0  0  0  0  0  0  0  0
    8.6745  -14.0503   18.5331 C   0  0  0  0  0  0  0  0  0  0  0  0
    9.4741  -13.1775   18.9767 O   0  0  0  0  0  0  0  0  0  0  0  0
    5.9279  -15.7458   20.9224 O   0  0  0  0  0  0  0  0  0  0  0  0
    6.5949  -14.6298   21.4493 C   0  0  0  0  0  0  0  0  0  0  0  0
    8.0062  -14.6109   20.8965 C   0  0  2  0  0  0  0  0  0  0  0  0
    7.8961  -14.7566   19.4652 N   0  0  0  0  0  0  0  0  0  0  0  0
    8.8084  -15.7231   21.4617 C   0  0  0  0  0  0  0  0  0  0  0  0
    9.0340  -16.7647   20.7914 O   0  0  0  0  0  0  0  0  0  0  0  0
   11.5624  -17.4426   30.0670 N   0  0  0  0  0  0  0  0  0  0  0  0
   12.3289  -18.1423   29.0648 C   0  0  0  0  0  0  0  0  0  0  0  0
   13.4762  -18.6088   29.3567 N   0  0  0  0  0  0  0  0  0  0  0  0
   11.8192  -18.3190   27.7503 N   0  0  0  0  0  0  0  0  0  0  0  0
   11.2946  -17.1949   27.0063 C   0  0  0  0  0  0  0  0  0  0  0  0
   10.9700  -17.5824   25.5826 C   0  0  0  0  0  0  0  0  0  0  0  0
   10.3246  -16.4832   24.8120 C   0  0  0  0  0  0  0  0  0  0  0  0
   10.0092  -16.8371   23.3790 C   0  0  2  0  0  0  0  0  0  0  0  0
    9.3667  -15.6782   22.7866 N   0  0  0  0  0  0  0  0  0  0  0  0
    9.1990  -18.0540   23.2407 C   0  0  0  0  0  0  0  0  0  0  0  0
    7.8119  -18.0369   23.1569 O   0  0  0  0  0  0  0  0  0  0  0  0
    9.7495  -19.1803   23.1926 O   0  0  0  0  0  0  0  0  0  0  0  0
  2  1  1  6
  2  9  1  0
  3  2  1  0
  4  3  1  0
  4  5  2  0
  6  5  1  0
  7  8  2  0
  7  6  1  0
  8  4  1  0
  9 10  2  0
 11 12  1  0
 13 12  1  1
 13 15  1  0
 14  9  1  0
 14 13  1  0
 15 16  2  0
 18 17  1  0
 19 18  2  0
 20 18  1  0
 21 20  1  0
 22 21  1  0
 23 22  1  0
 24 23  1  1
 24 26  1  0
 25 24  1  0
 25 15  1  0
 26 28  2  0
 26 27  1  0
M  END
$$$$
