HSR.pdb
     RDKit          3D

 28 28  0  0  1  0  0  0  0  0999 V2000
    8.7307  -15.4729   14.8669 N   0  0  0  0  0  0  0  0  0  0  0  0
    8.7387  -16.4607   15.9000 C   0  0  1  0  0  0  0  0  0  0  0  0
    9.7889  -17.5181   15.6383 C   0  0  0  0  0  0  0  0  0  0  0  0
   10.3885  -17.2284   14.3033 C   0  0  0  0  0  0  0  0  0  0  0  0
    9.8887  -16.3177   13.3679 C   0  0  0  0  0  0  0  0  0  0  0  0
   10.6760  -16.3144   12.2848 N   0  0  0  0  0  0  0  0  0  0  0  0
   11.6601  -17.1909   12.4967 C   0  0  0  0  0  0  0  0  0  0  0  0
   11.4843  -17.7487   13.7290 N   0  0  0  0  0  0  0  0  0  0  0  0
    8.9337  -15.8033   17.2139 C   0  0  0  0  0  0  0  0  0  0  0  0
    9.8556  -14.9647   17.4256 O   0  0  0  0  0  0  0  0  0  0  0  0
    6.9868  -17.4239   20.5714 O   0  0  0  0  0  0  0  0  0  0  0  0
    7.0090  -16.0312   20.4040 C   0  0  0  0  0  0  0  0  0  0  0  0
    8.2639  -15.6614   19.6383 C   0  0  2  0  0  0  0  0  0  0  0  0
    8.0716  -16.1091   18.2802 N   0  0  0  0  0  0  0  0  0  0  0  0
    9.4545  -16.3202   20.2284 C   0  0  0  0  0  0  0  0  0  0  0  0
   10.1587  -17.1133   19.5498 O   0  0  0  0  0  0  0  0  0  0  0  0
   15.8417  -14.0535   18.4266 N   0  0  0  0  0  0  0  0  0  0  0  0
   16.4557  -14.5272   19.6433 C   0  0  0  0  0  0  0  0  0  0  0  0
   17.6586  -14.9417   19.6255 N   0  0  0  0  0  0  0  0  0  0  0  0
   15.7334  -14.5379   20.8669 N   0  0  0  0  0  0  0  0  0  0  0  0
   14.3202  -14.2303   20.8908 C   0  0  0  0  0  0  0  0  0  0  0  0
   13.5316  -15.3261   21.5688 C   0  0  0  0  0  0  0  0  0  0  0  0
   12.0822  -15.2985   21.2262 C   0  0  0  0  0  0  0  0  0  0  0  0
   11.2459  -16.2864   22.0027 C   0  0  2  0  0  0  0  0  0  0  0  0
    9.8682  -16.0958   21.5876 N   0  0  0  0  0  0  0  0  0  0  0  0
   11.4091  -16.1759   23.4580 C   0  0  0  0  0  0  0  0  0  0  0  0
   12.5234  -16.6562   24.1355 O   0  0  0  0  0  0  0  0  0  0  0  0
   10.5218  -15.6285   24.1558 O   0  0  0  0  0  0  0  0  0  0  0  0
  2  1  1  6
  2  9  1  0
  3  2  1  0
  4  3  1  0
  4  5  2  0
  6  5  1  0
  7  8  2  0
  7  6  1  0
  8  4  1  0
  9 10  2  0
 11 12  1  0
 13 12  1  1
 13 15  1  0
 14  9  1  0
 14 13  1  0
 15 16  2  0
 18 17  1  0
 19 18  2  0
 20 18  1  0
 21 20  1  0
 22 21  1  0
 23 22  1  0
 24 23  1  6
 24 26  1  0
 25 24  1  0
 25 15  1  0
 26 28  2  0
 26 27  1  0
M  END
$$$$
