HSR.pdb
     RDKit          3D

 28 28  0  0  1  0  0  0  0  0999 V2000
    9.0313  -17.9237   17.5885 N   0  0  0  0  0  0  0  0  0  0  0  0
    8.6074  -16.8202   18.3920 C   0  0  1  0  0  0  0  0  0  0  0  0
    7.6477  -15.9284   17.6348 C   0  0  0  0  0  0  0  0  0  0  0  0
    8.0357  -15.9790   16.1951 C   0  0  0  0  0  0  0  0  0  0  0  0
    7.2049  -16.3739   15.1426 C   0  0  0  0  0  0  0  0  0  0  0  0
    7.8804  -16.2974   13.9890 N   0  0  0  0  0  0  0  0  0  0  0  0
    9.1127  -15.8677   14.2690 C   0  0  0  0  0  0  0  0  0  0  0  0
    9.2072  -15.6734   15.6158 N   0  0  0  0  0  0  0  0  0  0  0  0
    8.0136  -17.3236   19.6531 C   0  0  0  0  0  0  0  0  0  0  0  0
    7.1109  -16.6974   20.2784 O   0  0  0  0  0  0  0  0  0  0  0  0
    9.6008  -20.8590   21.1372 O   0  0  0  0  0  0  0  0  0  0  0  0
    8.3564  -20.4350   21.6268 C   0  0  0  0  0  0  0  0  0  0  0  0
    8.3141  -18.9205   21.5783 C   0  0  2  0  0  0  0  0  0  0  0  0
    8.4562  -18.5428   20.1930 N   0  0  0  0  0  0  0  0  0  0  0  0
    9.4160  -18.3367   22.3813 C   0  0  0  0  0  0  0  0  0  0  0  0
   10.4649  -17.9120   21.8294 O   0  0  0  0  0  0  0  0  0  0  0  0
    7.3735  -11.9220   20.7326 N   0  0  0  0  0  0  0  0  0  0  0  0
    8.7512  -12.2691   20.4819 C   0  0  0  0  0  0  0  0  0  0  0  0
    9.3902  -11.6886   19.5471 N   0  0  0  0  0  0  0  0  0  0  0  0
    9.4082  -13.2544   21.2672 N   0  0  0  0  0  0  0  0  0  0  0  0
    8.6770  -14.0169   22.2552 C   0  0  0  0  0  0  0  0  0  0  0  0
    9.5859  -14.9696   22.9960 C   0  0  0  0  0  0  0  0  0  0  0  0
    8.8474  -15.8980   23.8968 C   0  0  0  0  0  0  0  0  0  0  0  0
    9.7028  -16.9892   24.4934 C   0  0  2  0  0  0  0  0  0  0  0  0
    9.3526  -18.2230   23.8138 N   0  0  0  0  0  0  0  0  0  0  0  0
    9.5757  -17.1018   25.9520 C   0  0  0  0  0  0  0  0  0  0  0  0
    8.7661  -18.0455   26.5728 O   0  0  0  0  0  0  0  0  0  0  0  0
   10.2125  -16.3270   26.7058 O   0  0  0  0  0  0  0  0  0  0  0  0
  2  1  1  6
  2  9  1  0
  3  2  1  0
  4  3  1  0
  4  5  2  0
  6  5  1  0
  7  8  2  0
  7  6  1  0
  8  4  1  0
  9 10  2  0
 11 12  1  0
 13 12  1  6
 13 15  1  0
 14  9  1  0
 14 13  1  0
 15 16  2  0
 18 17  1  0
 19 18  2  0
 20 18  1  0
 21 20  1  0
 22 21  1  0
 23 22  1  0
 24 23  1  6
 24 26  1  0
 25 24  1  0
 25 15  1  0
 26 28  2  0
 26 27  1  0
M  END
$$$$
