HSR.pdb
     RDKit          3D

 28 28  0  0  1  0  0  0  0  0999 V2000
    9.4990  -17.7234   16.9686 N   0  0  0  0  0  0  0  0  0  0  0  0
    8.5419  -17.6716   18.0290 C   0  0  1  0  0  0  0  0  0  0  0  0
    8.0904  -19.0598   18.4272 C   0  0  0  0  0  0  0  0  0  0  0  0
    7.3160  -19.6211   17.2823 C   0  0  0  0  0  0  0  0  0  0  0  0
    5.9389  -19.4826   17.0865 C   0  0  0  0  0  0  0  0  0  0  0  0
    5.5836  -20.1120   15.9594 N   0  0  0  0  0  0  0  0  0  0  0  0
    6.6858  -20.6470   15.4295 C   0  0  0  0  0  0  0  0  0  0  0  0
    7.7432  -20.3471   16.2374 N   0  0  0  0  0  0  0  0  0  0  0  0
    9.1122  -16.9270   19.1765 C   0  0  0  0  0  0  0  0  0  0  0  0
   10.3034  -17.0874   19.5682 O   0  0  0  0  0  0  0  0  0  0  0  0
    6.4829  -14.8975   21.5602 O   0  0  0  0  0  0  0  0  0  0  0  0
    7.6794  -14.2129   21.3001 C   0  0  0  0  0  0  0  0  0  0  0  0
    8.7612  -15.2339   21.0086 C   0  0  2  0  0  0  0  0  0  0  0  0
    8.3156  -16.0013   19.8709 N   0  0  0  0  0  0  0  0  0  0  0  0
    8.9712  -16.1263   22.1746 C   0  0  0  0  0  0  0  0  0  0  0  0
    8.2732  -17.1623   22.3312 O   0  0  0  0  0  0  0  0  0  0  0  0
   13.4290  -21.0477   24.5388 N   0  0  0  0  0  0  0  0  0  0  0  0
   14.0181  -20.6187   23.2936 C   0  0  0  0  0  0  0  0  0  0  0  0
   14.3299  -21.4803   22.4108 N   0  0  0  0  0  0  0  0  0  0  0  0
   14.2564  -19.2415   23.0374 N   0  0  0  0  0  0  0  0  0  0  0  0
   13.7128  -18.2248   23.9110 C   0  0  0  0  0  0  0  0  0  0  0  0
   12.2243  -18.0650   23.7075 C   0  0  0  0  0  0  0  0  0  0  0  0
   11.6481  -16.9325   24.4847 C   0  0  0  0  0  0  0  0  0  0  0  0
   10.1594  -16.7571   24.3075 C   0  0  2  0  0  0  0  0  0  0  0  0
    9.9680  -15.8654   23.1783 N   0  0  0  0  0  0  0  0  0  0  0  0
    9.4778  -16.2779   25.5168 C   0  0  0  0  0  0  0  0  0  0  0  0
    9.2465  -17.0818   26.6266 O   0  0  0  0  0  0  0  0  0  0  0  0
    9.0711  -15.0933   25.5882 O   0  0  0  0  0  0  0  0  0  0  0  0
  2  1  1  6
  2  9  1  0
  3  2  1  0
  4  3  1  0
  4  5  2  0
  6  5  1  0
  7  8  2  0
  7  6  1  0
  8  4  1  0
  9 10  2  0
 11 12  1  0
 13 12  1  1
 13 15  1  0
 14  9  1  0
 14 13  1  0
 15 16  2  0
 18 17  1  0
 19 18  2  0
 20 18  1  0
 21 20  1  0
 22 21  1  0
 23 22  1  0
 24 23  1  1
 24 26  1  0
 25 24  1  0
 25 15  1  0
 26 28  2  0
 26 27  1  0
M  END
$$$$
