HSR.pdb
     RDKit          3D

 28 28  0  0  1  0  0  0  0  0999 V2000
    8.3753  -13.1862   16.7305 N   0  0  0  0  0  0  0  0  0  0  0  0
    8.4465  -14.3897   17.4983 C   0  0  1  0  0  0  0  0  0  0  0  0
    9.3263  -15.4188   16.8228 C   0  0  0  0  0  0  0  0  0  0  0  0
    8.5324  -16.0234   15.7138 C   0  0  0  0  0  0  0  0  0  0  0  0
    7.4594  -15.4146   15.0564 C   0  0  0  0  0  0  0  0  0  0  0  0
    6.9842  -16.2428   14.1177 N   0  0  0  0  0  0  0  0  0  0  0  0
    7.7166  -17.3583   14.1534 C   0  0  0  0  0  0  0  0  0  0  0  0
    8.6615  -17.2239   15.1279 N   0  0  0  0  0  0  0  0  0  0  0  0
    8.9163  -14.0771   18.8688 C   0  0  0  0  0  0  0  0  0  0  0  0
    9.9612  -13.4020   19.0931 O   0  0  0  0  0  0  0  0  0  0  0  0
    6.6277  -15.5321   21.9693 O   0  0  0  0  0  0  0  0  0  0  0  0
    7.3356  -14.3407   22.1865 C   0  0  0  0  0  0  0  0  0  0  0  0
    8.5993  -14.3757   21.3501 C   0  0  2  0  0  0  0  0  0  0  0  0
    8.1869  -14.5391   19.9771 N   0  0  0  0  0  0  0  0  0  0  0  0
    9.4702  -15.5047   21.7584 C   0  0  0  0  0  0  0  0  0  0  0  0
    9.3531  -16.6389   21.2244 O   0  0  0  0  0  0  0  0  0  0  0  0
   14.9784  -13.2092   18.3476 N   0  0  0  0  0  0  0  0  0  0  0  0
   15.4435  -14.0618   19.4145 C   0  0  0  0  0  0  0  0  0  0  0  0
   16.5307  -13.7873   20.0160 N   0  0  0  0  0  0  0  0  0  0  0  0
   14.7019  -15.2091   19.8054 N   0  0  0  0  0  0  0  0  0  0  0  0
   14.4757  -15.4987   21.2044 C   0  0  0  0  0  0  0  0  0  0  0  0
   13.0512  -15.9376   21.4506 C   0  0  0  0  0  0  0  0  0  0  0  0
   12.7395  -16.1218   22.8955 C   0  0  0  0  0  0  0  0  0  0  0  0
   11.3049  -16.4996   23.1738 C   0  0  2  0  0  0  0  0  0  0  0  0
   10.4830  -15.3729   22.7713 N   0  0  0  0  0  0  0  0  0  0  0  0
   11.0629  -16.8953   24.5671 C   0  0  0  0  0  0  0  0  0  0  0  0
   11.6096  -18.0388   25.1372 O   0  0  0  0  0  0  0  0  0  0  0  0
   10.3338  -16.1932   25.3083 O   0  0  0  0  0  0  0  0  0  0  0  0
  2  1  1  6
  2  9  1  0
  3  2  1  0
  4  3  1  0
  4  5  2  0
  6  5  1  0
  7  8  2  0
  7  6  1  0
  8  4  1  0
  9 10  2  0
 11 12  1  0
 13 12  1  1
 13 15  1  0
 14  9  1  0
 14 13  1  0
 15 16  2  0
 18 17  1  0
 19 18  2  0
 20 18  1  0
 21 20  1  0
 22 21  1  0
 23 22  1  0
 24 23  1  1
 24 26  1  0
 25 24  1  0
 25 15  1  0
 26 28  2  0
 26 27  1  0
M  END
$$$$
