HSR.pdb
     RDKit          3D

 28 28  0  0  1  0  0  0  0  0999 V2000
   10.0530  -16.8541   17.1343 N   0  0  0  0  0  0  0  0  0  0  0  0
    9.1603  -17.3574   18.1307 C   0  0  1  0  0  0  0  0  0  0  0  0
    9.4798  -18.7956   18.4758 C   0  0  0  0  0  0  0  0  0  0  0  0
    9.0892  -19.6315   17.3034 C   0  0  0  0  0  0  0  0  0  0  0  0
    7.7888  -19.7918   16.8164 C   0  0  0  0  0  0  0  0  0  0  0  0
    7.8079  -20.6092   15.7560 N   0  0  0  0  0  0  0  0  0  0  0  0
    9.0747  -20.9757   15.5498 C   0  0  0  0  0  0  0  0  0  0  0  0
    9.8567  -20.3787   16.4946 N   0  0  0  0  0  0  0  0  0  0  0  0
    9.2044  -16.4810   19.3250 C   0  0  0  0  0  0  0  0  0  0  0  0
   10.2881  -16.0593   19.8207 O   0  0  0  0  0  0  0  0  0  0  0  0
    5.6968  -16.0319   21.4268 O   0  0  0  0  0  0  0  0  0  0  0  0
    6.4869  -14.8783   21.3129 C   0  0  0  0  0  0  0  0  0  0  0  0
    7.9332  -15.3030   21.1534 C   0  0  2  0  0  0  0  0  0  0  0  0
    8.0065  -16.0909   19.9469 N   0  0  0  0  0  0  0  0  0  0  0  0
    8.3768  -16.1094   22.3165 C   0  0  0  0  0  0  0  0  0  0  0  0
    8.3599  -17.3677   22.2764 O   0  0  0  0  0  0  0  0  0  0  0  0
   10.1534  -16.9050   30.4410 N   0  0  0  0  0  0  0  0  0  0  0  0
   11.3514  -16.1404   30.1926 C   0  0  0  0  0  0  0  0  0  0  0  0
   12.0875  -15.7828   31.1670 N   0  0  0  0  0  0  0  0  0  0  0  0
   11.7233  -15.7791   28.8697 N   0  0  0  0  0  0  0  0  0  0  0  0
   10.7834  -15.1105   27.9969 C   0  0  0  0  0  0  0  0  0  0  0  0
   10.2040  -16.0655   26.9797 C   0  0  0  0  0  0  0  0  0  0  0  0
    9.7115  -15.3810   25.7519 C   0  0  0  0  0  0  0  0  0  0  0  0
    9.1502  -16.3155   24.7078 C   0  0  2  0  0  0  0  0  0  0  0  0
    8.8448  -15.5118   23.5383 N   0  0  0  0  0  0  0  0  0  0  0  0
    7.9890  -17.0845   25.1733 C   0  0  0  0  0  0  0  0  0  0  0  0
    6.6782  -16.6507   25.0145 O   0  0  0  0  0  0  0  0  0  0  0  0
    8.1482  -18.1894   25.7458 O   0  0  0  0  0  0  0  0  0  0  0  0
  2  1  1  6
  2  9  1  0
  3  2  1  0
  4  3  1  0
  4  5  2  0
  6  5  1  0
  7  8  2  0
  7  6  1  0
  8  4  1  0
  9 10  2  0
 11 12  1  0
 13 12  1  1
 13 15  1  0
 14  9  1  0
 14 13  1  0
 15 16  2  0
 18 17  1  0
 19 18  2  0
 20 18  1  0
 21 20  1  0
 22 21  1  0
 23 22  1  0
 24 23  1  1
 24 26  1  0
 25 24  1  0
 25 15  1  0
 26 28  2  0
 26 27  1  0
M  END
$$$$
