HSR.pdb
     RDKit          3D

 28 28  0  0  1  0  0  0  0  0999 V2000
    9.5778  -12.8436   17.8834 N   0  0  0  0  0  0  0  0  0  0  0  0
    8.8470  -13.8336   18.6106 C   0  0  1  0  0  0  0  0  0  0  0  0
    8.9412  -15.1865   17.9397 C   0  0  0  0  0  0  0  0  0  0  0  0
    8.4032  -15.0353   16.5565 C   0  0  0  0  0  0  0  0  0  0  0  0
    7.8156  -13.8793   16.0346 C   0  0  0  0  0  0  0  0  0  0  0  0
    7.4478  -14.1002   14.7662 N   0  0  0  0  0  0  0  0  0  0  0  0
    7.7802  -15.3565   14.4610 C   0  0  0  0  0  0  0  0  0  0  0  0
    8.3634  -15.9270   15.5541 N   0  0  0  0  0  0  0  0  0  0  0  0
    9.3299  -13.8780   20.0111 C   0  0  0  0  0  0  0  0  0  0  0  0
   10.5442  -13.7078   20.3185 O   0  0  0  0  0  0  0  0  0  0  0  0
    6.5813  -14.9356   22.9388 O   0  0  0  0  0  0  0  0  0  0  0  0
    7.5255  -13.9456   23.2490 C   0  0  0  0  0  0  0  0  0  0  0  0
    8.7831  -14.2159   22.4470 C   0  0  2  0  0  0  0  0  0  0  0  0
    8.4195  -14.1170   21.0542 N   0  0  0  0  0  0  0  0  0  0  0  0
    9.3142  -15.5693   22.7402 C   0  0  0  0  0  0  0  0  0  0  0  0
    8.8382  -16.5884   22.1744 O   0  0  0  0  0  0  0  0  0  0  0  0
   14.8369  -13.8922   21.7147 N   0  0  0  0  0  0  0  0  0  0  0  0
   14.6167  -14.6720   20.5210 C   0  0  0  0  0  0  0  0  0  0  0  0
   14.7121  -14.1206   19.3782 N   0  0  0  0  0  0  0  0  0  0  0  0
   14.2931  -16.0531   20.6030 N   0  0  0  0  0  0  0  0  0  0  0  0
   14.0505  -16.6780   21.8847 C   0  0  0  0  0  0  0  0  0  0  0  0
   12.5798  -16.6678   22.2306 C   0  0  0  0  0  0  0  0  0  0  0  0
   12.2964  -17.2125   23.5877 C   0  0  0  0  0  0  0  0  0  0  0  0
   10.8447  -17.1332   23.9934 C   0  0  2  0  0  0  0  0  0  0  0  0
   10.3863  -15.7939   23.6725 N   0  0  0  0  0  0  0  0  0  0  0  0
   10.6101  -17.4794   25.4011 C   0  0  0  0  0  0  0  0  0  0  0  0
   10.7831  -18.7625   25.9062 O   0  0  0  0  0  0  0  0  0  0  0  0
   10.2350  -16.6023   26.2159 O   0  0  0  0  0  0  0  0  0  0  0  0
  2  1  1  6
  2  9  1  0
  3  2  1  0
  4  3  1  0
  4  5  2  0
  6  5  1  0
  7  8  2  0
  7  6  1  0
  8  4  1  0
  9 10  2  0
 11 12  1  0
 13 12  1  1
 13 15  1  0
 14  9  1  0
 14 13  1  0
 15 16  2  0
 18 17  1  0
 19 18  2  0
 20 18  1  0
 21 20  1  0
 22 21  1  0
 23 22  1  0
 24 23  1  1
 24 26  1  0
 25 24  1  0
 25 15  1  0
 26 28  2  0
 26 27  1  0
M  END
$$$$
