ACL.pdb
     RDKit          3D

 20 19  0  0  1  0  0  0  0  0999 V2000
    8.4365  -12.2457   19.2459 C   0  0  0  0  0  0  0  0  0  0  0  0
    8.6958  -13.7162   18.9804 C   0  0  2  0  0  0  0  0  0  0  0  0
    8.1693  -14.1079   17.7092 N   0  0  0  0  0  0  0  0  0  0  0  0
    8.1141  -14.4918   20.0914 C   0  0  0  0  0  0  0  0  0  0  0  0
    6.8899  -14.8125   20.0231 O   0  0  0  0  0  0  0  0  0  0  0  0
    8.8680  -14.8904   21.2268 N   0  0  0  0  0  0  0  0  0  0  0  0
    8.3870  -15.7975   22.2396 C   0  0  1  0  0  0  0  0  0  0  0  0
    8.9899  -17.1826   22.0831 C   0  0  0  0  0  0  0  0  0  0  0  0
    8.5696  -18.2745   23.4415 S   0  0  0  0  0  0  0  0  0  0  0  0
    8.8541  -15.2862   23.5775 C   0  0  0  0  0  0  0  0  0  0  0  0
   10.0520  -14.9425   23.7540 O   0  0  0  0  0  0  0  0  0  0  0  0
    5.4597  -12.5359   26.8843 C   0  0  0  0  0  0  0  0  0  0  0  0
    6.6349  -12.9234   25.9284 C   0  0  1  0  0  0  0  0  0  0  0  0
    7.4742  -11.6481   25.8707 C   0  0  0  0  0  0  0  0  0  0  0  0
    7.3395  -14.0144   26.6366 C   0  0  0  0  0  0  0  0  0  0  0  0
    8.4798  -14.7100   26.0011 C   0  0  2  0  0  0  0  0  0  0  0  0
    7.9652  -15.1768   24.6719 N   0  0  0  0  0  0  0  0  0  0  0  0
    8.9641  -15.8820   26.7301 C   0  0  0  0  0  0  0  0  0  0  0  0
    9.8503  -15.6716   27.8089 O   0  0  0  0  0  0  0  0  0  0  0  0
    8.6837  -17.0783   26.5106 O   0  0  0  0  0  0  0  0  0  0  0  0
  2  3  1  0
  2  1  1  1
  4  2  1  0
  5  4  2  0
  6  4  1  0
  7 10  1  0
  7  6  1  0
  7  8  1  6
  9  8  1  0
 10 11  2  0
 13 12  1  1
 13 14  1  0
 15 13  1  0
 16 15  1  1
 17 16  1  0
 17 10  1  0
 18 16  1  0
 19 18  1  0
 20 18  2  0
M  END
$$$$
