ACL.pdb
     RDKit          3D

 20 19  0  0  1  0  0  0  0  0999 V2000
    8.5703  -12.2773   19.2418 C   0  0  0  0  0  0  0  0  0  0  0  0
    8.6677  -13.7507   18.8960 C   0  0  2  0  0  0  0  0  0  0  0  0
    8.1378  -14.0070   17.5920 N   0  0  0  0  0  0  0  0  0  0  0  0
    7.9684  -14.5148   19.9454 C   0  0  0  0  0  0  0  0  0  0  0  0
    6.7761  -14.8839   19.7257 O   0  0  0  0  0  0  0  0  0  0  0  0
    8.5758  -14.8505   21.1843 N   0  0  0  0  0  0  0  0  0  0  0  0
    8.0185  -15.7838   22.1320 C   0  0  1  0  0  0  0  0  0  0  0  0
    8.4942  -17.2017   21.8679 C   0  0  0  0  0  0  0  0  0  0  0  0
    7.9505  -18.3566   23.1268 S   0  0  0  0  0  0  0  0  0  0  0  0
    8.5336  -15.4171   23.4994 C   0  0  0  0  0  0  0  0  0  0  0  0
    9.7645  -15.2483   23.7009 O   0  0  0  0  0  0  0  0  0  0  0  0
    5.5333  -12.2323   26.8014 C   0  0  0  0  0  0  0  0  0  0  0  0
    6.7091  -12.7386   25.9036 C   0  0  1  0  0  0  0  0  0  0  0  0
    7.7626  -11.6425   26.0554 C   0  0  0  0  0  0  0  0  0  0  0  0
    7.1367  -14.0046   26.5384 C   0  0  0  0  0  0  0  0  0  0  0  0
    8.2000  -14.8310   25.9265 C   0  0  2  0  0  0  0  0  0  0  0  0
    7.6542  -15.2518   24.5945 N   0  0  0  0  0  0  0  0  0  0  0  0
    8.5394  -16.0417   26.6738 C   0  0  0  0  0  0  0  0  0  0  0  0
    9.5216  -15.9437   27.6833 O   0  0  0  0  0  0  0  0  0  0  0  0
    8.0553  -17.1826   26.5256 O   0  0  0  0  0  0  0  0  0  0  0  0
  2  3  1  0
  2  1  1  1
  4  2  1  0
  5  4  2  0
  6  4  1  0
  7 10  1  0
  7  6  1  0
  7  8  1  6
  9  8  1  0
 10 11  2  0
 13 12  1  1
 13 14  1  0
 15 13  1  0
 16 15  1  1
 17 16  1  0
 17 10  1  0
 18 16  1  0
 19 18  1  0
 20 18  2  0
M  END
$$$$
