LPG.pdb
     RDKit          3D

 20 20  0  0  1  0  0  0  0  0999 V2000
   21.4708  -18.7267  -14.2574 C   0  0  0  0  0  0  0  0  0  0  0  0
   21.7962  -18.6470  -15.7522 C   0  0  1  0  0  0  0  0  0  0  0  0
   21.7752  -17.2124  -16.2372 C   0  0  0  0  0  0  0  0  0  0  0  0
   23.1622  -19.2485  -15.9837 C   0  0  0  0  0  0  0  0  0  0  0  0
   23.4594  -19.2786  -17.4821 C   0  0  2  0  0  0  0  0  0  0  0  0
   22.4981  -20.0201  -18.2264 N   0  0  0  0  0  0  0  0  0  0  0  0
   24.8199  -19.7991  -17.6692 C   0  0  0  0  0  0  0  0  0  0  0  0
   24.9988  -21.0524  -17.8824 O   0  0  0  0  0  0  0  0  0  0  0  0
   25.9866  -18.9483  -17.6222 N   0  0  0  0  0  0  0  0  0  0  0  0
   25.9981  -17.5476  -17.3569 C   0  0  0  0  0  0  0  0  0  0  0  0
   27.4145  -17.0758  -17.5081 C   0  0  0  0  0  0  0  0  0  0  0  0
   28.0750  -18.1966  -18.3108 C   0  0  0  0  0  0  0  0  0  0  0  0
   27.3399  -19.4205  -17.8321 C   0  0  1  0  0  0  0  0  0  0  0  0
   27.8924  -19.9230  -16.5407 C   0  0  0  0  0  0  0  0  0  0  0  0
   27.2917  -19.6805  -15.4673 O   0  0  0  0  0  0  0  0  0  0  0  0
   29.0849  -20.6748  -16.4671 N   0  0  0  0  0  0  0  0  0  0  0  0
   29.3280  -21.8134  -17.3185 C   0  0  0  0  0  0  0  0  0  0  0  0
   28.8685  -23.0688  -16.6737 C   0  0  0  0  0  0  0  0  0  0  0  0
   27.6569  -23.3317  -16.5844 O   0  0  0  0  0  0  0  0  0  0  0  0
   29.8093  -23.9505  -16.1690 O   0  0  0  0  0  0  0  0  0  0  0  0
  2  1  1  1
  3  2  1  0
  4  2  1  0
  5  7  1  0
  5  4  1  0
  5  6  1  6
  7  8  2  0
  9 10  1  0
  9  7  1  0
 11 10  1  0
 12 13  1  0
 12 11  1  0
 13  9  1  0
 14 16  1  0
 13 14  1  1
 15 14  2  0
 17 16  1  0
 18 20  1  0
 18 17  1  0
 19 18  2  0
M  END
$$$$
