LPG.pdb
     RDKit          3D

 20 20  0  0  1  0  0  0  0  0999 V2000
   14.8524  -21.7647    2.0523 C   0  0  0  0  0  0  0  0  0  0  0  0
   14.8228  -21.9093    0.5275 C   0  0  1  0  0  0  0  0  0  0  0  0
   16.0993  -21.3810   -0.0933 C   0  0  0  0  0  0  0  0  0  0  0  0
   14.6487  -23.3693    0.1822 C   0  0  0  0  0  0  0  0  0  0  0  0
   14.3263  -23.5073   -1.3048 C   0  0  2  0  0  0  0  0  0  0  0  0
   13.0467  -22.9854   -1.6487 N   0  0  0  0  0  0  0  0  0  0  0  0
   14.4597  -24.9226   -1.6735 C   0  0  0  0  0  0  0  0  0  0  0  0
   13.5179  -25.7470   -1.3875 O   0  0  0  0  0  0  0  0  0  0  0  0
   15.6250  -25.4377   -2.3548 N   0  0  0  0  0  0  0  0  0  0  0  0
   16.7449  -24.6771   -2.8015 C   0  0  0  0  0  0  0  0  0  0  0  0
   17.6574  -25.6147   -3.5363 C   0  0  0  0  0  0  0  0  0  0  0  0
   16.7550  -26.8068   -3.8546 C   0  0  0  0  0  0  0  0  0  0  0  0
   15.8221  -26.8372   -2.6729 C   0  0  1  0  0  0  0  0  0  0  0  0
   16.4400  -27.5262   -1.5029 C   0  0  0  0  0  0  0  0  0  0  0  0
   17.1653  -26.8814   -0.7092 O   0  0  0  0  0  0  0  0  0  0  0  0
   16.2433  -28.8992   -1.2403 N   0  0  0  0  0  0  0  0  0  0  0  0
   16.7361  -29.5292   -0.0401 C   0  0  0  0  0  0  0  0  0  0  0  0
   17.8882  -30.4162   -0.3383 C   0  0  0  0  0  0  0  0  0  0  0  0
   18.1121  -30.7998   -1.4993 O   0  0  0  0  0  0  0  0  0  0  0  0
   18.7171  -30.8152    0.6967 O   0  0  0  0  0  0  0  0  0  0  0  0
  2  1  1  1
  3  2  1  0
  4  2  1  0
  5  7  1  0
  5  4  1  0
  5  6  1  1
  7  8  2  0
  9 10  1  0
  9  7  1  0
 11 10  1  0
 12 13  1  0
 12 11  1  0
 13  9  1  0
 14 16  1  0
 13 14  1  1
 15 14  2  0
 17 16  1  0
 18 20  1  0
 18 17  1  0
 19 18  2  0
M  END
$$$$
