LPG.pdb
     RDKit          3D

 20 20  0  0  1  0  0  0  0  0999 V2000
   21.4198  -20.0534  -17.9469 C   0  0  0  0  0  0  0  0  0  0  0  0
   21.7926  -21.4813  -18.3576 C   0  0  1  0  0  0  0  0  0  0  0  0
   23.2958  -21.6490  -18.4367 C   0  0  0  0  0  0  0  0  0  0  0  0
   21.2203  -22.4428  -17.3430 C   0  0  0  0  0  0  0  0  0  0  0  0
   21.4056  -23.8765  -17.8372 C   0  0  2  0  0  0  0  0  0  0  0  0
   20.7437  -24.1304  -19.0723 N   0  0  0  0  0  0  0  0  0  0  0  0
   20.9584  -24.7885  -16.7764 C   0  0  0  0  0  0  0  0  0  0  0  0
   19.7141  -25.0890  -16.6772 O   0  0  0  0  0  0  0  0  0  0  0  0
   21.8727  -25.3719  -15.8219 N   0  0  0  0  0  0  0  0  0  0  0  0
   23.2855  -25.1850  -15.7853 C   0  0  0  0  0  0  0  0  0  0  0  0
   23.8235  -26.0579  -14.6898 C   0  0  0  0  0  0  0  0  0  0  0  0
   22.6932  -27.0588  -14.4501 C   0  0  0  0  0  0  0  0  0  0  0  0
   21.4627  -26.2393  -14.7366 C   0  0  1  0  0  0  0  0  0  0  0  0
   21.0711  -25.4074  -13.5618 C   0  0  0  0  0  0  0  0  0  0  0  0
   21.5474  -24.2557  -13.4249 O   0  0  0  0  0  0  0  0  0  0  0  0
   20.1706  -25.8640  -12.5753 N   0  0  0  0  0  0  0  0  0  0  0  0
   19.6016  -24.9801  -11.5876 C   0  0  0  0  0  0  0  0  0  0  0  0
   18.6520  -25.7054  -10.7072 C   0  0  0  0  0  0  0  0  0  0  0  0
   18.3578  -26.8925  -10.9299 O   0  0  0  0  0  0  0  0  0  0  0  0
   18.0931  -25.0423   -9.6277 O   0  0  0  0  0  0  0  0  0  0  0  0
  2  1  1  1
  3  2  1  0
  4  2  1  0
  5  7  1  0
  5  4  1  0
  5  6  1  6
  7  8  2  0
  9 10  1  0
  9  7  1  0
 11 10  1  0
 12 13  1  0
 12 11  1  0
 13  9  1  0
 14 16  1  0
 13 14  1  1
 15 14  2  0
 17 16  1  0
 18 20  1  0
 18 17  1  0
 19 18  2  0
M  END
$$$$
