LPG.pdb
     RDKit          3D

 20 20  0  0  1  0  0  0  0  0999 V2000
   19.0012  -11.2586  -20.3997 C   0  0  0  0  0  0  0  0  0  0  0  0
   19.2857  -12.0623  -19.1269 C   0  0  1  0  0  0  0  0  0  0  0  0
   20.4518  -13.0072  -19.3302 C   0  0  0  0  0  0  0  0  0  0  0  0
   19.5932  -11.0997  -18.0043 C   0  0  0  0  0  0  0  0  0  0  0  0
   19.6737  -11.8643  -16.6840 C   0  0  2  0  0  0  0  0  0  0  0  0
   18.4528  -12.5111  -16.3389 N   0  0  0  0  0  0  0  0  0  0  0  0
   20.1153  -10.9307  -15.6398 C   0  0  0  0  0  0  0  0  0  0  0  0
   19.2440  -10.2859  -14.9518 O   0  0  0  0  0  0  0  0  0  0  0  0
   21.5115  -10.7009  -15.3481 N   0  0  0  0  0  0  0  0  0  0  0  0
   22.6211  -11.3005  -16.0127 C   0  0  0  0  0  0  0  0  0  0  0  0
   23.8646  -10.8409  -15.3097 C   0  0  0  0  0  0  0  0  0  0  0  0
   23.3426  -10.3379  -13.9639 C   0  0  0  0  0  0  0  0  0  0  0  0
   21.9838   -9.7955  -14.3207 C   0  0  1  0  0  0  0  0  0  0  0  0
   22.0731   -8.4163  -14.8822 C   0  0  0  0  0  0  0  0  0  0  0  0
   22.3155   -8.2523  -16.1013 O   0  0  0  0  0  0  0  0  0  0  0  0
   21.8939   -7.2617  -14.0901 N   0  0  0  0  0  0  0  0  0  0  0  0
   21.8599   -5.9374  -14.6608 C   0  0  0  0  0  0  0  0  0  0  0  0
   21.6759   -4.9079  -13.6076 C   0  0  0  0  0  0  0  0  0  0  0  0
   20.5409   -4.4973  -13.3105 O   0  0  0  0  0  0  0  0  0  0  0  0
   22.7889   -4.4055  -12.9546 O   0  0  0  0  0  0  0  0  0  0  0  0
  2  1  1  6
  3  2  1  0
  4  2  1  0
  5  7  1  0
  5  4  1  0
  5  6  1  1
  7  8  2  0
  9 10  1  0
  9  7  1  0
 11 10  1  0
 12 13  1  0
 12 11  1  0
 13  9  1  0
 14 16  1  0
 13 14  1  6
 15 14  2  0
 17 16  1  0
 18 20  1  0
 18 17  1  0
 19 18  2  0
M  END
$$$$
