LPG.pdb
     RDKit          3D

 20 20  0  0  1  0  0  0  0  0999 V2000
   18.7085  -23.2979  -12.9059 C   0  0  0  0  0  0  0  0  0  0  0  0
   19.1913  -21.9964  -12.2581 C   0  0  1  0  0  0  0  0  0  0  0  0
   19.0945  -22.0723  -10.7485 C   0  0  0  0  0  0  0  0  0  0  0  0
   20.6237  -21.7519  -12.6701 C   0  0  0  0  0  0  0  0  0  0  0  0
   20.9964  -20.2983  -12.3830 C   0  0  2  0  0  0  0  0  0  0  0  0
   20.2447  -19.3671  -13.1547 N   0  0  0  0  0  0  0  0  0  0  0  0
   22.4420  -20.1457  -12.5928 C   0  0  0  0  0  0  0  0  0  0  0  0
   22.8765  -19.6358  -13.6881 O   0  0  0  0  0  0  0  0  0  0  0  0
   23.4140  -20.5522  -11.6042 N   0  0  0  0  0  0  0  0  0  0  0  0
   23.1340  -21.1793  -10.3550 C   0  0  0  0  0  0  0  0  0  0  0  0
   24.4373  -21.3244   -9.6257 C   0  0  0  0  0  0  0  0  0  0  0  0
   25.3548  -20.3353  -10.3444 C   0  0  0  0  0  0  0  0  0  0  0  0
   24.8442  -20.3831  -11.7603 C   0  0  1  0  0  0  0  0  0  0  0  0
   25.4000  -21.5499  -12.5055 C   0  0  0  0  0  0  0  0  0  0  0  0
   25.4873  -22.6668  -11.9428 O   0  0  0  0  0  0  0  0  0  0  0  0
   25.8421  -21.4552  -13.8428 N   0  0  0  0  0  0  0  0  0  0  0  0
   27.0198  -22.1431  -14.3121 C   0  0  0  0  0  0  0  0  0  0  0  0
   27.2842  -21.8340  -15.7395 C   0  0  0  0  0  0  0  0  0  0  0  0
   28.2103  -22.3940  -16.3509 O   0  0  0  0  0  0  0  0  0  0  0  0
   26.4835  -20.9090  -16.3882 O   0  0  0  0  0  0  0  0  0  0  0  0
  2  1  1  6
  3  2  1  0
  4  2  1  0
  5  7  1  0
  5  4  1  0
  5  6  1  6
  7  8  2  0
  9 10  1  0
  9  7  1  0
 11 10  1  0
 12 13  1  0
 12 11  1  0
 13  9  1  0
 14 16  1  0
 13 14  1  6
 15 14  2  0
 17 16  1  0
 18 20  1  0
 18 17  1  0
 19 18  2  0
M  END
$$$$
