LPG.pdb
     RDKit          3D

 20 20  0  0  1  0  0  0  0  0999 V2000
   28.0338  -21.1555   -4.6212 C   0  0  0  0  0  0  0  0  0  0  0  0
   27.9232  -19.9628   -5.5761 C   0  0  1  0  0  0  0  0  0  0  0  0
   29.2465  -19.2351   -5.6922 C   0  0  0  0  0  0  0  0  0  0  0  0
   27.4923  -20.4665   -6.9333 C   0  0  0  0  0  0  0  0  0  0  0  0
   27.2764  -19.2812   -7.8728 C   0  0  2  0  0  0  0  0  0  0  0  0
   26.4294  -18.2787   -7.3200 N   0  0  0  0  0  0  0  0  0  0  0  0
   26.7599  -19.7951   -9.1479 C   0  0  0  0  0  0  0  0  0  0  0  0
   25.4949  -19.8002   -9.3673 O   0  0  0  0  0  0  0  0  0  0  0  0
   27.6275  -20.3053  -10.1844 N   0  0  0  0  0  0  0  0  0  0  0  0
   28.9971  -20.6709  -10.0328 C   0  0  0  0  0  0  0  0  0  0  0  0
   29.5115  -21.0497  -11.3905 C   0  0  0  0  0  0  0  0  0  0  0  0
   28.4853  -20.4321  -12.3405 C   0  0  0  0  0  0  0  0  0  0  0  0
   27.2063  -20.5313  -11.5519 C   0  0  1  0  0  0  0  0  0  0  0  0
   26.5971  -21.8886  -11.6619 C   0  0  0  0  0  0  0  0  0  0  0  0
   26.6234  -22.6670  -10.6795 O   0  0  0  0  0  0  0  0  0  0  0  0
   25.9789  -22.3490  -12.8446 N   0  0  0  0  0  0  0  0  0  0  0  0
   25.0226  -21.5505  -13.5715 C   0  0  0  0  0  0  0  0  0  0  0  0
   23.6451  -21.7797  -13.0686 C   0  0  0  0  0  0  0  0  0  0  0  0
   23.1369  -21.0127  -12.2329 O   0  0  0  0  0  0  0  0  0  0  0  0
   22.9264  -22.8642  -13.5429 O   0  0  0  0  0  0  0  0  0  0  0  0
  2  1  1  1
  3  2  1  0
  4  2  1  0
  5  7  1  0
  5  4  1  0
  5  6  1  1
  7  8  2  0
  9 10  1  0
  9  7  1  0
 11 10  1  0
 12 13  1  0
 12 11  1  0
 13  9  1  0
 14 16  1  0
 13 14  1  1
 15 14  2  0
 17 16  1  0
 18 20  1  0
 18 17  1  0
 19 18  2  0
M  END
$$$$
