LPG.pdb
     RDKit          3D

 20 20  0  0  1  0  0  0  0  0999 V2000
   22.1727  -20.8753   -9.3989 C   0  0  0  0  0  0  0  0  0  0  0  0
   23.6746  -20.5873   -9.3091 C   0  0  1  0  0  0  0  0  0  0  0  0
   24.3518  -21.5314   -8.3375 C   0  0  0  0  0  0  0  0  0  0  0  0
   24.2810  -20.7417  -10.6838 C   0  0  0  0  0  0  0  0  0  0  0  0
   25.7107  -20.2030  -10.6745 C   0  0  2  0  0  0  0  0  0  0  0  0
   25.9573  -19.2945   -9.6060 N   0  0  0  0  0  0  0  0  0  0  0  0
   25.9808  -19.5970  -11.9847 C   0  0  0  0  0  0  0  0  0  0  0  0
   25.6030  -18.3926  -12.2196 O   0  0  0  0  0  0  0  0  0  0  0  0
   26.6639  -20.3090  -13.0400 N   0  0  0  0  0  0  0  0  0  0  0  0
   27.1238  -21.6573  -12.9865 C   0  0  0  0  0  0  0  0  0  0  0  0
   27.8551  -21.9313  -14.2677 C   0  0  0  0  0  0  0  0  0  0  0  0
   28.1576  -20.5329  -14.8063 C   0  0  0  0  0  0  0  0  0  0  0  0
   26.9704  -19.7355  -14.3345 C   0  0  1  0  0  0  0  0  0  0  0  0
   25.7978  -19.9083  -15.2403 C   0  0  0  0  0  0  0  0  0  0  0  0
   24.8477  -20.6513  -14.8979 O   0  0  0  0  0  0  0  0  0  0  0  0
   25.7039  -19.2616  -16.4916 N   0  0  0  0  0  0  0  0  0  0  0  0
   25.0150  -18.0051  -16.6561 C   0  0  0  0  0  0  0  0  0  0  0  0
   23.5449  -18.1870  -16.5618 C   0  0  0  0  0  0  0  0  0  0  0  0
   22.8611  -18.3818  -17.5814 O   0  0  0  0  0  0  0  0  0  0  0  0
   22.9383  -18.1374  -15.3180 O   0  0  0  0  0  0  0  0  0  0  0  0
  2  1  1  6
  3  2  1  0
  4  2  1  0
  5  7  1  0
  5  4  1  0
  5  6  1  1
  7  8  2  0
  9 10  1  0
  9  7  1  0
 11 10  1  0
 12 13  1  0
 12 11  1  0
 13  9  1  0
 14 16  1  0
 13 14  1  6
 15 14  2  0
 17 16  1  0
 18 20  1  0
 18 17  1  0
 19 18  2  0
M  END
$$$$
