LPG.pdb
     RDKit          3D

 20 20  0  0  1  0  0  0  0  0999 V2000
   26.3604  -19.5909   -7.9291 C   0  0  0  0  0  0  0  0  0  0  0  0
   25.7250  -20.4834   -8.9998 C   0  0  1  0  0  0  0  0  0  0  0  0
   24.6116  -21.3265   -8.4138 C   0  0  0  0  0  0  0  0  0  0  0  0
   25.1804  -19.6058  -10.1019 C   0  0  0  0  0  0  0  0  0  0  0  0
   24.8207  -20.4683  -11.3106 C   0  0  2  0  0  0  0  0  0  0  0  0
   23.9802  -21.5692  -10.9797 N   0  0  0  0  0  0  0  0  0  0  0  0
   26.0686  -20.9028  -11.9514 C   0  0  0  0  0  0  0  0  0  0  0  0
   26.5648  -22.0521  -11.6660 O   0  0  0  0  0  0  0  0  0  0  0  0
   26.7759  -20.0793  -12.9048 N   0  0  0  0  0  0  0  0  0  0  0  0
   26.4170  -18.7600  -13.3086 C   0  0  0  0  0  0  0  0  0  0  0  0
   27.3802  -18.3434  -14.3811 C   0  0  0  0  0  0  0  0  0  0  0  0
   27.9806  -19.6689  -14.8492 C   0  0  0  0  0  0  0  0  0  0  0  0
   27.9853  -20.4910  -13.5876 C   0  0  1  0  0  0  0  0  0  0  0  0
   29.1659  -20.1767  -12.7316 C   0  0  0  0  0  0  0  0  0  0  0  0
   29.0496  -19.3720  -11.7773 O   0  0  0  0  0  0  0  0  0  0  0  0
   30.4357  -20.7541  -12.9489 N   0  0  0  0  0  0  0  0  0  0  0  0
   31.3478  -21.0314  -11.8665 C   0  0  0  0  0  0  0  0  0  0  0  0
   31.6076  -22.4879  -11.7484 C   0  0  0  0  0  0  0  0  0  0  0  0
   30.9028  -23.3114  -12.3569 O   0  0  0  0  0  0  0  0  0  0  0  0
   32.6502  -22.9237  -10.9480 O   0  0  0  0  0  0  0  0  0  0  0  0
  2  1  1  1
  3  2  1  0
  4  2  1  0
  5  7  1  0
  5  4  1  0
  5  6  1  1
  7  8  2  0
  9 10  1  0
  9  7  1  0
 11 10  1  0
 12 13  1  0
 12 11  1  0
 13  9  1  0
 14 16  1  0
 13 14  1  1
 15 14  2  0
 17 16  1  0
 18 20  1  0
 18 17  1  0
 19 18  2  0
M  END
$$$$
