LPG.pdb
     RDKit          3D

 20 20  0  0  1  0  0  0  0  0999 V2000
   27.9187  -18.1678  -16.9703 C   0  0  0  0  0  0  0  0  0  0  0  0
   28.1383  -19.2457  -15.9042 C   0  0  1  0  0  0  0  0  0  0  0  0
   28.6991  -18.6453  -14.6318 C   0  0  0  0  0  0  0  0  0  0  0  0
   26.8174  -19.9194  -15.6166 C   0  0  0  0  0  0  0  0  0  0  0  0
   27.0629  -21.2178  -14.8496 C   0  0  2  0  0  0  0  0  0  0  0  0
   27.5673  -22.2647  -15.6727 N   0  0  0  0  0  0  0  0  0  0  0  0
   25.8121  -21.5987  -14.1808 C   0  0  0  0  0  0  0  0  0  0  0  0
   24.9693  -22.3534  -14.7878 O   0  0  0  0  0  0  0  0  0  0  0  0
   25.4816  -21.1528  -12.8469 N   0  0  0  0  0  0  0  0  0  0  0  0
   26.2764  -20.3058  -12.0202 C   0  0  0  0  0  0  0  0  0  0  0  0
   25.5818  -20.1957  -10.6947 C   0  0  0  0  0  0  0  0  0  0  0  0
   24.6220  -21.3854  -10.7003 C   0  0  0  0  0  0  0  0  0  0  0  0
   24.2583  -21.5070  -12.1566 C   0  0  1  0  0  0  0  0  0  0  0  0
   23.1823  -20.5459  -12.5361 C   0  0  0  0  0  0  0  0  0  0  0  0
   23.4347  -19.3197  -12.6033 O   0  0  0  0  0  0  0  0  0  0  0  0
   21.8649  -20.9593  -12.8297 N   0  0  0  0  0  0  0  0  0  0  0  0
   20.8422  -20.0287  -13.2402 C   0  0  0  0  0  0  0  0  0  0  0  0
   19.5901  -20.2396  -12.4716 C   0  0  0  0  0  0  0  0  0  0  0  0
   19.5249  -21.1119  -11.5884 O   0  0  0  0  0  0  0  0  0  0  0  0
   18.4874  -19.4496  -12.7499 O   0  0  0  0  0  0  0  0  0  0  0  0
  2  1  1  6
  3  2  1  0
  4  2  1  0
  5  7  1  0
  5  4  1  0
  5  6  1  6
  7  8  2  0
  9 10  1  0
  9  7  1  0
 11 10  1  0
 12 13  1  0
 12 11  1  0
 13  9  1  0
 14 16  1  0
 13 14  1  6
 15 14  2  0
 17 16  1  0
 18 20  1  0
 18 17  1  0
 19 18  2  0
M  END
$$$$
