DGT.pdb
     RDKit          3D

 20 19  0  0  1  0  0  0  0  0999 V2000
   20.1132  -12.9406  -17.5548 N   0  0  0  0  0  0  0  0  0  0  0  0
   19.5900  -11.5987  -17.4351 C   0  0  1  0  0  0  0  0  0  0  0  0
   18.0910  -11.5724  -17.2376 C   0  0  0  0  0  0  0  0  0  0  0  0
   17.4548  -12.2013  -18.4258 C   0  0  0  0  0  0  0  0  0  0  0  0
   17.7626  -11.8865  -19.6168 O   0  0  0  0  0  0  0  0  0  0  0  0
   20.2349  -10.9622  -16.2572 C   0  0  0  0  0  0  0  0  0  0  0  0
   20.4900  -11.6284  -15.1943 O   0  0  0  0  0  0  0  0  0  0  0  0
   16.4816  -13.1736  -18.1585 O   0  0  0  0  0  0  0  0  0  0  0  0
   20.5855   -9.5806  -16.2844 N   0  0  0  0  0  0  0  0  0  0  0  0
   21.3631   -9.0243  -15.2045 C   0  0  0  0  0  0  0  0  0  0  0  0
   21.5730   -7.5663  -15.3549 C   0  0  0  0  0  0  0  0  0  0  0  0
   22.0267   -7.1480  -16.4823 O   0  0  0  0  0  0  0  0  0  0  0  0
   19.1758   -5.0728  -15.4976 C   0  0  0  0  0  0  0  0  0  0  0  0
   20.0567   -4.5684  -14.3478 C   0  0  1  0  0  0  0  0  0  0  0  0
   19.4455   -4.8223  -13.1275 O   0  0  0  0  0  0  0  0  0  0  0  0
   21.3984   -5.2456  -14.4904 C   0  0  2  0  0  0  0  0  0  0  0  0
   21.2814   -6.6769  -14.3081 N   0  0  0  0  0  0  0  0  0  0  0  0
   22.3959   -4.6945  -13.5412 C   0  0  0  0  0  0  0  0  0  0  0  0
   22.7753   -3.4956  -13.5883 O   0  0  0  0  0  0  0  0  0  0  0  0
   22.9462   -5.5023  -12.5588 O   0  0  0  0  0  0  0  0  0  0  0  0
  2  1  1  1
  2  3  1  0
  4  5  2  0
  4  3  1  0
  6  7  2  0
  6  2  1  0
  8  4  1  0
  9  6  1  0
 10  9  1  0
 11 10  1  0
 12 11  2  0
 14 13  1  6
 14 16  1  0
 15 14  1  0
 16 18  1  0
 16 17  1  1
 17 11  1  0
 18 20  1  0
 19 18  2  0
M  END
$$$$
