DGT.pdb
     RDKit          3D

 20 19  0  0  1  0  0  0  0  0999 V2000
   19.0817  -11.3010  -16.7430 N   0  0  0  0  0  0  0  0  0  0  0  0
   20.4259  -11.7796  -16.9730 C   0  0  1  0  0  0  0  0  0  0  0  0
   20.8085  -11.7635  -18.4359 C   0  0  0  0  0  0  0  0  0  0  0  0
   19.7072  -12.3945  -19.2111 C   0  0  0  0  0  0  0  0  0  0  0  0
   19.6627  -13.6406  -19.4511 O   0  0  0  0  0  0  0  0  0  0  0  0
   21.3582  -10.8933  -16.2290 C   0  0  0  0  0  0  0  0  0  0  0  0
   22.6273  -11.0355  -16.3159 O   0  0  0  0  0  0  0  0  0  0  0  0
   18.7061  -11.5285  -19.6714 O   0  0  0  0  0  0  0  0  0  0  0  0
   20.8543   -9.8553  -15.3915 N   0  0  0  0  0  0  0  0  0  0  0  0
   21.7772   -8.9626  -14.7345 C   0  0  0  0  0  0  0  0  0  0  0  0
   21.2036   -7.6135  -14.5260 C   0  0  0  0  0  0  0  0  0  0  0  0
   20.6581   -7.0406  -15.5390 O   0  0  0  0  0  0  0  0  0  0  0  0
   18.5850   -6.8338  -12.1093 C   0  0  0  0  0  0  0  0  0  0  0  0
   19.6910   -5.8155  -11.8056 C   0  0  1  0  0  0  0  0  0  0  0  0
   20.3876   -6.1892  -10.6643 O   0  0  0  0  0  0  0  0  0  0  0  0
   20.5656   -5.7351  -13.0334 C   0  0  2  0  0  0  0  0  0  0  0  0
   21.2493   -6.9892  -13.2691 N   0  0  0  0  0  0  0  0  0  0  0  0
   21.5521   -4.6320  -12.9343 C   0  0  0  0  0  0  0  0  0  0  0  0
   22.7887   -4.8448  -12.8392 O   0  0  0  0  0  0  0  0  0  0  0  0
   21.1281   -3.3127  -12.9444 O   0  0  0  0  0  0  0  0  0  0  0  0
  2  1  1  6
  2  3  1  0
  4  5  2  0
  4  3  1  0
  6  7  2  0
  6  2  1  0
  8  4  1  0
  9  6  1  0
 10  9  1  0
 11 10  1  0
 12 11  2  0
 14 13  1  6
 14 16  1  0
 15 14  1  0
 16 18  1  0
 16 17  1  1
 17 11  1  0
 18 20  1  0
 19 18  2  0
M  END
$$$$
