DGT.pdb
     RDKit          3D

 20 19  0  0  1  0  0  0  0  0999 V2000
   17.3382  -12.2561  -14.2277 N   0  0  0  0  0  0  0  0  0  0  0  0
   16.8118  -12.1295  -15.5679 C   0  0  1  0  0  0  0  0  0  0  0  0
   15.3206  -11.8793  -15.5877 C   0  0  0  0  0  0  0  0  0  0  0  0
   14.6486  -13.0239  -14.9168 C   0  0  0  0  0  0  0  0  0  0  0  0
   14.7339  -14.2167  -15.3439 O   0  0  0  0  0  0  0  0  0  0  0  0
   17.4943  -10.9808  -16.2182 C   0  0  0  0  0  0  0  0  0  0  0  0
   17.2608  -10.6682  -17.4373 O   0  0  0  0  0  0  0  0  0  0  0  0
   13.9033  -12.7126  -13.7715 O   0  0  0  0  0  0  0  0  0  0  0  0
   18.4358  -10.1944  -15.4916 N   0  0  0  0  0  0  0  0  0  0  0  0
   18.9618   -8.9895  -16.0847 C   0  0  0  0  0  0  0  0  0  0  0  0
   19.8576   -8.2534  -15.1637 C   0  0  0  0  0  0  0  0  0  0  0  0
   19.8557   -8.6084  -13.9284 O   0  0  0  0  0  0  0  0  0  0  0  0
   23.4921   -7.7897  -16.1256 C   0  0  0  0  0  0  0  0  0  0  0  0
   22.9895   -6.4285  -15.6285 C   0  0  1  0  0  0  0  0  0  0  0  0
   22.7592   -5.5801  -16.7030 O   0  0  0  0  0  0  0  0  0  0  0  0
   21.7520   -6.6896  -14.8043 C   0  0  2  0  0  0  0  0  0  0  0  0
   20.6804   -7.2131  -15.6248 N   0  0  0  0  0  0  0  0  0  0  0  0
   21.2963   -5.4692  -14.0953 C   0  0  0  0  0  0  0  0  0  0  0  0
   20.2040   -4.9055  -14.3649 O   0  0  0  0  0  0  0  0  0  0  0  0
   22.0776   -4.9078  -13.0979 O   0  0  0  0  0  0  0  0  0  0  0  0
  2  1  1  1
  2  3  1  0
  4  5  2  0
  4  3  1  0
  6  7  2  0
  6  2  1  0
  8  4  1  0
  9  6  1  0
 10  9  1  0
 11 10  1  0
 12 11  2  0
 14 13  1  6
 14 16  1  0
 15 14  1  0
 16 18  1  0
 16 17  1  6
 17 11  1  0
 18 20  1  0
 19 18  2  0
M  END
$$$$
