DGT.pdb
     RDKit          3D

 20 19  0  0  1  0  0  0  0  0999 V2000
   16.2250  -12.3677  -15.2677 N   0  0  0  0  0  0  0  0  0  0  0  0
   17.6604  -12.2992  -15.4223 C   0  0  1  0  0  0  0  0  0  0  0  0
   18.1915  -13.3239  -16.3993 C   0  0  0  0  0  0  0  0  0  0  0  0
   17.8457  -14.6768  -15.8874 C   0  0  0  0  0  0  0  0  0  0  0  0
   17.0271  -15.4464  -16.4790 O   0  0  0  0  0  0  0  0  0  0  0  0
   17.9996  -10.9429  -15.9261 C   0  0  0  0  0  0  0  0  0  0  0  0
   17.3349  -10.3970  -16.8741 O   0  0  0  0  0  0  0  0  0  0  0  0
   18.4791  -15.0636  -14.6986 O   0  0  0  0  0  0  0  0  0  0  0  0
   19.0856  -10.2129  -15.3602 N   0  0  0  0  0  0  0  0  0  0  0  0
   19.4631   -8.9443  -15.9331 C   0  0  0  0  0  0  0  0  0  0  0  0
   20.5561   -8.2890  -15.1792 C   0  0  0  0  0  0  0  0  0  0  0  0
   20.9838   -8.8831  -14.1228 O   0  0  0  0  0  0  0  0  0  0  0  0
   23.7374   -6.9432  -16.8238 C   0  0  0  0  0  0  0  0  0  0  0  0
   23.1846   -5.8331  -15.9213 C   0  0  1  0  0  0  0  0  0  0  0  0
   22.5660   -4.8546  -16.6875 O   0  0  0  0  0  0  0  0  0  0  0  0
   22.2505   -6.4911  -14.9346 C   0  0  2  0  0  0  0  0  0  0  0  0
   21.1064   -7.0699  -15.6067 N   0  0  0  0  0  0  0  0  0  0  0  0
   21.7964   -5.5412  -13.8900 C   0  0  0  0  0  0  0  0  0  0  0  0
   20.6195   -5.0972  -13.8532 O   0  0  0  0  0  0  0  0  0  0  0  0
   22.6745   -5.1101  -12.9084 O   0  0  0  0  0  0  0  0  0  0  0  0
  2  1  1  6
  2  3  1  0
  4  5  2  0
  4  3  1  0
  6  7  2  0
  6  2  1  0
  8  4  1  0
  9  6  1  0
 10  9  1  0
 11 10  1  0
 12 11  2  0
 14 13  1  6
 14 16  1  0
 15 14  1  0
 16 18  1  0
 16 17  1  6
 17 11  1  0
 18 20  1  0
 19 18  2  0
M  END
$$$$
