DGT.pdb
     RDKit          3D

 20 19  0  0  1  0  0  0  0  0999 V2000
   18.8673  -11.8625  -17.6017 N   0  0  0  0  0  0  0  0  0  0  0  0
   18.1217  -12.2065  -16.4123 C   0  0  1  0  0  0  0  0  0  0  0  0
   18.5203  -13.5490  -15.8419 C   0  0  0  0  0  0  0  0  0  0  0  0
   17.7350  -14.6018  -16.5398 C   0  0  0  0  0  0  0  0  0  0  0  0
   18.0606  -15.8289  -16.5186 O   0  0  0  0  0  0  0  0  0  0  0  0
   18.3860  -11.1598  -15.3909 C   0  0  0  0  0  0  0  0  0  0  0  0
   17.8065  -11.1787  -14.2498 O   0  0  0  0  0  0  0  0  0  0  0  0
   16.5999  -14.1620  -17.2341 O   0  0  0  0  0  0  0  0  0  0  0  0
   19.2989  -10.0991  -15.6632 N   0  0  0  0  0  0  0  0  0  0  0  0
   19.6704   -9.1931  -14.6043 C   0  0  0  0  0  0  0  0  0  0  0  0
   20.5790   -8.1218  -15.0728 C   0  0  0  0  0  0  0  0  0  0  0  0
   21.4723   -8.4421  -15.9395 O   0  0  0  0  0  0  0  0  0  0  0  0
   21.3790   -3.5584  -16.2242 C   0  0  0  0  0  0  0  0  0  0  0  0
   20.4446   -4.5545  -15.5261 C   0  0  1  0  0  0  0  0  0  0  0  0
   19.3896   -4.8910  -16.3633 O   0  0  0  0  0  0  0  0  0  0  0  0
   21.2859   -5.7426  -15.1267 C   0  0  2  0  0  0  0  0  0  0  0  0
   20.4634   -6.8074  -14.5926 N   0  0  0  0  0  0  0  0  0  0  0  0
   22.3322   -5.3698  -14.1438 C   0  0  0  0  0  0  0  0  0  0  0  0
   22.1284   -5.4033  -12.9025 O   0  0  0  0  0  0  0  0  0  0  0  0
   23.5856   -4.9673  -14.5765 O   0  0  0  0  0  0  0  0  0  0  0  0
  2  1  1  6
  2  3  1  0
  4  5  2  0
  4  3  1  0
  6  7  2  0
  6  2  1  0
  8  4  1  0
  9  6  1  0
 10  9  1  0
 11 10  1  0
 12 11  2  0
 14 13  1  6
 14 16  1  0
 15 14  1  0
 16 18  1  0
 16 17  1  1
 17 11  1  0
 18 20  1  0
 19 18  2  0
M  END
$$$$
