RRS.pdb
     RDKit          3D

 29 28  0  0  1  0  0  0  0  0999 V2000
    8.7439  -15.9631   17.3732 N   0  0  0  0  0  0  0  0  0  0  0  0
    9.0136  -14.7252   16.7099 C   0  0  0  0  0  0  0  0  0  0  0  0
    8.9768  -14.6198   15.4452 N   0  0  0  0  0  0  0  0  0  0  0  0
    9.3313  -13.5704   17.4895 N   0  0  0  0  0  0  0  0  0  0  0  0
    8.3860  -12.8639   18.3014 C   0  0  0  0  0  0  0  0  0  0  0  0
    7.1554  -13.6934   18.6042 C   0  0  0  0  0  0  0  0  0  0  0  0
    7.0111  -13.9729   20.0713 C   0  0  0  0  0  0  0  0  0  0  0  0
    7.6128  -15.3056   20.4919 C   0  0  2  0  0  0  0  0  0  0  0  0
    6.9589  -16.3757   19.7874 N   0  0  0  0  0  0  0  0  0  0  0  0
    7.4821  -15.4796   21.9702 C   0  0  0  0  0  0  0  0  0  0  0  0
    6.4262  -15.2262   22.5593 O   0  0  0  0  0  0  0  0  0  0  0  0
    9.2231  -13.7145   14.9916 N   0  0  0  0  0  0  0  0  0  0  0  0
   11.7324  -15.1455   28.3669 C   0  0  0  0  0  0  0  0  0  0  0  0
   11.5648  -16.4366   28.9288 N   0  0  0  0  0  0  0  0  0  0  0  0
   11.7729  -16.6702   30.1923 N   0  0  0  0  0  0  0  0  0  0  0  0
   11.1622  -17.5386   28.1424 C   0  0  0  0  0  0  0  0  0  0  0  0
   11.0788  -17.5156   26.7205 C   0  0  0  0  0  0  0  0  0  0  0  0
    9.7935  -16.8637   26.2229 C   0  0  0  0  0  0  0  0  0  0  0  0
    9.7804  -16.8228   24.7104 C   0  0  1  0  0  0  0  0  0  0  0  0
    8.5776  -16.0744   24.1745 N   0  0  0  0  0  0  0  0  0  0  0  0
    8.5843  -15.9529   22.7570 C   0  0  0  0  0  0  0  0  0  0  0  0
    8.5525  -14.7376   24.8216 O   0  0  0  0  0  0  0  0  0  0  0  0
    9.5509  -13.9925   24.5755 O   0  0  0  0  0  0  0  0  0  0  0  0
   11.6997  -17.6833   30.4962 C   0  0  0  0  0  0  0  0  0  0  0  0
    5.2608  -13.5658   27.0502 C   0  0  1  0  0  0  0  0  0  0  0  0
    6.0030  -12.5312   26.4657 N   0  0  0  0  0  0  0  0  0  0  0  0
    7.4193  -12.9845   26.3038 C   0  0  0  0  0  0  0  0  0  0  0  0
    7.5370  -14.2613   25.6543 O   0  0  0  0  0  0  0  0  0  0  0  0
    8.2372  -12.7629   27.4970 O   0  0  0  0  0  0  0  0  0  0  0  0
  2  1  1  0
  3  2  2  0
  4  2  1  0
  5  4  1  0
  6  5  1  0
  7  6  1  0
  8 10  1  0
  8  7  1  0
  8  9  1  6
 10 11  2  0
 13 12  1  0
 14 13  2  0
 15 13  1  0
 16 15  1  0
 17 16  1  0
 18 17  1  0
 19 18  1  6
 19 21  1  0
 20 10  1  0
 20 19  1  0
 21 26  1  0
 21 22  2  0
 23 24  1  0
 25 24  1  6
 25 27  1  0
 26 25  1  0
 27 28  2  0
 27 29  1  0
M  END
$$$$
