RRS.pdb
     RDKit          3D

 29 28  0  0  1  0  0  0  0  0999 V2000
    9.7981  -13.4845   12.3070 N   0  0  0  0  0  0  0  0  0  0  0  0
    8.4979  -13.8701   12.7608 C   0  0  0  0  0  0  0  0  0  0  0  0
    7.4731  -13.1511   12.5496 N   0  0  0  0  0  0  0  0  0  0  0  0
    8.3428  -15.1009   13.4703 N   0  0  0  0  0  0  0  0  0  0  0  0
    8.6729  -15.2787   14.8528 C   0  0  0  0  0  0  0  0  0  0  0  0
    8.5983  -13.9825   15.6327 C   0  0  0  0  0  0  0  0  0  0  0  0
    7.8618  -14.1467   16.9297 C   0  0  0  0  0  0  0  0  0  0  0  0
    8.3268  -15.3492   17.7375 C   0  0  2  0  0  0  0  0  0  0  0  0
    7.2439  -16.2853   17.8791 N   0  0  0  0  0  0  0  0  0  0  0  0
    8.8267  -14.9032   19.0732 C   0  0  0  0  0  0  0  0  0  0  0  0
    9.8188  -14.1748   19.1810 O   0  0  0  0  0  0  0  0  0  0  0  0
    6.5232  -13.5261   12.7570 N   0  0  0  0  0  0  0  0  0  0  0  0
    5.1576  -12.7853   26.9990 C   0  0  0  0  0  0  0  0  0  0  0  0
    6.5678  -12.6369   27.0182 N   0  0  0  0  0  0  0  0  0  0  0  0
    7.1745  -11.9398   27.9349 N   0  0  0  0  0  0  0  0  0  0  0  0
    7.3881  -13.2406   26.0396 C   0  0  0  0  0  0  0  0  0  0  0  0
    6.9399  -13.6046   24.7374 C   0  0  0  0  0  0  0  0  0  0  0  0
    8.0171  -14.3197   23.9294 C   0  0  0  0  0  0  0  0  0  0  0  0
    7.5016  -14.6444   22.5443 C   0  0  2  0  0  0  0  0  0  0  0  0
    8.6226  -15.0132   21.5949 N   0  0  0  0  0  0  0  0  0  0  0  0
    8.1644  -15.3060   20.2802 C   0  0  0  0  0  0  0  0  0  0  0  0
    9.3433  -16.1745   22.1766 O   0  0  0  0  0  0  0  0  0  0  0  0
    8.6970  -17.2674   22.1907 O   0  0  0  0  0  0  0  0  0  0  0  0
    8.2299  -11.8804   27.8516 C   0  0  0  0  0  0  0  0  0  0  0  0
   13.3081  -15.8345   23.5447 C   0  0  1  0  0  0  0  0  0  0  0  0
   12.8903  -17.0630   23.0162 N   0  0  0  0  0  0  0  0  0  0  0  0
   11.4209  -17.2153   23.2511 C   0  0  0  0  0  0  0  0  0  0  0  0
   10.6416  -16.1451   22.6912 O   0  0  0  0  0  0  0  0  0  0  0  0
   11.0941  -17.6393   24.6131 O   0  0  0  0  0  0  0  0  0  0  0  0
  2  1  1  0
  3  2  2  0
  4  2  1  0
  5  4  1  0
  6  5  1  0
  7  6  1  0
  8 10  1  0
  8  7  1  0
  8  9  1  1
 10 11  2  0
 13 12  1  0
 14 13  2  0
 15 13  1  0
 16 15  1  0
 17 16  1  0
 18 17  1  0
 19 18  1  6
 19 21  1  0
 20 10  1  0
 20 19  1  0
 21 26  1  0
 21 22  2  0
 23 24  1  0
 25 24  1  6
 25 27  1  0
 26 25  1  0
 27 28  2  0
 27 29  1  0
M  END
$$$$
