RRS.pdb
     RDKit          3D

 29 28  0  0  1  0  0  0  0  0999 V2000
    9.0491  -22.9395   16.2997 N   0  0  0  0  0  0  0  0  0  0  0  0
    9.0830  -21.5176   16.1516 C   0  0  0  0  0  0  0  0  0  0  0  0
    8.5607  -20.9345   15.1520 N   0  0  0  0  0  0  0  0  0  0  0  0
    9.7194  -20.7261   17.1570 N   0  0  0  0  0  0  0  0  0  0  0  0
    9.0157  -19.9668   18.1471 C   0  0  0  0  0  0  0  0  0  0  0  0
    8.8396  -20.7335   19.4414 C   0  0  0  0  0  0  0  0  0  0  0  0
    8.9811  -19.8483   20.6446 C   0  0  0  0  0  0  0  0  0  0  0  0
    9.2781  -18.3981   20.2929 C   0  0  2  0  0  0  0  0  0  0  0  0
   10.1450  -18.3458   19.1463 N   0  0  0  0  0  0  0  0  0  0  0  0
    9.8972  -17.7065   21.4638 C   0  0  0  0  0  0  0  0  0  0  0  0
   11.1203  -17.7028   21.6389 O   0  0  0  0  0  0  0  0  0  0  0  0
    8.5392  -19.8934   15.1102 N   0  0  0  0  0  0  0  0  0  0  0  0
   10.1907  -14.4877   29.2478 C   0  0  0  0  0  0  0  0  0  0  0  0
    9.2278  -13.7634   28.5001 N   0  0  0  0  0  0  0  0  0  0  0  0
    9.2996  -12.4722   28.3521 N   0  0  0  0  0  0  0  0  0  0  0  0
    8.1378  -14.4095   27.8759 C   0  0  0  0  0  0  0  0  0  0  0  0
    7.9209  -14.4269   26.4682 C   0  0  0  0  0  0  0  0  0  0  0  0
    9.0317  -15.1519   25.7165 C   0  0  0  0  0  0  0  0  0  0  0  0
    8.5075  -15.6923   24.4039 C   0  0  1  0  0  0  0  0  0  0  0  0
    9.5667  -16.4661   23.6468 N   0  0  0  0  0  0  0  0  0  0  0  0
    9.0867  -17.0174   22.4262 C   0  0  0  0  0  0  0  0  0  0  0  0
   10.0766  -17.5324   24.5464 O   0  0  0  0  0  0  0  0  0  0  0  0
    9.2652  -18.4792   24.7863 O   0  0  0  0  0  0  0  0  0  0  0  0
    8.6254  -12.0459   27.6536 C   0  0  0  0  0  0  0  0  0  0  0  0
   13.8213  -19.8925   26.4524 C   0  0  2  0  0  0  0  0  0  0  0  0
   13.3848  -18.8007   25.6906 N   0  0  0  0  0  0  0  0  0  0  0  0
   11.9354  -18.5626   25.9739 C   0  0  0  0  0  0  0  0  0  0  0  0
   11.3472  -17.5620   25.1261 O   0  0  0  0  0  0  0  0  0  0  0  0
   11.6297  -18.4923   27.4033 O   0  0  0  0  0  0  0  0  0  0  0  0
  2  1  1  0
  3  2  2  0
  4  2  1  0
  5  4  1  0
  6  5  1  0
  7  6  1  0
  8 10  1  0
  8  7  1  0
  8  9  1  6
 10 11  2  0
 13 12  1  0
 14 13  2  0
 15 13  1  0
 16 15  1  0
 17 16  1  0
 18 17  1  0
 19 18  1  6
 19 21  1  0
 20 10  1  0
 20 19  1  0
 21 26  1  0
 21 22  2  0
 23 24  1  0
 25 24  1  1
 25 27  1  0
 26 25  1  0
 27 28  2  0
 27 29  1  0
M  END
$$$$
