RRS.pdb
     RDKit          3D

 29 28  0  0  1  0  0  0  0  0999 V2000
    5.2520  -17.6882   15.4230 N   0  0  0  0  0  0  0  0  0  0  0  0
    6.6646  -17.8299   15.5947 C   0  0  0  0  0  0  0  0  0  0  0  0
    7.4906  -17.4298   14.7174 N   0  0  0  0  0  0  0  0  0  0  0  0
    7.1654  -18.4359   16.7882 N   0  0  0  0  0  0  0  0  0  0  0  0
    7.8790  -17.7295   17.8098 C   0  0  0  0  0  0  0  0  0  0  0  0
    8.3075  -16.3479   17.3609 C   0  0  0  0  0  0  0  0  0  0  0  0
    9.1029  -15.6345   18.4144 C   0  0  0  0  0  0  0  0  0  0  0  0
    8.2372  -14.9067   19.4321 C   0  0  2  0  0  0  0  0  0  0  0  0
    7.9736  -13.5687   18.9745 N   0  0  0  0  0  0  0  0  0  0  0  0
    8.9174  -14.8930   20.7625 C   0  0  0  0  0  0  0  0  0  0  0  0
   10.0739  -14.4781   20.8922 O   0  0  0  0  0  0  0  0  0  0  0  0
    8.5143  -17.4835   14.9045 N   0  0  0  0  0  0  0  0  0  0  0  0
    7.4994  -10.9748   25.6559 C   0  0  0  0  0  0  0  0  0  0  0  0
    6.4509  -11.5980   26.3792 N   0  0  0  0  0  0  0  0  0  0  0  0
    6.1773  -11.2759   27.6104 N   0  0  0  0  0  0  0  0  0  0  0  0
    5.6476  -12.6037   25.7976 C   0  0  0  0  0  0  0  0  0  0  0  0
    6.1025  -13.9237   25.5151 C   0  0  0  0  0  0  0  0  0  0  0  0
    7.1775  -13.9505   24.4343 C   0  0  0  0  0  0  0  0  0  0  0  0
    7.7973  -15.3283   24.3483 C   0  0  2  0  0  0  0  0  0  0  0  0
    8.8230  -15.4194   23.2377 N   0  0  0  0  0  0  0  0  0  0  0  0
    8.2439  -15.3608   21.9396 C   0  0  0  0  0  0  0  0  0  0  0  0
    9.5798  -16.6838   23.4246 O   0  0  0  0  0  0  0  0  0  0  0  0
    8.9077  -17.7504   23.2723 O   0  0  0  0  0  0  0  0  0  0  0  0
    5.4147  -11.8428   28.0809 C   0  0  0  0  0  0  0  0  0  0  0  0
   13.4903  -17.0332   23.2026 C   0  0  1  0  0  0  0  0  0  0  0  0
   13.1259  -17.6561   24.4034 N   0  0  0  0  0  0  0  0  0  0  0  0
   11.6398  -17.8253   24.4283 C   0  0  0  0  0  0  0  0  0  0  0  0
   10.9364  -16.7744   23.7451 O   0  0  0  0  0  0  0  0  0  0  0  0
   11.1263  -18.2338   25.7364 O   0  0  0  0  0  0  0  0  0  0  0  0
  2  1  1  0
  3  2  2  0
  4  2  1  0
  5  4  1  0
  6  5  1  0
  7  6  1  0
  8 10  1  0
  8  7  1  0
  8  9  1  6
 10 11  2  0
 13 12  1  0
 14 13  2  0
 15 13  1  0
 16 15  1  0
 17 16  1  0
 18 17  1  0
 19 18  1  1
 19 21  1  0
 20 10  1  0
 20 19  1  0
 21 26  1  0
 21 22  2  0
 23 24  1  0
 25 24  1  6
 25 27  1  0
 26 25  1  0
 27 28  2  0
 27 29  1  0
M  END
$$$$
