RRS.pdb
     RDKit          3D

 29 28  0  0  1  0  0  0  0  0999 V2000
    9.1979  -18.8350   14.7244 N   0  0  0  0  0  0  0  0  0  0  0  0
    8.6488  -17.5445   14.4448 C   0  0  0  0  0  0  0  0  0  0  0  0
    8.5847  -17.0844   13.2632 N   0  0  0  0  0  0  0  0  0  0  0  0
    8.1542  -16.7478   15.5232 N   0  0  0  0  0  0  0  0  0  0  0  0
    8.1228  -17.1756   16.8899 C   0  0  0  0  0  0  0  0  0  0  0  0
    7.5712  -16.1093   17.8133 C   0  0  0  0  0  0  0  0  0  0  0  0
    7.7325  -14.7311   17.2425 C   0  0  0  0  0  0  0  0  0  0  0  0
    7.3068  -13.6291   18.2014 C   0  0  2  0  0  0  0  0  0  0  0  0
    7.5625  -12.3446   17.6068 N   0  0  0  0  0  0  0  0  0  0  0  0
    8.0351  -13.7730   19.4982 C   0  0  0  0  0  0  0  0  0  0  0  0
    9.2601  -13.6295   19.5702 O   0  0  0  0  0  0  0  0  0  0  0  0
    8.1583  -16.1491   13.0920 N   0  0  0  0  0  0  0  0  0  0  0  0
    7.8676  -11.9786   28.9788 C   0  0  0  0  0  0  0  0  0  0  0  0
    7.0200  -12.4472   27.9429 N   0  0  0  0  0  0  0  0  0  0  0  0
    5.7273  -12.3031   27.9926 N   0  0  0  0  0  0  0  0  0  0  0  0
    7.5382  -13.0965   26.8006 C   0  0  0  0  0  0  0  0  0  0  0  0
    7.0317  -12.9151   25.4816 C   0  0  0  0  0  0  0  0  0  0  0  0
    7.7430  -13.7937   24.4585 C   0  0  0  0  0  0  0  0  0  0  0  0
    7.0617  -13.6831   23.1119 C   0  0  2  0  0  0  0  0  0  0  0  0
    7.9347  -14.2079   21.9910 N   0  0  0  0  0  0  0  0  0  0  0  0
    7.3304  -14.0807   20.7093 C   0  0  0  0  0  0  0  0  0  0  0  0
    8.2492  -15.6283   22.2908 O   0  0  0  0  0  0  0  0  0  0  0  0
    7.8522  -16.4700   21.4268 O   0  0  0  0  0  0  0  0  0  0  0  0
    5.1954  -12.5721   27.1158 C   0  0  0  0  0  0  0  0  0  0  0  0
   10.7505  -18.1504   21.5741 C   0  0  1  0  0  0  0  0  0  0  0  0
   10.9379  -17.0063   22.3608 N   0  0  0  0  0  0  0  0  0  0  0  0
    9.9881  -17.0532   23.5155 C   0  0  0  0  0  0  0  0  0  0  0  0
    8.9306  -16.0843   23.4217 O   0  0  0  0  0  0  0  0  0  0  0  0
   10.6578  -17.1897   24.8096 O   0  0  0  0  0  0  0  0  0  0  0  0
  2  1  1  0
  3  2  2  0
  4  2  1  0
  5  4  1  0
  6  5  1  0
  7  6  1  0
  8 10  1  0
  8  7  1  0
  8  9  1  6
 10 11  2  0
 13 12  1  0
 14 13  2  0
 15 13  1  0
 16 15  1  0
 17 16  1  0
 18 17  1  0
 19 18  1  6
 19 21  1  0
 20 10  1  0
 20 19  1  0
 21 26  1  0
 21 22  2  0
 23 24  1  0
 25 24  1  1
 25 27  1  0
 26 25  1  0
 27 28  2  0
 27 29  1  0
M  END
$$$$
