RRS.pdb
     RDKit          3D

 29 28  0  0  1  0  0  0  0  0999 V2000
    7.3969  -13.6502   17.5798 N   0  0  0  0  0  0  0  0  0  0  0  0
    7.9322  -13.0245   18.7491 C   0  0  0  0  0  0  0  0  0  0  0  0
    8.4846  -11.8823   18.7055 N   0  0  0  0  0  0  0  0  0  0  0  0
    7.8420  -13.6998   20.0054 N   0  0  0  0  0  0  0  0  0  0  0  0
    7.1137  -14.9156   20.2138 C   0  0  0  0  0  0  0  0  0  0  0  0
    7.5135  -16.0000   19.2348 C   0  0  0  0  0  0  0  0  0  0  0  0
    8.9985  -16.0510   19.0259 C   0  0  0  0  0  0  0  0  0  0  0  0
    9.6815  -17.1488   19.8279 C   0  0  2  0  0  0  0  0  0  0  0  0
    8.6902  -18.0330   20.3799 N   0  0  0  0  0  0  0  0  0  0  0  0
   10.5201  -16.5447   20.9071 C   0  0  0  0  0  0  0  0  0  0  0  0
   11.4284  -15.7480   20.6492 O   0  0  0  0  0  0  0  0  0  0  0  0
    8.8242  -11.4352   19.5835 N   0  0  0  0  0  0  0  0  0  0  0  0
   13.0788  -17.5427   29.4403 C   0  0  0  0  0  0  0  0  0  0  0  0
   11.7776  -16.9840   29.3644 N   0  0  0  0  0  0  0  0  0  0  0  0
   10.8626  -17.2463   30.2523 N   0  0  0  0  0  0  0  0  0  0  0  0
   11.4077  -16.1115   28.3171 C   0  0  0  0  0  0  0  0  0  0  0  0
   10.6124  -16.4981   27.2004 C   0  0  0  0  0  0  0  0  0  0  0  0
   11.2895  -16.1916   25.8691 C   0  0  0  0  0  0  0  0  0  0  0  0
   10.4038  -16.6243   24.7210 C   0  0  1  0  0  0  0  0  0  0  0  0
   11.0464  -16.3527   23.3767 N   0  0  0  0  0  0  0  0  0  0  0  0
   10.2936  -16.8698   22.2858 C   0  0  0  0  0  0  0  0  0  0  0  0
   12.4121  -16.9363   23.4029 O   0  0  0  0  0  0  0  0  0  0  0  0
   12.4996  -18.1000   23.9035 O   0  0  0  0  0  0  0  0  0  0  0  0
    9.8995  -16.8470   30.0595 C   0  0  0  0  0  0  0  0  0  0  0  0
   15.6905  -15.2699   21.3037 C   0  0  2  0  0  0  0  0  0  0  0  0
   15.6165  -16.6320   21.6230 N   0  0  0  0  0  0  0  0  0  0  0  0
   14.9256  -16.7823   22.9412 C   0  0  0  0  0  0  0  0  0  0  0  0
   13.5677  -16.3111   22.9286 O   0  0  0  0  0  0  0  0  0  0  0  0
   15.7590  -16.3910   24.0787 O   0  0  0  0  0  0  0  0  0  0  0  0
  2  1  1  0
  3  2  2  0
  4  2  1  0
  5  4  1  0
  6  5  1  0
  7  6  1  0
  8 10  1  0
  8  7  1  0
  8  9  1  1
 10 11  2  0
 13 12  1  0
 14 13  2  0
 15 13  1  0
 16 15  1  0
 17 16  1  0
 18 17  1  0
 19 18  1  6
 19 21  1  0
 20 10  1  0
 20 19  1  0
 21 26  1  0
 21 22  2  0
 23 24  1  0
 25 24  1  6
 25 27  1  0
 26 25  1  0
 27 28  2  0
 27 29  1  0
M  END
$$$$
