RRS.pdb
     RDKit          3D

 29 28  0  0  1  0  0  0  0  0999 V2000
   13.6291  -18.6643   10.3479 N   0  0  0  0  0  0  0  0  0  0  0  0
   14.8160  -19.3520   10.7522 C   0  0  0  0  0  0  0  0  0  0  0  0
   15.8006  -19.5098    9.9663 N   0  0  0  0  0  0  0  0  0  0  0  0
   14.9016  -19.8756   12.0792 N   0  0  0  0  0  0  0  0  0  0  0  0
   13.8696  -19.7428   13.0637 C   0  0  0  0  0  0  0  0  0  0  0  0
   13.6997  -18.3113   13.5287 C   0  0  0  0  0  0  0  0  0  0  0  0
   12.6842  -18.1922   14.6268 C   0  0  0  0  0  0  0  0  0  0  0  0
   11.7874  -16.9712   14.4871 C   0  0  2  0  0  0  0  0  0  0  0  0
   12.0451  -16.3228   13.2292 N   0  0  0  0  0  0  0  0  0  0  0  0
   12.0192  -16.0355   15.6288 C   0  0  0  0  0  0  0  0  0  0  0  0
   12.8684  -15.1401   15.5676 O   0  0  0  0  0  0  0  0  0  0  0  0
   16.6870  -19.9275   10.3209 N   0  0  0  0  0  0  0  0  0  0  0  0
    6.3160  -12.7312   18.6965 C   0  0  0  0  0  0  0  0  0  0  0  0
    7.5597  -12.8908   19.3589 N   0  0  0  0  0  0  0  0  0  0  0  0
    8.4685  -11.9590   19.3515 N   0  0  0  0  0  0  0  0  0  0  0  0
    7.8759  -14.0738   20.0628 C   0  0  0  0  0  0  0  0  0  0  0  0
    9.0597  -14.2499   20.8353 C   0  0  0  0  0  0  0  0  0  0  0  0
   10.3196  -14.2580   19.9767 C   0  0  0  0  0  0  0  0  0  0  0  0
   10.1854  -15.2724   18.8620 C   0  0  2  0  0  0  0  0  0  0  0  0
   11.4147  -15.3082   17.9780 N   0  0  0  0  0  0  0  0  0  0  0  0
   11.2562  -16.1454   16.8386 C   0  0  0  0  0  0  0  0  0  0  0  0
   12.5581  -15.7585   18.8124 O   0  0  0  0  0  0  0  0  0  0  0  0
   12.5554  -16.9894   19.1245 O   0  0  0  0  0  0  0  0  0  0  0  0
    9.3897  -12.2042   19.8157 C   0  0  0  0  0  0  0  0  0  0  0  0
   16.0967  -13.9865   18.6277 C   0  0  1  0  0  0  0  0  0  0  0  0
   15.8512  -14.2856   19.9742 N   0  0  0  0  0  0  0  0  0  0  0  0
   14.7496  -15.2946   20.0518 C   0  0  0  0  0  0  0  0  0  0  0  0
   13.6016  -14.9452   19.2608 O   0  0  0  0  0  0  0  0  0  0  0  0
   14.5036  -15.7785   21.4109 O   0  0  0  0  0  0  0  0  0  0  0  0
  2  1  1  0
  3  2  2  0
  4  2  1  0
  5  4  1  0
  6  5  1  0
  7  6  1  0
  8 10  1  0
  8  7  1  0
  8  9  1  6
 10 11  2  0
 13 12  1  0
 14 13  2  0
 15 13  1  0
 16 15  1  0
 17 16  1  0
 18 17  1  0
 19 18  1  6
 19 21  1  0
 20 10  1  0
 20 19  1  0
 21 26  1  0
 21 22  2  0
 23 24  1  0
 25 24  1  6
 25 27  1  0
 26 25  1  0
 27 28  2  0
 27 29  1  0
M  END
$$$$
