RRS.pdb
     RDKit          3D

 29 28  0  0  1  0  0  0  0  0999 V2000
    6.7740  -14.6577   14.5657 N   0  0  0  0  0  0  0  0  0  0  0  0
    8.0438  -14.0006   14.5975 C   0  0  0  0  0  0  0  0  0  0  0  0
    8.3236  -13.0431   13.8121 N   0  0  0  0  0  0  0  0  0  0  0  0
    9.0279  -14.4289   15.5411 N   0  0  0  0  0  0  0  0  0  0  0  0
    8.7527  -14.7067   16.9192 C   0  0  0  0  0  0  0  0  0  0  0  0
    7.9017  -13.6320   17.5632 C   0  0  0  0  0  0  0  0  0  0  0  0
    7.6812  -13.8884   19.0251 C   0  0  0  0  0  0  0  0  0  0  0  0
    8.5404  -15.0176   19.5741 C   0  0  2  0  0  0  0  0  0  0  0  0
    7.7474  -16.2108   19.7024 N   0  0  0  0  0  0  0  0  0  0  0  0
    9.1247  -14.6193   20.8905 C   0  0  0  0  0  0  0  0  0  0  0  0
    9.8990  -13.6617   20.9900 O   0  0  0  0  0  0  0  0  0  0  0  0
    9.2272  -12.5341   13.9141 N   0  0  0  0  0  0  0  0  0  0  0  0
   10.3541  -16.2302   28.3525 C   0  0  0  0  0  0  0  0  0  0  0  0
   10.0001  -14.8755   28.5768 N   0  0  0  0  0  0  0  0  0  0  0  0
   10.8162  -14.0354   29.1449 N   0  0  0  0  0  0  0  0  0  0  0  0
    8.7391  -14.3677   28.1936 C   0  0  0  0  0  0  0  0  0  0  0  0
    8.1318  -14.6122   26.9286 C   0  0  0  0  0  0  0  0  0  0  0  0
    9.1567  -14.7635   25.8099 C   0  0  0  0  0  0  0  0  0  0  0  0
    8.4589  -15.0449   24.4970 C   0  0  2  0  0  0  0  0  0  0  0  0
    9.4383  -15.1505   23.3466 N   0  0  0  0  0  0  0  0  0  0  0  0
    8.8006  -15.3384   22.0887 C   0  0  0  0  0  0  0  0  0  0  0  0
   10.3653  -16.2723   23.6443 O   0  0  0  0  0  0  0  0  0  0  0  0
    9.8320  -17.4237   23.6930 O   0  0  0  0  0  0  0  0  0  0  0  0
   10.4647  -13.0400   29.2434 C   0  0  0  0  0  0  0  0  0  0  0  0
   14.0912  -15.4911   23.2365 C   0  0  1  0  0  0  0  0  0  0  0  0
   14.1154  -16.7466   23.8579 N   0  0  0  0  0  0  0  0  0  0  0  0
   12.7098  -17.1722   24.1420 C   0  0  0  0  0  0  0  0  0  0  0  0
   11.7390  -16.1489   23.8659 O   0  0  0  0  0  0  0  0  0  0  0  0
   12.5708  -17.9041   25.4016 O   0  0  0  0  0  0  0  0  0  0  0  0
  2  1  1  0
  3  2  2  0
  4  2  1  0
  5  4  1  0
  6  5  1  0
  7  6  1  0
  8 10  1  0
  8  7  1  0
  8  9  1  1
 10 11  2  0
 13 12  1  0
 14 13  2  0
 15 13  1  0
 16 15  1  0
 17 16  1  0
 18 17  1  0
 19 18  1  6
 19 21  1  0
 20 10  1  0
 20 19  1  0
 21 26  1  0
 21 22  2  0
 23 24  1  0
 25 24  1  6
 25 27  1  0
 26 25  1  0
 27 28  2  0
 27 29  1  0
M  END
$$$$
