RRS.pdb
     RDKit          3D

 29 28  0  0  1  0  0  0  0  0999 V2000
    7.6385  -27.0496   20.6825 N   0  0  0  0  0  0  0  0  0  0  0  0
    6.4571  -26.6942   19.9591 C   0  0  0  0  0  0  0  0  0  0  0  0
    6.1120  -27.3006   18.8984 N   0  0  0  0  0  0  0  0  0  0  0  0
    5.6369  -25.6283   20.4424 N   0  0  0  0  0  0  0  0  0  0  0  0
    6.1447  -24.3788   20.9248 C   0  0  0  0  0  0  0  0  0  0  0  0
    7.4346  -23.9793   20.2388 C   0  0  0  0  0  0  0  0  0  0  0  0
    7.9586  -22.6671   20.7437 C   0  0  0  0  0  0  0  0  0  0  0  0
    8.0472  -21.5991   19.6638 C   0  0  2  0  0  0  0  0  0  0  0  0
    8.7212  -22.1319   18.5101 N   0  0  0  0  0  0  0  0  0  0  0  0
    8.7608  -20.3976   20.1929 C   0  0  0  0  0  0  0  0  0  0  0  0
    9.9923  -20.3676   20.2873 O   0  0  0  0  0  0  0  0  0  0  0  0
    5.2958  -26.9601   18.3471 N   0  0  0  0  0  0  0  0  0  0  0  0
    8.1119  -11.5366   20.8490 C   0  0  0  0  0  0  0  0  0  0  0  0
    8.0577  -12.4920   19.8025 N   0  0  0  0  0  0  0  0  0  0  0  0
    8.4112  -12.1998   18.5842 N   0  0  0  0  0  0  0  0  0  0  0  0
    7.6154  -13.8139   20.0303 C   0  0  0  0  0  0  0  0  0  0  0  0
    7.4298  -14.3809   21.3239 C   0  0  0  0  0  0  0  0  0  0  0  0
    8.3308  -15.5868   21.5660 C   0  0  0  0  0  0  0  0  0  0  0  0
    7.7316  -16.8223   20.9301 C   0  0  1  0  0  0  0  0  0  0  0  0
    8.6295  -18.0318   21.0868 N   0  0  0  0  0  0  0  0  0  0  0  0
    8.0346  -19.2320   20.6076 C   0  0  0  0  0  0  0  0  0  0  0  0
    8.9798  -18.1509   22.5254 O   0  0  0  0  0  0  0  0  0  0  0  0
    8.1279  -18.7558   23.2470 O   0  0  0  0  0  0  0  0  0  0  0  0
    8.2847  -12.9695   17.8661 C   0  0  0  0  0  0  0  0  0  0  0  0
   12.1702  -20.4213   24.3723 C   0  0  2  0  0  0  0  0  0  0  0  0
   11.3142  -19.7844   23.4642 N   0  0  0  0  0  0  0  0  0  0  0  0
   11.1408  -18.3587   23.8823 C   0  0  0  0  0  0  0  0  0  0  0  0
   10.1456  -17.6587   23.1171 O   0  0  0  0  0  0  0  0  0  0  0  0
   12.4088  -17.6682   24.1216 O   0  0  0  0  0  0  0  0  0  0  0  0
  2  1  1  0
  3  2  2  0
  4  2  1  0
  5  4  1  0
  6  5  1  0
  7  6  1  0
  8 10  1  0
  8  7  1  0
  8  9  1  6
 10 11  2  0
 13 12  1  0
 14 13  2  0
 15 13  1  0
 16 15  1  0
 17 16  1  0
 18 17  1  0
 19 18  1  6
 19 21  1  0
 20 10  1  0
 20 19  1  0
 21 26  1  0
 21 22  2  0
 23 24  1  0
 25 24  1  6
 25 27  1  0
 26 25  1  0
 27 28  2  0
 27 29  1  0
M  END
$$$$
