CRF.pdb
     RDKit          3D

 29 29  0  0  1  0  0  0  0  0999 V2000
   28.7339  -19.4558  -15.3297 N   0  0  0  0  0  0  0  0  0  0  0  0
   28.7910  -20.3044  -14.1537 C   0  0  1  0  0  0  0  0  0  0  0  0
   30.0877  -20.1331  -13.3993 C   0  0  0  0  0  0  0  0  0  0  0  0
   30.2613  -21.2718  -12.0274 S   0  0  0  0  0  0  0  0  0  0  0  0
   27.6044  -20.0287  -13.3314 C   0  0  0  0  0  0  0  0  0  0  0  0
   27.3129  -18.8089  -13.1272 O   0  0  0  0  0  0  0  0  0  0  0  0
   20.1422  -23.0624  -14.1141 N   0  0  0  0  0  0  0  0  0  0  0  0
   21.4789  -23.5133  -13.9581 C   0  0  0  0  0  0  0  0  0  0  0  0
   21.8858  -24.5997  -14.5137 N   0  0  0  0  0  0  0  0  0  0  0  0
   22.4185  -22.7570  -13.1665 N   0  0  0  0  0  0  0  0  0  0  0  0
   21.9933  -21.7374  -12.2530 C   0  0  0  0  0  0  0  0  0  0  0  0
   23.1920  -21.0133  -11.6846 C   0  0  0  0  0  0  0  0  0  0  0  0
   24.4016  -21.4023  -12.4632 C   0  0  0  0  0  0  0  0  0  0  0  0
   25.6748  -20.7913  -11.9234 C   0  0  2  0  0  0  0  0  0  0  0  0
   26.8040  -21.0549  -12.7789 N   0  0  0  0  0  0  0  0  0  0  0  0
   25.9326  -21.1899  -10.5173 C   0  0  0  0  0  0  0  0  0  0  0  0
   26.1416  -22.3788  -10.1846 O   0  0  0  0  0  0  0  0  0  0  0  0
   22.8494  -24.9220  -14.3452 N   0  0  0  0  0  0  0  0  0  0  0  0
   25.9475  -20.2074   -9.4974 C   0  0  1  0  0  0  0  0  0  0  0  0
   26.1064  -20.5123   -8.0893 C   0  0  0  0  0  0  0  0  0  0  0  0
   26.5027  -19.2197   -7.4128 C   0  0  0  0  0  0  0  0  0  0  0  0
   27.5133  -19.3707   -6.3638 C   0  0  0  0  0  0  0  0  0  0  0  0
   27.3013  -20.1988   -5.2719 C   0  0  0  0  0  0  0  0  0  0  0  0
   28.2778  -20.3149   -4.3079 C   0  0  0  0  0  0  0  0  0  0  0  0
   29.4734  -19.6304   -4.3886 C   0  0  0  0  0  0  0  0  0  0  0  0
   29.6546  -18.8138   -5.4877 C   0  0  0  0  0  0  0  0  0  0  0  0
   28.7071  -18.6682   -6.4731 C   0  0  0  0  0  0  0  0  0  0  0  0
   24.9295  -21.1606   -7.5137 O   0  0  0  0  0  0  0  0  0  0  0  0
   23.7161  -21.1153   -8.1832 O   0  0  0  0  0  0  0  0  0  0  0  0
  2  3  1  0
  2  1  1  6
  4  3  1  0
  5  2  1  0
  6  5  2  0
  8  7  1  0
  8 10  1  0
  9  8  2  0
 11 10  1  0
 11 12  1  0
 14 13  1  6
 13 12  1  0
 14 15  1  0
 15  5  1  0
 16 18  1  0
 16 14  1  0
 17 16  2  0
 19 18  1  0
 19 20  1  1
 20 21  1  0
 21 22  2  0
 21 26  1  0
 22 23  1  0
 23 24  2  0
 25 24  1  0
 26 25  2  0
 27 28  1  0
 27 19  1  0
 29 27  2  0
M  END
$$$$
