CRF.pdb
     RDKit          3D

 29 29  0  0  1  0  0  0  0  0999 V2000
   26.4778  -18.1889  -15.8459 N   0  0  0  0  0  0  0  0  0  0  0  0
   27.3662  -18.9996  -15.0336 C   0  0  1  0  0  0  0  0  0  0  0  0
   28.6811  -18.3045  -14.7735 C   0  0  0  0  0  0  0  0  0  0  0  0
   28.7588  -16.6574  -15.4731 S   0  0  0  0  0  0  0  0  0  0  0  0
   26.6538  -19.3662  -13.8014 C   0  0  0  0  0  0  0  0  0  0  0  0
   25.8705  -18.4971  -13.3057 O   0  0  0  0  0  0  0  0  0  0  0  0
   21.1565  -22.7100  -13.2602 N   0  0  0  0  0  0  0  0  0  0  0  0
   21.6456  -23.3737  -14.4156 C   0  0  0  0  0  0  0  0  0  0  0  0
   20.9386  -23.4565  -15.4870 N   0  0  0  0  0  0  0  0  0  0  0  0
   22.9571  -23.9748  -14.4139 N   0  0  0  0  0  0  0  0  0  0  0  0
   23.8503  -23.8440  -13.3004 C   0  0  0  0  0  0  0  0  0  0  0  0
   24.4676  -22.4644  -13.2860 C   0  0  0  0  0  0  0  0  0  0  0  0
   25.4496  -22.3894  -12.1677 C   0  0  0  0  0  0  0  0  0  0  0  0
   26.0616  -21.0161  -12.0085 C   0  0  2  0  0  0  0  0  0  0  0  0
   26.8133  -20.6228  -13.1732 N   0  0  0  0  0  0  0  0  0  0  0  0
   26.8591  -20.9016  -10.7622 C   0  0  0  0  0  0  0  0  0  0  0  0
   28.0503  -21.2811  -10.6908 O   0  0  0  0  0  0  0  0  0  0  0  0
   21.3543  -23.8680  -16.3348 N   0  0  0  0  0  0  0  0  0  0  0  0
   26.2732  -20.3462   -9.5986 C   0  0  2  0  0  0  0  0  0  0  0  0
   26.7168  -20.6484   -8.2522 C   0  0  0  0  0  0  0  0  0  0  0  0
   27.5855  -19.4901   -7.8170 C   0  0  0  0  0  0  0  0  0  0  0  0
   28.0011  -19.5393   -6.4136 C   0  0  0  0  0  0  0  0  0  0  0  0
   28.9824  -20.4190   -5.9825 C   0  0  0  0  0  0  0  0  0  0  0  0
   29.3463  -20.4327   -4.6544 C   0  0  0  0  0  0  0  0  0  0  0  0
   28.7643  -19.5941   -3.7256 C   0  0  0  0  0  0  0  0  0  0  0  0
   27.7904  -18.7297   -4.1859 C   0  0  0  0  0  0  0  0  0  0  0  0
   27.3965  -18.6824   -5.5021 C   0  0  0  0  0  0  0  0  0  0  0  0
   25.6105  -20.9493   -7.3453 O   0  0  0  0  0  0  0  0  0  0  0  0
   25.8694  -21.4459   -6.0768 O   0  0  0  0  0  0  0  0  0  0  0  0
  2  3  1  0
  2  1  1  6
  4  3  1  0
  5  2  1  0
  6  5  2  0
  8  7  1  0
  8 10  1  0
  9  8  2  0
 11 10  1  0
 11 12  1  0
 14 13  1  6
 13 12  1  0
 14 15  1  0
 15  5  1  0
 16 18  1  0
 16 14  1  0
 17 16  2  0
 19 18  1  0
 19 20  1  6
 20 21  1  0
 21 22  2  0
 21 26  1  0
 22 23  1  0
 23 24  2  0
 25 24  1  0
 26 25  2  0
 27 28  1  0
 27 19  1  0
 29 27  2  0
M  END
$$$$
