CRF.pdb
     RDKit          3D

 29 29  0  0  1  0  0  0  0  0999 V2000
   26.6479  -17.8062  -15.5064 N   0  0  0  0  0  0  0  0  0  0  0  0
   27.2946  -18.7696  -14.6347 C   0  0  1  0  0  0  0  0  0  0  0  0
   28.7021  -18.3521  -14.2815 C   0  0  0  0  0  0  0  0  0  0  0  0
   29.6779  -17.8835  -15.7087 S   0  0  0  0  0  0  0  0  0  0  0  0
   26.4390  -18.9682  -13.4562 C   0  0  0  0  0  0  0  0  0  0  0  0
   25.9075  -17.9328  -12.9462 O   0  0  0  0  0  0  0  0  0  0  0  0
   24.0464  -23.5096  -15.6581 N   0  0  0  0  0  0  0  0  0  0  0  0
   23.8207  -24.2315  -14.4571 C   0  0  0  0  0  0  0  0  0  0  0  0
   24.3027  -25.4120  -14.2875 N   0  0  0  0  0  0  0  0  0  0  0  0
   23.0395  -23.6527  -13.3913 N   0  0  0  0  0  0  0  0  0  0  0  0
   22.5586  -22.3035  -13.4494 C   0  0  0  0  0  0  0  0  0  0  0  0
   23.7115  -21.3333  -13.3320 C   0  0  0  0  0  0  0  0  0  0  0  0
   24.2666  -21.4120  -11.9512 C   0  0  0  0  0  0  0  0  0  0  0  0
   25.3984  -20.4385  -11.7119 C   0  0  2  0  0  0  0  0  0  0  0  0
   26.1999  -20.2429  -12.8933 N   0  0  0  0  0  0  0  0  0  0  0  0
   26.2192  -20.8155  -10.5345 C   0  0  0  0  0  0  0  0  0  0  0  0
   27.0167  -21.7807  -10.5539 O   0  0  0  0  0  0  0  0  0  0  0  0
   24.0849  -25.9261  -13.4221 N   0  0  0  0  0  0  0  0  0  0  0  0
   26.1139  -20.0713   -9.3341 C   0  0  2  0  0  0  0  0  0  0  0  0
   26.6775  -20.5008   -8.0696 C   0  0  0  0  0  0  0  0  0  0  0  0
   27.6196  -19.4048   -7.6260 C   0  0  0  0  0  0  0  0  0  0  0  0
   28.1774  -19.5923   -6.2850 C   0  0  0  0  0  0  0  0  0  0  0  0
   29.1944  -20.5046   -6.0480 C   0  0  0  0  0  0  0  0  0  0  0  0
   29.6931  -20.6495   -4.7726 C   0  0  0  0  0  0  0  0  0  0  0  0
   29.2132  -19.9125   -3.7090 C   0  0  0  0  0  0  0  0  0  0  0  0
   28.2004  -19.0124   -3.9771 C   0  0  0  0  0  0  0  0  0  0  0  0
   27.6733  -18.8355   -5.2344 C   0  0  0  0  0  0  0  0  0  0  0  0
   25.6565  -20.8561   -7.0857 O   0  0  0  0  0  0  0  0  0  0  0  0
   24.3199  -20.5976   -7.3493 O   0  0  0  0  0  0  0  0  0  0  0  0
  2  3  1  0
  2  1  1  6
  4  3  1  0
  5  2  1  0
  6  5  2  0
  8  7  1  0
  8 10  1  0
  9  8  2  0
 11 10  1  0
 11 12  1  0
 14 13  1  6
 13 12  1  0
 14 15  1  0
 15  5  1  0
 16 18  1  0
 16 14  1  0
 17 16  2  0
 19 18  1  0
 19 20  1  1
 20 21  1  0
 21 22  2  0
 21 26  1  0
 22 23  1  0
 23 24  2  0
 25 24  1  0
 26 25  2  0
 27 28  1  0
 27 19  1  0
 29 27  2  0
M  END
$$$$
