CRF.pdb
     RDKit          3D

 29 29  0  0  1  0  0  0  0  0999 V2000
   26.4292  -17.6565  -17.0544 N   0  0  0  0  0  0  0  0  0  0  0  0
   27.2367  -18.4698  -16.1641 C   0  0  1  0  0  0  0  0  0  0  0  0
   28.2847  -17.6504  -15.4497 C   0  0  0  0  0  0  0  0  0  0  0  0
   29.6108  -17.1089  -16.5252 S   0  0  0  0  0  0  0  0  0  0  0  0
   26.3341  -19.1789  -15.2460 C   0  0  0  0  0  0  0  0  0  0  0  0
   25.4030  -18.4997  -14.7108 O   0  0  0  0  0  0  0  0  0  0  0  0
   21.2073  -25.5179  -14.0667 N   0  0  0  0  0  0  0  0  0  0  0  0
   21.8056  -24.6326  -15.0010 C   0  0  0  0  0  0  0  0  0  0  0  0
   21.0967  -23.9954  -15.8647 N   0  0  0  0  0  0  0  0  0  0  0  0
   23.2334  -24.4261  -15.0025 N   0  0  0  0  0  0  0  0  0  0  0  0
   24.0322  -24.6392  -13.8314 C   0  0  0  0  0  0  0  0  0  0  0  0
   24.5122  -23.3166  -13.2796 C   0  0  0  0  0  0  0  0  0  0  0  0
   25.2299  -22.5788  -14.3573 C   0  0  0  0  0  0  0  0  0  0  0  0
   25.7128  -21.2144  -13.9201 C   0  0  2  0  0  0  0  0  0  0  0  0
   26.4717  -20.5551  -14.9525 N   0  0  0  0  0  0  0  0  0  0  0  0
   26.4485  -21.2689  -12.6325 C   0  0  0  0  0  0  0  0  0  0  0  0
   27.6049  -21.7403  -12.5400 O   0  0  0  0  0  0  0  0  0  0  0  0
   21.5663  -23.4001  -16.5617 N   0  0  0  0  0  0  0  0  0  0  0  0
   25.8411  -20.7758  -11.4519 C   0  0  2  0  0  0  0  0  0  0  0  0
   26.2254  -21.1891  -10.1168 C   0  0  0  0  0  0  0  0  0  0  0  0
   27.4833  -20.4227   -9.7764 C   0  0  0  0  0  0  0  0  0  0  0  0
   27.6148  -20.0740   -8.3601 C   0  0  0  0  0  0  0  0  0  0  0  0
   28.4668  -20.7756   -7.5207 C   0  0  0  0  0  0  0  0  0  0  0  0
   28.5633  -20.4148   -6.1952 C   0  0  0  0  0  0  0  0  0  0  0  0
   27.8356  -19.3691   -5.6647 C   0  0  0  0  0  0  0  0  0  0  0  0
   26.9961  -18.6899   -6.5259 C   0  0  0  0  0  0  0  0  0  0  0  0
   26.8688  -19.0160   -7.8553 C   0  0  0  0  0  0  0  0  0  0  0  0
   25.1442  -21.0403   -9.1444 O   0  0  0  0  0  0  0  0  0  0  0  0
   25.2163  -21.6917   -7.9225 O   0  0  0  0  0  0  0  0  0  0  0  0
  2  3  1  0
  2  1  1  1
  4  3  1  0
  5  2  1  0
  6  5  2  0
  8  7  1  0
  8 10  1  0
  9  8  2  0
 11 10  1  0
 11 12  1  0
 14 13  1  6
 13 12  1  0
 14 15  1  0
 15  5  1  0
 16 18  1  0
 16 14  1  0
 17 16  2  0
 19 18  1  0
 19 20  1  6
 20 21  1  0
 21 22  2  0
 21 26  1  0
 22 23  1  0
 23 24  2  0
 25 24  1  0
 26 25  2  0
 27 28  1  0
 27 19  1  0
 29 27  2  0
M  END
$$$$
