CRF.pdb
     RDKit          3D

 29 29  0  0  1  0  0  0  0  0999 V2000
   27.6526  -20.7473  -16.6301 N   0  0  0  0  0  0  0  0  0  0  0  0
   27.6832  -21.5162  -15.3997 C   0  0  1  0  0  0  0  0  0  0  0  0
   29.0909  -21.9003  -15.0116 C   0  0  0  0  0  0  0  0  0  0  0  0
   29.8051  -23.1423  -16.0868 S   0  0  0  0  0  0  0  0  0  0  0  0
   26.9882  -20.7446  -14.3595 C   0  0  0  0  0  0  0  0  0  0  0  0
   27.0870  -19.4791  -14.4150 O   0  0  0  0  0  0  0  0  0  0  0  0
   23.2944  -24.2866  -13.8215 N   0  0  0  0  0  0  0  0  0  0  0  0
   22.0378  -24.3744  -13.1674 C   0  0  0  0  0  0  0  0  0  0  0  0
   21.4746  -25.5110  -12.9540 N   0  0  0  0  0  0  0  0  0  0  0  0
   21.3590  -23.1812  -12.7238 N   0  0  0  0  0  0  0  0  0  0  0  0
   21.9663  -21.8857  -12.8112 C   0  0  0  0  0  0  0  0  0  0  0  0
   23.4364  -21.9747  -12.4717 C   0  0  0  0  0  0  0  0  0  0  0  0
   24.0336  -20.6125  -12.5630 C   0  0  0  0  0  0  0  0  0  0  0  0
   25.5269  -20.6039  -12.3267 C   0  0  2  0  0  0  0  0  0  0  0  0
   26.2358  -21.3564  -13.3306 N   0  0  0  0  0  0  0  0  0  0  0  0
   25.8768  -21.0372  -10.9511 C   0  0  0  0  0  0  0  0  0  0  0  0
   25.6191  -22.1855  -10.5235 O   0  0  0  0  0  0  0  0  0  0  0  0
   20.5698  -25.5410  -12.4630 N   0  0  0  0  0  0  0  0  0  0  0  0
   26.5262  -20.1365  -10.0719 C   0  0  2  0  0  0  0  0  0  0  0  0
   26.8582  -20.4535   -8.6971 C   0  0  0  0  0  0  0  0  0  0  0  0
   27.8750  -19.4262   -8.2539 C   0  0  0  0  0  0  0  0  0  0  0  0
   28.3234  -19.5774   -6.8680 C   0  0  0  0  0  0  0  0  0  0  0  0
   29.2543  -20.5417   -6.5124 C   0  0  0  0  0  0  0  0  0  0  0  0
   29.6516  -20.6501   -5.1983 C   0  0  0  0  0  0  0  0  0  0  0  0
   29.1523  -19.8257   -4.2106 C   0  0  0  0  0  0  0  0  0  0  0  0
   28.2270  -18.8756   -4.5962 C   0  0  0  0  0  0  0  0  0  0  0  0
   27.8024  -18.7323   -5.8959 C   0  0  0  0  0  0  0  0  0  0  0  0
   25.6800  -20.5489   -7.8372 O   0  0  0  0  0  0  0  0  0  0  0  0
   25.6742  -21.4269   -6.7640 O   0  0  0  0  0  0  0  0  0  0  0  0
  2  3  1  0
  2  1  1  6
  4  3  1  0
  5  2  1  0
  6  5  2  0
  8  7  1  0
  8 10  1  0
  9  8  2  0
 11 10  1  0
 11 12  1  0
 14 13  1  6
 13 12  1  0
 14 15  1  0
 15  5  1  0
 16 18  1  0
 16 14  1  0
 17 16  2  0
 19 18  1  0
 19 20  1  6
 20 21  1  0
 21 22  2  0
 21 26  1  0
 22 23  1  0
 23 24  2  0
 25 24  1  0
 26 25  2  0
 27 28  1  0
 27 19  1  0
 29 27  2  0
M  END
$$$$
