CRF.pdb
     RDKit          3D

 29 29  0  0  1  0  0  0  0  0999 V2000
   26.4253  -17.8699  -16.4423 N   0  0  0  0  0  0  0  0  0  0  0  0
   27.3047  -18.4808  -15.4626 C   0  0  1  0  0  0  0  0  0  0  0  0
   28.2716  -17.4813  -14.8744 C   0  0  0  0  0  0  0  0  0  0  0  0
   27.4608  -16.1563  -13.9823 S   0  0  0  0  0  0  0  0  0  0  0  0
   26.4716  -19.1430  -14.4487 C   0  0  0  0  0  0  0  0  0  0  0  0
   25.3990  -18.5539  -14.1069 O   0  0  0  0  0  0  0  0  0  0  0  0
   21.2934  -24.6841  -13.1172 N   0  0  0  0  0  0  0  0  0  0  0  0
   22.0595  -24.2867  -14.2441 C   0  0  0  0  0  0  0  0  0  0  0  0
   21.4947  -23.9472  -15.3488 N   0  0  0  0  0  0  0  0  0  0  0  0
   23.5001  -24.2545  -14.1749 N   0  0  0  0  0  0  0  0  0  0  0  0
   24.2037  -24.4009  -12.9345 C   0  0  0  0  0  0  0  0  0  0  0  0
   24.5887  -23.0446  -12.3899 C   0  0  0  0  0  0  0  0  0  0  0  0
   25.5266  -22.3917  -13.3463 C   0  0  0  0  0  0  0  0  0  0  0  0
   26.0063  -21.0379  -12.8740 C   0  0  2  0  0  0  0  0  0  0  0  0
   26.8231  -20.3806  -13.8625 N   0  0  0  0  0  0  0  0  0  0  0  0
   26.6782  -21.1137  -11.5530 C   0  0  0  0  0  0  0  0  0  0  0  0
   27.7453  -21.7450  -11.3782 O   0  0  0  0  0  0  0  0  0  0  0  0
   22.0801  -23.6843  -16.1543 N   0  0  0  0  0  0  0  0  0  0  0  0
   26.1105  -20.4560  -10.4344 C   0  0  1  0  0  0  0  0  0  0  0  0
   26.4685  -20.7507   -9.0612 C   0  0  0  0  0  0  0  0  0  0  0  0
   27.4208  -19.6613   -8.6232 C   0  0  0  0  0  0  0  0  0  0  0  0
   27.8282  -19.7423   -7.2189 C   0  0  0  0  0  0  0  0  0  0  0  0
   27.3528  -18.8426   -6.2769 C   0  0  0  0  0  0  0  0  0  0  0  0
   27.7587  -18.9541   -4.9658 C   0  0  0  0  0  0  0  0  0  0  0  0
   28.6309  -19.9391   -4.5491 C   0  0  0  0  0  0  0  0  0  0  0  0
   29.0867  -20.8197   -5.5106 C   0  0  0  0  0  0  0  0  0  0  0  0
   28.7078  -20.7451   -6.8300 C   0  0  0  0  0  0  0  0  0  0  0  0
   25.3028  -20.9195   -8.1955 O   0  0  0  0  0  0  0  0  0  0  0  0
   25.4188  -21.6218   -7.0055 O   0  0  0  0  0  0  0  0  0  0  0  0
  2  3  1  0
  2  1  1  6
  4  3  1  0
  5  2  1  0
  6  5  2  0
  8  7  1  0
  8 10  1  0
  9  8  2  0
 11 10  1  0
 11 12  1  0
 14 13  1  6
 13 12  1  0
 14 15  1  0
 15  5  1  0
 16 18  1  0
 16 14  1  0
 17 16  2  0
 19 18  1  0
 19 20  1  1
 20 21  1  0
 21 22  2  0
 21 26  1  0
 22 23  1  0
 23 24  2  0
 25 24  1  0
 26 25  2  0
 27 28  1  0
 27 19  1  0
 29 27  2  0
M  END
$$$$
