CRF.pdb
     RDKit          3D

 29 29  0  0  1  0  0  0  0  0999 V2000
   20.0597  -30.5735  -10.5146 N   0  0  0  0  0  0  0  0  0  0  0  0
   20.6331  -29.3083  -10.0944 C   0  0  1  0  0  0  0  0  0  0  0  0
   21.7367  -28.8560  -11.0203 C   0  0  0  0  0  0  0  0  0  0  0  0
   23.2764  -29.7351  -10.7647 S   0  0  0  0  0  0  0  0  0  0  0  0
   19.5438  -28.3289   -9.9737 C   0  0  0  0  0  0  0  0  0  0  0  0
   18.5854  -28.4248  -10.8024 O   0  0  0  0  0  0  0  0  0  0  0  0
   15.6560  -25.3617   -2.9930 N   0  0  0  0  0  0  0  0  0  0  0  0
   15.8043  -26.5126   -3.8103 C   0  0  0  0  0  0  0  0  0  0  0  0
   15.5188  -27.6862   -3.3682 N   0  0  0  0  0  0  0  0  0  0  0  0
   16.2824  -26.3905   -5.1660 N   0  0  0  0  0  0  0  0  0  0  0  0
   16.6467  -25.1244   -5.7311 C   0  0  0  0  0  0  0  0  0  0  0  0
   16.9129  -25.2711   -7.2116 C   0  0  0  0  0  0  0  0  0  0  0  0
   18.1670  -26.0540   -7.3986 C   0  0  0  0  0  0  0  0  0  0  0  0
   18.4574  -26.3690   -8.8486 C   0  0  2  0  0  0  0  0  0  0  0  0
   19.5360  -27.3142   -8.9892 N   0  0  0  0  0  0  0  0  0  0  0  0
   18.6801  -25.1416   -9.6525 C   0  0  0  0  0  0  0  0  0  0  0  0
   19.6950  -24.4220   -9.5111 O   0  0  0  0  0  0  0  0  0  0  0  0
   15.6796  -28.5052   -3.9716 N   0  0  0  0  0  0  0  0  0  0  0  0
   17.7238  -24.7500  -10.6211 C   0  0  1  0  0  0  0  0  0  0  0  0
   17.9175  -23.6481  -11.5426 C   0  0  0  0  0  0  0  0  0  0  0  0
   17.6236  -24.1878  -12.9239 C   0  0  0  0  0  0  0  0  0  0  0  0
   18.7013  -24.9947  -13.5002 C   0  0  0  0  0  0  0  0  0  0  0  0
   18.6594  -26.3804  -13.4714 C   0  0  0  0  0  0  0  0  0  0  0  0
   19.6921  -27.1028  -14.0263 C   0  0  0  0  0  0  0  0  0  0  0  0
   20.7799  -26.4925  -14.6170 C   0  0  0  0  0  0  0  0  0  0  0  0
   20.7925  -25.1114  -14.6300 C   0  0  0  0  0  0  0  0  0  0  0  0
   19.7834  -24.3511  -14.0880 C   0  0  0  0  0  0  0  0  0  0  0  0
   17.1437  -22.4626  -11.1788 O   0  0  0  0  0  0  0  0  0  0  0  0
   17.5463  -21.2103  -11.6175 O   0  0  0  0  0  0  0  0  0  0  0  0
  2  3  1  0
  2  1  1  6
  4  3  1  0
  5  2  1  0
  6  5  2  0
  8  7  1  0
  8 10  1  0
  9  8  2  0
 11 10  1  0
 11 12  1  0
 14 13  1  1
 13 12  1  0
 14 15  1  0
 15  5  1  0
 16 18  1  0
 16 14  1  0
 17 16  2  0
 19 18  1  0
 19 20  1  1
 20 21  1  0
 21 22  2  0
 21 26  1  0
 22 23  1  0
 23 24  2  0
 25 24  1  0
 26 25  2  0
 27 28  1  0
 27 19  1  0
 29 27  2  0
M  END
$$$$
