CRF.pdb
     RDKit          3D

 29 29  0  0  1  0  0  0  0  0999 V2000
   24.1054  -18.2147  -15.8636 N   0  0  0  0  0  0  0  0  0  0  0  0
   25.3186  -18.3787  -15.0843 C   0  0  1  0  0  0  0  0  0  0  0  0
   26.0012  -17.0577  -14.8218 C   0  0  0  0  0  0  0  0  0  0  0  0
   27.4922  -17.2165  -13.8418 S   0  0  0  0  0  0  0  0  0  0  0  0
   24.9780  -19.1066  -13.8536 C   0  0  0  0  0  0  0  0  0  0  0  0
   23.9266  -18.7438  -13.2393 O   0  0  0  0  0  0  0  0  0  0  0  0
   22.8094  -24.9155  -15.3206 N   0  0  0  0  0  0  0  0  0  0  0  0
   24.0598  -24.8763  -15.9909 C   0  0  0  0  0  0  0  0  0  0  0  0
   24.1399  -25.0414  -17.2641 N   0  0  0  0  0  0  0  0  0  0  0  0
   25.2786  -24.6486  -15.2533 N   0  0  0  0  0  0  0  0  0  0  0  0
   25.2690  -24.2571  -13.8743 C   0  0  0  0  0  0  0  0  0  0  0  0
   25.5413  -22.7756  -13.7507 C   0  0  0  0  0  0  0  0  0  0  0  0
   25.1709  -22.3324  -12.3770 C   0  0  0  0  0  0  0  0  0  0  0  0
   25.4516  -20.8670  -12.1320 C   0  0  2  0  0  0  0  0  0  0  0  0
   25.7666  -20.1674  -13.3518 N   0  0  0  0  0  0  0  0  0  0  0  0
   26.4856  -20.6639  -11.0871 C   0  0  0  0  0  0  0  0  0  0  0  0
   27.6777  -21.0127  -11.2461 O   0  0  0  0  0  0  0  0  0  0  0  0
   25.0668  -25.1353  -17.7030 N   0  0  0  0  0  0  0  0  0  0  0  0
   26.1350  -20.0556   -9.8571 C   0  0  1  0  0  0  0  0  0  0  0  0
   26.6846  -20.4554   -8.5768 C   0  0  0  0  0  0  0  0  0  0  0  0
   27.4153  -19.2506   -8.0290 C   0  0  0  0  0  0  0  0  0  0  0  0
   27.9853  -19.4441   -6.6940 C   0  0  0  0  0  0  0  0  0  0  0  0
   27.2192  -19.2730   -5.5509 C   0  0  0  0  0  0  0  0  0  0  0  0
   27.7925  -19.4666   -4.3139 C   0  0  0  0  0  0  0  0  0  0  0  0
   29.1162  -19.8286   -4.1673 C   0  0  0  0  0  0  0  0  0  0  0  0
   29.8528  -19.9913   -5.3242 C   0  0  0  0  0  0  0  0  0  0  0  0
   29.3212  -19.8085   -6.5788 C   0  0  0  0  0  0  0  0  0  0  0  0
   25.6766  -21.0128   -7.6768 O   0  0  0  0  0  0  0  0  0  0  0  0
   26.0615  -21.8370   -6.6302 O   0  0  0  0  0  0  0  0  0  0  0  0
  2  3  1  0
  2  1  1  1
  4  3  1  0
  5  2  1  0
  6  5  2  0
  8  7  1  0
  8 10  1  0
  9  8  2  0
 11 10  1  0
 11 12  1  0
 14 13  1  6
 13 12  1  0
 14 15  1  0
 15  5  1  0
 16 18  1  0
 16 14  1  0
 17 16  2  0
 19 18  1  0
 19 20  1  1
 20 21  1  0
 21 22  2  0
 21 26  1  0
 22 23  1  0
 23 24  2  0
 25 24  1  0
 26 25  2  0
 27 28  1  0
 27 19  1  0
 29 27  2  0
M  END
$$$$
