CRF.pdb
     RDKit          3D

 29 29  0  0  1  0  0  0  0  0999 V2000
   28.5010  -19.8957  -15.4421 N   0  0  0  0  0  0  0  0  0  0  0  0
   28.3516  -18.6423  -14.7260 C   0  0  1  0  0  0  0  0  0  0  0  0
   28.0535  -17.4935  -15.6594 C   0  0  0  0  0  0  0  0  0  0  0  0
   28.7742  -17.7011  -17.2861 S   0  0  0  0  0  0  0  0  0  0  0  0
   27.3246  -18.8256  -13.6905 C   0  0  0  0  0  0  0  0  0  0  0  0
   27.0026  -17.8034  -13.0079 O   0  0  0  0  0  0  0  0  0  0  0  0
   20.0071  -21.1606  -11.3215 N   0  0  0  0  0  0  0  0  0  0  0  0
   20.3757  -20.9991  -12.6826 C   0  0  0  0  0  0  0  0  0  0  0  0
   19.6270  -20.3520  -13.5044 N   0  0  0  0  0  0  0  0  0  0  0  0
   21.6081  -21.5617  -13.1786 N   0  0  0  0  0  0  0  0  0  0  0  0
   22.5003  -22.2988  -12.3327 C   0  0  0  0  0  0  0  0  0  0  0  0
   23.5750  -21.3867  -11.7874 C   0  0  0  0  0  0  0  0  0  0  0  0
   24.5691  -21.1184  -12.8646 C   0  0  0  0  0  0  0  0  0  0  0  0
   25.7295  -20.2674  -12.4006 C   0  0  2  0  0  0  0  0  0  0  0  0
   26.7053  -20.0722  -13.4428 N   0  0  0  0  0  0  0  0  0  0  0  0
   26.3400  -20.7889  -11.1525 C   0  0  0  0  0  0  0  0  0  0  0  0
   26.9937  -21.8563  -11.1205 O   0  0  0  0  0  0  0  0  0  0  0  0
   19.9091  -20.2778  -14.4921 N   0  0  0  0  0  0  0  0  0  0  0  0
   26.1911  -20.0703   -9.9411 C   0  0  2  0  0  0  0  0  0  0  0  0
   26.6272  -20.5687   -8.6517 C   0  0  0  0  0  0  0  0  0  0  0  0
   27.5794  -19.5360   -8.0928 C   0  0  0  0  0  0  0  0  0  0  0  0
   28.0305  -19.8059   -6.7260 C   0  0  0  0  0  0  0  0  0  0  0  0
   28.9082  -20.8428   -6.4477 C   0  0  0  0  0  0  0  0  0  0  0  0
   29.3100  -21.0623   -5.1490 C   0  0  0  0  0  0  0  0  0  0  0  0
   28.8670  -20.2802   -4.1018 C   0  0  0  0  0  0  0  0  0  0  0  0
   27.9938  -19.2557   -4.4110 C   0  0  0  0  0  0  0  0  0  0  0  0
   27.5668  -19.0010   -5.6927 C   0  0  0  0  0  0  0  0  0  0  0  0
   25.5125  -20.9052   -7.7679 O   0  0  0  0  0  0  0  0  0  0  0  0
   25.6913  -21.8255   -6.7463 O   0  0  0  0  0  0  0  0  0  0  0  0
  2  3  1  0
  2  1  1  6
  4  3  1  0
  5  2  1  0
  6  5  2  0
  8  7  1  0
  8 10  1  0
  9  8  2  0
 11 10  1  0
 11 12  1  0
 14 13  1  6
 13 12  1  0
 14 15  1  0
 15  5  1  0
 16 18  1  0
 16 14  1  0
 17 16  2  0
 19 18  1  0
 19 20  1  6
 20 21  1  0
 21 22  2  0
 21 26  1  0
 22 23  1  0
 23 24  2  0
 25 24  1  0
 26 25  2  0
 27 28  1  0
 27 19  1  0
 29 27  2  0
M  END
$$$$
