RFQ.pdb
     RDKit          3D

 32 32  0  0  1  0  0  0  0  0999 V2000
   28.5763  -21.8287  -16.1488 N   0  0  0  0  0  0  0  0  0  0  0  0
   27.5989  -22.3438  -17.0359 C   0  0  0  0  0  0  0  0  0  0  0  0
   27.7433  -23.5684  -17.4413 N   0  0  0  0  0  0  0  0  0  0  0  0
   26.5119  -21.5420  -17.4561 N   0  0  0  0  0  0  0  0  0  0  0  0
   26.0769  -20.4314  -16.6470 C   0  0  0  0  0  0  0  0  0  0  0  0
   26.0983  -20.7893  -15.1783 C   0  0  0  0  0  0  0  0  0  0  0  0
   24.7570  -20.5951  -14.5772 C   0  0  0  0  0  0  0  0  0  0  0  0
   24.2589  -21.7080  -13.7272 C   0  0  2  0  0  0  0  0  0  0  0  0
   23.9726  -22.9248  -14.3915 N   0  0  0  0  0  0  0  0  0  0  0  0
   23.0024  -21.2471  -13.0489 C   0  0  0  0  0  0  0  0  0  0  0  0
   22.9737  -20.1517  -12.4204 O   0  0  0  0  0  0  0  0  0  0  0  0
   27.1482  -24.0219  -18.1513 N   0  0  0  0  0  0  0  0  0  0  0  0
   21.8103  -22.0109  -13.0838 C   0  0  2  0  0  0  0  0  0  0  0  0
   20.5301  -21.5399  -12.6185 C   0  0  0  0  0  0  0  0  0  0  0  0
   19.9029  -20.6904  -13.7076 C   0  0  0  0  0  0  0  0  0  0  0  0
   20.1810  -19.2621  -13.4274 C   0  0  0  0  0  0  0  0  0  0  0  0
   20.8776  -18.5049  -14.3425 C   0  0  0  0  0  0  0  0  0  0  0  0
   21.1809  -17.1723  -14.1654 C   0  0  0  0  0  0  0  0  0  0  0  0
   20.7704  -16.5539  -13.0150 C   0  0  0  0  0  0  0  0  0  0  0  0
   20.0717  -17.2739  -12.0742 C   0  0  0  0  0  0  0  0  0  0  0  0
   19.7789  -18.6116  -12.2747 C   0  0  0  0  0  0  0  0  0  0  0  0
   19.6747  -22.7070  -12.2823 O   0  0  0  0  0  0  0  0  0  0  0  0
   19.5342  -23.6620  -13.1206 N   0  0  0  0  0  0  0  0  0  0  0  0
   17.2610  -25.6757   -7.0716 C   0  0  0  0  0  0  0  0  0  0  0  0
   18.5780  -25.1324   -7.2074 O   0  0  0  0  0  0  0  0  0  0  0  0
   19.3908  -25.4825   -6.3345 C   0  0  0  0  0  0  0  0  0  0  0  0
   18.8172  -24.2464   -8.3237 C   0  0  0  0  0  0  0  0  0  0  0  0
   17.7730  -23.9354   -9.3056 C   0  0  2  0  0  0  0  0  0  0  0  0
   18.0924  -23.9744  -10.7551 N   0  0  0  0  0  0  0  0  0  0  0  0
   18.9857  -22.8393  -11.0656 C   0  0  0  0  0  0  0  0  0  0  0  0
   16.8905  -23.9120  -11.5943 O   0  0  0  0  0  0  0  0  0  0  0  0
   16.2306  -22.8695  -11.7984 O   0  0  0  0  0  0  0  0  0  0  0  0
  2  1  1  0
  2  3  2  0
  4  2  1  0
  5  4  1  0
  6  5  1  0
  7  6  1  0
  8  7  1  0
  8  9  1  6
 10 11  2  0
 10  8  1  0
 12 10  1  0
 13 21  1  0
 13 12  1  0
 13 14  1  1
 15 14  1  0
 16 15  2  0
 17 16  1  0
 18 19  1  0
 18 17  2  0
 19 20  2  0
 20 15  1  0
 21 29  1  0
 22 21  2  0
 23 24  1  0
 24 25  2  0
 24 26  1  0
 26 27  1  0
 28 27  1  1
 28 30  1  0
 29 28  1  0
 30 31  2  0
 30 32  1  0
M  END
$$$$
