RFQ.pdb
     RDKit          3D

 32 32  0  0  1  0  0  0  0  0999 V2000
   27.6819  -19.7936  -17.5105 N   0  0  0  0  0  0  0  0  0  0  0  0
   28.2158  -18.5467  -17.1008 C   0  0  0  0  0  0  0  0  0  0  0  0
   28.5057  -17.6853  -18.0275 N   0  0  0  0  0  0  0  0  0  0  0  0
   28.4204  -18.2649  -15.7298 N   0  0  0  0  0  0  0  0  0  0  0  0
   27.9779  -19.1992  -14.7254 C   0  0  0  0  0  0  0  0  0  0  0  0
   26.5892  -18.8541  -14.2379 C   0  0  0  0  0  0  0  0  0  0  0  0
   26.2235  -19.6964  -13.0738 C   0  0  0  0  0  0  0  0  0  0  0  0
   27.1748  -20.7876  -12.7374 C   0  0  2  0  0  0  0  0  0  0  0  0
   27.0564  -21.9784  -13.4937 N   0  0  0  0  0  0  0  0  0  0  0  0
   26.9842  -21.1398  -11.2914 C   0  0  0  0  0  0  0  0  0  0  0  0
   26.1099  -21.9824  -10.9430 O   0  0  0  0  0  0  0  0  0  0  0  0
   28.8867  -16.7434  -17.8499 N   0  0  0  0  0  0  0  0  0  0  0  0
   27.7662  -20.5501  -10.2686 C   0  0  2  0  0  0  0  0  0  0  0  0
   27.4811  -20.6640   -8.8603 C   0  0  0  0  0  0  0  0  0  0  0  0
   28.5785  -19.9581   -8.0866 C   0  0  0  0  0  0  0  0  0  0  0  0
   28.2398  -19.9734   -6.6440 C   0  0  0  0  0  0  0  0  0  0  0  0
   28.5862  -21.0567   -5.8678 C   0  0  0  0  0  0  0  0  0  0  0  0
   28.3118  -21.1563   -4.5210 C   0  0  0  0  0  0  0  0  0  0  0  0
   27.6560  -20.1229   -3.9075 C   0  0  0  0  0  0  0  0  0  0  0  0
   27.2917  -19.0215   -4.6463 C   0  0  0  0  0  0  0  0  0  0  0  0
   27.5784  -18.9444   -5.9980 C   0  0  0  0  0  0  0  0  0  0  0  0
   26.1510  -20.0636   -8.5828 O   0  0  0  0  0  0  0  0  0  0  0  0
   25.8973  -18.8667   -8.9538 N   0  0  0  0  0  0  0  0  0  0  0  0
   22.3035  -19.6865  -11.7991 C   0  0  0  0  0  0  0  0  0  0  0  0
   21.8870  -20.8426  -11.0657 O   0  0  0  0  0  0  0  0  0  0  0  0
   21.1562  -21.6328  -11.6875 C   0  0  0  0  0  0  0  0  0  0  0  0
   22.3495  -20.9637   -9.7019 C   0  0  0  0  0  0  0  0  0  0  0  0
   23.1698  -19.9279   -9.0653 C   0  0  1  0  0  0  0  0  0  0  0  0
   23.7638  -20.1797   -7.7281 N   0  0  0  0  0  0  0  0  0  0  0  0
   25.1166  -20.7425   -7.9181 C   0  0  0  0  0  0  0  0  0  0  0  0
   22.9495  -21.0921   -6.9175 O   0  0  0  0  0  0  0  0  0  0  0  0
   21.7689  -20.8623   -6.5749 O   0  0  0  0  0  0  0  0  0  0  0  0
  2  1  1  0
  2  3  2  0
  4  2  1  0
  5  4  1  0
  6  5  1  0
  7  6  1  0
  8  7  1  0
  8  9  1  6
 10 11  2  0
 10  8  1  0
 12 10  1  0
 13 21  1  0
 13 12  1  0
 13 14  1  1
 15 14  1  0
 16 15  2  0
 17 16  1  0
 18 19  1  0
 18 17  2  0
 19 20  2  0
 20 15  1  0
 21 29  1  0
 22 21  2  0
 23 24  1  0
 24 25  2  0
 24 26  1  0
 26 27  1  0
 28 27  1  1
 28 30  1  0
 29 28  1  0
 30 31  2  0
 30 32  1  0
M  END
$$$$
