RFQ.pdb
     RDKit          3D

 32 32  0  0  1  0  0  0  0  0999 V2000
   28.1713  -25.5549  -20.6624 N   0  0  0  0  0  0  0  0  0  0  0  0
   28.7334  -24.5695  -21.5113 C   0  0  0  0  0  0  0  0  0  0  0  0
   28.8509  -24.8599  -22.7709 N   0  0  0  0  0  0  0  0  0  0  0  0
   29.1470  -23.3205  -20.9918 N   0  0  0  0  0  0  0  0  0  0  0  0
   28.7724  -22.9332  -19.6549 C   0  0  0  0  0  0  0  0  0  0  0  0
   27.3838  -22.3360  -19.6324 C   0  0  0  0  0  0  0  0  0  0  0  0
   26.7867  -22.4617  -18.2811 C   0  0  0  0  0  0  0  0  0  0  0  0
   27.6875  -22.1480  -17.1413 C   0  0  2  0  0  0  0  0  0  0  0  0
   28.8474  -22.9502  -17.0193 N   0  0  0  0  0  0  0  0  0  0  0  0
   26.8969  -22.2861  -15.8736 C   0  0  0  0  0  0  0  0  0  0  0  0
   26.4393  -23.4086  -15.5182 O   0  0  0  0  0  0  0  0  0  0  0  0
   29.3174  -24.2586  -23.4672 N   0  0  0  0  0  0  0  0  0  0  0  0
   26.6333  -21.1779  -15.0320 C   0  0  2  0  0  0  0  0  0  0  0  0
   25.9167  -21.2581  -13.7840 C   0  0  0  0  0  0  0  0  0  0  0  0
   26.4984  -20.2356  -12.8264 C   0  0  0  0  0  0  0  0  0  0  0  0
   25.7942  -20.3350  -11.5264 C   0  0  0  0  0  0  0  0  0  0  0  0
   26.3490  -21.0632  -10.4978 C   0  0  0  0  0  0  0  0  0  0  0  0
   25.7655  -21.2098   -9.2579 C   0  0  0  0  0  0  0  0  0  0  0  0
   24.5626  -20.5996   -9.0233 C   0  0  0  0  0  0  0  0  0  0  0  0
   23.9734  -19.8624  -10.0239 C   0  0  0  0  0  0  0  0  0  0  0  0
   24.5789  -19.7297  -11.2612 C   0  0  0  0  0  0  0  0  0  0  0  0
   24.4741  -21.0065  -14.0339 O   0  0  0  0  0  0  0  0  0  0  0  0
   24.1085  -19.9817  -14.7051 N   0  0  0  0  0  0  0  0  0  0  0  0
   19.9631  -24.8787  -15.5937 C   0  0  0  0  0  0  0  0  0  0  0  0
   20.0845  -23.6543  -16.3246 O   0  0  0  0  0  0  0  0  0  0  0  0
   19.5905  -23.6639  -17.4652 C   0  0  0  0  0  0  0  0  0  0  0  0
   20.7607  -22.5570  -15.6709 C   0  0  0  0  0  0  0  0  0  0  0  0
   21.3297  -22.6867  -14.3254 C   0  0  2  0  0  0  0  0  0  0  0  0
   22.0119  -21.5251  -13.7010 N   0  0  0  0  0  0  0  0  0  0  0  0
   23.4482  -21.8450  -13.5681 C   0  0  0  0  0  0  0  0  0  0  0  0
   21.4494  -21.1853  -12.3892 O   0  0  0  0  0  0  0  0  0  0  0  0
   22.0247  -21.4052  -11.3008 O   0  0  0  0  0  0  0  0  0  0  0  0
  2  1  1  0
  2  3  2  0
  4  2  1  0
  5  4  1  0
  6  5  1  0
  7  6  1  0
  8  7  1  0
  8  9  1  1
 10 11  2  0
 10  8  1  0
 12 10  1  0
 13 21  1  0
 13 12  1  0
 13 14  1  6
 15 14  1  0
 16 15  2  0
 17 16  1  0
 18 19  1  0
 18 17  2  0
 19 20  2  0
 20 15  1  0
 21 29  1  0
 22 21  2  0
 23 24  1  0
 24 25  2  0
 24 26  1  0
 26 27  1  0
 28 27  1  6
 28 30  1  0
 29 28  1  0
 30 31  2  0
 30 32  1  0
M  END
$$$$
