RFQ.pdb
     RDKit          3D

 32 32  0  0  1  0  0  0  0  0999 V2000
   31.3494  -25.8996  -16.8998 N   0  0  0  0  0  0  0  0  0  0  0  0
   31.1707  -24.6669  -17.5753 C   0  0  0  0  0  0  0  0  0  0  0  0
   31.0436  -24.7040  -18.8665 N   0  0  0  0  0  0  0  0  0  0  0  0
   31.1346  -23.4490  -16.8567 N   0  0  0  0  0  0  0  0  0  0  0  0
   30.2408  -23.2964  -15.7362 C   0  0  0  0  0  0  0  0  0  0  0  0
   28.8002  -23.4549  -16.1663 C   0  0  0  0  0  0  0  0  0  0  0  0
   27.8893  -23.2504  -15.0144 C   0  0  0  0  0  0  0  0  0  0  0  0
   27.1889  -21.9404  -14.9649 C   0  0  2  0  0  0  0  0  0  0  0  0
   28.0125  -20.7891  -14.9512 N   0  0  0  0  0  0  0  0  0  0  0  0
   26.3407  -21.9143  -13.7276 C   0  0  0  0  0  0  0  0  0  0  0  0
   25.6791  -22.9320  -13.3779 O   0  0  0  0  0  0  0  0  0  0  0  0
   30.9627  -23.8707  -19.4690 N   0  0  0  0  0  0  0  0  0  0  0  0
   26.2467  -20.7622  -12.9093 C   0  0  1  0  0  0  0  0  0  0  0  0
   25.3851  -20.6509  -11.7593 C   0  0  0  0  0  0  0  0  0  0  0  0
   25.8756  -19.5029  -10.8975 C   0  0  0  0  0  0  0  0  0  0  0  0
   26.8766  -20.0157   -9.9327 C   0  0  0  0  0  0  0  0  0  0  0  0
   27.9994  -20.6692  -10.3889 C   0  0  0  0  0  0  0  0  0  0  0  0
   28.9802  -21.1782   -9.5655 C   0  0  0  0  0  0  0  0  0  0  0  0
   28.8407  -21.0313   -8.2115 C   0  0  0  0  0  0  0  0  0  0  0  0
   27.7338  -20.3846   -7.7134 C   0  0  0  0  0  0  0  0  0  0  0  0
   26.7618  -19.8818   -8.5606 C   0  0  0  0  0  0  0  0  0  0  0  0
   23.9895  -20.4268  -12.2163 O   0  0  0  0  0  0  0  0  0  0  0  0
   23.6333  -19.2782  -12.6504 N   0  0  0  0  0  0  0  0  0  0  0  0
   20.2316  -23.7123  -15.5413 C   0  0  0  0  0  0  0  0  0  0  0  0
   19.2113  -23.1266  -14.7266 O   0  0  0  0  0  0  0  0  0  0  0  0
   18.0643  -23.1588  -15.2047 C   0  0  0  0  0  0  0  0  0  0  0  0
   19.6172  -22.5658  -13.4580 C   0  0  0  0  0  0  0  0  0  0  0  0
   21.0258  -22.4952  -13.0556 C   0  0  1  0  0  0  0  0  0  0  0  0
   21.6077  -21.1931  -12.6429 N   0  0  0  0  0  0  0  0  0  0  0  0
   22.9997  -21.4231  -12.2045 C   0  0  0  0  0  0  0  0  0  0  0  0
   20.8413  -20.5541  -11.5672 O   0  0  0  0  0  0  0  0  0  0  0  0
   21.0718  -20.7174  -10.3490 O   0  0  0  0  0  0  0  0  0  0  0  0
  2  1  1  0
  2  3  2  0
  4  2  1  0
  5  4  1  0
  6  5  1  0
  7  6  1  0
  8  7  1  0
  8  9  1  1
 10 11  2  0
 10  8  1  0
 12 10  1  0
 13 21  1  0
 13 12  1  0
 13 14  1  1
 15 14  1  0
 16 15  2  0
 17 16  1  0
 18 19  1  0
 18 17  2  0
 19 20  2  0
 20 15  1  0
 21 29  1  0
 22 21  2  0
 23 24  1  0
 24 25  2  0
 24 26  1  0
 26 27  1  0
 28 27  1  6
 28 30  1  0
 29 28  1  0
 30 31  2  0
 30 32  1  0
M  END
$$$$
