RFQ.pdb
     RDKit          3D

 32 32  0  0  1  0  0  0  0  0999 V2000
   26.8151  -21.9645  -22.6982 N   0  0  0  0  0  0  0  0  0  0  0  0
   26.2242  -20.8041  -22.1396 C   0  0  0  0  0  0  0  0  0  0  0  0
   25.7784  -19.9037  -22.9614 N   0  0  0  0  0  0  0  0  0  0  0  0
   26.1309  -20.6459  -20.7370 N   0  0  0  0  0  0  0  0  0  0  0  0
   26.5274  -21.7188  -19.8599 C   0  0  0  0  0  0  0  0  0  0  0  0
   25.4432  -22.7677  -19.7619 C   0  0  0  0  0  0  0  0  0  0  0  0
   24.9781  -22.9040  -18.3607 C   0  0  0  0  0  0  0  0  0  0  0  0
   26.0178  -23.2711  -17.3641 C   0  0  2  0  0  0  0  0  0  0  0  0
   26.5853  -24.5613  -17.4961 N   0  0  0  0  0  0  0  0  0  0  0  0
   25.4052  -23.1753  -15.9978 C   0  0  0  0  0  0  0  0  0  0  0  0
   24.9847  -24.2091  -15.4059 O   0  0  0  0  0  0  0  0  0  0  0  0
   25.3908  -18.9921  -22.6738 N   0  0  0  0  0  0  0  0  0  0  0  0
   25.2737  -21.9377  -15.3221 C   0  0  2  0  0  0  0  0  0  0  0  0
   24.6676  -21.7814  -14.0238 C   0  0  0  0  0  0  0  0  0  0  0  0
   25.3594  -20.6407  -13.3018 C   0  0  0  0  0  0  0  0  0  0  0  0
   24.8397  -20.5592  -11.9165 C   0  0  0  0  0  0  0  0  0  0  0  0
   25.5549  -21.1160  -10.8799 C   0  0  0  0  0  0  0  0  0  0  0  0
   25.1485  -21.0877   -9.5634 C   0  0  0  0  0  0  0  0  0  0  0  0
   23.9649  -20.4722   -9.2558 C   0  0  0  0  0  0  0  0  0  0  0  0
   23.2191  -19.9029  -10.2615 C   0  0  0  0  0  0  0  0  0  0  0  0
   23.6481  -19.9441  -11.5766 C   0  0  0  0  0  0  0  0  0  0  0  0
   23.2162  -21.5139  -14.1931 O   0  0  0  0  0  0  0  0  0  0  0  0
   22.8219  -20.5955  -14.9904 N   0  0  0  0  0  0  0  0  0  0  0  0
   18.5931  -25.6756  -14.2263 C   0  0  0  0  0  0  0  0  0  0  0  0
   17.8533  -24.4505  -14.2209 O   0  0  0  0  0  0  0  0  0  0  0  0
   16.6270  -24.5685  -14.3866 C   0  0  0  0  0  0  0  0  0  0  0  0
   18.5990  -23.2273  -14.0307 C   0  0  0  0  0  0  0  0  0  0  0  0
   20.0548  -23.2253  -13.8528 C   0  0  2  0  0  0  0  0  0  0  0  0
   20.7702  -21.9380  -13.6643 N   0  0  0  0  0  0  0  0  0  0  0  0
   22.2120  -22.2240  -13.5150 C   0  0  0  0  0  0  0  0  0  0  0  0
   20.2825  -21.1929  -12.4981 O   0  0  0  0  0  0  0  0  0  0  0  0
   19.7442  -20.0659  -12.5605 O   0  0  0  0  0  0  0  0  0  0  0  0
  2  1  1  0
  2  3  2  0
  4  2  1  0
  5  4  1  0
  6  5  1  0
  7  6  1  0
  8  7  1  0
  8  9  1  6
 10 11  2  0
 10  8  1  0
 12 10  1  0
 13 21  1  0
 13 12  1  0
 13 14  1  1
 15 14  1  0
 16 15  2  0
 17 16  1  0
 18 19  1  0
 18 17  2  0
 19 20  2  0
 20 15  1  0
 21 29  1  0
 22 21  2  0
 23 24  1  0
 24 25  2  0
 24 26  1  0
 26 27  1  0
 28 27  1  6
 28 30  1  0
 29 28  1  0
 30 31  2  0
 30 32  1  0
M  END
$$$$
