RFQ.pdb
     RDKit          3D

 32 32  0  0  1  0  0  0  0  0999 V2000
-1306433.5000-1701503.7500-1374803.3750 N   0  0  0  0  0  0  0  0  0  0  0  0
-1306432.0000-1701504.7500-1374802.7500 C   0  0  0  0  0  0  0  0  0  0  0  0
-1306433.0000-1701504.5000-1374802.1250 N   0  0  0  0  0  0  0  0  0  0  0  0
-1306431.2500-1701504.0000-1374802.5000 N   0  0  0  0  0  0  0  0  0  0  0  0
-1306429.8750-1701504.2500-1374802.5000 C   0  0  0  0  0  0  0  0  0  0  0  0
-1306429.2500-1701505.5000-1374803.2500 C   0  0  0  0  0  0  0  0  0  0  0  0
-1306428.5000-1701504.5000-1374804.1250 C   0  0  0  0  0  0  0  0  0  0  0  0
-1306426.5000-1701504.0000-1374804.1250 C   0  0  2  0  0  0  0  0  0  0  0  0
-1306426.8750-1701503.2500-1374805.2500 N   0  0  0  0  0  0  0  0  0  0  0  0
-1306426.0000-1701505.0000-1374805.0000 C   0  0  0  0  0  0  0  0  0  0  0  0
-1306426.5000-1701505.7500-1374805.3750 O   0  0  0  0  0  0  0  0  0  0  0  0
-1306432.7500-1701504.2500-1374800.2500 N   0  0  0  0  0  0  0  0  0  0  0  0
-1306424.7500-1701504.7500-1374804.7500 C   0  0  2  0  0  0  0  0  0  0  0  0
-1306423.8750-1701504.0000-1374804.7500 C   0  0  0  0  0  0  0  0  0  0  0  0
-1306424.2500-1701502.7500-1374806.0000 C   0  0  0  0  0  0  0  0  0  0  0  0
-1306423.2500-1701502.0000-1374806.0000 C   0  0  0  0  0  0  0  0  0  0  0  0
-1306423.2500-1701501.0000-1374807.0000 C   0  0  0  0  0  0  0  0  0  0  0  0
-1306422.1250-1701500.5000-1374807.8750 C   0  0  0  0  0  0  0  0  0  0  0  0
-1306421.7500-1701499.5000-1374807.0000 C   0  0  0  0  0  0  0  0  0  0  0  0
-1306421.5000-1701500.5000-1374805.6250 C   0  0  0  0  0  0  0  0  0  0  0  0
-1306422.2500-1701501.7500-1374805.0000 C   0  0  0  0  0  0  0  0  0  0  0  0
-1306424.7500-1701503.2500-1374803.6250 O   0  0  0  0  0  0  0  0  0  0  0  0
-1306423.7500-1701502.2500-1374803.0000 N   0  0  0  0  0  0  0  0  0  0  0  0
-1306424.2500-1701499.5000-1374805.5000 C   0  0  0  0  0  0  0  0  0  0  0  0
-1306426.2500-1701500.0000-1374804.8750 O   0  0  0  0  0  0  0  0  0  0  0  0
-1306426.2500-1701499.7500-1374805.7500 C   0  0  0  0  0  0  0  0  0  0  0  0
-1306425.6250-1701500.2500-1374803.7500 C   0  0  0  0  0  0  0  0  0  0  0  0
-1306427.0000-1701501.0000-1374803.5000 C   0  0  2  0  0  0  0  0  0  0  0  0
-1306427.2500-1701502.2500-1374803.0000 N   0  0  0  0  0  0  0  0  0  0  0  0
-1306425.6250-1701503.5000-1374802.5000 C   0  0  0  0  0  0  0  0  0  0  0  0
-1306428.0000-1701503.0000-1374802.6250 O   0  0  0  0  0  0  0  0  0  0  0  0
-1306426.7500-1701504.7500-1374803.3750 O   0  0  0  0  0  0  0  0  0  0  0  0
  2  1  1  0
  2  3  2  0
  4  2  1  0
  5  4  1  0
  6  5  1  0
  7  6  1  0
  8  7  1  0
  8  9  1  6
 10 11  2  0
 10  8  1  0
 12 10  1  0
 13 21  1  0
 13 12  1  0
 13 14  1  6
 15 14  1  0
 16 15  2  0
 17 16  1  0
 18 19  1  0
 18 17  2  0
 19 20  2  0
 20 15  1  0
 21 29  1  0
 22 21  2  0
 23 24  1  0
 24 25  2  0
 24 26  1  0
 26 27  1  0
 28 27  1  1
 28 30  1  0
 29 28  1  0
 30 31  2  0
 30 32  1  0
M  END
$$$$
