RFQ.pdb
     RDKit          3D

 32 32  0  0  1  0  0  0  0  0999 V2000
   23.7730  -18.5319  -17.6103 N   0  0  0  0  0  0  0  0  0  0  0  0
   23.1672  -18.3401  -16.3438 C   0  0  0  0  0  0  0  0  0  0  0  0
   21.8899  -18.1109  -16.3190 N   0  0  0  0  0  0  0  0  0  0  0  0
   23.9380  -18.3984  -15.1592 N   0  0  0  0  0  0  0  0  0  0  0  0
   24.5579  -19.6368  -14.7596 C   0  0  0  0  0  0  0  0  0  0  0  0
   23.6286  -20.4524  -13.8899 C   0  0  0  0  0  0  0  0  0  0  0  0
   24.1372  -20.5100  -12.4983 C   0  0  0  0  0  0  0  0  0  0  0  0
   25.5833  -20.8186  -12.3476 C   0  0  2  0  0  0  0  0  0  0  0  0
   26.0688  -21.9244  -13.0860 N   0  0  0  0  0  0  0  0  0  0  0  0
   25.8527  -21.0807  -10.8951 C   0  0  0  0  0  0  0  0  0  0  0  0
   25.6112  -22.2125  -10.3887 O   0  0  0  0  0  0  0  0  0  0  0  0
   21.3539  -17.8864  -15.4668 N   0  0  0  0  0  0  0  0  0  0  0  0
   26.3826  -20.0832  -10.0408 C   0  0  2  0  0  0  0  0  0  0  0  0
   26.6536  -20.2753   -8.6382 C   0  0  0  0  0  0  0  0  0  0  0  0
   27.6283  -19.2056   -8.1836 C   0  0  0  0  0  0  0  0  0  0  0  0
   27.9304  -19.4055   -6.7467 C   0  0  0  0  0  0  0  0  0  0  0  0
   28.6997  -20.4758   -6.3484 C   0  0  0  0  0  0  0  0  0  0  0  0
   29.0297  -20.7390   -5.0365 C   0  0  0  0  0  0  0  0  0  0  0  0
   28.5710  -19.8930   -4.0627 C   0  0  0  0  0  0  0  0  0  0  0  0
   27.7990  -18.8114   -4.4174 C   0  0  0  0  0  0  0  0  0  0  0  0
   27.4807  -18.5677   -5.7420 C   0  0  0  0  0  0  0  0  0  0  0  0
   25.3775  -20.2019   -7.8812 O   0  0  0  0  0  0  0  0  0  0  0  0
   24.6011  -19.1970   -8.0287 N   0  0  0  0  0  0  0  0  0  0  0  0
   21.0584  -24.4020   -7.2646 C   0  0  0  0  0  0  0  0  0  0  0  0
   20.6304  -23.4872   -6.2508 O   0  0  0  0  0  0  0  0  0  0  0  0
   19.5094  -23.7170   -5.7653 C   0  0  0  0  0  0  0  0  0  0  0  0
   21.5303  -22.4095   -5.9084 C   0  0  0  0  0  0  0  0  0  0  0  0
   22.8371  -22.2540   -6.5558 C   0  0  1  0  0  0  0  0  0  0  0  0
   23.7001  -21.0992   -6.2009 N   0  0  0  0  0  0  0  0  0  0  0  0
   24.9496  -21.1937   -6.9837 C   0  0  0  0  0  0  0  0  0  0  0  0
   24.0079  -21.0512   -4.7671 O   0  0  0  0  0  0  0  0  0  0  0  0
   24.9985  -21.6063   -4.2432 O   0  0  0  0  0  0  0  0  0  0  0  0
  2  1  1  0
  2  3  2  0
  4  2  1  0
  5  4  1  0
  6  5  1  0
  7  6  1  0
  8  7  1  0
  8  9  1  6
 10 11  2  0
 10  8  1  0
 12 10  1  0
 13 21  1  0
 13 12  1  0
 13 14  1  6
 15 14  1  0
 16 15  2  0
 17 16  1  0
 18 19  1  0
 18 17  2  0
 19 20  2  0
 20 15  1  0
 21 29  1  0
 22 21  2  0
 23 24  1  0
 24 25  2  0
 24 26  1  0
 26 27  1  0
 28 27  1  6
 28 30  1  0
 29 28  1  0
 30 31  2  0
 30 32  1  0
M  END
$$$$
