RPM.pdb
     RDKit          3D

 27 27  0  0  1  0  0  0  0  0999 V2000
    9.8841  -13.7520   17.3214 N   0  0  0  0  0  0  0  0  0  0  0  0
   10.2829  -13.1604   18.5445 C   0  0  0  0  0  0  0  0  0  0  0  0
   11.5339  -13.2338   18.9142 N   0  0  0  0  0  0  0  0  0  0  0  0
    9.3809  -12.4776   19.4102 N   0  0  0  0  0  0  0  0  0  0  0  0
    7.9337  -12.7082   19.3368 C   0  0  0  0  0  0  0  0  0  0  0  0
    7.6269  -14.1749   19.2999 C   0  0  0  0  0  0  0  0  0  0  0  0
    8.2345  -14.9430   20.4114 C   0  0  0  0  0  0  0  0  0  0  0  0
    7.3341  -15.9300   21.1005 C   0  0  2  0  0  0  0  0  0  0  0  0
    5.9745  -15.7053   20.7355 N   0  0  0  0  0  0  0  0  0  0  0  0
    7.6206  -16.1697   22.5039 C   0  0  0  0  0  0  0  0  0  0  0  0
    7.0015  -15.4424   23.3424 O   0  0  0  0  0  0  0  0  0  0  0  0
   11.8198  -12.8677   19.8666 N   0  0  0  0  0  0  0  0  0  0  0  0
    8.5299  -17.1366   23.0623 C   0  0  0  0  0  0  0  0  0  0  0  0
    9.2712  -18.0572   22.2517 C   0  0  0  0  0  0  0  0  0  0  0  0
    9.6632  -19.1822   23.2012 C   0  0  0  0  0  0  0  0  0  0  0  0
    9.7040  -18.5364   24.5531 C   0  0  2  0  0  0  0  0  0  0  0  0
    8.8220  -17.3471   24.4348 C   0  0  0  0  0  0  0  0  0  0  0  0
    9.4542  -16.1579   25.0829 O   0  0  0  0  0  0  0  0  0  0  0  0
   10.2274  -15.4645   24.3913 C   0  0  0  0  0  0  0  0  0  0  0  0
    5.6988  -12.5410   27.0129 S   0  0  0  0  0  0  0  0  0  0  0  0
    7.3411  -11.7792   26.9474 C   0  0  0  0  0  0  0  0  0  0  0  0
    8.6130  -12.9718   26.4549 C   0  0  0  0  0  0  0  0  0  0  0  0
    9.0840  -13.7858   27.6554 C   0  0  2  0  0  0  0  0  0  0  0  0
    9.9900  -14.8982   27.1976 N   0  0  0  0  0  0  0  0  0  0  0  0
    9.1929  -15.8262   26.4159 C   0  0  0  0  0  0  0  0  0  0  0  0
   10.5301  -15.5611   28.4238 O   0  0  0  0  0  0  0  0  0  0  0  0
   10.0747  -16.6678   28.8042 O   0  0  0  0  0  0  0  0  0  0  0  0
  2  1  1  0
  3  2  2  0
  4  2  1  0
  5  6  1  0
  5  4  1  0
  6  7  1  0
  7  8  1  0
  8  9  1  1
 10  8  1  0
 11 10  2  0
 12 10  1  0
 12 16  1  0
 13 14  1  0
 13 12  1  0
 14 15  1  0
 15 16  1  0
 16 17  1  1
 17 18  2  0
 19 20  1  0
 20 21  1  0
 21 22  1  0
 23 22  1  6
 23 24  1  0
 23 25  1  0
 24 17  1  0
 25 27  1  0
 26 25  2  0
M  END
$$$$
