RPM.pdb
     RDKit          3D

 27 27  0  0  1  0  0  0  0  0999 V2000
    7.9411  -19.9053   15.0054 N   0  0  0  0  0  0  0  0  0  0  0  0
    7.1916  -18.7189   14.8160 C   0  0  0  0  0  0  0  0  0  0  0  0
    6.9842  -18.2783   13.6036 N   0  0  0  0  0  0  0  0  0  0  0  0
    6.6414  -17.9650   15.8922 N   0  0  0  0  0  0  0  0  0  0  0  0
    6.5575  -18.5219   17.2471 C   0  0  0  0  0  0  0  0  0  0  0  0
    7.9046  -18.9744   17.7239 C   0  0  0  0  0  0  0  0  0  0  0  0
    8.3559  -18.3077   18.9674 C   0  0  0  0  0  0  0  0  0  0  0  0
    9.3688  -17.2101   18.7969 C   0  0  2  0  0  0  0  0  0  0  0  0
   10.5776  -17.7271   18.2457 N   0  0  0  0  0  0  0  0  0  0  0  0
    9.4820  -16.2805   19.9068 C   0  0  0  0  0  0  0  0  0  0  0  0
   10.5077  -16.4020   20.6474 O   0  0  0  0  0  0  0  0  0  0  0  0
    6.4414  -17.3797   13.4597 N   0  0  0  0  0  0  0  0  0  0  0  0
    8.5640  -15.2331   20.2727 C   0  0  0  0  0  0  0  0  0  0  0  0
    7.4562  -14.8540   19.4461 C   0  0  0  0  0  0  0  0  0  0  0  0
    7.0931  -13.4473   19.9046 C   0  0  0  0  0  0  0  0  0  0  0  0
    7.5473  -13.3876   21.3316 C   0  0  2  0  0  0  0  0  0  0  0  0
    8.6025  -14.4273   21.4400 C   0  0  0  0  0  0  0  0  0  0  0  0
    8.4336  -15.2181   22.6971 O   0  0  0  0  0  0  0  0  0  0  0  0
    7.5777  -16.1261   22.6991 C   0  0  0  0  0  0  0  0  0  0  0  0
   10.3744  -12.7959   28.5603 S   0  0  0  0  0  0  0  0  0  0  0  0
    9.0556  -13.9961   28.8800 C   0  0  0  0  0  0  0  0  0  0  0  0
    8.9415  -15.2324   27.5604 C   0  0  0  0  0  0  0  0  0  0  0  0
    9.1317  -14.5828   26.1938 C   0  0  1  0  0  0  0  0  0  0  0  0
    9.0266  -15.6245   25.1114 N   0  0  0  0  0  0  0  0  0  0  0  0
    9.2039  -14.9571   23.8345 C   0  0  0  0  0  0  0  0  0  0  0  0
    7.6634  -16.2298   25.2117 O   0  0  0  0  0  0  0  0  0  0  0  0
    7.5021  -17.3540   25.7475 O   0  0  0  0  0  0  0  0  0  0  0  0
  2  1  1  0
  3  2  2  0
  4  2  1  0
  5  6  1  0
  5  4  1  0
  6  7  1  0
  7  8  1  0
  8  9  1  1
 10  8  1  0
 11 10  2  0
 12 10  1  0
 12 16  1  0
 13 14  1  0
 13 12  1  0
 14 15  1  0
 15 16  1  0
 16 17  1  1
 17 18  2  0
 19 20  1  0
 20 21  1  0
 21 22  1  0
 23 22  1  1
 23 24  1  0
 23 25  1  0
 24 17  1  0
 25 27  1  0
 26 25  2  0
M  END
$$$$
