RPM.pdb
     RDKit          3D

 27 27  0  0  1  0  0  0  0  0999 V2000
   13.3644  -15.6454   15.3777 N   0  0  0  0  0  0  0  0  0  0  0  0
   12.1826  -16.4256   15.3847 C   0  0  0  0  0  0  0  0  0  0  0  0
   11.8712  -17.1270   14.3273 N   0  0  0  0  0  0  0  0  0  0  0  0
   11.2982  -16.4897   16.4997 N   0  0  0  0  0  0  0  0  0  0  0  0
   10.0684  -15.6906   16.5427 C   0  0  0  0  0  0  0  0  0  0  0  0
   10.2651  -14.4495   17.3599 C   0  0  0  0  0  0  0  0  0  0  0  0
    9.7557  -14.5575   18.7467 C   0  0  0  0  0  0  0  0  0  0  0  0
    8.2858  -14.3024   18.9311 C   0  0  2  0  0  0  0  0  0  0  0  0
    7.9389  -13.0073   18.4465 N   0  0  0  0  0  0  0  0  0  0  0  0
    7.7321  -14.7099   20.2102 C   0  0  0  0  0  0  0  0  0  0  0  0
    7.5333  -13.7885   21.0628 O   0  0  0  0  0  0  0  0  0  0  0  0
   10.9552  -17.6591   14.3042 N   0  0  0  0  0  0  0  0  0  0  0  0
    7.3820  -16.0416   20.6319 C   0  0  0  0  0  0  0  0  0  0  0  0
    7.5137  -17.1824   19.7744 C   0  0  0  0  0  0  0  0  0  0  0  0
    6.5873  -18.2306   20.3776 C   0  0  0  0  0  0  0  0  0  0  0  0
    6.5156  -17.8770   21.8323 C   0  0  2  0  0  0  0  0  0  0  0  0
    6.8593  -16.4332   21.8915 C   0  0  0  0  0  0  0  0  0  0  0  0
    7.8011  -16.1633   23.0203 O   0  0  0  0  0  0  0  0  0  0  0  0
    9.0239  -16.2507   22.7874 C   0  0  0  0  0  0  0  0  0  0  0  0
    7.1264  -11.4494   27.9168 S   0  0  0  0  0  0  0  0  0  0  0  0
    6.1105  -12.2342   26.6387 C   0  0  0  0  0  0  0  0  0  0  0  0
    7.0903  -13.3403   25.5903 C   0  0  0  0  0  0  0  0  0  0  0  0
    7.4689  -14.6082   26.3484 C   0  0  2  0  0  0  0  0  0  0  0  0
    8.1980  -15.5555   25.4324 N   0  0  0  0  0  0  0  0  0  0  0  0
    7.3371  -15.8232   24.2947 C   0  0  0  0  0  0  0  0  0  0  0  0
    8.4604  -16.8061   26.2083 O   0  0  0  0  0  0  0  0  0  0  0  0
    7.6969  -17.7970   26.0990 O   0  0  0  0  0  0  0  0  0  0  0  0
  2  1  1  0
  3  2  2  0
  4  2  1  0
  5  6  1  0
  5  4  1  0
  6  7  1  0
  7  8  1  0
  8  9  1  1
 10  8  1  0
 11 10  2  0
 12 10  1  0
 12 16  1  0
 13 14  1  0
 13 12  1  0
 14 15  1  0
 15 16  1  0
 16 17  1  1
 17 18  2  0
 19 20  1  0
 20 21  1  0
 21 22  1  0
 23 22  1  6
 23 24  1  0
 23 25  1  0
 24 17  1  0
 25 27  1  0
 26 25  2  0
M  END
$$$$
