RPM.pdb
     RDKit          3D

 27 27  0  0  1  0  0  0  0  0999 V2000
    4.6578  -19.9007   16.0049 N   0  0  0  0  0  0  0  0  0  0  0  0
    5.9810  -19.7838   15.5143 C   0  0  0  0  0  0  0  0  0  0  0  0
    6.1809  -19.2932   14.3199 N   0  0  0  0  0  0  0  0  0  0  0  0
    7.1271  -20.1781   16.2629 N   0  0  0  0  0  0  0  0  0  0  0  0
    8.2454  -19.2548   16.4858 C   0  0  0  0  0  0  0  0  0  0  0  0
    7.7868  -18.0233   17.2068 C   0  0  0  0  0  0  0  0  0  0  0  0
    8.4603  -17.8043   18.5080 C   0  0  0  0  0  0  0  0  0  0  0  0
    9.5591  -16.7785   18.5174 C   0  0  2  0  0  0  0  0  0  0  0  0
   10.7927  -17.3642   18.1083 N   0  0  0  0  0  0  0  0  0  0  0  0
    9.5859  -15.8958   19.6703 C   0  0  0  0  0  0  0  0  0  0  0  0
   10.5610  -16.0389   20.4728 O   0  0  0  0  0  0  0  0  0  0  0  0
    7.1716  -19.1608   13.9683 N   0  0  0  0  0  0  0  0  0  0  0  0
    8.6325  -14.8738   20.0167 C   0  0  0  0  0  0  0  0  0  0  0  0
    7.5751  -14.4740   19.1356 C   0  0  0  0  0  0  0  0  0  0  0  0
    7.1647  -13.0907   19.6242 C   0  0  0  0  0  0  0  0  0  0  0  0
    7.5256  -13.0830   21.0789 C   0  0  2  0  0  0  0  0  0  0  0  0
    8.5854  -14.1148   21.2146 C   0  0  0  0  0  0  0  0  0  0  0  0
    8.3466  -14.9567   22.4263 O   0  0  0  0  0  0  0  0  0  0  0  0
    7.6431  -15.9785   22.2917 C   0  0  0  0  0  0  0  0  0  0  0  0
   10.7588  -13.3316   28.6936 S   0  0  0  0  0  0  0  0  0  0  0  0
    9.1461  -14.1528   28.7746 C   0  0  0  0  0  0  0  0  0  0  0  0
    8.8809  -15.2481   27.3559 C   0  0  0  0  0  0  0  0  0  0  0  0
    8.8747  -14.4539   26.0540 C   0  0  2  0  0  0  0  0  0  0  0  0
    8.6822  -15.3847   24.8859 N   0  0  0  0  0  0  0  0  0  0  0  0
    8.8895  -14.6194   23.6700 C   0  0  0  0  0  0  0  0  0  0  0  0
    7.2810  -15.9007   24.9586 O   0  0  0  0  0  0  0  0  0  0  0  0
    6.3218  -15.2031   24.5464 O   0  0  0  0  0  0  0  0  0  0  0  0
  2  1  1  0
  3  2  2  0
  4  2  1  0
  5  6  1  0
  5  4  1  0
  6  7  1  0
  7  8  1  0
  8  9  1  1
 10  8  1  0
 11 10  2  0
 12 10  1  0
 12 16  1  0
 13 14  1  0
 13 12  1  0
 14 15  1  0
 15 16  1  0
 16 17  1  1
 17 18  2  0
 19 20  1  0
 20 21  1  0
 21 22  1  0
 23 22  1  1
 23 24  1  0
 23 25  1  0
 24 17  1  0
 25 27  1  0
 26 25  2  0
M  END
$$$$
