RPM.pdb
     RDKit          3D

 27 27  0  0  1  0  0  0  0  0999 V2000
    5.1834  -21.1835   22.1075 N   0  0  0  0  0  0  0  0  0  0  0  0
    6.1410  -20.9606   23.1266 C   0  0  0  0  0  0  0  0  0  0  0  0
    6.3229  -21.8712   24.0457 N   0  0  0  0  0  0  0  0  0  0  0  0
    6.9311  -19.7780   23.2079 N   0  0  0  0  0  0  0  0  0  0  0  0
    6.7841  -18.6954   22.2284 C   0  0  0  0  0  0  0  0  0  0  0  0
    6.7860  -19.2352   20.8300 C   0  0  0  0  0  0  0  0  0  0  0  0
    6.6377  -18.1954   19.7855 C   0  0  0  0  0  0  0  0  0  0  0  0
    7.9149  -17.6021   19.2595 C   0  0  2  0  0  0  0  0  0  0  0  0
    8.7485  -18.6192   18.7090 N   0  0  0  0  0  0  0  0  0  0  0  0
    8.5439  -16.6077   20.1105 C   0  0  0  0  0  0  0  0  0  0  0  0
    9.5709  -16.9823   20.7588 O   0  0  0  0  0  0  0  0  0  0  0  0
    7.0654  -21.7244   24.7872 N   0  0  0  0  0  0  0  0  0  0  0  0
    8.1390  -15.2404   20.3114 C   0  0  0  0  0  0  0  0  0  0  0  0
    7.1622  -14.5953   19.4845 C   0  0  0  0  0  0  0  0  0  0  0  0
    7.4134  -13.1051   19.6774 C   0  0  0  0  0  0  0  0  0  0  0  0
    8.0284  -13.0005   21.0402 C   0  0  2  0  0  0  0  0  0  0  0  0
    8.6205  -14.3386   21.2953 C   0  0  0  0  0  0  0  0  0  0  0  0
    8.3229  -14.7875   22.6896 O   0  0  0  0  0  0  0  0  0  0  0  0
    7.1968  -15.2769   22.9122 C   0  0  0  0  0  0  0  0  0  0  0  0
    6.5088  -10.2717   27.0671 S   0  0  0  0  0  0  0  0  0  0  0  0
    6.3134  -12.0014   26.5656 C   0  0  0  0  0  0  0  0  0  0  0  0
    7.8294  -12.6580   25.8217 C   0  0  0  0  0  0  0  0  0  0  0  0
    7.6211  -14.0925   25.3478 C   0  0  2  0  0  0  0  0  0  0  0  0
    8.9536  -14.7590   25.1282 N   0  0  0  0  0  0  0  0  0  0  0  0
    9.2673  -14.6681   23.7138 C   0  0  0  0  0  0  0  0  0  0  0  0
    8.8092  -16.1854   25.5516 O   0  0  0  0  0  0  0  0  0  0  0  0
    8.7421  -17.1016   24.6956 O   0  0  0  0  0  0  0  0  0  0  0  0
  2  1  1  0
  3  2  2  0
  4  2  1  0
  5  6  1  0
  5  4  1  0
  6  7  1  0
  7  8  1  0
  8  9  1  1
 10  8  1  0
 11 10  2  0
 12 10  1  0
 12 16  1  0
 13 14  1  0
 13 12  1  0
 14 15  1  0
 15 16  1  0
 16 17  1  1
 17 18  2  0
 19 20  1  0
 20 21  1  0
 21 22  1  0
 23 22  1  1
 23 24  1  0
 23 25  1  0
 24 17  1  0
 25 27  1  0
 26 25  2  0
M  END
$$$$
