RPM.pdb
     RDKit          3D

 27 27  0  0  1  0  0  0  0  0999 V2000
   13.8763  -22.1628   19.0414 N   0  0  0  0  0  0  0  0  0  0  0  0
   12.5691  -21.9530   19.5437 C   0  0  0  0  0  0  0  0  0  0  0  0
   11.5466  -22.4428   18.8943 N   0  0  0  0  0  0  0  0  0  0  0  0
   12.3011  -21.2247   20.7383 N   0  0  0  0  0  0  0  0  0  0  0  0
   11.2060  -20.2505   20.8066 C   0  0  0  0  0  0  0  0  0  0  0  0
   11.1254  -19.4469   19.5440 C   0  0  0  0  0  0  0  0  0  0  0  0
    9.9573  -18.5376   19.4852 C   0  0  0  0  0  0  0  0  0  0  0  0
   10.2656  -17.0802   19.2837 C   0  0  2  0  0  0  0  0  0  0  0  0
   11.5952  -16.9135   18.7973 N   0  0  0  0  0  0  0  0  0  0  0  0
    9.8232  -16.1912   20.3434 C   0  0  0  0  0  0  0  0  0  0  0  0
   10.7299  -15.6863   21.0770 O   0  0  0  0  0  0  0  0  0  0  0  0
   10.5640  -22.1816   19.1928 N   0  0  0  0  0  0  0  0  0  0  0  0
    8.4716  -15.8135   20.6662 C   0  0  0  0  0  0  0  0  0  0  0  0
    7.3487  -16.2048   19.8662 C   0  0  0  0  0  0  0  0  0  0  0  0
    6.2513  -15.2109   20.2246 C   0  0  0  0  0  0  0  0  0  0  0  0
    6.5833  -14.7700   21.6181 C   0  0  2  0  0  0  0  0  0  0  0  0
    8.0407  -15.0190   21.7601 C   0  0  0  0  0  0  0  0  0  0  0  0
    8.3403  -15.6433   23.0846 O   0  0  0  0  0  0  0  0  0  0  0  0
    8.4025  -16.8885   23.1368 C   0  0  0  0  0  0  0  0  0  0  0  0
   10.7979  -13.9057   30.3220 S   0  0  0  0  0  0  0  0  0  0  0  0
    9.6199  -13.4099   29.0382 C   0  0  0  0  0  0  0  0  0  0  0  0
    9.2490  -14.7755   27.9068 C   0  0  0  0  0  0  0  0  0  0  0  0
    9.0244  -14.2574   26.4901 C   0  0  1  0  0  0  0  0  0  0  0  0
    8.7909  -15.4123   25.5523 N   0  0  0  0  0  0  0  0  0  0  0  0
    8.5462  -14.8671   24.2293 C   0  0  0  0  0  0  0  0  0  0  0  0
    7.5931  -16.1532   26.0534 O   0  0  0  0  0  0  0  0  0  0  0  0
    6.4412  -15.8443   25.6606 O   0  0  0  0  0  0  0  0  0  0  0  0
  2  1  1  0
  3  2  2  0
  4  2  1  0
  5  6  1  0
  5  4  1  0
  6  7  1  0
  7  8  1  0
  8  9  1  1
 10  8  1  0
 11 10  2  0
 12 10  1  0
 12 16  1  0
 13 14  1  0
 13 12  1  0
 14 15  1  0
 15 16  1  0
 16 17  1  1
 17 18  2  0
 19 20  1  0
 20 21  1  0
 21 22  1  0
 23 22  1  6
 23 24  1  0
 23 25  1  0
 24 17  1  0
 25 27  1  0
 26 25  2  0
M  END
$$$$
