RPM.pdb
     RDKit          3D

 27 27  0  0  1  0  0  0  0  0999 V2000
    8.0121  -13.9563   17.4028 N   0  0  0  0  0  0  0  0  0  0  0  0
    8.4397  -13.2814   18.5719 C   0  0  0  0  0  0  0  0  0  0  0  0
    8.3945  -11.9762   18.6115 N   0  0  0  0  0  0  0  0  0  0  0  0
    8.9253  -13.9573   19.7281 N   0  0  0  0  0  0  0  0  0  0  0  0
    8.8548  -15.4186   19.8413 C   0  0  0  0  0  0  0  0  0  0  0  0
    7.4951  -15.8548   20.2972 C   0  0  0  0  0  0  0  0  0  0  0  0
    7.3794  -17.3135   20.5283 C   0  0  0  0  0  0  0  0  0  0  0  0
    6.1779  -17.7638   21.3115 C   0  0  2  0  0  0  0  0  0  0  0  0
    4.9787  -17.2921   20.7017 N   0  0  0  0  0  0  0  0  0  0  0  0
    6.2872  -17.6457   22.7548 C   0  0  0  0  0  0  0  0  0  0  0  0
    5.9585  -16.5267   23.2598 O   0  0  0  0  0  0  0  0  0  0  0  0
    8.7276  -11.4677   19.4794 N   0  0  0  0  0  0  0  0  0  0  0  0
    6.7291  -18.6500   23.6874 C   0  0  0  0  0  0  0  0  0  0  0  0
    6.9932  -20.0034   23.2968 C   0  0  0  0  0  0  0  0  0  0  0  0
    6.9119  -20.8038   24.5905 C   0  0  0  0  0  0  0  0  0  0  0  0
    7.2615  -19.8191   25.6649 C   0  0  2  0  0  0  0  0  0  0  0  0
    6.9513  -18.4896   25.0796 C   0  0  0  0  0  0  0  0  0  0  0  0
    8.0417  -17.5140   25.3849 O   0  0  0  0  0  0  0  0  0  0  0  0
    9.0536  -17.5297   24.6548 C   0  0  0  0  0  0  0  0  0  0  0  0
    6.1225  -11.4613   24.9446 S   0  0  0  0  0  0  0  0  0  0  0  0
    6.8520  -12.2427   26.4071 C   0  0  0  0  0  0  0  0  0  0  0  0
    7.8113  -13.7163   25.9702 C   0  0  0  0  0  0  0  0  0  0  0  0
    8.3653  -14.3906   27.2209 C   0  0  2  0  0  0  0  0  0  0  0  0
    8.9990  -15.7072   26.8562 N   0  0  0  0  0  0  0  0  0  0  0  0
    7.9393  -16.6116   26.4481 C   0  0  0  0  0  0  0  0  0  0  0  0
    9.6935  -16.2167   28.0780 O   0  0  0  0  0  0  0  0  0  0  0  0
    9.1715  -17.1174   28.7801 O   0  0  0  0  0  0  0  0  0  0  0  0
  2  1  1  0
  3  2  2  0
  4  2  1  0
  5  6  1  0
  5  4  1  0
  6  7  1  0
  7  8  1  0
  8  9  1  6
 10  8  1  0
 11 10  2  0
 12 10  1  0
 12 16  1  0
 13 14  1  0
 13 12  1  0
 14 15  1  0
 15 16  1  0
 16 17  1  6
 17 18  2  0
 19 20  1  0
 20 21  1  0
 21 22  1  0
 23 22  1  6
 23 24  1  0
 23 25  1  0
 24 17  1  0
 25 27  1  0
 26 25  2  0
M  END
$$$$
