RPM.pdb
     RDKit          3D

 27 27  0  0  1  0  0  0  0  0999 V2000
    7.6114  -20.2114   15.2741 N   0  0  0  0  0  0  0  0  0  0  0  0
    6.9996  -21.2613   16.0011 C   0  0  0  0  0  0  0  0  0  0  0  0
    6.8875  -22.4413   15.4513 N   0  0  0  0  0  0  0  0  0  0  0  0
    6.4901  -21.1006   17.3217 N   0  0  0  0  0  0  0  0  0  0  0  0
    6.6818  -19.8499   18.0646 C   0  0  0  0  0  0  0  0  0  0  0  0
    8.1148  -19.4129   18.0159 C   0  0  0  0  0  0  0  0  0  0  0  0
    8.5520  -18.6560   19.2118 C   0  0  0  0  0  0  0  0  0  0  0  0
    9.2364  -17.3438   18.9480 C   0  0  2  0  0  0  0  0  0  0  0  0
   10.3638  -17.5309   18.0958 N   0  0  0  0  0  0  0  0  0  0  0  0
    9.4049  -16.4788   20.1023 C   0  0  0  0  0  0  0  0  0  0  0  0
   10.5607  -16.4546   20.6302 O   0  0  0  0  0  0  0  0  0  0  0  0
    6.5174  -23.2519   16.0245 N   0  0  0  0  0  0  0  0  0  0  0  0
    8.4122  -15.6425   20.7258 C   0  0  0  0  0  0  0  0  0  0  0  0
    7.1131  -15.4321   20.1582 C   0  0  0  0  0  0  0  0  0  0  0  0
    6.6123  -14.1450   20.8009 C   0  0  0  0  0  0  0  0  0  0  0  0
    7.3256  -14.0795   22.1175 C   0  0  2  0  0  0  0  0  0  0  0  0
    8.5441  -14.9086   21.9330 C   0  0  0  0  0  0  0  0  0  0  0  0
    8.7688  -15.7843   23.1232 O   0  0  0  0  0  0  0  0  0  0  0  0
    9.7692  -16.5300   23.1126 C   0  0  0  0  0  0  0  0  0  0  0  0
    9.3964  -13.0918   29.4201 S   0  0  0  0  0  0  0  0  0  0  0  0
   10.4518  -14.0875   28.3354 C   0  0  0  0  0  0  0  0  0  0  0  0
    9.5303  -15.4454   27.5675 C   0  0  0  0  0  0  0  0  0  0  0  0
    9.1476  -15.0955   26.1333 C   0  0  1  0  0  0  0  0  0  0  0  0
    8.2644  -16.1724   25.5605 N   0  0  0  0  0  0  0  0  0  0  0  0
    7.8947  -15.7736   24.2146 C   0  0  0  0  0  0  0  0  0  0  0  0
    7.0583  -16.2679   26.4385 O   0  0  0  0  0  0  0  0  0  0  0  0
    7.0145  -17.1042   27.3742 O   0  0  0  0  0  0  0  0  0  0  0  0
  2  1  1  0
  3  2  2  0
  4  2  1  0
  5  6  1  0
  5  4  1  0
  6  7  1  0
  7  8  1  0
  8  9  1  1
 10  8  1  0
 11 10  2  0
 12 10  1  0
 12 16  1  0
 13 14  1  0
 13 12  1  0
 14 15  1  0
 15 16  1  0
 16 17  1  1
 17 18  2  0
 19 20  1  0
 20 21  1  0
 21 22  1  0
 23 22  1  6
 23 24  1  0
 23 25  1  0
 24 17  1  0
 25 27  1  0
 26 25  2  0
M  END
$$$$
