QPG.pdb
     RDKit          3D

 21 21  0  0  1  0  0  0  0  0999 V2000
   12.2149  -19.8210    1.4349 N   0  0  0  0  0  0  0  0  0  0  0  0
   12.1906  -18.4308    1.7683 C   0  0  0  0  0  0  0  0  0  0  0  0
   11.3117  -17.7360    1.1997 O   0  0  0  0  0  0  0  0  0  0  0  0
   13.1441  -17.8278    2.7308 C   0  0  0  0  0  0  0  0  0  0  0  0
   14.0248  -18.9187    3.2659 C   0  0  0  0  0  0  0  0  0  0  0  0
   15.1139  -18.3608    4.1811 C   0  0  2  0  0  0  0  0  0  0  0  0
   15.7951  -17.2607    3.5589 N   0  0  0  0  0  0  0  0  0  0  0  0
   15.9572  -19.4961    4.5491 C   0  0  0  0  0  0  0  0  0  0  0  0
   17.1119  -19.5027    3.9595 O   0  0  0  0  0  0  0  0  0  0  0  0
   15.7079  -20.5530    5.4249 N   0  0  0  0  0  0  0  0  0  0  0  0
   14.4241  -20.8410    6.0277 C   0  0  0  0  0  0  0  0  0  0  0  0
   14.8159  -21.1820    7.4475 C   0  0  0  0  0  0  0  0  0  0  0  0
   16.2477  -21.6505    7.3787 C   0  0  0  0  0  0  0  0  0  0  0  0
   16.6114  -21.5488    5.8890 C   0  0  1  0  0  0  0  0  0  0  0  0
   16.3340  -22.9096    5.3237 C   0  0  0  0  0  0  0  0  0  0  0  0
   15.2847  -23.2127    4.7145 O   0  0  0  0  0  0  0  0  0  0  0  0
   17.3620  -23.8809    5.5202 N   0  0  0  0  0  0  0  0  0  0  0  0
   18.3025  -24.1679    4.4735 C   0  0  0  0  0  0  0  0  0  0  0  0
   17.5886  -24.7795    3.3224 C   0  0  0  0  0  0  0  0  0  0  0  0
   17.6282  -26.0417    3.1969 O   0  0  0  0  0  0  0  0  0  0  0  0
   16.8913  -24.0417    2.3930 O   0  0  0  0  0  0  0  0  0  0  0  0
  2  1  1  0
  3  2  2  0
  4  2  1  0
  5  4  1  0
  6  5  1  0
  6  7  1  6
  6  8  1  0
  8  9  2  0
 10  8  1  0
 10 14  1  0
 11 10  1  0
 12 11  1  0
 12 13  1  0
 13 14  1  0
 14 15  1  6
 15 16  2  0
 15 17  1  0
 17 18  1  0
 18 19  1  0
 19 21  1  0
 20 19  2  0
M  END
$$$$
