QPG.pdb
     RDKit          3D

 21 21  0  0  1  0  0  0  0  0999 V2000
   21.2299  -20.2303  -15.7216 N   0  0  0  0  0  0  0  0  0  0  0  0
   20.6132  -21.3833  -15.1430 C   0  0  0  0  0  0  0  0  0  0  0  0
   19.4196  -21.6007  -15.4698 O   0  0  0  0  0  0  0  0  0  0  0  0
   21.3304  -22.2825  -14.2071 C   0  0  0  0  0  0  0  0  0  0  0  0
   22.7660  -21.8493  -14.1464 C   0  0  0  0  0  0  0  0  0  0  0  0
   23.0514  -21.0322  -12.8870 C   0  0  2  0  0  0  0  0  0  0  0  0
   21.8539  -20.4135  -12.3928 N   0  0  0  0  0  0  0  0  0  0  0  0
   24.1362  -20.1163  -13.2334 C   0  0  0  0  0  0  0  0  0  0  0  0
   23.7364  -18.9167  -13.5196 O   0  0  0  0  0  0  0  0  0  0  0  0
   25.5119  -20.3382  -13.2995 N   0  0  0  0  0  0  0  0  0  0  0  0
   26.1602  -21.5988  -13.0079 C   0  0  0  0  0  0  0  0  0  0  0  0
   27.3653  -21.1527  -12.2115 C   0  0  0  0  0  0  0  0  0  0  0  0
   27.6316  -19.7284  -12.6299 C   0  0  0  0  0  0  0  0  0  0  0  0
   26.5384  -19.4245  -13.6664 C   0  0  1  0  0  0  0  0  0  0  0  0
   27.1603  -19.7350  -14.9950 C   0  0  0  0  0  0  0  0  0  0  0  0
   27.1730  -20.8738  -15.5117 O   0  0  0  0  0  0  0  0  0  0  0  0
   27.7604  -18.6287  -15.6693 N   0  0  0  0  0  0  0  0  0  0  0  0
   26.9574  -17.5238  -16.1132 C   0  0  0  0  0  0  0  0  0  0  0  0
   26.4584  -17.7964  -17.4863 C   0  0  0  0  0  0  0  0  0  0  0  0
   25.4835  -18.5977  -17.6198 O   0  0  0  0  0  0  0  0  0  0  0  0
   27.0039  -17.2216  -18.6116 O   0  0  0  0  0  0  0  0  0  0  0  0
  2  1  1  0
  3  2  2  0
  4  2  1  0
  5  4  1  0
  6  5  1  0
  6  7  1  6
  6  8  1  0
  8  9  2  0
 10  8  1  0
 10 14  1  0
 11 10  1  0
 12 11  1  0
 12 13  1  0
 13 14  1  0
 14 15  1  6
 15 16  2  0
 15 17  1  0
 17 18  1  0
 18 19  1  0
 19 21  1  0
 20 19  2  0
M  END
$$$$
