QPG.pdb
     RDKit          3D

 21 21  0  0  1  0  0  0  0  0999 V2000
   28.7654  -19.8434  -16.6207 N   0  0  0  0  0  0  0  0  0  0  0  0
   27.4633  -19.2528  -16.6027 C   0  0  0  0  0  0  0  0  0  0  0  0
   27.1100  -18.6493  -17.6466 O   0  0  0  0  0  0  0  0  0  0  0  0
   26.5677  -19.3396  -15.4240 C   0  0  0  0  0  0  0  0  0  0  0  0
   27.3328  -19.9711  -14.2979 C   0  0  0  0  0  0  0  0  0  0  0  0
   27.0336  -21.4654  -14.1864 C   0  0  2  0  0  0  0  0  0  0  0  0
   27.2294  -22.1248  -15.4467 N   0  0  0  0  0  0  0  0  0  0  0  0
   25.6891  -21.5703  -13.6234 C   0  0  0  0  0  0  0  0  0  0  0  0
   24.8900  -22.3218  -14.3144 O   0  0  0  0  0  0  0  0  0  0  0  0
   25.1495  -20.9926  -12.4740 N   0  0  0  0  0  0  0  0  0  0  0  0
   25.7932  -19.9625  -11.6871 C   0  0  0  0  0  0  0  0  0  0  0  0
   25.5111  -20.4263  -10.2760 C   0  0  0  0  0  0  0  0  0  0  0  0
   24.2698  -21.2784  -10.3626 C   0  0  0  0  0  0  0  0  0  0  0  0
   23.8979  -21.2604  -11.8536 C   0  0  1  0  0  0  0  0  0  0  0  0
   22.9132  -20.1389  -11.9988 C   0  0  0  0  0  0  0  0  0  0  0  0
   23.2361  -18.9450  -12.1838 O   0  0  0  0  0  0  0  0  0  0  0  0
   21.5373  -20.5107  -11.9130 N   0  0  0  0  0  0  0  0  0  0  0  0
   20.5610  -19.8913  -12.7650 C   0  0  0  0  0  0  0  0  0  0  0  0
   20.0846  -20.8782  -13.7689 C   0  0  0  0  0  0  0  0  0  0  0  0
   20.9453  -21.4260  -14.5236 O   0  0  0  0  0  0  0  0  0  0  0  0
   18.7598  -21.2215  -13.9146 O   0  0  0  0  0  0  0  0  0  0  0  0
  2  1  1  0
  3  2  2  0
  4  2  1  0
  5  4  1  0
  6  5  1  0
  6  7  1  6
  6  8  1  0
  8  9  2  0
 10  8  1  0
 10 14  1  0
 11 10  1  0
 12 11  1  0
 12 13  1  0
 13 14  1  0
 14 15  1  1
 15 16  2  0
 15 17  1  0
 17 18  1  0
 18 19  1  0
 19 21  1  0
 20 19  2  0
M  END
$$$$
