QPG.pdb
     RDKit          3D

 21 21  0  0  1  0  0  0  0  0999 V2000
   24.5903  -20.4577   -9.1278 N   0  0  0  0  0  0  0  0  0  0  0  0
   26.0195  -20.4427   -9.1679 C   0  0  0  0  0  0  0  0  0  0  0  0
   26.6000  -19.9290   -8.1791 O   0  0  0  0  0  0  0  0  0  0  0  0
   26.7882  -20.9991  -10.3074 C   0  0  0  0  0  0  0  0  0  0  0  0
   25.8131  -21.5090  -11.3279 C   0  0  0  0  0  0  0  0  0  0  0  0
   25.0410  -20.3656  -11.9848 C   0  0  2  0  0  0  0  0  0  0  0  0
   23.6366  -20.4647  -11.7033 N   0  0  0  0  0  0  0  0  0  0  0  0
   25.4024  -20.3911  -13.4005 C   0  0  0  0  0  0  0  0  0  0  0  0
   24.3870  -20.5126  -14.1974 O   0  0  0  0  0  0  0  0  0  0  0  0
   26.6548  -20.3050  -14.0091 N   0  0  0  0  0  0  0  0  0  0  0  0
   27.9180  -20.3041  -13.3029 C   0  0  0  0  0  0  0  0  0  0  0  0
   28.6878  -19.2335  -14.0423 C   0  0  0  0  0  0  0  0  0  0  0  0
   28.0761  -19.1625  -15.4190 C   0  0  0  0  0  0  0  0  0  0  0  0
   26.9601  -20.2188  -15.3957 C   0  0  1  0  0  0  0  0  0  0  0  0
   27.5887  -21.4657  -15.9420 C   0  0  0  0  0  0  0  0  0  0  0  0
   28.1236  -22.3468  -15.2338 O   0  0  0  0  0  0  0  0  0  0  0  0
   27.5471  -21.6065  -17.3623 N   0  0  0  0  0  0  0  0  0  0  0  0
   26.3873  -21.1928  -18.1015 C   0  0  0  0  0  0  0  0  0  0  0  0
   25.5171  -22.3707  -18.3545 C   0  0  0  0  0  0  0  0  0  0  0  0
   24.8874  -22.4232  -19.4551 O   0  0  0  0  0  0  0  0  0  0  0  0
   25.3654  -23.3999  -17.4534 O   0  0  0  0  0  0  0  0  0  0  0  0
  2  1  1  0
  3  2  2  0
  4  2  1  0
  5  4  1  0
  6  5  1  0
  6  7  1  6
  6  8  1  0
  8  9  2  0
 10  8  1  0
 10 14  1  0
 11 10  1  0
 12 11  1  0
 12 13  1  0
 13 14  1  0
 14 15  1  1
 15 16  2  0
 15 17  1  0
 17 18  1  0
 18 19  1  0
 19 21  1  0
 20 19  2  0
M  END
$$$$
