QPG.pdb
     RDKit          3D

 21 21  0  0  1  0  0  0  0  0999 V2000
   24.0155  -25.9599  -14.4946 N   0  0  0  0  0  0  0  0  0  0  0  0
   22.9433  -25.1599  -14.9995 C   0  0  0  0  0  0  0  0  0  0  0  0
   22.0247  -25.7725  -15.5992 O   0  0  0  0  0  0  0  0  0  0  0  0
   22.9039  -23.6870  -14.8323 C   0  0  0  0  0  0  0  0  0  0  0  0
   24.1166  -23.2699  -14.0527 C   0  0  0  0  0  0  0  0  0  0  0  0
   23.7499  -22.3215  -12.9120 C   0  0  2  0  0  0  0  0  0  0  0  0
   22.3614  -22.4433  -12.5678 N   0  0  0  0  0  0  0  0  0  0  0  0
   24.1789  -20.9904  -13.3358 C   0  0  0  0  0  0  0  0  0  0  0  0
   23.2394  -20.0982  -13.2875 O   0  0  0  0  0  0  0  0  0  0  0  0
   25.4262  -20.5467  -13.7756 N   0  0  0  0  0  0  0  0  0  0  0  0
   26.5784  -21.3969  -13.9857 C   0  0  0  0  0  0  0  0  0  0  0  0
   27.6940  -20.5600  -13.4021 C   0  0  0  0  0  0  0  0  0  0  0  0
   27.2205  -19.1303  -13.4797 C   0  0  0  0  0  0  0  0  0  0  0  0
   25.8249  -19.2244  -14.1161 C   0  0  1  0  0  0  0  0  0  0  0  0
   26.0505  -19.0343  -15.5863 C   0  0  0  0  0  0  0  0  0  0  0  0
   26.3665  -19.9563  -16.3699 O   0  0  0  0  0  0  0  0  0  0  0  0
   25.8816  -17.7013  -16.0693 N   0  0  0  0  0  0  0  0  0  0  0  0
   25.2879  -17.4623  -17.3551 C   0  0  0  0  0  0  0  0  0  0  0  0
   24.1071  -16.5740  -17.1962 C   0  0  0  0  0  0  0  0  0  0  0  0
   23.0212  -17.0902  -16.7902 O   0  0  0  0  0  0  0  0  0  0  0  0
   24.1397  -15.2253  -17.4684 O   0  0  0  0  0  0  0  0  0  0  0  0
  2  1  1  0
  3  2  2  0
  4  2  1  0
  5  4  1  0
  6  5  1  0
  6  7  1  6
  6  8  1  0
  8  9  2  0
 10  8  1  0
 10 14  1  0
 11 10  1  0
 12 11  1  0
 12 13  1  0
 13 14  1  0
 14 15  1  6
 15 16  2  0
 15 17  1  0
 17 18  1  0
 18 19  1  0
 19 21  1  0
 20 19  2  0
M  END
$$$$
