QPG.pdb
     RDKit          3D

 21 21  0  0  1  0  0  0  0  0999 V2000
   16.9170  -12.3928  -14.4266 N   0  0  0  0  0  0  0  0  0  0  0  0
   16.2533  -12.2324  -15.6828 C   0  0  0  0  0  0  0  0  0  0  0  0
   15.1784  -12.8660  -15.8308 O   0  0  0  0  0  0  0  0  0  0  0  0
   16.7919  -11.3690  -16.7614 C   0  0  0  0  0  0  0  0  0  0  0  0
   18.0067  -10.6622  -16.2352 C   0  0  0  0  0  0  0  0  0  0  0  0
   19.2699  -11.0885  -16.9819 C   0  0  2  0  0  0  0  0  0  0  0  0
   19.4854  -12.5029  -16.8627 N   0  0  0  0  0  0  0  0  0  0  0  0
   20.3479  -10.2426  -16.4739 C   0  0  0  0  0  0  0  0  0  0  0  0
   21.0526  -10.7990  -15.5387 O   0  0  0  0  0  0  0  0  0  0  0  0
   20.7234   -8.9499  -16.8403 N   0  0  0  0  0  0  0  0  0  0  0  0
   20.0688   -8.1571  -17.8588 C   0  0  0  0  0  0  0  0  0  0  0  0
   21.2464   -7.5373  -18.5761 C   0  0  0  0  0  0  0  0  0  0  0  0
   22.3760   -7.5219  -17.5770 C   0  0  0  0  0  0  0  0  0  0  0  0
   21.7739   -8.1505  -16.3105 C   0  0  1  0  0  0  0  0  0  0  0  0
   21.2826   -6.9931  -15.4935 C   0  0  0  0  0  0  0  0  0  0  0  0
   20.1835   -6.4251  -15.6764 O   0  0  0  0  0  0  0  0  0  0  0  0
   22.1606   -6.5522  -14.4575 N   0  0  0  0  0  0  0  0  0  0  0  0
   21.7037   -5.6233  -13.4619 C   0  0  0  0  0  0  0  0  0  0  0  0
   21.8981   -4.2351  -13.9558 C   0  0  0  0  0  0  0  0  0  0  0  0
   22.4756   -4.0740  -15.0742 O   0  0  0  0  0  0  0  0  0  0  0  0
   21.4818   -3.1244  -13.2577 O   0  0  0  0  0  0  0  0  0  0  0  0
  2  1  1  0
  3  2  2  0
  4  2  1  0
  5  4  1  0
  6  5  1  0
  6  7  1  1
  6  8  1  0
  8  9  2  0
 10  8  1  0
 10 14  1  0
 11 10  1  0
 12 11  1  0
 12 13  1  0
 13 14  1  0
 14 15  1  1
 15 16  2  0
 15 17  1  0
 17 18  1  0
 18 19  1  0
 19 21  1  0
 20 19  2  0
M  END
$$$$
