WIA.pdb
     RDKit          3D

 28 29  0  0  1  0  0  0  0  0999 V2000
   23.5243  -20.5614  -13.8979 N   0  0  0  0  0  0  0  0  0  0  0  0
   22.4712  -20.1950  -12.9806 C   0  0  1  0  0  0  0  0  0  0  0  0
   21.1139  -20.0854  -13.6346 C   0  0  0  0  0  0  0  0  0  0  0  0
   21.1176  -18.9601  -14.6024 C   0  0  0  0  0  0  0  0  0  0  0  0
   20.7173  -17.6674  -14.3689 C   0  0  0  0  0  0  0  0  0  0  0  0
   20.8423  -16.9574  -15.4917 N   0  0  0  0  0  0  0  0  0  0  0  0
   21.3133  -17.7317  -16.4678 C   0  0  0  0  0  0  0  0  0  0  0  0
   21.6174  -17.4569  -17.8035 C   0  0  0  0  0  0  0  0  0  0  0  0
   22.1027  -18.4444  -18.6006 C   0  0  0  0  0  0  0  0  0  0  0  0
   22.2938  -19.7093  -18.0931 C   0  0  0  0  0  0  0  0  0  0  0  0
   21.9905  -19.9815  -16.7636 C   0  0  0  0  0  0  0  0  0  0  0  0
   21.4986  -18.9942  -15.9473 C   0  0  0  0  0  0  0  0  0  0  0  0
   22.4827  -21.1493  -11.8580 C   0  0  0  0  0  0  0  0  0  0  0  0
   22.5565  -22.3779  -12.0507 O   0  0  0  0  0  0  0  0  0  0  0  0
   25.8045  -20.1352   -8.0743 C   0  0  0  0  0  0  0  0  0  0  0  0
   24.8539  -20.8306   -9.0580 C   0  0  0  0  0  0  0  0  0  0  0  0
   23.4942  -20.9340   -8.4554 C   0  0  2  0  0  0  0  0  0  0  0  0
   23.5838  -21.6489   -7.1347 C   0  0  0  0  0  0  0  0  0  0  0  0
   22.4532  -21.5276   -9.3756 C   0  0  2  0  0  0  0  0  0  0  0  0
   22.4101  -20.6523  -10.5361 N   0  0  0  0  0  0  0  0  0  0  0  0
   21.1415  -21.7300   -8.7510 C   0  0  0  0  0  0  0  0  0  0  0  0
   20.4193  -20.7446   -8.4176 O   0  0  0  0  0  0  0  0  0  0  0  0
   18.6225  -24.4747   -8.3515 C   0  0  0  0  0  0  0  0  0  0  0  0
   19.3316  -23.2508   -7.8529 C   0  0  2  0  0  0  0  0  0  0  0  0
   20.6119  -23.0235   -8.4882 N   0  0  0  0  0  0  0  0  0  0  0  0
   19.5429  -23.3780   -6.3689 C   0  0  0  0  0  0  0  0  0  0  0  0
   20.6753  -23.5685   -5.9057 O   0  0  0  0  0  0  0  0  0  0  0  0
   18.4774  -23.2854   -5.4843 O   0  0  0  0  0  0  0  0  0  0  0  0
  2  1  1  6
  3  2  1  0
  4  3  1  0
  4  5  2  0
  6  5  1  0
  7  6  1  0
  8  7  2  0
  9  8  1  0
 10  9  2  0
 10 11  1  0
 11 12  2  0
 12  7  1  0
 12  4  1  0
 13 20  1  0
 13  2  1  0
 14 13  2  0
 15 16  1  0
 16 17  1  0
 17 19  1  0
 17 18  1  1
 19 21  1  0
 19 20  1  6
 21 22  2  0
 24 23  1  6
 25 24  1  0
 25 21  1  0
 26 24  1  0
 26 28  1  0
 27 26  2  0
M  END
$$$$
