WIA.pdb
     RDKit          3D

 28 29  0  0  1  0  0  0  0  0999 V2000
   27.7212  -20.2013  -16.1524 N   0  0  0  0  0  0  0  0  0  0  0  0
   26.7731  -19.5601  -15.2723 C   0  0  1  0  0  0  0  0  0  0  0  0
   25.7283  -18.7482  -16.0014 C   0  0  0  0  0  0  0  0  0  0  0  0
   26.3759  -17.5960  -16.6768 C   0  0  0  0  0  0  0  0  0  0  0  0
   26.5588  -17.4252  -18.0271 C   0  0  0  0  0  0  0  0  0  0  0  0
   27.2049  -16.2778  -18.2428 N   0  0  0  0  0  0  0  0  0  0  0  0
   27.4597  -15.6756  -17.0825 C   0  0  0  0  0  0  0  0  0  0  0  0
   28.0973  -14.4684  -16.7854 C   0  0  0  0  0  0  0  0  0  0  0  0
   28.2206  -14.0726  -15.4915 C   0  0  0  0  0  0  0  0  0  0  0  0
   27.7189  -14.8582  -14.4789 C   0  0  0  0  0  0  0  0  0  0  0  0
   27.0848  -16.0595  -14.7760 C   0  0  0  0  0  0  0  0  0  0  0  0
   26.9540  -16.4724  -16.0781 C   0  0  0  0  0  0  0  0  0  0  0  0
   26.1818  -20.5898  -14.4000 C   0  0  0  0  0  0  0  0  0  0  0  0
   25.9488  -21.7399  -14.8185 O   0  0  0  0  0  0  0  0  0  0  0  0
   26.8177  -20.6769   -8.9782 C   0  0  0  0  0  0  0  0  0  0  0  0
   26.5666  -21.1025  -10.4310 C   0  0  0  0  0  0  0  0  0  0  0  0
   25.1907  -20.7012  -10.8419 C   0  0  2  0  0  0  0  0  0  0  0  0
   24.1885  -21.3059   -9.8968 C   0  0  0  0  0  0  0  0  0  0  0  0
   24.8726  -20.9787  -12.2926 C   0  0  2  0  0  0  0  0  0  0  0  0
   25.8767  -20.2587  -13.0594 N   0  0  0  0  0  0  0  0  0  0  0  0
   23.4972  -20.6493  -12.6819 C   0  0  0  0  0  0  0  0  0  0  0  0
   23.0655  -19.4612  -12.6071 O   0  0  0  0  0  0  0  0  0  0  0  0
   20.6623  -22.2001  -14.5968 C   0  0  0  0  0  0  0  0  0  0  0  0
   21.2041  -21.3421  -13.4923 C   0  0  2  0  0  0  0  0  0  0  0  0
   22.5830  -21.6287  -13.1591 N   0  0  0  0  0  0  0  0  0  0  0  0
   20.3585  -21.5348  -12.2632 C   0  0  0  0  0  0  0  0  0  0  0  0
   20.7774  -22.1984  -11.3054 O   0  0  0  0  0  0  0  0  0  0  0  0
   19.0915  -20.9754  -12.1720 O   0  0  0  0  0  0  0  0  0  0  0  0
  2  1  1  6
  3  2  1  0
  4  3  1  0
  4  5  2  0
  6  5  1  0
  7  6  1  0
  8  7  2  0
  9  8  1  0
 10  9  2  0
 10 11  1  0
 11 12  2  0
 12  7  1  0
 12  4  1  0
 13 20  1  0
 13  2  1  0
 14 13  2  0
 15 16  1  0
 16 17  1  0
 17 19  1  0
 17 18  1  1
 19 21  1  0
 19 20  1  6
 21 22  2  0
 24 23  1  6
 25 24  1  0
 25 21  1  0
 26 24  1  0
 26 28  1  0
 27 26  2  0
M  END
$$$$
