WIA.pdb
     RDKit          3D

 28 29  0  0  1  0  0  0  0  0999 V2000
   25.8052  -19.8232  -18.3405 N   0  0  0  0  0  0  0  0  0  0  0  0
   25.6706  -19.1366  -17.0776 C   0  0  1  0  0  0  0  0  0  0  0  0
   24.9176  -17.8309  -17.1791 C   0  0  0  0  0  0  0  0  0  0  0  0
   25.5703  -16.9575  -18.1863 C   0  0  0  0  0  0  0  0  0  0  0  0
   24.9655  -16.3114  -19.2364 C   0  0  0  0  0  0  0  0  0  0  0  0
   25.8876  -15.6460  -19.9346 N   0  0  0  0  0  0  0  0  0  0  0  0
   27.0882  -15.8250  -19.3864 C   0  0  0  0  0  0  0  0  0  0  0  0
   28.3496  -15.3388  -19.7391 C   0  0  0  0  0  0  0  0  0  0  0  0
   29.4335  -15.6726  -18.9907 C   0  0  0  0  0  0  0  0  0  0  0  0
   29.2878  -16.4860  -17.8901 C   0  0  0  0  0  0  0  0  0  0  0  0
   28.0318  -16.9694  -17.5404 C   0  0  0  0  0  0  0  0  0  0  0  0
   26.9285  -16.6414  -18.2877 C   0  0  0  0  0  0  0  0  0  0  0  0
   25.0635  -20.0655  -16.1083 C   0  0  0  0  0  0  0  0  0  0  0  0
   24.3787  -21.0372  -16.4811 O   0  0  0  0  0  0  0  0  0  0  0  0
   27.8952  -20.8006  -11.6117 C   0  0  0  0  0  0  0  0  0  0  0  0
   27.0226  -20.9419  -12.8661 C   0  0  0  0  0  0  0  0  0  0  0  0
   25.6023  -20.6404  -12.5271 C   0  0  2  0  0  0  0  0  0  0  0  0
   25.1595  -21.5225  -11.3917 C   0  0  0  0  0  0  0  0  0  0  0  0
   24.6614  -20.6860  -13.7083 C   0  0  2  0  0  0  0  0  0  0  0  0
   25.2687  -19.8441  -14.7267 N   0  0  0  0  0  0  0  0  0  0  0  0
   23.2789  -20.3108  -13.3926 C   0  0  0  0  0  0  0  0  0  0  0  0
   23.0121  -19.1930  -12.8608 O   0  0  0  0  0  0  0  0  0  0  0  0
   19.8000  -21.5308  -14.2178 C   0  0  0  0  0  0  0  0  0  0  0  0
   20.8026  -20.8225  -13.3561 C   0  0  2  0  0  0  0  0  0  0  0  0
   22.1749  -21.1661  -13.6615 N   0  0  0  0  0  0  0  0  0  0  0  0
   20.5295  -21.1537  -11.9143 C   0  0  0  0  0  0  0  0  0  0  0  0
   21.1622  -22.0505  -11.3410 O   0  0  0  0  0  0  0  0  0  0  0  0
   19.5647  -20.4648  -11.1926 O   0  0  0  0  0  0  0  0  0  0  0  0
  2  1  1  6
  3  2  1  0
  4  3  1  0
  4  5  2  0
  6  5  1  0
  7  6  1  0
  8  7  2  0
  9  8  1  0
 10  9  2  0
 10 11  1  0
 11 12  2  0
 12  7  1  0
 12  4  1  0
 13 20  1  0
 13  2  1  0
 14 13  2  0
 15 16  1  0
 16 17  1  0
 17 19  1  0
 17 18  1  1
 19 21  1  0
 19 20  1  6
 21 22  2  0
 24 23  1  6
 25 24  1  0
 25 21  1  0
 26 24  1  0
 26 28  1  0
 27 26  2  0
M  END
$$$$
