WIA.pdb
     RDKit          3D

 28 29  0  0  1  0  0  0  0  0999 V2000
   27.9395  -20.0203   -9.7504 N   0  0  0  0  0  0  0  0  0  0  0  0
   26.7126  -20.7513   -9.5381 C   0  0  1  0  0  0  0  0  0  0  0  0
   26.1066  -20.5273   -8.1725 C   0  0  0  0  0  0  0  0  0  0  0  0
   27.0667  -19.7849   -7.3181 C   0  0  0  0  0  0  0  0  0  0  0  0
   27.5322  -18.5079   -7.5144 C   0  0  0  0  0  0  0  0  0  0  0  0
   28.4020  -18.2026   -6.5496 N   0  0  0  0  0  0  0  0  0  0  0  0
   28.5333  -19.2321   -5.7148 C   0  0  0  0  0  0  0  0  0  0  0  0
   29.3074  -19.3987   -4.5637 C   0  0  0  0  0  0  0  0  0  0  0  0
   29.2494  -20.5696   -3.8768 C   0  0  0  0  0  0  0  0  0  0  0  0
   28.4311  -21.5861   -4.3141 C   0  0  0  0  0  0  0  0  0  0  0  0
   27.6614  -21.4190   -5.4600 C   0  0  0  0  0  0  0  0  0  0  0  0
   27.7107  -20.2423   -6.1643 C   0  0  0  0  0  0  0  0  0  0  0  0
   25.7817  -20.4202  -10.6311 C   0  0  0  0  0  0  0  0  0  0  0  0
   25.4861  -19.2396  -10.8973 O   0  0  0  0  0  0  0  0  0  0  0  0
   27.1956  -21.9965  -15.0635 C   0  0  0  0  0  0  0  0  0  0  0  0
   26.5280  -21.3251  -13.8559 C   0  0  0  0  0  0  0  0  0  0  0  0
   25.1214  -21.8026  -13.7290 C   0  0  2  0  0  0  0  0  0  0  0  0
   24.4027  -21.5990  -15.0349 C   0  0  0  0  0  0  0  0  0  0  0  0
   24.3749  -21.2221  -12.5506 C   0  0  2  0  0  0  0  0  0  0  0  0
   25.2171  -21.4705  -11.3914 N   0  0  0  0  0  0  0  0  0  0  0  0
   23.0071  -21.7285  -12.3946 C   0  0  0  0  0  0  0  0  0  0  0  0
   22.7667  -22.9717  -12.4098 O   0  0  0  0  0  0  0  0  0  0  0  0
   19.5198  -20.2354  -11.9538 C   0  0  0  0  0  0  0  0  0  0  0  0
   20.5228  -21.3365  -12.1305 C   0  0  2  0  0  0  0  0  0  0  0  0
   21.8890  -20.8673  -12.2191 N   0  0  0  0  0  0  0  0  0  0  0  0
   20.1919  -22.1038  -13.3814 C   0  0  0  0  0  0  0  0  0  0  0  0
   20.7130  -21.8034  -14.4637 O   0  0  0  0  0  0  0  0  0  0  0  0
   19.2972  -23.1645  -13.3541 O   0  0  0  0  0  0  0  0  0  0  0  0
  2  1  1  6
  3  2  1  0
  4  3  1  0
  4  5  2  0
  6  5  1  0
  7  6  1  0
  8  7  2  0
  9  8  1  0
 10  9  2  0
 10 11  1  0
 11 12  2  0
 12  7  1  0
 12  4  1  0
 13 20  1  0
 13  2  1  0
 14 13  2  0
 15 16  1  0
 16 17  1  0
 17 19  1  0
 17 18  1  6
 19 21  1  0
 19 20  1  1
 21 22  2  0
 24 23  1  6
 25 24  1  0
 25 21  1  0
 26 24  1  0
 26 28  1  0
 27 26  2  0
M  END
$$$$
