WIA.pdb
     RDKit          3D

 28 29  0  0  1  0  0  0  0  0999 V2000
   28.6535  -20.8531  -15.2066 N   0  0  0  0  0  0  0  0  0  0  0  0
   27.4168  -20.1877  -14.8716 C   0  0  1  0  0  0  0  0  0  0  0  0
   26.6120  -19.7683  -16.0793 C   0  0  0  0  0  0  0  0  0  0  0  0
   27.2447  -18.5837  -16.7115 C   0  0  0  0  0  0  0  0  0  0  0  0
   27.8626  -18.5317  -17.9368 C   0  0  0  0  0  0  0  0  0  0  0  0
   28.3314  -17.2994  -18.1422 N   0  0  0  0  0  0  0  0  0  0  0  0
   28.0473  -16.5258  -17.0958 C   0  0  0  0  0  0  0  0  0  0  0  0
   28.3154  -15.1788  -16.8394 C   0  0  0  0  0  0  0  0  0  0  0  0
   27.8994  -14.6194  -15.6731 C   0  0  0  0  0  0  0  0  0  0  0  0
   27.2166  -15.3776  -14.7495 C   0  0  0  0  0  0  0  0  0  0  0  0
   26.9506  -16.7181  -15.0058 C   0  0  0  0  0  0  0  0  0  0  0  0
   27.3657  -17.2966  -16.1790 C   0  0  0  0  0  0  0  0  0  0  0  0
   26.6551  -21.0587  -13.9593 C   0  0  0  0  0  0  0  0  0  0  0  0
   26.4374  -22.2543  -14.2335 O   0  0  0  0  0  0  0  0  0  0  0  0
   26.8334  -21.0195   -8.6257 C   0  0  0  0  0  0  0  0  0  0  0  0
   26.5969  -21.4393  -10.0827 C   0  0  0  0  0  0  0  0  0  0  0  0
   25.3121  -20.8612  -10.5703 C   0  0  2  0  0  0  0  0  0  0  0  0
   24.1871  -21.3190   -9.6825 C   0  0  0  0  0  0  0  0  0  0  0  0
   25.0406  -21.1058  -12.0364 C   0  0  2  0  0  0  0  0  0  0  0  0
   26.1657  -20.5194  -12.7471 N   0  0  0  0  0  0  0  0  0  0  0  0
   23.7393  -20.6116  -12.4991 C   0  0  0  0  0  0  0  0  0  0  0  0
   23.5705  -19.3898  -12.7858 O   0  0  0  0  0  0  0  0  0  0  0  0
   21.2748  -21.1620  -14.7036 C   0  0  0  0  0  0  0  0  0  0  0  0
   21.3485  -21.0255  -13.2118 C   0  0  2  0  0  0  0  0  0  0  0  0
   22.6095  -21.4618  -12.6514 N   0  0  0  0  0  0  0  0  0  0  0  0
   20.2385  -21.8292  -12.5913 C   0  0  0  0  0  0  0  0  0  0  0  0
   20.4203  -23.0088  -12.2616 O   0  0  0  0  0  0  0  0  0  0  0  0
   18.9867  -21.2707  -12.3734 O   0  0  0  0  0  0  0  0  0  0  0  0
  2  1  1  6
  3  2  1  0
  4  3  1  0
  4  5  2  0
  6  5  1  0
  7  6  1  0
  8  7  2  0
  9  8  1  0
 10  9  2  0
 10 11  1  0
 11 12  2  0
 12  7  1  0
 12  4  1  0
 13 20  1  0
 13  2  1  0
 14 13  2  0
 15 16  1  0
 16 17  1  0
 17 19  1  0
 17 18  1  1
 19 21  1  0
 19 20  1  6
 21 22  2  0
 24 23  1  6
 25 24  1  0
 25 21  1  0
 26 24  1  0
 26 28  1  0
 27 26  2  0
M  END
$$$$
