WIA.pdb
     RDKit          3D

 28 29  0  0  1  0  0  0  0  0999 V2000
   28.8725  -20.6161  -14.9450 N   0  0  0  0  0  0  0  0  0  0  0  0
   27.6887  -19.9755  -14.4226 C   0  0  1  0  0  0  0  0  0  0  0  0
   26.7797  -19.4230  -15.4953 C   0  0  0  0  0  0  0  0  0  0  0  0
   27.4404  -18.2742  -16.1638 C   0  0  0  0  0  0  0  0  0  0  0  0
   28.2230  -18.3123  -17.2916 C   0  0  0  0  0  0  0  0  0  0  0  0
   28.6587  -17.0816  -17.5676 N   0  0  0  0  0  0  0  0  0  0  0  0
   28.1933  -16.2221  -16.6628 C   0  0  0  0  0  0  0  0  0  0  0  0
   28.3598  -14.8419  -16.5244 C   0  0  0  0  0  0  0  0  0  0  0  0
   27.7569  -14.1906  -15.4955 C   0  0  0  0  0  0  0  0  0  0  0  0
   26.9856  -14.8889  -14.5946 C   0  0  0  0  0  0  0  0  0  0  0  0
   26.8210  -16.2626  -14.7334 C   0  0  0  0  0  0  0  0  0  0  0  0
   27.4248  -16.9336  -15.7670 C   0  0  0  0  0  0  0  0  0  0  0  0
   27.0008  -20.9285  -13.5341 C   0  0  0  0  0  0  0  0  0  0  0  0
   26.8680  -22.1273  -13.8457 O   0  0  0  0  0  0  0  0  0  0  0  0
   26.6779  -20.3205   -8.1141 C   0  0  0  0  0  0  0  0  0  0  0  0
   26.6940  -20.9300   -9.5223 C   0  0  0  0  0  0  0  0  0  0  0  0
   25.4019  -20.6441  -10.2089 C   0  0  2  0  0  0  0  0  0  0  0  0
   24.2653  -21.1830   -9.3836 C   0  0  0  0  0  0  0  0  0  0  0  0
   25.3516  -21.1011  -11.6481 C   0  0  2  0  0  0  0  0  0  0  0  0
   26.4844  -20.4653  -12.3017 N   0  0  0  0  0  0  0  0  0  0  0  0
   24.0730  -20.8420  -12.3186 C   0  0  0  0  0  0  0  0  0  0  0  0
   23.6322  -19.6619  -12.4478 O   0  0  0  0  0  0  0  0  0  0  0  0
   21.5167  -22.7903  -14.3375 C   0  0  0  0  0  0  0  0  0  0  0  0
   21.9700  -21.6627  -13.4584 C   0  0  2  0  0  0  0  0  0  0  0  0
   23.2668  -21.8836  -12.8550 N   0  0  0  0  0  0  0  0  0  0  0  0
   20.9564  -21.4556  -12.3663 C   0  0  0  0  0  0  0  0  0  0  0  0
   21.2188  -21.7581  -11.1947 O   0  0  0  0  0  0  0  0  0  0  0  0
   19.7056  -20.9217  -12.6435 O   0  0  0  0  0  0  0  0  0  0  0  0
  2  1  1  6
  3  2  1  0
  4  3  1  0
  4  5  2  0
  6  5  1  0
  7  6  1  0
  8  7  2  0
  9  8  1  0
 10  9  2  0
 10 11  1  0
 11 12  2  0
 12  7  1  0
 12  4  1  0
 13 20  1  0
 13  2  1  0
 14 13  2  0
 15 16  1  0
 16 17  1  0
 17 19  1  0
 17 18  1  1
 19 21  1  0
 19 20  1  6
 21 22  2  0
 24 23  1  1
 25 24  1  0
 25 21  1  0
 26 24  1  0
 26 28  1  0
 27 26  2  0
M  END
$$$$
