WIA.pdb
     RDKit          3D

 28 29  0  0  1  0  0  0  0  0999 V2000
   26.7896  -17.9771   -8.7844 N   0  0  0  0  0  0  0  0  0  0  0  0
   26.8588  -19.4162   -8.8780 C   0  0  1  0  0  0  0  0  0  0  0  0
   26.3703  -20.1248   -7.6365 C   0  0  0  0  0  0  0  0  0  0  0  0
   27.1101  -19.6205   -6.4526 C   0  0  0  0  0  0  0  0  0  0  0  0
   26.8427  -18.4811   -5.7342 C   0  0  0  0  0  0  0  0  0  0  0  0
   27.7454  -18.3521   -4.7600 N   0  0  0  0  0  0  0  0  0  0  0  0
   28.6067  -19.3672   -4.8024 C   0  0  0  0  0  0  0  0  0  0  0  0
   29.7095  -19.6806   -4.0039 C   0  0  0  0  0  0  0  0  0  0  0  0
   30.4297  -20.8037   -4.2611 C   0  0  0  0  0  0  0  0  0  0  0  0
   30.0732  -21.6281   -5.3038 C   0  0  0  0  0  0  0  0  0  0  0  0
   28.9756  -21.3148   -6.0980 C   0  0  0  0  0  0  0  0  0  0  0  0
   28.2397  -20.1833   -5.8505 C   0  0  0  0  0  0  0  0  0  0  0  0
   26.1349  -19.8363  -10.0907 C   0  0  0  0  0  0  0  0  0  0  0  0
   24.9689  -19.4590  -10.3144 O   0  0  0  0  0  0  0  0  0  0  0  0
   29.8882  -20.5197  -13.8419 C   0  0  0  0  0  0  0  0  0  0  0  0
   28.6627  -20.1087  -13.0149 C   0  0  0  0  0  0  0  0  0  0  0  0
   27.5703  -21.1053  -13.2055 C   0  0  2  0  0  0  0  0  0  0  0  0
   27.2834  -21.2606  -14.6741 C   0  0  0  0  0  0  0  0  0  0  0  0
   26.3291  -20.8261  -12.3905 C   0  0  2  0  0  0  0  0  0  0  0  0
   26.7850  -20.6845  -11.0168 N   0  0  0  0  0  0  0  0  0  0  0  0
   25.2659  -21.8240  -12.5502 C   0  0  0  0  0  0  0  0  0  0  0  0
   25.2553  -22.8821  -11.8546 O   0  0  0  0  0  0  0  0  0  0  0  0
   22.2544  -21.3220  -12.0048 C   0  0  0  0  0  0  0  0  0  0  0  0
   22.8296  -22.0280  -13.1966 C   0  0  2  0  0  0  0  0  0  0  0  0
   24.2014  -21.6640  -13.4796 N   0  0  0  0  0  0  0  0  0  0  0  0
   21.9869  -21.7170  -14.4034 C   0  0  0  0  0  0  0  0  0  0  0  0
   21.0640  -22.4703  -14.7410 O   0  0  0  0  0  0  0  0  0  0  0  0
   22.2218  -20.5816  -15.1663 O   0  0  0  0  0  0  0  0  0  0  0  0
  2  1  1  1
  3  2  1  0
  4  3  1  0
  4  5  2  0
  6  5  1  0
  7  6  1  0
  8  7  2  0
  9  8  1  0
 10  9  2  0
 10 11  1  0
 11 12  2  0
 12  7  1  0
 12  4  1  0
 13 20  1  0
 13  2  1  0
 14 13  2  0
 15 16  1  0
 16 17  1  0
 17 19  1  0
 17 18  1  6
 19 21  1  0
 19 20  1  1
 21 22  2  0
 24 23  1  1
 25 24  1  0
 25 21  1  0
 26 24  1  0
 26 28  1  0
 27 26  2  0
M  END
$$$$
