WIA.pdb
     RDKit          3D

 28 29  0  0  1  0  0  0  0  0999 V2000
   27.8884  -22.4081  -13.2261 N   0  0  0  0  0  0  0  0  0  0  0  0
   26.8865  -21.5122  -12.6987 C   0  0  1  0  0  0  0  0  0  0  0  0
   27.4545  -20.2128  -12.1778 C   0  0  0  0  0  0  0  0  0  0  0  0
   28.1928  -20.4637  -10.9149 C   0  0  0  0  0  0  0  0  0  0  0  0
   29.4983  -20.8701  -10.7871 C   0  0  0  0  0  0  0  0  0  0  0  0
   29.7907  -21.0139   -9.4931 N   0  0  0  0  0  0  0  0  0  0  0  0
   28.7249  -20.7169   -8.7516 C   0  0  0  0  0  0  0  0  0  0  0  0
   28.5321  -20.7084   -7.3679 C   0  0  0  0  0  0  0  0  0  0  0  0
   27.3246  -20.3500   -6.8583 C   0  0  0  0  0  0  0  0  0  0  0  0
   26.2969  -19.9968   -7.7029 C   0  0  0  0  0  0  0  0  0  0  0  0
   26.4901  -20.0059   -9.0798 C   0  0  0  0  0  0  0  0  0  0  0  0
   27.7039  -20.3668   -9.6085 C   0  0  0  0  0  0  0  0  0  0  0  0
   25.8593  -21.3054  -13.7346 C   0  0  0  0  0  0  0  0  0  0  0  0
   26.1472  -20.8269  -14.8482 O   0  0  0  0  0  0  0  0  0  0  0  0
   21.6364  -24.2732  -16.3142 C   0  0  0  0  0  0  0  0  0  0  0  0
   21.9070  -22.8374  -15.8451 C   0  0  0  0  0  0  0  0  0  0  0  0
   23.0400  -22.8301  -14.8760 C   0  0  2  0  0  0  0  0  0  0  0  0
   22.7348  -23.7684  -13.7403 C   0  0  0  0  0  0  0  0  0  0  0  0
   23.4443  -21.4519  -14.4073 C   0  0  2  0  0  0  0  0  0  0  0  0
   24.5204  -21.6620  -13.4520 N   0  0  0  0  0  0  0  0  0  0  0  0
   22.3397  -20.6492  -13.8713 C   0  0  0  0  0  0  0  0  0  0  0  0
   21.8585  -20.8863  -12.7242 O   0  0  0  0  0  0  0  0  0  0  0  0
   20.3615  -17.5666  -14.9284 C   0  0  0  0  0  0  0  0  0  0  0  0
   20.6448  -18.7868  -14.1035 C   0  0  2  0  0  0  0  0  0  0  0  0
   21.7543  -19.5747  -14.5961 N   0  0  0  0  0  0  0  0  0  0  0  0
   19.4140  -19.6512  -14.0697 C   0  0  0  0  0  0  0  0  0  0  0  0
   19.2695  -20.5771  -14.8791 O   0  0  0  0  0  0  0  0  0  0  0  0
   18.4128  -19.4336  -13.1334 O   0  0  0  0  0  0  0  0  0  0  0  0
  2  1  1  6
  3  2  1  0
  4  3  1  0
  4  5  2  0
  6  5  1  0
  7  6  1  0
  8  7  2  0
  9  8  1  0
 10  9  2  0
 10 11  1  0
 11 12  2  0
 12  7  1  0
 12  4  1  0
 13 20  1  0
 13  2  1  0
 14 13  2  0
 15 16  1  0
 16 17  1  0
 17 19  1  0
 17 18  1  1
 19 21  1  0
 19 20  1  1
 21 22  2  0
 24 23  1  6
 25 24  1  0
 25 21  1  0
 26 24  1  0
 26 28  1  0
 27 26  2  0
M  END
$$$$
