WIA.pdb
     RDKit          3D

 28 29  0  0  1  0  0  0  0  0999 V2000
   25.8833  -18.7848   -9.7483 N   0  0  0  0  0  0  0  0  0  0  0  0
   26.3815  -20.0320  -10.2785 C   0  0  1  0  0  0  0  0  0  0  0  0
   26.0946  -21.2209   -9.3917 C   0  0  0  0  0  0  0  0  0  0  0  0
   26.4377  -20.8876   -7.9866 C   0  0  0  0  0  0  0  0  0  0  0  0
   25.5624  -20.6120   -6.9650 C   0  0  0  0  0  0  0  0  0  0  0  0
   26.2519  -20.3316   -5.8574 N   0  0  0  0  0  0  0  0  0  0  0  0
   27.5583  -20.4110   -6.1041 C   0  0  0  0  0  0  0  0  0  0  0  0
   28.6702  -20.2164   -5.2808 C   0  0  0  0  0  0  0  0  0  0  0  0
   29.9205  -20.3714   -5.7898 C   0  0  0  0  0  0  0  0  0  0  0  0
   30.0893  -20.7191   -7.1107 C   0  0  0  0  0  0  0  0  0  0  0  0
   28.9818  -20.9123   -7.9290 C   0  0  0  0  0  0  0  0  0  0  0  0
   27.7132  -20.7580   -7.4288 C   0  0  0  0  0  0  0  0  0  0  0  0
   25.8482  -20.2013  -11.6415 C   0  0  0  0  0  0  0  0  0  0  0  0
   24.6999  -19.8223  -11.9413 O   0  0  0  0  0  0  0  0  0  0  0  0
   29.4900  -18.4176  -14.7143 C   0  0  0  0  0  0  0  0  0  0  0  0
   28.1330  -18.8024  -14.1098 C   0  0  0  0  0  0  0  0  0  0  0  0
   27.7069  -20.1309  -14.6356 C   0  0  2  0  0  0  0  0  0  0  0  0
   27.6935  -20.0943  -16.1396 C   0  0  0  0  0  0  0  0  0  0  0  0
   26.4121  -20.6422  -14.0485 C   0  0  2  0  0  0  0  0  0  0  0  0
   26.6638  -20.8061  -12.6257 N   0  0  0  0  0  0  0  0  0  0  0  0
   25.8965  -21.8558  -14.6913 C   0  0  0  0  0  0  0  0  0  0  0  0
   26.5882  -22.9158  -14.7322 O   0  0  0  0  0  0  0  0  0  0  0  0
   22.6051  -22.9728  -16.2641 C   0  0  0  0  0  0  0  0  0  0  0  0
   24.0396  -23.1208  -15.8517 C   0  0  2  0  0  0  0  0  0  0  0  0
   24.6104  -21.9128  -15.2955 N   0  0  0  0  0  0  0  0  0  0  0  0
   24.8525  -23.5347  -17.0479 C   0  0  0  0  0  0  0  0  0  0  0  0
   24.9867  -24.7310  -17.3377 O   0  0  0  0  0  0  0  0  0  0  0  0
   25.4706  -22.5891  -17.8543 O   0  0  0  0  0  0  0  0  0  0  0  0
  2  1  1  1
  3  2  1  0
  4  3  1  0
  4  5  2  0
  6  5  1  0
  7  6  1  0
  8  7  2  0
  9  8  1  0
 10  9  2  0
 10 11  1  0
 11 12  2  0
 12  7  1  0
 12  4  1  0
 13 20  1  0
 13  2  1  0
 14 13  2  0
 15 16  1  0
 16 17  1  0
 17 19  1  0
 17 18  1  6
 19 21  1  0
 19 20  1  1
 21 22  2  0
 24 23  1  6
 25 24  1  0
 25 21  1  0
 26 24  1  0
 26 28  1  0
 27 26  2  0
M  END
$$$$
