WIA.pdb
     RDKit          3D

 28 29  0  0  1  0  0  0  0  0999 V2000
   26.8288  -21.6874  -13.2780 N   0  0  0  0  0  0  0  0  0  0  0  0
   26.3879  -20.5996  -12.4373 C   0  0  1  0  0  0  0  0  0  0  0  0
   25.4199  -19.6634  -13.1219 C   0  0  0  0  0  0  0  0  0  0  0  0
   26.0481  -19.1064  -14.3459 C   0  0  0  0  0  0  0  0  0  0  0  0
   25.4110  -18.7181  -15.4988 C   0  0  0  0  0  0  0  0  0  0  0  0
   26.3174  -18.2970  -16.3829 N   0  0  0  0  0  0  0  0  0  0  0  0
   27.5388  -18.3902  -15.8598 C   0  0  0  0  0  0  0  0  0  0  0  0
   28.7960  -18.0715  -16.3792 C   0  0  0  0  0  0  0  0  0  0  0  0
   29.9060  -18.2579  -15.6181 C   0  0  0  0  0  0  0  0  0  0  0  0
   29.7909  -18.7582  -14.3412 C   0  0  0  0  0  0  0  0  0  0  0  0
   28.5390  -19.0752  -13.8256 C   0  0  0  0  0  0  0  0  0  0  0  0
   27.4094  -18.8932  -14.5833 C   0  0  0  0  0  0  0  0  0  0  0  0
   25.8403  -21.1687  -11.1934 C   0  0  0  0  0  0  0  0  0  0  0  0
   25.3950  -22.3315  -11.1522 O   0  0  0  0  0  0  0  0  0  0  0  0
   28.0326  -19.0829   -6.7210 C   0  0  0  0  0  0  0  0  0  0  0  0
   27.4559  -20.0486   -7.7649 C   0  0  0  0  0  0  0  0  0  0  0  0
   25.9669  -20.0397   -7.6896 C   0  0  2  0  0  0  0  0  0  0  0  0
   25.5325  -20.4214   -6.3008 C   0  0  0  0  0  0  0  0  0  0  0  0
   25.2883  -20.8579   -8.7634 C   0  0  2  0  0  0  0  0  0  0  0  0
   25.8251  -20.3726  -10.0248 N   0  0  0  0  0  0  0  0  0  0  0  0
   23.8228  -20.8306   -8.7063 C   0  0  0  0  0  0  0  0  0  0  0  0
   23.1848  -19.7470   -8.8555 O   0  0  0  0  0  0  0  0  0  0  0  0
   20.9154  -23.0172   -9.2012 C   0  0  0  0  0  0  0  0  0  0  0  0
   21.6040  -21.9907   -8.3516 C   0  0  2  0  0  0  0  0  0  0  0  0
   23.0451  -22.0004   -8.4847 N   0  0  0  0  0  0  0  0  0  0  0  0
   21.2489  -22.2309   -6.9096 C   0  0  0  0  0  0  0  0  0  0  0  0
   22.0957  -22.6560   -6.1125 O   0  0  0  0  0  0  0  0  0  0  0  0
   19.9674  -21.9828   -6.4378 O   0  0  0  0  0  0  0  0  0  0  0  0
  2  1  1  6
  3  2  1  0
  4  3  1  0
  4  5  2  0
  6  5  1  0
  7  6  1  0
  8  7  2  0
  9  8  1  0
 10  9  2  0
 10 11  1  0
 11 12  2  0
 12  7  1  0
 12  4  1  0
 13 20  1  0
 13  2  1  0
 14 13  2  0
 15 16  1  0
 16 17  1  0
 17 19  1  0
 17 18  1  1
 19 21  1  0
 19 20  1  6
 21 22  2  0
 24 23  1  6
 25 24  1  0
 25 21  1  0
 26 24  1  0
 26 28  1  0
 27 26  2  0
M  END
$$$$
