PCQ.pdb
     RDKit          3D

 23 23  0  0  1  0  0  0  0  0999 V2000
   18.6653  -11.1128  -18.8814 N   0  0  0  0  0  0  0  0  0  0  0  0
   18.5509  -12.4438  -19.3882 C   0  0  0  0  0  0  0  0  0  0  0  0
   17.3563  -13.0163  -18.6575 C   0  0  0  0  0  0  0  0  0  0  0  0
   17.5839  -12.4464  -17.2507 C   0  0  0  0  0  0  0  0  0  0  0  0
   18.0555  -11.0528  -17.5863 C   0  0  1  0  0  0  0  0  0  0  0  0
   19.0374  -10.5294  -16.6136 C   0  0  0  0  0  0  0  0  0  0  0  0
   18.7062  -10.3908  -15.4096 O   0  0  0  0  0  0  0  0  0  0  0  0
   20.3592  -10.1720  -16.9916 N   0  0  0  0  0  0  0  0  0  0  0  0
   21.3335   -9.6536  -16.0684 C   0  0  1  0  0  0  0  0  0  0  0  0
   22.7108  -10.2208  -16.2815 C   0  0  0  0  0  0  0  0  0  0  0  0
   23.9316   -9.5995  -15.1300 S   0  0  0  0  0  0  0  0  0  0  0  0
   21.3331   -8.1560  -16.0839 C   0  0  0  0  0  0  0  0  0  0  0  0
   21.2681   -7.5074  -17.1652 O   0  0  0  0  0  0  0  0  0  0  0  0
   17.2804   -5.2316  -16.0704 N   0  0  0  0  0  0  0  0  0  0  0  0
   18.2331   -4.1962  -16.1720 C   0  0  0  0  0  0  0  0  0  0  0  0
   17.8845   -3.1423  -16.8054 O   0  0  0  0  0  0  0  0  0  0  0  0
   19.5623   -4.2892  -15.5854 C   0  0  0  0  0  0  0  0  0  0  0  0
   19.9343   -5.5284  -14.8906 C   0  0  0  0  0  0  0  0  0  0  0  0
   21.3766   -5.9383  -14.8556 C   0  0  2  0  0  0  0  0  0  0  0  0
   21.4059   -7.4339  -14.8823 N   0  0  0  0  0  0  0  0  0  0  0  0
   22.0694   -5.5124  -13.6570 C   0  0  0  0  0  0  0  0  0  0  0  0
   22.4740   -4.1979  -13.4820 O   0  0  0  0  0  0  0  0  0  0  0  0
   22.3414   -6.3145  -12.7282 O   0  0  0  0  0  0  0  0  0  0  0  0
  1  2  1  0
  1  5  1  0
  3  4  1  0
  3  2  1  0
  4  5  1  0
  6  7  2  0
  5  6  1  1
  8  6  1  0
  9 12  1  0
  9  8  1  0
  9 10  1  6
 11 10  1  0
 12 20  1  0
 13 12  2  0
 15 14  1  0
 15 16  2  0
 17 15  1  0
 18 17  1  0
 19 18  1  1
 20 19  1  0
 21 22  1  0
 21 19  1  0
 23 21  2  0
M  END
$$$$
