PCQ.pdb
     RDKit          3D

 23 23  0  0  1  0  0  0  0  0999 V2000
   44.3684  -17.6728   -9.1651 N   0  0  0  0  0  0  0  0  0  0  0  0
   43.4479  -18.5997   -9.7440 C   0  0  0  0  0  0  0  0  0  0  0  0
   43.0466  -17.9541  -11.0519 C   0  0  0  0  0  0  0  0  0  0  0  0
   42.9234  -16.4869  -10.6186 C   0  0  0  0  0  0  0  0  0  0  0  0
   44.1115  -16.3671   -9.6959 C   0  0  1  0  0  0  0  0  0  0  0  0
   43.8778  -15.4285   -8.5784 C   0  0  0  0  0  0  0  0  0  0  0  0
   43.3320  -15.8405   -7.5245 O   0  0  0  0  0  0  0  0  0  0  0  0
   44.2513  -14.0598   -8.6501 N   0  0  0  0  0  0  0  0  0  0  0  0
   43.8759  -13.0843   -7.6613 C   0  0  1  0  0  0  0  0  0  0  0  0
   45.0509  -12.5274   -6.9040 C   0  0  0  0  0  0  0  0  0  0  0  0
   44.6048  -11.2884   -5.6923 S   0  0  0  0  0  0  0  0  0  0  0  0
   43.0386  -12.0044   -8.2743 C   0  0  0  0  0  0  0  0  0  0  0  0
   43.3191  -11.5123   -9.4027 O   0  0  0  0  0  0  0  0  0  0  0  0
   37.3650  -10.2603   -5.7117 N   0  0  0  0  0  0  0  0  0  0  0  0
   37.5157   -9.4528   -6.8585 C   0  0  0  0  0  0  0  0  0  0  0  0
   36.5860   -8.6117   -7.1065 O   0  0  0  0  0  0  0  0  0  0  0  0
   38.6719   -9.5434   -7.7386 C   0  0  0  0  0  0  0  0  0  0  0  0
   39.7409  -10.4891   -7.3927 C   0  0  0  0  0  0  0  0  0  0  0  0
   40.9891  -10.5125   -8.2241 C   0  0  2  0  0  0  0  0  0  0  0  0
   41.9111  -11.5112   -7.5989 N   0  0  0  0  0  0  0  0  0  0  0  0
   41.6844   -9.2423   -8.2581 C   0  0  0  0  0  0  0  0  0  0  0  0
   42.4582   -8.8106   -7.1918 O   0  0  0  0  0  0  0  0  0  0  0  0
   41.6112   -8.4729   -9.2495 O   0  0  0  0  0  0  0  0  0  0  0  0
  1  2  1  0
  1  5  1  0
  3  4  1  0
  3  2  1  0
  4  5  1  0
  6  7  2  0
  5  6  1  1
  8  6  1  0
  9 12  1  0
  9  8  1  0
  9 10  1  6
 11 10  1  0
 12 20  1  0
 13 12  2  0
 15 14  1  0
 15 16  2  0
 17 15  1  0
 18 17  1  0
 19 18  1  1
 20 19  1  0
 21 22  1  0
 21 19  1  0
 23 21  2  0
M  END
$$$$
