PCQ.pdb
     RDKit          3D

 23 23  0  0  1  0  0  0  0  0999 V2000
   22.3993  -13.3668  -17.9560 N   0  0  0  0  0  0  0  0  0  0  0  0
   21.4576  -14.4286  -18.1211 C   0  0  0  0  0  0  0  0  0  0  0  0
   20.2526  -13.7603  -18.7457 C   0  0  0  0  0  0  0  0  0  0  0  0
   20.2192  -12.4426  -17.9596 C   0  0  0  0  0  0  0  0  0  0  0  0
   21.6922  -12.1227  -17.8871 C   0  0  1  0  0  0  0  0  0  0  0  0
   22.0667  -11.4224  -16.6406 C   0  0  0  0  0  0  0  0  0  0  0  0
   21.6075  -11.8216  -15.5414 O   0  0  0  0  0  0  0  0  0  0  0  0
   22.9375  -10.3000  -16.6364 N   0  0  0  0  0  0  0  0  0  0  0  0
   23.2295   -9.5294  -15.4570 C   0  0  1  0  0  0  0  0  0  0  0  0
   24.6189   -9.7612  -14.9279 C   0  0  0  0  0  0  0  0  0  0  0  0
   25.4718  -11.1227  -15.7164 S   0  0  0  0  0  0  0  0  0  0  0  0
   22.9518   -8.0765  -15.6918 C   0  0  0  0  0  0  0  0  0  0  0  0
   23.3473   -7.4898  -16.7375 O   0  0  0  0  0  0  0  0  0  0  0  0
   17.5952   -5.6793  -15.7267 N   0  0  0  0  0  0  0  0  0  0  0  0
   18.4726   -6.3082  -16.6347 C   0  0  0  0  0  0  0  0  0  0  0  0
   17.9565   -6.8195  -17.6862 O   0  0  0  0  0  0  0  0  0  0  0  0
   19.9102   -6.3824  -16.4171 C   0  0  0  0  0  0  0  0  0  0  0  0
   20.4665   -5.7646  -15.2065 C   0  0  0  0  0  0  0  0  0  0  0  0
   21.9389   -5.8760  -14.9433 C   0  0  2  0  0  0  0  0  0  0  0  0
   22.2376   -7.3282  -14.7428 N   0  0  0  0  0  0  0  0  0  0  0  0
   22.3669   -5.1764  -13.7495 C   0  0  0  0  0  0  0  0  0  0  0  0
   22.7487   -5.8608  -12.6057 O   0  0  0  0  0  0  0  0  0  0  0  0
   22.4035   -3.9211  -13.6940 O   0  0  0  0  0  0  0  0  0  0  0  0
  1  2  1  0
  1  5  1  0
  3  4  1  0
  3  2  1  0
  4  5  1  0
  6  7  2  0
  5  6  1  1
  8  6  1  0
  9 12  1  0
  9  8  1  0
  9 10  1  6
 11 10  1  0
 12 20  1  0
 13 12  2  0
 15 14  1  0
 15 16  2  0
 17 15  1  0
 18 17  1  0
 19 18  1  1
 20 19  1  0
 21 22  1  0
 21 19  1  0
 23 21  2  0
M  END
$$$$
