PCQ.pdb
     RDKit          3D

 23 23  0  0  1  0  0  0  0  0999 V2000
   21.6493  -30.8568  -12.2513 N   0  0  0  0  0  0  0  0  0  0  0  0
   21.8777  -30.6651  -13.6487 C   0  0  0  0  0  0  0  0  0  0  0  0
   20.9809  -31.6861  -14.3134 C   0  0  0  0  0  0  0  0  0  0  0  0
   21.1718  -32.8856  -13.3751 C   0  0  0  0  0  0  0  0  0  0  0  0
   21.1809  -32.1933  -12.0343 C   0  0  1  0  0  0  0  0  0  0  0  0
   22.0596  -32.8596  -11.0503 C   0  0  0  0  0  0  0  0  0  0  0  0
   21.8859  -34.0753  -10.7850 O   0  0  0  0  0  0  0  0  0  0  0  0
   23.1073  -32.1700  -10.3835 N   0  0  0  0  0  0  0  0  0  0  0  0
   24.0128  -32.8054   -9.4634 C   0  0  1  0  0  0  0  0  0  0  0  0
   25.4487  -32.4104   -9.6788 C   0  0  0  0  0  0  0  0  0  0  0  0
   26.5896  -33.1978   -8.5469 S   0  0  0  0  0  0  0  0  0  0  0  0
   23.5737  -32.5817   -8.0491 C   0  0  0  0  0  0  0  0  0  0  0  0
   23.3251  -31.4240   -7.6107 O   0  0  0  0  0  0  0  0  0  0  0  0
   19.2080  -32.8866   -5.0665 N   0  0  0  0  0  0  0  0  0  0  0  0
   19.8730  -33.5505   -4.0143 C   0  0  0  0  0  0  0  0  0  0  0  0
   19.3079  -33.5403   -2.8680 O   0  0  0  0  0  0  0  0  0  0  0  0
   21.1458  -34.2338   -4.1947 C   0  0  0  0  0  0  0  0  0  0  0  0
   21.7587  -34.2287   -5.5292 C   0  0  0  0  0  0  0  0  0  0  0  0
   23.0409  -33.4791   -5.7383 C   0  0  2  0  0  0  0  0  0  0  0  0
   23.4276  -33.6674   -7.1712 N   0  0  0  0  0  0  0  0  0  0  0  0
   24.1355  -33.9687   -4.9258 C   0  0  0  0  0  0  0  0  0  0  0  0
   24.1829  -33.7396   -3.5593 O   0  0  0  0  0  0  0  0  0  0  0  0
   25.0929  -34.6141   -5.4228 O   0  0  0  0  0  0  0  0  0  0  0  0
  1  2  1  0
  1  5  1  0
  3  4  1  0
  3  2  1  0
  4  5  1  0
  6  7  2  0
  5  6  1  1
  8  6  1  0
  9 12  1  0
  9  8  1  0
  9 10  1  1
 11 10  1  0
 12 20  1  0
 13 12  2  0
 15 14  1  0
 15 16  2  0
 17 15  1  0
 18 17  1  0
 19 18  1  1
 20 19  1  0
 21 22  1  0
 21 19  1  0
 23 21  2  0
M  END
$$$$
