PCQ.pdb
     RDKit          3D

 23 23  0  0  1  0  0  0  0  0999 V2000
   18.5501  -13.2139  -17.9144 N   0  0  0  0  0  0  0  0  0  0  0  0
   18.7254  -14.6225  -18.0777 C   0  0  0  0  0  0  0  0  0  0  0  0
   17.6299  -15.2320  -17.2309 C   0  0  0  0  0  0  0  0  0  0  0  0
   17.6678  -14.3059  -16.0076 C   0  0  0  0  0  0  0  0  0  0  0  0
   17.8738  -12.9684  -16.6754 C   0  0  1  0  0  0  0  0  0  0  0  0
   18.6820  -12.0381  -15.8597 C   0  0  0  0  0  0  0  0  0  0  0  0
   18.2990  -11.7325  -14.7028 O   0  0  0  0  0  0  0  0  0  0  0  0
   19.8917  -11.4679  -16.3388 N   0  0  0  0  0  0  0  0  0  0  0  0
   20.6781  -10.5296  -15.5829 C   0  0  1  0  0  0  0  0  0  0  0  0
   22.1145  -10.9508  -15.4286 C   0  0  0  0  0  0  0  0  0  0  0  0
   23.0919   -9.8266  -14.4370 S   0  0  0  0  0  0  0  0  0  0  0  0
   20.5542   -9.1518  -16.1567 C   0  0  0  0  0  0  0  0  0  0  0  0
   20.7502   -8.9280  -17.3837 O   0  0  0  0  0  0  0  0  0  0  0  0
   15.9606   -5.4304  -15.8144 N   0  0  0  0  0  0  0  0  0  0  0  0
   16.5030   -6.1572  -16.8949 C   0  0  0  0  0  0  0  0  0  0  0  0
   15.7180   -6.4348  -17.8644 O   0  0  0  0  0  0  0  0  0  0  0  0
   17.8950   -6.5816  -16.9382 C   0  0  0  0  0  0  0  0  0  0  0  0
   18.7766   -6.2004  -15.8273 C   0  0  0  0  0  0  0  0  0  0  0  0
   20.2041   -6.6606  -15.8402 C   0  0  2  0  0  0  0  0  0  0  0  0
   20.2134   -8.0678  -15.3323 N   0  0  0  0  0  0  0  0  0  0  0  0
   21.0697   -5.8827  -14.9779 C   0  0  0  0  0  0  0  0  0  0  0  0
   21.5689   -4.6509  -15.3726 O   0  0  0  0  0  0  0  0  0  0  0  0
   21.4129   -6.2917  -13.8399 O   0  0  0  0  0  0  0  0  0  0  0  0
  1  2  1  0
  1  5  1  0
  3  4  1  0
  3  2  1  0
  4  5  1  0
  6  7  2  0
  5  6  1  1
  8  6  1  0
  9 12  1  0
  9  8  1  0
  9 10  1  6
 11 10  1  0
 12 20  1  0
 13 12  2  0
 15 14  1  0
 15 16  2  0
 17 15  1  0
 18 17  1  0
 19 18  1  1
 20 19  1  0
 21 22  1  0
 21 19  1  0
 23 21  2  0
M  END
$$$$
