PCQ.pdb
     RDKit          3D

 23 23  0  0  1  0  0  0  0  0999 V2000
   21.6817  -10.8440  -15.1668 N   0  0  0  0  0  0  0  0  0  0  0  0
   22.7344  -11.1905  -16.0686 C   0  0  0  0  0  0  0  0  0  0  0  0
   23.9291  -11.4234  -15.1701 C   0  0  0  0  0  0  0  0  0  0  0  0
   23.7491  -10.2846  -14.1571 C   0  0  0  0  0  0  0  0  0  0  0  0
   22.2529  -10.3161  -13.9636 C   0  0  1  0  0  0  0  0  0  0  0  0
   21.6797   -8.9791  -13.7026 C   0  0  0  0  0  0  0  0  0  0  0  0
   22.0641   -8.3225  -12.7028 O   0  0  0  0  0  0  0  0  0  0  0  0
   20.6976   -8.3992  -14.5495 N   0  0  0  0  0  0  0  0  0  0  0  0
   20.1036   -7.1115  -14.3062 C   0  0  1  0  0  0  0  0  0  0  0  0
   20.0717   -6.2343  -15.5284 C   0  0  0  0  0  0  0  0  0  0  0  0
   19.2345   -4.6735  -15.2728 S   0  0  0  0  0  0  0  0  0  0  0  0
   18.7487   -7.2622  -13.6861 C   0  0  0  0  0  0  0  0  0  0  0  0
   17.9164   -8.1083  -14.1169 O   0  0  0  0  0  0  0  0  0  0  0  0
   16.2225   -9.0192   -9.0791 N   0  0  0  0  0  0  0  0  0  0  0  0
   15.4962   -7.8112   -9.0238 C   0  0  0  0  0  0  0  0  0  0  0  0
   14.4190   -7.8086   -8.3361 O   0  0  0  0  0  0  0  0  0  0  0  0
   15.9314   -6.5994   -9.7033 C   0  0  0  0  0  0  0  0  0  0  0  0
   17.1317   -6.6640  -10.5469 C   0  0  0  0  0  0  0  0  0  0  0  0
   16.9888   -6.4942  -12.0303 C   0  0  2  0  0  0  0  0  0  0  0  0
   18.3715   -6.4563  -12.6003 N   0  0  0  0  0  0  0  0  0  0  0  0
   16.3294   -5.2617  -12.4098 C   0  0  0  0  0  0  0  0  0  0  0  0
   17.0513   -4.1376  -12.7805 O   0  0  0  0  0  0  0  0  0  0  0  0
   15.0770   -5.1536  -12.4123 O   0  0  0  0  0  0  0  0  0  0  0  0
  1  2  1  0
  1  5  1  0
  3  4  1  0
  3  2  1  0
  4  5  1  0
  6  7  2  0
  5  6  1  6
  8  6  1  0
  9 12  1  0
  9  8  1  0
  9 10  1  6
 11 10  1  0
 12 20  1  0
 13 12  2  0
 15 14  1  0
 15 16  2  0
 17 15  1  0
 18 17  1  0
 19 18  1  1
 20 19  1  0
 21 22  1  0
 21 19  1  0
 23 21  2  0
M  END
$$$$
