PCQ.pdb
     RDKit          3D

 23 23  0  0  1  0  0  0  0  0999 V2000
   27.6175  -19.2575  -14.2907 N   0  0  0  0  0  0  0  0  0  0  0  0
   29.0387  -19.3522  -14.1766 C   0  0  0  0  0  0  0  0  0  0  0  0
   29.4278  -20.3629  -15.2328 C   0  0  0  0  0  0  0  0  0  0  0  0
   28.2936  -21.3854  -15.0793 C   0  0  0  0  0  0  0  0  0  0  0  0
   27.1146  -20.4665  -14.8721 C   0  0  1  0  0  0  0  0  0  0  0  0
   26.0883  -21.0423  -13.9781 C   0  0  0  0  0  0  0  0  0  0  0  0
   25.4939  -22.0974  -14.3127 O   0  0  0  0  0  0  0  0  0  0  0  0
   25.7428  -20.4415  -12.7381 N   0  0  0  0  0  0  0  0  0  0  0  0
   24.6308  -20.8720  -11.9329 C   0  0  1  0  0  0  0  0  0  0  0  0
   24.7955  -20.5444  -10.4735 C   0  0  0  0  0  0  0  0  0  0  0  0
   26.3855  -21.0197   -9.8038 S   0  0  0  0  0  0  0  0  0  0  0  0
   23.3420  -20.3463  -12.4857 C   0  0  0  0  0  0  0  0  0  0  0  0
   23.1472  -19.1087  -12.6419 O   0  0  0  0  0  0  0  0  0  0  0  0
   20.7457  -22.1053  -17.5578 N   0  0  0  0  0  0  0  0  0  0  0  0
   19.5728  -21.7800  -16.8449 C   0  0  0  0  0  0  0  0  0  0  0  0
   18.5052  -21.6059  -17.5257 O   0  0  0  0  0  0  0  0  0  0  0  0
   19.5437  -21.6481  -15.3953 C   0  0  0  0  0  0  0  0  0  0  0  0
   20.8121  -21.7349  -14.6603 C   0  0  0  0  0  0  0  0  0  0  0  0
   21.0792  -20.7600  -13.5521 C   0  0  2  0  0  0  0  0  0  0  0  0
   22.3118  -21.2293  -12.8459 N   0  0  0  0  0  0  0  0  0  0  0  0
   20.0156  -20.6948  -12.5711 C   0  0  0  0  0  0  0  0  0  0  0  0
   18.9279  -19.8510  -12.7360 O   0  0  0  0  0  0  0  0  0  0  0  0
   20.0348  -21.3921  -11.5253 O   0  0  0  0  0  0  0  0  0  0  0  0
  1  2  1  0
  1  5  1  0
  3  4  1  0
  3  2  1  0
  4  5  1  0
  6  7  2  0
  5  6  1  1
  8  6  1  0
  9 12  1  0
  9  8  1  0
  9 10  1  1
 11 10  1  0
 12 20  1  0
 13 12  2  0
 15 14  1  0
 15 16  2  0
 17 15  1  0
 18 17  1  0
 19 18  1  6
 20 19  1  0
 21 22  1  0
 21 19  1  0
 23 21  2  0
M  END
$$$$
