PCQ.pdb
     RDKit          3D

 23 23  0  0  1  0  0  0  0  0999 V2000
   17.4050  -11.6190  -16.2647 N   0  0  0  0  0  0  0  0  0  0  0  0
   18.0346  -12.8377  -16.6649 C   0  0  0  0  0  0  0  0  0  0  0  0
   17.3608  -13.8966  -15.8203 C   0  0  0  0  0  0  0  0  0  0  0  0
   17.2557  -13.1635  -14.4760 C   0  0  0  0  0  0  0  0  0  0  0  0
   16.8793  -11.7782  -14.9415 C   0  0  1  0  0  0  0  0  0  0  0  0
   17.4242  -10.7134  -14.0735 C   0  0  0  0  0  0  0  0  0  0  0  0
   17.3798  -10.8458  -12.8249 O   0  0  0  0  0  0  0  0  0  0  0  0
   18.0042   -9.5296  -14.6028 N   0  0  0  0  0  0  0  0  0  0  0  0
   18.4873   -8.4503  -13.7831 C   0  0  1  0  0  0  0  0  0  0  0  0
   19.6426   -7.7099  -14.4006 C   0  0  0  0  0  0  0  0  0  0  0  0
   20.2344   -6.3428  -13.4090 S   0  0  0  0  0  0  0  0  0  0  0  0
   17.3674   -7.5307  -13.4047 C   0  0  0  0  0  0  0  0  0  0  0  0
   16.5157   -7.1443  -14.2529 O   0  0  0  0  0  0  0  0  0  0  0  0
   15.4944   -6.9095   -7.3177 N   0  0  0  0  0  0  0  0  0  0  0  0
   14.6490   -6.0429   -8.0417 C   0  0  0  0  0  0  0  0  0  0  0  0
   13.7324   -5.4395   -7.3865 O   0  0  0  0  0  0  0  0  0  0  0  0
   14.7923   -5.8174   -9.4728 C   0  0  0  0  0  0  0  0  0  0  0  0
   15.8505   -6.5389  -10.1913 C   0  0  0  0  0  0  0  0  0  0  0  0
   16.0779   -6.2406  -11.6435 C   0  0  2  0  0  0  0  0  0  0  0  0
   17.2400   -7.0739  -12.0834 N   0  0  0  0  0  0  0  0  0  0  0  0
   16.4144   -4.8559  -11.9031 C   0  0  0  0  0  0  0  0  0  0  0  0
   17.7311   -4.4222  -11.9278 O   0  0  0  0  0  0  0  0  0  0  0  0
   15.5304   -3.9862  -12.1087 O   0  0  0  0  0  0  0  0  0  0  0  0
  1  2  1  0
  1  5  1  0
  3  4  1  0
  3  2  1  0
  4  5  1  0
  6  7  2  0
  5  6  1  1
  8  6  1  0
  9 12  1  0
  9  8  1  0
  9 10  1  6
 11 10  1  0
 12 20  1  0
 13 12  2  0
 15 14  1  0
 15 16  2  0
 17 15  1  0
 18 17  1  0
 19 18  1  1
 20 19  1  0
 21 22  1  0
 21 19  1  0
 23 21  2  0
M  END
$$$$
