PCQ.pdb
     RDKit          3D

 23 23  0  0  1  0  0  0  0  0999 V2000
   22.2936  -15.4785  -18.5520 N   0  0  0  0  0  0  0  0  0  0  0  0
   22.3582  -16.9018  -18.4435 C   0  0  0  0  0  0  0  0  0  0  0  0
   20.9157  -17.3254  -18.2748 C   0  0  0  0  0  0  0  0  0  0  0  0
   20.4042  -16.2248  -17.3353 C   0  0  0  0  0  0  0  0  0  0  0  0
   21.0947  -15.0162  -17.9183 C   0  0  1  0  0  0  0  0  0  0  0  0
   21.4460  -14.0077  -16.8967 C   0  0  0  0  0  0  0  0  0  0  0  0
   20.5784  -13.6337  -16.0685 O   0  0  0  0  0  0  0  0  0  0  0  0
   22.7440  -13.4365  -16.8132 N   0  0  0  0  0  0  0  0  0  0  0  0
   23.0844  -12.3751  -15.9034 C   0  0  1  0  0  0  0  0  0  0  0  0
   24.5564  -12.3069  -15.5984 C   0  0  0  0  0  0  0  0  0  0  0  0
   25.1381  -13.6397  -14.5554 S   0  0  0  0  0  0  0  0  0  0  0  0
   22.5502  -11.0651  -16.3947 C   0  0  0  0  0  0  0  0  0  0  0  0
   22.6054  -10.7460  -17.6150 O   0  0  0  0  0  0  0  0  0  0  0  0
   17.1243   -9.1520  -16.6801 N   0  0  0  0  0  0  0  0  0  0  0  0
   17.7626   -7.8947  -16.6406 C   0  0  0  0  0  0  0  0  0  0  0  0
   17.0323   -6.8631  -16.8301 O   0  0  0  0  0  0  0  0  0  0  0  0
   19.1886   -7.7434  -16.3897 C   0  0  0  0  0  0  0  0  0  0  0  0
   19.9863   -8.9511  -16.1408 C   0  0  0  0  0  0  0  0  0  0  0  0
   21.4671   -8.8174  -15.9434 C   0  0  2  0  0  0  0  0  0  0  0  0
   21.9703  -10.1540  -15.4978 N   0  0  0  0  0  0  0  0  0  0  0  0
   21.8295   -7.8554  -14.9230 C   0  0  0  0  0  0  0  0  0  0  0  0
   21.8073   -6.4916  -15.1718 O   0  0  0  0  0  0  0  0  0  0  0  0
   22.1872   -8.2129  -13.7722 O   0  0  0  0  0  0  0  0  0  0  0  0
  1  2  1  0
  1  5  1  0
  3  4  1  0
  3  2  1  0
  4  5  1  0
  6  7  2  0
  5  6  1  1
  8  6  1  0
  9 12  1  0
  9  8  1  0
  9 10  1  6
 11 10  1  0
 12 20  1  0
 13 12  2  0
 15 14  1  0
 15 16  2  0
 17 15  1  0
 18 17  1  0
 19 18  1  1
 20 19  1  0
 21 22  1  0
 21 19  1  0
 23 21  2  0
M  END
$$$$
