PCQ.pdb
     RDKit          3D

 23 23  0  0  1  0  0  0  0  0999 V2000
   26.3505  -11.2965  -16.3439 N   0  0  0  0  0  0  0  0  0  0  0  0
   26.8818  -12.4141  -15.6295 C   0  0  0  0  0  0  0  0  0  0  0  0
   26.8711  -13.5387  -16.6413 C   0  0  0  0  0  0  0  0  0  0  0  0
   25.5272  -13.2822  -17.3369 C   0  0  0  0  0  0  0  0  0  0  0  0
   25.5402  -11.7757  -17.4239 C   0  0  1  0  0  0  0  0  0  0  0  0
   24.1907  -11.1830  -17.3155 C   0  0  0  0  0  0  0  0  0  0  0  0
   23.3101  -11.4839  -18.1596 O   0  0  0  0  0  0  0  0  0  0  0  0
   23.8452  -10.2739  -16.2800 N   0  0  0  0  0  0  0  0  0  0  0  0
   22.5569   -9.6412  -16.1797 C   0  0  1  0  0  0  0  0  0  0  0  0
   21.4354  -10.6168  -15.9460 C   0  0  0  0  0  0  0  0  0  0  0  0
   19.8602   -9.8363  -15.6108 S   0  0  0  0  0  0  0  0  0  0  0  0
   22.5801   -8.5533  -15.1506 C   0  0  0  0  0  0  0  0  0  0  0  0
   23.4140   -8.5595  -14.2027 O   0  0  0  0  0  0  0  0  0  0  0  0
   25.4101   -4.7080  -17.2325 N   0  0  0  0  0  0  0  0  0  0  0  0
   24.8585   -3.8957  -16.2197 C   0  0  0  0  0  0  0  0  0  0  0  0
   25.3861   -2.7453  -16.0419 O   0  0  0  0  0  0  0  0  0  0  0  0
   23.7318   -4.3166  -15.3994 C   0  0  0  0  0  0  0  0  0  0  0  0
   23.1709   -5.6563  -15.6171 C   0  0  0  0  0  0  0  0  0  0  0  0
   22.0200   -6.1100  -14.7691 C   0  0  2  0  0  0  0  0  0  0  0  0
   21.6642   -7.4916  -15.2196 N   0  0  0  0  0  0  0  0  0  0  0  0
   20.8361   -5.2883  -14.9143 C   0  0  0  0  0  0  0  0  0  0  0  0
   20.6171   -4.1831  -14.1063 O   0  0  0  0  0  0  0  0  0  0  0  0
   19.9526   -5.5440  -15.7712 O   0  0  0  0  0  0  0  0  0  0  0  0
  1  2  1  0
  1  5  1  0
  3  4  1  0
  3  2  1  0
  4  5  1  0
  6  7  2  0
  5  6  1  1
  8  6  1  0
  9 12  1  0
  9  8  1  0
  9 10  1  1
 11 10  1  0
 12 20  1  0
 13 12  2  0
 15 14  1  0
 15 16  2  0
 17 15  1  0
 18 17  1  0
 19 18  1  6
 20 19  1  0
 21 22  1  0
 21 19  1  0
 23 21  2  0
M  END
$$$$
