SEA.pdb
     RDKit          3D

 21 20  0  0  1  0  0  0  0  0999 V2000
    7.5539  -13.0326   20.5020 O   0  0  0  0  0  0  0  0  0  0  0  0
    8.3139  -12.2221   19.6905 C   0  0  0  0  0  0  0  0  0  0  0  0
    8.7063  -12.9996   18.4537 C   0  0  2  0  0  0  0  0  0  0  0  0
    7.5782  -13.5964   17.7967 N   0  0  0  0  0  0  0  0  0  0  0  0
    9.6529  -14.0825   18.8391 C   0  0  0  0  0  0  0  0  0  0  0  0
    9.2764  -15.2799   18.9822 O   0  0  0  0  0  0  0  0  0  0  0  0
   11.0294  -13.8097   19.0631 N   0  0  0  0  0  0  0  0  0  0  0  0
   11.9864  -14.9037   19.3755 C   0  0  1  0  0  0  0  0  0  0  0  0
   13.2654  -14.6041   18.7012 C   0  0  0  0  0  0  0  0  0  0  0  0
   13.6042  -15.2974   17.4517 C   0  0  0  0  0  0  0  0  0  0  0  0
   15.0654  -15.6800   17.4650 C   0  0  0  0  0  0  0  0  0  0  0  0
   15.5075  -16.4535   18.3438 O   0  0  0  0  0  0  0  0  0  0  0  0
   11.9810  -15.0223   20.8259 C   0  0  0  0  0  0  0  0  0  0  0  0
   12.4359  -14.1419   21.6167 O   0  0  0  0  0  0  0  0  0  0  0  0
   15.9264  -15.1853   16.5149 O   0  0  0  0  0  0  0  0  0  0  0  0
   10.1269  -17.1394   23.2320 C   0  0  0  0  0  0  0  0  0  0  0  0
   11.3503  -16.2844   22.8832 C   0  0  2  0  0  0  0  0  0  0  0  0
   11.4355  -16.1838   21.4328 N   0  0  0  0  0  0  0  0  0  0  0  0
   12.5330  -16.9832   23.3866 C   0  0  0  0  0  0  0  0  0  0  0  0
   13.4231  -17.5630   22.5023 O   0  0  0  0  0  0  0  0  0  0  0  0
   12.7532  -17.0640   24.6434 O   0  0  0  0  0  0  0  0  0  0  0  0
  2  1  1  0
  3  2  1  0
  3  4  1  1
  5  3  1  0
  5  7  1  0
  6  5  2  0
  8  7  1  0
  8  9  1  1
 10  9  1  0
 10 11  1  0
 11 12  2  0
 11 15  1  0
 13  8  1  0
 13 18  1  0
 14 13  2  0
 17 18  1  0
 17 16  1  6
 19 17  1  0
 20 19  1  0
 21 19  2  0
M  END
$$$$
