SEA.pdb
     RDKit          3D

 21 20  0  0  1  0  0  0  0  0999 V2000
    7.7150  -12.3234   19.7103 O   0  0  0  0  0  0  0  0  0  0  0  0
    8.8415  -12.5287   18.9476 C   0  0  0  0  0  0  0  0  0  0  0  0
    8.7589  -13.8997   18.3138 C   0  0  2  0  0  0  0  0  0  0  0  0
    7.5526  -14.0859   17.5584 N   0  0  0  0  0  0  0  0  0  0  0  0
    8.8083  -14.9345   19.3834 C   0  0  0  0  0  0  0  0  0  0  0  0
    7.7646  -15.5022   19.8130 O   0  0  0  0  0  0  0  0  0  0  0  0
   10.0421  -15.3280   19.9684 N   0  0  0  0  0  0  0  0  0  0  0  0
   10.0899  -16.3699   21.0279 C   0  0  1  0  0  0  0  0  0  0  0  0
   11.2761  -17.2162   20.7892 C   0  0  0  0  0  0  0  0  0  0  0  0
   11.5702  -18.3248   21.7062 C   0  0  0  0  0  0  0  0  0  0  0  0
   12.8721  -18.9794   21.3083 C   0  0  0  0  0  0  0  0  0  0  0  0
   13.8991  -18.2865   21.1314 O   0  0  0  0  0  0  0  0  0  0  0  0
    9.9985  -15.6474   22.2878 C   0  0  0  0  0  0  0  0  0  0  0  0
   10.7452  -14.6745   22.6096 O   0  0  0  0  0  0  0  0  0  0  0  0
   12.9460  -20.3408   21.1355 O   0  0  0  0  0  0  0  0  0  0  0  0
    7.4066  -15.1511   24.8246 C   0  0  0  0  0  0  0  0  0  0  0  0
    8.8973  -15.2957   24.4984 C   0  0  2  0  0  0  0  0  0  0  0  0
    9.0190  -16.0246   23.2434 N   0  0  0  0  0  0  0  0  0  0  0  0
    9.5078  -16.0810   25.5712 C   0  0  0  0  0  0  0  0  0  0  0  0
    9.6037  -15.5547   26.8458 O   0  0  0  0  0  0  0  0  0  0  0  0
    9.9565  -17.2558   25.3411 O   0  0  0  0  0  0  0  0  0  0  0  0
  2  1  1  0
  3  2  1  0
  3  4  1  1
  5  3  1  0
  5  7  1  0
  6  5  2  0
  8  7  1  0
  8  9  1  1
 10  9  1  0
 10 11  1  0
 11 12  2  0
 11 15  1  0
 13  8  1  0
 13 18  1  0
 14 13  2  0
 17 18  1  0
 17 16  1  1
 19 17  1  0
 20 19  1  0
 21 19  2  0
M  END
$$$$
