SEA.pdb
     RDKit          3D

 21 20  0  0  1  0  0  0  0  0999 V2000
    8.0322  -11.9700   19.9899 O   0  0  0  0  0  0  0  0  0  0  0  0
    8.7590  -13.0048   19.4476 C   0  0  0  0  0  0  0  0  0  0  0  0
    7.9629  -14.2839   19.5823 C   0  0  2  0  0  0  0  0  0  0  0  0
    6.6129  -14.1447   19.1148 N   0  0  0  0  0  0  0  0  0  0  0  0
    7.9250  -14.6853   21.0157 C   0  0  0  0  0  0  0  0  0  0  0  0
    6.9219  -14.4544   21.7483 O   0  0  0  0  0  0  0  0  0  0  0  0
    9.0251  -15.3498   21.6218 N   0  0  0  0  0  0  0  0  0  0  0  0
    8.9063  -15.9485   22.9775 C   0  0  1  0  0  0  0  0  0  0  0  0
    9.8275  -17.0999   23.0554 C   0  0  0  0  0  0  0  0  0  0  0  0
    9.9834  -17.8169   24.3275 C   0  0  0  0  0  0  0  0  0  0  0  0
   11.0008  -18.9215   24.1649 C   0  0  0  0  0  0  0  0  0  0  0  0
   11.9386  -19.0418   24.9848 O   0  0  0  0  0  0  0  0  0  0  0  0
    9.0982  -14.8458   23.9075 C   0  0  0  0  0  0  0  0  0  0  0  0
   10.0244  -13.9850   23.8142 O   0  0  0  0  0  0  0  0  0  0  0  0
   10.9105  -19.8066   23.1175 O   0  0  0  0  0  0  0  0  0  0  0  0
    6.9530  -13.0086   26.2136 C   0  0  0  0  0  0  0  0  0  0  0  0
    8.3513  -13.5577   25.9090 C   0  0  2  0  0  0  0  0  0  0  0  0
    8.2078  -14.6878   25.0017 N   0  0  0  0  0  0  0  0  0  0  0  0
    8.9247  -14.0248   27.1713 C   0  0  0  0  0  0  0  0  0  0  0  0
    9.2494  -13.1172   28.1620 O   0  0  0  0  0  0  0  0  0  0  0  0
    9.1300  -15.2711   27.3691 O   0  0  0  0  0  0  0  0  0  0  0  0
  2  1  1  0
  3  2  1  0
  3  4  1  1
  5  3  1  0
  5  7  1  0
  6  5  2  0
  8  7  1  0
  8  9  1  1
 10  9  1  0
 10 11  1  0
 11 12  2  0
 11 15  1  0
 13  8  1  0
 13 18  1  0
 14 13  2  0
 17 18  1  0
 17 16  1  1
 19 17  1  0
 20 19  1  0
 21 19  2  0
M  END
$$$$
