SEA.pdb
     RDKit          3D

 21 20  0  0  1  0  0  0  0  0999 V2000
    8.2636  -12.0400   18.8575 O   0  0  0  0  0  0  0  0  0  0  0  0
    9.1577  -12.6758   18.0271 C   0  0  0  0  0  0  0  0  0  0  0  0
    8.5626  -13.9952   17.5875 C   0  0  2  0  0  0  0  0  0  0  0  0
    7.1986  -13.8691   17.1587 N   0  0  0  0  0  0  0  0  0  0  0  0
    8.6110  -14.9544   18.7254 C   0  0  0  0  0  0  0  0  0  0  0  0
    7.5899  -15.2184   19.4211 O   0  0  0  0  0  0  0  0  0  0  0  0
    9.8179  -15.6169   19.0771 N   0  0  0  0  0  0  0  0  0  0  0  0
    9.8474  -16.6289   20.1658 C   0  0  1  0  0  0  0  0  0  0  0  0
   10.8418  -17.6607   19.8094 C   0  0  0  0  0  0  0  0  0  0  0  0
   11.1036  -18.7654   20.7409 C   0  0  0  0  0  0  0  0  0  0  0  0
   12.1595  -19.6770   20.1613 C   0  0  0  0  0  0  0  0  0  0  0  0
   13.3721  -19.3862   20.2674 O   0  0  0  0  0  0  0  0  0  0  0  0
   10.0452  -15.8733   21.3936 C   0  0  0  0  0  0  0  0  0  0  0  0
   10.9066  -14.9540   21.5362 O   0  0  0  0  0  0  0  0  0  0  0  0
   11.8038  -20.8346   19.5117 O   0  0  0  0  0  0  0  0  0  0  0  0
    7.9853  -15.1448   24.3383 C   0  0  0  0  0  0  0  0  0  0  0  0
    9.3809  -15.3651   23.7438 C   0  0  2  0  0  0  0  0  0  0  0  0
    9.2371  -16.1521   22.5268 N   0  0  0  0  0  0  0  0  0  0  0  0
   10.1590  -16.1279   24.7201 C   0  0  0  0  0  0  0  0  0  0  0  0
   10.5799  -15.5269   25.8915 O   0  0  0  0  0  0  0  0  0  0  0  0
   10.4559  -17.3518   24.4998 O   0  0  0  0  0  0  0  0  0  0  0  0
  2  1  1  0
  3  2  1  0
  3  4  1  1
  5  3  1  0
  5  7  1  0
  6  5  2  0
  8  7  1  0
  8  9  1  6
 10  9  1  0
 10 11  1  0
 11 12  2  0
 11 15  1  0
 13  8  1  0
 13 18  1  0
 14 13  2  0
 17 18  1  0
 17 16  1  1
 19 17  1  0
 20 19  1  0
 21 19  2  0
M  END
$$$$
