SEA.pdb
     RDKit          3D

 21 20  0  0  1  0  0  0  0  0999 V2000
    8.3215  -15.8136   15.5800 O   0  0  0  0  0  0  0  0  0  0  0  0
    8.2131  -16.1448   16.9109 C   0  0  0  0  0  0  0  0  0  0  0  0
    8.4479  -17.6312   17.0650 C   0  0  2  0  0  0  0  0  0  0  0  0
    7.4152  -18.4187   16.4536 N   0  0  0  0  0  0  0  0  0  0  0  0
    8.5004  -17.9684   18.5144 C   0  0  0  0  0  0  0  0  0  0  0  0
    7.4687  -18.3091   19.1593 O   0  0  0  0  0  0  0  0  0  0  0  0
    9.7235  -17.9199   19.2361 N   0  0  0  0  0  0  0  0  0  0  0  0
    9.7857  -18.3211   20.6663 C   0  0  1  0  0  0  0  0  0  0  0  0
   10.6265  -19.5305   20.7698 C   0  0  0  0  0  0  0  0  0  0  0  0
   12.0270  -19.4777   20.3312 C   0  0  0  0  0  0  0  0  0  0  0  0
   12.6772  -20.8235   20.5499 C   0  0  0  0  0  0  0  0  0  0  0  0
   12.0345  -21.7563   21.0818 O   0  0  0  0  0  0  0  0  0  0  0  0
   10.2007  -17.1271   21.3872 C   0  0  0  0  0  0  0  0  0  0  0  0
   11.0748  -16.3084   20.9708 O   0  0  0  0  0  0  0  0  0  0  0  0
   13.9796  -21.0410   20.1686 O   0  0  0  0  0  0  0  0  0  0  0  0
    8.9292  -15.2786   24.3777 C   0  0  0  0  0  0  0  0  0  0  0  0
   10.0442  -15.6566   23.3963 C   0  0  2  0  0  0  0  0  0  0  0  0
    9.6081  -16.8228   22.6406 N   0  0  0  0  0  0  0  0  0  0  0  0
   11.2240  -16.0096   24.1861 C   0  0  0  0  0  0  0  0  0  0  0  0
   12.0278  -15.0156   24.7118 O   0  0  0  0  0  0  0  0  0  0  0  0
   11.5213  -17.2352   24.3964 O   0  0  0  0  0  0  0  0  0  0  0  0
  2  1  1  0
  3  2  1  0
  3  4  1  6
  5  3  1  0
  5  7  1  0
  6  5  2  0
  8  7  1  0
  8  9  1  6
 10  9  1  0
 10 11  1  0
 11 12  2  0
 11 15  1  0
 13  8  1  0
 13 18  1  0
 14 13  2  0
 17 18  1  0
 17 16  1  1
 19 17  1  0
 20 19  1  0
 21 19  2  0
M  END
$$$$
