SEA.pdb
     RDKit          3D

 21 20  0  0  1  0  0  0  0  0999 V2000
    8.2987  -12.7038   16.4146 O   0  0  0  0  0  0  0  0  0  0  0  0
    8.3221  -13.6137   17.4463 C   0  0  0  0  0  0  0  0  0  0  0  0
    8.6886  -14.9722   16.8911 C   0  0  2  0  0  0  0  0  0  0  0  0
    7.6740  -15.5067   16.0277 N   0  0  0  0  0  0  0  0  0  0  0  0
    8.8926  -15.9210   18.0204 C   0  0  0  0  0  0  0  0  0  0  0  0
    7.9596  -16.6539   18.4547 O   0  0  0  0  0  0  0  0  0  0  0  0
   10.1558  -16.0410   18.6600 N   0  0  0  0  0  0  0  0  0  0  0  0
   10.3625  -17.0042   19.7735 C   0  0  1  0  0  0  0  0  0  0  0  0
   11.4380  -17.9373   19.3823 C   0  0  0  0  0  0  0  0  0  0  0  0
   11.9129  -18.9386   20.3459 C   0  0  0  0  0  0  0  0  0  0  0  0
   13.0384  -19.7378   19.7324 C   0  0  0  0  0  0  0  0  0  0  0  0
   14.2230  -19.5278   20.0773 O   0  0  0  0  0  0  0  0  0  0  0  0
   10.5544  -16.1880   20.9628 C   0  0  0  0  0  0  0  0  0  0  0  0
   11.4183  -15.2655   21.0650 O   0  0  0  0  0  0  0  0  0  0  0  0
   12.7775  -20.7034   18.7900 O   0  0  0  0  0  0  0  0  0  0  0  0
    8.5441  -15.3182   23.9072 C   0  0  0  0  0  0  0  0  0  0  0  0
    9.9241  -15.6061   23.3054 C   0  0  2  0  0  0  0  0  0  0  0  0
    9.7372  -16.4062   22.1028 N   0  0  0  0  0  0  0  0  0  0  0  0
   10.6784  -16.3847   24.2879 C   0  0  0  0  0  0  0  0  0  0  0  0
   11.2369  -15.7583   25.3862 O   0  0  0  0  0  0  0  0  0  0  0  0
   10.8276  -17.6459   24.1405 O   0  0  0  0  0  0  0  0  0  0  0  0
  2  1  1  0
  3  2  1  0
  3  4  1  6
  5  3  1  0
  5  7  1  0
  6  5  2  0
  8  7  1  0
  8  9  1  6
 10  9  1  0
 10 11  1  0
 11 12  2  0
 11 15  1  0
 13  8  1  0
 13 18  1  0
 14 13  2  0
 17 18  1  0
 17 16  1  1
 19 17  1  0
 20 19  1  0
 21 19  2  0
M  END
$$$$
