SEA.pdb
     RDKit          3D

 21 20  0  0  1  0  0  0  0  0999 V2000
    5.8671  -19.1422   18.0865 O   0  0  0  0  0  0  0  0  0  0  0  0
    7.0104  -18.7853   18.7635 C   0  0  0  0  0  0  0  0  0  0  0  0
    7.8816  -17.9552   17.8469 C   0  0  2  0  0  0  0  0  0  0  0  0
    8.4393  -18.7243   16.7709 N   0  0  0  0  0  0  0  0  0  0  0  0
    9.0007  -17.3706   18.6363 C   0  0  0  0  0  0  0  0  0  0  0  0
   10.0422  -18.0313   18.9102 O   0  0  0  0  0  0  0  0  0  0  0  0
    8.9413  -16.0347   19.1170 N   0  0  0  0  0  0  0  0  0  0  0  0
   10.0005  -15.4934   20.0088 C   0  0  1  0  0  0  0  0  0  0  0  0
   10.0895  -14.0362   19.7874 C   0  0  0  0  0  0  0  0  0  0  0  0
   10.6956  -13.5282   18.5500 C   0  0  0  0  0  0  0  0  0  0  0  0
   12.1825  -13.7938   18.5682 C   0  0  0  0  0  0  0  0  0  0  0  0
   12.7813  -13.9580   19.6548 O   0  0  0  0  0  0  0  0  0  0  0  0
    9.6670  -15.9707   21.3425 C   0  0  0  0  0  0  0  0  0  0  0  0
    8.4839  -16.1294   21.7698 O   0  0  0  0  0  0  0  0  0  0  0  0
   12.8956  -13.8584   17.3952 O   0  0  0  0  0  0  0  0  0  0  0  0
    9.9210  -18.2999   23.3576 C   0  0  0  0  0  0  0  0  0  0  0  0
   10.3931  -16.8556   23.5590 C   0  0  2  0  0  0  0  0  0  0  0  0
   10.7074  -16.2941   22.2524 N   0  0  0  0  0  0  0  0  0  0  0  0
   11.6111  -16.9002   24.3683 C   0  0  0  0  0  0  0  0  0  0  0  0
   11.5401  -17.2325   25.7081 O   0  0  0  0  0  0  0  0  0  0  0  0
   12.7473  -16.6332   23.8464 O   0  0  0  0  0  0  0  0  0  0  0  0
  2  1  1  0
  3  2  1  0
  3  4  1  6
  5  3  1  0
  5  7  1  0
  6  5  2  0
  8  7  1  0
  8  9  1  1
 10  9  1  0
 10 11  1  0
 11 12  2  0
 11 15  1  0
 13  8  1  0
 13 18  1  0
 14 13  2  0
 17 18  1  0
 17 16  1  6
 19 17  1  0
 20 19  1  0
 21 19  2  0
M  END
$$$$
