HYF.pdb
     RDKit          3D

 34 36  0  0  1  0  0  0  0  0999 V2000
   25.9927  -22.3186  -18.5940 N   0  0  0  0  0  0  0  0  0  0  0  0
   25.9374  -21.1633  -17.7383 C   0  0  1  0  0  0  0  0  0  0  0  0
   25.0761  -20.0756  -18.3422 C   0  0  0  0  0  0  0  0  0  0  0  0
   25.7937  -19.5382  -19.5271 C   0  0  0  0  0  0  0  0  0  0  0  0
   25.3283  -19.4775  -20.8290 C   0  0  0  0  0  0  0  0  0  0  0  0
   26.2709  -18.9183  -21.6419 N   0  0  0  0  0  0  0  0  0  0  0  0
   27.3109  -18.6360  -20.8458 C   0  0  0  0  0  0  0  0  0  0  0  0
   27.0434  -18.9988  -19.5838 N   0  0  0  0  0  0  0  0  0  0  0  0
   25.4369  -21.5591  -16.3862 C   0  0  0  0  0  0  0  0  0  0  0  0
   24.4571  -22.3222  -16.3247 O   0  0  0  0  0  0  0  0  0  0  0  0
   24.8150  -20.8347   -7.4498 O   0  0  0  0  0  0  0  0  0  0  0  0
   25.2269  -20.8498   -8.7854 C   0  0  0  0  0  0  0  0  0  0  0  0
   24.8653  -21.8742   -9.6354 C   0  0  0  0  0  0  0  0  0  0  0  0
   25.2588  -21.9129  -10.9592 C   0  0  0  0  0  0  0  0  0  0  0  0
   26.0375  -20.9152  -11.4846 C   0  0  0  0  0  0  0  0  0  0  0  0
   26.5233  -20.8953  -12.8825 C   0  0  0  0  0  0  0  0  0  0  0  0
   25.5091  -21.2672  -13.9140 C   0  0  2  0  0  0  0  0  0  0  0  0
   26.0564  -21.0819  -15.2244 N   0  0  0  0  0  0  0  0  0  0  0  0
   24.2384  -20.5285  -13.7288 C   0  0  0  0  0  0  0  0  0  0  0  0
   24.2754  -19.2492  -13.7903 O   0  0  0  0  0  0  0  0  0  0  0  0
   26.4048  -19.8869  -10.6451 C   0  0  0  0  0  0  0  0  0  0  0  0
   26.0126  -19.8425   -9.3142 C   0  0  0  0  0  0  0  0  0  0  0  0
   22.9753  -21.1397  -13.4830 N   0  0  0  0  0  0  0  0  0  0  0  0
   21.8707  -20.3263  -13.0931 C   0  0  1  0  0  0  0  0  0  0  0  0
   21.4067  -19.3229  -14.0904 C   0  0  0  0  0  0  0  0  0  0  0  0
   21.0934  -19.8522  -15.4293 C   0  0  0  0  0  0  0  0  0  0  0  0
   19.8633  -20.4820  -15.6269 C   0  0  0  0  0  0  0  0  0  0  0  0
   19.4999  -21.0033  -16.8565 C   0  0  0  0  0  0  0  0  0  0  0  0
   20.3384  -20.9232  -17.9408 C   0  0  0  0  0  0  0  0  0  0  0  0
   21.5574  -20.3074  -17.7727 C   0  0  0  0  0  0  0  0  0  0  0  0
   21.9209  -19.7815  -16.5273 C   0  0  0  0  0  0  0  0  0  0  0  0
   20.7005  -21.2105  -12.7521 C   0  0  0  0  0  0  0  0  0  0  0  0
   20.8159  -22.4289  -12.9235 O   0  0  0  0  0  0  0  0  0  0  0  0
   19.5251  -20.6982  -12.2602 O   0  0  0  0  0  0  0  0  0  0  0  0
  2  1  1  6
  2  9  1  0
  2  3  1  0
  3  4  1  0
  4  5  2  0
  5  6  1  0
  7  6  1  0
  8  4  1  0
  8  7  2  0
  9 10  2  0
 11 12  1  0
 12 13  2  0
 12 22  1  0
 13 14  1  0
 14 15  2  0
 15 16  1  0
 17 16  1  1
 18 17  1  0
 18  9  1  0
 19 20  2  0
 19 17  1  0
 21 15  1  0
 22 21  2  0
 23 19  1  0
 24 25  1  6
 24 23  1  0
 25 26  1  0
 26 31  2  0
 27 28  2  0
 27 26  1  0
 28 29  1  0
 29 30  2  0
 31 30  1  0
 32 24  1  0
 32 34  1  0
 33 32  2  0
M  END
$$$$
