HYF.pdb
     RDKit          3D

 34 36  0  0  1  0  0  0  0  0999 V2000
   18.7500  -11.4256  -21.7029 N   0  0  0  0  0  0  0  0  0  0  0  0
   19.7364  -10.4017  -21.4826 C   0  0  1  0  0  0  0  0  0  0  0  0
   19.6337   -9.3094  -22.5248 C   0  0  0  0  0  0  0  0  0  0  0  0
   20.0160   -9.8986  -23.8342 C   0  0  0  0  0  0  0  0  0  0  0  0
   21.0807   -9.5294  -24.6375 C   0  0  0  0  0  0  0  0  0  0  0  0
   21.1116  -10.2989  -25.7639 N   0  0  0  0  0  0  0  0  0  0  0  0
   20.0722  -11.1373  -25.6555 C   0  0  0  0  0  0  0  0  0  0  0  0
   19.4095  -10.9123  -24.5126 N   0  0  0  0  0  0  0  0  0  0  0  0
   19.5886   -9.8458  -20.1025 C   0  0  0  0  0  0  0  0  0  0  0  0
   18.5186  -10.0468  -19.5017 O   0  0  0  0  0  0  0  0  0  0  0  0
   20.5239   -8.3544  -11.7115 O   0  0  0  0  0  0  0  0  0  0  0  0
   20.5045   -8.7170  -13.0613 C   0  0  0  0  0  0  0  0  0  0  0  0
   21.6261   -9.2248  -13.6831 C   0  0  0  0  0  0  0  0  0  0  0  0
   21.6335   -9.5908  -15.0154 C   0  0  0  0  0  0  0  0  0  0  0  0
   20.5045   -9.4596  -15.7807 C   0  0  0  0  0  0  0  0  0  0  0  0
   20.4363   -9.8025  -17.2189 C   0  0  0  0  0  0  0  0  0  0  0  0
   20.5769   -8.6477  -18.1558 C   0  0  2  0  0  0  0  0  0  0  0  0
   20.6276   -9.1199  -19.5069 N   0  0  0  0  0  0  0  0  0  0  0  0
   21.7436   -7.8007  -17.8151 C   0  0  0  0  0  0  0  0  0  0  0  0
   22.8979   -8.1806  -18.2209 O   0  0  0  0  0  0  0  0  0  0  0  0
   19.3782   -8.9535  -15.1705 C   0  0  0  0  0  0  0  0  0  0  0  0
   19.3646   -8.5841  -13.8324 C   0  0  0  0  0  0  0  0  0  0  0  0
   21.6746   -6.5925  -17.0633 N   0  0  0  0  0  0  0  0  0  0  0  0
   22.8746   -5.8731  -16.7873 C   0  0  1  0  0  0  0  0  0  0  0  0
   23.3266   -4.9181  -17.8362 C   0  0  0  0  0  0  0  0  0  0  0  0
   24.5260   -4.1287  -17.5061 C   0  0  0  0  0  0  0  0  0  0  0  0
   24.3593   -2.8167  -17.0590 C   0  0  0  0  0  0  0  0  0  0  0  0
   25.4389   -2.0154  -16.7303 C   0  0  0  0  0  0  0  0  0  0  0  0
   26.7275   -2.4788  -16.8306 C   0  0  0  0  0  0  0  0  0  0  0  0
   26.9195   -3.7689  -17.2692 C   0  0  0  0  0  0  0  0  0  0  0  0
   25.8246   -4.5759  -17.6006 C   0  0  0  0  0  0  0  0  0  0  0  0
   22.7057   -5.1016  -15.5052 C   0  0  0  0  0  0  0  0  0  0  0  0
   21.5613   -4.8059  -15.1445 O   0  0  0  0  0  0  0  0  0  0  0  0
   23.7818   -4.7264  -14.7389 O   0  0  0  0  0  0  0  0  0  0  0  0
  2  1  1  6
  2  9  1  0
  2  3  1  0
  3  4  1  0
  4  5  2  0
  5  6  1  0
  7  6  1  0
  8  4  1  0
  8  7  2  0
  9 10  2  0
 11 12  1  0
 12 13  2  0
 12 22  1  0
 13 14  1  0
 14 15  2  0
 15 16  1  0
 17 16  1  1
 18 17  1  0
 18  9  1  0
 19 20  2  0
 19 17  1  0
 21 15  1  0
 22 21  2  0
 23 19  1  0
 24 25  1  6
 24 23  1  0
 25 26  1  0
 26 31  2  0
 27 28  2  0
 27 26  1  0
 28 29  1  0
 29 30  2  0
 31 30  1  0
 32 24  1  0
 32 34  1  0
 33 32  2  0
M  END
$$$$
