HYF.pdb
     RDKit          3D

 34 36  0  0  1  0  0  0  0  0999 V2000
   21.0588   -4.6881  -19.8174 N   0  0  0  0  0  0  0  0  0  0  0  0
   21.4733   -5.6501  -18.8310 C   0  0  1  0  0  0  0  0  0  0  0  0
   22.6924   -5.1684  -18.0751 C   0  0  0  0  0  0  0  0  0  0  0  0
   23.8284   -5.1260  -19.0319 C   0  0  0  0  0  0  0  0  0  0  0  0
   24.3628   -6.1869  -19.7418 C   0  0  0  0  0  0  0  0  0  0  0  0
   25.3983   -5.7599  -20.5211 N   0  0  0  0  0  0  0  0  0  0  0  0
   25.5014   -4.4437  -20.2930 C   0  0  0  0  0  0  0  0  0  0  0  0
   24.5743   -4.0502  -19.4089 N   0  0  0  0  0  0  0  0  0  0  0  0
   20.3403   -5.9388  -17.8992 C   0  0  0  0  0  0  0  0  0  0  0  0
   19.5882   -5.0004  -17.5831 O   0  0  0  0  0  0  0  0  0  0  0  0
   14.0850  -10.3404  -13.5107 O   0  0  0  0  0  0  0  0  0  0  0  0
   15.1189   -9.9471  -14.3651 C   0  0  0  0  0  0  0  0  0  0  0  0
   16.3193  -10.6259  -14.3974 C   0  0  0  0  0  0  0  0  0  0  0  0
   17.3568  -10.2580  -15.2323 C   0  0  0  0  0  0  0  0  0  0  0  0
   17.2272   -9.1845  -16.0740 C   0  0  0  0  0  0  0  0  0  0  0  0
   18.2981   -8.7092  -16.9784 C   0  0  0  0  0  0  0  0  0  0  0  0
   19.0944   -7.5527  -16.4690 C   0  0  2  0  0  0  0  0  0  0  0  0
   20.1350   -7.2306  -17.3987 N   0  0  0  0  0  0  0  0  0  0  0  0
   19.6192   -7.8026  -15.1064 C   0  0  0  0  0  0  0  0  0  0  0  0
   20.7584   -8.3790  -15.0002 O   0  0  0  0  0  0  0  0  0  0  0  0
   16.0329   -8.4988  -16.0504 C   0  0  0  0  0  0  0  0  0  0  0  0
   14.9869   -8.8637  -15.2139 C   0  0  0  0  0  0  0  0  0  0  0  0
   18.9446   -7.4503  -13.9021 N   0  0  0  0  0  0  0  0  0  0  0  0
   19.5760   -7.7039  -12.6488 C   0  0  1  0  0  0  0  0  0  0  0  0
   20.8774   -7.0192  -12.4160 C   0  0  0  0  0  0  0  0  0  0  0  0
   21.4753   -7.2213  -11.0847 C   0  0  0  0  0  0  0  0  0  0  0  0
   22.4984   -8.1614  -10.9484 C   0  0  0  0  0  0  0  0  0  0  0  0
   23.1072   -8.4053   -9.7295 C   0  0  0  0  0  0  0  0  0  0  0  0
   22.7290   -7.7295   -8.5957 C   0  0  0  0  0  0  0  0  0  0  0  0
   21.7224   -6.7974   -8.7028 C   0  0  0  0  0  0  0  0  0  0  0  0
   21.1093   -6.5540   -9.9376 C   0  0  0  0  0  0  0  0  0  0  0  0
   18.6429   -7.3086  -11.5350 C   0  0  0  0  0  0  0  0  0  0  0  0
   17.7507   -6.4893  -11.7798 O   0  0  0  0  0  0  0  0  0  0  0  0
   18.7605   -7.8334  -10.2715 O   0  0  0  0  0  0  0  0  0  0  0  0
  2  1  1  6
  2  9  1  0
  2  3  1  0
  3  4  1  0
  4  5  2  0
  5  6  1  0
  7  6  1  0
  8  4  1  0
  8  7  2  0
  9 10  2  0
 11 12  1  0
 12 13  2  0
 12 22  1  0
 13 14  1  0
 14 15  2  0
 15 16  1  0
 17 16  1  6
 18 17  1  0
 18  9  1  0
 19 20  2  0
 19 17  1  0
 21 15  1  0
 22 21  2  0
 23 19  1  0
 24 25  1  6
 24 23  1  0
 25 26  1  0
 26 31  2  0
 27 28  2  0
 27 26  1  0
 28 29  1  0
 29 30  2  0
 31 30  1  0
 32 24  1  0
 32 34  1  0
 33 32  2  0
M  END
$$$$
