HYF.pdb
     RDKit          3D

 34 36  0  0  1  0  0  0  0  0999 V2000
   28.7096  -21.0503  -17.9325 N   0  0  0  0  0  0  0  0  0  0  0  0
   27.7971  -21.7165  -17.0416 C   0  0  1  0  0  0  0  0  0  0  0  0
   28.2724  -23.1161  -16.7174 C   0  0  0  0  0  0  0  0  0  0  0  0
   27.9020  -23.9934  -17.8580 C   0  0  0  0  0  0  0  0  0  0  0  0
   27.2103  -23.6309  -19.0005 C   0  0  0  0  0  0  0  0  0  0  0  0
   27.0588  -24.7091  -19.8229 N   0  0  0  0  0  0  0  0  0  0  0  0
   27.6537  -25.7300  -19.1912 C   0  0  0  0  0  0  0  0  0  0  0  0
   28.1608  -25.3210  -18.0200 N   0  0  0  0  0  0  0  0  0  0  0  0
   27.6215  -20.9051  -15.7982 C   0  0  0  0  0  0  0  0  0  0  0  0
   28.6283  -20.6633  -15.1096 O   0  0  0  0  0  0  0  0  0  0  0  0
   28.2089  -14.8740  -17.9407 O   0  0  0  0  0  0  0  0  0  0  0  0
   27.5159  -15.7432  -17.0933 C   0  0  0  0  0  0  0  0  0  0  0  0
   27.6784  -15.6906  -15.7245 C   0  0  0  0  0  0  0  0  0  0  0  0
   27.0057  -16.5378  -14.8651 C   0  0  0  0  0  0  0  0  0  0  0  0
   26.1364  -17.4786  -15.3520 C   0  0  0  0  0  0  0  0  0  0  0  0
   25.3983  -18.4401  -14.5027 C   0  0  0  0  0  0  0  0  0  0  0  0
   26.1212  -19.7135  -14.2073 C   0  0  2  0  0  0  0  0  0  0  0  0
   26.3577  -20.4327  -15.4229 N   0  0  0  0  0  0  0  0  0  0  0  0
   25.4049  -20.5332  -13.2025 C   0  0  0  0  0  0  0  0  0  0  0  0
   24.4345  -21.2646  -13.6085 O   0  0  0  0  0  0  0  0  0  0  0  0
   25.9662  -17.5404  -16.7174 C   0  0  0  0  0  0  0  0  0  0  0  0
   26.6391  -16.6920  -17.5859 C   0  0  0  0  0  0  0  0  0  0  0  0
   25.7161  -20.5642  -11.8126 N   0  0  0  0  0  0  0  0  0  0  0  0
   24.9485  -21.3950  -10.9441 C   0  0  1  0  0  0  0  0  0  0  0  0
   25.6738  -21.9852   -9.7856 C   0  0  0  0  0  0  0  0  0  0  0  0
   26.4699  -21.0404   -8.9829 C   0  0  0  0  0  0  0  0  0  0  0  0
   25.8023  -20.1750   -8.1144 C   0  0  0  0  0  0  0  0  0  0  0  0
   26.4833  -19.2609   -7.3293 C   0  0  0  0  0  0  0  0  0  0  0  0
   27.8524  -19.1651   -7.3713 C   0  0  0  0  0  0  0  0  0  0  0  0
   28.5347  -20.0068   -8.2197 C   0  0  0  0  0  0  0  0  0  0  0  0
   27.8419  -20.9299   -9.0119 C   0  0  0  0  0  0  0  0  0  0  0  0
   23.7850  -20.6059  -10.4044 C   0  0  0  0  0  0  0  0  0  0  0  0
   23.8329  -19.3726  -10.4669 O   0  0  0  0  0  0  0  0  0  0  0  0
   22.6872  -21.2199   -9.8534 O   0  0  0  0  0  0  0  0  0  0  0  0
  2  1  1  6
  2  9  1  0
  2  3  1  0
  3  4  1  0
  4  5  2  0
  5  6  1  0
  7  6  1  0
  8  4  1  0
  8  7  2  0
  9 10  2  0
 11 12  1  0
 12 13  2  0
 12 22  1  0
 13 14  1  0
 14 15  2  0
 15 16  1  0
 17 16  1  6
 18 17  1  0
 18  9  1  0
 19 20  2  0
 19 17  1  0
 21 15  1  0
 22 21  2  0
 23 19  1  0
 24 25  1  1
 24 23  1  0
 25 26  1  0
 26 31  2  0
 27 28  2  0
 27 26  1  0
 28 29  1  0
 29 30  2  0
 31 30  1  0
 32 24  1  0
 32 34  1  0
 33 32  2  0
M  END
$$$$
