HYF.pdb
     RDKit          3D

 34 36  0  0  1  0  0  0  0  0999 V2000
   29.2109  -18.9442  -19.1658 N   0  0  0  0  0  0  0  0  0  0  0  0
   28.5312  -20.0474  -18.5405 C   0  0  1  0  0  0  0  0  0  0  0  0
   29.5154  -21.0256  -17.9370 C   0  0  0  0  0  0  0  0  0  0  0  0
   30.2616  -21.6611  -19.0537 C   0  0  0  0  0  0  0  0  0  0  0  0
   31.6041  -21.5103  -19.3540 C   0  0  0  0  0  0  0  0  0  0  0  0
   31.9284  -22.2516  -20.4528 N   0  0  0  0  0  0  0  0  0  0  0  0
   30.7926  -22.8555  -20.8275 C   0  0  0  0  0  0  0  0  0  0  0  0
   29.7907  -22.5147  -20.0052 N   0  0  0  0  0  0  0  0  0  0  0  0
   27.5787  -19.5348  -17.5084 C   0  0  0  0  0  0  0  0  0  0  0  0
   27.8554  -18.4667  -16.9350 O   0  0  0  0  0  0  0  0  0  0  0  0
   19.7218  -17.5190  -14.1647 O   0  0  0  0  0  0  0  0  0  0  0  0
   20.8481  -17.8969  -14.9011 C   0  0  0  0  0  0  0  0  0  0  0  0
   20.9333  -19.1398  -15.4931 C   0  0  0  0  0  0  0  0  0  0  0  0
   22.0348  -19.5380  -16.2260 C   0  0  0  0  0  0  0  0  0  0  0  0
   23.1023  -18.6953  -16.3937 C   0  0  0  0  0  0  0  0  0  0  0  0
   24.3291  -19.0539  -17.1399 C   0  0  0  0  0  0  0  0  0  0  0  0
   25.3916  -19.7253  -16.3327 C   0  0  2  0  0  0  0  0  0  0  0  0
   26.4092  -20.2403  -17.1988 N   0  0  0  0  0  0  0  0  0  0  0  0
   24.8311  -20.7703  -15.4448 C   0  0  0  0  0  0  0  0  0  0  0  0
   24.4864  -21.8845  -15.9751 O   0  0  0  0  0  0  0  0  0  0  0  0
   23.0284  -17.4514  -15.8070 C   0  0  0  0  0  0  0  0  0  0  0  0
   21.9245  -17.0457  -15.0696 C   0  0  0  0  0  0  0  0  0  0  0  0
   24.6440  -20.6238  -14.0401 N   0  0  0  0  0  0  0  0  0  0  0  0
   24.1744  -21.7349  -13.2792 C   0  0  1  0  0  0  0  0  0  0  0  0
   25.0990  -22.2567  -12.2354 C   0  0  0  0  0  0  0  0  0  0  0  0
   25.5029  -21.2895  -11.1998 C   0  0  0  0  0  0  0  0  0  0  0  0
   26.7712  -20.7124  -11.2839 C   0  0  0  0  0  0  0  0  0  0  0  0
   27.2194  -19.7964  -10.3480 C   0  0  0  0  0  0  0  0  0  0  0  0
   26.4315  -19.4141   -9.2906 C   0  0  0  0  0  0  0  0  0  0  0  0
   25.1765  -19.9685   -9.1843 C   0  0  0  0  0  0  0  0  0  0  0  0
   24.7273  -20.8945  -10.1332 C   0  0  0  0  0  0  0  0  0  0  0  0
   22.8818  -21.3612  -12.6030 C   0  0  0  0  0  0  0  0  0  0  0  0
   22.6521  -20.1647  -12.3963 O   0  0  0  0  0  0  0  0  0  0  0  0
   21.9657  -22.3092  -12.2182 O   0  0  0  0  0  0  0  0  0  0  0  0
  2  1  1  1
  2  9  1  0
  2  3  1  0
  3  4  1  0
  4  5  2  0
  5  6  1  0
  7  6  1  0
  8  4  1  0
  8  7  2  0
  9 10  2  0
 11 12  1  0
 12 13  2  0
 12 22  1  0
 13 14  1  0
 14 15  2  0
 15 16  1  0
 17 16  1  6
 18 17  1  0
 18  9  1  0
 19 20  2  0
 19 17  1  0
 21 15  1  0
 22 21  2  0
 23 19  1  0
 24 25  1  1
 24 23  1  0
 25 26  1  0
 26 31  2  0
 27 28  2  0
 27 26  1  0
 28 29  1  0
 29 30  2  0
 31 30  1  0
 32 24  1  0
 32 34  1  0
 33 32  2  0
M  END
$$$$
