HYF.pdb
     RDKit          3D

 34 36  0  0  1  0  0  0  0  0999 V2000
   28.3327  -18.8356  -18.4024 N   0  0  0  0  0  0  0  0  0  0  0  0
   27.5692  -19.9638  -17.9396 C   0  0  1  0  0  0  0  0  0  0  0  0
   28.4714  -21.1219  -17.5727 C   0  0  0  0  0  0  0  0  0  0  0  0
   29.0402  -21.6669  -18.8326 C   0  0  0  0  0  0  0  0  0  0  0  0
   30.3335  -21.5132  -19.3005 C   0  0  0  0  0  0  0  0  0  0  0  0
   30.4837  -22.1577  -20.4938 N   0  0  0  0  0  0  0  0  0  0  0  0
   29.2902  -22.7053  -20.7598 C   0  0  0  0  0  0  0  0  0  0  0  0
   28.4196  -22.4227  -19.7810 N   0  0  0  0  0  0  0  0  0  0  0  0
   26.7167  -19.5563  -16.7810 C   0  0  0  0  0  0  0  0  0  0  0  0
   27.2613  -18.9645  -15.8327 O   0  0  0  0  0  0  0  0  0  0  0  0
   19.2613  -17.8102  -12.2573 O   0  0  0  0  0  0  0  0  0  0  0  0
   20.2226  -18.0843  -13.2343 C   0  0  0  0  0  0  0  0  0  0  0  0
   20.3482  -19.3438  -13.7825 C   0  0  0  0  0  0  0  0  0  0  0  0
   21.2895  -19.6411  -14.7492 C   0  0  0  0  0  0  0  0  0  0  0  0
   22.1482  -18.6760  -15.2063 C   0  0  0  0  0  0  0  0  0  0  0  0
   23.2007  -18.9181  -16.2183 C   0  0  0  0  0  0  0  0  0  0  0  0
   24.4826  -19.4683  -15.6842 C   0  0  2  0  0  0  0  0  0  0  0  0
   25.3443  -19.8350  -16.7676 N   0  0  0  0  0  0  0  0  0  0  0  0
   24.2517  -20.5927  -14.7476 C   0  0  0  0  0  0  0  0  0  0  0  0
   23.8678  -21.7118  -15.2392 O   0  0  0  0  0  0  0  0  0  0  0  0
   22.0321  -17.4144  -14.6660 C   0  0  0  0  0  0  0  0  0  0  0  0
   21.0884  -17.1096  -13.6946 C   0  0  0  0  0  0  0  0  0  0  0  0
   24.4230  -20.5179  -13.3353 N   0  0  0  0  0  0  0  0  0  0  0  0
   24.0844  -21.6456  -12.5307 C   0  0  1  0  0  0  0  0  0  0  0  0
   25.0947  -22.0606  -11.5190 C   0  0  0  0  0  0  0  0  0  0  0  0
   25.5292  -21.0090  -10.5830 C   0  0  0  0  0  0  0  0  0  0  0  0
   26.6765  -20.2750  -10.8897 C   0  0  0  0  0  0  0  0  0  0  0  0
   27.1448  -19.2723  -10.0585 C   0  0  0  0  0  0  0  0  0  0  0  0
   26.4977  -18.9546   -8.8899 C   0  0  0  0  0  0  0  0  0  0  0  0
   25.3641  -19.6634   -8.5640 C   0  0  0  0  0  0  0  0  0  0  0  0
   24.8940  -20.6768   -9.4076 C   0  0  0  0  0  0  0  0  0  0  0  0
   22.7948  -21.3667  -11.8049 C   0  0  0  0  0  0  0  0  0  0  0  0
   22.4559  -20.1896  -11.6414 O   0  0  0  0  0  0  0  0  0  0  0  0
   21.9984  -22.3792  -11.3290 O   0  0  0  0  0  0  0  0  0  0  0  0
  2  1  1  1
  2  9  1  0
  2  3  1  0
  3  4  1  0
  4  5  2  0
  5  6  1  0
  7  6  1  0
  8  4  1  0
  8  7  2  0
  9 10  2  0
 11 12  1  0
 12 13  2  0
 12 22  1  0
 13 14  1  0
 14 15  2  0
 15 16  1  0
 17 16  1  6
 18 17  1  0
 18  9  1  0
 19 20  2  0
 19 17  1  0
 21 15  1  0
 22 21  2  0
 23 19  1  0
 24 25  1  1
 24 23  1  0
 25 26  1  0
 26 31  2  0
 27 28  2  0
 27 26  1  0
 28 29  1  0
 29 30  2  0
 31 30  1  0
 32 24  1  0
 32 34  1  0
 33 32  2  0
M  END
$$$$
