HYF.pdb
     RDKit          3D

 34 36  0  0  1  0  0  0  0  0999 V2000
   31.1080  -27.4971  -18.3872 N   0  0  0  0  0  0  0  0  0  0  0  0
   29.7986  -27.6763  -18.9560 C   0  0  1  0  0  0  0  0  0  0  0  0
   29.6761  -29.0233  -19.6343 C   0  0  0  0  0  0  0  0  0  0  0  0
   30.5198  -28.9906  -20.8571 C   0  0  0  0  0  0  0  0  0  0  0  0
   30.4427  -28.0856  -21.9012 C   0  0  0  0  0  0  0  0  0  0  0  0
   31.3824  -28.3751  -22.8473 N   0  0  0  0  0  0  0  0  0  0  0  0
   32.0347  -29.4520  -22.3890 C   0  0  0  0  0  0  0  0  0  0  0  0
   31.5336  -29.8312  -21.2054 N   0  0  0  0  0  0  0  0  0  0  0  0
   28.7592  -27.5108  -17.8941 C   0  0  0  0  0  0  0  0  0  0  0  0
   29.0391  -27.8752  -16.7387 O   0  0  0  0  0  0  0  0  0  0  0  0
   21.7577  -23.9928  -13.7811 O   0  0  0  0  0  0  0  0  0  0  0  0
   22.7894  -24.3116  -14.6686 C   0  0  0  0  0  0  0  0  0  0  0  0
   22.5275  -24.6536  -15.9790 C   0  0  0  0  0  0  0  0  0  0  0  0
   23.5286  -24.9728  -16.8761 C   0  0  0  0  0  0  0  0  0  0  0  0
   24.8427  -24.9606  -16.4879 C   0  0  0  0  0  0  0  0  0  0  0  0
   25.9708  -25.3151  -17.3779 C   0  0  0  0  0  0  0  0  0  0  0  0
   26.5090  -26.6975  -17.2033 C   0  0  2  0  0  0  0  0  0  0  0  0
   27.5071  -26.9607  -18.1960 N   0  0  0  0  0  0  0  0  0  0  0  0
   25.4308  -27.7135  -17.2110 C   0  0  0  0  0  0  0  0  0  0  0  0
   24.9115  -28.0266  -18.3397 O   0  0  0  0  0  0  0  0  0  0  0  0
   25.1164  -24.6206  -15.1816 C   0  0  0  0  0  0  0  0  0  0  0  0
   24.1150  -24.2989  -14.2756 C   0  0  0  0  0  0  0  0  0  0  0  0
   24.9259  -28.3666  -16.0500 N   0  0  0  0  0  0  0  0  0  0  0  0
   23.8367  -29.2779  -16.1802 C   0  0  1  0  0  0  0  0  0  0  0  0
   23.7681  -30.3714  -15.1721 C   0  0  0  0  0  0  0  0  0  0  0  0
   22.6013  -31.2647  -15.2784 C   0  0  0  0  0  0  0  0  0  0  0  0
   22.7333  -32.4518  -16.0012 C   0  0  0  0  0  0  0  0  0  0  0  0
   21.6811  -33.3396  -16.1440 C   0  0  0  0  0  0  0  0  0  0  0  0
   20.4554  -33.0896  -15.5780 C   0  0  0  0  0  0  0  0  0  0  0  0
   20.2987  -31.9260  -14.8604 C   0  0  0  0  0  0  0  0  0  0  0  0
   21.3655  -31.0308  -14.7185 C   0  0  0  0  0  0  0  0  0  0  0  0
   22.5409  -28.5132  -16.1178 C   0  0  0  0  0  0  0  0  0  0  0  0
   21.7158  -28.6818  -17.0222 O   0  0  0  0  0  0  0  0  0  0  0  0
   22.2609  -27.6460  -15.0905 O   0  0  0  0  0  0  0  0  0  0  0  0
  2  1  1  1
  2  9  1  0
  2  3  1  0
  3  4  1  0
  4  5  2  0
  5  6  1  0
  7  6  1  0
  8  4  1  0
  8  7  2  0
  9 10  2  0
 11 12  1  0
 12 13  2  0
 12 22  1  0
 13 14  1  0
 14 15  2  0
 15 16  1  0
 17 16  1  6
 18 17  1  0
 18  9  1  0
 19 20  2  0
 19 17  1  0
 21 15  1  0
 22 21  2  0
 23 19  1  0
 24 25  1  1
 24 23  1  0
 25 26  1  0
 26 31  2  0
 27 28  2  0
 27 26  1  0
 28 29  1  0
 29 30  2  0
 31 30  1  0
 32 24  1  0
 32 34  1  0
 33 32  2  0
M  END
$$$$
