GVF.pdb
     RDKit          3D

 23 23  0  0  1  0  0  0  0  0999 V2000
   11.8814  -17.6507   18.9308 N   0  0  0  0  0  0  0  0  0  0  0  0
   10.7024  -17.9757   19.6944 C   0  0  0  0  0  0  0  0  0  0  0  0
   10.3895  -16.9028   20.6922 C   0  0  0  0  0  0  0  0  0  0  0  0
   11.2643  -16.5247   21.5035 O   0  0  0  0  0  0  0  0  0  0  0  0
    6.2664  -15.4890   21.2365 C   0  0  0  0  0  0  0  0  0  0  0  0
    7.4517  -14.5851   21.3484 C   0  0  1  0  0  0  0  0  0  0  0  0
    7.2344  -13.3747   22.1916 C   0  0  0  0  0  0  0  0  0  0  0  0
    8.7059  -15.3565   21.7772 C   0  0  2  0  0  0  0  0  0  0  0  0
    9.1102  -16.2880   20.7506 N   0  0  0  0  0  0  0  0  0  0  0  0
    8.5086  -16.0135   23.0928 C   0  0  0  0  0  0  0  0  0  0  0  0
    8.1020  -17.2042   23.0754 O   0  0  0  0  0  0  0  0  0  0  0  0
    8.7416  -15.4053   24.3362 N   0  0  0  0  0  0  0  0  0  0  0  0
    8.7080  -16.0825   25.6152 C   0  0  1  0  0  0  0  0  0  0  0  0
    8.8494  -15.1259   26.7733 C   0  0  0  0  0  0  0  0  0  0  0  0
    7.9445  -13.9599   26.6745 C   0  0  0  0  0  0  0  0  0  0  0  0
    6.6066  -13.9872   26.9952 C   0  0  0  0  0  0  0  0  0  0  0  0
    5.7881  -12.8812   26.8907 C   0  0  0  0  0  0  0  0  0  0  0  0
    6.3115  -11.6889   26.4487 C   0  0  0  0  0  0  0  0  0  0  0  0
    7.6466  -11.6245   26.1188 C   0  0  0  0  0  0  0  0  0  0  0  0
    8.4591  -12.7602   26.2327 C   0  0  0  0  0  0  0  0  0  0  0  0
    7.4442  -16.8207   25.7864 C   0  0  0  0  0  0  0  0  0  0  0  0
    7.3239  -17.8516   26.7361 O   0  0  0  0  0  0  0  0  0  0  0  0
    6.4273  -16.5779   25.1110 O   0  0  0  0  0  0  0  0  0  0  0  0
  1  2  1  0
  3  4  2  0
  3  2  1  0
  6  5  1  1
  6  8  1  0
  7  6  1  0
  8 10  1  0
  8  9  1  6
  9  3  1  0
 10 12  1  0
 11 10  2  0
 12 13  1  0
 13 21  1  0
 13 14  1  1
 14 15  1  0
 15 16  2  0
 16 17  1  0
 18 17  2  0
 19 18  1  0
 20 19  2  0
 20 15  1  0
 21 23  2  0
 21 22  1  0
M  END
$$$$
