GVF.pdb
     RDKit          3D

 23 23  0  0  1  0  0  0  0  0999 V2000
    4.6889  -19.9398   23.0216 N   0  0  0  0  0  0  0  0  0  0  0  0
    4.6427  -18.5030   23.1323 C   0  0  0  0  0  0  0  0  0  0  0  0
    5.9546  -17.8872   22.7530 C   0  0  0  0  0  0  0  0  0  0  0  0
    7.0174  -18.5315   22.9012 O   0  0  0  0  0  0  0  0  0  0  0  0
    8.3408  -13.9680   20.7588 C   0  0  0  0  0  0  0  0  0  0  0  0
    7.0660  -14.7073   21.0095 C   0  0  1  0  0  0  0  0  0  0  0  0
    6.3492  -15.1479   19.7784 C   0  0  0  0  0  0  0  0  0  0  0  0
    7.2751  -15.8682   21.9894 C   0  0  2  0  0  0  0  0  0  0  0  0
    6.0361  -16.5726   22.2208 N   0  0  0  0  0  0  0  0  0  0  0  0
    7.9052  -15.4011   23.2488 C   0  0  0  0  0  0  0  0  0  0  0  0
    7.2790  -14.5291   23.9053 O   0  0  0  0  0  0  0  0  0  0  0  0
    9.1338  -15.8594   23.7493 N   0  0  0  0  0  0  0  0  0  0  0  0
    9.7302  -15.4469   25.0022 C   0  0  1  0  0  0  0  0  0  0  0  0
    8.9087  -15.8714   26.1944 C   0  0  0  0  0  0  0  0  0  0  0  0
    9.4178  -15.3260   27.4716 C   0  0  0  0  0  0  0  0  0  0  0  0
    9.2802  -14.0144   27.8646 C   0  0  0  0  0  0  0  0  0  0  0  0
    9.7684  -13.5361   29.0634 C   0  0  0  0  0  0  0  0  0  0  0  0
   10.4244  -14.3901   29.9184 C   0  0  0  0  0  0  0  0  0  0  0  0
   10.5806  -15.7096   29.5579 C   0  0  0  0  0  0  0  0  0  0  0  0
   10.0769  -16.1737   28.3357 C   0  0  0  0  0  0  0  0  0  0  0  0
   11.0809  -16.0158   25.1543 C   0  0  0  0  0  0  0  0  0  0  0  0
   12.1810  -15.2053   25.4891 O   0  0  0  0  0  0  0  0  0  0  0  0
   11.3216  -17.2269   24.9976 O   0  0  0  0  0  0  0  0  0  0  0  0
  1  2  1  0
  3  4  2  0
  3  2  1  0
  6  5  1  6
  6  8  1  0
  7  6  1  0
  8 10  1  0
  8  9  1  1
  9  3  1  0
 10 12  1  0
 11 10  2  0
 12 13  1  0
 13 21  1  0
 13 14  1  1
 14 15  1  0
 15 16  2  0
 16 17  1  0
 18 17  2  0
 19 18  1  0
 20 19  2  0
 20 15  1  0
 21 23  2  0
 21 22  1  0
M  END
$$$$
