GVF.pdb
     RDKit          3D

 23 23  0  0  1  0  0  0  0  0999 V2000
   12.0349  -17.1075   18.9292 N   0  0  0  0  0  0  0  0  0  0  0  0
   10.9043  -17.5264   19.7198 C   0  0  0  0  0  0  0  0  0  0  0  0
   10.5101  -16.4695   20.7056 C   0  0  0  0  0  0  0  0  0  0  0  0
   11.3883  -15.8460   21.3432 O   0  0  0  0  0  0  0  0  0  0  0  0
    7.4163  -13.7524   20.5285 C   0  0  0  0  0  0  0  0  0  0  0  0
    7.3313  -14.6805   21.6972 C   0  0  1  0  0  0  0  0  0  0  0  0
    6.2697  -15.7220   21.5894 C   0  0  0  0  0  0  0  0  0  0  0  0
    8.6973  -15.2958   22.0244 C   0  0  2  0  0  0  0  0  0  0  0  0
    9.1485  -16.1440   20.9465 N   0  0  0  0  0  0  0  0  0  0  0  0
    8.6692  -16.0031   23.3284 C   0  0  0  0  0  0  0  0  0  0  0  0
    8.6055  -17.2592   23.2895 O   0  0  0  0  0  0  0  0  0  0  0  0
    8.7083  -15.3748   24.5829 N   0  0  0  0  0  0  0  0  0  0  0  0
    8.6677  -16.0570   25.8590 C   0  0  1  0  0  0  0  0  0  0  0  0
    8.7348  -15.0990   27.0226 C   0  0  0  0  0  0  0  0  0  0  0  0
    7.9780  -13.8499   26.7882 C   0  0  0  0  0  0  0  0  0  0  0  0
    8.5569  -12.6336   26.5068 C   0  0  0  0  0  0  0  0  0  0  0  0
    7.8221  -11.4851   26.2944 C   0  0  0  0  0  0  0  0  0  0  0  0
    6.4496  -11.5352   26.3620 C   0  0  0  0  0  0  0  0  0  0  0  0
    5.8359  -12.7356   26.6414 C   0  0  0  0  0  0  0  0  0  0  0  0
    6.6019  -13.8893   26.8537 C   0  0  0  0  0  0  0  0  0  0  0  0
    7.4327  -16.8496   25.9926 C   0  0  0  0  0  0  0  0  0  0  0  0
    7.3052  -17.8414   26.9821 O   0  0  0  0  0  0  0  0  0  0  0  0
    6.4474  -16.6890   25.2492 O   0  0  0  0  0  0  0  0  0  0  0  0
  1  2  1  0
  3  4  2  0
  3  2  1  0
  6  5  1  6
  6  8  1  0
  7  6  1  0
  8 10  1  0
  8  9  1  6
  9  3  1  0
 10 12  1  0
 11 10  2  0
 12 13  1  0
 13 21  1  0
 13 14  1  1
 14 15  1  0
 15 16  2  0
 16 17  1  0
 18 17  2  0
 19 18  1  0
 20 19  2  0
 20 15  1  0
 21 23  2  0
 21 22  1  0
M  END
$$$$
