GVF.pdb
     RDKit          3D

 23 23  0  0  1  0  0  0  0  0999 V2000
    7.9714  -12.4539   17.9571 N   0  0  0  0  0  0  0  0  0  0  0  0
    8.5657  -13.7132   18.3312 C   0  0  0  0  0  0  0  0  0  0  0  0
    8.1831  -14.1001   19.7271 C   0  0  0  0  0  0  0  0  0  0  0  0
    8.0585  -13.2224   20.6106 O   0  0  0  0  0  0  0  0  0  0  0  0
    7.3566  -18.2119   20.4767 C   0  0  0  0  0  0  0  0  0  0  0  0
    6.5797  -17.1567   21.1960 C   0  0  1  0  0  0  0  0  0  0  0  0
    5.9840  -17.5957   22.4906 C   0  0  0  0  0  0  0  0  0  0  0  0
    7.3982  -15.8699   21.3564 C   0  0  2  0  0  0  0  0  0  0  0  0
    7.9526  -15.4542   20.0897 N   0  0  0  0  0  0  0  0  0  0  0  0
    8.4353  -16.0205   22.4068 C   0  0  0  0  0  0  0  0  0  0  0  0
    9.4923  -16.6180   22.0767 O   0  0  0  0  0  0  0  0  0  0  0  0
    8.3181  -15.5486   23.7235 N   0  0  0  0  0  0  0  0  0  0  0  0
    9.2880  -15.7642   24.7762 C   0  0  1  0  0  0  0  0  0  0  0  0
    9.6082  -14.4960   25.5281 C   0  0  0  0  0  0  0  0  0  0  0  0
    8.4439  -13.5938   25.6633 C   0  0  0  0  0  0  0  0  0  0  0  0
    8.0896  -12.6405   24.7362 C   0  0  0  0  0  0  0  0  0  0  0  0
    6.9969  -11.8125   24.8929 C   0  0  0  0  0  0  0  0  0  0  0  0
    6.2136  -11.9276   26.0171 C   0  0  0  0  0  0  0  0  0  0  0  0
    6.5382  -12.8707   26.9661 C   0  0  0  0  0  0  0  0  0  0  0  0
    7.6523  -13.7010   26.7864 C   0  0  0  0  0  0  0  0  0  0  0  0
    8.7977  -16.7578   25.7477 C   0  0  0  0  0  0  0  0  0  0  0  0
    9.6390  -17.2770   26.7485 O   0  0  0  0  0  0  0  0  0  0  0  0
    7.6295  -17.1875   25.7380 O   0  0  0  0  0  0  0  0  0  0  0  0
  1  2  1  0
  3  4  2  0
  3  2  1  0
  6  5  1  1
  6  8  1  0
  7  6  1  0
  8 10  1  0
  8  9  1  6
  9  3  1  0
 10 12  1  0
 11 10  2  0
 12 13  1  0
 13 21  1  0
 13 14  1  1
 14 15  1  0
 15 16  2  0
 16 17  1  0
 18 17  2  0
 19 18  1  0
 20 19  2  0
 20 15  1  0
 21 23  2  0
 21 22  1  0
M  END
$$$$
