GVF.pdb
     RDKit          3D

 23 23  0  0  1  0  0  0  0  0999 V2000
    5.9388  -18.9502   19.8250 N   0  0  0  0  0  0  0  0  0  0  0  0
    5.7694  -17.6647   20.4556 C   0  0  0  0  0  0  0  0  0  0  0  0
    7.0788  -16.9491   20.5891 C   0  0  0  0  0  0  0  0  0  0  0  0
    8.1538  -17.5733   20.4427 O   0  0  0  0  0  0  0  0  0  0  0  0
    7.6715  -13.1714   19.4480 C   0  0  0  0  0  0  0  0  0  0  0  0
    8.2274  -13.3627   20.8223 C   0  0  1  0  0  0  0  0  0  0  0  0
    7.5102  -12.6141   21.8940 C   0  0  0  0  0  0  0  0  0  0  0  0
    8.3684  -14.8502   21.1675 C   0  0  2  0  0  0  0  0  0  0  0  0
    7.1442  -15.5605   20.8817 N   0  0  0  0  0  0  0  0  0  0  0  0
    8.8172  -15.0359   22.5694 C   0  0  0  0  0  0  0  0  0  0  0  0
    9.9257  -14.5281   22.8807 O   0  0  0  0  0  0  0  0  0  0  0  0
    8.0994  -15.7293   23.5565 N   0  0  0  0  0  0  0  0  0  0  0  0
    8.4309  -15.7552   24.9654 C   0  0  1  0  0  0  0  0  0  0  0  0
    7.2317  -15.4865   25.8406 C   0  0  0  0  0  0  0  0  0  0  0  0
    7.0632  -14.0536   26.1672 C   0  0  0  0  0  0  0  0  0  0  0  0
    8.1027  -13.1634   26.3108 C   0  0  0  0  0  0  0  0  0  0  0  0
    7.9119  -11.8317   26.6177 C   0  0  0  0  0  0  0  0  0  0  0  0
    6.6353  -11.3514   26.7920 C   0  0  0  0  0  0  0  0  0  0  0  0
    5.5707  -12.2137   26.6559 C   0  0  0  0  0  0  0  0  0  0  0  0
    5.7878  -13.5622   26.3439 C   0  0  0  0  0  0  0  0  0  0  0  0
    8.9912  -17.0627   25.3499 C   0  0  0  0  0  0  0  0  0  0  0  0
    9.6101  -17.2529   26.5989 O   0  0  0  0  0  0  0  0  0  0  0  0
    8.9493  -18.0576   24.6032 O   0  0  0  0  0  0  0  0  0  0  0  0
  1  2  1  0
  3  4  2  0
  3  2  1  0
  6  5  1  6
  6  8  1  0
  7  6  1  0
  8 10  1  0
  8  9  1  1
  9  3  1  0
 10 12  1  0
 11 10  2  0
 12 13  1  0
 13 21  1  0
 13 14  1  1
 14 15  1  0
 15 16  2  0
 16 17  1  0
 18 17  2  0
 19 18  1  0
 20 19  2  0
 20 15  1  0
 21 23  2  0
 21 22  1  0
M  END
$$$$
