GVF.pdb
     RDKit          3D

 23 23  0  0  1  0  0  0  0  0999 V2000
   11.6539  -17.1707   18.6068 N   0  0  0  0  0  0  0  0  0  0  0  0
   10.4056  -17.3987   19.2914 C   0  0  0  0  0  0  0  0  0  0  0  0
   10.2345  -16.4497   20.4379 C   0  0  0  0  0  0  0  0  0  0  0  0
   11.1609  -16.2886   21.2639 O   0  0  0  0  0  0  0  0  0  0  0  0
    7.9733  -12.9616   20.3474 C   0  0  0  0  0  0  0  0  0  0  0  0
    7.6259  -13.8914   21.4650 C   0  0  1  0  0  0  0  0  0  0  0  0
    6.3279  -14.6064   21.2996 C   0  0  0  0  0  0  0  0  0  0  0  0
    8.7742  -14.8635   21.7624 C   0  0  2  0  0  0  0  0  0  0  0  0
    9.0346  -15.7123   20.6238 N   0  0  0  0  0  0  0  0  0  0  0  0
    8.5139  -15.6394   23.0000 C   0  0  0  0  0  0  0  0  0  0  0  0
    8.1411  -16.8321   22.8522 O   0  0  0  0  0  0  0  0  0  0  0  0
    8.6536  -15.1400   24.3043 N   0  0  0  0  0  0  0  0  0  0  0  0
    8.5727  -15.9316   25.5136 C   0  0  1  0  0  0  0  0  0  0  0  0
    8.6765  -15.0864   26.7590 C   0  0  0  0  0  0  0  0  0  0  0  0
    7.7296  -13.9500   26.7678 C   0  0  0  0  0  0  0  0  0  0  0  0
    6.3650  -14.0786   26.8905 C   0  0  0  0  0  0  0  0  0  0  0  0
    5.5077  -12.9973   26.8937 C   0  0  0  0  0  0  0  0  0  0  0  0
    6.0177  -11.7263   26.7701 C   0  0  0  0  0  0  0  0  0  0  0  0
    7.3786  -11.5597   26.6453 C   0  0  0  0  0  0  0  0  0  0  0  0
    8.2305  -12.6720   26.6445 C   0  0  0  0  0  0  0  0  0  0  0  0
    7.3013  -16.6741   25.5721 C   0  0  0  0  0  0  0  0  0  0  0  0
    7.1326  -17.7653   26.4439 O   0  0  0  0  0  0  0  0  0  0  0  0
    6.3197  -16.3826   24.8645 O   0  0  0  0  0  0  0  0  0  0  0  0
  1  2  1  0
  3  4  2  0
  3  2  1  0
  6  5  1  6
  6  8  1  0
  7  6  1  0
  8 10  1  0
  8  9  1  6
  9  3  1  0
 10 12  1  0
 11 10  2  0
 12 13  1  0
 13 21  1  0
 13 14  1  1
 14 15  1  0
 15 16  2  0
 16 17  1  0
 18 17  2  0
 19 18  1  0
 20 19  2  0
 20 15  1  0
 21 23  2  0
 21 22  1  0
M  END
$$$$
