GVF.pdb
     RDKit          3D

 23 23  0  0  1  0  0  0  0  0999 V2000
    5.9525  -19.5881   21.3318 N   0  0  0  0  0  0  0  0  0  0  0  0
    5.7970  -18.2356   21.8066 C   0  0  0  0  0  0  0  0  0  0  0  0
    7.1013  -17.4989   21.7827 C   0  0  0  0  0  0  0  0  0  0  0  0
    8.1801  -18.1323   21.7415 O   0  0  0  0  0  0  0  0  0  0  0  0
    7.3950  -13.8500   20.0890 C   0  0  0  0  0  0  0  0  0  0  0  0
    8.1518  -13.8806   21.3777 C   0  0  1  0  0  0  0  0  0  0  0  0
    7.5789  -13.0258   22.4568 C   0  0  0  0  0  0  0  0  0  0  0  0
    8.3835  -15.3187   21.8571 C   0  0  2  0  0  0  0  0  0  0  0  0
    7.1575  -16.0797   21.8055 N   0  0  0  0  0  0  0  0  0  0  0  0
    9.0088  -15.3420   23.2025 C   0  0  0  0  0  0  0  0  0  0  0  0
   10.1198  -14.7630   23.3202 O   0  0  0  0  0  0  0  0  0  0  0  0
    8.4528  -15.9571   24.3350 N   0  0  0  0  0  0  0  0  0  0  0  0
    9.0132  -15.9108   25.6689 C   0  0  1  0  0  0  0  0  0  0  0  0
    7.9695  -15.6190   26.7185 C   0  0  0  0  0  0  0  0  0  0  0  0
    7.5166  -14.2108   26.7084 C   0  0  0  0  0  0  0  0  0  0  0  0
    8.3408  -13.1296   26.9211 C   0  0  0  0  0  0  0  0  0  0  0  0
    7.8865  -11.8267   26.9066 C   0  0  0  0  0  0  0  0  0  0  0  0
    6.5554  -11.5745   26.6711 C   0  0  0  0  0  0  0  0  0  0  0  0
    5.7013  -12.6323   26.4541 C   0  0  0  0  0  0  0  0  0  0  0  0
    6.1844  -13.9473   26.4734 C   0  0  0  0  0  0  0  0  0  0  0  0
    9.6591  -17.1899   26.0127 C   0  0  0  0  0  0  0  0  0  0  0  0
   10.4614  -17.3171   27.1612 O   0  0  0  0  0  0  0  0  0  0  0  0
    9.5335  -18.2145   25.3171 O   0  0  0  0  0  0  0  0  0  0  0  0
  1  2  1  0
  3  4  2  0
  3  2  1  0
  6  5  1  6
  6  8  1  0
  7  6  1  0
  8 10  1  0
  8  9  1  1
  9  3  1  0
 10 12  1  0
 11 10  2  0
 12 13  1  0
 13 21  1  0
 13 14  1  1
 14 15  1  0
 15 16  2  0
 16 17  1  0
 18 17  2  0
 19 18  1  0
 20 19  2  0
 20 15  1  0
 21 23  2  0
 21 22  1  0
M  END
$$$$
