LEE.pdb
     RDKit          3D

 27 26  0  0  1  0  0  0  0  0999 V2000
    7.1084  -12.1119   27.1254 C   0  0  0  0  0  0  0  0  0  0  0  0
    6.5475  -12.9921   26.0404 C   0  0  1  0  0  0  0  0  0  0  0  0
    6.5897  -12.2553   24.6971 C   0  0  0  0  0  0  0  0  0  0  0  0
    7.2739  -14.2897   25.9733 C   0  0  0  0  0  0  0  0  0  0  0  0
    6.8148  -15.1813   24.8550 C   0  0  2  0  0  0  0  0  0  0  0  0
    5.6124  -15.9140   25.2051 N   0  0  0  0  0  0  0  0  0  0  0  0
    7.9113  -16.1153   24.4588 C   0  0  0  0  0  0  0  0  0  0  0  0
    8.0820  -17.1020   25.2201 O   0  0  0  0  0  0  0  0  0  0  0  0
    8.7340  -15.9659   23.3303 N   0  0  0  0  0  0  0  0  0  0  0  0
    9.7219  -16.9706   22.9660 C   0  0  1  0  0  0  0  0  0  0  0  0
   10.1391  -16.8570   21.5467 C   0  0  0  0  0  0  0  0  0  0  0  0
    9.1805  -17.5152   20.5986 C   0  0  0  0  0  0  0  0  0  0  0  0
    9.6270  -17.2950   19.1717 C   0  0  0  0  0  0  0  0  0  0  0  0
    8.8574  -16.8285   18.3072 O   0  0  0  0  0  0  0  0  0  0  0  0
   10.9046  -16.7770   23.8553 C   0  0  0  0  0  0  0  0  0  0  0  0
   11.4114  -15.6525   24.0896 O   0  0  0  0  0  0  0  0  0  0  0  0
   10.9136  -17.6198   18.8310 O   0  0  0  0  0  0  0  0  0  0  0  0
   11.5324  -17.8926   24.5004 N   0  0  0  0  0  0  0  0  0  0  0  0
   12.7307  -17.6379   25.3088 C   0  0  1  0  0  0  0  0  0  0  0  0
   12.7190  -18.5211   26.5398 C   0  0  0  0  0  0  0  0  0  0  0  0
   11.5976  -18.2227   27.4767 C   0  0  0  0  0  0  0  0  0  0  0  0
   11.6986  -19.2119   28.6138 C   0  0  0  0  0  0  0  0  0  0  0  0
   10.7964  -20.0242   28.8779 O   0  0  0  0  0  0  0  0  0  0  0  0
   13.9018  -17.8060   24.4495 C   0  0  0  0  0  0  0  0  0  0  0  0
   13.7729  -18.2720   23.2938 O   0  0  0  0  0  0  0  0  0  0  0  0
   12.8442  -19.2119   29.3924 O   0  0  0  0  0  0  0  0  0  0  0  0
   15.1511  -17.4565   24.8942 O   0  0  0  0  0  0  0  0  0  0  0  0
  2  1  1  1
  2  3  1  0
  4  2  1  0
  4  5  1  0
  5  7  1  0
  5  6  1  1
  7  8  2  0
  9 10  1  0
  9  7  1  0
 11 12  1  0
 10 11  1  6
 12 13  1  0
 13 17  1  0
 13 14  2  0
 15 16  2  0
 15 10  1  0
 18 15  1  0
 19 24  1  0
 19 18  1  0
 19 20  1  1
 21 22  1  0
 21 20  1  0
 22 23  2  0
 24 27  1  0
 25 24  2  0
 26 22  1  0
M  END
$$$$
