LEE.pdb
     RDKit          3D

 27 26  0  0  1  0  0  0  0  0999 V2000
    6.8845  -11.9887   27.2958 C   0  0  0  0  0  0  0  0  0  0  0  0
    6.4977  -12.9133   26.1724 C   0  0  1  0  0  0  0  0  0  0  0  0
    6.3635  -12.1210   24.8673 C   0  0  0  0  0  0  0  0  0  0  0  0
    7.4743  -14.0284   26.0350 C   0  0  0  0  0  0  0  0  0  0  0  0
    7.0180  -15.1198   25.1093 C   0  0  2  0  0  0  0  0  0  0  0  0
    5.8845  -15.8483   25.6477 N   0  0  0  0  0  0  0  0  0  0  0  0
    8.1512  -16.0452   24.8074 C   0  0  0  0  0  0  0  0  0  0  0  0
    8.2848  -17.0125   25.6004 O   0  0  0  0  0  0  0  0  0  0  0  0
    9.0446  -15.9076   23.7324 N   0  0  0  0  0  0  0  0  0  0  0  0
    9.9872  -16.9597   23.3824 C   0  0  1  0  0  0  0  0  0  0  0  0
   10.6803  -16.6866   22.0992 C   0  0  0  0  0  0  0  0  0  0  0  0
   11.6621  -17.7566   21.7230 C   0  0  0  0  0  0  0  0  0  0  0  0
   12.2057  -17.4993   20.3364 C   0  0  0  0  0  0  0  0  0  0  0  0
   11.6581  -17.9697   19.3186 O   0  0  0  0  0  0  0  0  0  0  0  0
   10.9878  -17.0482   24.4860 C   0  0  0  0  0  0  0  0  0  0  0  0
   11.6912  -16.0760   24.8553 O   0  0  0  0  0  0  0  0  0  0  0  0
   13.3298  -16.7270   20.2072 O   0  0  0  0  0  0  0  0  0  0  0  0
   11.1975  -18.2766   25.1944 N   0  0  0  0  0  0  0  0  0  0  0  0
   12.2468  -18.3117   26.2200 C   0  0  1  0  0  0  0  0  0  0  0  0
   11.9160  -19.3628   27.2598 C   0  0  0  0  0  0  0  0  0  0  0  0
   10.8495  -18.9423   28.2139 C   0  0  0  0  0  0  0  0  0  0  0  0
   10.6883  -20.0616   29.2155 C   0  0  0  0  0  0  0  0  0  0  0  0
   10.0016  -21.0715   28.9874 O   0  0  0  0  0  0  0  0  0  0  0  0
   13.5316  -18.5024   25.5484 C   0  0  0  0  0  0  0  0  0  0  0  0
   13.6126  -19.2473   24.5445 O   0  0  0  0  0  0  0  0  0  0  0  0
   11.3329  -19.9558   30.4369 O   0  0  0  0  0  0  0  0  0  0  0  0
   14.6598  -17.8705   26.0051 O   0  0  0  0  0  0  0  0  0  0  0  0
  2  1  1  1
  2  3  1  0
  4  2  1  0
  4  5  1  0
  5  7  1  0
  5  6  1  1
  7  8  2  0
  9 10  1  0
  9  7  1  0
 11 12  1  0
 10 11  1  6
 12 13  1  0
 13 17  1  0
 13 14  2  0
 15 16  2  0
 15 10  1  0
 18 15  1  0
 19 24  1  0
 19 18  1  0
 19 20  1  1
 21 22  1  0
 21 20  1  0
 22 23  2  0
 24 27  1  0
 25 24  2  0
 26 22  1  0
M  END
$$$$
