LEE.pdb
     RDKit          3D

 27 26  0  0  1  0  0  0  0  0999 V2000
    7.1480  -11.9345   27.1536 C   0  0  0  0  0  0  0  0  0  0  0  0
    6.5614  -12.9097   26.1679 C   0  0  1  0  0  0  0  0  0  0  0  0
    6.2935  -12.2050   24.8334 C   0  0  0  0  0  0  0  0  0  0  0  0
    7.4479  -14.0924   25.9912 C   0  0  0  0  0  0  0  0  0  0  0  0
    6.9210  -15.1004   25.0100 C   0  0  2  0  0  0  0  0  0  0  0  0
    5.7534  -15.7944   25.5205 N   0  0  0  0  0  0  0  0  0  0  0  0
    7.9967  -16.0687   24.6400 C   0  0  0  0  0  0  0  0  0  0  0  0
    8.1669  -17.0206   25.4446 O   0  0  0  0  0  0  0  0  0  0  0  0
    8.8008  -15.9857   23.4914 N   0  0  0  0  0  0  0  0  0  0  0  0
    9.7257  -17.0487   23.1273 C   0  0  1  0  0  0  0  0  0  0  0  0
   10.2547  -16.8837   21.7510 C   0  0  0  0  0  0  0  0  0  0  0  0
   11.1595  -18.0045   21.3316 C   0  0  0  0  0  0  0  0  0  0  0  0
   11.6273  -17.7910   19.9104 C   0  0  0  0  0  0  0  0  0  0  0  0
   11.2682  -18.5421   18.9809 O   0  0  0  0  0  0  0  0  0  0  0  0
   10.8514  -17.0161   24.1065 C   0  0  0  0  0  0  0  0  0  0  0  0
   11.5166  -15.9806   24.3545 O   0  0  0  0  0  0  0  0  0  0  0  0
   12.4674  -16.7410   19.6489 O   0  0  0  0  0  0  0  0  0  0  0  0
   11.2351  -18.1936   24.8283 N   0  0  0  0  0  0  0  0  0  0  0  0
   12.3507  -18.0894   25.7763 C   0  0  1  0  0  0  0  0  0  0  0  0
   12.1139  -19.0125   26.9542 C   0  0  0  0  0  0  0  0  0  0  0  0
   11.6385  -18.3063   28.1787 C   0  0  0  0  0  0  0  0  0  0  0  0
   11.5096  -19.3474   29.2656 C   0  0  0  0  0  0  0  0  0  0  0  0
   10.7732  -20.3422   29.1572 O   0  0  0  0  0  0  0  0  0  0  0  0
   13.5921  -18.3406   25.0455 C   0  0  0  0  0  0  0  0  0  0  0  0
   13.5976  -19.1165   24.0621 O   0  0  0  0  0  0  0  0  0  0  0  0
   12.2428  -19.1847   30.4295 O   0  0  0  0  0  0  0  0  0  0  0  0
   14.7615  -17.7322   25.4240 O   0  0  0  0  0  0  0  0  0  0  0  0
  2  1  1  1
  2  3  1  0
  4  2  1  0
  4  5  1  0
  5  7  1  0
  5  6  1  1
  7  8  2  0
  9 10  1  0
  9  7  1  0
 11 12  1  0
 10 11  1  6
 12 13  1  0
 13 17  1  0
 13 14  2  0
 15 16  2  0
 15 10  1  0
 18 15  1  0
 19 24  1  0
 19 18  1  0
 19 20  1  1
 21 22  1  0
 21 20  1  0
 22 23  2  0
 24 27  1  0
 25 24  2  0
 26 22  1  0
M  END
$$$$
