LEE.pdb
     RDKit          3D

 27 26  0  0  1  0  0  0  0  0999 V2000
    6.8777  -12.0782   27.1356 C   0  0  0  0  0  0  0  0  0  0  0  0
    6.3649  -13.0212   26.0800 C   0  0  1  0  0  0  0  0  0  0  0  0
    6.4536  -12.3585   24.7008 C   0  0  0  0  0  0  0  0  0  0  0  0
    7.1023  -14.3140   26.1118 C   0  0  0  0  0  0  0  0  0  0  0  0
    6.6631  -15.2855   25.0537 C   0  0  2  0  0  0  0  0  0  0  0  0
    5.6400  -16.1917   25.5412 N   0  0  0  0  0  0  0  0  0  0  0  0
    7.8398  -16.0427   24.5305 C   0  0  0  0  0  0  0  0  0  0  0  0
    8.2813  -16.9453   25.2872 O   0  0  0  0  0  0  0  0  0  0  0  0
    8.4615  -15.8177   23.2913 N   0  0  0  0  0  0  0  0  0  0  0  0
    9.5128  -16.6924   22.7935 C   0  0  1  0  0  0  0  0  0  0  0  0
    9.8475  -16.4146   21.3750 C   0  0  0  0  0  0  0  0  0  0  0  0
   10.9364  -17.2999   20.8446 C   0  0  0  0  0  0  0  0  0  0  0  0
   11.2022  -16.9831   19.3909 C   0  0  0  0  0  0  0  0  0  0  0  0
   11.6359  -15.8700   19.0301 O   0  0  0  0  0  0  0  0  0  0  0  0
   10.7172  -16.4735   23.6471 C   0  0  0  0  0  0  0  0  0  0  0  0
   11.0139  -15.3594   24.1441 O   0  0  0  0  0  0  0  0  0  0  0  0
   10.9567  -17.9523   18.4544 O   0  0  0  0  0  0  0  0  0  0  0  0
   11.6134  -17.5511   23.9478 N   0  0  0  0  0  0  0  0  0  0  0  0
   12.5652  -17.3702   25.0504 C   0  0  1  0  0  0  0  0  0  0  0  0
   12.0217  -18.0120   26.3106 C   0  0  0  0  0  0  0  0  0  0  0  0
   12.9609  -17.9433   27.4672 C   0  0  0  0  0  0  0  0  0  0  0  0
   12.2994  -18.6686   28.6154 C   0  0  0  0  0  0  0  0  0  0  0  0
   12.4587  -19.8833   28.8218 O   0  0  0  0  0  0  0  0  0  0  0  0
   13.8642  -17.8829   24.6171 C   0  0  0  0  0  0  0  0  0  0  0  0
   14.8990  -17.6047   25.2660 O   0  0  0  0  0  0  0  0  0  0  0  0
   11.4827  -17.9485   29.4716 O   0  0  0  0  0  0  0  0  0  0  0  0
   13.9670  -18.6726   23.5005 O   0  0  0  0  0  0  0  0  0  0  0  0
  2  1  1  1
  2  3  1  0
  4  2  1  0
  4  5  1  0
  5  7  1  0
  5  6  1  1
  7  8  2  0
  9 10  1  0
  9  7  1  0
 11 12  1  0
 10 11  1  6
 12 13  1  0
 13 17  1  0
 13 14  2  0
 15 16  2  0
 15 10  1  0
 18 15  1  0
 19 24  1  0
 19 18  1  0
 19 20  1  1
 21 22  1  0
 21 20  1  0
 22 23  2  0
 24 27  1  0
 25 24  2  0
 26 22  1  0
M  END
$$$$
