QRA.pdb
     RDKit          3D

 26 25  0  0  1  0  0  0  0  0999 V2000
   16.7556  -12.8995  -19.7146 N   0  0  0  0  0  0  0  0  0  0  0  0
   15.5506  -13.4965  -19.2912 C   0  0  0  0  0  0  0  0  0  0  0  0
   14.8726  -14.1516  -20.1137 O   0  0  0  0  0  0  0  0  0  0  0  0
   15.1490  -13.3156  -17.8913 C   0  0  0  0  0  0  0  0  0  0  0  0
   16.0778  -12.4661  -17.0731 C   0  0  0  0  0  0  0  0  0  0  0  0
   17.3023  -13.1683  -16.6001 C   0  0  2  0  0  0  0  0  0  0  0  0
   16.9651  -14.2346  -15.6526 N   0  0  0  0  0  0  0  0  0  0  0  0
   18.3114  -12.2496  -15.9622 C   0  0  0  0  0  0  0  0  0  0  0  0
   18.1323  -11.8243  -14.7736 O   0  0  0  0  0  0  0  0  0  0  0  0
   25.5602  -10.2514  -18.2690 N   0  0  0  0  0  0  0  0  0  0  0  0
   25.5629   -9.1703  -17.3052 C   0  0  0  0  0  0  0  0  0  0  0  0
   26.0663   -8.0355  -17.6419 N   0  0  0  0  0  0  0  0  0  0  0  0
   25.0094   -9.4053  -16.0252 N   0  0  0  0  0  0  0  0  0  0  0  0
   24.1068  -10.5863  -15.8759 C   0  0  0  0  0  0  0  0  0  0  0  0
   22.8937  -10.3354  -16.6858 C   0  0  0  0  0  0  0  0  0  0  0  0
   21.7620  -11.2361  -16.7323 C   0  0  0  0  0  0  0  0  0  0  0  0
   20.5088  -10.9774  -16.0220 C   0  0  2  0  0  0  0  0  0  0  0  0
   19.4579  -11.8554  -16.6717 N   0  0  0  0  0  0  0  0  0  0  0  0
   19.9507   -9.6274  -16.1786 C   0  0  0  0  0  0  0  0  0  0  0  0
   19.6018   -9.1946  -17.2812 O   0  0  0  0  0  0  0  0  0  0  0  0
   26.1113   -7.2622  -16.9651 C   0  0  0  0  0  0  0  0  0  0  0  0
   17.9756   -7.1614  -14.6259 C   0  0  1  0  0  0  0  0  0  0  0  0
   19.3105   -7.4026  -15.3272 N   0  0  0  0  0  0  0  0  0  0  0  0
   19.7802   -8.7434  -15.0755 C   0  0  0  0  0  0  0  0  0  0  0  0
   20.3240   -6.4187  -14.8552 O   0  0  0  0  0  0  0  0  0  0  0  0
   20.1269   -5.0817  -15.0736 O   0  0  0  0  0  0  0  0  0  0  0  0
  1  2  1  0
  2  3  2  0
  4  2  1  0
  4  5  1  0
  6  5  1  0
  6  7  1  1
  8  6  1  0
  9  8  2  0
 10 11  1  0
 11 13  1  0
 12 11  2  0
 13 14  1  0
 14 15  1  0
 17 16  1  6
 16 15  1  0
 17 18  1  0
 18  8  1  0
 19 23  1  0
 19 17  1  0
 20 19  2  0
 22 21  1  6
 22 24  1  0
 22 23  1  0
 24 25  1  0
 26 24  2  0
M  END
$$$$
