QRA.pdb
     RDKit          3D

 26 25  0  0  1  0  0  0  0  0999 V2000
   24.2290  -31.1713   -7.7491 N   0  0  0  0  0  0  0  0  0  0  0  0
   23.6435  -31.1419   -9.0313 C   0  0  0  0  0  0  0  0  0  0  0  0
   23.3258  -30.0400   -9.5315 O   0  0  0  0  0  0  0  0  0  0  0  0
   23.4341  -32.4205   -9.7205 C   0  0  0  0  0  0  0  0  0  0  0  0
   24.0008  -33.6182   -9.0146 C   0  0  0  0  0  0  0  0  0  0  0  0
   25.4525  -33.8464   -9.2528 C   0  0  2  0  0  0  0  0  0  0  0  0
   25.6893  -34.3657  -10.6029 N   0  0  0  0  0  0  0  0  0  0  0  0
   26.0845  -34.7794   -8.2532 C   0  0  0  0  0  0  0  0  0  0  0  0
   26.2736  -36.0052   -8.5483 O   0  0  0  0  0  0  0  0  0  0  0  0
   33.3014  -33.4154   -4.1109 N   0  0  0  0  0  0  0  0  0  0  0  0
   33.2790  -34.6154   -4.9216 C   0  0  0  0  0  0  0  0  0  0  0  0
   34.3905  -35.1965   -5.2068 N   0  0  0  0  0  0  0  0  0  0  0  0
   32.0301  -35.1042   -5.3703 N   0  0  0  0  0  0  0  0  0  0  0  0
   30.8220  -34.2810   -5.0622 C   0  0  0  0  0  0  0  0  0  0  0  0
   29.6390  -34.9957   -5.5912 C   0  0  0  0  0  0  0  0  0  0  0  0
   28.2821  -34.5133   -5.4481 C   0  0  0  0  0  0  0  0  0  0  0  0
   27.1220  -35.2301   -5.9792 C   0  0  2  0  0  0  0  0  0  0  0  0
   26.4712  -34.3055   -6.9886 N   0  0  0  0  0  0  0  0  0  0  0  0
   26.0364  -35.4888   -5.0237 C   0  0  0  0  0  0  0  0  0  0  0  0
   25.2563  -34.5982   -4.6730 O   0  0  0  0  0  0  0  0  0  0  0  0
   34.4031  -36.0419   -5.7928 C   0  0  0  0  0  0  0  0  0  0  0  0
   24.1750  -38.3323   -3.5414 C   0  0  1  0  0  0  0  0  0  0  0  0
   24.7714  -36.9283   -3.4707 N   0  0  0  0  0  0  0  0  0  0  0  0
   25.8206  -36.7735   -4.4488 C   0  0  0  0  0  0  0  0  0  0  0  0
   25.3132  -36.6684   -2.1079 O   0  0  0  0  0  0  0  0  0  0  0  0
   24.4784  -36.7153   -1.0240 O   0  0  0  0  0  0  0  0  0  0  0  0
  1  2  1  0
  2  3  2  0
  4  2  1  0
  4  5  1  0
  6  5  1  0
  6  7  1  6
  8  6  1  0
  9  8  2  0
 10 11  1  0
 11 13  1  0
 12 11  2  0
 13 14  1  0
 14 15  1  0
 17 16  1  1
 16 15  1  0
 17 18  1  0
 18  8  1  0
 19 23  1  0
 19 17  1  0
 20 19  2  0
 22 21  1  6
 22 24  1  0
 22 23  1  0
 24 25  1  0
 26 24  2  0
M  END
$$$$
