QRA.pdb
     RDKit          3D

 26 25  0  0  1  0  0  0  0  0999 V2000
   18.7658  -14.4947  -16.8307 N   0  0  0  0  0  0  0  0  0  0  0  0
   19.8158  -13.7422  -17.3955 C   0  0  0  0  0  0  0  0  0  0  0  0
   19.6853  -12.5032  -17.5097 O   0  0  0  0  0  0  0  0  0  0  0  0
   21.0212  -14.4600  -17.8261 C   0  0  0  0  0  0  0  0  0  0  0  0
   21.0574  -15.9136  -17.4525 C   0  0  0  0  0  0  0  0  0  0  0  0
   22.3142  -16.6173  -17.8286 C   0  0  2  0  0  0  0  0  0  0  0  0
   22.6831  -16.3299  -19.2178 N   0  0  0  0  0  0  0  0  0  0  0  0
   22.2444  -18.1103  -17.6410 C   0  0  0  0  0  0  0  0  0  0  0  0
   21.7670  -18.8521  -18.5615 O   0  0  0  0  0  0  0  0  0  0  0  0
   24.8304  -24.9864  -15.3411 N   0  0  0  0  0  0  0  0  0  0  0  0
   25.8771  -24.1907  -15.9487 C   0  0  0  0  0  0  0  0  0  0  0  0
   26.5650  -24.6951  -16.9115 N   0  0  0  0  0  0  0  0  0  0  0  0
   26.1033  -22.8839  -15.4578 N   0  0  0  0  0  0  0  0  0  0  0  0
   25.2227  -22.4071  -14.3492 C   0  0  0  0  0  0  0  0  0  0  0  0
   23.9574  -21.9280  -14.9489 C   0  0  0  0  0  0  0  0  0  0  0  0
   23.7857  -20.6022  -15.5029 C   0  0  0  0  0  0  0  0  0  0  0  0
   22.5793  -20.1895  -16.2213 C   0  0  2  0  0  0  0  0  0  0  0  0
   22.7057  -18.6966  -16.4508 N   0  0  0  0  0  0  0  0  0  0  0  0
   21.3192  -20.3010  -15.4741 C   0  0  0  0  0  0  0  0  0  0  0  0
   21.1517  -19.7218  -14.3966 O   0  0  0  0  0  0  0  0  0  0  0  0
   27.3662  -24.1840  -17.3052 C   0  0  0  0  0  0  0  0  0  0  0  0
   17.8558  -21.6758  -15.9431 C   0  0  1  0  0  0  0  0  0  0  0  0
   19.0457  -21.1896  -15.1187 N   0  0  0  0  0  0  0  0  0  0  0  0
   20.2232  -21.0786  -15.9450 C   0  0  0  0  0  0  0  0  0  0  0  0
   19.3090  -22.1286  -13.9931 O   0  0  0  0  0  0  0  0  0  0  0  0
   20.3741  -22.9862  -14.0581 O   0  0  0  0  0  0  0  0  0  0  0  0
  1  2  1  0
  2  3  2  0
  4  2  1  0
  4  5  1  0
  6  5  1  0
  6  7  1  6
  8  6  1  0
  9  8  2  0
 10 11  1  0
 11 13  1  0
 12 11  2  0
 13 14  1  0
 14 15  1  0
 17 16  1  1
 16 15  1  0
 17 18  1  0
 18  8  1  0
 19 23  1  0
 19 17  1  0
 20 19  2  0
 22 21  1  6
 22 24  1  0
 22 23  1  0
 24 25  1  0
 26 24  2  0
M  END
$$$$
