QRA.pdb
     RDKit          3D

 26 25  0  0  1  0  0  0  0  0999 V2000
   27.4647  -17.4079  -18.4996 N   0  0  0  0  0  0  0  0  0  0  0  0
   26.4491  -18.3382  -18.8010 C   0  0  0  0  0  0  0  0  0  0  0  0
   25.4644  -17.9681  -19.4782 O   0  0  0  0  0  0  0  0  0  0  0  0
   26.6011  -19.7084  -18.2977 C   0  0  0  0  0  0  0  0  0  0  0  0
   27.8047  -19.9316  -17.4286 C   0  0  0  0  0  0  0  0  0  0  0  0
   27.9248  -21.3110  -16.8816 C   0  0  2  0  0  0  0  0  0  0  0  0
   28.0574  -22.2952  -17.9596 N   0  0  0  0  0  0  0  0  0  0  0  0
   26.7713  -21.7076  -15.9977 C   0  0  0  0  0  0  0  0  0  0  0  0
   26.0240  -22.6897  -16.3181 O   0  0  0  0  0  0  0  0  0  0  0  0
   25.7892  -20.3684   -7.2681 N   0  0  0  0  0  0  0  0  0  0  0  0
   24.4969  -20.8656   -7.6930 C   0  0  0  0  0  0  0  0  0  0  0  0
   23.5623  -21.0002   -6.8195 N   0  0  0  0  0  0  0  0  0  0  0  0
   24.3117  -21.1853   -9.0580 N   0  0  0  0  0  0  0  0  0  0  0  0
   25.4726  -20.9740   -9.9743 C   0  0  0  0  0  0  0  0  0  0  0  0
   25.0344  -21.3113  -11.3470 C   0  0  0  0  0  0  0  0  0  0  0  0
   25.8614  -21.1245  -12.5199 C   0  0  0  0  0  0  0  0  0  0  0  0
   25.4040  -21.4365  -13.8746 C   0  0  2  0  0  0  0  0  0  0  0  0
   26.5111  -20.9992  -14.8129 N   0  0  0  0  0  0  0  0  0  0  0  0
   24.2464  -20.6683  -14.3526 C   0  0  0  0  0  0  0  0  0  0  0  0
   24.3424  -19.4764  -14.6606 O   0  0  0  0  0  0  0  0  0  0  0  0
   22.6384  -21.3598   -7.0937 C   0  0  0  0  0  0  0  0  0  0  0  0
   21.0180  -21.1917  -15.9757 C   0  0  1  0  0  0  0  0  0  0  0  0
   21.8699  -20.4248  -14.9667 N   0  0  0  0  0  0  0  0  0  0  0  0
   22.9533  -21.2487  -14.4882 C   0  0  0  0  0  0  0  0  0  0  0  0
   21.0315  -19.9812  -13.8185 O   0  0  0  0  0  0  0  0  0  0  0  0
   20.0178  -19.0843  -14.0232 O   0  0  0  0  0  0  0  0  0  0  0  0
  1  2  1  0
  2  3  2  0
  4  2  1  0
  4  5  1  0
  6  5  1  0
  6  7  1  6
  8  6  1  0
  9  8  2  0
 10 11  1  0
 11 13  1  0
 12 11  2  0
 13 14  1  0
 14 15  1  0
 17 16  1  1
 16 15  1  0
 17 18  1  0
 18  8  1  0
 19 23  1  0
 19 17  1  0
 20 19  2  0
 22 21  1  6
 22 24  1  0
 22 23  1  0
 24 25  1  0
 26 24  2  0
M  END
$$$$
