QRA.pdb
     RDKit          3D

 26 25  0  0  1  0  0  0  0  0999 V2000
   39.1879  -24.8040  -20.8455 N   0  0  0  0  0  0  0  0  0  0  0  0
   38.1169  -24.4262  -20.0101 C   0  0  0  0  0  0  0  0  0  0  0  0
   37.5434  -23.3325  -20.2107 O   0  0  0  0  0  0  0  0  0  0  0  0
   37.7265  -25.3459  -18.9352 C   0  0  0  0  0  0  0  0  0  0  0  0
   36.4307  -26.0690  -19.1628 C   0  0  0  0  0  0  0  0  0  0  0  0
   35.4863  -26.0216  -18.0130 C   0  0  2  0  0  0  0  0  0  0  0  0
   36.0324  -26.7326  -16.8534 N   0  0  0  0  0  0  0  0  0  0  0  0
   34.1248  -26.5817  -18.3322 C   0  0  0  0  0  0  0  0  0  0  0  0
   33.9255  -27.8407  -18.3064 O   0  0  0  0  0  0  0  0  0  0  0  0
   26.7742  -23.9036  -16.3883 N   0  0  0  0  0  0  0  0  0  0  0  0
   26.2942  -25.1938  -16.8387 C   0  0  0  0  0  0  0  0  0  0  0  0
   25.0661  -25.3100  -17.2033 N   0  0  0  0  0  0  0  0  0  0  0  0
   27.1984  -26.2809  -16.8605 N   0  0  0  0  0  0  0  0  0  0  0  0
   28.6211  -25.9951  -16.5052 C   0  0  0  0  0  0  0  0  0  0  0  0
   29.4451  -26.2234  -17.7132 C   0  0  0  0  0  0  0  0  0  0  0  0
   30.8791  -26.0324  -17.7519 C   0  0  0  0  0  0  0  0  0  0  0  0
   31.6818  -26.2692  -18.9524 C   0  0  2  0  0  0  0  0  0  0  0  0
   33.0641  -25.7209  -18.6596 N   0  0  0  0  0  0  0  0  0  0  0  0
   31.2788  -25.5203  -20.1504 C   0  0  0  0  0  0  0  0  0  0  0  0
   31.5384  -24.3203  -20.2820 O   0  0  0  0  0  0  0  0  0  0  0  0
   24.6780  -26.2310  -17.4467 C   0  0  0  0  0  0  0  0  0  0  0  0
   30.0858  -26.2174  -23.6157 C   0  0  1  0  0  0  0  0  0  0  0  0
   30.2438  -25.3321  -22.3815 N   0  0  0  0  0  0  0  0  0  0  0  0
   30.5693  -26.1296  -21.2241 C   0  0  0  0  0  0  0  0  0  0  0  0
   28.9880  -24.5719  -22.1303 O   0  0  0  0  0  0  0  0  0  0  0  0
   28.6006  -23.5913  -23.0034 O   0  0  0  0  0  0  0  0  0  0  0  0
  1  2  1  0
  2  3  2  0
  4  2  1  0
  4  5  1  0
  6  5  1  0
  6  7  1  1
  8  6  1  0
  9  8  2  0
 10 11  1  0
 11 13  1  0
 12 11  2  0
 13 14  1  0
 14 15  1  0
 17 16  1  1
 16 15  1  0
 17 18  1  0
 18  8  1  0
 19 23  1  0
 19 17  1  0
 20 19  2  0
 22 21  1  6
 22 24  1  0
 22 23  1  0
 24 25  1  0
 26 24  2  0
M  END
$$$$
