QRA.pdb
     RDKit          3D

 26 25  0  0  1  0  0  0  0  0999 V2000
   15.8103  -22.2076  -11.7025 N   0  0  0  0  0  0  0  0  0  0  0  0
   16.0279  -22.6651  -13.0182 C   0  0  0  0  0  0  0  0  0  0  0  0
   15.5615  -23.7734  -13.3635 O   0  0  0  0  0  0  0  0  0  0  0  0
   16.8001  -21.8075  -13.9249 C   0  0  0  0  0  0  0  0  0  0  0  0
   17.3539  -20.5616  -13.2964 C   0  0  0  0  0  0  0  0  0  0  0  0
   18.5098  -20.7898  -12.3864 C   0  0  2  0  0  0  0  0  0  0  0  0
   18.1772  -20.4154  -11.0088 N   0  0  0  0  0  0  0  0  0  0  0  0
   19.7561  -20.0545  -12.8047 C   0  0  0  0  0  0  0  0  0  0  0  0
   19.9533  -18.8543  -12.4221 O   0  0  0  0  0  0  0  0  0  0  0  0
   28.1415  -21.0592  -12.6297 N   0  0  0  0  0  0  0  0  0  0  0  0
   27.0353  -21.1176  -11.6965 C   0  0  0  0  0  0  0  0  0  0  0  0
   27.2723  -20.9868  -10.4391 N   0  0  0  0  0  0  0  0  0  0  0  0
   25.7314  -21.3170  -12.2064 N   0  0  0  0  0  0  0  0  0  0  0  0
   25.5884  -21.4511  -13.6874 C   0  0  0  0  0  0  0  0  0  0  0  0
   24.4429  -20.6150  -14.1102 C   0  0  0  0  0  0  0  0  0  0  0  0
   23.0953  -20.7934  -13.6138 C   0  0  0  0  0  0  0  0  0  0  0  0
   21.9719  -19.9592  -14.0424 C   0  0  2  0  0  0  0  0  0  0  0  0
   20.7111  -20.6860  -13.6186 N   0  0  0  0  0  0  0  0  0  0  0  0
   21.7965  -19.8177  -15.4943 C   0  0  0  0  0  0  0  0  0  0  0  0
   21.4680  -20.7738  -16.2033 O   0  0  0  0  0  0  0  0  0  0  0  0
   26.4992  -20.9658   -9.7608 C   0  0  0  0  0  0  0  0  0  0  0  0
   21.9080  -17.1035  -18.1103 C   0  0  1  0  0  0  0  0  0  0  0  0
   21.8928  -18.5444  -17.6047 N   0  0  0  0  0  0  0  0  0  0  0  0
   21.9937  -18.5777  -16.1658 C   0  0  0  0  0  0  0  0  0  0  0  0
   23.0196  -19.3114  -18.2048 O   0  0  0  0  0  0  0  0  0  0  0  0
   22.8853  -19.8498  -19.4562 O   0  0  0  0  0  0  0  0  0  0  0  0
  1  2  1  0
  2  3  2  0
  4  2  1  0
  4  5  1  0
  6  5  1  0
  6  7  1  1
  8  6  1  0
  9  8  2  0
 10 11  1  0
 11 13  1  0
 12 11  2  0
 13 14  1  0
 14 15  1  0
 17 16  1  6
 16 15  1  0
 17 18  1  0
 18  8  1  0
 19 23  1  0
 19 17  1  0
 20 19  2  0
 22 21  1  1
 22 24  1  0
 22 23  1  0
 24 25  1  0
 26 24  2  0
M  END
$$$$
