FIK.pdb
     RDKit          3D

 29 29  0  0  1  0  0  0  0  0999 V2000
   24.9961  -20.1647   -7.3757 N   0  0  0  0  0  0  0  0  0  0  0  0
   26.0626  -20.1515   -8.3254 C   0  0  1  0  0  0  0  0  0  0  0  0
   27.2794  -20.8815   -7.7425 C   0  0  0  0  0  0  0  0  0  0  0  0
   27.6767  -20.2669   -6.4508 C   0  0  0  0  0  0  0  0  0  0  0  0
   28.1121  -18.9651   -6.3952 C   0  0  0  0  0  0  0  0  0  0  0  0
   28.4828  -18.3829   -5.2096 C   0  0  0  0  0  0  0  0  0  0  0  0
   28.4278  -19.0947   -4.0326 C   0  0  0  0  0  0  0  0  0  0  0  0
   27.9913  -20.4027   -4.0820 C   0  0  0  0  0  0  0  0  0  0  0  0
   27.6228  -20.9771   -5.2695 C   0  0  0  0  0  0  0  0  0  0  0  0
   25.7104  -20.8168   -9.6063 C   0  0  0  0  0  0  0  0  0  0  0  0
   24.6269  -21.4105   -9.7393 O   0  0  0  0  0  0  0  0  0  0  0  0
   27.7715  -17.7059  -14.1371 C   0  0  0  0  0  0  0  0  0  0  0  0
   27.2622  -19.1051  -14.0628 C   0  0  0  0  0  0  0  0  0  0  0  0
   27.6101  -19.7808  -12.7321 C   0  0  2  0  0  0  0  0  0  0  0  0
   28.5902  -20.8891  -12.8815 C   0  0  0  0  0  0  0  0  0  0  0  0
   26.4022  -20.0924  -11.9287 C   0  0  2  0  0  0  0  0  0  0  0  0
   26.5435  -20.8306  -10.7365 N   0  0  0  0  0  0  0  0  0  0  0  0
   25.4188  -20.7639  -12.8379 C   0  0  0  0  0  0  0  0  0  0  0  0
   25.6772  -21.9233  -13.2433 O   0  0  0  0  0  0  0  0  0  0  0  0
   24.2289  -20.1507  -13.2504 N   0  0  0  0  0  0  0  0  0  0  0  0
   23.1648  -20.9779  -13.9502 C   0  0  1  0  0  0  0  0  0  0  0  0
   21.8752  -20.5088  -13.4359 C   0  0  0  0  0  0  0  0  0  0  0  0
   20.7334  -21.3951  -13.4091 C   0  0  0  0  0  0  0  0  0  0  0  0
   20.1541  -21.9879  -12.1973 C   0  0  0  0  0  0  0  0  0  0  0  0
   19.0781  -23.0232  -12.4116 C   0  0  0  0  0  0  0  0  0  0  0  0
   18.5131  -23.5846  -11.2307 N   0  0  0  0  0  0  0  0  0  0  0  0
   23.4678  -20.7279  -15.3655 C   0  0  0  0  0  0  0  0  0  0  0  0
   23.9968  -19.6176  -15.7251 O   0  0  0  0  0  0  0  0  0  0  0  0
   23.2103  -21.6556  -16.3515 O   0  0  0  0  0  0  0  0  0  0  0  0
  2  1  1  1
  2  3  1  0
  4  9  2  0
  4  3  1  0
  5  4  1  0
  6  7  1  0
  6  5  2  0
  7  8  2  0
  8  9  1  0
 10  2  1  0
 11 10  2  0
 13 12  1  0
 13 14  1  0
 14 15  1  6
 16 14  1  0
 16 17  1  1
 17 10  1  0
 18 16  1  0
 19 18  2  0
 20 18  1  0
 21 22  1  1
 21 20  1  0
 23 22  1  0
 24 25  1  0
 24 23  1  0
 25 26  1  0
 27 21  1  0
 27 29  1  0
 28 27  2  0
M  END
$$$$
