FIK.pdb
     RDKit          3D

 29 29  0  0  1  0  0  0  0  0999 V2000
   23.0037  -14.7232  -19.3730 N   0  0  0  0  0  0  0  0  0  0  0  0
   23.2716  -13.3295  -19.5323 C   0  0  1  0  0  0  0  0  0  0  0  0
   22.2584  -12.7194  -20.5092 C   0  0  0  0  0  0  0  0  0  0  0  0
   22.5413  -13.1748  -21.8936 C   0  0  0  0  0  0  0  0  0  0  0  0
   21.7436  -14.1128  -22.5028 C   0  0  0  0  0  0  0  0  0  0  0  0
   21.9917  -14.5439  -23.7813 C   0  0  0  0  0  0  0  0  0  0  0  0
   23.0572  -14.0431  -24.4947 C   0  0  0  0  0  0  0  0  0  0  0  0
   23.8621  -13.1008  -23.8882 C   0  0  0  0  0  0  0  0  0  0  0  0
   23.6080  -12.6752  -22.6114 C   0  0  0  0  0  0  0  0  0  0  0  0
   23.1819  -12.5696  -18.2588 C   0  0  0  0  0  0  0  0  0  0  0  0
   22.3708  -12.8978  -17.3766 O   0  0  0  0  0  0  0  0  0  0  0  0
   27.4658  -11.4784  -15.3523 C   0  0  0  0  0  0  0  0  0  0  0  0
   26.1117  -11.7392  -15.9191 C   0  0  0  0  0  0  0  0  0  0  0  0
   25.2935  -10.4541  -16.0856 C   0  0  2  0  0  0  0  0  0  0  0  0
   25.2277   -9.6416  -14.8418 C   0  0  0  0  0  0  0  0  0  0  0  0
   23.9975  -10.6985  -16.7652 C   0  0  2  0  0  0  0  0  0  0  0  0
   23.9788  -11.4543  -17.9546 N   0  0  0  0  0  0  0  0  0  0  0  0
   23.3498   -9.3664  -16.9901 C   0  0  0  0  0  0  0  0  0  0  0  0
   23.8158   -8.6207  -17.8858 O   0  0  0  0  0  0  0  0  0  0  0  0
   22.2506   -8.9238  -16.2432 N   0  0  0  0  0  0  0  0  0  0  0  0
   21.6322   -7.5716  -16.5519 C   0  0  1  0  0  0  0  0  0  0  0  0
   20.2955   -7.8434  -17.0876 C   0  0  0  0  0  0  0  0  0  0  0  0
   19.3723   -6.7583  -17.3328 C   0  0  0  0  0  0  0  0  0  0  0  0
   17.9922   -6.9162  -17.8078 C   0  0  0  0  0  0  0  0  0  0  0  0
   17.2220   -5.6422  -18.0513 C   0  0  0  0  0  0  0  0  0  0  0  0
   15.8953   -5.8035  -18.5442 N   0  0  0  0  0  0  0  0  0  0  0  0
   21.7226   -6.8926  -15.2526 C   0  0  0  0  0  0  0  0  0  0  0  0
   21.7365   -7.5751  -14.1682 O   0  0  0  0  0  0  0  0  0  0  0  0
   21.8018   -5.5215  -15.1392 O   0  0  0  0  0  0  0  0  0  0  0  0
  2  1  1  1
  2  3  1  0
  4  9  2  0
  4  3  1  0
  5  4  1  0
  6  7  1  0
  6  5  2  0
  7  8  2  0
  8  9  1  0
 10  2  1  0
 11 10  2  0
 13 12  1  0
 13 14  1  0
 14 15  1  1
 16 14  1  0
 16 17  1  6
 17 10  1  0
 18 16  1  0
 19 18  2  0
 20 18  1  0
 21 22  1  1
 21 20  1  0
 23 22  1  0
 24 25  1  0
 24 23  1  0
 25 26  1  0
 27 21  1  0
 27 29  1  0
 28 27  2  0
M  END
$$$$
