FIK.pdb
     RDKit          3D

 29 29  0  0  1  0  0  0  0  0999 V2000
   28.1017  -20.8859  -17.5992 N   0  0  0  0  0  0  0  0  0  0  0  0
   27.7013  -20.0163  -16.5395 C   0  0  1  0  0  0  0  0  0  0  0  0
   26.3742  -19.3387  -16.9039 C   0  0  0  0  0  0  0  0  0  0  0  0
   26.5591  -18.4425  -18.0730 C   0  0  0  0  0  0  0  0  0  0  0  0
   26.0659  -18.7863  -19.3083 C   0  0  0  0  0  0  0  0  0  0  0  0
   26.2285  -17.9692  -20.3982 C   0  0  0  0  0  0  0  0  0  0  0  0
   26.8967  -16.7714  -20.2818 C   0  0  0  0  0  0  0  0  0  0  0  0
   27.3944  -16.4206  -19.0437 C   0  0  0  0  0  0  0  0  0  0  0  0
   27.2281  -17.2415  -17.9601 C   0  0  0  0  0  0  0  0  0  0  0  0
   27.5051  -20.7236  -15.2478 C   0  0  0  0  0  0  0  0  0  0  0  0
   26.9673  -21.8432  -15.2096 O   0  0  0  0  0  0  0  0  0  0  0  0
   31.3491  -21.2892  -11.5495 C   0  0  0  0  0  0  0  0  0  0  0  0
   30.1376  -21.4640  -12.4007 C   0  0  0  0  0  0  0  0  0  0  0  0
   28.9001  -20.7918  -11.7962 C   0  0  2  0  0  0  0  0  0  0  0  0
   28.6085  -21.2484  -10.4113 C   0  0  0  0  0  0  0  0  0  0  0  0
   27.7482  -20.7929  -12.7313 C   0  0  2  0  0  0  0  0  0  0  0  0
   27.8972  -20.2049  -14.0034 N   0  0  0  0  0  0  0  0  0  0  0  0
   26.5853  -20.1799  -12.0125 C   0  0  0  0  0  0  0  0  0  0  0  0
   26.3568  -18.9575  -12.1824 O   0  0  0  0  0  0  0  0  0  0  0  0
   25.7484  -20.9146  -11.1629 N   0  0  0  0  0  0  0  0  0  0  0  0
   24.4163  -20.3256  -10.7328 C   0  0  1  0  0  0  0  0  0  0  0  0
   23.4552  -20.6718  -11.7836 C   0  0  0  0  0  0  0  0  0  0  0  0
   22.0614  -20.3138  -11.6454 C   0  0  0  0  0  0  0  0  0  0  0  0
   21.0087  -20.6316  -12.6180 C   0  0  0  0  0  0  0  0  0  0  0  0
   19.6194  -20.1540  -12.2753 C   0  0  0  0  0  0  0  0  0  0  0  0
   18.5766  -20.6140  -13.1295 N   0  0  0  0  0  0  0  0  0  0  0  0
   24.2292  -20.9330   -9.4086 C   0  0  0  0  0  0  0  0  0  0  0  0
   24.7897  -22.0503   -9.1268 O   0  0  0  0  0  0  0  0  0  0  0  0
   23.4653  -20.3419   -8.4256 O   0  0  0  0  0  0  0  0  0  0  0  0
  2  1  1  6
  2  3  1  0
  4  9  2  0
  4  3  1  0
  5  4  1  0
  6  7  1  0
  6  5  2  0
  7  8  2  0
  8  9  1  0
 10  2  1  0
 11 10  2  0
 13 12  1  0
 13 14  1  0
 14 15  1  1
 16 14  1  0
 16 17  1  6
 17 10  1  0
 18 16  1  0
 19 18  2  0
 20 18  1  0
 21 22  1  6
 21 20  1  0
 23 22  1  0
 24 25  1  0
 24 23  1  0
 25 26  1  0
 27 21  1  0
 27 29  1  0
 28 27  2  0
M  END
$$$$
