FIK.pdb
     RDKit          3D

 29 29  0  0  1  0  0  0  0  0999 V2000
   28.2488  -22.1585  -11.1285 N   0  0  0  0  0  0  0  0  0  0  0  0
   27.0389  -21.4233  -10.9408 C   0  0  1  0  0  0  0  0  0  0  0  0
   27.3701  -19.9904  -10.5050 C   0  0  0  0  0  0  0  0  0  0  0  0
   27.6866  -19.9548   -9.0549 C   0  0  0  0  0  0  0  0  0  0  0  0
   28.9755  -20.1262   -8.6114 C   0  0  0  0  0  0  0  0  0  0  0  0
   29.2842  -20.0961   -7.2751 C   0  0  0  0  0  0  0  0  0  0  0  0
   28.3008  -19.8913   -6.3338 C   0  0  0  0  0  0  0  0  0  0  0  0
   27.0043  -19.7185   -6.7730 C   0  0  0  0  0  0  0  0  0  0  0  0
   26.7039  -19.7498   -8.1089 C   0  0  0  0  0  0  0  0  0  0  0  0
   26.2115  -21.3388  -12.1719 C   0  0  0  0  0  0  0  0  0  0  0  0
   26.7142  -20.9959  -13.2553 O   0  0  0  0  0  0  0  0  0  0  0  0
   25.2245  -24.1130  -14.7153 C   0  0  0  0  0  0  0  0  0  0  0  0
   24.2102  -24.2110  -13.6270 C   0  0  0  0  0  0  0  0  0  0  0  0
   23.2743  -22.9980  -13.5933 C   0  0  2  0  0  0  0  0  0  0  0  0
   22.3088  -22.9769  -14.7241 C   0  0  0  0  0  0  0  0  0  0  0  0
   24.0066  -21.7313  -13.3473 C   0  0  2  0  0  0  0  0  0  0  0  0
   24.8384  -21.6291  -12.2141 N   0  0  0  0  0  0  0  0  0  0  0  0
   22.9994  -20.6222  -13.3497 C   0  0  0  0  0  0  0  0  0  0  0  0
   22.3590  -20.3964  -12.2940 O   0  0  0  0  0  0  0  0  0  0  0  0
   22.7465  -19.8323  -14.4784 N   0  0  0  0  0  0  0  0  0  0  0  0
   21.7158  -18.7199  -14.3972 C   0  0  1  0  0  0  0  0  0  0  0  0
   22.0145  -17.8013  -15.4993 C   0  0  0  0  0  0  0  0  0  0  0  0
   21.1401  -16.6838  -15.7761 C   0  0  0  0  0  0  0  0  0  0  0  0
   21.3097  -15.7344  -16.8830 C   0  0  0  0  0  0  0  0  0  0  0  0
   22.6401  -15.0270  -16.9554 C   0  0  0  0  0  0  0  0  0  0  0  0
   22.8527  -14.2216  -18.1109 N   0  0  0  0  0  0  0  0  0  0  0  0
   20.4543  -19.4699  -14.4557 C   0  0  0  0  0  0  0  0  0  0  0  0
   20.3095  -20.4230  -15.2999 O   0  0  0  0  0  0  0  0  0  0  0  0
   19.3925  -19.1964  -13.6209 O   0  0  0  0  0  0  0  0  0  0  0  0
  2  1  1  6
  2  3  1  0
  4  9  2  0
  4  3  1  0
  5  4  1  0
  6  7  1  0
  6  5  2  0
  7  8  2  0
  8  9  1  0
 10  2  1  0
 11 10  2  0
 13 12  1  0
 13 14  1  0
 14 15  1  6
 16 14  1  0
 16 17  1  1
 17 10  1  0
 18 16  1  0
 19 18  2  0
 20 18  1  0
 21 22  1  6
 21 20  1  0
 23 22  1  0
 24 25  1  0
 24 23  1  0
 25 26  1  0
 27 21  1  0
 27 29  1  0
 28 27  2  0
M  END
$$$$
