FIK.pdb
     RDKit          3D

 29 29  0  0  1  0  0  0  0  0999 V2000
   28.8664  -20.3131  -15.2440 N   0  0  0  0  0  0  0  0  0  0  0  0
   27.7360  -19.6174  -14.7170 C   0  0  1  0  0  0  0  0  0  0  0  0
   26.9066  -19.0364  -15.8692 C   0  0  0  0  0  0  0  0  0  0  0  0
   27.5335  -17.7893  -16.3753 C   0  0  0  0  0  0  0  0  0  0  0  0
   28.3079  -17.8012  -17.5100 C   0  0  0  0  0  0  0  0  0  0  0  0
   28.8940  -16.6577  -17.9903 C   0  0  0  0  0  0  0  0  0  0  0  0
   28.7200  -15.4561  -17.3416 C   0  0  0  0  0  0  0  0  0  0  0  0
   27.9433  -15.4377  -16.2014 C   0  0  0  0  0  0  0  0  0  0  0  0
   27.3613  -16.5835  -15.7279 C   0  0  0  0  0  0  0  0  0  0  0  0
   26.8397  -20.4872  -13.9121 C   0  0  0  0  0  0  0  0  0  0  0  0
   26.6790  -21.6835  -14.2075 O   0  0  0  0  0  0  0  0  0  0  0  0
   26.7077  -20.1808   -8.5441 C   0  0  0  0  0  0  0  0  0  0  0  0
   26.5851  -20.8048   -9.8925 C   0  0  0  0  0  0  0  0  0  0  0  0
   25.2105  -20.5595  -10.5241 C   0  0  2  0  0  0  0  0  0  0  0  0
   24.1032  -21.2166   -9.7800 C   0  0  0  0  0  0  0  0  0  0  0  0
   25.2203  -20.7789  -11.9914 C   0  0  2  0  0  0  0  0  0  0  0  0
   26.1230  -20.0464  -12.7881 N   0  0  0  0  0  0  0  0  0  0  0  0
   23.8194  -20.5816  -12.4846 C   0  0  0  0  0  0  0  0  0  0  0  0
   23.3399  -19.4218  -12.4692 O   0  0  0  0  0  0  0  0  0  0  0  0
   23.0289  -21.6360  -12.9595 N   0  0  0  0  0  0  0  0  0  0  0  0
   21.6435  -21.3437  -13.5084 C   0  0  1  0  0  0  0  0  0  0  0  0
   21.4416  -22.2675  -14.6280 C   0  0  0  0  0  0  0  0  0  0  0  0
   22.5543  -22.6535  -15.4663 C   0  0  0  0  0  0  0  0  0  0  0  0
   23.1879  -23.9779  -15.4699 C   0  0  0  0  0  0  0  0  0  0  0  0
   24.3427  -24.1609  -16.4230 C   0  0  0  0  0  0  0  0  0  0  0  0
   25.6188  -24.3579  -15.8216 N   0  0  0  0  0  0  0  0  0  0  0  0
   20.8018  -21.5191  -12.3176 C   0  0  0  0  0  0  0  0  0  0  0  0
   21.2350  -22.1890  -11.3149 O   0  0  0  0  0  0  0  0  0  0  0  0
   19.5377  -20.9789  -12.2200 O   0  0  0  0  0  0  0  0  0  0  0  0
  2  1  1  6
  2  3  1  0
  4  9  2  0
  4  3  1  0
  5  4  1  0
  6  7  1  0
  6  5  2  0
  7  8  2  0
  8  9  1  0
 10  2  1  0
 11 10  2  0
 13 12  1  0
 13 14  1  0
 14 15  1  1
 16 14  1  0
 16 17  1  6
 17 10  1  0
 18 16  1  0
 19 18  2  0
 20 18  1  0
 21 22  1  6
 21 20  1  0
 23 22  1  0
 24 25  1  0
 24 23  1  0
 25 26  1  0
 27 21  1  0
 27 29  1  0
 28 27  2  0
M  END
$$$$
