FIK.pdb
     RDKit          3D

 29 29  0  0  1  0  0  0  0  0999 V2000
   28.2028  -19.7313   -8.7094 N   0  0  0  0  0  0  0  0  0  0  0  0
   26.9800  -20.4673   -8.6594 C   0  0  1  0  0  0  0  0  0  0  0  0
   26.1600  -20.0203   -7.4425 C   0  0  0  0  0  0  0  0  0  0  0  0
   27.0255  -19.9480   -6.2384 C   0  0  0  0  0  0  0  0  0  0  0  0
   27.7365  -18.8084   -5.9502 C   0  0  0  0  0  0  0  0  0  0  0  0
   28.5405  -18.7258   -4.8417 C   0  0  0  0  0  0  0  0  0  0  0  0
   28.6573  -19.7933   -3.9804 C   0  0  0  0  0  0  0  0  0  0  0  0
   27.9457  -20.9406   -4.2645 C   0  0  0  0  0  0  0  0  0  0  0  0
   27.1450  -21.0156   -5.3732 C   0  0  0  0  0  0  0  0  0  0  0  0
   26.1347  -20.2756   -9.8661 C   0  0  0  0  0  0  0  0  0  0  0  0
   25.4682  -19.2380  -10.0190 O   0  0  0  0  0  0  0  0  0  0  0  0
   29.2762  -20.9110  -12.5374 C   0  0  0  0  0  0  0  0  0  0  0  0
   28.0383  -20.1413  -12.8504 C   0  0  0  0  0  0  0  0  0  0  0  0
   26.8697  -21.0527  -13.2403 C   0  0  2  0  0  0  0  0  0  0  0  0
   26.4850  -20.9249  -14.6711 C   0  0  0  0  0  0  0  0  0  0  0  0
   25.7544  -20.9832  -12.2643 C   0  0  2  0  0  0  0  0  0  0  0  0
   26.0211  -21.2182  -10.9005 N   0  0  0  0  0  0  0  0  0  0  0  0
   24.6775  -21.9067  -12.7461 C   0  0  0  0  0  0  0  0  0  0  0  0
   24.8645  -23.1438  -12.6461 O   0  0  0  0  0  0  0  0  0  0  0  0
   23.4769  -21.4450  -13.3006 N   0  0  0  0  0  0  0  0  0  0  0  0
   22.4756  -22.4438  -13.8536 C   0  0  1  0  0  0  0  0  0  0  0  0
   21.1688  -21.7817  -13.8124 C   0  0  0  0  0  0  0  0  0  0  0  0
   20.4969  -21.5697  -12.5501 C   0  0  0  0  0  0  0  0  0  0  0  0
   19.1412  -21.0276  -12.3969 C   0  0  0  0  0  0  0  0  0  0  0  0
   18.6887  -20.7553  -10.9838 C   0  0  0  0  0  0  0  0  0  0  0  0
   17.3813  -20.2072  -10.8455 N   0  0  0  0  0  0  0  0  0  0  0  0
   23.0463  -22.7474  -15.1725 C   0  0  0  0  0  0  0  0  0  0  0  0
   23.6847  -21.8458  -15.8218 O   0  0  0  0  0  0  0  0  0  0  0  0
   22.9320  -23.9892  -15.7592 O   0  0  0  0  0  0  0  0  0  0  0  0
  2  1  1  6
  2  3  1  0
  4  9  2  0
  4  3  1  0
  5  4  1  0
  6  7  1  0
  6  5  2  0
  7  8  2  0
  8  9  1  0
 10  2  1  0
 11 10  2  0
 13 12  1  0
 13 14  1  0
 14 15  1  6
 16 14  1  0
 16 17  1  1
 17 10  1  0
 18 16  1  0
 19 18  2  0
 20 18  1  0
 21 22  1  6
 21 20  1  0
 23 22  1  0
 24 25  1  0
 24 23  1  0
 25 26  1  0
 27 21  1  0
 27 29  1  0
 28 27  2  0
M  END
$$$$
