FIK.pdb
     RDKit          3D

 29 29  0  0  1  0  0  0  0  0999 V2000
   27.1176  -21.5964   -8.5511 N   0  0  0  0  0  0  0  0  0  0  0  0
   26.2411  -20.4706   -8.4891 C   0  0  1  0  0  0  0  0  0  0  0  0
   27.0185  -19.2396   -8.0059 C   0  0  0  0  0  0  0  0  0  0  0  0
   27.5680  -19.4797   -6.6478 C   0  0  0  0  0  0  0  0  0  0  0  0
   26.8815  -20.2441   -5.7358 C   0  0  0  0  0  0  0  0  0  0  0  0
   27.3757  -20.4752   -4.4771 C   0  0  0  0  0  0  0  0  0  0  0  0
   28.5845  -19.9420   -4.0908 C   0  0  0  0  0  0  0  0  0  0  0  0
   29.2787  -19.1733   -5.0023 C   0  0  0  0  0  0  0  0  0  0  0  0
   28.7789  -18.9470   -6.2571 C   0  0  0  0  0  0  0  0  0  0  0  0
   25.6337  -20.1318   -9.8020 C   0  0  0  0  0  0  0  0  0  0  0  0
   25.1626  -19.0017  -10.0136 O   0  0  0  0  0  0  0  0  0  0  0  0
   28.3670  -20.4273  -14.1203 C   0  0  0  0  0  0  0  0  0  0  0  0
   27.3834  -20.2353  -13.0165 C   0  0  0  0  0  0  0  0  0  0  0  0
   26.0325  -20.8920  -13.3203 C   0  0  2  0  0  0  0  0  0  0  0  0
   25.4926  -20.5203  -14.6552 C   0  0  0  0  0  0  0  0  0  0  0  0
   25.0838  -20.7742  -12.1857 C   0  0  2  0  0  0  0  0  0  0  0  0
   25.5438  -21.0293  -10.8781 N   0  0  0  0  0  0  0  0  0  0  0  0
   23.9027  -21.6422  -12.4956 C   0  0  0  0  0  0  0  0  0  0  0  0
   24.0512  -22.8879  -12.4546 O   0  0  0  0  0  0  0  0  0  0  0  0
   22.6461  -21.1196  -12.8276 N   0  0  0  0  0  0  0  0  0  0  0  0
   21.4253  -22.0217  -12.7824 C   0  0  1  0  0  0  0  0  0  0  0  0
   20.8914  -21.9231  -11.4211 C   0  0  0  0  0  0  0  0  0  0  0  0
   19.7450  -22.7107  -11.0273 C   0  0  0  0  0  0  0  0  0  0  0  0
   19.1038  -22.6653   -9.7074 C   0  0  0  0  0  0  0  0  0  0  0  0
   18.1504  -23.7908   -9.3913 C   0  0  0  0  0  0  0  0  0  0  0  0
   18.7512  -25.0228   -9.0037 N   0  0  0  0  0  0  0  0  0  0  0  0
   20.6084  -21.4823  -13.8774 C   0  0  0  0  0  0  0  0  0  0  0  0
   20.8149  -20.2943  -14.3110 O   0  0  0  0  0  0  0  0  0  0  0  0
   19.6083  -22.2124  -14.4823 O   0  0  0  0  0  0  0  0  0  0  0  0
  2  1  1  6
  2  3  1  0
  4  9  2  0
  4  3  1  0
  5  4  1  0
  6  7  1  0
  6  5  2  0
  7  8  2  0
  8  9  1  0
 10  2  1  0
 11 10  2  0
 13 12  1  0
 13 14  1  0
 14 15  1  6
 16 14  1  0
 16 17  1  1
 17 10  1  0
 18 16  1  0
 19 18  2  0
 20 18  1  0
 21 22  1  1
 21 20  1  0
 23 22  1  0
 24 25  1  0
 24 23  1  0
 25 26  1  0
 27 21  1  0
 27 29  1  0
 28 27  2  0
M  END
$$$$
