VHC.pdb
     RDKit          3D

 24 24  0  0  1  0  0  0  0  0999 V2000
    7.7495  -12.8341   27.2193 C   0  0  0  0  0  0  0  0  0  0  0  0
    7.1936  -12.1777   25.9557 C   0  0  2  0  0  0  0  0  0  0  0  0
    6.3570  -11.0063   26.4162 C   0  0  0  0  0  0  0  0  0  0  0  0
    6.3866  -13.2226   25.2430 C   0  0  2  0  0  0  0  0  0  0  0  0
    5.3202  -13.6394   26.1144 N   0  0  0  0  0  0  0  0  0  0  0  0
    7.1736  -14.3418   24.7281 C   0  0  0  0  0  0  0  0  0  0  0  0
    7.0949  -15.4653   25.2682 O   0  0  0  0  0  0  0  0  0  0  0  0
    8.0313  -14.1727   23.6178 N   0  0  0  0  0  0  0  0  0  0  0  0
    8.8515  -15.2325   23.0514 C   0  0  1  0  0  0  0  0  0  0  0  0
    9.4587  -14.8438   21.7439 C   0  0  0  0  0  0  0  0  0  0  0  0
    8.4516  -14.4964   20.7120 C   0  0  0  0  0  0  0  0  0  0  0  0
    8.4831  -13.3267   19.9768 C   0  0  0  0  0  0  0  0  0  0  0  0
    7.4332  -13.3356   19.1422 N   0  0  0  0  0  0  0  0  0  0  0  0
    6.7582  -14.4698   19.3392 C   0  0  0  0  0  0  0  0  0  0  0  0
    7.3738  -15.1858   20.2974 N   0  0  0  0  0  0  0  0  0  0  0  0
    9.9383  -15.5981   23.9911 C   0  0  0  0  0  0  0  0  0  0  0  0
   10.7492  -14.7951   24.4735 O   0  0  0  0  0  0  0  0  0  0  0  0
   10.0515  -16.9880   24.3639 N   0  0  0  0  0  0  0  0  0  0  0  0
   10.7052  -17.3747   25.6028 C   0  0  1  0  0  0  0  0  0  0  0  0
    9.7938  -16.8871   26.7332 C   0  0  0  0  0  0  0  0  0  0  0  0
   10.4858  -17.4344   28.3156 S   0  0  0  0  0  0  0  0  0  0  0  0
   10.8362  -18.8523   25.6687 C   0  0  0  0  0  0  0  0  0  0  0  0
   10.0117  -19.5401   25.0265 O   0  0  0  0  0  0  0  0  0  0  0  0
   11.8307  -19.4872   26.4100 O   0  0  0  0  0  0  0  0  0  0  0  0
  2  1  1  1
  2  3  1  0
  4  2  1  0
  4  6  1  0
  4  5  1  1
  6  7  2  0
  8  6  1  0
  8  9  1  0
  9 10  1  6
 10 11  1  0
 11 12  2  0
 12 13  1  0
 14 13  1  0
 15 11  1  0
 15 14  2  0
 16 17  2  0
 16  9  1  0
 18 16  1  0
 19 18  1  0
 19 20  1  1
 21 20  1  0
 22 19  1  0
 22 24  1  0
 23 22  2  0
M  END
$$$$
