VHC.pdb
     RDKit          3D

 24 24  0  0  1  0  0  0  0  0999 V2000
    8.5093  -11.9597   19.9607 C   0  0  0  0  0  0  0  0  0  0  0  0
    8.3434  -13.2983   19.2417 C   0  0  2  0  0  0  0  0  0  0  0  0
    6.8578  -13.5694   19.1822 C   0  0  0  0  0  0  0  0  0  0  0  0
    9.0878  -14.3201   20.0497 C   0  0  2  0  0  0  0  0  0  0  0  0
    9.2776  -15.4888   19.2322 N   0  0  0  0  0  0  0  0  0  0  0  0
    8.4794  -14.6217   21.3443 C   0  0  0  0  0  0  0  0  0  0  0  0
    7.3539  -14.1621   21.6312 O   0  0  0  0  0  0  0  0  0  0  0  0
    9.1500  -15.4330   22.2872 N   0  0  0  0  0  0  0  0  0  0  0  0
    8.5451  -15.9284   23.5142 C   0  0  1  0  0  0  0  0  0  0  0  0
    8.8694  -17.3635   23.7685 C   0  0  0  0  0  0  0  0  0  0  0  0
    8.5291  -18.2504   22.6294 C   0  0  0  0  0  0  0  0  0  0  0  0
    7.2353  -18.6012   22.2941 C   0  0  0  0  0  0  0  0  0  0  0  0
    7.2907  -19.4069   21.2232 N   0  0  0  0  0  0  0  0  0  0  0  0
    8.5733  -19.5630   20.8893 C   0  0  0  0  0  0  0  0  0  0  0  0
    9.3377  -18.8594   21.7438 N   0  0  0  0  0  0  0  0  0  0  0  0
    9.0026  -15.1244   24.6728 C   0  0  0  0  0  0  0  0  0  0  0  0
   10.1680  -14.7411   24.8452 O   0  0  0  0  0  0  0  0  0  0  0  0
    8.0145  -14.7685   25.6630 N   0  0  0  0  0  0  0  0  0  0  0  0
    8.3613  -13.9133   26.7855 C   0  0  1  0  0  0  0  0  0  0  0  0
    7.0440  -13.3081   27.2804 C   0  0  0  0  0  0  0  0  0  0  0  0
    6.2842  -12.3794   25.9230 S   0  0  0  0  0  0  0  0  0  0  0  0
    8.9781  -14.7208   27.8683 C   0  0  0  0  0  0  0  0  0  0  0  0
    9.0018  -15.9637   27.7276 O   0  0  0  0  0  0  0  0  0  0  0  0
    9.5221  -14.1491   29.0167 O   0  0  0  0  0  0  0  0  0  0  0  0
  2  1  1  1
  2  3  1  0
  4  2  1  0
  4  6  1  0
  4  5  1  6
  6  7  2  0
  8  6  1  0
  8  9  1  0
  9 10  1  1
 10 11  1  0
 11 12  2  0
 12 13  1  0
 14 13  1  0
 15 11  1  0
 15 14  2  0
 16 17  2  0
 16  9  1  0
 18 16  1  0
 19 18  1  0
 19 20  1  1
 21 20  1  0
 22 19  1  0
 22 24  1  0
 23 22  2  0
M  END
$$$$
