VHC.pdb
     RDKit          3D

 24 24  0  0  1  0  0  0  0  0999 V2000
    7.2553  -13.0281   19.7614 C   0  0  0  0  0  0  0  0  0  0  0  0
    8.6500  -13.5602   19.4325 C   0  0  2  0  0  0  0  0  0  0  0  0
    9.0043  -13.0139   18.0687 C   0  0  0  0  0  0  0  0  0  0  0  0
    8.5589  -15.0576   19.4521 C   0  0  2  0  0  0  0  0  0  0  0  0
    7.8764  -15.4825   18.2588 N   0  0  0  0  0  0  0  0  0  0  0  0
    7.9713  -15.6078   20.6724 C   0  0  0  0  0  0  0  0  0  0  0  0
    6.7615  -15.9171   20.7022 O   0  0  0  0  0  0  0  0  0  0  0  0
    8.7571  -15.7979   21.8315 N   0  0  0  0  0  0  0  0  0  0  0  0
    8.2206  -16.1911   23.1255 C   0  0  1  0  0  0  0  0  0  0  0  0
    8.7787  -17.4920   23.6004 C   0  0  0  0  0  0  0  0  0  0  0  0
    8.3115  -17.8683   24.9568 C   0  0  0  0  0  0  0  0  0  0  0  0
    9.1163  -17.8326   26.0796 C   0  0  0  0  0  0  0  0  0  0  0  0
    8.3807  -18.2324   27.1274 N   0  0  0  0  0  0  0  0  0  0  0  0
    7.1524  -18.5124   26.6873 C   0  0  0  0  0  0  0  0  0  0  0  0
    7.1009  -18.2926   25.3611 N   0  0  0  0  0  0  0  0  0  0  0  0
    8.5116  -15.1496   24.1396 C   0  0  0  0  0  0  0  0  0  0  0  0
    9.6322  -14.6624   24.3443 O   0  0  0  0  0  0  0  0  0  0  0  0
    7.4065  -14.6768   24.9389 N   0  0  0  0  0  0  0  0  0  0  0  0
    7.5997  -13.6333   25.9316 C   0  0  1  0  0  0  0  0  0  0  0  0
    6.2271  -12.9860   26.1391 C   0  0  0  0  0  0  0  0  0  0  0  0
    6.3947  -11.6379   27.3377 S   0  0  0  0  0  0  0  0  0  0  0  0
    8.0702  -14.2273   27.2086 C   0  0  0  0  0  0  0  0  0  0  0  0
    7.7699  -15.4189   27.4431 O   0  0  0  0  0  0  0  0  0  0  0  0
    8.8226  -13.5128   28.1387 O   0  0  0  0  0  0  0  0  0  0  0  0
  2  1  1  6
  2  3  1  0
  4  2  1  0
  4  6  1  0
  4  5  1  6
  6  7  2  0
  8  6  1  0
  8  9  1  0
  9 10  1  1
 10 11  1  0
 11 12  2  0
 12 13  1  0
 14 13  1  0
 15 11  1  0
 15 14  2  0
 16 17  2  0
 16  9  1  0
 18 16  1  0
 19 18  1  0
 19 20  1  1
 21 20  1  0
 22 19  1  0
 22 24  1  0
 23 22  2  0
M  END
$$$$
