VHC.pdb
     RDKit          3D

 24 24  0  0  1  0  0  0  0  0999 V2000
    7.3567  -13.0941   20.9197 C   0  0  0  0  0  0  0  0  0  0  0  0
    8.5387  -13.4076   20.0027 C   0  0  2  0  0  0  0  0  0  0  0  0
    8.2449  -12.7335   18.6824 C   0  0  0  0  0  0  0  0  0  0  0  0
    8.6142  -14.9016   19.8874 C   0  0  2  0  0  0  0  0  0  0  0  0
    7.4827  -15.3514   19.1208 N   0  0  0  0  0  0  0  0  0  0  0  0
    8.7500  -15.5967   21.1663 C   0  0  0  0  0  0  0  0  0  0  0  0
    7.7340  -15.9035   21.8249 O   0  0  0  0  0  0  0  0  0  0  0  0
   10.0249  -15.9313   21.6758 N   0  0  0  0  0  0  0  0  0  0  0  0
   10.2469  -16.5699   22.9642 C   0  0  1  0  0  0  0  0  0  0  0  0
   11.4794  -17.4125   22.9758 C   0  0  0  0  0  0  0  0  0  0  0  0
   11.3209  -18.6904   22.2399 C   0  0  0  0  0  0  0  0  0  0  0  0
   10.0945  -19.2439   21.9250 C   0  0  0  0  0  0  0  0  0  0  0  0
   10.3164  -20.3896   21.2639 N   0  0  0  0  0  0  0  0  0  0  0  0
   11.6361  -20.5590   21.1619 C   0  0  0  0  0  0  0  0  0  0  0  0
   12.2583  -19.5247   21.7559 N   0  0  0  0  0  0  0  0  0  0  0  0
   10.3594  -15.5469   24.0313 C   0  0  0  0  0  0  0  0  0  0  0  0
   11.1095  -14.5620   23.9837 O   0  0  0  0  0  0  0  0  0  0  0  0
    9.5340  -15.7189   25.2029 N   0  0  0  0  0  0  0  0  0  0  0  0
    9.5452  -14.7341   26.2715 C   0  0  1  0  0  0  0  0  0  0  0  0
    8.1230  -14.1698   26.3430 C   0  0  0  0  0  0  0  0  0  0  0  0
    8.0145  -13.0431   27.7575 S   0  0  0  0  0  0  0  0  0  0  0  0
    9.8893  -15.3864   27.5603 C   0  0  0  0  0  0  0  0  0  0  0  0
   10.2520  -14.6529   28.5066 O   0  0  0  0  0  0  0  0  0  0  0  0
    9.8225  -16.7657   27.7470 O   0  0  0  0  0  0  0  0  0  0  0  0
  2  1  1  1
  2  3  1  0
  4  2  1  0
  4  6  1  0
  4  5  1  1
  6  7  2  0
  8  6  1  0
  8  9  1  0
  9 10  1  6
 10 11  1  0
 11 12  2  0
 12 13  1  0
 14 13  1  0
 15 11  1  0
 15 14  2  0
 16 17  2  0
 16  9  1  0
 18 16  1  0
 19 18  1  0
 19 20  1  1
 21 20  1  0
 22 19  1  0
 22 24  1  0
 23 22  2  0
M  END
$$$$
