VHC.pdb
     RDKit          3D

 24 24  0  0  1  0  0  0  0  0999 V2000
    7.5922  -12.8855   19.5499 C   0  0  0  0  0  0  0  0  0  0  0  0
    8.9819  -13.5202   19.5047 C   0  0  2  0  0  0  0  0  0  0  0  0
    9.5773  -13.1484   18.1662 C   0  0  0  0  0  0  0  0  0  0  0  0
    8.7888  -14.9995   19.6631 C   0  0  2  0  0  0  0  0  0  0  0  0
    8.1549  -15.5005   18.4725 N   0  0  0  0  0  0  0  0  0  0  0  0
    8.0903  -15.3865   20.8877 C   0  0  0  0  0  0  0  0  0  0  0  0
    6.8482  -15.5176   20.8870 O   0  0  0  0  0  0  0  0  0  0  0  0
    8.8041  -15.6173   22.0853 N   0  0  0  0  0  0  0  0  0  0  0  0
    8.1856  -16.0196   23.3393 C   0  0  1  0  0  0  0  0  0  0  0  0
    8.6021  -17.3888   23.7647 C   0  0  0  0  0  0  0  0  0  0  0  0
    7.9963  -18.4655   22.9442 C   0  0  0  0  0  0  0  0  0  0  0  0
    6.7909  -19.0700   23.2460 C   0  0  0  0  0  0  0  0  0  0  0  0
    6.5442  -19.9919   22.3037 N   0  0  0  0  0  0  0  0  0  0  0  0
    7.5560  -19.9748   21.4338 C   0  0  0  0  0  0  0  0  0  0  0  0
    8.4486  -19.0444   21.8175 N   0  0  0  0  0  0  0  0  0  0  0  0
    8.5343  -15.0602   24.4144 C   0  0  0  0  0  0  0  0  0  0  0  0
    9.6912  -14.7466   24.7276 O   0  0  0  0  0  0  0  0  0  0  0  0
    7.4436  -14.4550   25.1409 N   0  0  0  0  0  0  0  0  0  0  0  0
    7.6987  -13.4930   26.1998 C   0  0  1  0  0  0  0  0  0  0  0  0
    6.3608  -12.7995   26.4741 C   0  0  0  0  0  0  0  0  0  0  0  0
    6.5862  -11.6138   27.8252 S   0  0  0  0  0  0  0  0  0  0  0  0
    8.1579  -14.1954   27.4249 C   0  0  0  0  0  0  0  0  0  0  0  0
    7.7691  -15.3710   27.6034 O   0  0  0  0  0  0  0  0  0  0  0  0
    8.9936  -13.5979   28.3662 O   0  0  0  0  0  0  0  0  0  0  0  0
  2  1  1  6
  2  3  1  0
  4  2  1  0
  4  6  1  0
  4  5  1  6
  6  7  2  0
  8  6  1  0
  8  9  1  0
  9 10  1  1
 10 11  1  0
 11 12  2  0
 12 13  1  0
 14 13  1  0
 15 11  1  0
 15 14  2  0
 16 17  2  0
 16  9  1  0
 18 16  1  0
 19 18  1  0
 19 20  1  1
 21 20  1  0
 22 19  1  0
 22 24  1  0
 23 22  2  0
M  END
$$$$
