VHC.pdb
     RDKit          3D

 24 24  0  0  1  0  0  0  0  0999 V2000
    7.4239  -13.3782   20.8007 C   0  0  0  0  0  0  0  0  0  0  0  0
    8.5067  -13.4411   19.7237 C   0  0  2  0  0  0  0  0  0  0  0  0
    8.1152  -12.4353   18.6658 C   0  0  0  0  0  0  0  0  0  0  0  0
    8.5237  -14.8496   19.2072 C   0  0  2  0  0  0  0  0  0  0  0  0
    7.2645  -15.1067   18.5601 N   0  0  0  0  0  0  0  0  0  0  0  0
    8.8642  -15.8543   20.2130 C   0  0  0  0  0  0  0  0  0  0  0  0
    7.9602  -16.4676   20.8186 O   0  0  0  0  0  0  0  0  0  0  0  0
   10.2133  -16.1468   20.5153 N   0  0  0  0  0  0  0  0  0  0  0  0
   10.6339  -17.1271   21.5048 C   0  0  1  0  0  0  0  0  0  0  0  0
   11.9690  -17.7162   21.1892 C   0  0  0  0  0  0  0  0  0  0  0  0
   12.3701  -18.7919   22.1283 C   0  0  0  0  0  0  0  0  0  0  0  0
   11.5347  -19.8246   22.5091 C   0  0  0  0  0  0  0  0  0  0  0  0
   12.2116  -20.6107   23.3592 N   0  0  0  0  0  0  0  0  0  0  0  0
   13.4335  -20.0969   23.5136 C   0  0  0  0  0  0  0  0  0  0  0  0
   13.5393  -18.9845   22.7646 N   0  0  0  0  0  0  0  0  0  0  0  0
   10.6934  -16.5058   22.8496 C   0  0  0  0  0  0  0  0  0  0  0  0
   11.3853  -15.5191   23.1372 O   0  0  0  0  0  0  0  0  0  0  0  0
    9.8861  -17.0985   23.8890 N   0  0  0  0  0  0  0  0  0  0  0  0
    9.9735  -16.6243   25.2598 C   0  0  1  0  0  0  0  0  0  0  0  0
    8.5427  -16.2725   25.6788 C   0  0  0  0  0  0  0  0  0  0  0  0
    7.9629  -14.8883   24.6640 S   0  0  0  0  0  0  0  0  0  0  0  0
   10.5009  -17.6999   26.1372 C   0  0  0  0  0  0  0  0  0  0  0  0
   10.6927  -18.8264   25.6279 O   0  0  0  0  0  0  0  0  0  0  0  0
   10.7845  -17.4989   27.4866 O   0  0  0  0  0  0  0  0  0  0  0  0
  2  1  1  1
  2  3  1  0
  4  2  1  0
  4  6  1  0
  4  5  1  1
  6  7  2  0
  8  6  1  0
  8  9  1  0
  9 10  1  6
 10 11  1  0
 11 12  2  0
 12 13  1  0
 14 13  1  0
 15 11  1  0
 15 14  2  0
 16 17  2  0
 16  9  1  0
 18 16  1  0
 19 18  1  0
 19 20  1  1
 21 20  1  0
 22 19  1  0
 22 24  1  0
 23 22  2  0
M  END
$$$$
