YGW.pdb
     RDKit          3D

 31 33  0  0  1  0  0  0  0  0999 V2000
    1.5587  -20.7418   20.9362 O   0  0  0  0  0  0  0  0  0  0  0  0
    2.5709  -19.8109   21.0898 C   0  0  0  0  0  0  0  0  0  0  0  0
    3.4958  -19.5730   20.1014 C   0  0  0  0  0  0  0  0  0  0  0  0
    4.4964  -18.6523   20.2543 C   0  0  0  0  0  0  0  0  0  0  0  0
    4.5567  -17.9581   21.4403 C   0  0  0  0  0  0  0  0  0  0  0  0
    5.6242  -16.9487   21.6573 C   0  0  0  0  0  0  0  0  0  0  0  0
    6.6251  -16.9511   20.5206 C   0  0  2  0  0  0  0  0  0  0  0  0
    6.5678  -18.1483   19.7393 N   0  0  0  0  0  0  0  0  0  0  0  0
    7.9990  -16.6831   20.9866 C   0  0  0  0  0  0  0  0  0  0  0  0
    8.2680  -15.5501   21.4957 O   0  0  0  0  0  0  0  0  0  0  0  0
    3.6222  -18.1931   22.4486 C   0  0  0  0  0  0  0  0  0  0  0  0
    2.6169  -19.1195   22.2926 C   0  0  0  0  0  0  0  0  0  0  0  0
    9.0605  -17.6093   20.9085 N   0  0  0  0  0  0  0  0  0  0  0  0
   10.4225  -17.2666   21.3014 C   0  0  0  0  0  0  0  0  0  0  0  0
   10.4255  -16.5660   22.6186 C   0  0  0  0  0  0  0  0  0  0  0  0
   10.7438  -15.3581   22.6472 O   0  0  0  0  0  0  0  0  0  0  0  0
   10.0839  -17.2141   23.8254 N   0  0  0  0  0  0  0  0  0  0  0  0
   10.2535  -16.6583   25.1559 C   0  0  1  0  0  0  0  0  0  0  0  0
    9.9052  -15.2179   25.1119 C   0  0  0  0  0  0  0  0  0  0  0  0
    8.5769  -14.8241   25.5570 C   0  0  0  0  0  0  0  0  0  0  0  0
    7.3851  -15.5590   25.5329 C   0  0  0  0  0  0  0  0  0  0  0  0
    6.3968  -14.8205   26.0068 N   0  0  0  0  0  0  0  0  0  0  0  0
    6.8422  -13.5900   26.3669 C   0  0  0  0  0  0  0  0  0  0  0  0
    6.1646  -12.5205   26.9120 C   0  0  0  0  0  0  0  0  0  0  0  0
    6.8771  -11.3777   27.2007 C   0  0  0  0  0  0  0  0  0  0  0  0
    8.2486  -11.3339   26.9369 C   0  0  0  0  0  0  0  0  0  0  0  0
    8.8796  -12.4173   26.3954 C   0  0  0  0  0  0  0  0  0  0  0  0
    8.1954  -13.5890   26.0892 C   0  0  0  0  0  0  0  0  0  0  0  0
    9.7514  -17.4638   26.2509 C   0  0  0  0  0  0  0  0  0  0  0  0
   10.0603  -17.2515   27.4433 O   0  0  0  0  0  0  0  0  0  0  0  0
    8.8869  -18.5225   26.0284 O   0  0  0  0  0  0  0  0  0  0  0  0
  2  1  1  0
  3  2  2  0
  4  3  1  0
  5  4  2  0
  5 11  1  0
  6  5  1  0
  7  9  1  0
  7  8  1  1
  7  6  1  0
  9 13  1  0
 10  9  2  0
 11 12  2  0
 12  2  1  0
 13 14  1  0
 15 14  1  0
 16 15  2  0
 17 15  1  0
 18 19  1  6
 18 17  1  0
 19 20  1  0
 20 21  2  0
 21 22  1  0
 23 22  1  0
 24 23  2  0
 25 24  1  0
 26 27  1  0
 26 25  2  0
 27 28  2  0
 28 20  1  0
 28 23  1  0
 29 18  1  0
 29 31  1  0
 30 29  2  0
M  END
$$$$
