YGW.pdb
     RDKit          3D

 31 33  0  0  1  0  0  0  0  0999 V2000
    7.0605  -12.4202   16.7123 O   0  0  0  0  0  0  0  0  0  0  0  0
    7.3892  -13.1929   17.8121 C   0  0  0  0  0  0  0  0  0  0  0  0
    8.6150  -13.0987   18.4264 C   0  0  0  0  0  0  0  0  0  0  0  0
    8.9392  -13.8633   19.5139 C   0  0  0  0  0  0  0  0  0  0  0  0
    7.9938  -14.7438   19.9865 C   0  0  0  0  0  0  0  0  0  0  0  0
    8.2961  -15.5978   21.1634 C   0  0  0  0  0  0  0  0  0  0  0  0
    9.4399  -16.5482   20.8762 C   0  0  2  0  0  0  0  0  0  0  0  0
    9.0235  -17.9165   20.8435 N   0  0  0  0  0  0  0  0  0  0  0  0
   10.5707  -16.3564   21.8040 C   0  0  0  0  0  0  0  0  0  0  0  0
   11.7253  -16.1185   21.3289 O   0  0  0  0  0  0  0  0  0  0  0  0
    6.7474  -14.8458   19.3692 C   0  0  0  0  0  0  0  0  0  0  0  0
    6.4237  -14.0759   18.2758 C   0  0  0  0  0  0  0  0  0  0  0  0
   10.4659  -16.4182   23.2096 N   0  0  0  0  0  0  0  0  0  0  0  0
   11.6138  -16.2114   24.0852 C   0  0  0  0  0  0  0  0  0  0  0  0
   11.2229  -16.4015   25.5123 C   0  0  0  0  0  0  0  0  0  0  0  0
   12.0531  -16.1083   26.3989 O   0  0  0  0  0  0  0  0  0  0  0  0
    9.9575  -16.8973   25.8946 N   0  0  0  0  0  0  0  0  0  0  0  0
    9.5435  -17.1864   27.2559 C   0  0  1  0  0  0  0  0  0  0  0  0
    8.1611  -16.6849   27.4437 C   0  0  0  0  0  0  0  0  0  0  0  0
    7.6742  -15.6679   26.5238 C   0  0  0  0  0  0  0  0  0  0  0  0
    7.1243  -15.8258   25.2455 C   0  0  0  0  0  0  0  0  0  0  0  0
    6.8351  -14.6413   24.7357 N   0  0  0  0  0  0  0  0  0  0  0  0
    7.1582  -13.6491   25.6037 C   0  0  0  0  0  0  0  0  0  0  0  0
    7.0176  -12.2827   25.4888 C   0  0  0  0  0  0  0  0  0  0  0  0
    7.4190  -11.4962   26.5458 C   0  0  0  0  0  0  0  0  0  0  0  0
    7.9506  -12.0963   27.6902 C   0  0  0  0  0  0  0  0  0  0  0  0
    8.0723  -13.4547   27.7610 C   0  0  0  0  0  0  0  0  0  0  0  0
    7.6792  -14.2830   26.7150 C   0  0  0  0  0  0  0  0  0  0  0  0
    9.8817  -18.5031   27.7579 C   0  0  0  0  0  0  0  0  0  0  0  0
   10.2927  -19.4233   27.0186 O   0  0  0  0  0  0  0  0  0  0  0  0
    9.7696  -18.8113   29.1034 O   0  0  0  0  0  0  0  0  0  0  0  0
  2  1  1  0
  3  2  2  0
  4  3  1  0
  5  4  2  0
  5 11  1  0
  6  5  1  0
  7  9  1  0
  7  8  1  1
  7  6  1  0
  9 13  1  0
 10  9  2  0
 11 12  2  0
 12  2  1  0
 13 14  1  0
 15 14  1  0
 16 15  2  0
 17 15  1  0
 18 19  1  6
 18 17  1  0
 19 20  1  0
 20 21  2  0
 21 22  1  0
 23 22  1  0
 24 23  2  0
 25 24  1  0
 26 27  1  0
 26 25  2  0
 27 28  2  0
 28 20  1  0
 28 23  1  0
 29 18  1  0
 29 31  1  0
 30 29  2  0
M  END
$$$$
