YGW.pdb
     RDKit          3D

 31 33  0  0  1  0  0  0  0  0999 V2000
    9.1356  -11.9046   18.1991 O   0  0  0  0  0  0  0  0  0  0  0  0
    8.5815  -12.7485   19.1454 C   0  0  0  0  0  0  0  0  0  0  0  0
    9.3008  -13.2018   20.2251 C   0  0  0  0  0  0  0  0  0  0  0  0
    8.7521  -14.0364   21.1603 C   0  0  0  0  0  0  0  0  0  0  0  0
    7.4413  -14.4181   20.9923 C   0  0  0  0  0  0  0  0  0  0  0  0
    6.7987  -15.3240   21.9782 C   0  0  0  0  0  0  0  0  0  0  0  0
    7.2032  -16.7654   21.7486 C   0  0  2  0  0  0  0  0  0  0  0  0
    6.9465  -17.2027   20.4109 N   0  0  0  0  0  0  0  0  0  0  0  0
    6.5956  -17.6791   22.7348 C   0  0  0  0  0  0  0  0  0  0  0  0
    5.3297  -17.7201   22.8400 O   0  0  0  0  0  0  0  0  0  0  0  0
    6.7039  -13.9629   19.8995 C   0  0  0  0  0  0  0  0  0  0  0  0
    7.2579  -13.1236   18.9604 C   0  0  0  0  0  0  0  0  0  0  0  0
    7.3290  -18.5296   23.5888 N   0  0  0  0  0  0  0  0  0  0  0  0
    7.3278  -18.3661   25.0380 C   0  0  0  0  0  0  0  0  0  0  0  0
    8.3332  -17.3434   25.4490 C   0  0  0  0  0  0  0  0  0  0  0  0
    8.2870  -16.2166   24.9112 O   0  0  0  0  0  0  0  0  0  0  0  0
    9.3281  -17.6012   26.4170 N   0  0  0  0  0  0  0  0  0  0  0  0
    9.8341  -16.6395   27.3799 C   0  0  1  0  0  0  0  0  0  0  0  0
    8.7483  -15.6840   27.7054 C   0  0  0  0  0  0  0  0  0  0  0  0
    8.1505  -14.9332   26.6115 C   0  0  0  0  0  0  0  0  0  0  0  0
    7.8221  -15.3664   25.3208 C   0  0  0  0  0  0  0  0  0  0  0  0
    7.3219  -14.3591   24.6267 N   0  0  0  0  0  0  0  0  0  0  0  0
    7.2821  -13.2280   25.3760 C   0  0  0  0  0  0  0  0  0  0  0  0
    6.8305  -11.9645   25.0602 C   0  0  0  0  0  0  0  0  0  0  0  0
    6.8919  -10.9901   26.0317 C   0  0  0  0  0  0  0  0  0  0  0  0
    7.4032  -11.3042   27.2935 C   0  0  0  0  0  0  0  0  0  0  0  0
    7.8403  -12.5698   27.5628 C   0  0  0  0  0  0  0  0  0  0  0  0
    7.7956  -13.5810   26.6088 C   0  0  0  0  0  0  0  0  0  0  0  0
   10.6333  -17.1811   28.4605 C   0  0  0  0  0  0  0  0  0  0  0  0
   10.4745  -18.3388   28.9042 O   0  0  0  0  0  0  0  0  0  0  0  0
   11.6319  -16.4335   29.0620 O   0  0  0  0  0  0  0  0  0  0  0  0
  2  1  1  0
  3  2  2  0
  4  3  1  0
  5  4  2  0
  5 11  1  0
  6  5  1  0
  7  9  1  0
  7  8  1  6
  7  6  1  0
  9 13  1  0
 10  9  2  0
 11 12  2  0
 12  2  1  0
 13 14  1  0
 15 14  1  0
 16 15  2  0
 17 15  1  0
 18 19  1  1
 18 17  1  0
 19 20  1  0
 20 21  2  0
 21 22  1  0
 23 22  1  0
 24 23  2  0
 25 24  1  0
 26 27  1  0
 26 25  2  0
 27 28  2  0
 28 20  1  0
 28 23  1  0
 29 18  1  0
 29 31  1  0
 30 29  2  0
M  END
$$$$
