YGW.pdb
     RDKit          3D

 31 33  0  0  1  0  0  0  0  0999 V2000
    9.8288  -18.4941   28.6052 O   0  0  0  0  0  0  0  0  0  0  0  0
    8.8606  -18.7127   27.6410 C   0  0  0  0  0  0  0  0  0  0  0  0
    8.8684  -18.0462   26.4391 C   0  0  0  0  0  0  0  0  0  0  0  0
    7.9106  -18.2630   25.4863 C   0  0  0  0  0  0  0  0  0  0  0  0
    6.9225  -19.1790   25.7635 C   0  0  0  0  0  0  0  0  0  0  0  0
    5.8584  -19.4501   24.7636 C   0  0  0  0  0  0  0  0  0  0  0  0
    6.2394  -20.5958   23.8492 C   0  0  2  0  0  0  0  0  0  0  0  0
    6.7514  -21.7240   24.5646 N   0  0  0  0  0  0  0  0  0  0  0  0
    7.1678  -20.1736   22.7832 C   0  0  0  0  0  0  0  0  0  0  0  0
    7.6031  -21.0424   21.9641 O   0  0  0  0  0  0  0  0  0  0  0  0
    6.9071  -19.8598   26.9806 C   0  0  0  0  0  0  0  0  0  0  0  0
    7.8713  -19.6402   27.9373 C   0  0  0  0  0  0  0  0  0  0  0  0
    7.6190  -18.8495   22.5996 N   0  0  0  0  0  0  0  0  0  0  0  0
    7.8357  -18.2779   21.2754 C   0  0  0  0  0  0  0  0  0  0  0  0
    8.2563  -16.8508   21.3851 C   0  0  0  0  0  0  0  0  0  0  0  0
    8.4105  -16.1953   20.3326 O   0  0  0  0  0  0  0  0  0  0  0  0
    8.4846  -16.2186   22.6266 N   0  0  0  0  0  0  0  0  0  0  0  0
    9.6435  -15.4090   22.9577 C   0  0  1  0  0  0  0  0  0  0  0  0
    9.1901  -14.2398   23.7484 C   0  0  0  0  0  0  0  0  0  0  0  0
    8.1580  -14.4543   24.7516 C   0  0  0  0  0  0  0  0  0  0  0  0
    7.5390  -15.6496   25.1380 C   0  0  0  0  0  0  0  0  0  0  0  0
    6.6324  -15.4016   26.0671 N   0  0  0  0  0  0  0  0  0  0  0  0
    6.5852  -14.0760   26.3552 C   0  0  0  0  0  0  0  0  0  0  0  0
    5.8052  -13.3870   27.2590 C   0  0  0  0  0  0  0  0  0  0  0  0
    5.9771  -12.0242   27.3605 C   0  0  0  0  0  0  0  0  0  0  0  0
    6.9243  -11.3858   26.5558 C   0  0  0  0  0  0  0  0  0  0  0  0
    7.6755  -12.1080   25.6730 C   0  0  0  0  0  0  0  0  0  0  0  0
    7.5313  -13.4851   25.5404 C   0  0  0  0  0  0  0  0  0  0  0  0
   10.8210  -16.1318   23.3947 C   0  0  0  0  0  0  0  0  0  0  0  0
   11.9482  -15.5986   23.4813 O   0  0  0  0  0  0  0  0  0  0  0  0
   10.7548  -17.4691   23.7486 O   0  0  0  0  0  0  0  0  0  0  0  0
  2  1  1  0
  3  2  2  0
  4  3  1  0
  5  4  2  0
  5 11  1  0
  6  5  1  0
  7  9  1  0
  7  8  1  1
  7  6  1  0
  9 13  1  0
 10  9  2  0
 11 12  2  0
 12  2  1  0
 13 14  1  0
 15 14  1  0
 16 15  2  0
 17 15  1  0
 18 19  1  1
 18 17  1  0
 19 20  1  0
 20 21  2  0
 21 22  1  0
 23 22  1  0
 24 23  2  0
 25 24  1  0
 26 27  1  0
 26 25  2  0
 27 28  2  0
 28 20  1  0
 28 23  1  0
 29 18  1  0
 29 31  1  0
 30 29  2  0
M  END
$$$$
