YGW.pdb
     RDKit          3D

 31 33  0  0  1  0  0  0  0  0999 V2000
    8.0896  -21.6209   29.8976 O   0  0  0  0  0  0  0  0  0  0  0  0
    7.6352  -21.2385   28.6478 C   0  0  0  0  0  0  0  0  0  0  0  0
    7.0750  -20.0036   28.4246 C   0  0  0  0  0  0  0  0  0  0  0  0
    6.6258  -19.6263   27.1884 C   0  0  0  0  0  0  0  0  0  0  0  0
    6.7499  -20.5270   26.1561 C   0  0  0  0  0  0  0  0  0  0  0  0
    6.2767  -20.1674   24.7950 C   0  0  0  0  0  0  0  0  0  0  0  0
    7.4296  -19.7681   23.8976 C   0  0  2  0  0  0  0  0  0  0  0  0
    8.2942  -18.8054   24.5078 N   0  0  0  0  0  0  0  0  0  0  0  0
    6.9718  -19.3102   22.5720 C   0  0  0  0  0  0  0  0  0  0  0  0
    7.2876  -19.9857   21.5428 O   0  0  0  0  0  0  0  0  0  0  0  0
    7.3172  -21.7823   26.3736 C   0  0  0  0  0  0  0  0  0  0  0  0
    7.7682  -22.1594   27.6177 C   0  0  0  0  0  0  0  0  0  0  0  0
    6.1930  -18.1540   22.3550 N   0  0  0  0  0  0  0  0  0  0  0  0
    6.5345  -17.1652   21.3387 C   0  0  0  0  0  0  0  0  0  0  0  0
    7.6141  -16.2612   21.8316 C   0  0  0  0  0  0  0  0  0  0  0  0
    7.7257  -15.1313   21.3100 O   0  0  0  0  0  0  0  0  0  0  0  0
    8.5078  -16.6337   22.8589 N   0  0  0  0  0  0  0  0  0  0  0  0
    9.5650  -15.7973   23.3985 C   0  0  1  0  0  0  0  0  0  0  0  0
    8.9768  -14.4977   23.8019 C   0  0  0  0  0  0  0  0  0  0  0  0
    7.9252  -14.5084   24.8077 C   0  0  0  0  0  0  0  0  0  0  0  0
    7.2085  -15.5960   25.3224 C   0  0  0  0  0  0  0  0  0  0  0  0
    6.3202  -15.1678   26.2022 N   0  0  0  0  0  0  0  0  0  0  0  0
    6.3797  -13.8180   26.3318 C   0  0  0  0  0  0  0  0  0  0  0  0
    5.6535  -12.9665   27.1366 C   0  0  0  0  0  0  0  0  0  0  0  0
    5.9354  -11.6195   27.0800 C   0  0  0  0  0  0  0  0  0  0  0  0
    6.9360  -11.1589   26.2203 C   0  0  0  0  0  0  0  0  0  0  0  0
    7.6306  -12.0385   25.4399 C   0  0  0  0  0  0  0  0  0  0  0  0
    7.3753  -13.4055   25.4677 C   0  0  0  0  0  0  0  0  0  0  0  0
   10.4969  -16.4495   24.2963 C   0  0  0  0  0  0  0  0  0  0  0  0
   11.5644  -15.9155   24.6672 O   0  0  0  0  0  0  0  0  0  0  0  0
   10.2455  -17.7148   24.8001 O   0  0  0  0  0  0  0  0  0  0  0  0
  2  1  1  0
  3  2  2  0
  4  3  1  0
  5  4  2  0
  5 11  1  0
  6  5  1  0
  7  9  1  0
  7  8  1  1
  7  6  1  0
  9 13  1  0
 10  9  2  0
 11 12  2  0
 12  2  1  0
 13 14  1  0
 15 14  1  0
 16 15  2  0
 17 15  1  0
 18 19  1  1
 18 17  1  0
 19 20  1  0
 20 21  2  0
 21 22  1  0
 23 22  1  0
 24 23  2  0
 25 24  1  0
 26 27  1  0
 26 25  2  0
 27 28  2  0
 28 20  1  0
 28 23  1  0
 29 18  1  0
 29 31  1  0
 30 29  2  0
M  END
$$$$
