YGW.pdb
     RDKit          3D

 31 33  0  0  1  0  0  0  0  0999 V2000
    0.3768  -20.6013   21.8839 O   0  0  0  0  0  0  0  0  0  0  0  0
    1.4784  -19.8620   21.4908 C   0  0  0  0  0  0  0  0  0  0  0  0
    1.4050  -18.9258   20.4874 C   0  0  0  0  0  0  0  0  0  0  0  0
    2.4949  -18.1952   20.0993 C   0  0  0  0  0  0  0  0  0  0  0  0
    3.6866  -18.4231   20.7476 C   0  0  0  0  0  0  0  0  0  0  0  0
    4.8999  -17.6576   20.3634 C   0  0  0  0  0  0  0  0  0  0  0  0
    6.1302  -18.1798   21.0759 C   0  0  2  0  0  0  0  0  0  0  0  0
    6.0123  -18.1109   22.5000 N   0  0  0  0  0  0  0  0  0  0  0  0
    7.3658  -17.5218   20.6101 C   0  0  0  0  0  0  0  0  0  0  0  0
    7.5228  -17.3134   19.3662 O   0  0  0  0  0  0  0  0  0  0  0  0
    3.7701  -19.3712   21.7670 C   0  0  0  0  0  0  0  0  0  0  0  0
    2.6727  -20.1046   22.1555 C   0  0  0  0  0  0  0  0  0  0  0  0
    8.4095  -17.0969   21.4590 N   0  0  0  0  0  0  0  0  0  0  0  0
    9.6606  -16.5539   20.9422 C   0  0  0  0  0  0  0  0  0  0  0  0
   10.6029  -16.2583   22.0604 C   0  0  0  0  0  0  0  0  0  0  0  0
   11.4858  -15.3929   21.8789 O   0  0  0  0  0  0  0  0  0  0  0  0
   10.5335  -16.9164   23.3074 N   0  0  0  0  0  0  0  0  0  0  0  0
   10.1653  -16.2952   24.5671 C   0  0  1  0  0  0  0  0  0  0  0  0
    8.9080  -15.5355   24.3671 C   0  0  0  0  0  0  0  0  0  0  0  0
    8.2821  -14.9341   25.5350 C   0  0  0  0  0  0  0  0  0  0  0  0
    8.4418  -15.2609   26.8874 C   0  0  0  0  0  0  0  0  0  0  0  0
    7.6679  -14.4861   27.6273 N   0  0  0  0  0  0  0  0  0  0  0  0
    6.9658  -13.6216   26.8515 C   0  0  0  0  0  0  0  0  0  0  0  0
    6.0623  -12.6411   27.2014 C   0  0  0  0  0  0  0  0  0  0  0  0
    5.5008  -11.8853   26.1962 C   0  0  0  0  0  0  0  0  0  0  0  0
    5.8571  -12.1293   24.8674 C   0  0  0  0  0  0  0  0  0  0  0  0
    6.7566  -13.1118   24.5660 C   0  0  0  0  0  0  0  0  0  0  0  0
    7.3449  -13.8969   25.5520 C   0  0  0  0  0  0  0  0  0  0  0  0
   10.2988  -17.1238   25.7484 C   0  0  0  0  0  0  0  0  0  0  0  0
   10.8210  -16.7126   26.8070 O   0  0  0  0  0  0  0  0  0  0  0  0
    9.8431  -18.4314   25.7658 O   0  0  0  0  0  0  0  0  0  0  0  0
  2  1  1  0
  3  2  2  0
  4  3  1  0
  5  4  2  0
  5 11  1  0
  6  5  1  0
  7  9  1  0
  7  8  1  1
  7  6  1  0
  9 13  1  0
 10  9  2  0
 11 12  2  0
 12  2  1  0
 13 14  1  0
 15 14  1  0
 16 15  2  0
 17 15  1  0
 18 19  1  6
 18 17  1  0
 19 20  1  0
 20 21  2  0
 21 22  1  0
 23 22  1  0
 24 23  2  0
 25 24  1  0
 26 27  1  0
 26 25  2  0
 27 28  2  0
 28 20  1  0
 28 23  1  0
 29 18  1  0
 29 31  1  0
 30 29  2  0
M  END
$$$$
