YGW.pdb
     RDKit          3D

 31 33  0  0  1  0  0  0  0  0999 V2000
   11.2421  -20.6669   31.1952 O   0  0  0  0  0  0  0  0  0  0  0  0
   10.3715  -20.1477   30.2533 C   0  0  0  0  0  0  0  0  0  0  0  0
    9.0859  -20.6140   30.1167 C   0  0  0  0  0  0  0  0  0  0  0  0
    8.2258  -20.1000   29.1850 C   0  0  0  0  0  0  0  0  0  0  0  0
    8.6849  -19.0883   28.3740 C   0  0  0  0  0  0  0  0  0  0  0  0
    7.7916  -18.4967   27.3455 C   0  0  0  0  0  0  0  0  0  0  0  0
    7.4082  -19.5177   26.2945 C   0  0  2  0  0  0  0  0  0  0  0  0
    8.4537  -20.4591   26.0345 N   0  0  0  0  0  0  0  0  0  0  0  0
    6.9374  -18.8850   25.0478 C   0  0  0  0  0  0  0  0  0  0  0  0
    6.0274  -17.9999   25.1103 O   0  0  0  0  0  0  0  0  0  0  0  0
    9.9880  -18.6089   28.5058 C   0  0  0  0  0  0  0  0  0  0  0  0
   10.8512  -19.1274   29.4435 C   0  0  0  0  0  0  0  0  0  0  0  0
    7.4313  -19.1942   23.7629 N   0  0  0  0  0  0  0  0  0  0  0  0
    7.0507  -18.4324   22.5789 C   0  0  0  0  0  0  0  0  0  0  0  0
    7.7983  -17.1425   22.5252 C   0  0  0  0  0  0  0  0  0  0  0  0
    7.7438  -16.4686   21.4744 O   0  0  0  0  0  0  0  0  0  0  0  0
    8.5597  -16.6592   23.6113 N   0  0  0  0  0  0  0  0  0  0  0  0
    9.7079  -15.7766   23.5070 C   0  0  1  0  0  0  0  0  0  0  0  0
    9.3550  -14.4716   24.1155 C   0  0  0  0  0  0  0  0  0  0  0  0
    8.0083  -14.3071   24.6418 C   0  0  0  0  0  0  0  0  0  0  0  0
    6.9791  -15.2517   24.7414 C   0  0  0  0  0  0  0  0  0  0  0  0
    5.9018  -14.6841   25.2550 N   0  0  0  0  0  0  0  0  0  0  0  0
    6.1276  -13.3730   25.5242 C   0  0  0  0  0  0  0  0  0  0  0  0
    5.2963  -12.4186   26.0702 C   0  0  0  0  0  0  0  0  0  0  0  0
    5.7958  -11.1480   26.2520 C   0  0  0  0  0  0  0  0  0  0  0  0
    7.1133  -10.8646   25.8832 C   0  0  0  0  0  0  0  0  0  0  0  0
    7.9020  -11.8411   25.3450 C   0  0  0  0  0  0  0  0  0  0  0  0
    7.4346  -13.1358   25.1449 C   0  0  0  0  0  0  0  0  0  0  0  0
   10.9943  -16.3663   23.8192 C   0  0  0  0  0  0  0  0  0  0  0  0
   11.1138  -17.5189   24.2877 O   0  0  0  0  0  0  0  0  0  0  0  0
   12.1745  -15.6736   23.6062 O   0  0  0  0  0  0  0  0  0  0  0  0
  2  1  1  0
  3  2  2  0
  4  3  1  0
  5  4  2  0
  5 11  1  0
  6  5  1  0
  7  9  1  0
  7  8  1  6
  7  6  1  0
  9 13  1  0
 10  9  2  0
 11 12  2  0
 12  2  1  0
 13 14  1  0
 15 14  1  0
 16 15  2  0
 17 15  1  0
 18 19  1  1
 18 17  1  0
 19 20  1  0
 20 21  2  0
 21 22  1  0
 23 22  1  0
 24 23  2  0
 25 24  1  0
 26 27  1  0
 26 25  2  0
 27 28  2  0
 28 20  1  0
 28 23  1  0
 29 18  1  0
 29 31  1  0
 30 29  2  0
M  END
$$$$
