YGW.pdb
     RDKit          3D

 31 33  0  0  1  0  0  0  0  0999 V2000
    7.6029  -13.2892   15.5451 O   0  0  0  0  0  0  0  0  0  0  0  0
    7.5877  -13.7395   16.8534 C   0  0  0  0  0  0  0  0  0  0  0  0
    7.0108  -14.9368   17.2033 C   0  0  0  0  0  0  0  0  0  0  0  0
    6.9962  -15.3813   18.4972 C   0  0  0  0  0  0  0  0  0  0  0  0
    7.5821  -14.5886   19.4568 C   0  0  0  0  0  0  0  0  0  0  0  0
    7.5918  -15.0245   20.8765 C   0  0  0  0  0  0  0  0  0  0  0  0
    8.9982  -15.3250   21.3518 C   0  0  2  0  0  0  0  0  0  0  0  0
    9.7613  -16.0545   20.3863 N   0  0  0  0  0  0  0  0  0  0  0  0
    9.0113  -16.0002   22.6634 C   0  0  0  0  0  0  0  0  0  0  0  0
    8.3018  -15.5294   23.6070 O   0  0  0  0  0  0  0  0  0  0  0  0
    8.1698  -13.3721   19.1106 C   0  0  0  0  0  0  0  0  0  0  0  0
    8.1833  -12.9273   17.8086 C   0  0  0  0  0  0  0  0  0  0  0  0
    9.7682  -17.1541   22.9566 N   0  0  0  0  0  0  0  0  0  0  0  0
    9.6848  -17.8328   24.2449 C   0  0  0  0  0  0  0  0  0  0  0  0
   10.1852  -16.9463   25.3354 C   0  0  0  0  0  0  0  0  0  0  0  0
   11.1044  -16.1421   25.0714 O   0  0  0  0  0  0  0  0  0  0  0  0
    9.6614  -16.9830   26.6459 N   0  0  0  0  0  0  0  0  0  0  0  0
   10.2396  -16.3215   27.8018 C   0  0  1  0  0  0  0  0  0  0  0  0
    9.1886  -15.4993   28.4478 C   0  0  0  0  0  0  0  0  0  0  0  0
    8.0546  -15.0827   27.6366 C   0  0  0  0  0  0  0  0  0  0  0  0
    7.0125  -15.8583   27.1136 C   0  0  0  0  0  0  0  0  0  0  0  0
    6.1984  -15.0928   26.4079 N   0  0  0  0  0  0  0  0  0  0  0  0
    6.6228  -13.8036   26.4110 C   0  0  0  0  0  0  0  0  0  0  0  0
    6.0767  -12.6834   25.8218 C   0  0  0  0  0  0  0  0  0  0  0  0
    6.7153  -11.4766   26.0024 C   0  0  0  0  0  0  0  0  0  0  0  0
    7.8833  -11.4209   26.7673 C   0  0  0  0  0  0  0  0  0  0  0  0
    8.3898  -12.5563   27.3327 C   0  0  0  0  0  0  0  0  0  0  0  0
    7.7749  -13.7938   27.1732 C   0  0  0  0  0  0  0  0  0  0  0  0
   11.0995  -17.1356   28.6370 C   0  0  0  0  0  0  0  0  0  0  0  0
   11.7704  -16.6630   29.5798 O   0  0  0  0  0  0  0  0  0  0  0  0
   11.2194  -18.5001   28.4327 O   0  0  0  0  0  0  0  0  0  0  0  0
  2  1  1  0
  3  2  2  0
  4  3  1  0
  5  4  2  0
  5 11  1  0
  6  5  1  0
  7  9  1  0
  7  8  1  6
  7  6  1  0
  9 13  1  0
 10  9  2  0
 11 12  2  0
 12  2  1  0
 13 14  1  0
 15 14  1  0
 16 15  2  0
 17 15  1  0
 18 19  1  1
 18 17  1  0
 19 20  1  0
 20 21  2  0
 21 22  1  0
 23 22  1  0
 24 23  2  0
 25 24  1  0
 26 27  1  0
 26 25  2  0
 27 28  2  0
 28 20  1  0
 28 23  1  0
 29 18  1  0
 29 31  1  0
 30 29  2  0
M  END
$$$$
