IDY.pdb
     RDKit          3D

 29 29  0  0  1  0  0  0  0  0999 V2000
   29.4078  -20.6182  -17.4083 C   0  0  0  0  0  0  0  0  0  0  0  0
   28.7956  -19.2426  -17.3133 C   0  0  0  0  0  0  0  0  0  0  0  0
   27.9620  -19.0487  -16.0720 C   0  0  2  0  0  0  0  0  0  0  0  0
   28.7780  -19.1718  -14.8107 C   0  0  0  0  0  0  0  0  0  0  0  0
   26.7603  -19.9536  -16.0818 C   0  0  2  0  0  0  0  0  0  0  0  0
   26.0116  -19.8874  -17.2841 N   0  0  0  0  0  0  0  0  0  0  0  0
   25.9822  -19.8145  -14.8406 C   0  0  0  0  0  0  0  0  0  0  0  0
   25.3663  -18.7225  -14.6715 O   0  0  0  0  0  0  0  0  0  0  0  0
   25.8441  -20.7623  -13.8143 N   0  0  0  0  0  0  0  0  0  0  0  0
   25.0418  -20.5942  -12.6393 C   0  0  1  0  0  0  0  0  0  0  0  0
   23.6596  -21.1393  -12.8603 C   0  0  0  0  0  0  0  0  0  0  0  0
   22.7211  -20.8521  -11.7510 C   0  0  0  0  0  0  0  0  0  0  0  0
   22.0261  -21.7838  -11.2365 O   0  0  0  0  0  0  0  0  0  0  0  0
   25.5962  -21.1472  -11.4147 C   0  0  0  0  0  0  0  0  0  0  0  0
   25.8220  -22.3607  -11.1722 O   0  0  0  0  0  0  0  0  0  0  0  0
   22.5162  -19.5999  -11.1909 O   0  0  0  0  0  0  0  0  0  0  0  0
   29.3306  -20.4284   -3.4048 O   0  0  0  0  0  0  0  0  0  0  0  0
   28.8079  -20.2089   -4.6920 C   0  0  0  0  0  0  0  0  0  0  0  0
   29.5130  -20.6162   -5.8036 C   0  0  0  0  0  0  0  0  0  0  0  0
   28.9418  -20.3697   -7.0353 C   0  0  0  0  0  0  0  0  0  0  0  0
   27.7209  -19.7445   -7.1605 C   0  0  0  0  0  0  0  0  0  0  0  0
   27.1738  -19.5130   -8.4964 C   0  0  0  0  0  0  0  0  0  0  0  0
   26.4262  -20.6915   -9.0796 C   0  0  2  0  0  0  0  0  0  0  0  0
   25.9189  -20.2241  -10.3797 N   0  0  0  0  0  0  0  0  0  0  0  0
   25.2557  -21.0980   -8.2621 C   0  0  0  0  0  0  0  0  0  0  0  0
   23.9506  -20.8116   -8.6233 O   0  0  0  0  0  0  0  0  0  0  0  0
   27.0392  -19.3485   -6.0337 C   0  0  0  0  0  0  0  0  0  0  0  0
   27.5900  -19.5845   -4.8013 C   0  0  0  0  0  0  0  0  0  0  0  0
   25.3986  -21.7399   -7.1713 O   0  0  0  0  0  0  0  0  0  0  0  0
  1  2  1  0
  2  3  1  0
  3  4  1  1
  5  6  1  6
  5  3  1  0
  7  8  2  0
  7  5  1  0
  9  7  1  0
 10  9  1  0
 10 11  1  6
 12 16  1  0
 12 11  1  0
 13 12  2  0
 14 24  1  0
 14 10  1  0
 15 14  2  0
 18 17  1  0
 19 18  2  0
 20 19  1  0
 21 27  1  0
 21 20  2  0
 22 21  1  0
 23 22  1  1
 23 24  1  0
 23 25  1  0
 25 26  1  0
 27 28  2  0
 28 18  1  0
 29 25  2  0
M  END
$$$$
