IDY.pdb
     RDKit          3D

 29 29  0  0  1  0  0  0  0  0999 V2000
   28.7133  -16.7678  -16.9067 C   0  0  0  0  0  0  0  0  0  0  0  0
   27.8358  -17.6879  -17.7189 C   0  0  0  0  0  0  0  0  0  0  0  0
   26.5004  -17.9576  -17.0726 C   0  0  2  0  0  0  0  0  0  0  0  0
   26.5875  -19.0129  -16.0000 C   0  0  0  0  0  0  0  0  0  0  0  0
   25.4513  -18.2605  -18.1073 C   0  0  2  0  0  0  0  0  0  0  0  0
   25.2407  -17.2020  -19.0268 N   0  0  0  0  0  0  0  0  0  0  0  0
   24.2372  -18.8122  -17.4850 C   0  0  0  0  0  0  0  0  0  0  0  0
   23.4465  -17.9862  -16.9439 O   0  0  0  0  0  0  0  0  0  0  0  0
   23.8531  -20.1609  -17.4224 N   0  0  0  0  0  0  0  0  0  0  0  0
   22.6872  -20.6559  -16.7528 C   0  0  1  0  0  0  0  0  0  0  0  0
   22.1092  -21.8276  -17.4939 C   0  0  0  0  0  0  0  0  0  0  0  0
   20.7222  -22.1604  -17.0945 C   0  0  0  0  0  0  0  0  0  0  0  0
   20.1032  -23.1206  -17.6520 O   0  0  0  0  0  0  0  0  0  0  0  0
   22.8653  -21.0018  -15.3523 C   0  0  0  0  0  0  0  0  0  0  0  0
   23.7388  -21.7693  -14.8724 O   0  0  0  0  0  0  0  0  0  0  0  0
   19.9959  -21.4907  -16.1211 O   0  0  0  0  0  0  0  0  0  0  0  0
   27.3047  -21.7067   -9.4822 O   0  0  0  0  0  0  0  0  0  0  0  0
   26.2403  -21.1912  -10.2436 C   0  0  0  0  0  0  0  0  0  0  0  0
   26.3946  -20.9843  -11.5972 C   0  0  0  0  0  0  0  0  0  0  0  0
   25.3102  -20.4766  -12.2829 C   0  0  0  0  0  0  0  0  0  0  0  0
   24.1204  -20.1855  -11.6527 C   0  0  0  0  0  0  0  0  0  0  0  0
   23.0113  -19.6484  -12.4394 C   0  0  0  0  0  0  0  0  0  0  0  0
   22.0646  -20.6954  -12.9829 C   0  0  2  0  0  0  0  0  0  0  0  0
   21.9603  -20.4136  -14.4237 N   0  0  0  0  0  0  0  0  0  0  0  0
   20.6996  -20.5978  -12.4075 C   0  0  0  0  0  0  0  0  0  0  0  0
   20.3865  -21.0438  -11.1352 O   0  0  0  0  0  0  0  0  0  0  0  0
   23.9947  -20.4019  -10.3004 C   0  0  0  0  0  0  0  0  0  0  0  0
   25.0606  -20.9057   -9.6019 C   0  0  0  0  0  0  0  0  0  0  0  0
   19.7356  -20.0910  -13.0679 O   0  0  0  0  0  0  0  0  0  0  0  0
  1  2  1  0
  2  3  1  0
  3  4  1  1
  5  6  1  1
  5  3  1  0
  7  8  2  0
  7  5  1  0
  9  7  1  0
 10  9  1  0
 10 11  1  6
 12 16  1  0
 12 11  1  0
 13 12  2  0
 14 24  1  0
 14 10  1  0
 15 14  2  0
 18 17  1  0
 19 18  2  0
 20 19  1  0
 21 27  1  0
 21 20  2  0
 22 21  1  0
 23 22  1  1
 23 24  1  0
 23 25  1  0
 25 26  1  0
 27 28  2  0
 28 18  1  0
 29 25  2  0
M  END
$$$$
