IDY.pdb
     RDKit          3D

 29 29  0  0  1  0  0  0  0  0999 V2000
   13.3702  -13.1186  -17.6112 C   0  0  0  0  0  0  0  0  0  0  0  0
   14.7437  -13.3802  -17.0443 C   0  0  0  0  0  0  0  0  0  0  0  0
   15.3925  -12.1470  -16.4683 C   0  0  2  0  0  0  0  0  0  0  0  0
   15.4508  -11.0151  -17.4617 C   0  0  0  0  0  0  0  0  0  0  0  0
   16.7349  -12.4717  -15.8721 C   0  0  2  0  0  0  0  0  0  0  0  0
   16.6960  -13.5351  -14.9351 N   0  0  0  0  0  0  0  0  0  0  0  0
   17.4229  -11.2518  -15.4201 C   0  0  0  0  0  0  0  0  0  0  0  0
   16.9657  -10.6885  -14.3839 O   0  0  0  0  0  0  0  0  0  0  0  0
   18.5372  -10.6368  -16.0121 N   0  0  0  0  0  0  0  0  0  0  0  0
   19.1774   -9.4496  -15.5288 C   0  0  1  0  0  0  0  0  0  0  0  0
   20.6633   -9.6498  -15.4378 C   0  0  0  0  0  0  0  0  0  0  0  0
   21.3829   -8.5062  -14.8308 C   0  0  0  0  0  0  0  0  0  0  0  0
   22.6448   -8.5435  -14.6824 O   0  0  0  0  0  0  0  0  0  0  0  0
   18.8917   -8.2337  -16.2722 C   0  0  0  0  0  0  0  0  0  0  0  0
   19.0445   -8.0542  -17.5078 O   0  0  0  0  0  0  0  0  0  0  0  0
   20.7816   -7.3385  -14.3851 O   0  0  0  0  0  0  0  0  0  0  0  0
   15.0153   -0.6053  -18.0588 O   0  0  0  0  0  0  0  0  0  0  0  0
   15.4310   -1.8505  -17.5539 C   0  0  0  0  0  0  0  0  0  0  0  0
   15.5950   -2.0270  -16.1972 C   0  0  0  0  0  0  0  0  0  0  0  0
   16.0045   -3.2737  -15.7706 C   0  0  0  0  0  0  0  0  0  0  0  0
   16.2422   -4.3044  -16.6530 C   0  0  0  0  0  0  0  0  0  0  0  0
   16.6755   -5.6004  -16.1333 C   0  0  0  0  0  0  0  0  0  0  0  0
   18.1713   -5.8213  -16.1701 C   0  0  2  0  0  0  0  0  0  0  0  0
   18.3862   -7.1289  -15.5298 N   0  0  0  0  0  0  0  0  0  0  0  0
   18.9265   -4.8102  -15.3883 C   0  0  0  0  0  0  0  0  0  0  0  0
   19.4418   -5.0651  -14.1292 O   0  0  0  0  0  0  0  0  0  0  0  0
   16.0705   -4.0998  -18.0020 C   0  0  0  0  0  0  0  0  0  0  0  0
   15.6641   -2.8684  -18.4453 C   0  0  0  0  0  0  0  0  0  0  0  0
   19.1396   -3.6409  -15.8460 O   0  0  0  0  0  0  0  0  0  0  0  0
  1  2  1  0
  2  3  1  0
  3  4  1  6
  5  6  1  1
  5  3  1  0
  7  8  2  0
  7  5  1  0
  9  7  1  0
 10  9  1  0
 10 11  1  6
 12 16  1  0
 12 11  1  0
 13 12  2  0
 14 24  1  0
 14 10  1  0
 15 14  2  0
 18 17  1  0
 19 18  2  0
 20 19  1  0
 21 27  1  0
 21 20  2  0
 22 21  1  0
 23 22  1  1
 23 24  1  0
 23 25  1  0
 25 26  1  0
 27 28  2  0
 28 18  1  0
 29 25  2  0
M  END
$$$$
