IDY.pdb
     RDKit          3D

 29 29  0  0  1  0  0  0  0  0999 V2000
   14.3593   -9.6383  -17.8227 C   0  0  0  0  0  0  0  0  0  0  0  0
   15.6028  -10.4794  -17.6736 C   0  0  0  0  0  0  0  0  0  0  0  0
   16.7125   -9.7725  -16.9371 C   0  0  2  0  0  0  0  0  0  0  0  0
   17.0530   -8.4419  -17.5577 C   0  0  0  0  0  0  0  0  0  0  0  0
   17.9110  -10.6678  -16.7783 C   0  0  2  0  0  0  0  0  0  0  0  0
   17.5975  -11.9445  -16.2475 N   0  0  0  0  0  0  0  0  0  0  0  0
   19.0177   -9.9589  -16.1163 C   0  0  0  0  0  0  0  0  0  0  0  0
   18.9442   -9.8312  -14.8599 O   0  0  0  0  0  0  0  0  0  0  0  0
   20.1546   -9.4036  -16.7242 N   0  0  0  0  0  0  0  0  0  0  0  0
   21.1919   -8.6921  -16.0383 C   0  0  1  0  0  0  0  0  0  0  0  0
   22.5356   -9.0230  -16.6226 C   0  0  0  0  0  0  0  0  0  0  0  0
   22.8827  -10.4607  -16.5428 C   0  0  0  0  0  0  0  0  0  0  0  0
   22.8641  -11.1877  -17.5854 O   0  0  0  0  0  0  0  0  0  0  0  0
   21.0281   -7.2493  -15.9731 C   0  0  0  0  0  0  0  0  0  0  0  0
   20.5021   -6.5120  -16.8461 O   0  0  0  0  0  0  0  0  0  0  0  0
   23.2441  -11.1250  -15.3801 O   0  0  0  0  0  0  0  0  0  0  0  0
   17.7354   -7.0850   -9.5867 O   0  0  0  0  0  0  0  0  0  0  0  0
   18.2405   -6.5577  -10.7888 C   0  0  0  0  0  0  0  0  0  0  0  0
   18.5691   -5.2222  -10.8743 C   0  0  0  0  0  0  0  0  0  0  0  0
   19.0592   -4.7717  -12.0830 C   0  0  0  0  0  0  0  0  0  0  0  0
   19.2172   -5.6109  -13.1638 C   0  0  0  0  0  0  0  0  0  0  0  0
   19.7408   -5.0674  -14.4160 C   0  0  0  0  0  0  0  0  0  0  0  0
   21.2425   -5.1714  -14.5642 C   0  0  2  0  0  0  0  0  0  0  0  0
   21.5108   -6.5987  -14.8023 N   0  0  0  0  0  0  0  0  0  0  0  0
   21.9754   -4.7768  -13.3350 C   0  0  0  0  0  0  0  0  0  0  0  0
   22.0487   -3.4679  -12.8910 O   0  0  0  0  0  0  0  0  0  0  0  0
   18.8808   -6.9395  -13.0500 C   0  0  0  0  0  0  0  0  0  0  0  0
   18.3925   -7.4059  -11.8576 C   0  0  0  0  0  0  0  0  0  0  0  0
   22.5818   -5.6378  -12.6185 O   0  0  0  0  0  0  0  0  0  0  0  0
  1  2  1  0
  2  3  1  0
  3  4  1  6
  5  6  1  1
  5  3  1  0
  7  8  2  0
  7  5  1  0
  9  7  1  0
 10  9  1  0
 10 11  1  6
 12 16  1  0
 12 11  1  0
 13 12  2  0
 14 24  1  0
 14 10  1  0
 15 14  2  0
 18 17  1  0
 19 18  2  0
 20 19  1  0
 21 27  1  0
 21 20  2  0
 22 21  1  0
 23 22  1  1
 23 24  1  0
 23 25  1  0
 25 26  1  0
 27 28  2  0
 28 18  1  0
 29 25  2  0
M  END
$$$$
