PKP.pdb
     RDKit          3D

 24 25  0  0  1  0  0  0  0  0999 V2000
    8.5580  -15.1995   19.6707 N   0  0  0  0  0  0  0  0  0  0  0  0
    8.3814  -14.9460   18.2485 C   0  0  0  0  0  0  0  0  0  0  0  0
    8.0443  -13.4847   18.1068 C   0  0  0  0  0  0  0  0  0  0  0  0
    7.5072  -13.1640   19.5104 C   0  0  0  0  0  0  0  0  0  0  0  0
    8.4566  -13.9478   20.3433 C   0  0  1  0  0  0  0  0  0  0  0  0
    8.0523  -14.0939   21.7581 C   0  0  0  0  0  0  0  0  0  0  0  0
    7.8390  -13.0444   22.3939 O   0  0  0  0  0  0  0  0  0  0  0  0
    7.8974  -15.3278   22.4160 N   0  0  0  0  0  0  0  0  0  0  0  0
    7.5331  -15.6124   23.7508 C   0  0  1  0  0  0  0  0  0  0  0  0
    7.1070  -17.0155   24.0813 C   0  0  0  0  0  0  0  0  0  0  0  0
    6.1591  -17.6387   23.0964 C   0  0  0  0  0  0  0  0  0  0  0  0
    5.9094  -19.0711   23.4928 C   0  0  0  0  0  0  0  0  0  0  0  0
    4.9399  -19.8194   22.6271 C   0  0  0  0  0  0  0  0  0  0  0  0
    4.9247  -21.2316   22.9088 N   0  0  0  0  0  0  0  0  0  0  0  0
    8.4387  -15.1017   24.7787 C   0  0  0  0  0  0  0  0  0  0  0  0
    9.6906  -15.2895   24.5268 O   0  0  0  0  0  0  0  0  0  0  0  0
    8.1283  -14.4459   25.9756 N   0  0  0  0  0  0  0  0  0  0  0  0
    6.8565  -14.1395   26.5873 C   0  0  0  0  0  0  0  0  0  0  0  0
    7.0928  -12.7923   27.2675 C   0  0  0  0  0  0  0  0  0  0  0  0
    8.5793  -12.5333   27.1787 C   0  0  0  0  0  0  0  0  0  0  0  0
    9.1530  -13.8810   26.8669 C   0  0  1  0  0  0  0  0  0  0  0  0
    9.3332  -14.7430   28.0449 C   0  0  0  0  0  0  0  0  0  0  0  0
    8.5603  -15.7217   28.2027 O   0  0  0  0  0  0  0  0  0  0  0  0
   10.3037  -14.5493   29.0005 O   0  0  0  0  0  0  0  0  0  0  0  0
  1  2  1  0
  1  5  1  0
  2  3  1  0
  3  4  1  0
  5  4  1  0
  5  6  1  1
  6  7  2  0
  8  6  1  0
  9  8  1  0
 10 11  1  0
  9 10  1  6
 11 12  1  0
 12 13  1  0
 13 14  1  0
 15  9  1  0
 16 15  2  0
 17 21  1  0
 17 15  1  0
 18 19  1  0
 18 17  1  0
 19 20  1  0
 21 20  1  0
 21 22  1  1
 23 22  2  0
 24 22  1  0
M  END
$$$$
