PKP.pdb
     RDKit          3D

 24 25  0  0  1  0  0  0  0  0999 V2000
    8.7925  -15.0689   19.5940 N   0  0  0  0  0  0  0  0  0  0  0  0
    8.7381  -14.9045   18.1490 C   0  0  0  0  0  0  0  0  0  0  0  0
    8.1080  -13.5613   17.8885 C   0  0  0  0  0  0  0  0  0  0  0  0
    7.3476  -13.3274   19.2033 C   0  0  0  0  0  0  0  0  0  0  0  0
    8.3379  -13.8524   20.1796 C   0  0  1  0  0  0  0  0  0  0  0  0
    7.8073  -14.0430   21.5465 C   0  0  0  0  0  0  0  0  0  0  0  0
    7.3684  -13.0317   22.1260 O   0  0  0  0  0  0  0  0  0  0  0  0
    7.7703  -15.2784   22.2185 N   0  0  0  0  0  0  0  0  0  0  0  0
    7.3675  -15.5905   23.5361 C   0  0  1  0  0  0  0  0  0  0  0  0
    7.1229  -17.0343   23.8751 C   0  0  0  0  0  0  0  0  0  0  0  0
    6.8675  -17.3093   25.3297 C   0  0  0  0  0  0  0  0  0  0  0  0
    7.2315  -18.7403   25.6311 C   0  0  0  0  0  0  0  0  0  0  0  0
    6.9724  -19.1882   27.0388 C   0  0  0  0  0  0  0  0  0  0  0  0
    7.1522  -20.6069   27.2084 N   0  0  0  0  0  0  0  0  0  0  0  0
    8.1269  -14.9404   24.6028 C   0  0  0  0  0  0  0  0  0  0  0  0
    9.4070  -14.9708   24.4403 O   0  0  0  0  0  0  0  0  0  0  0  0
    7.6529  -14.2995   25.7533 N   0  0  0  0  0  0  0  0  0  0  0  0
    6.3347  -14.2588   26.3419 C   0  0  0  0  0  0  0  0  0  0  0  0
    6.2407  -12.8529   26.9318 C   0  0  0  0  0  0  0  0  0  0  0  0
    7.6278  -12.2614   26.8280 C   0  0  0  0  0  0  0  0  0  0  0  0
    8.5036  -13.4559   26.6067 C   0  0  1  0  0  0  0  0  0  0  0  0
    8.8593  -14.1751   27.8393 C   0  0  0  0  0  0  0  0  0  0  0  0
    9.6013  -13.6062   28.6795 O   0  0  0  0  0  0  0  0  0  0  0  0
    8.4295  -15.4466   28.1411 O   0  0  0  0  0  0  0  0  0  0  0  0
  1  2  1  0
  1  5  1  0
  2  3  1  0
  3  4  1  0
  5  4  1  0
  5  6  1  1
  6  7  2  0
  8  6  1  0
  9  8  1  0
 10 11  1  0
  9 10  1  1
 11 12  1  0
 12 13  1  0
 13 14  1  0
 15  9  1  0
 16 15  2  0
 17 21  1  0
 17 15  1  0
 18 19  1  0
 18 17  1  0
 19 20  1  0
 21 20  1  0
 21 22  1  1
 23 22  2  0
 24 22  1  0
M  END
$$$$
