PKP.pdb
     RDKit          3D

 24 25  0  0  1  0  0  0  0  0999 V2000
    8.5546  -15.0697   19.6273 N   0  0  0  0  0  0  0  0  0  0  0  0
    8.4263  -14.8043   18.2021 C   0  0  0  0  0  0  0  0  0  0  0  0
    8.0813  -13.3447   18.0618 C   0  0  0  0  0  0  0  0  0  0  0  0
    7.4917  -13.0420   19.4483 C   0  0  0  0  0  0  0  0  0  0  0  0
    8.4179  -13.8254   20.3073 C   0  0  1  0  0  0  0  0  0  0  0  0
    7.9649  -13.9883   21.7054 C   0  0  0  0  0  0  0  0  0  0  0  0
    7.7070  -12.9473   22.3385 O   0  0  0  0  0  0  0  0  0  0  0  0
    7.8112  -15.2291   22.3504 N   0  0  0  0  0  0  0  0  0  0  0  0
    7.4485  -15.5279   23.6826 C   0  0  1  0  0  0  0  0  0  0  0  0
    6.9590  -16.9165   23.9853 C   0  0  0  0  0  0  0  0  0  0  0  0
    5.8892  -17.4268   23.0622 C   0  0  0  0  0  0  0  0  0  0  0  0
    5.9546  -18.9318   23.0179 C   0  0  0  0  0  0  0  0  0  0  0  0
    4.9441  -19.5945   22.1296 C   0  0  0  0  0  0  0  0  0  0  0  0
    5.0329  -21.0313   22.1690 N   0  0  0  0  0  0  0  0  0  0  0  0
    8.3891  -15.0860   24.7109 C   0  0  0  0  0  0  0  0  0  0  0  0
    9.6316  -15.2507   24.4027 O   0  0  0  0  0  0  0  0  0  0  0  0
    8.1201  -14.5160   25.9606 N   0  0  0  0  0  0  0  0  0  0  0  0
    6.8709  -14.2702   26.6423 C   0  0  0  0  0  0  0  0  0  0  0  0
    7.1184  -12.9678   27.4012 C   0  0  0  0  0  0  0  0  0  0  0  0
    8.5966  -12.6810   27.2702 C   0  0  0  0  0  0  0  0  0  0  0  0
    9.1736  -13.9962   26.8458 C   0  0  1  0  0  0  0  0  0  0  0  0
    9.4129  -14.9318   27.9551 C   0  0  0  0  0  0  0  0  0  0  0  0
    8.6488  -15.9210   28.0882 O   0  0  0  0  0  0  0  0  0  0  0  0
   10.4304  -14.7972   28.8711 O   0  0  0  0  0  0  0  0  0  0  0  0
  1  2  1  0
  1  5  1  0
  2  3  1  0
  3  4  1  0
  5  4  1  0
  5  6  1  1
  6  7  2  0
  8  6  1  0
  9  8  1  0
 10 11  1  0
  9 10  1  6
 11 12  1  0
 12 13  1  0
 13 14  1  0
 15  9  1  0
 16 15  2  0
 17 21  1  0
 17 15  1  0
 18 19  1  0
 18 17  1  0
 19 20  1  0
 21 20  1  0
 21 22  1  1
 23 22  2  0
 24 22  1  0
M  END
$$$$
