PKP.pdb
     RDKit          3D

 24 25  0  0  1  0  0  0  0  0999 V2000
    8.7197  -15.0020   19.5478 N   0  0  0  0  0  0  0  0  0  0  0  0
    8.6176  -14.7891   18.1117 C   0  0  0  0  0  0  0  0  0  0  0  0
    8.0307  -13.4155   17.9174 C   0  0  0  0  0  0  0  0  0  0  0  0
    7.3295  -13.1959   19.2671 C   0  0  0  0  0  0  0  0  0  0  0  0
    8.3346  -13.7889   20.1878 C   0  0  1  0  0  0  0  0  0  0  0  0
    7.8485  -14.0035   21.5676 C   0  0  0  0  0  0  0  0  0  0  0  0
    7.4845  -12.9940   22.1996 O   0  0  0  0  0  0  0  0  0  0  0  0
    7.7747  -15.2597   22.1968 N   0  0  0  0  0  0  0  0  0  0  0  0
    7.4234  -15.5988   23.5223 C   0  0  1  0  0  0  0  0  0  0  0  0
    7.2119  -17.0513   23.8459 C   0  0  0  0  0  0  0  0  0  0  0  0
    6.9811  -17.3497   25.3001 C   0  0  0  0  0  0  0  0  0  0  0  0
    7.0224  -18.8416   25.5088 C   0  0  0  0  0  0  0  0  0  0  0  0
    6.8872  -19.2972   26.9313 C   0  0  0  0  0  0  0  0  0  0  0  0
    6.8334  -20.7315   27.0486 N   0  0  0  0  0  0  0  0  0  0  0  0
    8.2105  -14.9544   24.5723 C   0  0  0  0  0  0  0  0  0  0  0  0
    9.4880  -15.0623   24.4227 O   0  0  0  0  0  0  0  0  0  0  0  0
    7.7652  -14.2471   25.6950 N   0  0  0  0  0  0  0  0  0  0  0  0
    6.4336  -14.0149   26.2034 C   0  0  0  0  0  0  0  0  0  0  0  0
    6.5072  -12.6075   26.7927 C   0  0  0  0  0  0  0  0  0  0  0  0
    7.9686  -12.2220   26.7751 C   0  0  0  0  0  0  0  0  0  0  0  0
    8.6754  -13.5308   26.6017 C   0  0  1  0  0  0  0  0  0  0  0  0
    8.8492  -14.2883   27.8503 C   0  0  0  0  0  0  0  0  0  0  0  0
    8.1280  -15.2980   28.0512 O   0  0  0  0  0  0  0  0  0  0  0  0
    9.7604  -13.9634   28.8285 O   0  0  0  0  0  0  0  0  0  0  0  0
  1  2  1  0
  1  5  1  0
  2  3  1  0
  3  4  1  0
  5  4  1  0
  5  6  1  1
  6  7  2  0
  8  6  1  0
  9  8  1  0
 10 11  1  0
  9 10  1  6
 11 12  1  0
 12 13  1  0
 13 14  1  0
 15  9  1  0
 16 15  2  0
 17 21  1  0
 17 15  1  0
 18 19  1  0
 18 17  1  0
 19 20  1  0
 21 20  1  0
 21 22  1  1
 23 22  2  0
 24 22  1  0
M  END
$$$$
