PKP.pdb
     RDKit          3D

 24 25  0  0  1  0  0  0  0  0999 V2000
    8.7227  -15.1122   19.6219 N   0  0  0  0  0  0  0  0  0  0  0  0
    8.6364  -14.9026   18.1843 C   0  0  0  0  0  0  0  0  0  0  0  0
    8.1223  -13.5015   17.9802 C   0  0  0  0  0  0  0  0  0  0  0  0
    7.4293  -13.2380   19.3263 C   0  0  0  0  0  0  0  0  0  0  0  0
    8.3994  -13.8771   20.2537 C   0  0  1  0  0  0  0  0  0  0  0  0
    7.8985  -14.0582   21.6331 C   0  0  0  0  0  0  0  0  0  0  0  0
    7.5878  -13.0272   22.2590 O   0  0  0  0  0  0  0  0  0  0  0  0
    7.7552  -15.3053   22.2682 N   0  0  0  0  0  0  0  0  0  0  0  0
    7.2915  -15.6231   23.5641 C   0  0  1  0  0  0  0  0  0  0  0  0
    6.9095  -17.0493   23.8461 C   0  0  0  0  0  0  0  0  0  0  0  0
    6.6699  -17.3668   25.2948 C   0  0  0  0  0  0  0  0  0  0  0  0
    7.2826  -18.7064   25.6126 C   0  0  0  0  0  0  0  0  0  0  0  0
    7.0550  -19.2038   27.0091 C   0  0  0  0  0  0  0  0  0  0  0  0
    7.5752  -20.5310   27.2138 N   0  0  0  0  0  0  0  0  0  0  0  0
    8.0778  -15.0802   24.6706 C   0  0  0  0  0  0  0  0  0  0  0  0
    9.3555  -15.1698   24.5106 O   0  0  0  0  0  0  0  0  0  0  0  0
    7.6316  -14.4850   25.8561 N   0  0  0  0  0  0  0  0  0  0  0  0
    6.3215  -14.4436   26.4624 C   0  0  0  0  0  0  0  0  0  0  0  0
    6.2658  -13.0659   27.1197 C   0  0  0  0  0  0  0  0  0  0  0  0
    7.6646  -12.5007   27.0269 C   0  0  0  0  0  0  0  0  0  0  0  0
    8.5107  -13.7020   26.7380 C   0  0  1  0  0  0  0  0  0  0  0  0
    8.8642  -14.4871   27.9304 C   0  0  0  0  0  0  0  0  0  0  0  0
    8.3520  -15.6253   28.0795 O   0  0  0  0  0  0  0  0  0  0  0  0
    9.7297  -14.0554   28.9087 O   0  0  0  0  0  0  0  0  0  0  0  0
  1  2  1  0
  1  5  1  0
  2  3  1  0
  3  4  1  0
  5  4  1  0
  5  6  1  1
  6  7  2  0
  8  6  1  0
  9  8  1  0
 10 11  1  0
  9 10  1  1
 11 12  1  0
 12 13  1  0
 13 14  1  0
 15  9  1  0
 16 15  2  0
 17 21  1  0
 17 15  1  0
 18 19  1  0
 18 17  1  0
 19 20  1  0
 21 20  1  0
 21 22  1  1
 23 22  2  0
 24 22  1  0
M  END
$$$$
