PKP.pdb
     RDKit          3D

 24 25  0  0  1  0  0  0  0  0999 V2000
    8.5627  -15.2660   19.8557 N   0  0  0  0  0  0  0  0  0  0  0  0
    8.4417  -15.0495   18.4216 C   0  0  0  0  0  0  0  0  0  0  0  0
    8.1719  -13.5806   18.2257 C   0  0  0  0  0  0  0  0  0  0  0  0
    7.6051  -13.1945   19.6010 C   0  0  0  0  0  0  0  0  0  0  0  0
    8.4936  -13.9910   20.4873 C   0  0  1  0  0  0  0  0  0  0  0  0
    8.0393  -14.0763   21.8919 C   0  0  0  0  0  0  0  0  0  0  0  0
    7.8861  -13.0003   22.5002 O   0  0  0  0  0  0  0  0  0  0  0  0
    7.7749  -15.2808   22.5688 N   0  0  0  0  0  0  0  0  0  0  0  0
    7.3489  -15.5088   23.8962 C   0  0  1  0  0  0  0  0  0  0  0  0
    6.7755  -16.8573   24.2308 C   0  0  0  0  0  0  0  0  0  0  0  0
    5.8704  -17.4392   23.1823 C   0  0  0  0  0  0  0  0  0  0  0  0
    6.3683  -18.8118   22.8094 C   0  0  0  0  0  0  0  0  0  0  0  0
    5.6044  -19.4994   21.7171 C   0  0  0  0  0  0  0  0  0  0  0  0
    6.2863  -20.6646   21.2161 N   0  0  0  0  0  0  0  0  0  0  0  0
    8.2738  -15.0768   24.9428 C   0  0  0  0  0  0  0  0  0  0  0  0
    9.5200  -15.2611   24.6618 O   0  0  0  0  0  0  0  0  0  0  0  0
    7.9868  -14.4980   26.1844 N   0  0  0  0  0  0  0  0  0  0  0  0
    6.7346  -14.3194   26.8813 C   0  0  0  0  0  0  0  0  0  0  0  0
    6.9073  -12.9870   27.6082 C   0  0  0  0  0  0  0  0  0  0  0  0
    8.3614  -12.6072   27.4468 C   0  0  0  0  0  0  0  0  0  0  0  0
    9.0171  -13.8909   27.0409 C   0  0  1  0  0  0  0  0  0  0  0  0
    9.3340  -14.7840   28.1657 C   0  0  0  0  0  0  0  0  0  0  0  0
   10.1922  -14.4164   29.0074 O   0  0  0  0  0  0  0  0  0  0  0  0
    8.7473  -16.0125   28.3634 O   0  0  0  0  0  0  0  0  0  0  0  0
  1  2  1  0
  1  5  1  0
  2  3  1  0
  3  4  1  0
  5  4  1  0
  5  6  1  1
  6  7  2  0
  8  6  1  0
  9  8  1  0
 10 11  1  0
  9 10  1  6
 11 12  1  0
 12 13  1  0
 13 14  1  0
 15  9  1  0
 16 15  2  0
 17 21  1  0
 17 15  1  0
 18 19  1  0
 18 17  1  0
 19 20  1  0
 21 20  1  0
 21 22  1  1
 23 22  2  0
 24 22  1  0
M  END
$$$$
