RFV.pdb
     RDKit          3D

 30 30  0  0  1  0  0  0  0  0999 V2000
    9.1955  -13.1893   14.7358 N   0  0  0  0  0  0  0  0  0  0  0  0
    9.0237  -13.2580   16.1454 C   0  0  0  0  0  0  0  0  0  0  0  0
    8.2447  -12.3882   16.7220 N   0  0  0  0  0  0  0  0  0  0  0  0
    9.7007  -14.2674   16.8903 N   0  0  0  0  0  0  0  0  0  0  0  0
    9.3692  -15.6644   16.6179 C   0  0  0  0  0  0  0  0  0  0  0  0
    8.5988  -16.2716   17.7457 C   0  0  0  0  0  0  0  0  0  0  0  0
    9.3592  -16.2179   19.0283 C   0  0  0  0  0  0  0  0  0  0  0  0
    8.7720  -17.0095   20.1330 C   0  0  2  0  0  0  0  0  0  0  0  0
    7.4549  -17.5081   19.9666 N   0  0  0  0  0  0  0  0  0  0  0  0
    8.9613  -16.2784   21.4206 C   0  0  0  0  0  0  0  0  0  0  0  0
   10.1283  -15.9661   21.7421 O   0  0  0  0  0  0  0  0  0  0  0  0
    8.0604  -12.4043   17.7422 N   0  0  0  0  0  0  0  0  0  0  0  0
    7.9005  -15.9252   22.2855 C   0  0  1  0  0  0  0  0  0  0  0  0
    8.0890  -15.2233   23.5357 C   0  0  0  0  0  0  0  0  0  0  0  0
    6.8338  -14.4881   23.9550 C   0  0  0  0  0  0  0  0  0  0  0  0
    7.0216  -13.6863   25.1639 C   0  0  0  0  0  0  0  0  0  0  0  0
    7.7377  -12.5170   25.1902 C   0  0  0  0  0  0  0  0  0  0  0  0
    7.8615  -11.8226   26.3821 C   0  0  0  0  0  0  0  0  0  0  0  0
    7.2808  -12.2779   27.5497 C   0  0  0  0  0  0  0  0  0  0  0  0
    6.5638  -13.4502   27.5197 C   0  0  0  0  0  0  0  0  0  0  0  0
    6.4494  -14.1268   26.3344 C   0  0  0  0  0  0  0  0  0  0  0  0
    8.4706  -16.1550   24.6165 O   0  0  0  0  0  0  0  0  0  0  0  0
    7.7351  -17.1159   24.9703 C   0  0  0  0  0  0  0  0  0  0  0  0
   12.5443  -17.7356   26.9577 C   0  0  2  0  0  0  0  0  0  0  0  0
   11.8137  -16.8390   25.9652 C   0  0  0  0  0  0  0  0  0  0  0  0
   12.2409  -17.2377   24.5901 C   0  0  1  0  0  0  0  0  0  0  0  0
   10.3042  -16.9459   26.1657 N   0  0  0  0  0  0  0  0  0  0  0  0
    9.7147  -15.9617   25.2791 C   0  0  0  0  0  0  0  0  0  0  0  0
    9.9451  -16.6036   27.5463 O   0  0  0  0  0  0  0  0  0  0  0  0
    9.7976  -17.4877   28.4082 O   0  0  0  0  0  0  0  0  0  0  0  0
  2  1  1  0
  3  2  2  0
  4  2  1  0
  5  4  1  0
  6  5  1  0
  7  6  1  0
  8  7  1  0
  8  9  1  6
 10  8  1  0
 10 12  1  0
 11 10  2  0
 13 21  1  0
 13 12  1  0
 13 14  1  1
 15 14  1  0
 16 15  2  0
 17 16  1  0
 18 19  1  0
 18 17  2  0
 19 20  2  0
 20 15  1  0
 21 27  1  0
 22 21  2  0
 24 23  1  1
 24 25  1  0
 24 26  1  0
 26 28  1  0
 26 27  1  1
 28 29  2  0
 28 30  1  0
M  END
$$$$
