RFV.pdb
     RDKit          3D

 30 30  0  0  1  0  0  0  0  0999 V2000
    8.8919  -12.8873   16.6624 N   0  0  0  0  0  0  0  0  0  0  0  0
    8.4377  -14.1141   16.1056 C   0  0  0  0  0  0  0  0  0  0  0  0
    8.3421  -14.2140   14.8107 N   0  0  0  0  0  0  0  0  0  0  0  0
    8.1003  -15.1979   16.9678 N   0  0  0  0  0  0  0  0  0  0  0  0
    8.7116  -15.2397   18.2946 C   0  0  0  0  0  0  0  0  0  0  0  0
    9.9994  -15.9983   18.2776 C   0  0  0  0  0  0  0  0  0  0  0  0
   10.7336  -15.8724   19.5704 C   0  0  0  0  0  0  0  0  0  0  0  0
   10.2320  -16.7430   20.6577 C   0  0  2  0  0  0  0  0  0  0  0  0
    9.1524  -17.6152   20.3667 N   0  0  0  0  0  0  0  0  0  0  0  0
   10.0053  -15.9223   21.8839 C   0  0  0  0  0  0  0  0  0  0  0  0
   10.8531  -15.0452   22.1576 O   0  0  0  0  0  0  0  0  0  0  0  0
    7.9707  -15.0651   14.3495 N   0  0  0  0  0  0  0  0  0  0  0  0
    8.8938  -16.0843   22.7419 C   0  0  1  0  0  0  0  0  0  0  0  0
    8.6625  -15.2676   23.9127 C   0  0  0  0  0  0  0  0  0  0  0  0
    7.1842  -15.0487   24.1544 C   0  0  0  0  0  0  0  0  0  0  0  0
    6.9115  -13.8749   24.9837 C   0  0  0  0  0  0  0  0  0  0  0  0
    6.1276  -13.9111   26.1083 C   0  0  0  0  0  0  0  0  0  0  0  0
    5.9256  -12.7487   26.8336 C   0  0  0  0  0  0  0  0  0  0  0  0
    6.4949  -11.5491   26.4533 C   0  0  0  0  0  0  0  0  0  0  0  0
    7.2801  -11.5164   25.3256 C   0  0  0  0  0  0  0  0  0  0  0  0
    7.4714  -12.6732   24.6177 C   0  0  0  0  0  0  0  0  0  0  0  0
    9.2486  -15.8880   25.1183 O   0  0  0  0  0  0  0  0  0  0  0  0
    9.5712  -17.1060   25.1616 C   0  0  0  0  0  0  0  0  0  0  0  0
   10.7015  -14.8415   29.7888 C   0  0  2  0  0  0  0  0  0  0  0  0
    9.9007  -14.5116   28.5348 C   0  0  0  0  0  0  0  0  0  0  0  0
   10.2513  -13.1189   28.1228 C   0  0  1  0  0  0  0  0  0  0  0  0
   10.1836  -15.5372   27.4400 N   0  0  0  0  0  0  0  0  0  0  0  0
    9.4590  -15.0801   26.2703 C   0  0  0  0  0  0  0  0  0  0  0  0
    9.6643  -16.8541   27.8247 O   0  0  0  0  0  0  0  0  0  0  0  0
    8.4744  -17.1566   27.6273 O   0  0  0  0  0  0  0  0  0  0  0  0
  2  1  1  0
  3  2  2  0
  4  2  1  0
  5  4  1  0
  6  5  1  0
  7  6  1  0
  8  7  1  0
  8  9  1  6
 10  8  1  0
 10 12  1  0
 11 10  2  0
 13 21  1  0
 13 12  1  0
 13 14  1  6
 15 14  1  0
 16 15  2  0
 17 16  1  0
 18 19  1  0
 18 17  2  0
 19 20  2  0
 20 15  1  0
 21 27  1  0
 22 21  2  0
 24 23  1  1
 24 25  1  0
 24 26  1  0
 26 28  1  0
 26 27  1  1
 28 29  2  0
 28 30  1  0
M  END
$$$$
