RFV.pdb
     RDKit          3D

 30 30  0  0  1  0  0  0  0  0999 V2000
    7.6616  -15.2447   17.0965 N   0  0  0  0  0  0  0  0  0  0  0  0
    8.5911  -14.2019   16.8316 C   0  0  0  0  0  0  0  0  0  0  0  0
    8.1354  -13.0046   16.5977 N   0  0  0  0  0  0  0  0  0  0  0  0
    9.9879  -14.4861   16.8280 N   0  0  0  0  0  0  0  0  0  0  0  0
   10.4148  -15.8500   17.1334 C   0  0  0  0  0  0  0  0  0  0  0  0
    9.6802  -16.3997   18.3134 C   0  0  0  0  0  0  0  0  0  0  0  0
   10.5223  -16.3877   19.5450 C   0  0  0  0  0  0  0  0  0  0  0  0
    9.9816  -17.1757   20.6757 C   0  0  2  0  0  0  0  0  0  0  0  0
    8.8118  -17.9450   20.4507 N   0  0  0  0  0  0  0  0  0  0  0  0
    9.8841  -16.3045   21.8840 C   0  0  0  0  0  0  0  0  0  0  0  0
   10.8595  -15.5678   22.1459 O   0  0  0  0  0  0  0  0  0  0  0  0
    8.7588  -12.2197   16.3326 N   0  0  0  0  0  0  0  0  0  0  0  0
    8.7581  -16.2704   22.7377 C   0  0  1  0  0  0  0  0  0  0  0  0
    8.6361  -15.3711   23.8637 C   0  0  0  0  0  0  0  0  0  0  0  0
    7.1867  -15.0671   24.1775 C   0  0  0  0  0  0  0  0  0  0  0  0
    7.0261  -13.9065   25.0533 C   0  0  0  0  0  0  0  0  0  0  0  0
    7.5607  -12.6739   24.7784 C   0  0  0  0  0  0  0  0  0  0  0  0
    7.3556  -11.6307   25.6660 C   0  0  0  0  0  0  0  0  0  0  0  0
    6.6242  -11.7991   26.8255 C   0  0  0  0  0  0  0  0  0  0  0  0
    6.0897  -13.0359   27.0980 C   0  0  0  0  0  0  0  0  0  0  0  0
    6.3004  -14.0585   26.2116 C   0  0  0  0  0  0  0  0  0  0  0  0
    9.2682  -15.9414   25.0708 O   0  0  0  0  0  0  0  0  0  0  0  0
    9.1075  -17.1443   25.4126 C   0  0  0  0  0  0  0  0  0  0  0  0
    9.4878  -13.9186   28.3909 C   0  0  2  0  0  0  0  0  0  0  0  0
   10.8851  -14.3790   27.9929 C   0  0  0  0  0  0  0  0  0  0  0  0
   11.6372  -14.6894   29.2460 C   0  0  1  0  0  0  0  0  0  0  0  0
   10.8003  -15.5741   27.0470 N   0  0  0  0  0  0  0  0  0  0  0  0
   10.0903  -15.1029   25.8739 C   0  0  0  0  0  0  0  0  0  0  0  0
   10.0227  -16.6575   27.6584 O   0  0  0  0  0  0  0  0  0  0  0  0
   10.5864  -17.6141   28.2180 O   0  0  0  0  0  0  0  0  0  0  0  0
  2  1  1  0
  3  2  2  0
  4  2  1  0
  5  4  1  0
  6  5  1  0
  7  6  1  0
  8  7  1  0
  8  9  1  6
 10  8  1  0
 10 12  1  0
 11 10  2  0
 13 21  1  0
 13 12  1  0
 13 14  1  1
 15 14  1  0
 16 15  2  0
 17 16  1  0
 18 19  1  0
 18 17  2  0
 19 20  2  0
 20 15  1  0
 21 27  1  0
 22 21  2  0
 24 23  1  1
 24 25  1  0
 24 26  1  0
 26 28  1  0
 26 27  1  6
 28 29  2  0
 28 30  1  0
M  END
$$$$
