RFV.pdb
     RDKit          3D

 30 30  0  0  1  0  0  0  0  0999 V2000
    8.3844  -12.8544   14.5814 N   0  0  0  0  0  0  0  0  0  0  0  0
    8.0777  -14.2315   14.4055 C   0  0  0  0  0  0  0  0  0  0  0  0
    8.5552  -14.8487   13.3630 N   0  0  0  0  0  0  0  0  0  0  0  0
    7.2624  -14.9007   15.3644 N   0  0  0  0  0  0  0  0  0  0  0  0
    7.4100  -14.5334   16.7712 C   0  0  0  0  0  0  0  0  0  0  0  0
    8.8495  -14.4085   17.1538 C   0  0  0  0  0  0  0  0  0  0  0  0
    9.0122  -14.0941   18.6032 C   0  0  0  0  0  0  0  0  0  0  0  0
    8.9010  -15.2601   19.5087 C   0  0  2  0  0  0  0  0  0  0  0  0
    7.8199  -16.1561   19.3093 N   0  0  0  0  0  0  0  0  0  0  0  0
    9.0257  -14.8014   20.9237 C   0  0  0  0  0  0  0  0  0  0  0  0
   10.0765  -14.2070   21.2484 O   0  0  0  0  0  0  0  0  0  0  0  0
    8.9185  -14.3367   12.5378 N   0  0  0  0  0  0  0  0  0  0  0  0
    8.0279  -15.0024   21.9045 C   0  0  1  0  0  0  0  0  0  0  0  0
    8.1830  -14.6234   23.2914 C   0  0  0  0  0  0  0  0  0  0  0  0
    6.9618  -13.8927   23.8077 C   0  0  0  0  0  0  0  0  0  0  0  0
    7.1350  -13.3879   25.1696 C   0  0  0  0  0  0  0  0  0  0  0  0
    7.9855  -12.3614   25.4916 C   0  0  0  0  0  0  0  0  0  0  0  0
    8.0837  -11.9482   26.8098 C   0  0  0  0  0  0  0  0  0  0  0  0
    7.3450  -12.5445   27.8130 C   0  0  0  0  0  0  0  0  0  0  0  0
    6.4935  -13.5730   27.4868 C   0  0  0  0  0  0  0  0  0  0  0  0
    6.4063  -13.9716   26.1794 C   0  0  0  0  0  0  0  0  0  0  0  0
    8.4168  -15.8072   24.1434 O   0  0  0  0  0  0  0  0  0  0  0  0
    7.5587  -16.7207   24.2798 C   0  0  0  0  0  0  0  0  0  0  0  0
   12.0730  -18.6074   25.7899 C   0  0  2  0  0  0  0  0  0  0  0  0
   11.4837  -17.4278   25.0259 C   0  0  0  0  0  0  0  0  0  0  0  0
   11.5187  -17.7636   23.5704 C   0  0  1  0  0  0  0  0  0  0  0  0
   10.0734  -17.1240   25.5251 N   0  0  0  0  0  0  0  0  0  0  0  0
    9.6568  -15.9208   24.8316 C   0  0  0  0  0  0  0  0  0  0  0  0
   10.0878  -16.8500   26.9662 O   0  0  0  0  0  0  0  0  0  0  0  0
   10.2676  -15.6977   27.3978 O   0  0  0  0  0  0  0  0  0  0  0  0
  2  1  1  0
  3  2  2  0
  4  2  1  0
  5  4  1  0
  6  5  1  0
  7  6  1  0
  8  7  1  0
  8  9  1  1
 10  8  1  0
 10 12  1  0
 11 10  2  0
 13 21  1  0
 13 12  1  0
 13 14  1  1
 15 14  1  0
 16 15  2  0
 17 16  1  0
 18 19  1  0
 18 17  2  0
 19 20  2  0
 20 15  1  0
 21 27  1  0
 22 21  2  0
 24 23  1  6
 24 25  1  0
 24 26  1  0
 26 28  1  0
 26 27  1  1
 28 29  2  0
 28 30  1  0
M  END
$$$$
