RFV.pdb
     RDKit          3D

 30 30  0  0  1  0  0  0  0  0999 V2000
   10.1164  -13.8381   16.0568 N   0  0  0  0  0  0  0  0  0  0  0  0
    8.8882  -14.5208   15.8405 C   0  0  0  0  0  0  0  0  0  0  0  0
    7.8323  -13.8232   15.5334 N   0  0  0  0  0  0  0  0  0  0  0  0
    8.8390  -15.9402   15.9629 N   0  0  0  0  0  0  0  0  0  0  0  0
    9.4435  -16.5517   17.1446 C   0  0  0  0  0  0  0  0  0  0  0  0
    8.8689  -15.9883   18.4042 C   0  0  0  0  0  0  0  0  0  0  0  0
    9.9257  -15.7146   19.4213 C   0  0  0  0  0  0  0  0  0  0  0  0
    9.9092  -16.6182   20.5938 C   0  0  2  0  0  0  0  0  0  0  0  0
    9.0710  -17.7609   20.5410 N   0  0  0  0  0  0  0  0  0  0  0  0
    9.7209  -15.8129   21.8365 C   0  0  0  0  0  0  0  0  0  0  0  0
   10.5317  -14.8865   22.0537 O   0  0  0  0  0  0  0  0  0  0  0  0
    6.9419  -14.2691   15.2447 N   0  0  0  0  0  0  0  0  0  0  0  0
    8.6844  -16.0416   22.7700 C   0  0  1  0  0  0  0  0  0  0  0  0
    8.5429  -15.3012   24.0041 C   0  0  0  0  0  0  0  0  0  0  0  0
    7.0884  -15.0363   24.3297 C   0  0  0  0  0  0  0  0  0  0  0  0
    6.9097  -13.9429   25.2848 C   0  0  0  0  0  0  0  0  0  0  0  0
    6.2957  -14.0964   26.5014 C   0  0  0  0  0  0  0  0  0  0  0  0
    6.1724  -13.0035   27.3432 C   0  0  0  0  0  0  0  0  0  0  0  0
    6.6531  -11.7581   26.9888 C   0  0  0  0  0  0  0  0  0  0  0  0
    7.2680  -11.6078   25.7687 C   0  0  0  0  0  0  0  0  0  0  0  0
    7.3831  -12.6969   24.9462 C   0  0  0  0  0  0  0  0  0  0  0  0
    9.1518  -16.0308   25.1350 O   0  0  0  0  0  0  0  0  0  0  0  0
    9.2697  -17.2860   25.1432 C   0  0  0  0  0  0  0  0  0  0  0  0
   11.2954  -13.5320   27.5869 C   0  0  2  0  0  0  0  0  0  0  0  0
   10.6999  -14.7403   28.2997 C   0  0  0  0  0  0  0  0  0  0  0  0
    9.4583  -14.2912   28.9990 C   0  0  2  0  0  0  0  0  0  0  0  0
   10.4386  -15.8676   27.3041 N   0  0  0  0  0  0  0  0  0  0  0  0
    9.6249  -15.2888   26.2529 C   0  0  0  0  0  0  0  0  0  0  0  0
    9.6775  -16.9479   27.9411 O   0  0  0  0  0  0  0  0  0  0  0  0
    8.4517  -17.0588   27.7644 O   0  0  0  0  0  0  0  0  0  0  0  0
  2  1  1  0
  3  2  2  0
  4  2  1  0
  5  4  1  0
  6  5  1  0
  7  6  1  0
  8  7  1  0
  8  9  1  6
 10  8  1  0
 10 12  1  0
 11 10  2  0
 13 21  1  0
 13 12  1  0
 13 14  1  6
 15 14  1  0
 16 15  2  0
 17 16  1  0
 18 19  1  0
 18 17  2  0
 19 20  2  0
 20 15  1  0
 21 27  1  0
 22 21  2  0
 24 23  1  1
 24 25  1  0
 24 26  1  0
 26 28  1  0
 26 27  1  1
 28 29  2  0
 28 30  1  0
M  END
$$$$
