HTR.pdb
     RDKit          3D

 29 29  0  0  1  0  0  0  0  0999 V2000
   27.0429  -21.7694  -10.4794 N   0  0  0  0  0  0  0  0  0  0  0  0
   26.0487  -21.1473  -11.3243 C   0  0  1  0  0  0  0  0  0  0  0  0
   24.9696  -20.5934  -10.3920 C   0  0  0  0  0  0  0  0  0  0  0  0
   23.6486  -20.8167  -11.0570 C   0  0  0  0  0  0  0  0  0  0  0  0
   23.4465  -21.3999  -12.3071 C   0  0  0  0  0  0  0  0  0  0  0  0
   22.1260  -21.4231  -12.5516 N   0  0  0  0  0  0  0  0  0  0  0  0
   21.4868  -20.8749  -11.4996 C   0  0  0  0  0  0  0  0  0  0  0  0
   22.4269  -20.5127  -10.6025 N   0  0  0  0  0  0  0  0  0  0  0  0
   26.6021  -20.0077  -12.0919 C   0  0  0  0  0  0  0  0  0  0  0  0
   27.3655  -19.2165  -11.4831 O   0  0  0  0  0  0  0  0  0  0  0  0
   27.7604  -20.2988  -15.9310 C   0  0  0  0  0  0  0  0  0  0  0  0
   28.1133  -19.2202  -14.9238 C   0  0  1  0  0  0  0  0  0  0  0  0
   28.5872  -18.1229  -15.6495 O   0  0  0  0  0  0  0  0  0  0  0  0
   26.8783  -18.7475  -14.1792 C   0  0  2  0  0  0  0  0  0  0  0  0
   26.2658  -19.8406  -13.4635 N   0  0  0  0  0  0  0  0  0  0  0  0
   25.8872  -18.1535  -15.1120 C   0  0  0  0  0  0  0  0  0  0  0  0
   25.2409  -18.9515  -15.8650 O   0  0  0  0  0  0  0  0  0  0  0  0
   19.7760  -13.2290  -14.5759 N   0  0  0  0  0  0  0  0  0  0  0  0
   21.0942  -12.7866  -14.2087 C   0  0  0  0  0  0  0  0  0  0  0  0
   21.2747  -11.8893  -13.3025 N   0  0  0  0  0  0  0  0  0  0  0  0
   22.2461  -13.3289  -14.8407 N   0  0  0  0  0  0  0  0  0  0  0  0
   22.3949  -13.3491  -16.2661 C   0  0  0  0  0  0  0  0  0  0  0  0
   23.6724  -13.9442  -16.7607 C   0  0  0  0  0  0  0  0  0  0  0  0
   24.4913  -14.7288  -15.8269 C   0  0  0  0  0  0  0  0  0  0  0  0
   24.7530  -16.1570  -16.1209 C   0  0  2  0  0  0  0  0  0  0  0  0
   25.6664  -16.7614  -15.1663 N   0  0  0  0  0  0  0  0  0  0  0  0
   25.2716  -16.4439  -17.4614 C   0  0  0  0  0  0  0  0  0  0  0  0
   26.5020  -16.5278  -17.6487 O   0  0  0  0  0  0  0  0  0  0  0  0
   24.4224  -16.6243  -18.5378 O   0  0  0  0  0  0  0  0  0  0  0  0
  2  9  1  0
  2  1  1  1
  3  2  1  0
  4  8  1  0
  4  3  1  0
  5  4  2  0
  6  5  1  0
  6  7  1  0
  7  8  2  0
  9 10  2  0
 12 13  1  0
 12 14  1  0
 12 11  1  6
 14 16  1  0
 15  9  1  0
 14 15  1  6
 16 17  2  0
 18 19  1  0
 19 20  2  0
 21 19  1  0
 22 21  1  0
 22 23  1  0
 23 24  1  0
 25 24  1  1
 25 27  1  0
 26 25  1  0
 26 16  1  0
 27 28  2  0
 27 29  1  0
M  END
$$$$
