HTR.pdb
     RDKit          3D

 29 29  0  0  1  0  0  0  0  0999 V2000
   28.7168  -20.0932  -16.4648 N   0  0  0  0  0  0  0  0  0  0  0  0
   27.4785  -19.5346  -15.9710 C   0  0  1  0  0  0  0  0  0  0  0  0
   26.6900  -19.0709  -17.1973 C   0  0  0  0  0  0  0  0  0  0  0  0
   27.4657  -17.9607  -17.8323 C   0  0  0  0  0  0  0  0  0  0  0  0
   27.9065  -17.9183  -19.1542 C   0  0  0  0  0  0  0  0  0  0  0  0
   28.5633  -16.7617  -19.3413 N   0  0  0  0  0  0  0  0  0  0  0  0
   28.5528  -16.0720  -18.1837 C   0  0  0  0  0  0  0  0  0  0  0  0
   27.8823  -16.8152  -17.2794 N   0  0  0  0  0  0  0  0  0  0  0  0
   26.6531  -20.5423  -15.2657 C   0  0  0  0  0  0  0  0  0  0  0  0
   26.5637  -21.6830  -15.7854 O   0  0  0  0  0  0  0  0  0  0  0  0
   27.0860  -21.3821  -11.6405 C   0  0  0  0  0  0  0  0  0  0  0  0
   25.5951  -21.2288  -11.8770 C   0  0  1  0  0  0  0  0  0  0  0  0
   25.2347  -19.9628  -11.4051 O   0  0  0  0  0  0  0  0  0  0  0  0
   25.2760  -21.2461  -13.3605 C   0  0  2  0  0  0  0  0  0  0  0  0
   25.9992  -20.2043  -14.0490 N   0  0  0  0  0  0  0  0  0  0  0  0
   23.8200  -21.0721  -13.5955 C   0  0  0  0  0  0  0  0  0  0  0  0
   23.4289  -19.9423  -14.0337 O   0  0  0  0  0  0  0  0  0  0  0  0
   16.8405  -26.8932  -13.6085 N   0  0  0  0  0  0  0  0  0  0  0  0
   16.2990  -25.5835  -13.8528 C   0  0  0  0  0  0  0  0  0  0  0  0
   15.0409  -25.4039  -14.0624 N   0  0  0  0  0  0  0  0  0  0  0  0
   17.1422  -24.4395  -13.8721 N   0  0  0  0  0  0  0  0  0  0  0  0
   18.5456  -24.5225  -13.5934 C   0  0  0  0  0  0  0  0  0  0  0  0
   19.2717  -23.2173  -13.6061 C   0  0  0  0  0  0  0  0  0  0  0  0
   20.7338  -23.2238  -13.4640 C   0  0  0  0  0  0  0  0  0  0  0  0
   21.4681  -21.9376  -13.4978 C   0  0  2  0  0  0  0  0  0  0  0  0
   22.9021  -22.1134  -13.3448 N   0  0  0  0  0  0  0  0  0  0  0  0
   21.0442  -20.9392  -12.5120 C   0  0  0  0  0  0  0  0  0  0  0  0
   21.6940  -20.7894  -11.4578 O   0  0  0  0  0  0  0  0  0  0  0  0
   19.9278  -20.1503  -12.7215 O   0  0  0  0  0  0  0  0  0  0  0  0
  2  9  1  0
  2  1  1  6
  3  2  1  0
  4  8  1  0
  4  3  1  0
  5  4  2  0
  6  5  1  0
  6  7  1  0
  7  8  2  0
  9 10  2  0
 12 13  1  0
 12 14  1  0
 12 11  1  6
 14 16  1  0
 15  9  1  0
 14 15  1  6
 16 17  2  0
 18 19  1  0
 19 20  2  0
 21 19  1  0
 22 21  1  0
 22 23  1  0
 23 24  1  0
 25 24  1  1
 25 27  1  0
 26 25  1  0
 26 16  1  0
 27 28  2  0
 27 29  1  0
M  END
$$$$
