HTR.pdb
     RDKit          3D

 29 29  0  0  1  0  0  0  0  0999 V2000
   21.9633  -11.5101  -18.1587 N   0  0  0  0  0  0  0  0  0  0  0  0
   21.6052  -10.1125  -18.2474 C   0  0  1  0  0  0  0  0  0  0  0  0
   20.6811   -9.9756  -19.4590 C   0  0  0  0  0  0  0  0  0  0  0  0
   21.4861  -10.3124  -20.6738 C   0  0  0  0  0  0  0  0  0  0  0  0
   22.4735   -9.5157  -21.2517 C   0  0  0  0  0  0  0  0  0  0  0  0
   22.9627  -10.1629  -22.3221 N   0  0  0  0  0  0  0  0  0  0  0  0
   22.3188  -11.3406  -22.4408 C   0  0  0  0  0  0  0  0  0  0  0  0
   21.4264  -11.4139  -21.4317 N   0  0  0  0  0  0  0  0  0  0  0  0
   20.8515   -9.6524  -17.0581 C   0  0  0  0  0  0  0  0  0  0  0  0
   20.0271  -10.4535  -16.5502 O   0  0  0  0  0  0  0  0  0  0  0  0
   22.3449   -6.5900  -14.5014 C   0  0  0  0  0  0  0  0  0  0  0  0
   21.4804   -7.7989  -14.1957 C   0  0  1  0  0  0  0  0  0  0  0  0
   20.7791   -7.5128  -13.0203 O   0  0  0  0  0  0  0  0  0  0  0  0
   20.4407   -8.0114  -15.2806 C   0  0  2  0  0  0  0  0  0  0  0  0
   21.0733   -8.3498  -16.5326 N   0  0  0  0  0  0  0  0  0  0  0  0
   19.6047   -6.7978  -15.4639 C   0  0  0  0  0  0  0  0  0  0  0  0
   20.0440   -5.8979  -16.2504 O   0  0  0  0  0  0  0  0  0  0  0  0
   11.0230   -4.8740  -13.2096 N   0  0  0  0  0  0  0  0  0  0  0  0
   11.5838   -3.6769  -13.7759 C   0  0  0  0  0  0  0  0  0  0  0  0
   10.8803   -2.6078  -13.9212 N   0  0  0  0  0  0  0  0  0  0  0  0
   12.9407   -3.6376  -14.1971 N   0  0  0  0  0  0  0  0  0  0  0  0
   13.8242   -4.7532  -14.0265 C   0  0  0  0  0  0  0  0  0  0  0  0
   15.2247   -4.5288  -14.4947 C   0  0  0  0  0  0  0  0  0  0  0  0
   16.1703   -5.6521  -14.4496 C   0  0  0  0  0  0  0  0  0  0  0  0
   17.5514   -5.4534  -14.9475 C   0  0  2  0  0  0  0  0  0  0  0  0
   18.3721   -6.6426  -14.7959 N   0  0  0  0  0  0  0  0  0  0  0  0
   18.2875   -4.3371  -14.3473 C   0  0  0  0  0  0  0  0  0  0  0  0
   19.0400   -4.5389  -13.3731 O   0  0  0  0  0  0  0  0  0  0  0  0
   18.1666   -3.0496  -14.8373 O   0  0  0  0  0  0  0  0  0  0  0  0
  2  9  1  0
  2  1  1  1
  3  2  1  0
  4  8  1  0
  4  3  1  0
  5  4  2  0
  6  5  1  0
  6  7  1  0
  7  8  2  0
  9 10  2  0
 12 13  1  0
 12 14  1  0
 12 11  1  6
 14 16  1  0
 15  9  1  0
 14 15  1  6
 16 17  2  0
 18 19  1  0
 19 20  2  0
 21 19  1  0
 22 21  1  0
 22 23  1  0
 23 24  1  0
 25 24  1  1
 25 27  1  0
 26 25  1  0
 26 16  1  0
 27 28  2  0
 27 29  1  0
M  END
$$$$
