HTR.pdb
     RDKit          3D

 29 29  0  0  1  0  0  0  0  0999 V2000
   20.4460   -6.6227  -17.0955 N   0  0  0  0  0  0  0  0  0  0  0  0
   20.2096   -7.6176  -16.0739 C   0  0  1  0  0  0  0  0  0  0  0  0
   19.7721   -6.8587  -14.8196 C   0  0  0  0  0  0  0  0  0  0  0  0
   20.9468   -6.0617  -14.3484 C   0  0  0  0  0  0  0  0  0  0  0  0
   21.0662   -4.6732  -14.3873 C   0  0  0  0  0  0  0  0  0  0  0  0
   22.2621   -4.3396  -13.8749 N   0  0  0  0  0  0  0  0  0  0  0  0
   22.9025   -5.4689  -13.5138 C   0  0  0  0  0  0  0  0  0  0  0  0
   22.0890   -6.5038  -13.8086 N   0  0  0  0  0  0  0  0  0  0  0  0
   19.1129   -8.5439  -16.4393 C   0  0  0  0  0  0  0  0  0  0  0  0
   18.0551   -8.0380  -16.8915 O   0  0  0  0  0  0  0  0  0  0  0  0
   19.3633  -11.0770  -19.0169 C   0  0  0  0  0  0  0  0  0  0  0  0
   18.8291  -11.7969  -17.7928 C   0  0  1  0  0  0  0  0  0  0  0  0
   19.9221  -12.4038  -17.1664 O   0  0  0  0  0  0  0  0  0  0  0  0
   18.2482  -10.8127  -16.7943 C   0  0  2  0  0  0  0  0  0  0  0  0
   19.2789   -9.9465  -16.2747 N   0  0  0  0  0  0  0  0  0  0  0  0
   17.5874  -11.5211  -15.6688 C   0  0  0  0  0  0  0  0  0  0  0  0
   18.2666  -11.6916  -14.6053 O   0  0  0  0  0  0  0  0  0  0  0  0
    8.9793  -11.6011  -13.2234 N   0  0  0  0  0  0  0  0  0  0  0  0
    9.7048  -12.2834  -12.1860 C   0  0  0  0  0  0  0  0  0  0  0  0
    9.1318  -12.6455  -11.0907 N   0  0  0  0  0  0  0  0  0  0  0  0
   11.0866  -12.5793  -12.3383 N   0  0  0  0  0  0  0  0  0  0  0  0
   11.8403  -12.1356  -13.4738 C   0  0  0  0  0  0  0  0  0  0  0  0
   13.2678  -12.5746  -13.4967 C   0  0  0  0  0  0  0  0  0  0  0  0
   14.1129  -12.1623  -14.6253 C   0  0  0  0  0  0  0  0  0  0  0  0
   15.5449  -12.5416  -14.6311 C   0  0  2  0  0  0  0  0  0  0  0  0
   16.2604  -11.9890  -15.7684 N   0  0  0  0  0  0  0  0  0  0  0  0
   15.8199  -13.9810  -14.6013 C   0  0  0  0  0  0  0  0  0  0  0  0
   16.0831  -14.5871  -15.6593 O   0  0  0  0  0  0  0  0  0  0  0  0
   15.7928  -14.6941  -13.4167 O   0  0  0  0  0  0  0  0  0  0  0  0
  2  9  1  0
  2  1  1  6
  3  2  1  0
  4  8  1  0
  4  3  1  0
  5  4  2  0
  6  5  1  0
  6  7  1  0
  7  8  2  0
  9 10  2  0
 12 13  1  0
 12 14  1  0
 12 11  1  6
 14 16  1  0
 15  9  1  0
 14 15  1  1
 16 17  2  0
 18 19  1  0
 19 20  2  0
 21 19  1  0
 22 21  1  0
 22 23  1  0
 23 24  1  0
 25 24  1  6
 25 27  1  0
 26 25  1  0
 26 16  1  0
 27 28  2  0
 27 29  1  0
M  END
$$$$
