PRR.pdb
     RDKit          3D

 30 30  0  0  1  0  0  0  0  0999 V2000
   29.0192  -19.8079  -12.2773 N   0  0  0  0  0  0  0  0  0  0  0  0
   30.2991  -19.7233  -11.5787 C   0  0  0  0  0  0  0  0  0  0  0  0
   30.3217  -21.0981  -10.8978 C   0  0  0  0  0  0  0  0  0  0  0  0
   29.9068  -21.9919  -12.0524 C   0  0  0  0  0  0  0  0  0  0  0  0
   29.1511  -21.0675  -12.9914 C   0  0  1  0  0  0  0  0  0  0  0  0
   27.7701  -21.6093  -13.2519 C   0  0  0  0  0  0  0  0  0  0  0  0
   27.5823  -22.7089  -13.8107 O   0  0  0  0  0  0  0  0  0  0  0  0
   21.6529  -18.7985  -10.7575 N   0  0  0  0  0  0  0  0  0  0  0  0
   21.4541  -19.6755   -9.6504 C   0  0  0  0  0  0  0  0  0  0  0  0
   20.5093  -19.3335   -8.8196 N   0  0  0  0  0  0  0  0  0  0  0  0
   22.2313  -20.8470   -9.4594 N   0  0  0  0  0  0  0  0  0  0  0  0
   23.6737  -20.7535   -9.4752 C   0  0  0  0  0  0  0  0  0  0  0  0
   24.1775  -20.4287  -10.8861 C   0  0  0  0  0  0  0  0  0  0  0  0
   24.7664  -21.6399  -11.5427 C   0  0  0  0  0  0  0  0  0  0  0  0
   25.2702  -21.3236  -12.8943 C   0  0  2  0  0  0  0  0  0  0  0  0
   26.6624  -20.8568  -12.8554 N   0  0  0  0  0  0  0  0  0  0  0  0
   24.4247  -20.3031  -13.5600 C   0  0  0  0  0  0  0  0  0  0  0  0
   24.5982  -19.0694  -13.4369 O   0  0  0  0  0  0  0  0  0  0  0  0
   20.2493  -19.9118   -7.9902 N   0  0  0  0  0  0  0  0  0  0  0  0
   26.1440  -16.9978  -20.1680 C   0  0  0  0  0  0  0  0  0  0  0  0
   24.8625  -16.4082  -20.0841 N   0  0  0  0  0  0  0  0  0  0  0  0
   24.5855  -15.4403  -20.8910 N   0  0  0  0  0  0  0  0  0  0  0  0
   23.9397  -16.8958  -19.1250 C   0  0  0  0  0  0  0  0  0  0  0  0
   24.4011  -17.9067  -18.1933 C   0  0  0  0  0  0  0  0  0  0  0  0
   23.2784  -18.3284  -17.2401 C   0  0  0  0  0  0  0  0  0  0  0  0
   23.7835  -19.3521  -16.2898 C   0  0  2  0  0  0  0  0  0  0  0  0
   22.7310  -19.7697  -15.3091 N   0  0  0  0  0  0  0  0  0  0  0  0
   23.3425  -20.7377  -14.3957 C   0  0  0  0  0  0  0  0  0  0  0  0
   21.5818  -20.3890  -16.0007 O   0  0  0  0  0  0  0  0  0  0  0  0
   21.6095  -21.5779  -16.3625 O   0  0  0  0  0  0  0  0  0  0  0  0
  1  2  1  0
  3  2  1  0
  4  5  1  0
  4  3  1  0
  5  1  1  0
  5  6  1  1
  6 16  1  0
  7  6  2  0
  8  9  1  0
  9 10  2  0
 11  9  1  0
 12 11  1  0
 13 12  1  0
 14 13  1  0
 15 14  1  1
 15 16  1  0
 17 15  1  0
 17 27  1  0
 18 17  2  0
 20 22  1  0
 20 19  1  0
 21 20  2  0
 22 23  1  0
 23 24  1  0
 25 24  1  0
 26 25  1  1
 26 27  1  0
 26 28  1  0
 28 29  2  0
 28 30  1  0
M  END
$$$$
