PRR.pdb
     RDKit          3D

 30 30  0  0  1  0  0  0  0  0999 V2000
   26.1441  -21.1254  -14.6137 N   0  0  0  0  0  0  0  0  0  0  0  0
   27.5437  -20.8447  -14.9225 C   0  0  0  0  0  0  0  0  0  0  0  0
   27.7109  -19.5008  -14.2015 C   0  0  0  0  0  0  0  0  0  0  0  0
   27.0582  -19.8132  -12.8671 C   0  0  0  0  0  0  0  0  0  0  0  0
   26.1196  -20.9688  -13.1684 C   0  0  1  0  0  0  0  0  0  0  0  0
   24.7146  -20.6167  -12.7554 C   0  0  0  0  0  0  0  0  0  0  0  0
   24.4336  -20.2585  -11.5937 O   0  0  0  0  0  0  0  0  0  0  0  0
   22.3171  -14.4783  -14.6768 N   0  0  0  0  0  0  0  0  0  0  0  0
   23.4059  -14.9772  -15.4512 C   0  0  0  0  0  0  0  0  0  0  0  0
   24.4403  -14.1896  -15.5473 N   0  0  0  0  0  0  0  0  0  0  0  0
   23.3721  -16.2489  -16.0796 N   0  0  0  0  0  0  0  0  0  0  0  0
   22.3253  -17.1844  -15.7350 C   0  0  0  0  0  0  0  0  0  0  0  0
   22.8254  -18.1942  -14.6957 C   0  0  0  0  0  0  0  0  0  0  0  0
   21.8546  -19.3230  -14.5270 C   0  0  0  0  0  0  0  0  0  0  0  0
   22.3048  -20.2636  -13.4812 C   0  0  2  0  0  0  0  0  0  0  0  0
   23.6917  -20.6933  -13.7032 N   0  0  0  0  0  0  0  0  0  0  0  0
   21.4232  -21.4541  -13.4108 C   0  0  0  0  0  0  0  0  0  0  0  0
   21.5405  -22.4507  -14.1593 O   0  0  0  0  0  0  0  0  0  0  0  0
   25.3476  -14.4962  -15.9630 N   0  0  0  0  0  0  0  0  0  0  0  0
   17.4930  -24.3779   -6.5485 C   0  0  0  0  0  0  0  0  0  0  0  0
   18.6746  -24.8534   -7.1603 N   0  0  0  0  0  0  0  0  0  0  0  0
   19.5394  -25.4608   -6.4202 N   0  0  0  0  0  0  0  0  0  0  0  0
   18.8646  -24.6455   -8.5495 C   0  0  0  0  0  0  0  0  0  0  0  0
   17.7510  -24.1188   -9.3146 C   0  0  0  0  0  0  0  0  0  0  0  0
   18.1252  -23.9610  -10.7917 C   0  0  0  0  0  0  0  0  0  0  0  0
   19.0678  -22.8244  -10.9530 C   0  0  1  0  0  0  0  0  0  0  0  0
   19.5002  -22.6568  -12.3774 N   0  0  0  0  0  0  0  0  0  0  0  0
   20.3716  -21.4810  -12.4352 C   0  0  0  0  0  0  0  0  0  0  0  0
   18.3340  -22.4612  -13.2630 O   0  0  0  0  0  0  0  0  0  0  0  0
   17.9274  -21.3233  -13.5541 O   0  0  0  0  0  0  0  0  0  0  0  0
  1  2  1  0
  3  2  1  0
  4  5  1  0
  4  3  1  0
  5  1  1  0
  5  6  1  6
  6 16  1  0
  7  6  2  0
  8  9  1  0
  9 10  2  0
 11  9  1  0
 12 11  1  0
 13 12  1  0
 14 13  1  0
 15 14  1  6
 15 16  1  0
 17 15  1  0
 17 27  1  0
 18 17  2  0
 20 22  1  0
 20 19  1  0
 21 20  2  0
 22 23  1  0
 23 24  1  0
 25 24  1  0
 26 25  1  1
 26 27  1  0
 26 28  1  0
 28 29  2  0
 28 30  1  0
M  END
$$$$
