PRR.pdb
     RDKit          3D

 30 30  0  0  1  0  0  0  0  0999 V2000
   28.7967  -22.0057  -17.5601 N   0  0  0  0  0  0  0  0  0  0  0  0
   29.5711  -21.2624  -18.5506 C   0  0  0  0  0  0  0  0  0  0  0  0
   28.5758  -20.1424  -18.8804 C   0  0  0  0  0  0  0  0  0  0  0  0
   28.1407  -19.7315  -17.4854 C   0  0  0  0  0  0  0  0  0  0  0  0
   28.4156  -20.9558  -16.6294 C   0  0  1  0  0  0  0  0  0  0  0  0
   27.1578  -21.3862  -15.9214 C   0  0  0  0  0  0  0  0  0  0  0  0
   26.5803  -22.4599  -16.1867 O   0  0  0  0  0  0  0  0  0  0  0  0
   23.1600  -21.2662   -7.3703 N   0  0  0  0  0  0  0  0  0  0  0  0
   24.3279  -21.1776   -8.1841 C   0  0  0  0  0  0  0  0  0  0  0  0
   25.4257  -20.8438   -7.5650 N   0  0  0  0  0  0  0  0  0  0  0  0
   24.3038  -21.4349   -9.5792 N   0  0  0  0  0  0  0  0  0  0  0  0
   24.4482  -20.3360  -10.5073 C   0  0  0  0  0  0  0  0  0  0  0  0
   24.3380  -20.8335  -11.9531 C   0  0  0  0  0  0  0  0  0  0  0  0
   25.5503  -20.4569  -12.7490 C   0  0  0  0  0  0  0  0  0  0  0  0
   25.4014  -20.8451  -14.1660 C   0  0  2  0  0  0  0  0  0  0  0  0
   26.6192  -20.5569  -14.9351 N   0  0  0  0  0  0  0  0  0  0  0  0
   24.2458  -20.1602  -14.7944 C   0  0  0  0  0  0  0  0  0  0  0  0
   23.9483  -18.9629  -14.5817 O   0  0  0  0  0  0  0  0  0  0  0  0
   26.3213  -20.6523   -8.0659 N   0  0  0  0  0  0  0  0  0  0  0  0
   17.6164  -23.6058  -11.9480 C   0  0  0  0  0  0  0  0  0  0  0  0
   16.9644  -22.6247  -12.7284 N   0  0  0  0  0  0  0  0  0  0  0  0
   15.6859  -22.5023  -12.6058 N   0  0  0  0  0  0  0  0  0  0  0  0
   17.7313  -21.8214  -13.6093 C   0  0  0  0  0  0  0  0  0  0  0  0
   19.1694  -22.0082  -13.6183 C   0  0  0  0  0  0  0  0  0  0  0  0
   19.8275  -21.1516  -14.7046 C   0  0  0  0  0  0  0  0  0  0  0  0
   21.2933  -21.3917  -14.7149 C   0  0  2  0  0  0  0  0  0  0  0  0
   21.9850  -20.5713  -15.7601 N   0  0  0  0  0  0  0  0  0  0  0  0
   23.4117  -20.8972  -15.6996 C   0  0  0  0  0  0  0  0  0  0  0  0
   21.7890  -19.1281  -15.5128 O   0  0  0  0  0  0  0  0  0  0  0  0
   22.4485  -18.5251  -14.6488 O   0  0  0  0  0  0  0  0  0  0  0  0
  1  2  1  0
  3  2  1  0
  4  5  1  0
  4  3  1  0
  5  1  1  0
  5  6  1  6
  6 16  1  0
  7  6  2  0
  8  9  1  0
  9 10  2  0
 11  9  1  0
 12 11  1  0
 13 12  1  0
 14 13  1  0
 15 14  1  1
 15 16  1  0
 17 15  1  0
 17 27  1  0
 18 17  2  0
 20 22  1  0
 20 19  1  0
 21 20  2  0
 22 23  1  0
 23 24  1  0
 25 24  1  0
 26 25  1  6
 26 27  1  0
 26 28  1  0
 28 29  2  0
 28 30  1  0
M  END
$$$$
