PRR.pdb
     RDKit          3D

 30 30  0  0  1  0  0  0  0  0999 V2000
   26.8900  -14.3699  -17.0747 N   0  0  0  0  0  0  0  0  0  0  0  0
   26.9394  -12.9613  -16.6919 C   0  0  0  0  0  0  0  0  0  0  0  0
   25.5147  -12.7824  -16.1516 C   0  0  0  0  0  0  0  0  0  0  0  0
   25.3861  -14.0182  -15.2795 C   0  0  0  0  0  0  0  0  0  0  0  0
   26.3972  -14.9935  -15.8572 C   0  0  1  0  0  0  0  0  0  0  0  0
   25.7174  -16.2847  -16.2299 C   0  0  0  0  0  0  0  0  0  0  0  0
   24.7800  -16.3289  -17.0522 O   0  0  0  0  0  0  0  0  0  0  0  0
   30.2565  -23.1647  -16.8176 N   0  0  0  0  0  0  0  0  0  0  0  0
   28.8874  -23.0030  -17.1833 C   0  0  0  0  0  0  0  0  0  0  0  0
   28.4184  -23.8817  -18.0246 N   0  0  0  0  0  0  0  0  0  0  0  0
   28.0815  -21.9551  -16.6681 N   0  0  0  0  0  0  0  0  0  0  0  0
   28.6580  -21.0026  -15.7461 C   0  0  0  0  0  0  0  0  0  0  0  0
   27.5951  -20.0097  -15.2620 C   0  0  0  0  0  0  0  0  0  0  0  0
   26.5530  -19.7770  -16.3131 C   0  0  0  0  0  0  0  0  0  0  0  0
   25.5482  -18.7936  -15.8614 C   0  0  2  0  0  0  0  0  0  0  0  0
   26.1496  -17.4726  -15.6361 N   0  0  0  0  0  0  0  0  0  0  0  0
   24.8696  -19.2461  -14.6227 C   0  0  0  0  0  0  0  0  0  0  0  0
   25.3063  -19.0241  -13.4707 O   0  0  0  0  0  0  0  0  0  0  0  0
   27.4150  -23.9103  -18.3112 N   0  0  0  0  0  0  0  0  0  0  0  0
   17.1604  -22.5114  -14.9070 C   0  0  0  0  0  0  0  0  0  0  0  0
   17.3828  -21.1831  -14.4794 N   0  0  0  0  0  0  0  0  0  0  0  0
   16.3920  -20.3577  -14.5215 N   0  0  0  0  0  0  0  0  0  0  0  0
   18.6734  -20.8105  -14.0269 C   0  0  0  0  0  0  0  0  0  0  0  0
   19.3953  -21.7490  -13.1896 C   0  0  0  0  0  0  0  0  0  0  0  0
   20.7296  -21.1569  -12.7251 C   0  0  0  0  0  0  0  0  0  0  0  0
   21.5527  -20.7856  -13.9045 C   0  0  2  0  0  0  0  0  0  0  0  0
   22.9246  -20.3343  -13.5068 N   0  0  0  0  0  0  0  0  0  0  0  0
   23.6423  -19.9808  -14.7336 C   0  0  0  0  0  0  0  0  0  0  0  0
   23.6471  -21.4080  -12.7943 O   0  0  0  0  0  0  0  0  0  0  0  0
   24.2459  -22.3045  -13.4129 O   0  0  0  0  0  0  0  0  0  0  0  0
  1  2  1  0
  3  2  1  0
  4  5  1  0
  4  3  1  0
  5  1  1  0
  5  6  1  6
  6 16  1  0
  7  6  2  0
  8  9  1  0
  9 10  2  0
 11  9  1  0
 12 11  1  0
 13 12  1  0
 14 13  1  0
 15 14  1  1
 15 16  1  0
 17 15  1  0
 17 27  1  0
 18 17  2  0
 20 22  1  0
 20 19  1  0
 21 20  2  0
 22 23  1  0
 23 24  1  0
 25 24  1  0
 26 25  1  1
 26 27  1  0
 26 28  1  0
 28 29  2  0
 28 30  1  0
M  END
$$$$
