PRR.pdb
     RDKit          3D

 30 30  0  0  1  0  0  0  0  0999 V2000
   27.8779  -21.4025  -15.9998 N   0  0  0  0  0  0  0  0  0  0  0  0
   28.6587  -20.5367  -16.8796 C   0  0  0  0  0  0  0  0  0  0  0  0
   27.6300  -19.4298  -17.1448 C   0  0  0  0  0  0  0  0  0  0  0  0
   27.1216  -19.1737  -15.7376 C   0  0  0  0  0  0  0  0  0  0  0  0
   27.4145  -20.4637  -14.9910 C   0  0  1  0  0  0  0  0  0  0  0  0
   26.1491  -21.0098  -14.3836 C   0  0  0  0  0  0  0  0  0  0  0  0
   25.4741  -21.8985  -14.9415 O   0  0  0  0  0  0  0  0  0  0  0  0
   21.3634  -22.7677   -7.5613 N   0  0  0  0  0  0  0  0  0  0  0  0
   22.3948  -21.8845   -7.1250 C   0  0  0  0  0  0  0  0  0  0  0  0
   22.3222  -21.4994   -5.8815 N   0  0  0  0  0  0  0  0  0  0  0  0
   23.4365  -21.4487   -7.9841 N   0  0  0  0  0  0  0  0  0  0  0  0
   23.1822  -20.3808   -8.9247 C   0  0  0  0  0  0  0  0  0  0  0  0
   23.2216  -20.9088  -10.3633 C   0  0  0  0  0  0  0  0  0  0  0  0
   24.4997  -20.5262  -11.0454 C   0  0  0  0  0  0  0  0  0  0  0  0
   24.4756  -20.8993  -12.4741 C   0  0  2  0  0  0  0  0  0  0  0  0
   25.7160  -20.5055  -13.1553 N   0  0  0  0  0  0  0  0  0  0  0  0
   23.3148  -20.2932  -13.1704 C   0  0  0  0  0  0  0  0  0  0  0  0
   23.2067  -19.0679  -13.4030 O   0  0  0  0  0  0  0  0  0  0  0  0
   23.0129  -20.8456   -5.4510 N   0  0  0  0  0  0  0  0  0  0  0  0
   17.3550  -24.2085  -18.2611 C   0  0  0  0  0  0  0  0  0  0  0  0
   17.0390  -22.8418  -18.4314 N   0  0  0  0  0  0  0  0  0  0  0  0
   16.1653  -22.5278  -19.3273 N   0  0  0  0  0  0  0  0  0  0  0  0
   17.6885  -21.8769  -17.6213 C   0  0  0  0  0  0  0  0  0  0  0  0
   18.6840  -22.3447  -16.6762 C   0  0  0  0  0  0  0  0  0  0  0  0
   19.3492  -21.1697  -15.9527 C   0  0  0  0  0  0  0  0  0  0  0  0
   20.4345  -21.6712  -15.0712 C   0  0  2  0  0  0  0  0  0  0  0  0
   21.1483  -20.5534  -14.3749 N   0  0  0  0  0  0  0  0  0  0  0  0
   22.2471  -21.1454  -13.6085 C   0  0  0  0  0  0  0  0  0  0  0  0
   20.2356  -19.8297  -13.4664 O   0  0  0  0  0  0  0  0  0  0  0  0
   20.0124  -20.2388  -12.3141 O   0  0  0  0  0  0  0  0  0  0  0  0
  1  2  1  0
  3  2  1  0
  4  5  1  0
  4  3  1  0
  5  1  1  0
  5  6  1  6
  6 16  1  0
  7  6  2  0
  8  9  1  0
  9 10  2  0
 11  9  1  0
 12 11  1  0
 13 12  1  0
 14 13  1  0
 15 14  1  1
 15 16  1  0
 17 15  1  0
 17 27  1  0
 18 17  2  0
 20 22  1  0
 20 19  1  0
 21 20  2  0
 22 23  1  0
 23 24  1  0
 25 24  1  0
 26 25  1  6
 26 27  1  0
 26 28  1  0
 28 29  2  0
 28 30  1  0
M  END
$$$$
