PRR.pdb
     RDKit          3D

 30 30  0  0  1  0  0  0  0  0999 V2000
   25.8545  -21.0866  -10.8218 N   0  0  0  0  0  0  0  0  0  0  0  0
   26.3792  -20.8784   -9.4748 C   0  0  0  0  0  0  0  0  0  0  0  0
   26.0955  -19.3799   -9.3077 C   0  0  0  0  0  0  0  0  0  0  0  0
   24.6655  -19.3053   -9.8113 C   0  0  0  0  0  0  0  0  0  0  0  0
   24.5207  -20.5181  -10.7144 C   0  0  1  0  0  0  0  0  0  0  0  0
   24.0774  -20.0908  -12.0889 C   0  0  0  0  0  0  0  0  0  0  0  0
   23.0358  -19.4299  -12.2756 O   0  0  0  0  0  0  0  0  0  0  0  0
   28.7958  -23.5100  -18.4481 N   0  0  0  0  0  0  0  0  0  0  0  0
   27.8830  -24.3172  -17.7069 C   0  0  0  0  0  0  0  0  0  0  0  0
   27.9960  -25.6045  -17.8800 N   0  0  0  0  0  0  0  0  0  0  0  0
   26.9115  -23.7614  -16.8350 N   0  0  0  0  0  0  0  0  0  0  0  0
   26.8331  -22.3262  -16.6807 C   0  0  0  0  0  0  0  0  0  0  0  0
   25.7429  -21.9514  -15.6702 C   0  0  0  0  0  0  0  0  0  0  0  0
   25.6577  -20.4661  -15.4919 C   0  0  0  0  0  0  0  0  0  0  0  0
   24.5508  -20.0991  -14.5859 C   0  0  2  0  0  0  0  0  0  0  0  0
   24.8573  -20.4458  -13.1918 N   0  0  0  0  0  0  0  0  0  0  0  0
   23.2827  -20.7529  -14.9910 C   0  0  0  0  0  0  0  0  0  0  0  0
   22.9852  -21.9331  -14.6980 O   0  0  0  0  0  0  0  0  0  0  0  0
   27.3665  -26.2948  -17.4142 N   0  0  0  0  0  0  0  0  0  0  0  0
   15.8981  -16.8643  -14.5169 C   0  0  0  0  0  0  0  0  0  0  0  0
   17.2162  -16.4606  -14.2063 N   0  0  0  0  0  0  0  0  0  0  0  0
   17.3779  -15.5730  -13.2840 N   0  0  0  0  0  0  0  0  0  0  0  0
   18.3001  -17.0384  -14.9138 C   0  0  0  0  0  0  0  0  0  0  0  0
   18.0597  -18.2775  -15.6279 C   0  0  0  0  0  0  0  0  0  0  0  0
   19.0936  -19.3412  -15.2453 C   0  0  0  0  0  0  0  0  0  0  0  0
   20.0711  -19.5128  -16.3504 C   0  0  2  0  0  0  0  0  0  0  0  0
   21.0400  -20.6204  -16.0704 N   0  0  0  0  0  0  0  0  0  0  0  0
   22.3327  -20.0044  -15.7626 C   0  0  0  0  0  0  0  0  0  0  0  0
   21.1748  -21.5116  -17.2409 O   0  0  0  0  0  0  0  0  0  0  0  0
   22.1084  -21.3779  -18.0506 O   0  0  0  0  0  0  0  0  0  0  0  0
  1  2  1  0
  3  2  1  0
  4  5  1  0
  4  3  1  0
  5  1  1  0
  5  6  1  6
  6 16  1  0
  7  6  2  0
  8  9  1  0
  9 10  2  0
 11  9  1  0
 12 11  1  0
 13 12  1  0
 14 13  1  0
 15 14  1  6
 15 16  1  0
 17 15  1  0
 17 27  1  0
 18 17  2  0
 20 22  1  0
 20 19  1  0
 21 20  2  0
 22 23  1  0
 23 24  1  0
 25 24  1  0
 26 25  1  1
 26 27  1  0
 26 28  1  0
 28 29  2  0
 28 30  1  0
M  END
$$$$
