PRR.pdb
     RDKit          3D

 30 30  0  0  1  0  0  0  0  0999 V2000
   30.1070  -22.9525  -16.2153 N   0  0  0  0  0  0  0  0  0  0  0  0
   30.2773  -24.1508  -17.0327 C   0  0  0  0  0  0  0  0  0  0  0  0
   28.8130  -24.5865  -17.1741 C   0  0  0  0  0  0  0  0  0  0  0  0
   28.1569  -23.2627  -17.5225 C   0  0  0  0  0  0  0  0  0  0  0  0
   29.1079  -22.2145  -16.9710 C   0  0  1  0  0  0  0  0  0  0  0  0
   28.3781  -21.3006  -16.0220 C   0  0  0  0  0  0  0  0  0  0  0  0
   28.3347  -21.5156  -14.7938 O   0  0  0  0  0  0  0  0  0  0  0  0
   27.3686  -15.7359  -18.6581 N   0  0  0  0  0  0  0  0  0  0  0  0
   27.4966  -14.8441  -17.5525 C   0  0  0  0  0  0  0  0  0  0  0  0
   28.4870  -13.9987  -17.6185 N   0  0  0  0  0  0  0  0  0  0  0  0
   26.6065  -14.8698  -16.4479 N   0  0  0  0  0  0  0  0  0  0  0  0
   25.4844  -15.7811  -16.4604 C   0  0  0  0  0  0  0  0  0  0  0  0
   25.8123  -17.0509  -15.6667 C   0  0  0  0  0  0  0  0  0  0  0  0
   26.6810  -17.9771  -16.4620 C   0  0  0  0  0  0  0  0  0  0  0  0
   26.9056  -19.2479  -15.7441 C   0  0  2  0  0  0  0  0  0  0  0  0
   27.7281  -20.1748  -16.5327 N   0  0  0  0  0  0  0  0  0  0  0  0
   25.6222  -19.9024  -15.3918 C   0  0  0  0  0  0  0  0  0  0  0  0
   24.8748  -20.4605  -16.2268 O   0  0  0  0  0  0  0  0  0  0  0  0
   28.6131  -13.2212  -16.9333 N   0  0  0  0  0  0  0  0  0  0  0  0
   24.0053  -21.7393   -7.3479 C   0  0  0  0  0  0  0  0  0  0  0  0
   22.9068  -21.5677   -8.2200 N   0  0  0  0  0  0  0  0  0  0  0  0
   21.7329  -21.8823   -7.7869 N   0  0  0  0  0  0  0  0  0  0  0  0
   23.1337  -21.0637   -9.5253 C   0  0  0  0  0  0  0  0  0  0  0  0
   24.5007  -20.7700   -9.9104 C   0  0  0  0  0  0  0  0  0  0  0  0
   24.5574  -20.1686  -11.3181 C   0  0  0  0  0  0  0  0  0  0  0  0
   24.1185  -21.1788  -12.3147 C   0  0  1  0  0  0  0  0  0  0  0  0
   23.9453  -20.5796  -13.6765 N   0  0  0  0  0  0  0  0  0  0  0  0
   25.1990  -19.9050  -14.0210 C   0  0  0  0  0  0  0  0  0  0  0  0
   22.8329  -19.6075  -13.6874 O   0  0  0  0  0  0  0  0  0  0  0  0
   21.6536  -19.9735  -13.5449 O   0  0  0  0  0  0  0  0  0  0  0  0
  1  2  1  0
  3  2  1  0
  4  5  1  0
  4  3  1  0
  5  1  1  0
  5  6  1  1
  6 16  1  0
  7  6  2  0
  8  9  1  0
  9 10  2  0
 11  9  1  0
 12 11  1  0
 13 12  1  0
 14 13  1  0
 15 14  1  6
 15 16  1  0
 17 15  1  0
 17 27  1  0
 18 17  2  0
 20 22  1  0
 20 19  1  0
 21 20  2  0
 22 23  1  0
 23 24  1  0
 25 24  1  0
 26 25  1  6
 26 27  1  0
 26 28  1  0
 28 29  2  0
 28 30  1  0
M  END
$$$$
