PRR.pdb
     RDKit          3D

 30 30  0  0  1  0  0  0  0  0999 V2000
   26.6351  -21.3105  -15.0714 N   0  0  0  0  0  0  0  0  0  0  0  0
   28.0694  -21.4322  -15.3190 C   0  0  0  0  0  0  0  0  0  0  0  0
   28.5444  -20.0662  -14.8068 C   0  0  0  0  0  0  0  0  0  0  0  0
   27.7934  -19.9814  -13.4904 C   0  0  0  0  0  0  0  0  0  0  0  0
   26.6058  -20.9104  -13.6740 C   0  0  1  0  0  0  0  0  0  0  0  0
   25.3212  -20.1652  -13.4231 C   0  0  0  0  0  0  0  0  0  0  0  0
   25.0706  -19.6229  -12.3277 O   0  0  0  0  0  0  0  0  0  0  0  0
   25.1251  -16.4181  -18.8170 N   0  0  0  0  0  0  0  0  0  0  0  0
   23.7508  -16.7552  -18.6383 C   0  0  0  0  0  0  0  0  0  0  0  0
   23.1291  -17.1807  -19.7023 N   0  0  0  0  0  0  0  0  0  0  0  0
   23.0958  -16.6373  -17.3853 N   0  0  0  0  0  0  0  0  0  0  0  0
   23.8248  -16.1235  -16.2476 C   0  0  0  0  0  0  0  0  0  0  0  0
   23.9261  -17.1863  -15.1475 C   0  0  0  0  0  0  0  0  0  0  0  0
   22.9851  -18.3235  -15.4053 C   0  0  0  0  0  0  0  0  0  0  0  0
   23.1000  -19.3600  -14.3597 C   0  0  2  0  0  0  0  0  0  0  0  0
   24.3784  -20.0777  -14.4498 N   0  0  0  0  0  0  0  0  0  0  0  0
   21.9812  -20.3305  -14.4370 C   0  0  0  0  0  0  0  0  0  0  0  0
   21.9560  -21.2999  -15.2288 O   0  0  0  0  0  0  0  0  0  0  0  0
   22.1170  -17.4366  -19.7012 N   0  0  0  0  0  0  0  0  0  0  0  0
   17.2480  -24.3230   -8.0863 C   0  0  0  0  0  0  0  0  0  0  0  0
   18.6033  -24.4160   -8.4752 N   0  0  0  0  0  0  0  0  0  0  0  0
   19.4740  -24.7225   -7.5737 N   0  0  0  0  0  0  0  0  0  0  0  0
   18.9522  -24.1695   -9.8268 C   0  0  0  0  0  0  0  0  0  0  0  0
   18.8575  -22.8068  -10.3136 C   0  0  0  0  0  0  0  0  0  0  0  0
   19.2959  -22.7153  -11.7786 C   0  0  0  0  0  0  0  0  0  0  0  0
   19.2312  -21.3034  -12.2356 C   0  0  2  0  0  0  0  0  0  0  0  0
   19.7691  -21.1420  -13.6243 N   0  0  0  0  0  0  0  0  0  0  0  0
   20.8568  -20.1631  -13.5618 C   0  0  0  0  0  0  0  0  0  0  0  0
   18.7170  -20.6651  -14.5452 O   0  0  0  0  0  0  0  0  0  0  0  0
   17.7299  -21.3692  -14.8186 O   0  0  0  0  0  0  0  0  0  0  0  0
  1  2  1  0
  3  2  1  0
  4  5  1  0
  4  3  1  0
  5  1  1  0
  5  6  1  6
  6 16  1  0
  7  6  2  0
  8  9  1  0
  9 10  2  0
 11  9  1  0
 12 11  1  0
 13 12  1  0
 14 13  1  0
 15 14  1  6
 15 16  1  0
 17 15  1  0
 17 27  1  0
 18 17  2  0
 20 22  1  0
 20 19  1  0
 21 20  2  0
 22 23  1  0
 23 24  1  0
 25 24  1  0
 26 25  1  1
 26 27  1  0
 26 28  1  0
 28 29  2  0
 28 30  1  0
M  END
$$$$
