PRR.pdb
     RDKit          3D

 30 30  0  0  1  0  0  0  0  0999 V2000
   23.6261  -23.8984  -16.3851 N   0  0  0  0  0  0  0  0  0  0  0  0
   24.8142  -24.0985  -17.2107 C   0  0  0  0  0  0  0  0  0  0  0  0
   25.8516  -23.3409  -16.3718 C   0  0  0  0  0  0  0  0  0  0  0  0
   25.5361  -23.8721  -14.9853 C   0  0  0  0  0  0  0  0  0  0  0  0
   24.0925  -24.3353  -15.0792 C   0  0  1  0  0  0  0  0  0  0  0  0
   23.2593  -23.6514  -14.0273 C   0  0  0  0  0  0  0  0  0  0  0  0
   23.5880  -23.6388  -12.8237 O   0  0  0  0  0  0  0  0  0  0  0  0
   20.7140  -16.1269  -15.9542 N   0  0  0  0  0  0  0  0  0  0  0  0
   22.0436  -16.5591  -15.6726 C   0  0  0  0  0  0  0  0  0  0  0  0
   22.9906  -15.7200  -15.9873 N   0  0  0  0  0  0  0  0  0  0  0  0
   22.3251  -17.8206  -15.0872 N   0  0  0  0  0  0  0  0  0  0  0  0
   21.2338  -18.7052  -14.7460 C   0  0  0  0  0  0  0  0  0  0  0  0
   21.7680  -20.0396  -14.2131 C   0  0  0  0  0  0  0  0  0  0  0  0
   20.6695  -21.0506  -14.0865 C   0  0  0  0  0  0  0  0  0  0  0  0
   21.1670  -22.3097  -13.4967 C   0  0  2  0  0  0  0  0  0  0  0  0
   22.0794  -23.0098  -14.4105 N   0  0  0  0  0  0  0  0  0  0  0  0
   20.0488  -23.2112  -13.1273 C   0  0  0  0  0  0  0  0  0  0  0  0
   19.3416  -23.8191  -13.9625 O   0  0  0  0  0  0  0  0  0  0  0  0
   24.0030  -15.9728  -15.9565 N   0  0  0  0  0  0  0  0  0  0  0  0
   18.3747  -25.5625   -5.1518 C   0  0  0  0  0  0  0  0  0  0  0  0
   17.3204  -24.8247   -5.7357 N   0  0  0  0  0  0  0  0  0  0  0  0
   16.4455  -24.2914   -4.9516 N   0  0  0  0  0  0  0  0  0  0  0  0
   17.2629  -24.7013   -7.1466 C   0  0  0  0  0  0  0  0  0  0  0  0
   17.8457  -25.7630   -7.9442 C   0  0  0  0  0  0  0  0  0  0  0  0
   17.6714  -25.4846   -9.4405 C   0  0  0  0  0  0  0  0  0  0  0  0
   18.7377  -24.5623   -9.9080 C   0  0  2  0  0  0  0  0  0  0  0  0
   18.6485  -24.3087  -11.3817 N   0  0  0  0  0  0  0  0  0  0  0  0
   19.7475  -23.4086  -11.7386 C   0  0  0  0  0  0  0  0  0  0  0  0
   17.3557  -23.6859  -11.7323 O   0  0  0  0  0  0  0  0  0  0  0  0
   17.1185  -22.4954  -11.4654 O   0  0  0  0  0  0  0  0  0  0  0  0
  1  2  1  0
  3  2  1  0
  4  5  1  0
  4  3  1  0
  5  1  1  0
  5  6  1  1
  6 16  1  0
  7  6  2  0
  8  9  1  0
  9 10  2  0
 11  9  1  0
 12 11  1  0
 13 12  1  0
 14 13  1  0
 15 14  1  6
 15 16  1  0
 17 15  1  0
 17 27  1  0
 18 17  2  0
 20 22  1  0
 20 19  1  0
 21 20  2  0
 22 23  1  0
 23 24  1  0
 25 24  1  0
 26 25  1  6
 26 27  1  0
 26 28  1  0
 28 29  2  0
 28 30  1  0
M  END
$$$$
