PRR.pdb
     RDKit          3D

 30 30  0  0  1  0  0  0  0  0999 V2000
   21.3629  -30.8436  -11.5995 N   0  0  0  0  0  0  0  0  0  0  0  0
   21.8789  -31.8507  -10.6759 C   0  0  0  0  0  0  0  0  0  0  0  0
   23.0824  -31.0924  -10.1011 C   0  0  0  0  0  0  0  0  0  0  0  0
   22.4522  -29.7430   -9.8079 C   0  0  0  0  0  0  0  0  0  0  0  0
   21.2540  -29.6767  -10.7391 C   0  0  1  0  0  0  0  0  0  0  0  0
   21.3356  -28.4448  -11.6018 C   0  0  0  0  0  0  0  0  0  0  0  0
   21.0619  -27.3085  -11.1651 O   0  0  0  0  0  0  0  0  0  0  0  0
   26.4044  -25.3988  -16.1738 N   0  0  0  0  0  0  0  0  0  0  0  0
   26.3898  -26.8093  -15.9631 C   0  0  0  0  0  0  0  0  0  0  0  0
   27.4364  -27.3030  -15.3626 N   0  0  0  0  0  0  0  0  0  0  0  0
   25.3085  -27.6289  -16.3780 N   0  0  0  0  0  0  0  0  0  0  0  0
   24.1321  -27.0163  -16.9529 C   0  0  0  0  0  0  0  0  0  0  0  0
   23.1223  -26.6553  -15.8574 C   0  0  0  0  0  0  0  0  0  0  0  0
   22.8633  -27.8224  -14.9542 C   0  0  0  0  0  0  0  0  0  0  0  0
   21.9290  -27.4615  -13.8690 C   0  0  2  0  0  0  0  0  0  0  0  0
   21.7303  -28.5776  -12.9349 N   0  0  0  0  0  0  0  0  0  0  0  0
   20.6171  -27.0283  -14.4084 C   0  0  0  0  0  0  0  0  0  0  0  0
   19.7661  -27.8156  -14.8810 O   0  0  0  0  0  0  0  0  0  0  0  0
   27.5298  -28.3169  -15.1319 N   0  0  0  0  0  0  0  0  0  0  0  0
   14.7148  -22.2969  -10.7796 C   0  0  0  0  0  0  0  0  0  0  0  0
   15.5393  -23.4318  -10.6097 N   0  0  0  0  0  0  0  0  0  0  0  0
   15.6902  -23.8995   -9.4168 N   0  0  0  0  0  0  0  0  0  0  0  0
   16.1648  -24.0068  -11.7444 C   0  0  0  0  0  0  0  0  0  0  0  0
   16.3921  -23.1563  -12.8968 C   0  0  0  0  0  0  0  0  0  0  0  0
   16.9739  -23.9584  -14.0650 C   0  0  0  0  0  0  0  0  0  0  0  0
   18.3478  -24.4119  -13.7289 C   0  0  2  0  0  0  0  0  0  0  0  0
   18.9534  -25.2218  -14.8339 N   0  0  0  0  0  0  0  0  0  0  0  0
   20.2894  -25.6317  -14.3953 C   0  0  0  0  0  0  0  0  0  0  0  0
   19.0544  -24.4276  -16.0755 O   0  0  0  0  0  0  0  0  0  0  0  0
   20.1543  -24.1940  -16.6053 O   0  0  0  0  0  0  0  0  0  0  0  0
  1  2  1  0
  3  2  1  0
  4  5  1  0
  4  3  1  0
  5  1  1  0
  5  6  1  6
  6 16  1  0
  7  6  2  0
  8  9  1  0
  9 10  2  0
 11  9  1  0
 12 11  1  0
 13 12  1  0
 14 13  1  0
 15 14  1  6
 15 16  1  0
 17 15  1  0
 17 27  1  0
 18 17  2  0
 20 22  1  0
 20 19  1  0
 21 20  2  0
 22 23  1  0
 23 24  1  0
 25 24  1  0
 26 25  1  1
 26 27  1  0
 26 28  1  0
 28 29  2  0
 28 30  1  0
M  END
$$$$
