WWL.pdb
     RDKit          3D

 37 40  0  0  1  0  0  0  0  0999 V2000
    8.2964  -17.8983   19.7619 N   0  0  0  0  0  0  0  0  0  0  0  0
    9.0938  -18.3085   20.8988 C   0  0  1  0  0  0  0  0  0  0  0  0
   10.4887  -18.6421   20.3490 C   0  0  0  0  0  0  0  0  0  0  0  0
   11.2916  -19.3102   21.4115 C   0  0  0  0  0  0  0  0  0  0  0  0
   10.9039  -20.3869   22.1908 C   0  0  0  0  0  0  0  0  0  0  0  0
   11.9056  -20.7063   23.0453 N   0  0  0  0  0  0  0  0  0  0  0  0
   12.9442  -19.8784   22.8594 C   0  0  0  0  0  0  0  0  0  0  0  0
   14.1787  -19.7881   23.4651 C   0  0  0  0  0  0  0  0  0  0  0  0
   15.0262  -18.7978   23.0222 C   0  0  0  0  0  0  0  0  0  0  0  0
   14.6687  -17.9183   22.0090 C   0  0  0  0  0  0  0  0  0  0  0  0
   13.4316  -18.0369   21.4281 C   0  0  0  0  0  0  0  0  0  0  0  0
   12.5644  -19.0082   21.8424 C   0  0  0  0  0  0  0  0  0  0  0  0
    9.1656  -17.1935   21.8737 C   0  0  0  0  0  0  0  0  0  0  0  0
    9.6133  -16.0663   21.4772 O   0  0  0  0  0  0  0  0  0  0  0  0
    8.7363  -17.4135   23.2084 N   0  0  0  0  0  0  0  0  0  0  0  0
    8.7481  -16.3624   24.1953 C   0  0  1  0  0  0  0  0  0  0  0  0
    7.6495  -16.6047   25.1808 C   0  0  0  0  0  0  0  0  0  0  0  0
    6.7329  -15.4786   25.3496 C   0  0  0  0  0  0  0  0  0  0  0  0
    5.3647  -15.5907   25.4106 C   0  0  0  0  0  0  0  0  0  0  0  0
    4.8515  -14.3759   25.5687 N   0  0  0  0  0  0  0  0  0  0  0  0
    5.8357  -13.4757   25.6130 C   0  0  0  0  0  0  0  0  0  0  0  0
    5.8143  -12.0844   25.7642 C   0  0  0  0  0  0  0  0  0  0  0  0
    6.9942  -11.3778   25.7774 C   0  0  0  0  0  0  0  0  0  0  0  0
    8.1835  -12.0503   25.6414 C   0  0  0  0  0  0  0  0  0  0  0  0
    8.2396  -13.4265   25.4901 C   0  0  0  0  0  0  0  0  0  0  0  0
    7.0444  -14.1471   25.4762 C   0  0  0  0  0  0  0  0  0  0  0  0
   10.0987  -16.2431   24.7821 C   0  0  0  0  0  0  0  0  0  0  0  0
   10.9553  -15.5841   24.1283 O   0  0  0  0  0  0  0  0  0  0  0  0
    9.7754  -14.5734   29.3998 C   0  0  0  0  0  0  0  0  0  0  0  0
   10.3996  -14.8480   28.0819 C   0  0  1  0  0  0  0  0  0  0  0  0
   10.8038  -13.5140   27.4293 C   0  0  0  0  0  0  0  0  0  0  0  0
   11.4555  -15.8572   27.9799 C   0  0  0  0  0  0  0  0  0  0  0  0
   11.7433  -16.5241   26.7041 C   0  0  2  0  0  0  0  0  0  0  0  0
   10.4763  -16.8049   25.9902 N   0  0  0  0  0  0  0  0  0  0  0  0
   12.4981  -17.7580   26.6552 C   0  0  0  0  0  0  0  0  0  0  0  0
   11.9566  -18.9541   26.2556 O   0  0  0  0  0  0  0  0  0  0  0  0
   13.7104  -17.7941   26.9898 O   0  0  0  0  0  0  0  0  0  0  0  0
  2  1  1  6
  3  2  1  0
  3  4  1  0
  4 12  1  0
  4  5  2  0
  5  6  1  0
  7  6  1  0
  7  8  2  0
  9  8  1  0
 10  9  2  0
 11 10  1  0
 11 12  2  0
 12  7  1  0
 13  2  1  0
 14 13  2  0
 15 13  1  0
 16 17  1  1
 16 15  1  0
 17 18  1  0
 18 19  2  0
 19 20  1  0
 21 20  1  0
 22 21  2  0
 23 22  1  0
 24 25  1  0
 24 23  2  0
 25 26  2  0
 26 18  1  0
 26 21  1  0
 27 16  1  0
 28 27  2  0
 30 29  1  1
 30 31  1  0
 33 32  1  1
 32 30  1  0
 33 34  1  0
 34 27  1  0
 35 36  1  0
 35 33  1  0
 37 35  2  0
M  END
$$$$
