WWL.pdb
     RDKit          3D

 37 40  0  0  1  0  0  0  0  0999 V2000
    9.2705  -19.8636   21.8693 N   0  0  0  0  0  0  0  0  0  0  0  0
   10.4023  -19.2041   21.2524 C   0  0  1  0  0  0  0  0  0  0  0  0
   10.3348  -19.5420   19.7556 C   0  0  0  0  0  0  0  0  0  0  0  0
   10.6249  -20.9906   19.5625 C   0  0  0  0  0  0  0  0  0  0  0  0
    9.7055  -22.0257   19.5459 C   0  0  0  0  0  0  0  0  0  0  0  0
   10.3538  -23.1987   19.3476 N   0  0  0  0  0  0  0  0  0  0  0  0
   11.6714  -22.9771   19.2322 C   0  0  0  0  0  0  0  0  0  0  0  0
   12.7399  -23.8224   19.0256 C   0  0  0  0  0  0  0  0  0  0  0  0
   13.9904  -23.2509   18.9558 C   0  0  0  0  0  0  0  0  0  0  0  0
   14.1853  -21.8824   19.0859 C   0  0  0  0  0  0  0  0  0  0  0  0
   13.0989  -21.0701   19.2909 C   0  0  0  0  0  0  0  0  0  0  0  0
   11.8428  -21.6027   19.3656 C   0  0  0  0  0  0  0  0  0  0  0  0
   10.2926  -17.7410   21.4668 C   0  0  0  0  0  0  0  0  0  0  0  0
   11.0078  -16.9655   20.7490 O   0  0  0  0  0  0  0  0  0  0  0  0
    9.4008  -17.2523   22.4567 N   0  0  0  0  0  0  0  0  0  0  0  0
    9.3041  -15.8477   22.7681 C   0  0  1  0  0  0  0  0  0  0  0  0
    7.8843  -15.4072   22.6041 C   0  0  0  0  0  0  0  0  0  0  0  0
    7.1871  -15.1423   23.8613 C   0  0  0  0  0  0  0  0  0  0  0  0
    6.6948  -16.1144   24.6985 C   0  0  0  0  0  0  0  0  0  0  0  0
    6.1268  -15.5202   25.7419 N   0  0  0  0  0  0  0  0  0  0  0  0
    6.2310  -14.1959   25.6153 C   0  0  0  0  0  0  0  0  0  0  0  0
    5.7987  -13.1485   26.4369 C   0  0  0  0  0  0  0  0  0  0  0  0
    6.0373  -11.8449   26.0689 C   0  0  0  0  0  0  0  0  0  0  0  0
    6.7000  -11.5872   24.8944 C   0  0  0  0  0  0  0  0  0  0  0  0
    7.1412  -12.6006   24.0586 C   0  0  0  0  0  0  0  0  0  0  0  0
    6.9008  -13.9247   24.4285 C   0  0  0  0  0  0  0  0  0  0  0  0
    9.8883  -15.5900   24.1003 C   0  0  0  0  0  0  0  0  0  0  0  0
   10.3446  -14.4321   24.3158 O   0  0  0  0  0  0  0  0  0  0  0  0
   11.4711  -13.5322   27.7399 C   0  0  0  0  0  0  0  0  0  0  0  0
   10.2913  -14.3471   28.1221 C   0  0  1  0  0  0  0  0  0  0  0  0
    9.2442  -13.4351   28.7859 C   0  0  0  0  0  0  0  0  0  0  0  0
    9.6933  -15.2551   27.1413 C   0  0  0  0  0  0  0  0  0  0  0  0
   10.5004  -16.2826   26.4718 C   0  0  2  0  0  0  0  0  0  0  0  0
    9.9655  -16.5313   25.1132 N   0  0  0  0  0  0  0  0  0  0  0  0
   10.6887  -17.5912   27.0604 C   0  0  0  0  0  0  0  0  0  0  0  0
   11.7436  -17.9002   27.8823 O   0  0  0  0  0  0  0  0  0  0  0  0
    9.8804  -18.5290   26.8365 O   0  0  0  0  0  0  0  0  0  0  0  0
  2  1  1  1
  3  2  1  0
  3  4  1  0
  4 12  1  0
  4  5  2  0
  5  6  1  0
  7  6  1  0
  7  8  2  0
  9  8  1  0
 10  9  2  0
 11 10  1  0
 11 12  2  0
 12  7  1  0
 13  2  1  0
 14 13  2  0
 15 13  1  0
 16 17  1  1
 16 15  1  0
 17 18  1  0
 18 19  2  0
 19 20  1  0
 21 20  1  0
 22 21  2  0
 23 22  1  0
 24 25  1  0
 24 23  2  0
 25 26  2  0
 26 18  1  0
 26 21  1  0
 27 16  1  0
 28 27  2  0
 30 29  1  6
 30 31  1  0
 33 32  1  1
 32 30  1  0
 33 34  1  0
 34 27  1  0
 35 36  1  0
 35 33  1  0
 37 35  2  0
M  END
$$$$
