WWL.pdb
     RDKit          3D

 37 40  0  0  1  0  0  0  0  0999 V2000
    8.3752  -19.2397   20.8908 N   0  0  0  0  0  0  0  0  0  0  0  0
    8.6199  -18.8397   22.2607 C   0  0  1  0  0  0  0  0  0  0  0  0
    8.8369  -20.1358   23.0560 C   0  0  0  0  0  0  0  0  0  0  0  0
    7.8562  -20.1982   24.1760 C   0  0  0  0  0  0  0  0  0  0  0  0
    6.5344  -20.6029   24.0997 C   0  0  0  0  0  0  0  0  0  0  0  0
    5.9677  -20.5189   25.3275 N   0  0  0  0  0  0  0  0  0  0  0  0
    6.8683  -20.0724   26.2152 C   0  0  0  0  0  0  0  0  0  0  0  0
    6.7911  -19.8188   27.5675 C   0  0  0  0  0  0  0  0  0  0  0  0
    7.9303  -19.3569   28.1873 C   0  0  0  0  0  0  0  0  0  0  0  0
    9.1157  -19.1497   27.4947 C   0  0  0  0  0  0  0  0  0  0  0  0
    9.1569  -19.4125   26.1489 C   0  0  0  0  0  0  0  0  0  0  0  0
    8.0452  -19.8720   25.5007 C   0  0  0  0  0  0  0  0  0  0  0  0
    9.8291  -17.9828   22.3116 C   0  0  0  0  0  0  0  0  0  0  0  0
   10.9741  -18.5411   22.2368 O   0  0  0  0  0  0  0  0  0  0  0  0
    9.6759  -16.5779   22.4405 N   0  0  0  0  0  0  0  0  0  0  0  0
    9.4548  -15.9499   23.7195 C   0  0  1  0  0  0  0  0  0  0  0  0
    8.1120  -16.3558   24.2379 C   0  0  0  0  0  0  0  0  0  0  0  0
    7.1042  -15.2979   24.1929 C   0  0  0  0  0  0  0  0  0  0  0  0
    6.0856  -15.2314   23.2730 C   0  0  0  0  0  0  0  0  0  0  0  0
    5.3623  -14.1466   23.5267 N   0  0  0  0  0  0  0  0  0  0  0  0
    5.8725  -13.5034   24.5787 C   0  0  0  0  0  0  0  0  0  0  0  0
    5.4782  -12.3279   25.2280 C   0  0  0  0  0  0  0  0  0  0  0  0
    6.1909  -11.8709   26.3119 C   0  0  0  0  0  0  0  0  0  0  0  0
    7.2855  -12.5779   26.7447 C   0  0  0  0  0  0  0  0  0  0  0  0
    7.7023  -13.7449   26.1246 C   0  0  0  0  0  0  0  0  0  0  0  0
    6.9816  -14.2117   25.0244 C   0  0  0  0  0  0  0  0  0  0  0  0
   10.5874  -16.2421   24.6219 C   0  0  0  0  0  0  0  0  0  0  0  0
   11.7499  -16.0318   24.1751 O   0  0  0  0  0  0  0  0  0  0  0  0
    9.4096  -15.1291   29.7343 C   0  0  0  0  0  0  0  0  0  0  0  0
   10.1228  -15.2992   28.4441 C   0  0  1  0  0  0  0  0  0  0  0  0
   10.8260  -13.9793   28.0806 C   0  0  0  0  0  0  0  0  0  0  0  0
   10.9905  -16.4620   28.2472 C   0  0  0  0  0  0  0  0  0  0  0  0
   11.5332  -16.7846   26.9218 C   0  0  2  0  0  0  0  0  0  0  0  0
   10.4514  -16.7280   25.9116 N   0  0  0  0  0  0  0  0  0  0  0  0
   12.2275  -18.0307   26.6775 C   0  0  0  0  0  0  0  0  0  0  0  0
   11.8027  -18.9598   25.7610 O   0  0  0  0  0  0  0  0  0  0  0  0
   13.2719  -18.3300   27.3119 O   0  0  0  0  0  0  0  0  0  0  0  0
  2  1  1  6
  3  2  1  0
  3  4  1  0
  4 12  1  0
  4  5  2  0
  5  6  1  0
  7  6  1  0
  7  8  2  0
  9  8  1  0
 10  9  2  0
 11 10  1  0
 11 12  2  0
 12  7  1  0
 13  2  1  0
 14 13  2  0
 15 13  1  0
 16 17  1  1
 16 15  1  0
 17 18  1  0
 18 19  2  0
 19 20  1  0
 21 20  1  0
 22 21  2  0
 23 22  1  0
 24 25  1  0
 24 23  2  0
 25 26  2  0
 26 18  1  0
 26 21  1  0
 27 16  1  0
 28 27  2  0
 30 29  1  1
 30 31  1  0
 33 32  1  1
 32 30  1  0
 33 34  1  0
 34 27  1  0
 35 36  1  0
 35 33  1  0
 37 35  2  0
M  END
$$$$
