WWL.pdb
     RDKit          3D

 37 40  0  0  1  0  0  0  0  0999 V2000
    8.9169  -17.0076   21.6736 N   0  0  0  0  0  0  0  0  0  0  0  0
    9.0319  -15.6309   22.1074 C   0  0  1  0  0  0  0  0  0  0  0  0
    7.6365  -15.0098   21.9447 C   0  0  0  0  0  0  0  0  0  0  0  0
    7.3079  -14.9057   20.4952 C   0  0  0  0  0  0  0  0  0  0  0  0
    6.5232  -15.7761   19.7579 C   0  0  0  0  0  0  0  0  0  0  0  0
    6.4609  -15.3468   18.4744 N   0  0  0  0  0  0  0  0  0  0  0  0
    7.1774  -14.2216   18.3353 C   0  0  0  0  0  0  0  0  0  0  0  0
    7.4268  -13.4086   17.2509 C   0  0  0  0  0  0  0  0  0  0  0  0
    8.2235  -12.3057   17.4612 C   0  0  0  0  0  0  0  0  0  0  0  0
    8.7614  -12.0098   18.7065 C   0  0  0  0  0  0  0  0  0  0  0  0
    8.4926  -12.8410   19.7642 C   0  0  0  0  0  0  0  0  0  0  0  0
    7.7058  -13.9449   19.5923 C   0  0  0  0  0  0  0  0  0  0  0  0
    9.4595  -15.5993   23.5268 C   0  0  0  0  0  0  0  0  0  0  0  0
    9.9215  -14.5075   23.9990 O   0  0  0  0  0  0  0  0  0  0  0  0
    9.3416  -16.7763   24.3108 N   0  0  0  0  0  0  0  0  0  0  0  0
    9.7881  -16.8269   25.6809 C   0  0  1  0  0  0  0  0  0  0  0  0
    8.5957  -16.8824   26.5819 C   0  0  0  0  0  0  0  0  0  0  0  0
    7.6407  -15.7933   26.3847 C   0  0  0  0  0  0  0  0  0  0  0  0
    6.3514  -15.9594   25.9394 C   0  0  0  0  0  0  0  0  0  0  0  0
    5.7720  -14.7657   25.8794 N   0  0  0  0  0  0  0  0  0  0  0  0
    6.6369  -13.8274   26.2696 C   0  0  0  0  0  0  0  0  0  0  0  0
    6.5104  -12.4379   26.3816 C   0  0  0  0  0  0  0  0  0  0  0  0
    7.5758  -11.6853   26.8177 C   0  0  0  0  0  0  0  0  0  0  0  0
    8.7553  -12.3103   27.1391 C   0  0  0  0  0  0  0  0  0  0  0  0
    8.9135  -13.6833   27.0395 C   0  0  0  0  0  0  0  0  0  0  0  0
    7.8347  -14.4505   26.5973 C   0  0  0  0  0  0  0  0  0  0  0  0
   10.7523  -17.9330   25.8517 C   0  0  0  0  0  0  0  0  0  0  0  0
   10.6291  -18.9290   25.0848 O   0  0  0  0  0  0  0  0  0  0  0  0
   15.4744  -20.6083   26.1151 C   0  0  0  0  0  0  0  0  0  0  0  0
   15.1643  -19.6049   27.1634 C   0  0  1  0  0  0  0  0  0  0  0  0
   16.4662  -18.9019   27.5872 C   0  0  0  0  0  0  0  0  0  0  0  0
   14.0663  -18.6590   26.9545 C   0  0  0  0  0  0  0  0  0  0  0  0
   12.6669  -19.0882   27.0675 C   0  0  2  0  0  0  0  0  0  0  0  0
   11.7692  -17.9427   26.7917 N   0  0  0  0  0  0  0  0  0  0  0  0
   12.1626  -19.6930   28.2817 C   0  0  0  0  0  0  0  0  0  0  0  0
   11.5289  -18.9802   29.2686 O   0  0  0  0  0  0  0  0  0  0  0  0
   12.2896  -20.9261   28.4970 O   0  0  0  0  0  0  0  0  0  0  0  0
  2  1  1  1
  3  2  1  0
  3  4  1  0
  4 12  1  0
  4  5  2  0
  5  6  1  0
  7  6  1  0
  7  8  2  0
  9  8  1  0
 10  9  2  0
 11 10  1  0
 11 12  2  0
 12  7  1  0
 13  2  1  0
 14 13  2  0
 15 13  1  0
 16 17  1  1
 16 15  1  0
 17 18  1  0
 18 19  2  0
 19 20  1  0
 21 20  1  0
 22 21  2  0
 23 22  1  0
 24 25  1  0
 24 23  2  0
 25 26  2  0
 26 18  1  0
 26 21  1  0
 27 16  1  0
 28 27  2  0
 30 29  1  6
 30 31  1  0
 33 32  1  1
 32 30  1  0
 33 34  1  0
 34 27  1  0
 35 36  1  0
 35 33  1  0
 37 35  2  0
M  END
$$$$
