WWL.pdb
     RDKit          3D

 37 40  0  0  1  0  0  0  0  0999 V2000
    6.5500  -18.6205   24.5253 N   0  0  0  0  0  0  0  0  0  0  0  0
    7.1990  -17.3338   24.3855 C   0  0  1  0  0  0  0  0  0  0  0  0
    7.0862  -16.6433   25.7529 C   0  0  0  0  0  0  0  0  0  0  0  0
    6.1235  -15.5102   25.6563 C   0  0  0  0  0  0  0  0  0  0  0  0
    4.7868  -15.5244   26.0167 C   0  0  0  0  0  0  0  0  0  0  0  0
    4.2448  -14.3057   25.7787 N   0  0  0  0  0  0  0  0  0  0  0  0
    5.1761  -13.4840   25.2728 C   0  0  0  0  0  0  0  0  0  0  0  0
    5.1315  -12.1665   24.8711 C   0  0  0  0  0  0  0  0  0  0  0  0
    6.2972  -11.6160   24.3881 C   0  0  0  0  0  0  0  0  0  0  0  0
    7.4771  -12.3427   24.3021 C   0  0  0  0  0  0  0  0  0  0  0  0
    7.4856  -13.6522   24.7108 C   0  0  0  0  0  0  0  0  0  0  0  0
    6.3470  -14.2317   25.1957 C   0  0  0  0  0  0  0  0  0  0  0  0
    8.6202  -17.5402   24.0161 C   0  0  0  0  0  0  0  0  0  0  0  0
    9.1368  -18.6916   24.2047 O   0  0  0  0  0  0  0  0  0  0  0  0
    9.3561  -16.4579   23.4674 N   0  0  0  0  0  0  0  0  0  0  0  0
   10.7201  -16.6107   23.0255 C   0  0  1  0  0  0  0  0  0  0  0  0
   11.0643  -15.4845   22.1036 C   0  0  0  0  0  0  0  0  0  0  0  0
   10.0589  -15.2186   21.0763 C   0  0  0  0  0  0  0  0  0  0  0  0
    9.9194  -15.9434   19.9172 C   0  0  0  0  0  0  0  0  0  0  0  0
    8.9119  -15.4297   19.2207 N   0  0  0  0  0  0  0  0  0  0  0  0
    8.3894  -14.3961   19.8837 C   0  0  0  0  0  0  0  0  0  0  0  0
    7.3284  -13.5369   19.5755 C   0  0  0  0  0  0  0  0  0  0  0  0
    6.9850  -12.5308   20.4480 C   0  0  0  0  0  0  0  0  0  0  0  0
    7.6915  -12.3819   21.6159 C   0  0  0  0  0  0  0  0  0  0  0  0
    8.7468  -13.2151   21.9510 C   0  0  0  0  0  0  0  0  0  0  0  0
    9.0982  -14.2373   21.0681 C   0  0  0  0  0  0  0  0  0  0  0  0
   11.6110  -16.7552   24.1951 C   0  0  0  0  0  0  0  0  0  0  0  0
   12.8523  -16.8176   23.9703 O   0  0  0  0  0  0  0  0  0  0  0  0
   10.4181  -14.7014   29.2505 C   0  0  0  0  0  0  0  0  0  0  0  0
   11.1297  -15.1904   28.0436 C   0  0  1  0  0  0  0  0  0  0  0  0
   12.3862  -14.3308   27.8180 C   0  0  0  0  0  0  0  0  0  0  0  0
   11.4037  -16.6214   27.8979 C   0  0  0  0  0  0  0  0  0  0  0  0
   12.0195  -17.1527   26.6757 C   0  0  2  0  0  0  0  0  0  0  0  0
   11.1710  -16.8268   25.5063 N   0  0  0  0  0  0  0  0  0  0  0  0
   12.3375  -18.5585   26.5449 C   0  0  0  0  0  0  0  0  0  0  0  0
   11.5799  -19.4343   25.8083 O   0  0  0  0  0  0  0  0  0  0  0  0
   13.3412  -19.0557   27.1177 O   0  0  0  0  0  0  0  0  0  0  0  0
  2  1  1  1
  3  2  1  0
  3  4  1  0
  4 12  1  0
  4  5  2  0
  5  6  1  0
  7  6  1  0
  7  8  2  0
  9  8  1  0
 10  9  2  0
 11 10  1  0
 11 12  2  0
 12  7  1  0
 13  2  1  0
 14 13  2  0
 15 13  1  0
 16 17  1  1
 16 15  1  0
 17 18  1  0
 18 19  2  0
 19 20  1  0
 21 20  1  0
 22 21  2  0
 23 22  1  0
 24 25  1  0
 24 23  2  0
 25 26  2  0
 26 18  1  0
 26 21  1  0
 27 16  1  0
 28 27  2  0
 30 29  1  1
 30 31  1  0
 33 32  1  1
 32 30  1  0
 33 34  1  0
 34 27  1  0
 35 36  1  0
 35 33  1  0
 37 35  2  0
M  END
$$$$
