WWL.pdb
     RDKit          3D

 37 40  0  0  1  0  0  0  0  0999 V2000
    9.8533  -19.7175   21.2955 N   0  0  0  0  0  0  0  0  0  0  0  0
   10.7781  -18.6733   20.9069 C   0  0  1  0  0  0  0  0  0  0  0  0
   10.4326  -18.3098   19.4551 C   0  0  0  0  0  0  0  0  0  0  0  0
   10.4839  -19.5377   18.6127 C   0  0  0  0  0  0  0  0  0  0  0  0
    9.4434  -20.0872   17.8831 C   0  0  0  0  0  0  0  0  0  0  0  0
    9.8794  -21.2029   17.2500 N   0  0  0  0  0  0  0  0  0  0  0  0
   11.1731  -21.4121   17.5348 C   0  0  0  0  0  0  0  0  0  0  0  0
   12.0618  -22.3916   17.1477 C   0  0  0  0  0  0  0  0  0  0  0  0
   13.3461  -22.3047   17.6356 C   0  0  0  0  0  0  0  0  0  0  0  0
   13.7466  -21.2804   18.4831 C   0  0  0  0  0  0  0  0  0  0  0  0
   12.8356  -20.3219   18.8484 C   0  0  0  0  0  0  0  0  0  0  0  0
   11.5519  -20.3764   18.3832 C   0  0  0  0  0  0  0  0  0  0  0  0
   10.5977  -17.5029   21.7994 C   0  0  0  0  0  0  0  0  0  0  0  0
   11.1340  -16.3944   21.4651 O   0  0  0  0  0  0  0  0  0  0  0  0
    9.8386  -17.6513   22.9892 N   0  0  0  0  0  0  0  0  0  0  0  0
    9.6357  -16.5561   23.9048 C   0  0  1  0  0  0  0  0  0  0  0  0
    8.1703  -16.3938   24.1558 C   0  0  0  0  0  0  0  0  0  0  0  0
    7.7032  -15.0090   24.1207 C   0  0  0  0  0  0  0  0  0  0  0  0
    7.9391  -14.1336   23.0881 C   0  0  0  0  0  0  0  0  0  0  0  0
    7.3723  -12.9703   23.3874 N   0  0  0  0  0  0  0  0  0  0  0  0
    6.7753  -13.0555   24.5778 C   0  0  0  0  0  0  0  0  0  0  0  0
    6.0525  -12.1164   25.3226 C   0  0  0  0  0  0  0  0  0  0  0  0
    5.5310  -12.4661   26.5462 C   0  0  0  0  0  0  0  0  0  0  0  0
    5.7274  -13.7385   27.0233 C   0  0  0  0  0  0  0  0  0  0  0  0
    6.4378  -14.6918   26.3114 C   0  0  0  0  0  0  0  0  0  0  0  0
    6.9687  -14.3407   25.0693 C   0  0  0  0  0  0  0  0  0  0  0  0
   10.4583  -16.7579   25.1153 C   0  0  0  0  0  0  0  0  0  0  0  0
   11.5547  -17.3685   24.9722 O   0  0  0  0  0  0  0  0  0  0  0  0
    9.7397  -13.3449   29.3489 C   0  0  0  0  0  0  0  0  0  0  0  0
   10.2718  -14.2746   28.3219 C   0  0  1  0  0  0  0  0  0  0  0  0
   11.4968  -13.6313   27.6478 C   0  0  0  0  0  0  0  0  0  0  0  0
   10.5037  -15.6779   28.6698 C   0  0  0  0  0  0  0  0  0  0  0  0
   10.8102  -16.6727   27.6346 C   0  0  2  0  0  0  0  0  0  0  0  0
   10.1021  -16.3240   26.3812 N   0  0  0  0  0  0  0  0  0  0  0  0
   10.5530  -18.0810   27.8468 C   0  0  0  0  0  0  0  0  0  0  0  0
    9.4992  -18.7468   27.2723 O   0  0  0  0  0  0  0  0  0  0  0  0
   11.2955  -18.7745   28.5888 O   0  0  0  0  0  0  0  0  0  0  0  0
  2  1  1  1
  3  2  1  0
  3  4  1  0
  4 12  1  0
  4  5  2  0
  5  6  1  0
  7  6  1  0
  7  8  2  0
  9  8  1  0
 10  9  2  0
 11 10  1  0
 11 12  2  0
 12  7  1  0
 13  2  1  0
 14 13  2  0
 15 13  1  0
 16 17  1  1
 16 15  1  0
 17 18  1  0
 18 19  2  0
 19 20  1  0
 21 20  1  0
 22 21  2  0
 23 22  1  0
 24 25  1  0
 24 23  2  0
 25 26  2  0
 26 18  1  0
 26 21  1  0
 27 16  1  0
 28 27  2  0
 30 29  1  1
 30 31  1  0
 33 32  1  1
 32 30  1  0
 33 34  1  0
 34 27  1  0
 35 36  1  0
 35 33  1  0
 37 35  2  0
M  END
$$$$
