WWL.pdb
     RDKit          3D

 37 40  0  0  1  0  0  0  0  0999 V2000
   10.7126  -18.2601   19.1282 N   0  0  0  0  0  0  0  0  0  0  0  0
   10.6283  -18.5956   20.5342 C   0  0  1  0  0  0  0  0  0  0  0  0
   12.0138  -19.1239   20.9351 C   0  0  0  0  0  0  0  0  0  0  0  0
   11.9098  -19.8481   22.2330 C   0  0  0  0  0  0  0  0  0  0  0  0
   11.0849  -20.9226   22.5197 C   0  0  0  0  0  0  0  0  0  0  0  0
   11.2742  -21.3030   23.8062 N   0  0  0  0  0  0  0  0  0  0  0  0
   12.1961  -20.5177   24.3825 C   0  0  0  0  0  0  0  0  0  0  0  0
   12.7322  -20.4939   25.6517 C   0  0  0  0  0  0  0  0  0  0  0  0
   13.6817  -19.5328   25.9161 C   0  0  0  0  0  0  0  0  0  0  0  0
   14.0936  -18.6179   24.9563 C   0  0  0  0  0  0  0  0  0  0  0  0
   13.5387  -18.6703   23.7028 C   0  0  0  0  0  0  0  0  0  0  0  0
   12.5935  -19.6109   23.4048 C   0  0  0  0  0  0  0  0  0  0  0  0
   10.2856  -17.3780   21.3080 C   0  0  0  0  0  0  0  0  0  0  0  0
   10.8749  -16.2848   21.0148 O   0  0  0  0  0  0  0  0  0  0  0  0
    9.3189  -17.4661   22.3433 N   0  0  0  0  0  0  0  0  0  0  0  0
    8.9325  -16.3173   23.1243 C   0  0  1  0  0  0  0  0  0  0  0  0
    7.5234  -16.4960   23.5925 C   0  0  0  0  0  0  0  0  0  0  0  0
    7.0804  -15.4973   24.5637 C   0  0  0  0  0  0  0  0  0  0  0  0
    6.5073  -15.7921   25.7774 C   0  0  0  0  0  0  0  0  0  0  0  0
    6.2317  -14.6509   26.3986 N   0  0  0  0  0  0  0  0  0  0  0  0
    6.6046  -13.6227   25.6340 C   0  0  0  0  0  0  0  0  0  0  0  0
    6.5288  -12.2400   25.8372 C   0  0  0  0  0  0  0  0  0  0  0  0
    6.9938  -11.3784   24.8713 C   0  0  0  0  0  0  0  0  0  0  0  0
    7.5290  -11.8889   23.7146 C   0  0  0  0  0  0  0  0  0  0  0  0
    7.6188  -13.2520   23.4822 C   0  0  0  0  0  0  0  0  0  0  0  0
    7.1480  -14.1296   24.4600 C   0  0  0  0  0  0  0  0  0  0  0  0
    9.9224  -16.0858   24.1961 C   0  0  0  0  0  0  0  0  0  0  0  0
   10.6875  -15.0889   24.0691 O   0  0  0  0  0  0  0  0  0  0  0  0
   10.1634  -15.1151   29.0548 C   0  0  0  0  0  0  0  0  0  0  0  0
   10.2230  -14.7066   27.6294 C   0  0  1  0  0  0  0  0  0  0  0  0
   10.2432  -13.1699   27.5473 C   0  0  0  0  0  0  0  0  0  0  0  0
   11.2130  -15.3220   26.7433 C   0  0  0  0  0  0  0  0  0  0  0  0
   11.1057  -16.7336   26.3545 C   0  0  2  0  0  0  0  0  0  0  0  0
   10.0602  -16.8879   25.3167 N   0  0  0  0  0  0  0  0  0  0  0  0
   10.8351  -17.7639   27.3341 C   0  0  0  0  0  0  0  0  0  0  0  0
    9.6818  -18.5078   27.3425 O   0  0  0  0  0  0  0  0  0  0  0  0
   11.6593  -18.0274   28.2475 O   0  0  0  0  0  0  0  0  0  0  0  0
  2  1  1  6
  3  2  1  0
  3  4  1  0
  4 12  1  0
  4  5  2  0
  5  6  1  0
  7  6  1  0
  7  8  2  0
  9  8  1  0
 10  9  2  0
 11 10  1  0
 11 12  2  0
 12  7  1  0
 13  2  1  0
 14 13  2  0
 15 13  1  0
 16 17  1  1
 16 15  1  0
 17 18  1  0
 18 19  2  0
 19 20  1  0
 21 20  1  0
 22 21  2  0
 23 22  1  0
 24 25  1  0
 24 23  2  0
 25 26  2  0
 26 18  1  0
 26 21  1  0
 27 16  1  0
 28 27  2  0
 30 29  1  1
 30 31  1  0
 33 32  1  1
 32 30  1  0
 33 34  1  0
 34 27  1  0
 35 36  1  0
 35 33  1  0
 37 35  2  0
M  END
$$$$
