WWL.pdb
     RDKit          3D

 37 40  0  0  1  0  0  0  0  0999 V2000
   10.4099  -18.5918   20.6724 N   0  0  0  0  0  0  0  0  0  0  0  0
    9.7070  -17.4997   21.3125 C   0  0  1  0  0  0  0  0  0  0  0  0
    8.2562  -17.9696   21.4964 C   0  0  0  0  0  0  0  0  0  0  0  0
    7.3478  -16.7889   21.4738 C   0  0  0  0  0  0  0  0  0  0  0  0
    5.9759  -16.7940   21.6608 C   0  0  0  0  0  0  0  0  0  0  0  0
    5.5053  -15.5271   21.5655 N   0  0  0  0  0  0  0  0  0  0  0  0
    6.5178  -14.6821   21.3218 C   0  0  0  0  0  0  0  0  0  0  0  0
    6.5642  -13.3164   21.1438 C   0  0  0  0  0  0  0  0  0  0  0  0
    7.7981  -12.7543   20.9057 C   0  0  0  0  0  0  0  0  0  0  0  0
    8.9573  -13.5159   20.8442 C   0  0  0  0  0  0  0  0  0  0  0  0
    8.8745  -14.8732   21.0260 C   0  0  0  0  0  0  0  0  0  0  0  0
    7.6663  -15.4654   21.2644 C   0  0  0  0  0  0  0  0  0  0  0  0
   10.3374  -17.2138   22.6238 C   0  0  0  0  0  0  0  0  0  0  0  0
   11.1803  -18.0512   23.0893 O   0  0  0  0  0  0  0  0  0  0  0  0
    9.9863  -16.0253   23.3153 N   0  0  0  0  0  0  0  0  0  0  0  0
   10.5668  -15.6864   24.5909 C   0  0  1  0  0  0  0  0  0  0  0  0
   10.1341  -14.3070   24.9740 C   0  0  0  0  0  0  0  0  0  0  0  0
    8.7451  -14.2138   25.4198 C   0  0  0  0  0  0  0  0  0  0  0  0
    7.9847  -15.2833   25.8275 C   0  0  0  0  0  0  0  0  0  0  0  0
    6.7794  -14.8369   26.1623 N   0  0  0  0  0  0  0  0  0  0  0  0
    6.7264  -13.5150   25.9877 C   0  0  0  0  0  0  0  0  0  0  0  0
    5.6947  -12.5922   26.1960 C   0  0  0  0  0  0  0  0  0  0  0  0
    5.9040  -11.2586   25.9328 C   0  0  0  0  0  0  0  0  0  0  0  0
    7.1285  -10.8481   25.4669 C   0  0  0  0  0  0  0  0  0  0  0  0
    8.1705  -11.7354   25.2501 C   0  0  0  0  0  0  0  0  0  0  0  0
    7.9621  -13.0896   25.5159 C   0  0  0  0  0  0  0  0  0  0  0  0
   10.2498  -16.7378   25.5792 C   0  0  0  0  0  0  0  0  0  0  0  0
   10.7598  -16.6212   26.7289 O   0  0  0  0  0  0  0  0  0  0  0  0
    6.7966  -20.4340   28.0482 C   0  0  0  0  0  0  0  0  0  0  0  0
    7.2484  -20.6337   26.6489 C   0  0  1  0  0  0  0  0  0  0  0  0
    6.1473  -21.3700   25.8653 C   0  0  0  0  0  0  0  0  0  0  0  0
    7.7994  -19.5024   25.9002 C   0  0  0  0  0  0  0  0  0  0  0  0
    9.0531  -18.8604   26.3143 C   0  0  2  0  0  0  0  0  0  0  0  0
    9.4382  -17.8301   25.3223 N   0  0  0  0  0  0  0  0  0  0  0  0
   10.2511  -19.6364   26.5530 C   0  0  0  0  0  0  0  0  0  0  0  0
   11.3552  -19.5825   25.7396 O   0  0  0  0  0  0  0  0  0  0  0  0
   10.3361  -20.4185   27.5349 O   0  0  0  0  0  0  0  0  0  0  0  0
  2  1  1  1
  3  2  1  0
  3  4  1  0
  4 12  1  0
  4  5  2  0
  5  6  1  0
  7  6  1  0
  7  8  2  0
  9  8  1  0
 10  9  2  0
 11 10  1  0
 11 12  2  0
 12  7  1  0
 13  2  1  0
 14 13  2  0
 15 13  1  0
 16 17  1  1
 16 15  1  0
 17 18  1  0
 18 19  2  0
 19 20  1  0
 21 20  1  0
 22 21  2  0
 23 22  1  0
 24 25  1  0
 24 23  2  0
 25 26  2  0
 26 18  1  0
 26 21  1  0
 27 16  1  0
 28 27  2  0
 30 29  1  1
 30 31  1  0
 33 32  1  6
 32 30  1  0
 33 34  1  0
 34 27  1  0
 35 36  1  0
 35 33  1  0
 37 35  2  0
M  END
$$$$
