WWL.pdb
     RDKit          3D

 37 40  0  0  1  0  0  0  0  0999 V2000
    7.1719  -20.0964   22.3896 N   0  0  0  0  0  0  0  0  0  0  0  0
    8.4933  -19.5253   22.5458 C   0  0  1  0  0  0  0  0  0  0  0  0
    9.4350  -20.3742   21.6787 C   0  0  0  0  0  0  0  0  0  0  0  0
    9.4202  -21.7821   22.1660 C   0  0  0  0  0  0  0  0  0  0  0  0
    8.8553  -22.8743   21.5296 C   0  0  0  0  0  0  0  0  0  0  0  0
    9.0445  -23.9821   22.2864 N   0  0  0  0  0  0  0  0  0  0  0  0
    9.7154  -23.6620   23.4026 C   0  0  0  0  0  0  0  0  0  0  0  0
   10.1466  -24.4141   24.4738 C   0  0  0  0  0  0  0  0  0  0  0  0
   10.8232  -23.7540   25.4746 C   0  0  0  0  0  0  0  0  0  0  0  0
   11.0695  -22.3885   25.4235 C   0  0  0  0  0  0  0  0  0  0  0  0
   10.6257  -21.6704   24.3421 C   0  0  0  0  0  0  0  0  0  0  0  0
    9.9506  -22.2926   23.3300 C   0  0  0  0  0  0  0  0  0  0  0  0
    8.4759  -18.1175   22.0803 C   0  0  0  0  0  0  0  0  0  0  0  0
    8.4899  -17.8916   20.8245 O   0  0  0  0  0  0  0  0  0  0  0  0
    8.4439  -17.0724   23.0398 N   0  0  0  0  0  0  0  0  0  0  0  0
    9.1386  -15.8261   22.8321 C   0  0  1  0  0  0  0  0  0  0  0  0
    8.1404  -14.7140   22.7726 C   0  0  0  0  0  0  0  0  0  0  0  0
    7.3174  -14.5788   23.9731 C   0  0  0  0  0  0  0  0  0  0  0  0
    6.7540  -15.6313   24.6535 C   0  0  0  0  0  0  0  0  0  0  0  0
    6.0774  -15.1468   25.6887 N   0  0  0  0  0  0  0  0  0  0  0  0
    6.1794  -13.8164   25.7080 C   0  0  0  0  0  0  0  0  0  0  0  0
    5.6552  -12.8583   26.5833 C   0  0  0  0  0  0  0  0  0  0  0  0
    5.9153  -11.5239   26.3752 C   0  0  0  0  0  0  0  0  0  0  0  0
    6.6899  -11.1476   25.3058 C   0  0  0  0  0  0  0  0  0  0  0  0
    7.2240  -12.0704   24.4208 C   0  0  0  0  0  0  0  0  0  0  0  0
    6.9622  -13.4255   24.6287 C   0  0  0  0  0  0  0  0  0  0  0  0
   10.1928  -15.6653   23.8545 C   0  0  0  0  0  0  0  0  0  0  0  0
   11.1963  -14.9643   23.5429 O   0  0  0  0  0  0  0  0  0  0  0  0
   10.1095  -13.4226   26.8918 C   0  0  0  0  0  0  0  0  0  0  0  0
   10.6875  -14.4251   27.8209 C   0  0  1  0  0  0  0  0  0  0  0  0
   10.0578  -14.2419   29.2132 C   0  0  0  0  0  0  0  0  0  0  0  0
   10.7450  -15.8320   27.4194 C   0  0  0  0  0  0  0  0  0  0  0  0
   11.2560  -16.2212   26.0993 C   0  0  2  0  0  0  0  0  0  0  0  0
   10.1470  -16.2316   25.1175 N   0  0  0  0  0  0  0  0  0  0  0  0
   11.9585  -17.4714   25.9046 C   0  0  0  0  0  0  0  0  0  0  0  0
   11.3488  -18.6116   25.4442 O   0  0  0  0  0  0  0  0  0  0  0  0
   13.1861  -17.5757   26.1597 O   0  0  0  0  0  0  0  0  0  0  0  0
  2  1  1  6
  3  2  1  0
  3  4  1  0
  4 12  1  0
  4  5  2  0
  5  6  1  0
  7  6  1  0
  7  8  2  0
  9  8  1  0
 10  9  2  0
 11 10  1  0
 11 12  2  0
 12  7  1  0
 13  2  1  0
 14 13  2  0
 15 13  1  0
 16 17  1  1
 16 15  1  0
 17 18  1  0
 18 19  2  0
 19 20  1  0
 21 20  1  0
 22 21  2  0
 23 22  1  0
 24 25  1  0
 24 23  2  0
 25 26  2  0
 26 18  1  0
 26 21  1  0
 27 16  1  0
 28 27  2  0
 30 29  1  6
 30 31  1  0
 33 32  1  1
 32 30  1  0
 33 34  1  0
 34 27  1  0
 35 36  1  0
 35 33  1  0
 37 35  2  0
M  END
$$$$
