WWL.pdb
     RDKit          3D

 37 40  0  0  1  0  0  0  0  0999 V2000
    7.5251  -20.4549   26.0237 N   0  0  0  0  0  0  0  0  0  0  0  0
    7.1842  -19.0616   25.8259 C   0  0  1  0  0  0  0  0  0  0  0  0
    7.5805  -18.3331   27.1188 C   0  0  0  0  0  0  0  0  0  0  0  0
    7.0374  -16.9459   27.0905 C   0  0  0  0  0  0  0  0  0  0  0  0
    5.7556  -16.5640   26.7328 C   0  0  0  0  0  0  0  0  0  0  0  0
    5.6445  -15.2173   26.8312 N   0  0  0  0  0  0  0  0  0  0  0  0
    6.8087  -14.6931   27.2419 C   0  0  0  0  0  0  0  0  0  0  0  0
    7.2059  -13.3975   27.4919 C   0  0  0  0  0  0  0  0  0  0  0  0
    8.5033  -13.2067   27.9110 C   0  0  0  0  0  0  0  0  0  0  0  0
    9.3879  -14.2635   28.0799 C   0  0  0  0  0  0  0  0  0  0  0  0
    8.9588  -15.5407   27.8217 C   0  0  0  0  0  0  0  0  0  0  0  0
    7.6777  -15.7676   27.4041 C   0  0  0  0  0  0  0  0  0  0  0  0
    7.9451  -18.5312   24.6689 C   0  0  0  0  0  0  0  0  0  0  0  0
    9.0154  -19.1309   24.3180 O   0  0  0  0  0  0  0  0  0  0  0  0
    7.4619  -17.3812   23.9923 N   0  0  0  0  0  0  0  0  0  0  0  0
    8.0961  -16.8764   22.7998 C   0  0  1  0  0  0  0  0  0  0  0  0
    7.1008  -16.0820   22.0156 C   0  0  0  0  0  0  0  0  0  0  0  0
    7.6454  -15.4524   20.8140 C   0  0  0  0  0  0  0  0  0  0  0  0
    7.9063  -16.1141   19.6382 C   0  0  0  0  0  0  0  0  0  0  0  0
    8.3899  -15.2393   18.7637 N   0  0  0  0  0  0  0  0  0  0  0  0
    8.4537  -14.0310   19.3266 C   0  0  0  0  0  0  0  0  0  0  0  0
    8.8851  -12.7966   18.8275 C   0  0  0  0  0  0  0  0  0  0  0  0
    8.8472  -11.6809   19.6309 C   0  0  0  0  0  0  0  0  0  0  0  0
    8.3842  -11.7937   20.9186 C   0  0  0  0  0  0  0  0  0  0  0  0
    7.9499  -13.0004   21.4433 C   0  0  0  0  0  0  0  0  0  0  0  0
    7.9868  -14.1348   20.6311 C   0  0  0  0  0  0  0  0  0  0  0  0
    9.3310  -16.1499   23.1600 C   0  0  0  0  0  0  0  0  0  0  0  0
   10.1236  -15.8588   22.2206 O   0  0  0  0  0  0  0  0  0  0  0  0
   10.1292  -14.4374   28.5834 C   0  0  0  0  0  0  0  0  0  0  0  0
   10.0660  -14.4587   27.1010 C   0  0  1  0  0  0  0  0  0  0  0  0
    9.9406  -13.0151   26.5823 C   0  0  0  0  0  0  0  0  0  0  0  0
   11.0535  -15.2344   26.3479 C   0  0  0  0  0  0  0  0  0  0  0  0
   11.0028  -15.3032   24.8823 C   0  0  2  0  0  0  0  0  0  0  0  0
    9.6670  -15.7753   24.4502 N   0  0  0  0  0  0  0  0  0  0  0  0
   11.9552  -16.0955   24.1342 C   0  0  0  0  0  0  0  0  0  0  0  0
   12.1315  -17.4422   24.3323 O   0  0  0  0  0  0  0  0  0  0  0  0
   12.6864  -15.5748   23.2528 O   0  0  0  0  0  0  0  0  0  0  0  0
  2  1  1  1
  3  2  1  0
  3  4  1  0
  4 12  1  0
  4  5  2  0
  5  6  1  0
  7  6  1  0
  7  8  2  0
  9  8  1  0
 10  9  2  0
 11 10  1  0
 11 12  2  0
 12  7  1  0
 13  2  1  0
 14 13  2  0
 15 13  1  0
 16 17  1  1
 16 15  1  0
 17 18  1  0
 18 19  2  0
 19 20  1  0
 21 20  1  0
 22 21  2  0
 23 22  1  0
 24 25  1  0
 24 23  2  0
 25 26  2  0
 26 18  1  0
 26 21  1  0
 27 16  1  0
 28 27  2  0
 30 29  1  1
 30 31  1  0
 33 32  1  1
 32 30  1  0
 33 34  1  0
 34 27  1  0
 35 36  1  0
 35 33  1  0
 37 35  2  0
M  END
$$$$
