PMG.pdb
     RDKit          3D

 20 20  0  0  1  0  0  0  0  0999 V2000
    7.3553  -14.9932   20.2789 N   0  0  0  0  0  0  0  0  0  0  0  0
    7.0081  -14.6614   18.9117 C   0  0  0  0  0  0  0  0  0  0  0  0
    7.6427  -13.3256   18.5870 C   0  0  0  0  0  0  0  0  0  0  0  0
    7.9837  -12.8188   19.9890 C   0  0  0  0  0  0  0  0  0  0  0  0
    8.4527  -14.1320   20.5963 C   0  0  1  0  0  0  0  0  0  0  0  0
    8.7452  -14.0212   22.0231 C   0  0  0  0  0  0  0  0  0  0  0  0
    9.7966  -13.4406   22.3953 O   0  0  0  0  0  0  0  0  0  0  0  0
    5.9868  -11.0964   26.5973 C   0  0  0  0  0  0  0  0  0  0  0  0
    7.3828  -12.2443   26.8796 S   0  0  0  0  0  0  0  0  0  0  0  0
    6.8053  -13.9159   26.5257 C   0  0  0  0  0  0  0  0  0  0  0  0
    6.7017  -14.1830   25.0526 C   0  0  0  0  0  0  0  0  0  0  0  0
    8.0493  -14.4301   24.4122 C   0  0  2  0  0  0  0  0  0  0  0  0
    7.8748  -14.5508   22.9845 N   0  0  0  0  0  0  0  0  0  0  0  0
    8.5799  -15.7334   24.9299 C   0  0  0  0  0  0  0  0  0  0  0  0
    7.8420  -16.5247   25.5590 O   0  0  0  0  0  0  0  0  0  0  0  0
    9.9275  -16.1277   24.7340 N   0  0  0  0  0  0  0  0  0  0  0  0
   10.4581  -17.3788   25.2412 C   0  0  0  0  0  0  0  0  0  0  0  0
   11.8220  -17.6417   24.7299 C   0  0  0  0  0  0  0  0  0  0  0  0
   12.7913  -17.1346   25.3153 O   0  0  0  0  0  0  0  0  0  0  0  0
   12.0910  -18.4343   23.6163 O   0  0  0  0  0  0  0  0  0  0  0  0
  1  2  1  0
  3  2  1  0
  4  5  1  0
  4  3  1  0
  5  6  1  1
  5  1  1  0
  6  7  2  0
  9  8  1  0
  9 10  1  0
 10 11  1  0
 12 11  1  1
 12 14  1  0
 13 12  1  0
 13  6  1  0
 14 15  2  0
 14 16  1  0
 16 17  1  0
 18 20  1  0
 18 17  1  0
 19 18  2  0
M  END
$$$$
