PMG.pdb
     RDKit          3D

 20 20  0  0  1  0  0  0  0  0999 V2000
    7.1022  -14.9871   19.9433 N   0  0  0  0  0  0  0  0  0  0  0  0
    6.7661  -14.6288   18.5800 C   0  0  0  0  0  0  0  0  0  0  0  0
    7.4221  -13.2977   18.2790 C   0  0  0  0  0  0  0  0  0  0  0  0
    7.7645  -12.8181   19.6902 C   0  0  0  0  0  0  0  0  0  0  0  0
    8.2110  -14.1476   20.2788 C   0  0  1  0  0  0  0  0  0  0  0  0
    8.4987  -14.0635   21.7084 C   0  0  0  0  0  0  0  0  0  0  0  0
    9.5256  -13.4510   22.0973 O   0  0  0  0  0  0  0  0  0  0  0  0
    7.2403  -12.0097   28.2546 C   0  0  0  0  0  0  0  0  0  0  0  0
    7.3477  -12.3505   26.4606 S   0  0  0  0  0  0  0  0  0  0  0  0
    6.4800  -13.8984   26.1382 C   0  0  0  0  0  0  0  0  0  0  0  0
    6.4168  -14.2219   24.6741 C   0  0  0  0  0  0  0  0  0  0  0  0
    7.7798  -14.5077   24.0844 C   0  0  2  0  0  0  0  0  0  0  0  0
    7.6505  -14.6537   22.6542 N   0  0  0  0  0  0  0  0  0  0  0  0
    8.2668  -15.8103   24.6449 C   0  0  0  0  0  0  0  0  0  0  0  0
    7.4614  -16.7029   24.9926 O   0  0  0  0  0  0  0  0  0  0  0  0
    9.6472  -16.0903   24.8063 N   0  0  0  0  0  0  0  0  0  0  0  0
   10.1341  -17.3614   25.3075 C   0  0  0  0  0  0  0  0  0  0  0  0
   11.6058  -17.3594   25.4657 C   0  0  0  0  0  0  0  0  0  0  0  0
   12.2527  -16.3828   25.0567 O   0  0  0  0  0  0  0  0  0  0  0  0
   12.3218  -18.3998   26.0536 O   0  0  0  0  0  0  0  0  0  0  0  0
  1  2  1  0
  3  2  1  0
  4  5  1  0
  4  3  1  0
  5  6  1  1
  5  1  1  0
  6  7  2  0
  9  8  1  0
  9 10  1  0
 10 11  1  0
 12 11  1  1
 12 14  1  0
 13 12  1  0
 13  6  1  0
 14 15  2  0
 14 16  1  0
 16 17  1  0
 18 20  1  0
 18 17  1  0
 19 18  2  0
M  END
$$$$
