PMG.pdb
     RDKit          3D

 20 20  0  0  1  0  0  0  0  0999 V2000
    7.2196  -14.7198   20.2792 N   0  0  0  0  0  0  0  0  0  0  0  0
    6.8693  -14.1262   19.0045 C   0  0  0  0  0  0  0  0  0  0  0  0
    7.7329  -12.8968   18.8166 C   0  0  0  0  0  0  0  0  0  0  0  0
    8.2421  -12.6801   20.2422 C   0  0  0  0  0  0  0  0  0  0  0  0
    8.4792  -14.1339   20.6210 C   0  0  1  0  0  0  0  0  0  0  0  0
    8.8653  -14.2966   22.0203 C   0  0  0  0  0  0  0  0  0  0  0  0
   10.0180  -13.9538   22.3875 O   0  0  0  0  0  0  0  0  0  0  0  0
    6.4779  -10.4561   26.6705 C   0  0  0  0  0  0  0  0  0  0  0  0
    6.5340  -12.2808   26.7860 S   0  0  0  0  0  0  0  0  0  0  0  0
    6.9594  -12.9259   25.1563 C   0  0  0  0  0  0  0  0  0  0  0  0
    7.0325  -14.4247   25.1381 C   0  0  0  0  0  0  0  0  0  0  0  0
    8.2343  -14.9372   24.3764 C   0  0  2  0  0  0  0  0  0  0  0  0
    7.9735  -14.8281   22.9610 N   0  0  0  0  0  0  0  0  0  0  0  0
    8.4129  -16.3883   24.7082 C   0  0  0  0  0  0  0  0  0  0  0  0
    7.4414  -17.1772   24.6904 O   0  0  0  0  0  0  0  0  0  0  0  0
    9.6763  -16.9307   25.0542 N   0  0  0  0  0  0  0  0  0  0  0  0
    9.8682  -18.3368   25.3542 C   0  0  0  0  0  0  0  0  0  0  0  0
   11.2680  -18.6280   25.7375 C   0  0  0  0  0  0  0  0  0  0  0  0
   11.6413  -18.3684   26.8918 O   0  0  0  0  0  0  0  0  0  0  0  0
   12.2072  -19.1837   24.8715 O   0  0  0  0  0  0  0  0  0  0  0  0
  1  2  1  0
  3  2  1  0
  4  5  1  0
  4  3  1  0
  5  6  1  1
  5  1  1  0
  6  7  2  0
  9  8  1  0
  9 10  1  0
 10 11  1  0
 12 11  1  1
 12 14  1  0
 13 12  1  0
 13  6  1  0
 14 15  2  0
 14 16  1  0
 16 17  1  0
 18 20  1  0
 18 17  1  0
 19 18  2  0
M  END
$$$$
