PMG.pdb
     RDKit          3D

 20 20  0  0  1  0  0  0  0  0999 V2000
    7.2220  -14.9984   20.6254 N   0  0  0  0  0  0  0  0  0  0  0  0
    6.7876  -14.5470   19.3187 C   0  0  0  0  0  0  0  0  0  0  0  0
    7.5249  -13.2617   19.0073 C   0  0  0  0  0  0  0  0  0  0  0  0
    8.0433  -12.8819   20.3950 C   0  0  0  0  0  0  0  0  0  0  0  0
    8.4272  -14.2711   20.8810 C   0  0  1  0  0  0  0  0  0  0  0  0
    8.8587  -14.2814   22.2764 C   0  0  0  0  0  0  0  0  0  0  0  0
    9.9185  -13.6872   22.6001 O   0  0  0  0  0  0  0  0  0  0  0  0
    7.4409  -11.1400   27.3025 C   0  0  0  0  0  0  0  0  0  0  0  0
    6.1494  -12.1810   26.5315 S   0  0  0  0  0  0  0  0  0  0  0  0
    6.8930  -13.0380   25.1295 C   0  0  0  0  0  0  0  0  0  0  0  0
    7.2390  -14.4625   25.4507 C   0  0  0  0  0  0  0  0  0  0  0  0
    8.4338  -14.9594   24.6679 C   0  0  2  0  0  0  0  0  0  0  0  0
    8.1125  -14.9420   23.2609 N   0  0  0  0  0  0  0  0  0  0  0  0
    8.6969  -16.3797   25.0696 C   0  0  0  0  0  0  0  0  0  0  0  0
    7.7836  -17.2352   25.0463 O   0  0  0  0  0  0  0  0  0  0  0  0
    9.9781  -16.8172   25.4906 N   0  0  0  0  0  0  0  0  0  0  0  0
   10.2705  -18.2055   25.7922 C   0  0  0  0  0  0  0  0  0  0  0  0
   10.2245  -18.4702   27.2478 C   0  0  0  0  0  0  0  0  0  0  0  0
    9.8730  -17.5593   28.0134 O   0  0  0  0  0  0  0  0  0  0  0  0
   10.5557  -19.6957   27.8218 O   0  0  0  0  0  0  0  0  0  0  0  0
  1  2  1  0
  3  2  1  0
  4  5  1  0
  4  3  1  0
  5  6  1  1
  5  1  1  0
  6  7  2  0
  9  8  1  0
  9 10  1  0
 10 11  1  0
 12 11  1  1
 12 14  1  0
 13 12  1  0
 13  6  1  0
 14 15  2  0
 14 16  1  0
 16 17  1  0
 18 20  1  0
 18 17  1  0
 19 18  2  0
M  END
$$$$
