PMG.pdb
     RDKit          3D

 20 20  0  0  1  0  0  0  0  0999 V2000
    7.3110  -15.0270   20.0170 N   0  0  0  0  0  0  0  0  0  0  0  0
    6.9005  -14.7447   18.6563 C   0  0  0  0  0  0  0  0  0  0  0  0
    7.4151  -13.3668   18.2968 C   0  0  0  0  0  0  0  0  0  0  0  0
    7.7522  -12.8133   19.6820 C   0  0  0  0  0  0  0  0  0  0  0  0
    8.3430  -14.0751   20.2921 C   0  0  1  0  0  0  0  0  0  0  0  0
    8.6646  -13.9198   21.7084 C   0  0  0  0  0  0  0  0  0  0  0  0
    9.6001  -13.1520   22.0494 O   0  0  0  0  0  0  0  0  0  0  0  0
    5.6133  -11.3851   27.1663 C   0  0  0  0  0  0  0  0  0  0  0  0
    7.1612  -12.1018   26.5058 S   0  0  0  0  0  0  0  0  0  0  0  0
    6.8764  -13.8582   26.2109 C   0  0  0  0  0  0  0  0  0  0  0  0
    6.7741  -14.1812   24.7489 C   0  0  0  0  0  0  0  0  0  0  0  0
    8.1235  -14.4382   24.1164 C   0  0  2  0  0  0  0  0  0  0  0  0
    7.9490  -14.6118   22.6941 N   0  0  0  0  0  0  0  0  0  0  0  0
    8.6670  -15.7168   24.6800 C   0  0  0  0  0  0  0  0  0  0  0  0
    7.9190  -16.5320   25.2650 O   0  0  0  0  0  0  0  0  0  0  0  0
   10.0388  -16.0602   24.5786 N   0  0  0  0  0  0  0  0  0  0  0  0
   10.5818  -17.2848   25.1350 C   0  0  0  0  0  0  0  0  0  0  0  0
   12.0459  -17.3735   24.9362 C   0  0  0  0  0  0  0  0  0  0  0  0
   12.6544  -18.3582   25.3831 O   0  0  0  0  0  0  0  0  0  0  0  0
   12.7958  -16.4073   24.2691 O   0  0  0  0  0  0  0  0  0  0  0  0
  1  2  1  0
  3  2  1  0
  4  5  1  0
  4  3  1  0
  5  6  1  1
  5  1  1  0
  6  7  2  0
  9  8  1  0
  9 10  1  0
 10 11  1  0
 12 11  1  1
 12 14  1  0
 13 12  1  0
 13  6  1  0
 14 15  2  0
 14 16  1  0
 16 17  1  0
 18 20  1  0
 18 17  1  0
 19 18  2  0
M  END
$$$$
