PMG.pdb
     RDKit          3D

 20 20  0  0  1  0  0  0  0  0999 V2000
    7.4091  -15.1111   19.9951 N   0  0  0  0  0  0  0  0  0  0  0  0
    7.0490  -14.8284   18.6202 C   0  0  0  0  0  0  0  0  0  0  0  0
    7.7475  -13.5475   18.2155 C   0  0  0  0  0  0  0  0  0  0  0  0
    8.1480  -12.9918   19.5828 C   0  0  0  0  0  0  0  0  0  0  0  0
    8.5588  -14.2974   20.2460 C   0  0  1  0  0  0  0  0  0  0  0  0
    8.8898  -14.1326   21.6592 C   0  0  0  0  0  0  0  0  0  0  0  0
    9.9791  -13.5929   21.9801 O   0  0  0  0  0  0  0  0  0  0  0  0
    6.9072  -11.5016   28.3825 C   0  0  0  0  0  0  0  0  0  0  0  0
    6.3152  -11.9298   26.7055 S   0  0  0  0  0  0  0  0  0  0  0  0
    7.2486  -13.3653   26.1387 C   0  0  0  0  0  0  0  0  0  0  0  0
    7.0907  -13.6020   24.6652 C   0  0  0  0  0  0  0  0  0  0  0  0
    8.2357  -14.3982   24.0802 C   0  0  2  0  0  0  0  0  0  0  0  0
    8.0146  -14.5657   22.6637 N   0  0  0  0  0  0  0  0  0  0  0  0
    8.2336  -15.7555   24.7172 C   0  0  0  0  0  0  0  0  0  0  0  0
    7.1868  -16.4392   24.7722 O   0  0  0  0  0  0  0  0  0  0  0  0
    9.4037  -16.3232   25.2814 N   0  0  0  0  0  0  0  0  0  0  0  0
    9.4155  -17.6332   25.9041 C   0  0  0  0  0  0  0  0  0  0  0  0
   10.7711  -18.0066   26.3668 C   0  0  0  0  0  0  0  0  0  0  0  0
   11.7253  -17.2618   26.0945 O   0  0  0  0  0  0  0  0  0  0  0  0
   11.0481  -19.1584   27.0998 O   0  0  0  0  0  0  0  0  0  0  0  0
  1  2  1  0
  3  2  1  0
  4  5  1  0
  4  3  1  0
  5  6  1  1
  5  1  1  0
  6  7  2  0
  9  8  1  0
  9 10  1  0
 10 11  1  0
 12 11  1  1
 12 14  1  0
 13 12  1  0
 13  6  1  0
 14 15  2  0
 14 16  1  0
 16 17  1  0
 18 20  1  0
 18 17  1  0
 19 18  2  0
M  END
$$$$
