PMG.pdb
     RDKit          3D

 20 20  0  0  1  0  0  0  0  0999 V2000
    7.2719  -15.0449   20.1145 N   0  0  0  0  0  0  0  0  0  0  0  0
    7.0505  -14.7097   18.7222 C   0  0  0  0  0  0  0  0  0  0  0  0
    7.8216  -13.4407   18.4260 C   0  0  0  0  0  0  0  0  0  0  0  0
    8.1088  -12.9395   19.8420 C   0  0  0  0  0  0  0  0  0  0  0  0
    8.4168  -14.2771   20.4973 C   0  0  1  0  0  0  0  0  0  0  0  0
    8.6189  -14.1655   21.9396 C   0  0  0  0  0  0  0  0  0  0  0  0
    9.6983  -13.6923   22.3777 O   0  0  0  0  0  0  0  0  0  0  0  0
    7.2792  -11.3926   28.0460 C   0  0  0  0  0  0  0  0  0  0  0  0
    7.4182  -12.0036   26.3274 S   0  0  0  0  0  0  0  0  0  0  0  0
    6.3213  -13.4249   26.1548 C   0  0  0  0  0  0  0  0  0  0  0  0
    6.3036  -13.9642   24.7544 C   0  0  0  0  0  0  0  0  0  0  0  0
    7.6788  -14.3667   24.2710 C   0  0  2  0  0  0  0  0  0  0  0  0
    7.6311  -14.5767   22.8437 N   0  0  0  0  0  0  0  0  0  0  0  0
    8.0402  -15.6677   24.9229 C   0  0  0  0  0  0  0  0  0  0  0  0
    7.1590  -16.4091   25.4128 O   0  0  0  0  0  0  0  0  0  0  0  0
    9.3823  -16.1155   25.0147 N   0  0  0  0  0  0  0  0  0  0  0  0
    9.7554  -17.3300   25.7145 C   0  0  0  0  0  0  0  0  0  0  0  0
   11.1910  -17.6440   25.5375 C   0  0  0  0  0  0  0  0  0  0  0  0
   11.6653  -18.6340   26.1157 O   0  0  0  0  0  0  0  0  0  0  0  0
   12.0568  -16.8874   24.7509 O   0  0  0  0  0  0  0  0  0  0  0  0
  1  2  1  0
  3  2  1  0
  4  5  1  0
  4  3  1  0
  5  6  1  1
  5  1  1  0
  6  7  2  0
  9  8  1  0
  9 10  1  0
 10 11  1  0
 12 11  1  1
 12 14  1  0
 13 12  1  0
 13  6  1  0
 14 15  2  0
 14 16  1  0
 16 17  1  0
 18 20  1  0
 18 17  1  0
 19 18  2  0
M  END
$$$$
