PMG.pdb
     RDKit          3D

 20 20  0  0  1  0  0  0  0  0999 V2000
    7.4371  -15.0626   20.3080 N   0  0  0  0  0  0  0  0  0  0  0  0
    7.0294  -14.6835   18.9701 C   0  0  0  0  0  0  0  0  0  0  0  0
    7.6695  -13.3480   18.6550 C   0  0  0  0  0  0  0  0  0  0  0  0
    8.0866  -12.8899   20.0531 C   0  0  0  0  0  0  0  0  0  0  0  0
    8.5627  -14.2282   20.5969 C   0  0  1  0  0  0  0  0  0  0  0  0
    8.9260  -14.1658   22.0103 C   0  0  0  0  0  0  0  0  0  0  0  0
    9.9920  -13.5919   22.3499 O   0  0  0  0  0  0  0  0  0  0  0  0
    6.2635  -10.6477   26.8789 C   0  0  0  0  0  0  0  0  0  0  0  0
    6.8143  -12.3917   26.9123 S   0  0  0  0  0  0  0  0  0  0  0  0
    6.6945  -13.0424   25.2345 C   0  0  0  0  0  0  0  0  0  0  0  0
    7.0796  -14.4908   25.1562 C   0  0  0  0  0  0  0  0  0  0  0  0
    8.3785  -14.7057   24.4121 C   0  0  2  0  0  0  0  0  0  0  0  0
    8.1075  -14.7346   22.9947 N   0  0  0  0  0  0  0  0  0  0  0  0
    8.9285  -16.0425   24.8100 C   0  0  0  0  0  0  0  0  0  0  0  0
    8.2476  -17.0842   24.6777 O   0  0  0  0  0  0  0  0  0  0  0  0
   10.2315  -16.1893   25.3493 N   0  0  0  0  0  0  0  0  0  0  0  0
   10.7761  -17.4758   25.7396 C   0  0  0  0  0  0  0  0  0  0  0  0
   11.5692  -18.0872   24.6496 C   0  0  0  0  0  0  0  0  0  0  0  0
   11.0284  -18.2836   23.5503 O   0  0  0  0  0  0  0  0  0  0  0  0
   12.9046  -18.4617   24.7812 O   0  0  0  0  0  0  0  0  0  0  0  0
  1  2  1  0
  3  2  1  0
  4  5  1  0
  4  3  1  0
  5  6  1  1
  5  1  1  0
  6  7  2  0
  9  8  1  0
  9 10  1  0
 10 11  1  0
 12 11  1  1
 12 14  1  0
 13 12  1  0
 13  6  1  0
 14 15  2  0
 14 16  1  0
 16 17  1  0
 18 20  1  0
 18 17  1  0
 19 18  2  0
M  END
$$$$
