PMG.pdb
     RDKit          3D

 20 20  0  0  1  0  0  0  0  0999 V2000
    7.3819  -15.0960   20.0887 N   0  0  0  0  0  0  0  0  0  0  0  0
    7.0586  -14.7272   18.7251 C   0  0  0  0  0  0  0  0  0  0  0  0
    7.7784  -13.4315   18.4160 C   0  0  0  0  0  0  0  0  0  0  0  0
    8.1496  -12.9635   19.8238 C   0  0  0  0  0  0  0  0  0  0  0  0
    8.5321  -14.3110   20.4165 C   0  0  1  0  0  0  0  0  0  0  0  0
    8.8292  -14.2353   21.8446 C   0  0  0  0  0  0  0  0  0  0  0  0
    9.9502  -13.8079   22.2210 O   0  0  0  0  0  0  0  0  0  0  0  0
    7.0977  -11.6403   28.1734 C   0  0  0  0  0  0  0  0  0  0  0  0
    7.3131  -12.1200   26.4213 S   0  0  0  0  0  0  0  0  0  0  0  0
    6.5417  -13.7338   26.1903 C   0  0  0  0  0  0  0  0  0  0  0  0
    6.5580  -14.1729   24.7553 C   0  0  0  0  0  0  0  0  0  0  0  0
    7.9610  -14.3217   24.2107 C   0  0  2  0  0  0  0  0  0  0  0  0
    7.8869  -14.6309   22.8027 N   0  0  0  0  0  0  0  0  0  0  0  0
    8.6125  -15.4773   24.9093 C   0  0  0  0  0  0  0  0  0  0  0  0
    8.7997  -15.4592   26.1466 O   0  0  0  0  0  0  0  0  0  0  0  0
    9.0433  -16.6329   24.2099 N   0  0  0  0  0  0  0  0  0  0  0  0
    9.6540  -17.7677   24.8756 C   0  0  0  0  0  0  0  0  0  0  0  0
   11.0925  -17.5383   25.1384 C   0  0  0  0  0  0  0  0  0  0  0  0
   11.4234  -16.6367   25.9238 O   0  0  0  0  0  0  0  0  0  0  0  0
   12.1140  -18.2817   24.5514 O   0  0  0  0  0  0  0  0  0  0  0  0
  1  2  1  0
  3  2  1  0
  4  5  1  0
  4  3  1  0
  5  6  1  1
  5  1  1  0
  6  7  2  0
  9  8  1  0
  9 10  1  0
 10 11  1  0
 12 11  1  1
 12 14  1  0
 13 12  1  0
 13  6  1  0
 14 15  2  0
 14 16  1  0
 16 17  1  0
 18 20  1  0
 18 17  1  0
 19 18  2  0
M  END
$$$$
