PMG.pdb
     RDKit          3D

 20 20  0  0  1  0  0  0  0  0999 V2000
    7.4192  -15.1397   20.2541 N   0  0  0  0  0  0  0  0  0  0  0  0
    7.0248  -14.8225   18.8963 C   0  0  0  0  0  0  0  0  0  0  0  0
    7.6601  -13.4979   18.5300 C   0  0  0  0  0  0  0  0  0  0  0  0
    8.0580  -12.9760   19.9113 C   0  0  0  0  0  0  0  0  0  0  0  0
    8.5361  -14.2858   20.5188 C   0  0  1  0  0  0  0  0  0  0  0  0
    8.8825  -14.1590   21.9322 C   0  0  0  0  0  0  0  0  0  0  0  0
    9.9868  -13.6518   22.2550 O   0  0  0  0  0  0  0  0  0  0  0  0
    6.9980  -11.5092   28.3212 C   0  0  0  0  0  0  0  0  0  0  0  0
    7.0217  -11.8965   26.5336 S   0  0  0  0  0  0  0  0  0  0  0  0
    6.7404  -13.6683   26.3472 C   0  0  0  0  0  0  0  0  0  0  0  0
    6.7229  -14.0942   24.9083 C   0  0  0  0  0  0  0  0  0  0  0  0
    8.1128  -14.2469   24.3321 C   0  0  2  0  0  0  0  0  0  0  0  0
    8.0056  -14.5929   22.9349 N   0  0  0  0  0  0  0  0  0  0  0  0
    8.7909  -15.3794   25.0432 C   0  0  0  0  0  0  0  0  0  0  0  0
    9.0227  -15.3216   26.2718 O   0  0  0  0  0  0  0  0  0  0  0  0
    9.1975  -16.5567   24.3661 N   0  0  0  0  0  0  0  0  0  0  0  0
    9.7698  -17.6974   25.0555 C   0  0  0  0  0  0  0  0  0  0  0  0
   11.2397  -17.7547   24.8909 C   0  0  0  0  0  0  0  0  0  0  0  0
   11.7202  -18.5279   24.0480 O   0  0  0  0  0  0  0  0  0  0  0  0
   12.1315  -16.9840   25.6335 O   0  0  0  0  0  0  0  0  0  0  0  0
  1  2  1  0
  3  2  1  0
  4  5  1  0
  4  3  1  0
  5  6  1  1
  5  1  1  0
  6  7  2  0
  9  8  1  0
  9 10  1  0
 10 11  1  0
 12 11  1  1
 12 14  1  0
 13 12  1  0
 13  6  1  0
 14 15  2  0
 14 16  1  0
 16 17  1  0
 18 20  1  0
 18 17  1  0
 19 18  2  0
M  END
$$$$
