PKS.pdb
     RDKit          3D

 23 23  0  0  1  0  0  0  0  0999 V2000
    8.5689  -14.4843   17.8978 N   0  0  0  0  0  0  0  0  0  0  0  0
    8.4376  -13.3138   17.0164 C   0  0  0  0  0  0  0  0  0  0  0  0
    7.4816  -12.3764   17.7458 C   0  0  0  0  0  0  0  0  0  0  0  0
    7.4190  -12.9396   19.1495 C   0  0  0  0  0  0  0  0  0  0  0  0
    8.6421  -13.8261   19.1945 C   0  0  1  0  0  0  0  0  0  0  0  0
    8.5797  -14.8025   20.3061 C   0  0  0  0  0  0  0  0  0  0  0  0
    8.5751  -14.3547   21.4719 O   0  0  0  0  0  0  0  0  0  0  0  0
    8.5253  -16.2027   20.1333 N   0  0  0  0  0  0  0  0  0  0  0  0
    8.4363  -17.1286   21.2583 C   0  0  1  0  0  0  0  0  0  0  0  0
    8.2043  -18.5013   20.6632 C   0  0  0  0  0  0  0  0  0  0  0  0
    8.1333  -19.5727   21.7025 C   0  0  0  0  0  0  0  0  0  0  0  0
    7.9633  -20.8984   21.0226 C   0  0  0  0  0  0  0  0  0  0  0  0
    7.9563  -22.0518   22.0025 C   0  0  0  0  0  0  0  0  0  0  0  0
    7.8847  -23.2749   21.2012 N   0  0  0  0  0  0  0  0  0  0  0  0
    9.7167  -17.0903   22.0111 C   0  0  0  0  0  0  0  0  0  0  0  0
   10.8282  -17.0080   21.3844 O   0  0  0  0  0  0  0  0  0  0  0  0
    9.8210  -16.2724   26.0776 O   0  0  0  0  0  0  0  0  0  0  0  0
   10.8515  -15.9974   25.1898 C   0  0  0  0  0  0  0  0  0  0  0  0
   10.9698  -17.0714   24.1244 C   0  0  2  0  0  0  0  0  0  0  0  0
    9.7274  -17.1441   23.4287 N   0  0  0  0  0  0  0  0  0  0  0  0
   11.4317  -18.3412   24.6781 C   0  0  0  0  0  0  0  0  0  0  0  0
   12.6661  -18.4285   25.2833 O   0  0  0  0  0  0  0  0  0  0  0  0
   10.7105  -19.3565   24.6067 O   0  0  0  0  0  0  0  0  0  0  0  0
  1  5  1  0
  1  2  1  0
  2  3  1  0
  4  3  1  0
  5  4  1  0
  5  6  1  1
  7  6  2  0
  8  6  1  0
  9  8  1  0
 10 11  1  0
  9 10  1  6
 11 12  1  0
 12 13  1  0
 13 14  1  0
 15  9  1  0
 15 16  2  0
 18 17  1  0
 19 18  1  1
 19 20  1  0
 20 15  1  0
 21 19  1  0
 22 21  1  0
 23 21  2  0
M  END
$$$$
