PKS.pdb
     RDKit          3D

 23 23  0  0  1  0  0  0  0  0999 V2000
    8.2261  -14.9026   19.0172 N   0  0  0  0  0  0  0  0  0  0  0  0
    8.5603  -13.8923   18.0015 C   0  0  0  0  0  0  0  0  0  0  0  0
    7.8730  -12.6159   18.4741 C   0  0  0  0  0  0  0  0  0  0  0  0
    7.4901  -12.9173   19.9073 C   0  0  0  0  0  0  0  0  0  0  0  0
    8.3636  -14.1077   20.2294 C   0  0  1  0  0  0  0  0  0  0  0  0
    7.8828  -14.8430   21.4214 C   0  0  0  0  0  0  0  0  0  0  0  0
    7.9071  -14.2478   22.5190 O   0  0  0  0  0  0  0  0  0  0  0  0
    7.4002  -16.1696   21.3970 N   0  0  0  0  0  0  0  0  0  0  0  0
    6.9461  -16.8610   22.5998 C   0  0  1  0  0  0  0  0  0  0  0  0
    6.1860  -18.0824   22.1280 C   0  0  0  0  0  0  0  0  0  0  0  0
    4.7181  -17.8322   22.0039 C   0  0  0  0  0  0  0  0  0  0  0  0
    4.0489  -19.0896   21.5350 C   0  0  0  0  0  0  0  0  0  0  0  0
    2.5654  -18.9004   21.3022 C   0  0  0  0  0  0  0  0  0  0  0  0
    2.0569  -20.1827   20.8118 N   0  0  0  0  0  0  0  0  0  0  0  0
    8.1334  -17.2563   23.4008 C   0  0  0  0  0  0  0  0  0  0  0  0
    9.2051  -17.6368   22.8161 O   0  0  0  0  0  0  0  0  0  0  0  0
   10.3146  -15.6130   25.3489 O   0  0  0  0  0  0  0  0  0  0  0  0
    9.8827  -16.5682   26.2581 C   0  0  0  0  0  0  0  0  0  0  0  0
    9.2013  -17.7315   25.5619 C   0  0  2  0  0  0  0  0  0  0  0  0
    8.0982  -17.2185   24.8185 N   0  0  0  0  0  0  0  0  0  0  0  0
    8.8605  -18.8022   26.4945 C   0  0  0  0  0  0  0  0  0  0  0  0
    9.8346  -19.3751   27.2823 O   0  0  0  0  0  0  0  0  0  0  0  0
    7.6835  -19.2056   26.5840 O   0  0  0  0  0  0  0  0  0  0  0  0
  1  5  1  0
  1  2  1  0
  2  3  1  0
  4  3  1  0
  5  4  1  0
  5  6  1  1
  7  6  2  0
  8  6  1  0
  9  8  1  0
 10 11  1  0
  9 10  1  6
 11 12  1  0
 12 13  1  0
 13 14  1  0
 15  9  1  0
 15 16  2  0
 18 17  1  0
 19 18  1  1
 19 20  1  0
 20 15  1  0
 21 19  1  0
 22 21  1  0
 23 21  2  0
M  END
$$$$
