PKS.pdb
     RDKit          3D

 23 23  0  0  1  0  0  0  0  0999 V2000
    7.7155  -14.6258   18.7293 N   0  0  0  0  0  0  0  0  0  0  0  0
    7.6028  -13.3224   18.0567 C   0  0  0  0  0  0  0  0  0  0  0  0
    7.6058  -12.2956   19.1838 C   0  0  0  0  0  0  0  0  0  0  0  0
    8.0720  -13.0810   20.3911 C   0  0  0  0  0  0  0  0  0  0  0  0
    8.6946  -14.3037   19.7577 C   0  0  1  0  0  0  0  0  0  0  0  0
    8.8523  -15.4119   20.7271 C   0  0  0  0  0  0  0  0  0  0  0  0
    7.8149  -15.9126   21.2095 O   0  0  0  0  0  0  0  0  0  0  0  0
   10.0961  -15.9373   21.1399 N   0  0  0  0  0  0  0  0  0  0  0  0
   10.2041  -17.0905   22.0283 C   0  0  1  0  0  0  0  0  0  0  0  0
   11.6069  -17.6328   21.8541 C   0  0  0  0  0  0  0  0  0  0  0  0
   11.8804  -18.8096   22.7335 C   0  0  0  0  0  0  0  0  0  0  0  0
   11.8890  -20.0519   21.8938 C   0  0  0  0  0  0  0  0  0  0  0  0
   12.1626  -21.2969   22.7096 C   0  0  0  0  0  0  0  0  0  0  0  0
   12.2740  -22.4010   21.7547 N   0  0  0  0  0  0  0  0  0  0  0  0
    9.9838  -16.6388   23.4265 C   0  0  0  0  0  0  0  0  0  0  0  0
   10.4704  -15.5260   23.8263 O   0  0  0  0  0  0  0  0  0  0  0  0
    6.8748  -17.8973   25.7868 O   0  0  0  0  0  0  0  0  0  0  0  0
    7.6345  -16.7499   25.9656 C   0  0  0  0  0  0  0  0  0  0  0  0
    9.1044  -17.0070   25.6910 C   0  0  2  0  0  0  0  0  0  0  0  0
    9.2347  -17.4295   24.3355 N   0  0  0  0  0  0  0  0  0  0  0  0
    9.6918  -17.9170   26.6704 C   0  0  0  0  0  0  0  0  0  0  0  0
    9.6950  -17.5911   28.0088 O   0  0  0  0  0  0  0  0  0  0  0  0
   10.1952  -18.9969   26.3010 O   0  0  0  0  0  0  0  0  0  0  0  0
  1  5  1  0
  1  2  1  0
  2  3  1  0
  4  3  1  0
  5  4  1  0
  5  6  1  1
  7  6  2  0
  8  6  1  0
  9  8  1  0
 10 11  1  0
  9 10  1  1
 11 12  1  0
 12 13  1  0
 13 14  1  0
 15  9  1  0
 15 16  2  0
 18 17  1  0
 19 18  1  1
 19 20  1  0
 20 15  1  0
 21 19  1  0
 22 21  1  0
 23 21  2  0
M  END
$$$$
