PKS.pdb
     RDKit          3D

 23 23  0  0  1  0  0  0  0  0999 V2000
    8.2246  -14.8623   18.0626 N   0  0  0  0  0  0  0  0  0  0  0  0
    8.2208  -13.8090   17.0356 C   0  0  0  0  0  0  0  0  0  0  0  0
    7.4949  -12.6330   17.6798 C   0  0  0  0  0  0  0  0  0  0  0  0
    7.4505  -12.9929   19.1495 C   0  0  0  0  0  0  0  0  0  0  0  0
    8.5086  -14.0673   19.2490 C   0  0  1  0  0  0  0  0  0  0  0  0
    8.3725  -14.8678   20.4874 C   0  0  0  0  0  0  0  0  0  0  0  0
    8.5713  -14.2899   21.5764 O   0  0  0  0  0  0  0  0  0  0  0  0
    8.0336  -16.2381   20.5160 N   0  0  0  0  0  0  0  0  0  0  0  0
    7.8264  -16.9686   21.7627 C   0  0  1  0  0  0  0  0  0  0  0  0
    7.4668  -18.3863   21.3713 C   0  0  0  0  0  0  0  0  0  0  0  0
    7.2444  -19.2697   22.5558 C   0  0  0  0  0  0  0  0  0  0  0  0
    6.9490  -20.6595   22.0767 C   0  0  0  0  0  0  0  0  0  0  0  0
    6.6398  -21.6079   23.2149 C   0  0  0  0  0  0  0  0  0  0  0  0
    6.4431  -22.9274   22.6120 N   0  0  0  0  0  0  0  0  0  0  0  0
    9.0878  -16.9425   22.5472 C   0  0  0  0  0  0  0  0  0  0  0  0
   10.2128  -17.0997   21.9601 O   0  0  0  0  0  0  0  0  0  0  0  0
    9.1516  -15.5799   26.4742 O   0  0  0  0  0  0  0  0  0  0  0  0
   10.2333  -15.4920   25.6095 C   0  0  0  0  0  0  0  0  0  0  0  0
   10.2945  -16.6832   24.6717 C   0  0  2  0  0  0  0  0  0  0  0  0
    9.0654  -16.7441   23.9518 N   0  0  0  0  0  0  0  0  0  0  0  0
   10.6492  -17.9134   25.3741 C   0  0  0  0  0  0  0  0  0  0  0  0
   11.8852  -18.0440   25.9680 O   0  0  0  0  0  0  0  0  0  0  0  0
    9.8341  -18.8553   25.4409 O   0  0  0  0  0  0  0  0  0  0  0  0
  1  5  1  0
  1  2  1  0
  2  3  1  0
  4  3  1  0
  5  4  1  0
  5  6  1  1
  7  6  2  0
  8  6  1  0
  9  8  1  0
 10 11  1  0
  9 10  1  6
 11 12  1  0
 12 13  1  0
 13 14  1  0
 15  9  1  0
 15 16  2  0
 18 17  1  0
 19 18  1  1
 19 20  1  0
 20 15  1  0
 21 19  1  0
 22 21  1  0
 23 21  2  0
M  END
$$$$
