PKS.pdb
     RDKit          3D

 23 23  0  0  1  0  0  0  0  0999 V2000
    7.2777  -14.9154   19.4863 N   0  0  0  0  0  0  0  0  0  0  0  0
    7.0393  -14.5963   18.0701 C   0  0  0  0  0  0  0  0  0  0  0  0
    7.5831  -13.1836   17.8875 C   0  0  0  0  0  0  0  0  0  0  0  0
    8.4047  -12.9450   19.1363 C   0  0  0  0  0  0  0  0  0  0  0  0
    8.6073  -14.3479   19.6602 C   0  0  1  0  0  0  0  0  0  0  0  0
    9.0219  -14.3554   21.0818 C   0  0  0  0  0  0  0  0  0  0  0  0
   10.2321  -14.1781   21.3340 O   0  0  0  0  0  0  0  0  0  0  0  0
    8.1398  -14.5496   22.1670 N   0  0  0  0  0  0  0  0  0  0  0  0
    8.5530  -14.3683   23.5552 C   0  0  1  0  0  0  0  0  0  0  0  0
    7.3964  -13.6905   24.2591 C   0  0  0  0  0  0  0  0  0  0  0  0
    7.6824  -13.4172   25.7000 C   0  0  0  0  0  0  0  0  0  0  0  0
    6.5077  -12.7056   26.3019 C   0  0  0  0  0  0  0  0  0  0  0  0
    6.7058  -12.4081   27.7726 C   0  0  0  0  0  0  0  0  0  0  0  0
    5.4601  -11.7998   28.2431 N   0  0  0  0  0  0  0  0  0  0  0  0
    8.8237  -15.7020   24.1514 C   0  0  0  0  0  0  0  0  0  0  0  0
    7.9131  -16.5995   24.1580 O   0  0  0  0  0  0  0  0  0  0  0  0
   12.6135  -17.1857   24.6102 O   0  0  0  0  0  0  0  0  0  0  0  0
   11.4542  -17.9461   24.5488 C   0  0  0  0  0  0  0  0  0  0  0  0
   10.3136  -17.2834   25.2986 C   0  0  2  0  0  0  0  0  0  0  0  0
   10.0890  -16.0000   24.7195 N   0  0  0  0  0  0  0  0  0  0  0  0
   10.5442  -17.2677   26.7405 C   0  0  0  0  0  0  0  0  0  0  0  0
   10.4930  -16.0825   27.4406 O   0  0  0  0  0  0  0  0  0  0  0  0
   10.7893  -18.3291   27.3484 O   0  0  0  0  0  0  0  0  0  0  0  0
  1  5  1  0
  1  2  1  0
  2  3  1  0
  4  3  1  0
  5  4  1  0
  5  6  1  1
  7  6  2  0
  8  6  1  0
  9  8  1  0
 10 11  1  0
  9 10  1  1
 11 12  1  0
 12 13  1  0
 13 14  1  0
 15  9  1  0
 15 16  2  0
 18 17  1  0
 19 18  1  6
 19 20  1  0
 20 15  1  0
 21 19  1  0
 22 21  1  0
 23 21  2  0
M  END
$$$$
