PKS.pdb
     RDKit          3D

 23 23  0  0  1  0  0  0  0  0999 V2000
    8.2077  -14.6340   18.6550 N   0  0  0  0  0  0  0  0  0  0  0  0
    8.0670  -13.6159   17.6026 C   0  0  0  0  0  0  0  0  0  0  0  0
    7.6581  -12.3437   18.3370 C   0  0  0  0  0  0  0  0  0  0  0  0
    7.9390  -12.6562   19.7913 C   0  0  0  0  0  0  0  0  0  0  0  0
    8.8628  -13.8480   19.6910 C   0  0  1  0  0  0  0  0  0  0  0  0
    8.9493  -14.5927   20.9680 C   0  0  0  0  0  0  0  0  0  0  0  0
    9.5106  -14.0295   21.9310 O   0  0  0  0  0  0  0  0  0  0  0  0
    8.4396  -15.8943   21.1663 N   0  0  0  0  0  0  0  0  0  0  0  0
    8.5066  -16.5744   22.4561 C   0  0  1  0  0  0  0  0  0  0  0  0
    7.4851  -17.6907   22.4030 C   0  0  0  0  0  0  0  0  0  0  0  0
    7.7760  -18.6838   21.3250 C   0  0  0  0  0  0  0  0  0  0  0  0
    6.7654  -19.7893   21.3974 C   0  0  0  0  0  0  0  0  0  0  0  0
    6.9897  -20.8454   20.3368 C   0  0  0  0  0  0  0  0  0  0  0  0
    8.0678  -21.7044   20.8299 N   0  0  0  0  0  0  0  0  0  0  0  0
    9.8759  -17.1217   22.6373 C   0  0  0  0  0  0  0  0  0  0  0  0
   10.6111  -17.3633   21.6194 O   0  0  0  0  0  0  0  0  0  0  0  0
   12.2801  -16.8861   26.1163 O   0  0  0  0  0  0  0  0  0  0  0  0
   12.5879  -17.0064   24.7685 C   0  0  0  0  0  0  0  0  0  0  0  0
   11.6686  -17.9935   24.0736 C   0  0  2  0  0  0  0  0  0  0  0  0
   10.3874  -17.3837   23.9344 N   0  0  0  0  0  0  0  0  0  0  0  0
   11.6547  -19.2911   24.7432 C   0  0  0  0  0  0  0  0  0  0  0  0
   12.7891  -20.0721   24.7711 O   0  0  0  0  0  0  0  0  0  0  0  0
   10.6139  -19.7014   25.2951 O   0  0  0  0  0  0  0  0  0  0  0  0
  1  5  1  0
  1  2  1  0
  2  3  1  0
  4  3  1  0
  5  4  1  0
  5  6  1  1
  7  6  2  0
  8  6  1  0
  9  8  1  0
 10 11  1  0
  9 10  1  6
 11 12  1  0
 12 13  1  0
 13 14  1  0
 15  9  1  0
 15 16  2  0
 18 17  1  0
 19 18  1  1
 19 20  1  0
 20 15  1  0
 21 19  1  0
 22 21  1  0
 23 21  2  0
M  END
$$$$
