PKS.pdb
     RDKit          3D

 23 23  0  0  1  0  0  0  0  0999 V2000
    5.7477  -18.9108   22.2862 N   0  0  0  0  0  0  0  0  0  0  0  0
    4.8173  -19.9973   21.9430 C   0  0  0  0  0  0  0  0  0  0  0  0
    4.8918  -20.1152   20.4246 C   0  0  0  0  0  0  0  0  0  0  0  0
    6.1241  -19.3165   20.0571 C   0  0  0  0  0  0  0  0  0  0  0  0
    6.8467  -19.2140   21.3804 C   0  0  1  0  0  0  0  0  0  0  0  0
    7.8631  -18.1371   21.3762 C   0  0  0  0  0  0  0  0  0  0  0  0
    9.0052  -18.4191   20.9569 O   0  0  0  0  0  0  0  0  0  0  0  0
    7.6249  -16.8163   21.8145 N   0  0  0  0  0  0  0  0  0  0  0  0
    8.6225  -15.7578   21.6920 C   0  0  1  0  0  0  0  0  0  0  0  0
    7.8543  -14.4709   21.4772 C   0  0  0  0  0  0  0  0  0  0  0  0
    7.1243  -14.4492   20.1735 C   0  0  0  0  0  0  0  0  0  0  0  0
    7.9466  -13.6988   19.1688 C   0  0  0  0  0  0  0  0  0  0  0  0
    7.2624  -13.6001   17.8225 C   0  0  0  0  0  0  0  0  0  0  0  0
    8.1850  -12.8821   16.9413 N   0  0  0  0  0  0  0  0  0  0  0  0
    9.4114  -15.6966   22.9495 C   0  0  0  0  0  0  0  0  0  0  0  0
    8.8253  -15.4839   24.0658 O   0  0  0  0  0  0  0  0  0  0  0  0
   11.6709  -18.3562   24.5609 O   0  0  0  0  0  0  0  0  0  0  0  0
   10.9850  -17.1999   24.9050 C   0  0  0  0  0  0  0  0  0  0  0  0
   11.5262  -15.9907   24.1652 C   0  0  2  0  0  0  0  0  0  0  0  0
   10.8191  -15.8722   22.9328 N   0  0  0  0  0  0  0  0  0  0  0  0
   12.9794  -16.0387   24.0300 C   0  0  0  0  0  0  0  0  0  0  0  0
   13.5660  -15.9497   22.7868 O   0  0  0  0  0  0  0  0  0  0  0  0
   13.7001  -16.1608   25.0409 O   0  0  0  0  0  0  0  0  0  0  0  0
  1  5  1  0
  1  2  1  0
  2  3  1  0
  4  3  1  0
  5  4  1  0
  5  6  1  6
  7  6  2  0
  8  6  1  0
  9  8  1  0
 10 11  1  0
  9 10  1  1
 11 12  1  0
 12 13  1  0
 13 14  1  0
 15  9  1  0
 15 16  2  0
 18 17  1  0
 19 18  1  6
 19 20  1  0
 20 15  1  0
 21 19  1  0
 22 21  1  0
 23 21  2  0
M  END
$$$$
