PKS.pdb
     RDKit          3D

 23 23  0  0  1  0  0  0  0  0999 V2000
    7.3573  -15.1672   19.3032 N   0  0  0  0  0  0  0  0  0  0  0  0
    7.1267  -14.9704   17.8637 C   0  0  0  0  0  0  0  0  0  0  0  0
    7.5701  -13.5383   17.5856 C   0  0  0  0  0  0  0  0  0  0  0  0
    8.3453  -13.1494   18.8264 C   0  0  0  0  0  0  0  0  0  0  0  0
    8.6381  -14.4916   19.4559 C   0  0  1  0  0  0  0  0  0  0  0  0
    9.0217  -14.3651   20.8806 C   0  0  0  0  0  0  0  0  0  0  0  0
   10.1580  -13.9152   21.1376 O   0  0  0  0  0  0  0  0  0  0  0  0
    8.1880  -14.7192   21.9636 N   0  0  0  0  0  0  0  0  0  0  0  0
    8.5710  -14.4938   23.3541 C   0  0  1  0  0  0  0  0  0  0  0  0
    7.3808  -13.8396   24.0233 C   0  0  0  0  0  0  0  0  0  0  0  0
    7.6172  -13.5645   25.4729 C   0  0  0  0  0  0  0  0  0  0  0  0
    6.4750  -12.7521   26.0057 C   0  0  0  0  0  0  0  0  0  0  0  0
    6.6054  -12.4774   27.4883 C   0  0  0  0  0  0  0  0  0  0  0  0
    5.3825  -11.7794   27.8889 N   0  0  0  0  0  0  0  0  0  0  0  0
    8.8751  -15.8043   23.9845 C   0  0  0  0  0  0  0  0  0  0  0  0
    8.0049  -16.7411   23.9708 O   0  0  0  0  0  0  0  0  0  0  0  0
   11.8205  -17.6177   23.2437 O   0  0  0  0  0  0  0  0  0  0  0  0
   11.7438  -17.7887   24.6187 C   0  0  0  0  0  0  0  0  0  0  0  0
   10.4079  -17.3194   25.1642 C   0  0  2  0  0  0  0  0  0  0  0  0
   10.1280  -16.0368   24.6080 N   0  0  0  0  0  0  0  0  0  0  0  0
   10.3650  -17.3720   26.6229 C   0  0  0  0  0  0  0  0  0  0  0  0
   10.0472  -16.2465   27.3508 O   0  0  0  0  0  0  0  0  0  0  0  0
   10.6161  -18.4380   27.2201 O   0  0  0  0  0  0  0  0  0  0  0  0
  1  5  1  0
  1  2  1  0
  2  3  1  0
  4  3  1  0
  5  4  1  0
  5  6  1  1
  7  6  2  0
  8  6  1  0
  9  8  1  0
 10 11  1  0
  9 10  1  1
 11 12  1  0
 12 13  1  0
 13 14  1  0
 15  9  1  0
 15 16  2  0
 18 17  1  0
 19 18  1  1
 19 20  1  0
 20 15  1  0
 21 19  1  0
 22 21  1  0
 23 21  2  0
M  END
$$$$
