PKS.pdb
     RDKit          3D

 23 23  0  0  1  0  0  0  0  0999 V2000
    8.3540  -14.9678   19.2912 N   0  0  0  0  0  0  0  0  0  0  0  0
    8.6973  -13.9094   18.3288 C   0  0  0  0  0  0  0  0  0  0  0  0
    7.9370  -12.6782   18.8092 C   0  0  0  0  0  0  0  0  0  0  0  0
    7.4961  -13.0456   20.2100 C   0  0  0  0  0  0  0  0  0  0  0  0
    8.3996  -14.2125   20.5352 C   0  0  1  0  0  0  0  0  0  0  0  0
    7.8904  -15.0083   21.6755 C   0  0  0  0  0  0  0  0  0  0  0  0
    7.9045  -14.4773   22.8057 O   0  0  0  0  0  0  0  0  0  0  0  0
    7.3914  -16.3246   21.5674 N   0  0  0  0  0  0  0  0  0  0  0  0
    6.8920  -17.0707   22.7184 C   0  0  1  0  0  0  0  0  0  0  0  0
    6.2740  -18.3389   22.1688 C   0  0  0  0  0  0  0  0  0  0  0  0
    5.7914  -19.2555   23.2458 C   0  0  0  0  0  0  0  0  0  0  0  0
    5.1693  -20.4640   22.6125 C   0  0  0  0  0  0  0  0  0  0  0  0
    4.6148  -21.4303   23.6368 C   0  0  0  0  0  0  0  0  0  0  0  0
    3.9911  -22.5193   22.8829 N   0  0  0  0  0  0  0  0  0  0  0  0
    8.0337  -17.3867   23.6151 C   0  0  0  0  0  0  0  0  0  0  0  0
    9.1476  -17.7773   23.1235 O   0  0  0  0  0  0  0  0  0  0  0  0
    8.2001  -15.9054   27.3330 O   0  0  0  0  0  0  0  0  0  0  0  0
    9.3375  -16.4378   26.7425 C   0  0  0  0  0  0  0  0  0  0  0  0
    9.0024  -17.6259   25.8603 C   0  0  2  0  0  0  0  0  0  0  0  0
    7.9079  -17.2612   25.0226 N   0  0  0  0  0  0  0  0  0  0  0  0
    8.7921  -18.8427   26.6399 C   0  0  0  0  0  0  0  0  0  0  0  0
    9.7728  -19.3019   27.4913 O   0  0  0  0  0  0  0  0  0  0  0  0
    7.7215  -19.4751   26.5397 O   0  0  0  0  0  0  0  0  0  0  0  0
  1  5  1  0
  1  2  1  0
  2  3  1  0
  4  3  1  0
  5  4  1  0
  5  6  1  1
  7  6  2  0
  8  6  1  0
  9  8  1  0
 10 11  1  0
  9 10  1  6
 11 12  1  0
 12 13  1  0
 13 14  1  0
 15  9  1  0
 15 16  2  0
 18 17  1  0
 19 18  1  1
 19 20  1  0
 20 15  1  0
 21 19  1  0
 22 21  1  0
 23 21  2  0
M  END
$$$$
