CPC.pdb
     RDKit          3D

 20 20  0  0  1  0  0  0  0  0999 V2000
   13.6006   -9.8286  -12.2072 N   0  0  0  0  0  0  0  0  0  0  0  0
   14.6373   -9.4747  -11.3527 C   0  0  1  0  0  0  0  0  0  0  0  0
   15.6658  -10.6156  -11.3326 C   0  0  0  0  0  0  0  0  0  0  0  0
   14.9367  -12.1199  -10.6121 S   0  0  0  0  0  0  0  0  0  0  0  0
   15.3815   -8.2421  -11.6010 C   0  0  0  0  0  0  0  0  0  0  0  0
   15.4194   -7.8875  -12.8315 O   0  0  0  0  0  0  0  0  0  0  0  0
   16.0394   -7.4297  -10.6649 N   0  0  0  0  0  0  0  0  0  0  0  0
   16.2935   -7.6057   -9.2587 C   0  0  0  0  0  0  0  0  0  0  0  0
   16.0727   -6.2230   -8.7019 C   0  0  0  0  0  0  0  0  0  0  0  0
   16.1043   -5.2718   -9.8625 C   0  0  0  0  0  0  0  0  0  0  0  0
   16.6460   -6.1350  -10.9802 C   0  0  1  0  0  0  0  0  0  0  0  0
   18.1185   -6.2024  -11.0055 C   0  0  0  0  0  0  0  0  0  0  0  0
   18.7314   -6.7759  -10.0875 O   0  0  0  0  0  0  0  0  0  0  0  0
   18.8303   -5.6158  -12.0716 N   0  0  0  0  0  0  0  0  0  0  0  0
   20.2305   -5.9416  -12.3080 C   0  0  1  0  0  0  0  0  0  0  0  0
   20.2383   -7.1416  -13.2425 C   0  0  0  0  0  0  0  0  0  0  0  0
   21.9301   -7.5786  -13.6566 S   0  0  0  0  0  0  0  0  0  0  0  0
   20.8815   -4.7772  -12.9820 C   0  0  0  0  0  0  0  0  0  0  0  0
   20.2425   -4.0201  -13.7565 O   0  0  0  0  0  0  0  0  0  0  0  0
   22.2072   -4.4998  -12.7722 O   0  0  0  0  0  0  0  0  0  0  0  0
  2  1  1  6
  2  3  1  0
  4  3  1  0
  5  2  1  0
  5  6  2  0
  7  5  1  0
  8  7  1  0
  9  8  1  0
 10  9  1  0
 10 11  1  0
 11  7  1  0
 11 12  1  1
 12 13  2  0
 14 12  1  0
 14 15  1  0
 15 16  1  6
 16 17  1  0
 18 15  1  0
 18 20  1  0
 19 18  2  0
M  END
$$$$
