CPC.pdb
     RDKit          3D

 20 20  0  0  1  0  0  0  0  0999 V2000
   24.4367  -11.7873  -18.2890 N   0  0  0  0  0  0  0  0  0  0  0  0
   23.8029  -11.4775  -17.0920 C   0  0  1  0  0  0  0  0  0  0  0  0
   24.8670  -11.3651  -15.9899 C   0  0  0  0  0  0  0  0  0  0  0  0
   25.7898  -12.9262  -15.8316 S   0  0  0  0  0  0  0  0  0  0  0  0
   22.9810  -10.2725  -17.0073 C   0  0  0  0  0  0  0  0  0  0  0  0
   23.3466   -9.3282  -17.7922 O   0  0  0  0  0  0  0  0  0  0  0  0
   21.8680  -10.0452  -16.1835 N   0  0  0  0  0  0  0  0  0  0  0  0
   21.2712  -10.8412  -15.1428 C   0  0  0  0  0  0  0  0  0  0  0  0
   19.7953  -10.6419  -15.3720 C   0  0  0  0  0  0  0  0  0  0  0  0
   19.6468   -9.4407  -16.2596 C   0  0  0  0  0  0  0  0  0  0  0  0
   21.0355   -8.8419  -16.2373 C   0  0  1  0  0  0  0  0  0  0  0  0
   21.2699   -7.9519  -15.0855 C   0  0  0  0  0  0  0  0  0  0  0  0
   21.9434   -8.3495  -14.1183 O   0  0  0  0  0  0  0  0  0  0  0  0
   20.7293   -6.6500  -15.0824 N   0  0  0  0  0  0  0  0  0  0  0  0
   21.4212   -5.5520  -14.4203 C   0  0  1  0  0  0  0  0  0  0  0  0
   22.5550   -5.1406  -15.3469 C   0  0  0  0  0  0  0  0  0  0  0  0
   23.4216   -3.7273  -14.6568 S   0  0  0  0  0  0  0  0  0  0  0  0
   20.4647   -4.4143  -14.2629 C   0  0  0  0  0  0  0  0  0  0  0  0
   19.5716   -4.1790  -15.1164 O   0  0  0  0  0  0  0  0  0  0  0  0
   20.5355   -3.5874  -13.1723 O   0  0  0  0  0  0  0  0  0  0  0  0
  2  1  1  6
  2  3  1  0
  4  3  1  0
  5  2  1  0
  5  6  2  0
  7  5  1  0
  8  7  1  0
  9  8  1  0
 10  9  1  0
 10 11  1  0
 11  7  1  0
 11 12  1  1
 12 13  2  0
 14 12  1  0
 14 15  1  0
 15 16  1  6
 16 17  1  0
 18 15  1  0
 18 20  1  0
 19 18  2  0
M  END
$$$$
