CPC.pdb
     RDKit          3D

 20 20  0  0  1  0  0  0  0  0999 V2000
   27.8737  -19.4383  -16.5266 N   0  0  0  0  0  0  0  0  0  0  0  0
   27.3577  -19.2480  -15.2507 C   0  0  1  0  0  0  0  0  0  0  0  0
   26.7998  -17.8198  -15.1567 C   0  0  0  0  0  0  0  0  0  0  0  0
   28.1560  -16.6079  -15.0838 S   0  0  0  0  0  0  0  0  0  0  0  0
   26.3109  -20.1415  -14.7604 C   0  0  0  0  0  0  0  0  0  0  0  0
   25.7080  -20.8015  -15.6782 O   0  0  0  0  0  0  0  0  0  0  0  0
   25.9068  -20.3480  -13.4325 N   0  0  0  0  0  0  0  0  0  0  0  0
   26.3153  -19.7230  -12.2015 C   0  0  0  0  0  0  0  0  0  0  0  0
   26.3643  -20.8802  -11.2375 C   0  0  0  0  0  0  0  0  0  0  0  0
   25.5997  -22.0084  -11.8662 C   0  0  0  0  0  0  0  0  0  0  0  0
   24.8994  -21.3276  -13.0210 C   0  0  1  0  0  0  0  0  0  0  0  0
   23.6269  -20.6889  -12.6383 C   0  0  0  0  0  0  0  0  0  0  0  0
   23.6276  -19.5505  -12.1372 O   0  0  0  0  0  0  0  0  0  0  0  0
   22.4099  -21.3708  -12.8413 N   0  0  0  0  0  0  0  0  0  0  0  0
   21.2905  -20.7238  -13.5129 C   0  0  1  0  0  0  0  0  0  0  0  0
   21.7572  -20.4234  -14.9289 C   0  0  0  0  0  0  0  0  0  0  0  0
   20.4385  -19.6211  -15.8464 S   0  0  0  0  0  0  0  0  0  0  0  0
   20.1444  -21.6823  -13.5557 C   0  0  0  0  0  0  0  0  0  0  0  0
   20.2720  -22.8446  -14.0187 O   0  0  0  0  0  0  0  0  0  0  0  0
   18.9097  -21.3169  -13.0864 O   0  0  0  0  0  0  0  0  0  0  0  0
  2  1  1  6
  2  3  1  0
  4  3  1  0
  5  2  1  0
  5  6  2  0
  7  5  1  0
  8  7  1  0
  9  8  1  0
 10  9  1  0
 10 11  1  0
 11  7  1  0
 11 12  1  1
 12 13  2  0
 14 12  1  0
 14 15  1  0
 15 16  1  6
 16 17  1  0
 18 15  1  0
 18 20  1  0
 19 18  2  0
M  END
$$$$
