CPC.pdb
     RDKit          3D

 20 20  0  0  1  0  0  0  0  0999 V2000
   18.7349  -12.4328  -16.1007 N   0  0  0  0  0  0  0  0  0  0  0  0
   18.1945  -11.1855  -16.3879 C   0  0  1  0  0  0  0  0  0  0  0  0
   17.2192  -10.8045  -15.2639 C   0  0  0  0  0  0  0  0  0  0  0  0
   15.7633  -11.8969  -15.2840 S   0  0  0  0  0  0  0  0  0  0  0  0
   19.0867  -10.0439  -16.5752 C   0  0  0  0  0  0  0  0  0  0  0  0
   20.3284  -10.3118  -16.4089 O   0  0  0  0  0  0  0  0  0  0  0  0
   18.7403   -8.7252  -16.9076 N   0  0  0  0  0  0  0  0  0  0  0  0
   17.4615   -8.0965  -17.1133 C   0  0  0  0  0  0  0  0  0  0  0  0
   17.7191   -7.1876  -18.2874 C   0  0  0  0  0  0  0  0  0  0  0  0
   19.2080   -7.0518  -18.4195 C   0  0  0  0  0  0  0  0  0  0  0  0
   19.7088   -7.6485  -17.1229 C   0  0  1  0  0  0  0  0  0  0  0  0
   19.7281   -6.6866  -16.0058 C   0  0  0  0  0  0  0  0  0  0  0  0
   18.6841   -6.4449  -15.3742 O   0  0  0  0  0  0  0  0  0  0  0  0
   20.9314   -6.0416  -15.6550 N   0  0  0  0  0  0  0  0  0  0  0  0
   21.0553   -5.3175  -14.3969 C   0  0  1  0  0  0  0  0  0  0  0  0
   22.3525   -5.7894  -13.7580 C   0  0  0  0  0  0  0  0  0  0  0  0
   22.6899   -4.8236  -12.2822 S   0  0  0  0  0  0  0  0  0  0  0  0
   21.1473   -3.8562  -14.6973 C   0  0  0  0  0  0  0  0  0  0  0  0
   20.7499   -2.9873  -13.8798 O   0  0  0  0  0  0  0  0  0  0  0  0
   21.6730   -3.4186  -15.8849 O   0  0  0  0  0  0  0  0  0  0  0  0
  2  1  1  1
  2  3  1  0
  4  3  1  0
  5  2  1  0
  5  6  2  0
  7  5  1  0
  8  7  1  0
  9  8  1  0
 10  9  1  0
 10 11  1  0
 11  7  1  0
 11 12  1  1
 12 13  2  0
 14 12  1  0
 14 15  1  0
 15 16  1  6
 16 17  1  0
 18 15  1  0
 18 20  1  0
 19 18  2  0
M  END
$$$$
