CPC.pdb
     RDKit          3D

 20 20  0  0  1  0  0  0  0  0999 V2000
   18.4481  -13.0157  -16.5582 N   0  0  0  0  0  0  0  0  0  0  0  0
   19.6899  -12.4409  -16.7988 C   0  0  1  0  0  0  0  0  0  0  0  0
   19.7049  -11.8913  -18.2332 C   0  0  0  0  0  0  0  0  0  0  0  0
   19.7785  -13.2536  -19.4383 S   0  0  0  0  0  0  0  0  0  0  0  0
   20.1614  -11.3642  -15.9311 C   0  0  0  0  0  0  0  0  0  0  0  0
   19.2420  -10.8075  -15.2339 O   0  0  0  0  0  0  0  0  0  0  0  0
   21.4734  -10.8885  -15.7838 N   0  0  0  0  0  0  0  0  0  0  0  0
   22.6953  -11.2302  -16.4642 C   0  0  0  0  0  0  0  0  0  0  0  0
   23.7117  -11.2258  -15.3517 C   0  0  0  0  0  0  0  0  0  0  0  0
   23.0939  -10.4954  -14.1951 C   0  0  0  0  0  0  0  0  0  0  0  0
   21.8733   -9.8593  -14.8223 C   0  0  1  0  0  0  0  0  0  0  0  0
   22.1573   -8.5686  -15.4755 C   0  0  0  0  0  0  0  0  0  0  0  0
   22.4616   -8.5345  -16.6811 O   0  0  0  0  0  0  0  0  0  0  0  0
   22.0834   -7.3735  -14.7315 N   0  0  0  0  0  0  0  0  0  0  0  0
   21.7854   -6.1033  -15.3799 C   0  0  1  0  0  0  0  0  0  0  0  0
   20.2835   -6.0873  -15.6190 C   0  0  0  0  0  0  0  0  0  0  0  0
   19.7636   -4.4403  -16.1107 S   0  0  0  0  0  0  0  0  0  0  0  0
   22.1562   -4.9958  -14.4472 C   0  0  0  0  0  0  0  0  0  0  0  0
   21.9958   -5.0972  -13.2041 O   0  0  0  0  0  0  0  0  0  0  0  0
   22.6869   -3.8266  -14.9265 O   0  0  0  0  0  0  0  0  0  0  0  0
  2  1  1  1
  2  3  1  0
  4  3  1  0
  5  2  1  0
  5  6  2  0
  7  5  1  0
  8  7  1  0
  9  8  1  0
 10  9  1  0
 10 11  1  0
 11  7  1  0
 11 12  1  6
 12 13  2  0
 14 12  1  0
 14 15  1  0
 15 16  1  1
 16 17  1  0
 18 15  1  0
 18 20  1  0
 19 18  2  0
M  END
$$$$
