CPC.pdb
     RDKit          3D

 20 20  0  0  1  0  0  0  0  0999 V2000
   16.6494  -11.8928  -15.1076 N   0  0  0  0  0  0  0  0  0  0  0  0
   17.4479  -10.8561  -15.5747 C   0  0  1  0  0  0  0  0  0  0  0  0
   16.5374   -9.7358  -16.0998 C   0  0  0  0  0  0  0  0  0  0  0  0
   15.6984  -10.2585  -17.6284 S   0  0  0  0  0  0  0  0  0  0  0  0
   18.4084  -10.2282  -14.6704 C   0  0  0  0  0  0  0  0  0  0  0  0
   18.1869  -10.4504  -13.4283 O   0  0  0  0  0  0  0  0  0  0  0  0
   19.5139   -9.4317  -15.0061 N   0  0  0  0  0  0  0  0  0  0  0  0
   20.0280   -8.9988  -16.2794 C   0  0  0  0  0  0  0  0  0  0  0  0
   21.5195   -9.1085  -16.0943 C   0  0  0  0  0  0  0  0  0  0  0  0
   21.7730   -9.2060  -14.6181 C   0  0  0  0  0  0  0  0  0  0  0  0
   20.4291   -8.8390  -14.0289 C   0  0  1  0  0  0  0  0  0  0  0  0
   20.2290   -7.3849  -13.8906 C   0  0  0  0  0  0  0  0  0  0  0  0
   19.9763   -6.6930  -14.8929 O   0  0  0  0  0  0  0  0  0  0  0  0
   20.3245   -6.7805  -12.6207 N   0  0  0  0  0  0  0  0  0  0  0  0
   19.8898   -5.4060  -12.4095 C   0  0  1  0  0  0  0  0  0  0  0  0
   19.0925   -5.4041  -11.1142 C   0  0  0  0  0  0  0  0  0  0  0  0
   20.0210   -6.2450   -9.8275 S   0  0  0  0  0  0  0  0  0  0  0  0
   21.1007   -4.5438  -12.2538 C   0  0  0  0  0  0  0  0  0  0  0  0
   22.2545   -5.0354  -12.1610 O   0  0  0  0  0  0  0  0  0  0  0  0
   20.9856   -3.1789  -12.2074 O   0  0  0  0  0  0  0  0  0  0  0  0
  2  1  1  1
  2  3  1  0
  4  3  1  0
  5  2  1  0
  5  6  2  0
  7  5  1  0
  8  7  1  0
  9  8  1  0
 10  9  1  0
 10 11  1  0
 11  7  1  0
 11 12  1  6
 12 13  2  0
 14 12  1  0
 14 15  1  0
 15 16  1  1
 16 17  1  0
 18 15  1  0
 18 20  1  0
 19 18  2  0
M  END
$$$$
