CPC.pdb
     RDKit          3D

 20 20  0  0  1  0  0  0  0  0999 V2000
   27.2988  -18.8333  -18.9747 N   0  0  0  0  0  0  0  0  0  0  0  0
   27.8290  -19.7072  -18.0336 C   0  0  1  0  0  0  0  0  0  0  0  0
   27.3684  -19.2611  -16.6377 C   0  0  0  0  0  0  0  0  0  0  0  0
   28.0441  -17.6191  -16.2367 S   0  0  0  0  0  0  0  0  0  0  0  0
   27.5364  -21.1349  -18.1365 C   0  0  0  0  0  0  0  0  0  0  0  0
   26.5540  -21.4178  -18.9086 O   0  0  0  0  0  0  0  0  0  0  0  0
   28.1959  -22.1974  -17.4998 N   0  0  0  0  0  0  0  0  0  0  0  0
   29.2573  -22.2175  -16.5273 C   0  0  0  0  0  0  0  0  0  0  0  0
   30.1094  -23.3735  -16.9839 C   0  0  0  0  0  0  0  0  0  0  0  0
   29.2773  -24.1839  -17.9345 C   0  0  0  0  0  0  0  0  0  0  0  0
   27.8925  -23.6112  -17.7296 C   0  0  1  0  0  0  0  0  0  0  0  0
   27.1716  -24.2166  -16.5950 C   0  0  0  0  0  0  0  0  0  0  0  0
   27.7933  -24.5580  -15.5731 O   0  0  0  0  0  0  0  0  0  0  0  0
   25.7770  -24.4079  -16.6704 N   0  0  0  0  0  0  0  0  0  0  0  0
   24.9458  -24.3475  -15.4754 C   0  0  1  0  0  0  0  0  0  0  0  0
   25.1118  -22.9455  -14.9096 C   0  0  0  0  0  0  0  0  0  0  0  0
   24.0340  -22.7315  -13.4893 S   0  0  0  0  0  0  0  0  0  0  0  0
   23.5218  -24.5608  -15.8764 C   0  0  0  0  0  0  0  0  0  0  0  0
   22.7367  -25.2555  -15.1819 O   0  0  0  0  0  0  0  0  0  0  0  0
   23.0274  -23.9988  -17.0244 O   0  0  0  0  0  0  0  0  0  0  0  0
  2  1  1  6
  2  3  1  0
  4  3  1  0
  5  2  1  0
  5  6  2  0
  7  5  1  0
  8  7  1  0
  9  8  1  0
 10  9  1  0
 10 11  1  0
 11  7  1  0
 11 12  1  1
 12 13  2  0
 14 12  1  0
 14 15  1  0
 15 16  1  6
 16 17  1  0
 18 15  1  0
 18 20  1  0
 19 18  2  0
M  END
$$$$
