SGG.pdb
     RDKit          3D

 15 14  0  0  1  0  0  0  0  0999 V2000
   19.6829  -13.7483  -18.0288 O   0  0  0  0  0  0  0  0  0  0  0  0
   19.3439  -12.4471  -17.7115 C   0  0  0  0  0  0  0  0  0  0  0  0
   20.5223  -11.7070  -17.0947 C   0  0  2  0  0  0  0  0  0  0  0  0
   21.3277  -12.6203  -16.3202 N   0  0  0  0  0  0  0  0  0  0  0  0
   20.0835  -10.5345  -16.3176 C   0  0  0  0  0  0  0  0  0  0  0  0
   19.4956  -10.7039  -15.2195 O   0  0  0  0  0  0  0  0  0  0  0  0
   20.2851   -9.1839  -16.7363 N   0  0  0  0  0  0  0  0  0  0  0  0
   19.7772   -8.0714  -15.9657 C   0  0  0  0  0  0  0  0  0  0  0  0
   20.7830   -7.6419  -14.9463 C   0  0  0  0  0  0  0  0  0  0  0  0
   21.4836   -8.4489  -14.2924 O   0  0  0  0  0  0  0  0  0  0  0  0
   20.9613   -6.2564  -14.6992 N   0  0  0  0  0  0  0  0  0  0  0  0
   22.0386   -5.8193  -13.8404 C   0  0  0  0  0  0  0  0  0  0  0  0
   22.0206   -4.3460  -13.6803 C   0  0  0  0  0  0  0  0  0  0  0  0
   22.9261   -3.6419  -12.9065 O   0  0  0  0  0  0  0  0  0  0  0  0
   21.1315   -3.6972  -14.2819 O   0  0  0  0  0  0  0  0  0  0  0  0
  2  1  1  0
  3  4  1  1
  3  2  1  0
  5  3  1  0
  6  5  2  0
  7  5  1  0
  8  7  1  0
  9 11  1  0
  9  8  1  0
 10  9  2  0
 12 13  1  0
 12 11  1  0
 13 14  1  0
 15 13  2  0
M  END
$$$$
