SGG.pdb
     RDKit          3D

 15 14  0  0  1  0  0  0  0  0999 V2000
   19.1861  -10.4456  -19.4059 O   0  0  0  0  0  0  0  0  0  0  0  0
   19.2269  -10.1546  -18.0559 C   0  0  0  0  0  0  0  0  0  0  0  0
   20.5963  -10.4645  -17.4681 C   0  0  2  0  0  0  0  0  0  0  0  0
   20.8952  -11.8676  -17.6266 N   0  0  0  0  0  0  0  0  0  0  0  0
   20.7042  -10.0135  -16.0695 C   0  0  0  0  0  0  0  0  0  0  0  0
   20.4070  -10.8046  -15.1390 O   0  0  0  0  0  0  0  0  0  0  0  0
   21.1342   -8.7060  -15.6881 N   0  0  0  0  0  0  0  0  0  0  0  0
   21.2649   -8.3304  -14.2984 C   0  0  0  0  0  0  0  0  0  0  0  0
   21.9162   -6.9898  -14.1806 C   0  0  0  0  0  0  0  0  0  0  0  0
   22.1377   -6.4295  -13.0820 O   0  0  0  0  0  0  0  0  0  0  0  0
   22.3065   -6.3099  -15.3629 N   0  0  0  0  0  0  0  0  0  0  0  0
   23.0576   -5.0792  -15.2615 C   0  0  0  0  0  0  0  0  0  0  0  0
   22.1818   -3.9602  -14.8402 C   0  0  0  0  0  0  0  0  0  0  0  0
   21.6794   -3.0044  -15.7053 O   0  0  0  0  0  0  0  0  0  0  0  0
   21.8770   -3.8733  -13.6265 O   0  0  0  0  0  0  0  0  0  0  0  0
  2  1  1  0
  3  4  1  1
  3  2  1  0
  5  3  1  0
  6  5  2  0
  7  5  1  0
  8  7  1  0
  9 11  1  0
  9  8  1  0
 10  9  2  0
 12 13  1  0
 12 11  1  0
 13 14  1  0
 15 13  2  0
M  END
$$$$
