SGG.pdb
     RDKit          3D

 15 14  0  0  1  0  0  0  0  0999 V2000
   16.6064  -11.0292  -14.2417 O   0  0  0  0  0  0  0  0  0  0  0  0
   17.9824  -11.0749  -14.3575 C   0  0  0  0  0  0  0  0  0  0  0  0
   18.4236  -10.7851  -15.7852 C   0  0  2  0  0  0  0  0  0  0  0  0
   17.9914  -11.8481  -16.6605 N   0  0  0  0  0  0  0  0  0  0  0  0
   19.8731  -10.5331  -15.8675 C   0  0  0  0  0  0  0  0  0  0  0  0
   20.6607  -11.4976  -16.0386 O   0  0  0  0  0  0  0  0  0  0  0  0
   20.4602   -9.2352  -15.7636 N   0  0  0  0  0  0  0  0  0  0  0  0
   21.8933   -9.0504  -15.8015 C   0  0  0  0  0  0  0  0  0  0  0  0
   22.2392   -7.6141  -15.5716 C   0  0  0  0  0  0  0  0  0  0  0  0
   23.4179   -7.1921  -15.5239 O   0  0  0  0  0  0  0  0  0  0  0  0
   21.1905   -6.6748  -15.3977 N   0  0  0  0  0  0  0  0  0  0  0  0
   21.5063   -5.3191  -15.0085 C   0  0  0  0  0  0  0  0  0  0  0  0
   21.5595   -5.1930  -13.5328 C   0  0  0  0  0  0  0  0  0  0  0  0
   22.5625   -5.7323  -12.7469 O   0  0  0  0  0  0  0  0  0  0  0  0
   20.6405   -4.5595  -12.9605 O   0  0  0  0  0  0  0  0  0  0  0  0
  2  1  1  0
  3  4  1  6
  3  2  1  0
  5  3  1  0
  6  5  2  0
  7  5  1  0
  8  7  1  0
  9 11  1  0
  9  8  1  0
 10  9  2  0
 12 13  1  0
 12 11  1  0
 13 14  1  0
 15 13  2  0
M  END
$$$$
