SGG.pdb
     RDKit          3D

 15 14  0  0  1  0  0  0  0  0999 V2000
   17.0557   -8.6942  -18.1617 O   0  0  0  0  0  0  0  0  0  0  0  0
   18.2040   -8.7475  -17.3953 C   0  0  0  0  0  0  0  0  0  0  0  0
   18.2827  -10.0509  -16.6133 C   0  0  2  0  0  0  0  0  0  0  0  0
   17.0407  -10.2840  -15.9163 N   0  0  0  0  0  0  0  0  0  0  0  0
   19.4526  -10.0798  -15.7178 C   0  0  0  0  0  0  0  0  0  0  0  0
   19.9496  -11.1849  -15.3837 O   0  0  0  0  0  0  0  0  0  0  0  0
   20.0770   -8.9089  -15.1897 N   0  0  0  0  0  0  0  0  0  0  0  0
   21.1630   -8.9963  -14.2397 C   0  0  0  0  0  0  0  0  0  0  0  0
   21.6105   -7.6289  -13.8332 C   0  0  0  0  0  0  0  0  0  0  0  0
   22.4623   -7.4245  -12.9374 O   0  0  0  0  0  0  0  0  0  0  0  0
   21.0505   -6.5010  -14.4864 N   0  0  0  0  0  0  0  0  0  0  0  0
   21.4899   -5.1742  -14.1180 C   0  0  0  0  0  0  0  0  0  0  0  0
   21.0352   -4.1732  -15.1120 C   0  0  0  0  0  0  0  0  0  0  0  0
   20.8392   -2.8338  -14.8255 O   0  0  0  0  0  0  0  0  0  0  0  0
   20.8145   -4.5624  -16.2838 O   0  0  0  0  0  0  0  0  0  0  0  0
  2  1  1  0
  3  4  1  1
  3  2  1  0
  5  3  1  0
  6  5  2  0
  7  5  1  0
  8  7  1  0
  9 11  1  0
  9  8  1  0
 10  9  2  0
 12 13  1  0
 12 11  1  0
 13 14  1  0
 15 13  2  0
M  END
$$$$
