SGG.pdb
     RDKit          3D

 15 14  0  0  1  0  0  0  0  0999 V2000
   18.3877  -10.8544  -16.9565 O   0  0  0  0  0  0  0  0  0  0  0  0
   19.5856  -10.2906  -16.5615 C   0  0  0  0  0  0  0  0  0  0  0  0
   19.4510   -9.6057  -15.2088 C   0  0  2  0  0  0  0  0  0  0  0  0
   18.3385   -8.6866  -15.2297 N   0  0  0  0  0  0  0  0  0  0  0  0
   20.7116   -8.9652  -14.7941 C   0  0  0  0  0  0  0  0  0  0  0  0
   21.7711   -9.6411  -14.7699 O   0  0  0  0  0  0  0  0  0  0  0  0
   20.8156   -7.5941  -14.4078 N   0  0  0  0  0  0  0  0  0  0  0  0
   22.0683   -7.0300  -13.9582 C   0  0  0  0  0  0  0  0  0  0  0  0
   21.9307   -5.5558  -13.7508 C   0  0  0  0  0  0  0  0  0  0  0  0
   22.8371   -4.8455  -13.2573 O   0  0  0  0  0  0  0  0  0  0  0  0
   20.7198   -4.9197  -14.1270 N   0  0  0  0  0  0  0  0  0  0  0  0
   20.5829   -3.4911  -13.9555 C   0  0  0  0  0  0  0  0  0  0  0  0
   21.2227   -2.7618  -15.0758 C   0  0  0  0  0  0  0  0  0  0  0  0
   20.9909   -1.4280  -15.3620 O   0  0  0  0  0  0  0  0  0  0  0  0
   22.0226   -3.3903  -15.8096 O   0  0  0  0  0  0  0  0  0  0  0  0
  2  1  1  0
  3  4  1  6
  3  2  1  0
  5  3  1  0
  6  5  2  0
  7  5  1  0
  8  7  1  0
  9 11  1  0
  9  8  1  0
 10  9  2  0
 12 13  1  0
 12 11  1  0
 13 14  1  0
 15 13  2  0
M  END
$$$$
