SGG.pdb
     RDKit          3D

 15 14  0  0  1  0  0  0  0  0999 V2000
   19.4753  -14.0772  -17.3459 O   0  0  0  0  0  0  0  0  0  0  0  0
   19.1018  -12.7611  -17.5388 C   0  0  0  0  0  0  0  0  0  0  0  0
   20.2389  -11.8106  -17.1918 C   0  0  2  0  0  0  0  0  0  0  0  0
   20.7176  -12.0804  -15.8573 N   0  0  0  0  0  0  0  0  0  0  0  0
   19.8503  -10.4023  -17.3838 C   0  0  0  0  0  0  0  0  0  0  0  0
   19.6279   -9.9739  -18.5445 O   0  0  0  0  0  0  0  0  0  0  0  0
   19.7050   -9.4661  -16.3150 N   0  0  0  0  0  0  0  0  0  0  0  0
   19.3676   -8.0828  -16.5644 C   0  0  0  0  0  0  0  0  0  0  0  0
   19.8987   -7.2122  -15.4711 C   0  0  0  0  0  0  0  0  0  0  0  0
   19.4851   -6.0486  -15.2595 O   0  0  0  0  0  0  0  0  0  0  0  0
   20.9203   -7.7173  -14.6264 N   0  0  0  0  0  0  0  0  0  0  0  0
   21.3793   -6.9218  -13.5103 C   0  0  0  0  0  0  0  0  0  0  0  0
   22.1481   -5.7458  -13.9819 C   0  0  0  0  0  0  0  0  0  0  0  0
   22.3025   -5.4074  -15.3146 O   0  0  0  0  0  0  0  0  0  0  0  0
   22.6921   -5.0121  -13.1221 O   0  0  0  0  0  0  0  0  0  0  0  0
  2  1  1  0
  3  4  1  1
  3  2  1  0
  5  3  1  0
  6  5  2  0
  7  5  1  0
  8  7  1  0
  9 11  1  0
  9  8  1  0
 10  9  2  0
 12 13  1  0
 12 11  1  0
 13 14  1  0
 15 13  2  0
M  END
$$$$
