SGG.pdb
     RDKit          3D

 15 14  0  0  1  0  0  0  0  0999 V2000
   16.7039  -12.9327  -17.9657 O   0  0  0  0  0  0  0  0  0  0  0  0
   16.6585  -11.8910  -17.0592 C   0  0  0  0  0  0  0  0  0  0  0  0
   18.0300  -11.6304  -16.4525 C   0  0  2  0  0  0  0  0  0  0  0  0
   18.4651  -12.7842  -15.7026 N   0  0  0  0  0  0  0  0  0  0  0  0
   18.0466  -10.3923  -15.6537 C   0  0  0  0  0  0  0  0  0  0  0  0
   17.5190  -10.3842  -14.5129 O   0  0  0  0  0  0  0  0  0  0  0  0
   18.6359   -9.1693  -16.0974 N   0  0  0  0  0  0  0  0  0  0  0  0
   18.5897   -7.9725  -15.2881 C   0  0  0  0  0  0  0  0  0  0  0  0
   19.8806   -7.7885  -14.5567 C   0  0  0  0  0  0  0  0  0  0  0  0
   20.7906   -8.6497  -14.5450 O   0  0  0  0  0  0  0  0  0  0  0  0
   20.0967   -6.5849  -13.8376 N   0  0  0  0  0  0  0  0  0  0  0  0
   21.3564   -6.3767  -13.1601 C   0  0  0  0  0  0  0  0  0  0  0  0
   22.2616   -5.5343  -13.9771 C   0  0  0  0  0  0  0  0  0  0  0  0
   22.6377   -4.2474  -13.6351 O   0  0  0  0  0  0  0  0  0  0  0  0
   22.7148   -6.0158  -15.0431 O   0  0  0  0  0  0  0  0  0  0  0  0
  2  1  1  0
  3  4  1  1
  3  2  1  0
  5  3  1  0
  6  5  2  0
  7  5  1  0
  8  7  1  0
  9 11  1  0
  9  8  1  0
 10  9  2  0
 12 13  1  0
 12 11  1  0
 13 14  1  0
 15 13  2  0
M  END
$$$$
