SGG.pdb
     RDKit          3D

 15 14  0  0  1  0  0  0  0  0999 V2000
   18.0079  -14.2906  -16.2427 O   0  0  0  0  0  0  0  0  0  0  0  0
   18.3849  -13.0594  -16.7435 C   0  0  0  0  0  0  0  0  0  0  0  0
   18.8802  -12.1430  -15.6336 C   0  0  2  0  0  0  0  0  0  0  0  0
   17.8742  -12.0247  -14.6057 N   0  0  0  0  0  0  0  0  0  0  0  0
   19.3149  -10.8365  -16.1585 C   0  0  0  0  0  0  0  0  0  0  0  0
   20.2189  -10.7891  -17.0305 O   0  0  0  0  0  0  0  0  0  0  0  0
   18.7660   -9.5881  -15.7339 N   0  0  0  0  0  0  0  0  0  0  0  0
   19.2154   -8.3356  -16.2984 C   0  0  0  0  0  0  0  0  0  0  0  0
   19.5323   -7.3588  -15.2118 C   0  0  0  0  0  0  0  0  0  0  0  0
   19.0186   -7.4128  -14.0704 O   0  0  0  0  0  0  0  0  0  0  0  0
   20.4581   -6.3165  -15.4743 N   0  0  0  0  0  0  0  0  0  0  0  0
   20.7018   -5.3100  -14.4659 C   0  0  0  0  0  0  0  0  0  0  0  0
   21.8251   -5.7076  -13.5847 C   0  0  0  0  0  0  0  0  0  0  0  0
   22.0958   -7.0147  -13.2201 O   0  0  0  0  0  0  0  0  0  0  0  0
   22.5765   -4.8060  -13.1421 O   0  0  0  0  0  0  0  0  0  0  0  0
  2  1  1  0
  3  4  1  1
  3  2  1  0
  5  3  1  0
  6  5  2  0
  7  5  1  0
  8  7  1  0
  9 11  1  0
  9  8  1  0
 10  9  2  0
 12 13  1  0
 12 11  1  0
 13 14  1  0
 15 13  2  0
M  END
$$$$
