EGA.pdb
     RDKit          3D

 19 18  0  0  1  0  0  0  0  0999 V2000
    7.9272  -13.3684   17.1678 N   0  0  0  0  0  0  0  0  0  0  0  0
    8.4844  -14.7268   17.0255 C   0  0  1  0  0  0  0  0  0  0  0  0
    8.8785  -14.9422   15.5692 C   0  0  0  0  0  0  0  0  0  0  0  0
    7.8070  -14.6559   14.5815 C   0  0  0  0  0  0  0  0  0  0  0  0
    8.3565  -15.0694   13.2358 C   0  0  0  0  0  0  0  0  0  0  0  0
    9.5212  -15.5621   13.1452 O   0  0  0  0  0  0  0  0  0  0  0  0
    9.7963  -14.7338   17.7545 C   0  0  0  0  0  0  0  0  0  0  0  0
   10.4328  -15.8120   17.7928 O   0  0  0  0  0  0  0  0  0  0  0  0
    7.6280  -14.9299   12.0733 O   0  0  0  0  0  0  0  0  0  0  0  0
   10.3617  -13.6243   18.3966 N   0  0  0  0  0  0  0  0  0  0  0  0
   11.6054  -13.6529   19.1235 C   0  0  0  0  0  0  0  0  0  0  0  0
   11.3416  -14.0825   20.5144 C   0  0  0  0  0  0  0  0  0  0  0  0
   12.3313  -14.2378   21.3200 O   0  0  0  0  0  0  0  0  0  0  0  0
    8.4818  -14.3540   22.9098 C   0  0  0  0  0  0  0  0  0  0  0  0
    9.8411  -14.7576   22.3946 C   0  0  2  0  0  0  0  0  0  0  0  0
   10.0773  -14.3389   21.0459 N   0  0  0  0  0  0  0  0  0  0  0  0
    9.9861  -16.2182   22.5154 C   0  0  0  0  0  0  0  0  0  0  0  0
   10.0106  -16.9222   21.4841 O   0  0  0  0  0  0  0  0  0  0  0  0
   10.0951  -16.8459   23.7356 O   0  0  0  0  0  0  0  0  0  0  0  0
  2  1  1  6
  2  7  1  0
  3  2  1  0
  4  3  1  0
  5  4  1  0
  5  6  2  0
  7  8  2  0
  9  5  1  0
 10 11  1  0
 10  7  1  0
 12 13  2  0
 12 11  1  0
 15 14  1  6
 15 16  1  0
 15 17  1  0
 16 12  1  0
 17 19  1  0
 18 17  2  0
M  END
$$$$
