EGA.pdb
     RDKit          3D

 19 18  0  0  1  0  0  0  0  0999 V2000
    4.1242  -19.0826   21.3404 N   0  0  0  0  0  0  0  0  0  0  0  0
    5.4167  -19.7811   21.2081 C   0  0  1  0  0  0  0  0  0  0  0  0
    5.9697  -19.5231   19.8116 C   0  0  0  0  0  0  0  0  0  0  0  0
    5.0081  -19.7566   18.7043 C   0  0  0  0  0  0  0  0  0  0  0  0
    5.7511  -19.4321   17.4289 C   0  0  0  0  0  0  0  0  0  0  0  0
    5.6128  -18.2977   16.8799 O   0  0  0  0  0  0  0  0  0  0  0  0
    6.3844  -19.0732   22.1110 C   0  0  0  0  0  0  0  0  0  0  0  0
    7.5269  -19.5702   22.2402 O   0  0  0  0  0  0  0  0  0  0  0  0
    6.5934  -20.3392   16.8212 O   0  0  0  0  0  0  0  0  0  0  0  0
    6.1045  -17.8983   22.8210 N   0  0  0  0  0  0  0  0  0  0  0  0
    7.0619  -17.1936   23.6354 C   0  0  0  0  0  0  0  0  0  0  0  0
    6.9563  -17.6756   25.0302 C   0  0  0  0  0  0  0  0  0  0  0  0
    5.8113  -17.6558   25.6143 O   0  0  0  0  0  0  0  0  0  0  0  0
    7.5909  -19.9558   27.4122 C   0  0  0  0  0  0  0  0  0  0  0  0
    7.9281  -18.5041   27.1776 C   0  0  2  0  0  0  0  0  0  0  0  0
    8.0192  -18.1664   25.7891 N   0  0  0  0  0  0  0  0  0  0  0  0
    9.1878  -18.1857   27.8709 C   0  0  0  0  0  0  0  0  0  0  0  0
   10.1576  -17.7484   27.2166 O   0  0  0  0  0  0  0  0  0  0  0  0
    9.3408  -18.3549   29.2283 O   0  0  0  0  0  0  0  0  0  0  0  0
  2  1  1  6
  2  7  1  0
  3  2  1  0
  4  3  1  0
  5  4  1  0
  5  6  2  0
  7  8  2  0
  9  5  1  0
 10 11  1  0
 10  7  1  0
 12 13  2  0
 12 11  1  0
 15 14  1  6
 15 16  1  0
 15 17  1  0
 16 12  1  0
 17 19  1  0
 18 17  2  0
M  END
$$$$
