EGA.pdb
     RDKit          3D

 19 18  0  0  1  0  0  0  0  0999 V2000
   11.3922  -19.0575   22.1642 N   0  0  0  0  0  0  0  0  0  0  0  0
   11.8904  -17.7024   22.4665 C   0  0  1  0  0  0  0  0  0  0  0  0
   12.0706  -16.9454   21.1562 C   0  0  0  0  0  0  0  0  0  0  0  0
   11.3631  -17.5339   19.9906 C   0  0  0  0  0  0  0  0  0  0  0  0
   11.6832  -16.6427   18.8127 C   0  0  0  0  0  0  0  0  0  0  0  0
   12.4550  -15.6471   18.9559 O   0  0  0  0  0  0  0  0  0  0  0  0
   10.7700  -16.9726   23.1484 C   0  0  0  0  0  0  0  0  0  0  0  0
   11.0487  -15.9038   23.7393 O   0  0  0  0  0  0  0  0  0  0  0  0
   11.1586  -16.8710   17.5580 O   0  0  0  0  0  0  0  0  0  0  0  0
    9.4355  -17.3985   23.1742 N   0  0  0  0  0  0  0  0  0  0  0  0
    8.3627  -16.6712   23.8037 C   0  0  0  0  0  0  0  0  0  0  0  0
    8.2858  -17.0620   25.2286 C   0  0  0  0  0  0  0  0  0  0  0  0
    7.3398  -16.5868   25.9578 O   0  0  0  0  0  0  0  0  0  0  0  0
    9.3814  -19.7746   27.4709 C   0  0  0  0  0  0  0  0  0  0  0  0
    9.0666  -18.3168   27.2430 C   0  0  2  0  0  0  0  0  0  0  0  0
    9.1728  -17.9278   25.8692 N   0  0  0  0  0  0  0  0  0  0  0  0
    9.9558  -17.4966   28.0829 C   0  0  0  0  0  0  0  0  0  0  0  0
    9.9440  -17.6473   29.3227 O   0  0  0  0  0  0  0  0  0  0  0  0
   10.8087  -16.5576   27.5488 O   0  0  0  0  0  0  0  0  0  0  0  0
  2  1  1  6
  2  7  1  0
  3  2  1  0
  4  3  1  0
  5  4  1  0
  5  6  2  0
  7  8  2  0
  9  5  1  0
 10 11  1  0
 10  7  1  0
 12 13  2  0
 12 11  1  0
 15 14  1  6
 15 16  1  0
 15 17  1  0
 16 12  1  0
 17 19  1  0
 18 17  2  0
M  END
$$$$
