EGA.pdb
     RDKit          3D

 19 18  0  0  1  0  0  0  0  0999 V2000
   10.1433  -16.6406   21.2797 N   0  0  0  0  0  0  0  0  0  0  0  0
    8.9684  -16.3344   20.4421 C   0  0  1  0  0  0  0  0  0  0  0  0
    8.4820  -17.6250   19.7937 C   0  0  0  0  0  0  0  0  0  0  0  0
    8.7205  -18.8549   20.5910 C   0  0  0  0  0  0  0  0  0  0  0  0
    8.2229  -20.0049   19.7461 C   0  0  0  0  0  0  0  0  0  0  0  0
    7.7422  -19.7893   18.5928 O   0  0  0  0  0  0  0  0  0  0  0  0
    7.8552  -15.9645   21.3783 C   0  0  0  0  0  0  0  0  0  0  0  0
    6.8000  -15.5141   20.8756 O   0  0  0  0  0  0  0  0  0  0  0  0
    8.2698  -21.3109   20.1864 O   0  0  0  0  0  0  0  0  0  0  0  0
    7.9089  -16.0842   22.7732 N   0  0  0  0  0  0  0  0  0  0  0  0
    6.8118  -15.7826   23.6573 C   0  0  0  0  0  0  0  0  0  0  0  0
    7.0859  -14.5029   24.3472 C   0  0  0  0  0  0  0  0  0  0  0  0
    7.0017  -13.4043   23.6850 O   0  0  0  0  0  0  0  0  0  0  0  0
    6.2862  -12.3609   26.4852 C   0  0  0  0  0  0  0  0  0  0  0  0
    7.5807  -13.1275   26.3734 C   0  0  2  0  0  0  0  0  0  0  0  0
    7.4352  -14.3785   25.6922 N   0  0  0  0  0  0  0  0  0  0  0  0
    8.1340  -13.3346   27.7224 C   0  0  0  0  0  0  0  0  0  0  0  0
    8.2535  -14.4953   28.1678 O   0  0  0  0  0  0  0  0  0  0  0  0
    8.5280  -12.2861   28.5224 O   0  0  0  0  0  0  0  0  0  0  0  0
  2  1  1  1
  2  7  1  0
  3  2  1  0
  4  3  1  0
  5  4  1  0
  5  6  2  0
  7  8  2  0
  9  5  1  0
 10 11  1  0
 10  7  1  0
 12 13  2  0
 12 11  1  0
 15 14  1  1
 15 16  1  0
 15 17  1  0
 16 12  1  0
 17 19  1  0
 18 17  2  0
M  END
$$$$
