EGA.pdb
     RDKit          3D

 19 18  0  0  1  0  0  0  0  0999 V2000
   10.0484  -16.8084   20.6148 N   0  0  0  0  0  0  0  0  0  0  0  0
    9.8407  -17.9583   21.5150 C   0  0  1  0  0  0  0  0  0  0  0  0
   11.1994  -18.4515   21.9977 C   0  0  0  0  0  0  0  0  0  0  0  0
   12.1825  -17.3807   22.3017 C   0  0  0  0  0  0  0  0  0  0  0  0
   13.4685  -18.0845   22.6685 C   0  0  0  0  0  0  0  0  0  0  0  0
   13.6202  -18.5752   23.8277 O   0  0  0  0  0  0  0  0  0  0  0  0
    9.1940  -17.4219   22.7586 C   0  0  0  0  0  0  0  0  0  0  0  0
    8.6752  -18.2475   23.5450 O   0  0  0  0  0  0  0  0  0  0  0  0
   14.5102  -18.2190   21.7749 O   0  0  0  0  0  0  0  0  0  0  0  0
    9.1262  -16.0660   23.1050 N   0  0  0  0  0  0  0  0  0  0  0  0
    8.4398  -15.5572   24.2653 C   0  0  0  0  0  0  0  0  0  0  0  0
    9.4177  -15.3656   25.3588 C   0  0  0  0  0  0  0  0  0  0  0  0
   10.6528  -15.6561   25.1521 O   0  0  0  0  0  0  0  0  0  0  0  0
    9.7488  -13.2290   28.3285 C   0  0  0  0  0  0  0  0  0  0  0  0
   10.0882  -14.5107   27.6087 C   0  0  2  0  0  0  0  0  0  0  0  0
    9.1103  -14.8811   26.6306 N   0  0  0  0  0  0  0  0  0  0  0  0
   10.2616  -15.5864   28.5995 C   0  0  0  0  0  0  0  0  0  0  0  0
   11.1996  -15.5213   29.4216 O   0  0  0  0  0  0  0  0  0  0  0  0
    9.4213  -16.6751   28.6547 O   0  0  0  0  0  0  0  0  0  0  0  0
  2  1  1  6
  2  7  1  0
  3  2  1  0
  4  3  1  0
  5  4  1  0
  5  6  2  0
  7  8  2  0
  9  5  1  0
 10 11  1  0
 10  7  1  0
 12 13  2  0
 12 11  1  0
 15 14  1  1
 15 16  1  0
 15 17  1  0
 16 12  1  0
 17 19  1  0
 18 17  2  0
M  END
$$$$
