EGA.pdb
     RDKit          3D

 19 18  0  0  1  0  0  0  0  0999 V2000
    5.4407  -15.9904   21.0023 N   0  0  0  0  0  0  0  0  0  0  0  0
    6.8379  -15.8705   21.4599 C   0  0  1  0  0  0  0  0  0  0  0  0
    7.3366  -14.4660   21.1414 C   0  0  0  0  0  0  0  0  0  0  0  0
    7.5047  -14.1742   19.6950 C   0  0  0  0  0  0  0  0  0  0  0  0
    8.7594  -14.8983   19.2647 C   0  0  0  0  0  0  0  0  0  0  0  0
    9.8973  -14.3709   19.4509 O   0  0  0  0  0  0  0  0  0  0  0  0
    6.8054  -15.9054   22.9600 C   0  0  0  0  0  0  0  0  0  0  0  0
    5.8173  -15.3888   23.5310 O   0  0  0  0  0  0  0  0  0  0  0  0
    8.7192  -16.1384   18.6628 O   0  0  0  0  0  0  0  0  0  0  0  0
    7.7988  -16.4718   23.7695 N   0  0  0  0  0  0  0  0  0  0  0  0
    7.6903  -16.6305   25.1976 C   0  0  0  0  0  0  0  0  0  0  0  0
    8.7425  -15.8237   25.8539 C   0  0  0  0  0  0  0  0  0  0  0  0
    9.6527  -15.2747   25.1309 O   0  0  0  0  0  0  0  0  0  0  0  0
    9.2471  -13.6241   28.6271 C   0  0  0  0  0  0  0  0  0  0  0  0
    9.8321  -14.7710   27.8406 C   0  0  2  0  0  0  0  0  0  0  0  0
    8.8360  -15.5968   27.2274 N   0  0  0  0  0  0  0  0  0  0  0  0
   10.6931  -15.5715   28.7274 C   0  0  0  0  0  0  0  0  0  0  0  0
   10.3562  -16.7365   29.0260 O   0  0  0  0  0  0  0  0  0  0  0  0
   11.8685  -15.0795   29.2481 O   0  0  0  0  0  0  0  0  0  0  0  0
  2  1  1  6
  2  7  1  0
  3  2  1  0
  4  3  1  0
  5  4  1  0
  5  6  2  0
  7  8  2  0
  9  5  1  0
 10 11  1  0
 10  7  1  0
 12 13  2  0
 12 11  1  0
 15 14  1  1
 15 16  1  0
 15 17  1  0
 16 12  1  0
 17 19  1  0
 18 17  2  0
M  END
$$$$
