EGA.pdb
     RDKit          3D

 19 18  0  0  1  0  0  0  0  0999 V2000
   10.3145  -16.4506   20.5556 N   0  0  0  0  0  0  0  0  0  0  0  0
   10.1084  -17.7380   21.2455 C   0  0  1  0  0  0  0  0  0  0  0  0
   11.4645  -18.2813   21.6794 C   0  0  0  0  0  0  0  0  0  0  0  0
   12.4361  -17.2527   22.1304 C   0  0  0  0  0  0  0  0  0  0  0  0
   13.7406  -17.9805   22.3592 C   0  0  0  0  0  0  0  0  0  0  0  0
   14.4897  -18.2729   21.3789 O   0  0  0  0  0  0  0  0  0  0  0  0
    9.4177  -17.4277   22.5413 C   0  0  0  0  0  0  0  0  0  0  0  0
    8.9667  -18.3908   23.2034 O   0  0  0  0  0  0  0  0  0  0  0  0
   14.1617  -18.3499   23.6193 O   0  0  0  0  0  0  0  0  0  0  0  0
    9.2386  -16.1407   23.0652 N   0  0  0  0  0  0  0  0  0  0  0  0
    8.5620  -15.8551   24.3050 C   0  0  0  0  0  0  0  0  0  0  0  0
    9.5679  -15.5256   25.3387 C   0  0  0  0  0  0  0  0  0  0  0  0
   10.8157  -15.5617   25.0318 O   0  0  0  0  0  0  0  0  0  0  0  0
    9.8228  -13.3844   28.2495 C   0  0  0  0  0  0  0  0  0  0  0  0
   10.2408  -14.6750   27.5894 C   0  0  2  0  0  0  0  0  0  0  0  0
    9.2740  -15.1661   26.6544 N   0  0  0  0  0  0  0  0  0  0  0  0
   10.5109  -15.6812   28.6304 C   0  0  0  0  0  0  0  0  0  0  0  0
    9.7406  -16.6558   28.7597 O   0  0  0  0  0  0  0  0  0  0  0  0
   11.5912  -15.5876   29.4781 O   0  0  0  0  0  0  0  0  0  0  0  0
  2  1  1  6
  2  7  1  0
  3  2  1  0
  4  3  1  0
  5  4  1  0
  5  6  2  0
  7  8  2  0
  9  5  1  0
 10 11  1  0
 10  7  1  0
 12 13  2  0
 12 11  1  0
 15 14  1  1
 15 16  1  0
 15 17  1  0
 16 12  1  0
 17 19  1  0
 18 17  2  0
M  END
$$$$
