EGA.pdb
     RDKit          3D

 19 18  0  0  1  0  0  0  0  0999 V2000
   10.9047  -19.1638   22.3194 N   0  0  0  0  0  0  0  0  0  0  0  0
   11.9682  -18.1634   22.5290 C   0  0  1  0  0  0  0  0  0  0  0  0
   12.4483  -17.6697   21.1695 C   0  0  0  0  0  0  0  0  0  0  0  0
   12.6228  -18.7298   20.1442 C   0  0  0  0  0  0  0  0  0  0  0  0
   13.6794  -18.2208   19.1911 C   0  0  0  0  0  0  0  0  0  0  0  0
   14.2266  -17.0939   19.3863 O   0  0  0  0  0  0  0  0  0  0  0  0
   11.3127  -16.9569   23.1351 C   0  0  0  0  0  0  0  0  0  0  0  0
   12.0403  -15.9712   23.3964 O   0  0  0  0  0  0  0  0  0  0  0  0
   14.0838  -18.9470   18.0907 O   0  0  0  0  0  0  0  0  0  0  0  0
    9.9474  -16.8513   23.4315 N   0  0  0  0  0  0  0  0  0  0  0  0
    9.3350  -15.6976   24.0398 C   0  0  0  0  0  0  0  0  0  0  0  0
    9.9271  -15.4870   25.3792 C   0  0  0  0  0  0  0  0  0  0  0  0
   10.9240  -16.2121   25.7439 O   0  0  0  0  0  0  0  0  0  0  0  0
    9.6325  -12.9954   28.2067 C   0  0  0  0  0  0  0  0  0  0  0  0
   10.1870  -14.2157   27.5142 C   0  0  2  0  0  0  0  0  0  0  0  0
    9.4888  -14.5422   26.3075 N   0  0  0  0  0  0  0  0  0  0  0  0
   10.1609  -15.3523   28.4504 C   0  0  0  0  0  0  0  0  0  0  0  0
    9.3717  -16.2990   28.2481 O   0  0  0  0  0  0  0  0  0  0  0  0
   10.9809  -15.4122   29.5542 O   0  0  0  0  0  0  0  0  0  0  0  0
  2  1  1  6
  2  7  1  0
  3  2  1  0
  4  3  1  0
  5  4  1  0
  5  6  2  0
  7  8  2  0
  9  5  1  0
 10 11  1  0
 10  7  1  0
 12 13  2  0
 12 11  1  0
 15 14  1  1
 15 16  1  0
 15 17  1  0
 16 12  1  0
 17 19  1  0
 18 17  2  0
M  END
$$$$
