EGA.pdb
     RDKit          3D

 19 18  0  0  1  0  0  0  0  0999 V2000
    8.2187  -12.6178   18.5070 N   0  0  0  0  0  0  0  0  0  0  0  0
    8.2374  -14.0871   18.6357 C   0  0  1  0  0  0  0  0  0  0  0  0
    8.6010  -14.6906   17.2844 C   0  0  0  0  0  0  0  0  0  0  0  0
    7.6878  -14.3283   16.1707 C   0  0  0  0  0  0  0  0  0  0  0  0
    8.1917  -15.0737   14.9565 C   0  0  0  0  0  0  0  0  0  0  0  0
    7.6595  -14.8811   13.8220 O   0  0  0  0  0  0  0  0  0  0  0  0
    9.4111  -14.4295   19.5062 C   0  0  0  0  0  0  0  0  0  0  0  0
   10.3321  -13.5851   19.5966 O   0  0  0  0  0  0  0  0  0  0  0  0
    9.2309  -15.9772   15.0311 O   0  0  0  0  0  0  0  0  0  0  0  0
    9.5541  -15.6238   20.2246 N   0  0  0  0  0  0  0  0  0  0  0  0
   10.6679  -15.9242   21.0880 C   0  0  0  0  0  0  0  0  0  0  0  0
   10.2934  -15.6119   22.4848 C   0  0  0  0  0  0  0  0  0  0  0  0
   11.1499  -15.8123   23.4222 O   0  0  0  0  0  0  0  0  0  0  0  0
    7.5001  -13.9365   24.3810 C   0  0  0  0  0  0  0  0  0  0  0  0
    8.6999  -14.8414   24.2481 C   0  0  2  0  0  0  0  0  0  0  0  0
    9.0585  -15.1018   22.8866 N   0  0  0  0  0  0  0  0  0  0  0  0
    8.4325  -16.1012   24.9624 C   0  0  0  0  0  0  0  0  0  0  0  0
    8.0364  -17.0991   24.3242 O   0  0  0  0  0  0  0  0  0  0  0  0
    8.6023  -16.2232   26.3229 O   0  0  0  0  0  0  0  0  0  0  0  0
  2  1  1  6
  2  7  1  0
  3  2  1  0
  4  3  1  0
  5  4  1  0
  5  6  2  0
  7  8  2  0
  9  5  1  0
 10 11  1  0
 10  7  1  0
 12 13  2  0
 12 11  1  0
 15 14  1  6
 15 16  1  0
 15 17  1  0
 16 12  1  0
 17 19  1  0
 18 17  2  0
M  END
$$$$
