RSI.pdb
     RDKit          3D

 26 25  0  0  1  0  0  0  0  0999 V2000
   18.5303  -23.9155   -8.8267 N   0  0  0  0  0  0  0  0  0  0  0  0
   18.3600  -24.6455  -10.0291 C   0  0  0  0  0  0  0  0  0  0  0  0
   17.3568  -25.4744  -10.1698 N   0  0  0  0  0  0  0  0  0  0  0  0
   19.2752  -24.4959  -11.1165 N   0  0  0  0  0  0  0  0  0  0  0  0
   19.9688  -23.2526  -11.3566 C   0  0  0  0  0  0  0  0  0  0  0  0
   19.8312  -22.8633  -12.8117 C   0  0  0  0  0  0  0  0  0  0  0  0
   21.1244  -22.2089  -13.2675 C   0  0  0  0  0  0  0  0  0  0  0  0
   21.3095  -20.9507  -12.4443 C   0  0  2  0  0  0  0  0  0  0  0  0
   20.3225  -19.9525  -12.8830 N   0  0  0  0  0  0  0  0  0  0  0  0
   22.6724  -20.4471  -12.7350 C   0  0  0  0  0  0  0  0  0  0  0  0
   22.8354  -19.5556  -13.5965 O   0  0  0  0  0  0  0  0  0  0  0  0
   17.2600  -26.0088  -11.0616 O   0  0  0  0  0  0  0  0  0  0  0  0
   25.9328  -22.4444  -11.3196 C   0  0  0  0  0  0  0  0  0  0  0  0
   26.1676  -21.0482  -11.3327 C   0  0  1  0  0  0  0  0  0  0  0  0
   25.1650  -20.4803  -12.3074 N   0  0  0  0  0  0  0  0  0  0  0  0
   23.8152  -20.9475  -12.0618 C   0  0  0  0  0  0  0  0  0  0  0  0
   25.6126  -20.8415  -13.6819 O   0  0  0  0  0  0  0  0  0  0  0  0
   25.1040  -21.8328  -14.2651 C   0  0  0  0  0  0  0  0  0  0  0  0
   29.2879  -17.5727  -16.7067 C   0  0  0  0  0  0  0  0  0  0  0  0
   28.4365  -18.4039  -15.7677 C   0  0  2  0  0  0  0  0  0  0  0  0
   27.3058  -19.0681  -16.4696 C   0  0  0  0  0  0  0  0  0  0  0  0
   26.1251  -18.1167  -16.5300 C   0  0  1  0  0  0  0  0  0  0  0  0
   26.9467  -20.3631  -15.7954 N   0  0  0  0  0  0  0  0  0  0  0  0
   26.5989  -20.1182  -14.3831 C   0  0  0  0  0  0  0  0  0  0  0  0
   28.0306  -21.3609  -15.7658 O   0  0  0  0  0  0  0  0  0  0  0  0
   28.6337  -21.7025  -14.5807 O   0  0  0  0  0  0  0  0  0  0  0  0
  2  1  1  0
  3  2  2  0
  4  2  1  0
  5  6  1  0
  5  4  1  0
  6  7  1  0
  7  8  1  0
  8  9  1  6
 10  8  1  0
 11 10  2  0
 12 13  1  0
 14 13  1  1
 14 16  1  0
 14 15  1  0
 15 10  1  0
 16 17  2  0
 19 18  1  0
 19 20  1  0
 20 21  1  6
 22 20  1  0
 22 23  1  1
 23 16  1  0
 24 25  1  0
 24 22  1  0
 26 24  2  0
M  END
$$$$
