RSI.pdb
     RDKit          3D

 26 25  0  0  1  0  0  0  0  0999 V2000
   12.0927  -18.7885   -5.3435 N   0  0  0  0  0  0  0  0  0  0  0  0
   12.2399  -19.5248   -6.5452 C   0  0  0  0  0  0  0  0  0  0  0  0
   11.6431  -19.1355   -7.6432 N   0  0  0  0  0  0  0  0  0  0  0  0
   13.0417  -20.7068   -6.5902 N   0  0  0  0  0  0  0  0  0  0  0  0
   13.1186  -21.6126   -5.4686 C   0  0  0  0  0  0  0  0  0  0  0  0
   14.0800  -22.7369   -5.7843 C   0  0  0  0  0  0  0  0  0  0  0  0
   14.0814  -23.7194   -4.6254 C   0  0  0  0  0  0  0  0  0  0  0  0
   15.0267  -24.8460   -4.9885 C   0  0  2  0  0  0  0  0  0  0  0  0
   14.3490  -25.7403   -5.9393 N   0  0  0  0  0  0  0  0  0  0  0  0
   15.3061  -25.5888   -3.7371 C   0  0  0  0  0  0  0  0  0  0  0  0
   14.3593  -25.9602   -3.0097 O   0  0  0  0  0  0  0  0  0  0  0  0
   11.7764  -19.6896   -8.5182 O   0  0  0  0  0  0  0  0  0  0  0  0
   19.1388  -26.0071   -2.5189 C   0  0  0  0  0  0  0  0  0  0  0  0
   18.3893  -27.1470   -2.1403 C   0  0  1  0  0  0  0  0  0  0  0  0
   16.9456  -26.7080   -2.1698 N   0  0  0  0  0  0  0  0  0  0  0  0
   16.6280  -25.8976   -3.3287 C   0  0  0  0  0  0  0  0  0  0  0  0
   16.6708  -25.9649   -0.9080 O   0  0  0  0  0  0  0  0  0  0  0  0
   16.9550  -24.7426   -0.8272 C   0  0  0  0  0  0  0  0  0  0  0  0
   12.1695  -26.7462    1.9246 C   0  0  0  0  0  0  0  0  0  0  0  0
   13.4157  -26.0892    1.3654 C   0  0  2  0  0  0  0  0  0  0  0  0
   14.6273  -26.4000    2.1704 C   0  0  0  0  0  0  0  0  0  0  0  0
   14.4549  -25.8427    3.5713 C   0  0  2  0  0  0  0  0  0  0  0  0
   15.8629  -25.8629    1.5029 N   0  0  0  0  0  0  0  0  0  0  0  0
   16.0970  -26.5691    0.2294 C   0  0  0  0  0  0  0  0  0  0  0  0
   17.1033  -26.0328    2.2801 O   0  0  0  0  0  0  0  0  0  0  0  0
   17.9542  -27.0780    2.0185 O   0  0  0  0  0  0  0  0  0  0  0  0
  2  1  1  0
  3  2  2  0
  4  2  1  0
  5  6  1  0
  5  4  1  0
  6  7  1  0
  7  8  1  0
  8  9  1  6
 10  8  1  0
 11 10  2  0
 12 13  1  0
 14 13  1  6
 14 16  1  0
 14 15  1  0
 15 10  1  0
 16 17  2  0
 19 18  1  0
 19 20  1  0
 20 21  1  6
 22 20  1  0
 22 23  1  6
 23 16  1  0
 24 25  1  0
 24 22  1  0
 26 24  2  0
M  END
$$$$
