RSI.pdb
     RDKit          3D

 26 25  0  0  1  0  0  0  0  0999 V2000
   32.4698  -23.0352  -12.9853 N   0  0  0  0  0  0  0  0  0  0  0  0
   32.6245  -22.0528  -11.9760 C   0  0  0  0  0  0  0  0  0  0  0  0
   33.8160  -21.7082  -11.5577 N   0  0  0  0  0  0  0  0  0  0  0  0
   31.4880  -21.4138  -11.3909 N   0  0  0  0  0  0  0  0  0  0  0  0
   30.1695  -21.5400  -11.9654 C   0  0  0  0  0  0  0  0  0  0  0  0
   29.9686  -20.4770  -13.0226 C   0  0  0  0  0  0  0  0  0  0  0  0
   28.5457  -20.5712  -13.5469 C   0  0  0  0  0  0  0  0  0  0  0  0
   28.0726  -21.9920  -13.3188 C   0  0  2  0  0  0  0  0  0  0  0  0
   28.0730  -22.7004  -14.6076 N   0  0  0  0  0  0  0  0  0  0  0  0
   26.6824  -21.9030  -12.8135 C   0  0  0  0  0  0  0  0  0  0  0  0
   25.7234  -22.0199  -13.6074 O   0  0  0  0  0  0  0  0  0  0  0  0
   33.9030  -20.9800  -10.8144 O   0  0  0  0  0  0  0  0  0  0  0  0
   25.7426  -19.9265   -9.4316 C   0  0  0  0  0  0  0  0  0  0  0  0
   25.0317  -21.1505   -9.4607 C   0  0  1  0  0  0  0  0  0  0  0  0
   25.0542  -21.5953  -10.9027 N   0  0  0  0  0  0  0  0  0  0  0  0
   26.3963  -21.6865  -11.4420 C   0  0  0  0  0  0  0  0  0  0  0  0
   24.2282  -20.6351  -11.6873 O   0  0  0  0  0  0  0  0  0  0  0  0
   24.6203  -19.4497  -11.8373 C   0  0  0  0  0  0  0  0  0  0  0  0
   22.7760  -18.7962  -16.6411 C   0  0  0  0  0  0  0  0  0  0  0  0
   22.3722  -18.7869  -15.1802 C   0  0  2  0  0  0  0  0  0  0  0  0
   22.5987  -20.1021  -14.5235 C   0  0  0  0  0  0  0  0  0  0  0  0
   21.8589  -21.1807  -15.2931 C   0  0  2  0  0  0  0  0  0  0  0  0
   22.1787  -20.0568  -13.0805 N   0  0  0  0  0  0  0  0  0  0  0  0
   23.0011  -20.9878  -12.2853 C   0  0  0  0  0  0  0  0  0  0  0  0
   20.7823  -20.4580  -12.8348 O   0  0  0  0  0  0  0  0  0  0  0  0
   20.4934  -21.6830  -12.2863 O   0  0  0  0  0  0  0  0  0  0  0  0
  2  1  1  0
  3  2  2  0
  4  2  1  0
  5  6  1  0
  5  4  1  0
  6  7  1  0
  7  8  1  0
  8  9  1  6
 10  8  1  0
 11 10  2  0
 12 13  1  0
 14 13  1  1
 14 16  1  0
 14 15  1  0
 15 10  1  0
 16 17  2  0
 19 18  1  0
 19 20  1  0
 20 21  1  1
 22 20  1  0
 22 23  1  1
 23 16  1  0
 24 25  1  0
 24 22  1  0
 26 24  2  0
M  END
$$$$
