RSI.pdb
     RDKit          3D

 26 25  0  0  1  0  0  0  0  0999 V2000
   22.6250  -26.3574  -12.6752 N   0  0  0  0  0  0  0  0  0  0  0  0
   21.3467  -25.7931  -12.4401 C   0  0  0  0  0  0  0  0  0  0  0  0
   20.4330  -26.4617  -11.7833 N   0  0  0  0  0  0  0  0  0  0  0  0
   21.0228  -24.4835  -12.9115 N   0  0  0  0  0  0  0  0  0  0  0  0
   21.9651  -23.6984  -13.6731 C   0  0  0  0  0  0  0  0  0  0  0  0
   22.3722  -22.4768  -12.8793 C   0  0  0  0  0  0  0  0  0  0  0  0
   23.3007  -21.6273  -13.7305 C   0  0  0  0  0  0  0  0  0  0  0  0
   24.7198  -21.9411  -13.3031 C   0  0  2  0  0  0  0  0  0  0  0  0
   24.7426  -22.1196  -11.8435 N   0  0  0  0  0  0  0  0  0  0  0  0
   25.5439  -20.7629  -13.6617 C   0  0  0  0  0  0  0  0  0  0  0  0
   25.3578  -19.6729  -13.0780 O   0  0  0  0  0  0  0  0  0  0  0  0
   19.4932  -26.0303  -11.6383 O   0  0  0  0  0  0  0  0  0  0  0  0
   28.0950  -20.9438  -16.9049 C   0  0  0  0  0  0  0  0  0  0  0  0
   28.5464  -20.0681  -15.8881 C   0  0  1  0  0  0  0  0  0  0  0  0
   27.3112  -19.6812  -15.1120 N   0  0  0  0  0  0  0  0  0  0  0  0
   26.5503  -20.8281  -14.6579 C   0  0  0  0  0  0  0  0  0  0  0  0
   26.4825  -18.8031  -15.9851 O   0  0  0  0  0  0  0  0  0  0  0  0
   25.4934  -19.2826  -16.5959 C   0  0  0  0  0  0  0  0  0  0  0  0
   24.8905  -14.0150  -14.4955 C   0  0  0  0  0  0  0  0  0  0  0  0
   24.8140  -15.2396  -15.3854 C   0  0  2  0  0  0  0  0  0  0  0  0
   25.8135  -15.2006  -16.4863 C   0  0  0  0  0  0  0  0  0  0  0  0
   25.3816  -14.1764  -17.5194 C   0  0  2  0  0  0  0  0  0  0  0  0
   25.9925  -16.5650  -17.0923 N   0  0  0  0  0  0  0  0  0  0  0  0
   26.7511  -17.4316  -16.1710 C   0  0  0  0  0  0  0  0  0  0  0  0
   26.7478  -16.5803  -18.3575 O   0  0  0  0  0  0  0  0  0  0  0  0
   28.1140  -16.7160  -18.3542 O   0  0  0  0  0  0  0  0  0  0  0  0
  2  1  1  0
  3  2  2  0
  4  2  1  0
  5  6  1  0
  5  4  1  0
  6  7  1  0
  7  8  1  0
  8  9  1  1
 10  8  1  0
 11 10  2  0
 12 13  1  0
 14 13  1  1
 14 16  1  0
 14 15  1  0
 15 10  1  0
 16 17  2  0
 19 18  1  0
 19 20  1  0
 20 21  1  1
 22 20  1  0
 22 23  1  6
 23 16  1  0
 24 25  1  0
 24 22  1  0
 26 24  2  0
M  END
$$$$
