RSI.pdb
     RDKit          3D

 26 25  0  0  1  0  0  0  0  0999 V2000
    9.9797  -13.4957  -12.3855 N   0  0  0  0  0  0  0  0  0  0  0  0
   10.9907  -13.2573  -11.4217 C   0  0  0  0  0  0  0  0  0  0  0  0
   10.6923  -13.1672  -10.1504 N   0  0  0  0  0  0  0  0  0  0  0  0
   12.3579  -13.1105  -11.8107 N   0  0  0  0  0  0  0  0  0  0  0  0
   12.7676  -12.1204  -12.7784 C   0  0  0  0  0  0  0  0  0  0  0  0
   13.9192  -12.6550  -13.6005 C   0  0  0  0  0  0  0  0  0  0  0  0
   14.4145  -11.5538  -14.5227 C   0  0  0  0  0  0  0  0  0  0  0  0
   15.9287  -11.5935  -14.5023 C   0  0  2  0  0  0  0  0  0  0  0  0
   16.3580  -12.9186  -14.0301 N   0  0  0  0  0  0  0  0  0  0  0  0
   16.3696  -10.5650  -13.5310 C   0  0  0  0  0  0  0  0  0  0  0  0
   16.1951  -10.7503  -12.3067 O   0  0  0  0  0  0  0  0  0  0  0  0
   11.4525  -12.9688   -9.4626 O   0  0  0  0  0  0  0  0  0  0  0  0
   18.7993   -6.4500  -12.7023 C   0  0  0  0  0  0  0  0  0  0  0  0
   18.2999   -7.2827  -13.7326 C   0  0  2  0  0  0  0  0  0  0  0  0
   17.5260   -8.3719  -13.0309 N   0  0  0  0  0  0  0  0  0  0  0  0
   16.9911   -9.3604  -13.9460 C   0  0  0  0  0  0  0  0  0  0  0  0
   16.4357   -7.7233  -12.2495 O   0  0  0  0  0  0  0  0  0  0  0  0
   15.3731   -7.3777  -12.8263 C   0  0  0  0  0  0  0  0  0  0  0  0
   12.8077   -8.0071   -7.6728 C   0  0  0  0  0  0  0  0  0  0  0  0
   13.7483   -7.0474   -8.3739 C   0  0  2  0  0  0  0  0  0  0  0  0
   14.7161   -7.7503   -9.2580 C   0  0  0  0  0  0  0  0  0  0  0  0
   15.6300   -8.6172   -8.4118 C   0  0  2  0  0  0  0  0  0  0  0  0
   15.4910   -6.7659  -10.0894 N   0  0  0  0  0  0  0  0  0  0  0  0
   16.5299   -7.4677  -10.8662 C   0  0  0  0  0  0  0  0  0  0  0  0
   16.2075   -5.7378   -9.3141 O   0  0  0  0  0  0  0  0  0  0  0  0
   17.5797   -5.6931   -9.3134 O   0  0  0  0  0  0  0  0  0  0  0  0
  2  1  1  0
  3  2  2  0
  4  2  1  0
  5  6  1  0
  5  4  1  0
  6  7  1  0
  7  8  1  0
  8  9  1  1
 10  8  1  0
 11 10  2  0
 12 13  1  0
 14 13  1  1
 14 16  1  0
 14 15  1  0
 15 10  1  0
 16 17  2  0
 19 18  1  0
 19 20  1  0
 20 21  1  6
 22 20  1  0
 22 23  1  1
 23 16  1  0
 24 25  1  0
 24 22  1  0
 26 24  2  0
M  END
$$$$
