RSI.pdb
     RDKit          3D

 26 25  0  0  1  0  0  0  0  0999 V2000
   25.0494  -22.9995  -14.5741 N   0  0  0  0  0  0  0  0  0  0  0  0
   23.8327  -23.7221  -14.6464 C   0  0  0  0  0  0  0  0  0  0  0  0
   23.8234  -25.0259  -14.5310 N   0  0  0  0  0  0  0  0  0  0  0  0
   22.5880  -23.0489  -14.8456 N   0  0  0  0  0  0  0  0  0  0  0  0
   22.2877  -21.8012  -14.1840 C   0  0  0  0  0  0  0  0  0  0  0  0
   22.4983  -21.9494  -12.6935 C   0  0  0  0  0  0  0  0  0  0  0  0
   22.0599  -20.6665  -12.0076 C   0  0  0  0  0  0  0  0  0  0  0  0
   23.2831  -19.7827  -11.8765 C   0  0  2  0  0  0  0  0  0  0  0  0
   24.0679  -19.8790  -13.1166 N   0  0  0  0  0  0  0  0  0  0  0  0
   24.0823  -20.3240  -10.7522 C   0  0  0  0  0  0  0  0  0  0  0  0
   23.5520  -20.4799   -9.6306 O   0  0  0  0  0  0  0  0  0  0  0  0
   22.9234  -25.5408  -14.6539 O   0  0  0  0  0  0  0  0  0  0  0  0
   27.2726  -22.5383  -11.4363 C   0  0  0  0  0  0  0  0  0  0  0  0
   27.5912  -21.7379  -10.3128 C   0  0  2  0  0  0  0  0  0  0  0  0
   26.2746  -21.1820   -9.8277 N   0  0  0  0  0  0  0  0  0  0  0  0
   25.4470  -20.6762  -10.9047 C   0  0  0  0  0  0  0  0  0  0  0  0
   26.5716  -20.1111   -8.8353 O   0  0  0  0  0  0  0  0  0  0  0  0
   26.4681  -18.9030   -9.1688 C   0  0  0  0  0  0  0  0  0  0  0  0
   27.8436  -19.0415   -2.8480 C   0  0  0  0  0  0  0  0  0  0  0  0
   27.9515  -18.6640   -4.3120 C   0  0  2  0  0  0  0  0  0  0  0  0
   27.3015  -19.6630   -5.2019 C   0  0  0  0  0  0  0  0  0  0  0  0
   27.7104  -21.0594   -4.7709 C   0  0  2  0  0  0  0  0  0  0  0  0
   27.6461  -19.3986   -6.6414 N   0  0  0  0  0  0  0  0  0  0  0  0
   26.9728  -20.3814   -7.5110 C   0  0  0  0  0  0  0  0  0  0  0  0
   29.0805  -19.5102   -6.9595 O   0  0  0  0  0  0  0  0  0  0  0  0
   29.5623  -20.6000   -7.6415 O   0  0  0  0  0  0  0  0  0  0  0  0
  2  1  1  0
  3  2  2  0
  4  2  1  0
  5  6  1  0
  5  4  1  0
  6  7  1  0
  7  8  1  0
  8  9  1  6
 10  8  1  0
 11 10  2  0
 12 13  1  0
 14 13  1  6
 14 16  1  0
 14 15  1  0
 15 10  1  0
 16 17  2  0
 19 18  1  0
 19 20  1  0
 20 21  1  6
 22 20  1  0
 22 23  1  6
 23 16  1  0
 24 25  1  0
 24 22  1  0
 26 24  2  0
M  END
$$$$
