RSI.pdb
     RDKit          3D

 26 25  0  0  1  0  0  0  0  0999 V2000
   31.6053  -25.2664  -15.5171 N   0  0  0  0  0  0  0  0  0  0  0  0
   30.8127  -25.6841  -16.6148 C   0  0  0  0  0  0  0  0  0  0  0  0
   30.5683  -26.9542  -16.8160 N   0  0  0  0  0  0  0  0  0  0  0  0
   30.2602  -24.7331  -17.5274 N   0  0  0  0  0  0  0  0  0  0  0  0
   30.0697  -23.3508  -17.1570 C   0  0  0  0  0  0  0  0  0  0  0  0
   29.2592  -23.2701  -15.8824 C   0  0  0  0  0  0  0  0  0  0  0  0
   28.9508  -21.8113  -15.5903 C   0  0  0  0  0  0  0  0  0  0  0  0
   28.0582  -21.3056  -16.7048 C   0  0  2  0  0  0  0  0  0  0  0  0
   28.8735  -20.5118  -17.6366 N   0  0  0  0  0  0  0  0  0  0  0  0
   27.0454  -20.4263  -16.0748 C   0  0  0  0  0  0  0  0  0  0  0  0
   26.2833  -20.8856  -15.1962 O   0  0  0  0  0  0  0  0  0  0  0  0
   30.0163  -27.2390  -17.6553 O   0  0  0  0  0  0  0  0  0  0  0  0
   25.3679  -16.0315  -15.1657 C   0  0  0  0  0  0  0  0  0  0  0  0
   26.2580  -16.7217  -16.0235 C   0  0  2  0  0  0  0  0  0  0  0  0
   25.8963  -18.1808  -15.8897 N   0  0  0  0  0  0  0  0  0  0  0  0
   26.9070  -19.0631  -16.4381 C   0  0  0  0  0  0  0  0  0  0  0  0
   24.5845  -18.3876  -16.5651 O   0  0  0  0  0  0  0  0  0  0  0  0
   24.5386  -18.5228  -17.8146 C   0  0  0  0  0  0  0  0  0  0  0  0
   19.0187  -20.7612  -15.5371 C   0  0  0  0  0  0  0  0  0  0  0  0
   19.8905  -19.8111  -16.3339 C   0  0  2  0  0  0  0  0  0  0  0  0
   21.2075  -19.5743  -15.6844 C   0  0  0  0  0  0  0  0  0  0  0  0
   20.9859  -19.0296  -14.2855 C   0  0  2  0  0  0  0  0  0  0  0  0
   22.0540  -18.6513  -16.5165 N   0  0  0  0  0  0  0  0  0  0  0  0
   23.3610  -18.4406  -15.8665 C   0  0  0  0  0  0  0  0  0  0  0  0
   21.4881  -17.3041  -16.7066 O   0  0  0  0  0  0  0  0  0  0  0  0
   20.4774  -17.0920  -17.6114 O   0  0  0  0  0  0  0  0  0  0  0  0
  2  1  1  0
  3  2  2  0
  4  2  1  0
  5  6  1  0
  5  4  1  0
  6  7  1  0
  7  8  1  0
  8  9  1  6
 10  8  1  0
 11 10  2  0
 12 13  1  0
 14 13  1  1
 14 16  1  0
 14 15  1  0
 15 10  1  0
 16 17  2  0
 19 18  1  0
 19 20  1  0
 20 21  1  6
 22 20  1  0
 22 23  1  6
 23 16  1  0
 24 25  1  0
 24 22  1  0
 26 24  2  0
M  END
$$$$
