RSI.pdb
     RDKit          3D

 26 25  0  0  1  0  0  0  0  0999 V2000
   13.2844  -16.1952  -14.1004 N   0  0  0  0  0  0  0  0  0  0  0  0
   12.6077  -15.5128  -15.1416 C   0  0  0  0  0  0  0  0  0  0  0  0
   11.3735  -15.8216  -15.4496 N   0  0  0  0  0  0  0  0  0  0  0  0
   13.2520  -14.4723  -15.8796 N   0  0  0  0  0  0  0  0  0  0  0  0
   14.6013  -14.0554  -15.5797 C   0  0  0  0  0  0  0  0  0  0  0  0
   14.6098  -12.5946  -15.1873 C   0  0  0  0  0  0  0  0  0  0  0  0
   16.0508  -12.1338  -15.0480 C   0  0  0  0  0  0  0  0  0  0  0  0
   16.0230  -10.6581  -14.7072 C   0  0  2  0  0  0  0  0  0  0  0  0
   15.0664   -9.9872  -15.6004 N   0  0  0  0  0  0  0  0  0  0  0  0
   17.3837  -10.1336  -14.9701 C   0  0  0  0  0  0  0  0  0  0  0  0
   18.3745  -10.6796  -14.4373 O   0  0  0  0  0  0  0  0  0  0  0  0
   10.9327  -15.3800  -16.2868 O   0  0  0  0  0  0  0  0  0  0  0  0
   17.7708   -6.3944  -16.4877 C   0  0  0  0  0  0  0  0  0  0  0  0
   18.8457   -7.2025  -16.9307 C   0  0  1  0  0  0  0  0  0  0  0  0
   18.8924   -8.3699  -15.9753 N   0  0  0  0  0  0  0  0  0  0  0  0
   17.6059   -9.0181  -15.8163 C   0  0  0  0  0  0  0  0  0  0  0  0
   19.4016   -7.8675  -14.6684 O   0  0  0  0  0  0  0  0  0  0  0  0
   18.5953   -7.6244  -13.7345 C   0  0  0  0  0  0  0  0  0  0  0  0
   23.4114   -9.0612  -10.4942 C   0  0  0  0  0  0  0  0  0  0  0  0
   22.6710   -7.9309  -11.1811 C   0  0  2  0  0  0  0  0  0  0  0  0
   22.1080   -8.3413  -12.4953 C   0  0  0  0  0  0  0  0  0  0  0  0
   23.2370   -8.7821  -13.4086 C   0  0  2  0  0  0  0  0  0  0  0  0
   21.3013   -7.2265  -13.1012 N   0  0  0  0  0  0  0  0  0  0  0  0
   20.7697   -7.6423  -14.4126 C   0  0  0  0  0  0  0  0  0  0  0  0
   22.0598   -5.9898  -13.3589 O   0  0  0  0  0  0  0  0  0  0  0  0
   22.3741   -5.1358  -12.3308 O   0  0  0  0  0  0  0  0  0  0  0  0
  2  1  1  0
  3  2  2  0
  4  2  1  0
  5  6  1  0
  5  4  1  0
  6  7  1  0
  7  8  1  0
  8  9  1  6
 10  8  1  0
 11 10  2  0
 12 13  1  0
 14 13  1  6
 14 16  1  0
 14 15  1  0
 15 10  1  0
 16 17  2  0
 19 18  1  0
 19 20  1  0
 20 21  1  6
 22 20  1  0
 22 23  1  6
 23 16  1  0
 24 25  1  0
 24 22  1  0
 26 24  2  0
M  END
$$$$
