RSI.pdb
     RDKit          3D

 26 25  0  0  1  0  0  0  0  0999 V2000
   26.7032  -14.4544  -15.3779 N   0  0  0  0  0  0  0  0  0  0  0  0
   27.8202  -14.7696  -16.1908 C   0  0  0  0  0  0  0  0  0  0  0  0
   28.4818  -13.8254  -16.8104 N   0  0  0  0  0  0  0  0  0  0  0  0
   28.2529  -16.1218  -16.3542 N   0  0  0  0  0  0  0  0  0  0  0  0
   27.6062  -17.2123  -15.6636 C   0  0  0  0  0  0  0  0  0  0  0  0
   26.9000  -18.1026  -16.6619 C   0  0  0  0  0  0  0  0  0  0  0  0
   26.1408  -19.1796  -15.9056 C   0  0  0  0  0  0  0  0  0  0  0  0
   27.1601  -20.0013  -15.1436 C   0  0  2  0  0  0  0  0  0  0  0  0
   27.8480  -20.8924  -16.0900 N   0  0  0  0  0  0  0  0  0  0  0  0
   26.4043  -20.8200  -14.1667 C   0  0  0  0  0  0  0  0  0  0  0  0
   25.7287  -21.7947  -14.5629 O   0  0  0  0  0  0  0  0  0  0  0  0
   29.2679  -14.0881  -17.4455 O   0  0  0  0  0  0  0  0  0  0  0  0
   26.9452  -21.0416  -10.0986 C   0  0  0  0  0  0  0  0  0  0  0  0
   25.6640  -20.5400  -10.4323 C   0  0  2  0  0  0  0  0  0  0  0  0
   25.4090  -20.9960  -11.8482 N   0  0  0  0  0  0  0  0  0  0  0  0
   26.4194  -20.5332  -12.7785 C   0  0  0  0  0  0  0  0  0  0  0  0
   24.0569  -20.5119  -12.2450 O   0  0  0  0  0  0  0  0  0  0  0  0
   23.8834  -19.2973  -12.5207 C   0  0  0  0  0  0  0  0  0  0  0  0
   20.0598  -21.5050  -16.3381 C   0  0  0  0  0  0  0  0  0  0  0  0
   20.1895  -21.0927  -14.8853 C   0  0  2  0  0  0  0  0  0  0  0  0
   21.5387  -21.3877  -14.3331 C   0  0  0  0  0  0  0  0  0  0  0  0
   21.8308  -22.8687  -14.4880 C   0  0  2  0  0  0  0  0  0  0  0  0
   21.6363  -20.9453  -12.8994 N   0  0  0  0  0  0  0  0  0  0  0  0
   22.9327  -21.3584  -12.3301 C   0  0  0  0  0  0  0  0  0  0  0  0
   20.6142  -21.5219  -12.0082 O   0  0  0  0  0  0  0  0  0  0  0  0
   19.4061  -20.8939  -11.8320 O   0  0  0  0  0  0  0  0  0  0  0  0
  2  1  1  0
  3  2  2  0
  4  2  1  0
  5  6  1  0
  5  4  1  0
  6  7  1  0
  7  8  1  0
  8  9  1  6
 10  8  1  0
 11 10  2  0
 12 13  1  0
 14 13  1  1
 14 16  1  0
 14 15  1  0
 15 10  1  0
 16 17  2  0
 19 18  1  0
 19 20  1  0
 20 21  1  6
 22 20  1  0
 22 23  1  1
 23 16  1  0
 24 25  1  0
 24 22  1  0
 26 24  2  0
M  END
$$$$
