RSI.pdb
     RDKit          3D

 26 25  0  0  1  0  0  0  0  0999 V2000
   22.2473  -23.0502  -14.8113 N   0  0  0  0  0  0  0  0  0  0  0  0
   22.3539  -24.4312  -15.1100 C   0  0  0  0  0  0  0  0  0  0  0  0
   21.5101  -25.0030  -15.9313 N   0  0  0  0  0  0  0  0  0  0  0  0
   23.3822  -25.2331  -14.5255 N   0  0  0  0  0  0  0  0  0  0  0  0
   24.4402  -24.6495  -13.7352 C   0  0  0  0  0  0  0  0  0  0  0  0
   25.5058  -24.0824  -14.6467 C   0  0  0  0  0  0  0  0  0  0  0  0
   26.2948  -23.0324  -13.8829 C   0  0  0  0  0  0  0  0  0  0  0  0
   25.4858  -21.7519  -13.9076 C   0  0  2  0  0  0  0  0  0  0  0  0
   25.7948  -21.0243  -15.1478 N   0  0  0  0  0  0  0  0  0  0  0  0
   25.9293  -20.9444  -12.7469 C   0  0  0  0  0  0  0  0  0  0  0  0
   26.9079  -20.1746  -12.8624 O   0  0  0  0  0  0  0  0  0  0  0  0
   21.6580  -26.0016  -16.1983 O   0  0  0  0  0  0  0  0  0  0  0  0
   23.2408  -20.4684   -9.8582 C   0  0  0  0  0  0  0  0  0  0  0  0
   24.1633  -19.4030   -9.9940 C   0  0  1  0  0  0  0  0  0  0  0  0
   25.4578  -20.0443  -10.4308 N   0  0  0  0  0  0  0  0  0  0  0  0
   25.2746  -21.0148  -11.4916 C   0  0  0  0  0  0  0  0  0  0  0  0
   26.0796  -20.6748   -9.2326 O   0  0  0  0  0  0  0  0  0  0  0  0
   25.9955  -21.9184   -9.0655 C   0  0  0  0  0  0  0  0  0  0  0  0
   30.0631  -20.2834   -4.8495 C   0  0  0  0  0  0  0  0  0  0  0  0
   28.5637  -20.0844   -4.9469 C   0  0  2  0  0  0  0  0  0  0  0  0
   28.1498  -19.5519   -6.2726 C   0  0  0  0  0  0  0  0  0  0  0  0
   27.5342  -18.1768   -6.0905 C   0  0  2  0  0  0  0  0  0  0  0  0
   27.2058  -20.5010   -6.9573 N   0  0  0  0  0  0  0  0  0  0  0  0
   26.7732  -19.9387   -8.2503 C   0  0  0  0  0  0  0  0  0  0  0  0
   25.9640  -20.7752   -6.2129 O   0  0  0  0  0  0  0  0  0  0  0  0
   24.7978  -20.1268   -6.5363 O   0  0  0  0  0  0  0  0  0  0  0  0
  2  1  1  0
  3  2  2  0
  4  2  1  0
  5  6  1  0
  5  4  1  0
  6  7  1  0
  7  8  1  0
  8  9  1  6
 10  8  1  0
 11 10  2  0
 12 13  1  0
 14 13  1  6
 14 16  1  0
 14 15  1  0
 15 10  1  0
 16 17  2  0
 19 18  1  0
 19 20  1  0
 20 21  1  6
 22 20  1  0
 22 23  1  1
 23 16  1  0
 24 25  1  0
 24 22  1  0
 26 24  2  0
M  END
$$$$
