CGY.pdb
     RDKit          3D

 23 23  0  0  1  0  0  0  0  0999 V2000
   37.1891  -36.8397  -15.3138 N   0  0  0  0  0  0  0  0  0  0  0  0
   36.0288  -36.7577  -16.1744 C   0  0  1  0  0  0  0  0  0  0  0  0
   35.1915  -38.0300  -16.0864 C   0  0  0  0  0  0  0  0  0  0  0  0
   34.6615  -38.4887  -17.7450 S   0  0  0  0  0  0  0  0  0  0  0  0
   35.1719  -35.6457  -15.7154 C   0  0  0  0  0  0  0  0  0  0  0  0
   34.8404  -35.5588  -14.5271 O   0  0  0  0  0  0  0  0  0  0  0  0
   34.7035  -34.6454  -16.6201 N   0  0  0  0  0  0  0  0  0  0  0  0
   33.8617  -33.5556  -16.2317 C   0  0  0  0  0  0  0  0  0  0  0  0
   32.4292  -33.8641  -16.3133 C   0  0  0  0  0  0  0  0  0  0  0  0
   32.0656  -34.9559  -16.8046 O   0  0  0  0  0  0  0  0  0  0  0  0
   23.7860  -33.2023  -14.5018 O   0  0  0  0  0  0  0  0  0  0  0  0
   25.1588  -33.0057  -14.5957 C   0  0  0  0  0  0  0  0  0  0  0  0
   26.0301  -33.7369  -13.8163 C   0  0  0  0  0  0  0  0  0  0  0  0
   27.3890  -33.5304  -13.9208 C   0  0  0  0  0  0  0  0  0  0  0  0
   27.8913  -32.5910  -14.8055 C   0  0  0  0  0  0  0  0  0  0  0  0
   29.3305  -32.3668  -14.9211 C   0  0  0  0  0  0  0  0  0  0  0  0
   30.0116  -33.2380  -15.9455 C   0  0  2  0  0  0  0  0  0  0  0  0
   31.4336  -32.9699  -15.8554 N   0  0  0  0  0  0  0  0  0  0  0  0
   29.5066  -33.0714  -17.3055 C   0  0  0  0  0  0  0  0  0  0  0  0
   28.5434  -33.8319  -17.9044 O   0  0  0  0  0  0  0  0  0  0  0  0
   27.0014  -31.8667  -15.5794 C   0  0  0  0  0  0  0  0  0  0  0  0
   25.6355  -32.0636  -15.4847 C   0  0  0  0  0  0  0  0  0  0  0  0
   30.0054  -32.1315  -18.0060 O   0  0  0  0  0  0  0  0  0  0  0  0
  2  5  1  0
  2  1  1  1
  3  2  1  0
  4  3  1  0
  5  6  2  0
  7  8  1  0
  7  5  1  0
  9 10  2  0
  9  8  1  0
 11 12  1  0
 12 22  2  0
 13 14  2  0
 13 12  1  0
 14 15  1  0
 15 16  1  0
 15 21  2  0
 17 18  1  0
 17 16  1  1
 18  9  1  0
 19 17  1  0
 20 19  1  0
 22 21  1  0
 23 19  2  0
M  END
$$$$
