CGY.pdb
     RDKit          3D

 23 23  0  0  1  0  0  0  0  0999 V2000
   25.4635  -18.5880  -19.8885 N   0  0  0  0  0  0  0  0  0  0  0  0
   25.5895  -18.6330  -18.4478 C   0  0  1  0  0  0  0  0  0  0  0  0
   24.3884  -19.3294  -17.8152 C   0  0  0  0  0  0  0  0  0  0  0  0
   22.8848  -18.6857  -18.5684 S   0  0  0  0  0  0  0  0  0  0  0  0
   26.7828  -19.4299  -18.0978 C   0  0  0  0  0  0  0  0  0  0  0  0
   27.8547  -18.8716  -17.8351 O   0  0  0  0  0  0  0  0  0  0  0  0
   26.7374  -20.8561  -18.0521 N   0  0  0  0  0  0  0  0  0  0  0  0
   27.6423  -21.6547  -17.2836 C   0  0  0  0  0  0  0  0  0  0  0  0
   27.1984  -21.8782  -15.9027 C   0  0  0  0  0  0  0  0  0  0  0  0
   27.7901  -22.7275  -15.1998 O   0  0  0  0  0  0  0  0  0  0  0  0
   24.3954  -20.7105   -7.7650 O   0  0  0  0  0  0  0  0  0  0  0  0
   24.8391  -20.6246   -9.0794 C   0  0  0  0  0  0  0  0  0  0  0  0
   26.1092  -21.0375   -9.4226 C   0  0  0  0  0  0  0  0  0  0  0  0
   26.5347  -20.9460  -10.7306 C   0  0  0  0  0  0  0  0  0  0  0  0
   25.6953  -20.4408  -11.7092 C   0  0  0  0  0  0  0  0  0  0  0  0
   26.1400  -20.3407  -13.0974 C   0  0  0  0  0  0  0  0  0  0  0  0
   25.6054  -21.4251  -13.9976 C   0  0  2  0  0  0  0  0  0  0  0  0
   26.1195  -21.1665  -15.3284 N   0  0  0  0  0  0  0  0  0  0  0  0
   24.1507  -21.5514  -13.9860 C   0  0  0  0  0  0  0  0  0  0  0  0
   23.4267  -22.4408  -13.2446 O   0  0  0  0  0  0  0  0  0  0  0  0
   24.4242  -20.0315  -11.3457 C   0  0  0  0  0  0  0  0  0  0  0  0
   23.9842  -20.1176  -10.0371 C   0  0  0  0  0  0  0  0  0  0  0  0
   23.4869  -20.7624  -14.7341 O   0  0  0  0  0  0  0  0  0  0  0  0
  2  5  1  0
  2  1  1  6
  3  2  1  0
  4  3  1  0
  5  6  2  0
  7  8  1  0
  7  5  1  0
  9 10  2  0
  9  8  1  0
 11 12  1  0
 12 22  2  0
 13 14  2  0
 13 12  1  0
 14 15  1  0
 15 16  1  0
 15 21  2  0
 17 18  1  0
 17 16  1  1
 18  9  1  0
 19 17  1  0
 20 19  1  0
 22 21  1  0
 23 19  2  0
M  END
$$$$
