CGY.pdb
     RDKit          3D

 23 23  0  0  1  0  0  0  0  0999 V2000
   23.8541  -34.9327  -12.8335 N   0  0  0  0  0  0  0  0  0  0  0  0
   23.3220  -33.6349  -12.4783 C   0  0  1  0  0  0  0  0  0  0  0  0
   21.8002  -33.6763  -12.3787 C   0  0  0  0  0  0  0  0  0  0  0  0
   21.1232  -34.0075  -14.0140 S   0  0  0  0  0  0  0  0  0  0  0  0
   23.8308  -33.2598  -11.1434 C   0  0  0  0  0  0  0  0  0  0  0  0
   24.9922  -32.8577  -11.0052 O   0  0  0  0  0  0  0  0  0  0  0  0
   23.0062  -33.3486   -9.9813 N   0  0  0  0  0  0  0  0  0  0  0  0
   23.4346  -32.9598   -8.6726 C   0  0  0  0  0  0  0  0  0  0  0  0
   22.4407  -33.2292   -7.6269 C   0  0  0  0  0  0  0  0  0  0  0  0
   21.3071  -33.6465   -7.9532 O   0  0  0  0  0  0  0  0  0  0  0  0
   19.3755  -34.7823    0.5340 O   0  0  0  0  0  0  0  0  0  0  0  0
   20.1469  -34.3988   -0.5569 C   0  0  0  0  0  0  0  0  0  0  0  0
   20.5206  -33.0824   -0.7273 C   0  0  0  0  0  0  0  0  0  0  0  0
   21.2858  -32.7176   -1.8143 C   0  0  0  0  0  0  0  0  0  0  0  0
   21.6854  -33.6644   -2.7424 C   0  0  0  0  0  0  0  0  0  0  0  0
   22.4961  -33.2846   -3.8970 C   0  0  0  0  0  0  0  0  0  0  0  0
   21.7413  -33.2611   -5.2016 C   0  0  2  0  0  0  0  0  0  0  0  0
   22.7138  -33.0347   -6.2529 N   0  0  0  0  0  0  0  0  0  0  0  0
   20.6498  -32.2921   -5.2456 C   0  0  0  0  0  0  0  0  0  0  0  0
   19.3396  -32.5429   -4.9534 O   0  0  0  0  0  0  0  0  0  0  0  0
   21.3006  -34.9805   -2.5545 C   0  0  0  0  0  0  0  0  0  0  0  0
   20.5329  -35.3606   -1.4683 C   0  0  0  0  0  0  0  0  0  0  0  0
   20.9373  -31.0991   -5.5875 O   0  0  0  0  0  0  0  0  0  0  0  0
  2  5  1  0
  2  1  1  1
  3  2  1  0
  4  3  1  0
  5  6  2  0
  7  8  1  0
  7  5  1  0
  9 10  2  0
  9  8  1  0
 11 12  1  0
 12 22  2  0
 13 14  2  0
 13 12  1  0
 14 15  1  0
 15 16  1  0
 15 21  2  0
 17 18  1  0
 17 16  1  1
 18  9  1  0
 19 17  1  0
 20 19  1  0
 22 21  1  0
 23 19  2  0
M  END
$$$$
