CGY.pdb
     RDKit          3D

 23 23  0  0  1  0  0  0  0  0999 V2000
   19.4547  -21.3113  -13.9991 N   0  0  0  0  0  0  0  0  0  0  0  0
   19.3666  -20.7829  -15.3432 C   0  0  1  0  0  0  0  0  0  0  0  0
   18.1595  -19.8617  -15.4907 C   0  0  0  0  0  0  0  0  0  0  0  0
   16.6595  -20.8435  -15.3209 S   0  0  0  0  0  0  0  0  0  0  0  0
   20.5670  -19.9663  -15.6145 C   0  0  0  0  0  0  0  0  0  0  0  0
   20.8557  -19.6411  -16.7723 O   0  0  0  0  0  0  0  0  0  0  0  0
   21.4241  -19.5305  -14.5591 N   0  0  0  0  0  0  0  0  0  0  0  0
   22.6512  -18.8263  -14.7728 C   0  0  0  0  0  0  0  0  0  0  0  0
   23.8346  -19.6941  -14.7580 C   0  0  0  0  0  0  0  0  0  0  0  0
   24.9717  -19.1768  -14.6854 O   0  0  0  0  0  0  0  0  0  0  0  0
   24.3077  -19.8041   -8.6603 O   0  0  0  0  0  0  0  0  0  0  0  0
   24.3650  -20.5469   -9.8337 C   0  0  0  0  0  0  0  0  0  0  0  0
   23.2117  -20.8902  -10.5072 C   0  0  0  0  0  0  0  0  0  0  0  0
   23.2848  -21.6273  -11.6697 C   0  0  0  0  0  0  0  0  0  0  0  0
   24.5113  -22.0291  -12.1714 C   0  0  0  0  0  0  0  0  0  0  0  0
   24.5961  -22.8109  -13.4028 C   0  0  0  0  0  0  0  0  0  0  0  0
   24.8734  -21.9916  -14.6374 C   0  0  2  0  0  0  0  0  0  0  0  0
   23.7422  -21.1039  -14.8230 N   0  0  0  0  0  0  0  0  0  0  0  0
   25.1519  -22.7832  -15.8324 C   0  0  0  0  0  0  0  0  0  0  0  0
   24.3643  -22.8639  -16.9451 O   0  0  0  0  0  0  0  0  0  0  0  0
   25.6578  -21.6751  -11.4817 C   0  0  0  0  0  0  0  0  0  0  0  0
   25.5991  -20.9358  -10.3140 C   0  0  0  0  0  0  0  0  0  0  0  0
   26.2278  -23.4652  -15.8472 O   0  0  0  0  0  0  0  0  0  0  0  0
  2  5  1  0
  2  1  1  1
  3  2  1  0
  4  3  1  0
  5  6  2  0
  7  8  1  0
  7  5  1  0
  9 10  2  0
  9  8  1  0
 11 12  1  0
 12 22  2  0
 13 14  2  0
 13 12  1  0
 14 15  1  0
 15 16  1  0
 15 21  2  0
 17 18  1  0
 17 16  1  1
 18  9  1  0
 19 17  1  0
 20 19  1  0
 22 21  1  0
 23 19  2  0
M  END
$$$$
