CGY.pdb
     RDKit          3D

 23 23  0  0  1  0  0  0  0  0999 V2000
   28.9021  -20.8338  -18.5287 N   0  0  0  0  0  0  0  0  0  0  0  0
   27.7493  -21.2642  -17.7674 C   0  0  1  0  0  0  0  0  0  0  0  0
   28.1692  -22.1173  -16.5743 C   0  0  0  0  0  0  0  0  0  0  0  0
   29.0665  -23.5560  -17.1803 S   0  0  0  0  0  0  0  0  0  0  0  0
   27.0638  -20.0735  -17.2253 C   0  0  0  0  0  0  0  0  0  0  0  0
   27.5119  -19.4904  -16.2308 O   0  0  0  0  0  0  0  0  0  0  0  0
   25.8738  -19.5625  -17.8261 N   0  0  0  0  0  0  0  0  0  0  0  0
   24.6497  -20.2981  -17.9131 C   0  0  0  0  0  0  0  0  0  0  0  0
   24.1341  -20.7334  -16.6098 C   0  0  0  0  0  0  0  0  0  0  0  0
   23.2572  -21.6248  -16.5655 O   0  0  0  0  0  0  0  0  0  0  0  0
   23.9042  -21.4420   -7.7517 O   0  0  0  0  0  0  0  0  0  0  0  0
   24.1656  -21.0655   -9.0639 C   0  0  0  0  0  0  0  0  0  0  0  0
   23.3204  -20.2044   -9.7314 C   0  0  0  0  0  0  0  0  0  0  0  0
   23.5932  -19.8403  -11.0326 C   0  0  0  0  0  0  0  0  0  0  0  0
   24.7136  -20.3329  -11.6803 C   0  0  0  0  0  0  0  0  0  0  0  0
   25.0085  -19.9514  -13.0596 C   0  0  0  0  0  0  0  0  0  0  0  0
   24.1375  -20.6272  -14.0877 C   0  0  2  0  0  0  0  0  0  0  0  0
   24.5918  -20.1817  -15.3905 N   0  0  0  0  0  0  0  0  0  0  0  0
   22.7064  -20.4059  -13.9001 C   0  0  0  0  0  0  0  0  0  0  0  0
   21.8318  -21.2653  -13.2990 O   0  0  0  0  0  0  0  0  0  0  0  0
   25.5501  -21.1959  -10.9942 C   0  0  0  0  0  0  0  0  0  0  0  0
   25.2885  -21.5697   -9.6883 C   0  0  0  0  0  0  0  0  0  0  0  0
   22.2196  -19.3118  -14.3346 O   0  0  0  0  0  0  0  0  0  0  0  0
  2  5  1  0
  2  1  1  1
  3  2  1  0
  4  3  1  0
  5  6  2  0
  7  8  1  0
  7  5  1  0
  9 10  2  0
  9  8  1  0
 11 12  1  0
 12 22  2  0
 13 14  2  0
 13 12  1  0
 14 15  1  0
 15 16  1  0
 15 21  2  0
 17 18  1  0
 17 16  1  1
 18  9  1  0
 19 17  1  0
 20 19  1  0
 22 21  1  0
 23 19  2  0
M  END
$$$$
