CGY.pdb
     RDKit          3D

 23 23  0  0  1  0  0  0  0  0999 V2000
   26.9288  -22.3524  -15.8893 N   0  0  0  0  0  0  0  0  0  0  0  0
   27.6024  -21.0741  -15.8130 C   0  0  1  0  0  0  0  0  0  0  0  0
   27.2975  -20.2210  -17.0405 C   0  0  0  0  0  0  0  0  0  0  0  0
   28.0679  -20.9825  -18.4790 S   0  0  0  0  0  0  0  0  0  0  0  0
   27.0941  -20.3362  -14.6388 C   0  0  0  0  0  0  0  0  0  0  0  0
   25.8781  -20.1838  -14.4723 O   0  0  0  0  0  0  0  0  0  0  0  0
   27.9815  -19.7808  -13.6681 N   0  0  0  0  0  0  0  0  0  0  0  0
   27.5431  -19.0602  -12.5124 C   0  0  0  0  0  0  0  0  0  0  0  0
   27.1001  -19.9276  -11.4146 C   0  0  0  0  0  0  0  0  0  0  0  0
   27.3099  -21.1591  -11.4851 O   0  0  0  0  0  0  0  0  0  0  0  0
   30.0766  -20.0722   -4.0898 O   0  0  0  0  0  0  0  0  0  0  0  0
   29.0746  -19.8943   -5.0365 C   0  0  0  0  0  0  0  0  0  0  0  0
   28.2129  -20.9235   -5.3522 C   0  0  0  0  0  0  0  0  0  0  0  0
   27.2241  -20.7316   -6.2933 C   0  0  0  0  0  0  0  0  0  0  0  0
   27.0862  -19.5091   -6.9288 C   0  0  0  0  0  0  0  0  0  0  0  0
   26.0406  -19.2990   -7.9275 C   0  0  0  0  0  0  0  0  0  0  0  0
   26.1179  -20.2318   -9.1092 C   0  0  2  0  0  0  0  0  0  0  0  0
   26.4398  -19.4243  -10.2695 N   0  0  0  0  0  0  0  0  0  0  0  0
   24.9178  -21.0374   -9.3167 C   0  0  0  0  0  0  0  0  0  0  0  0
   24.5445  -22.1277   -8.5841 O   0  0  0  0  0  0  0  0  0  0  0  0
   27.9603  -18.4881   -6.5990 C   0  0  0  0  0  0  0  0  0  0  0  0
   28.9570  -18.6668   -5.6565 C   0  0  0  0  0  0  0  0  0  0  0  0
   24.1407  -20.6989  -10.2677 O   0  0  0  0  0  0  0  0  0  0  0  0
  2  5  1  0
  2  1  1  6
  3  2  1  0
  4  3  1  0
  5  6  2  0
  7  8  1  0
  7  5  1  0
  9 10  2  0
  9  8  1  0
 11 12  1  0
 12 22  2  0
 13 14  2  0
 13 12  1  0
 14 15  1  0
 15 16  1  0
 15 21  2  0
 17 18  1  0
 17 16  1  1
 18  9  1  0
 19 17  1  0
 20 19  1  0
 22 21  1  0
 23 19  2  0
M  END
$$$$
