FQD.pdb
     RDKit          3D

 29 29  0  0  1  0  0  0  0  0999 V2000
   25.1715  -11.5313  -18.3414 N   0  0  0  0  0  0  0  0  0  0  0  0
   24.2714  -11.3788  -17.1933 C   0  0  1  0  0  0  0  0  0  0  0  0
   25.1334  -11.0373  -16.0004 C   0  0  0  0  0  0  0  0  0  0  0  0
   26.0330  -12.1537  -15.6250 C   0  0  0  0  0  0  0  0  0  0  0  0
   27.3965  -12.0416  -15.8534 C   0  0  0  0  0  0  0  0  0  0  0  0
   28.2459  -13.0724  -15.5087 C   0  0  0  0  0  0  0  0  0  0  0  0
   27.7473  -14.2291  -14.9317 C   0  0  0  0  0  0  0  0  0  0  0  0
   26.3903  -14.3422  -14.7038 C   0  0  0  0  0  0  0  0  0  0  0  0
   25.5505  -13.2970  -15.0559 C   0  0  0  0  0  0  0  0  0  0  0  0
   23.3396  -10.2344  -17.4133 C   0  0  0  0  0  0  0  0  0  0  0  0
   23.7511   -9.2793  -18.1349 O   0  0  0  0  0  0  0  0  0  0  0  0
   16.9755  -10.3902  -17.5881 N   0  0  0  0  0  0  0  0  0  0  0  0
   17.3296   -9.0442  -17.8233 C   0  0  0  0  0  0  0  0  0  0  0  0
   16.4431   -8.2566  -18.2174 O   0  0  0  0  0  0  0  0  0  0  0  0
   18.7081   -8.5646  -17.6120 C   0  0  0  0  0  0  0  0  0  0  0  0
   19.7081   -9.6166  -17.3038 C   0  0  0  0  0  0  0  0  0  0  0  0
   21.1147   -9.1263  -17.0780 C   0  0  2  0  0  0  0  0  0  0  0  0
   22.0415  -10.1989  -16.8468 N   0  0  0  0  0  0  0  0  0  0  0  0
   21.0612   -8.2223  -15.9024 C   0  0  0  0  0  0  0  0  0  0  0  0
   21.3782   -8.6660  -14.7840 O   0  0  0  0  0  0  0  0  0  0  0  0
   20.6580   -6.8821  -16.0452 N   0  0  0  0  0  0  0  0  0  0  0  0
   20.7520   -5.9547  -14.9171 C   0  0  1  0  0  0  0  0  0  0  0  0
   22.1515   -5.8958  -14.4149 C   0  0  0  0  0  0  0  0  0  0  0  0
   22.3595   -4.9798  -13.3013 C   0  0  0  0  0  0  0  0  0  0  0  0
   22.4978   -3.7338  -13.5927 O   0  0  0  0  0  0  0  0  0  0  0  0
   20.2053   -4.6575  -15.3630 C   0  0  0  0  0  0  0  0  0  0  0  0
   20.1913   -3.6977  -14.5224 O   0  0  0  0  0  0  0  0  0  0  0  0
   22.4303   -5.2681  -11.9662 O   0  0  0  0  0  0  0  0  0  0  0  0
   19.7023   -4.3709  -16.6080 O   0  0  0  0  0  0  0  0  0  0  0  0
  2  1  1  6
  2  3  1  0
  3  4  1  0
  4  9  2  0
  5  6  2  0
  5  4  1  0
  6  7  1  0
  7  8  2  0
  9  8  1  0
 10 11  2  0
 10  2  1  0
 12 13  1  0
 13 14  2  0
 15 13  1  0
 15 16  1  0
 17 16  1  1
 17 18  1  0
 18 10  1  0
 19 17  1  0
 19 21  1  0
 20 19  2  0
 22 21  1  0
 22 26  1  0
 23 24  1  0
 22 23  1  6
 24 25  2  0
 26 29  1  0
 27 26  2  0
 28 24  1  0
M  END
$$$$
