FQD.pdb
     RDKit          3D

 29 29  0  0  1  0  0  0  0  0999 V2000
   15.2327  -13.2610    4.4873 N   0  0  0  0  0  0  0  0  0  0  0  0
   16.6368  -13.5159    4.8262 C   0  0  1  0  0  0  0  0  0  0  0  0
   17.0314  -12.4931    5.8659 C   0  0  0  0  0  0  0  0  0  0  0  0
   18.4876  -12.5117    6.1413 C   0  0  0  0  0  0  0  0  0  0  0  0
   19.3638  -11.9328    5.2353 C   0  0  0  0  0  0  0  0  0  0  0  0
   20.7216  -11.9421    5.4786 C   0  0  0  0  0  0  0  0  0  0  0  0
   21.2242  -12.5290    6.6286 C   0  0  0  0  0  0  0  0  0  0  0  0
   20.3532  -13.1057    7.5314 C   0  0  0  0  0  0  0  0  0  0  0  0
   18.9916  -13.0876    7.2718 C   0  0  0  0  0  0  0  0  0  0  0  0
   16.7837  -14.8643    5.4479 C   0  0  0  0  0  0  0  0  0  0  0  0
   15.9630  -15.1775    6.3592 O   0  0  0  0  0  0  0  0  0  0  0  0
   18.0623  -20.1271    2.5104 N   0  0  0  0  0  0  0  0  0  0  0  0
   16.9275  -19.2969    2.6352 C   0  0  0  0  0  0  0  0  0  0  0  0
   16.0083  -19.4170    1.7973 O   0  0  0  0  0  0  0  0  0  0  0  0
   16.8152  -18.3082    3.7236 C   0  0  0  0  0  0  0  0  0  0  0  0
   18.0177  -18.1660    4.5813 C   0  0  0  0  0  0  0  0  0  0  0  0
   17.9446  -17.0806    5.6236 C   0  0  2  0  0  0  0  0  0  0  0  0
   17.7942  -15.7733    5.0480 N   0  0  0  0  0  0  0  0  0  0  0  0
   19.2032  -17.1633    6.4055 C   0  0  0  0  0  0  0  0  0  0  0  0
   20.1920  -16.5079    6.0301 O   0  0  0  0  0  0  0  0  0  0  0  0
   19.2823  -17.9700    7.5553 N   0  0  0  0  0  0  0  0  0  0  0  0
   20.5163  -18.0246    8.3401 C   0  0  1  0  0  0  0  0  0  0  0  0
   20.9217  -16.6548    8.7569 C   0  0  0  0  0  0  0  0  0  0  0  0
   22.0484  -16.6089    9.6793 C   0  0  0  0  0  0  0  0  0  0  0  0
   22.9984  -17.4535    9.4778 O   0  0  0  0  0  0  0  0  0  0  0  0
   20.2901  -18.9638    9.4568 C   0  0  0  0  0  0  0  0  0  0  0  0
   19.0834  -19.2440    9.7628 O   0  0  0  0  0  0  0  0  0  0  0  0
   22.2370  -15.7777   10.7489 O   0  0  0  0  0  0  0  0  0  0  0  0
   21.2579  -19.5776   10.2129 O   0  0  0  0  0  0  0  0  0  0  0  0
  2  1  1  1
  2  3  1  0
  3  4  1  0
  4  9  2  0
  5  6  2  0
  5  4  1  0
  6  7  1  0
  7  8  2  0
  9  8  1  0
 10 11  2  0
 10  2  1  0
 12 13  1  0
 13 14  2  0
 15 13  1  0
 15 16  1  0
 17 16  1  6
 17 18  1  0
 18 10  1  0
 19 17  1  0
 19 21  1  0
 20 19  2  0
 22 21  1  0
 22 26  1  0
 23 24  1  0
 22 23  1  1
 24 25  2  0
 26 29  1  0
 27 26  2  0
 28 24  1  0
M  END
$$$$
