FQD.pdb
     RDKit          3D

 29 29  0  0  1  0  0  0  0  0999 V2000
   28.7392  -21.8555  -13.4503 N   0  0  0  0  0  0  0  0  0  0  0  0
   28.1661  -20.9333  -12.4642 C   0  0  1  0  0  0  0  0  0  0  0  0
   29.3184  -20.1720  -11.8516 C   0  0  0  0  0  0  0  0  0  0  0  0
   30.1441  -21.0276  -10.9669 C   0  0  0  0  0  0  0  0  0  0  0  0
   29.7488  -21.2391   -9.6544 C   0  0  0  0  0  0  0  0  0  0  0  0
   30.5070  -22.0334   -8.8196 C   0  0  0  0  0  0  0  0  0  0  0  0
   31.6700  -22.6276   -9.2821 C   0  0  0  0  0  0  0  0  0  0  0  0
   32.0648  -22.4180  -10.5884 C   0  0  0  0  0  0  0  0  0  0  0  0
   31.2913  -21.6171  -11.4143 C   0  0  0  0  0  0  0  0  0  0  0  0
   27.2812  -19.9384  -13.1377 C   0  0  0  0  0  0  0  0  0  0  0  0
   27.7983  -18.8327  -13.4731 O   0  0  0  0  0  0  0  0  0  0  0  0
   26.6352  -18.8972  -18.2338 N   0  0  0  0  0  0  0  0  0  0  0  0
   26.8645  -20.0952  -17.5233 C   0  0  0  0  0  0  0  0  0  0  0  0
   27.5301  -20.9963  -18.0768 O   0  0  0  0  0  0  0  0  0  0  0  0
   26.3383  -20.2921  -16.1597 C   0  0  0  0  0  0  0  0  0  0  0  0
   25.6138  -19.1326  -15.5832 C   0  0  0  0  0  0  0  0  0  0  0  0
   25.0857  -19.3291  -14.1859 C   0  0  2  0  0  0  0  0  0  0  0  0
   25.9142  -20.2013  -13.4013 N   0  0  0  0  0  0  0  0  0  0  0  0
   23.7215  -19.8958  -14.3280 C   0  0  0  0  0  0  0  0  0  0  0  0
   22.9014  -19.3192  -15.0649 O   0  0  0  0  0  0  0  0  0  0  0  0
   23.3559  -21.0678  -13.6410 N   0  0  0  0  0  0  0  0  0  0  0  0
   21.9842  -21.5727  -13.7127 C   0  0  1  0  0  0  0  0  0  0  0  0
   21.9812  -23.0603  -13.6753 C   0  0  0  0  0  0  0  0  0  0  0  0
   22.5706  -23.6987  -14.8447 C   0  0  0  0  0  0  0  0  0  0  0  0
   23.0183  -22.9206  -15.7670 O   0  0  0  0  0  0  0  0  0  0  0  0
   21.2181  -20.9303  -12.6261 C   0  0  0  0  0  0  0  0  0  0  0  0
   19.9619  -21.1481  -12.5752 O   0  0  0  0  0  0  0  0  0  0  0  0
   22.7143  -25.0344  -15.1012 O   0  0  0  0  0  0  0  0  0  0  0  0
   21.7240  -20.1098  -11.6484 O   0  0  0  0  0  0  0  0  0  0  0  0
  2  1  1  6
  2  3  1  0
  3  4  1  0
  4  9  2  0
  5  6  2  0
  5  4  1  0
  6  7  1  0
  7  8  2  0
  9  8  1  0
 10 11  2  0
 10  2  1  0
 12 13  1  0
 13 14  2  0
 15 13  1  0
 15 16  1  0
 17 16  1  6
 17 18  1  0
 18 10  1  0
 19 17  1  0
 19 21  1  0
 20 19  2  0
 22 21  1  0
 22 26  1  0
 23 24  1  0
 22 23  1  1
 24 25  2  0
 26 29  1  0
 27 26  2  0
 28 24  1  0
M  END
$$$$
