FQD.pdb
     RDKit          3D

 29 29  0  0  1  0  0  0  0  0999 V2000
   28.6380  -21.6977   -9.0043 N   0  0  0  0  0  0  0  0  0  0  0  0
   27.3856  -20.9415   -9.1097 C   0  0  1  0  0  0  0  0  0  0  0  0
   27.6576  -19.5606   -8.5604 C   0  0  0  0  0  0  0  0  0  0  0  0
   27.8222  -19.5691   -7.0874 C   0  0  0  0  0  0  0  0  0  0  0  0
   26.9201  -20.2703   -6.3012 C   0  0  0  0  0  0  0  0  0  0  0  0
   27.0609  -20.2876   -4.9291 C   0  0  0  0  0  0  0  0  0  0  0  0
   28.1031  -19.6057   -4.3222 C   0  0  0  0  0  0  0  0  0  0  0  0
   29.0018  -18.9072   -5.1036 C   0  0  0  0  0  0  0  0  0  0  0  0
   28.8461  -18.9002   -6.4811 C   0  0  0  0  0  0  0  0  0  0  0  0
   26.9939  -20.7838  -10.5408 C   0  0  0  0  0  0  0  0  0  0  0  0
   27.9033  -20.9171  -11.4112 O   0  0  0  0  0  0  0  0  0  0  0  0
   24.9393  -25.0925  -13.0625 N   0  0  0  0  0  0  0  0  0  0  0  0
   24.4722  -24.1718  -14.0250 C   0  0  0  0  0  0  0  0  0  0  0  0
   24.0093  -24.6163  -15.0972 O   0  0  0  0  0  0  0  0  0  0  0  0
   24.5220  -22.7176  -13.7844 C   0  0  0  0  0  0  0  0  0  0  0  0
   25.0679  -22.3086  -12.4666 C   0  0  0  0  0  0  0  0  0  0  0  0
   25.1390  -20.8226  -12.2285 C   0  0  2  0  0  0  0  0  0  0  0  0
   25.6626  -20.4969  -10.9312 N   0  0  0  0  0  0  0  0  0  0  0  0
   23.7554  -20.3066  -12.3758 C   0  0  0  0  0  0  0  0  0  0  0  0
   22.9469  -20.4709  -11.4444 O   0  0  0  0  0  0  0  0  0  0  0  0
   23.3587  -19.6409  -13.5499 N   0  0  0  0  0  0  0  0  0  0  0  0
   22.0119  -19.0803  -13.6661 C   0  0  1  0  0  0  0  0  0  0  0  0
   21.8789  -18.3216  -14.9394 C   0  0  0  0  0  0  0  0  0  0  0  0
   20.6552  -17.5396  -15.0557 C   0  0  0  0  0  0  0  0  0  0  0  0
   19.8271  -17.6079  -14.0729 O   0  0  0  0  0  0  0  0  0  0  0  0
   21.0538  -20.1932  -13.5124 C   0  0  0  0  0  0  0  0  0  0  0  0
   19.9940  -19.9761  -12.8358 O   0  0  0  0  0  0  0  0  0  0  0  0
   20.2591  -16.7302  -16.0845 O   0  0  0  0  0  0  0  0  0  0  0  0
   21.1856  -21.4582  -14.0298 O   0  0  0  0  0  0  0  0  0  0  0  0
  2  1  1  6
  2  3  1  0
  3  4  1  0
  4  9  2  0
  5  6  2  0
  5  4  1  0
  6  7  1  0
  7  8  2  0
  9  8  1  0
 10 11  2  0
 10  2  1  0
 12 13  1  0
 13 14  2  0
 15 13  1  0
 15 16  1  0
 17 16  1  1
 17 18  1  0
 18 10  1  0
 19 17  1  0
 19 21  1  0
 20 19  2  0
 22 21  1  0
 22 26  1  0
 23 24  1  0
 22 23  1  6
 24 25  2  0
 26 29  1  0
 27 26  2  0
 28 24  1  0
M  END
$$$$
