FQD.pdb
     RDKit          3D

 29 29  0  0  1  0  0  0  0  0999 V2000
   17.9132  -11.3110  -15.5487 N   0  0  0  0  0  0  0  0  0  0  0  0
   17.5405   -9.9785  -16.0354 C   0  0  1  0  0  0  0  0  0  0  0  0
   16.0970   -9.7564  -15.6487 C   0  0  0  0  0  0  0  0  0  0  0  0
   15.1617  -10.4576  -16.5600 C   0  0  0  0  0  0  0  0  0  0  0  0
   14.6292  -11.6823  -16.1856 C   0  0  0  0  0  0  0  0  0  0  0  0
   13.7572  -12.3463  -17.0232 C   0  0  0  0  0  0  0  0  0  0  0  0
   13.4044  -11.7981  -18.2457 C   0  0  0  0  0  0  0  0  0  0  0  0
   13.9337  -10.5790  -18.6198 C   0  0  0  0  0  0  0  0  0  0  0  0
   14.8085   -9.9249  -17.7662 C   0  0  0  0  0  0  0  0  0  0  0  0
   18.3526   -8.9305  -15.3508 C   0  0  0  0  0  0  0  0  0  0  0  0
   18.4363   -8.9910  -14.0892 O   0  0  0  0  0  0  0  0  0  0  0  0
   22.4702   -7.3847  -13.3141 N   0  0  0  0  0  0  0  0  0  0  0  0
   22.5270   -8.4837  -14.1981 C   0  0  0  0  0  0  0  0  0  0  0  0
   23.0597   -9.5410  -13.7985 O   0  0  0  0  0  0  0  0  0  0  0  0
   21.9740   -8.4010  -15.5628 C   0  0  0  0  0  0  0  0  0  0  0  0
   21.3247   -7.1126  -15.9096 C   0  0  0  0  0  0  0  0  0  0  0  0
   19.9005   -6.9593  -15.4429 C   0  0  2  0  0  0  0  0  0  0  0  0
   19.0122   -7.9006  -16.0657 N   0  0  0  0  0  0  0  0  0  0  0  0
   19.4981   -5.5689  -15.7704 C   0  0  0  0  0  0  0  0  0  0  0  0
   18.9966   -5.3313  -16.8840 O   0  0  0  0  0  0  0  0  0  0  0  0
   19.6797   -4.5307  -14.8385 N   0  0  0  0  0  0  0  0  0  0  0  0
   19.2728   -3.1629  -15.1629 C   0  0  1  0  0  0  0  0  0  0  0  0
   18.0958   -2.7682  -14.3423 C   0  0  0  0  0  0  0  0  0  0  0  0
   17.6712   -1.3853  -14.5146 C   0  0  0  0  0  0  0  0  0  0  0  0
   18.1362   -0.7585  -15.5380 O   0  0  0  0  0  0  0  0  0  0  0  0
   20.4566   -2.2966  -14.9939 C   0  0  0  0  0  0  0  0  0  0  0  0
   21.4441   -2.7617  -14.3331 O   0  0  0  0  0  0  0  0  0  0  0  0
   16.8329   -0.6493  -13.7233 O   0  0  0  0  0  0  0  0  0  0  0  0
   20.6088   -1.0221  -15.4813 O   0  0  0  0  0  0  0  0  0  0  0  0
  2  1  1  1
  2  3  1  0
  3  4  1  0
  4  9  2  0
  5  6  2  0
  5  4  1  0
  6  7  1  0
  7  8  2  0
  9  8  1  0
 10 11  2  0
 10  2  1  0
 12 13  1  0
 13 14  2  0
 15 13  1  0
 15 16  1  0
 17 16  1  6
 17 18  1  0
 18 10  1  0
 19 17  1  0
 19 21  1  0
 20 19  2  0
 22 21  1  0
 22 26  1  0
 23 24  1  0
 22 23  1  1
 24 25  2  0
 26 29  1  0
 27 26  2  0
 28 24  1  0
M  END
$$$$
