FQD.pdb
     RDKit          3D

 29 29  0  0  1  0  0  0  0  0999 V2000
   28.7515  -21.1183   -9.0623 N   0  0  0  0  0  0  0  0  0  0  0  0
   27.3270  -20.8753   -8.8114 C   0  0  1  0  0  0  0  0  0  0  0  0
   27.2330  -19.6008   -8.0054 C   0  0  0  0  0  0  0  0  0  0  0  0
   27.8807  -19.7314   -6.6787 C   0  0  0  0  0  0  0  0  0  0  0  0
   28.9760  -18.9386   -6.3699 C   0  0  0  0  0  0  0  0  0  0  0  0
   29.5888  -19.0488   -5.1389 C   0  0  0  0  0  0  0  0  0  0  0  0
   29.1178  -19.9513   -4.1992 C   0  0  0  0  0  0  0  0  0  0  0  0
   28.0276  -20.7413   -4.5052 C   0  0  0  0  0  0  0  0  0  0  0  0
   27.4233  -20.6179   -5.7467 C   0  0  0  0  0  0  0  0  0  0  0  0
   26.6059  -20.6448  -10.0972 C   0  0  0  0  0  0  0  0  0  0  0  0
   27.0444  -19.7301  -10.8544 O   0  0  0  0  0  0  0  0  0  0  0  0
   24.6039  -25.1215  -14.7432 N   0  0  0  0  0  0  0  0  0  0  0  0
   25.0743  -23.7909  -14.7170 C   0  0  0  0  0  0  0  0  0  0  0  0
   26.0449  -23.4893  -15.4439 O   0  0  0  0  0  0  0  0  0  0  0  0
   24.4446  -22.7704  -13.8585 C   0  0  0  0  0  0  0  0  0  0  0  0
   24.9194  -22.7398  -12.4530 C   0  0  0  0  0  0  0  0  0  0  0  0
   24.9174  -21.3827  -11.7986 C   0  0  2  0  0  0  0  0  0  0  0  0
   25.4741  -21.4086  -10.4748 N   0  0  0  0  0  0  0  0  0  0  0  0
   23.5025  -20.9369  -11.7595 C   0  0  0  0  0  0  0  0  0  0  0  0
   22.8547  -21.0736  -10.7060 O   0  0  0  0  0  0  0  0  0  0  0  0
   22.8976  -20.3676  -12.8949 N   0  0  0  0  0  0  0  0  0  0  0  0
   21.5242  -19.8661  -12.8312 C   0  0  1  0  0  0  0  0  0  0  0  0
   21.4052  -18.5947  -13.5952 C   0  0  0  0  0  0  0  0  0  0  0  0
   20.0770  -17.9962  -13.5759 C   0  0  0  0  0  0  0  0  0  0  0  0
   19.2549  -18.4364  -12.6889 O   0  0  0  0  0  0  0  0  0  0  0  0
   20.6351  -20.9482  -13.2990 C   0  0  0  0  0  0  0  0  0  0  0  0
   21.0129  -21.6344  -14.3062 O   0  0  0  0  0  0  0  0  0  0  0  0
   19.5757  -17.0150  -14.3861 O   0  0  0  0  0  0  0  0  0  0  0  0
   19.4245  -21.2995  -12.7547 O   0  0  0  0  0  0  0  0  0  0  0  0
  2  1  1  6
  2  3  1  0
  3  4  1  0
  4  9  2  0
  5  6  2  0
  5  4  1  0
  6  7  1  0
  7  8  2  0
  9  8  1  0
 10 11  2  0
 10  2  1  0
 12 13  1  0
 13 14  2  0
 15 13  1  0
 15 16  1  0
 17 16  1  1
 17 18  1  0
 18 10  1  0
 19 17  1  0
 19 21  1  0
 20 19  2  0
 22 21  1  0
 22 26  1  0
 23 24  1  0
 22 23  1  6
 24 25  2  0
 26 29  1  0
 27 26  2  0
 28 24  1  0
M  END
$$$$
