FQD.pdb
     RDKit          3D

 29 29  0  0  1  0  0  0  0  0999 V2000
   15.5449  -15.4126    5.1435 N   0  0  0  0  0  0  0  0  0  0  0  0
   16.1627  -16.2535    4.1126 C   0  0  1  0  0  0  0  0  0  0  0  0
   17.6557  -16.2013    4.3383 C   0  0  0  0  0  0  0  0  0  0  0  0
   18.2416  -14.9138    3.8957 C   0  0  0  0  0  0  0  0  0  0  0  0
   18.5186  -14.7131    2.5516 C   0  0  0  0  0  0  0  0  0  0  0  0
   19.0635  -13.5198    2.1250 C   0  0  0  0  0  0  0  0  0  0  0  0
   19.3398  -12.5104    3.0329 C   0  0  0  0  0  0  0  0  0  0  0  0
   19.0646  -12.7088    4.3713 C   0  0  0  0  0  0  0  0  0  0  0  0
   18.5169  -13.9138    4.7833 C   0  0  0  0  0  0  0  0  0  0  0  0
   15.7355  -17.6736    4.2771 C   0  0  0  0  0  0  0  0  0  0  0  0
   15.5226  -18.0845    5.4553 O   0  0  0  0  0  0  0  0  0  0  0  0
   16.0779  -22.1569   -0.4219 N   0  0  0  0  0  0  0  0  0  0  0  0
   15.6865  -22.8532    0.7419 C   0  0  0  0  0  0  0  0  0  0  0  0
   15.4909  -24.0847    0.6602 O   0  0  0  0  0  0  0  0  0  0  0  0
   15.5099  -22.1576    2.0303 C   0  0  0  0  0  0  0  0  0  0  0  0
   15.6558  -20.6817    1.9822 C   0  0  0  0  0  0  0  0  0  0  0  0
   15.5011  -19.9727    3.3025 C   0  0  2  0  0  0  0  0  0  0  0  0
   15.5682  -18.5439    3.1718 N   0  0  0  0  0  0  0  0  0  0  0  0
   16.5942  -20.4673    4.1759 C   0  0  0  0  0  0  0  0  0  0  0  0
   17.1934  -19.6605    4.9096 O   0  0  0  0  0  0  0  0  0  0  0  0
   16.9518  -21.8279    4.1777 N   0  0  0  0  0  0  0  0  0  0  0  0
   17.6315  -22.4150    5.3330 C   0  0  1  0  0  0  0  0  0  0  0  0
   16.8432  -22.1720    6.5716 C   0  0  0  0  0  0  0  0  0  0  0  0
   17.5883  -21.5389    7.6516 C   0  0  0  0  0  0  0  0  0  0  0  0
   18.8319  -21.2913    7.4315 O   0  0  0  0  0  0  0  0  0  0  0  0
   17.8721  -23.8397    5.0288 C   0  0  0  0  0  0  0  0  0  0  0  0
   19.0169  -24.3240    5.3168 O   0  0  0  0  0  0  0  0  0  0  0  0
   17.1394  -21.1666    8.8887 O   0  0  0  0  0  0  0  0  0  0  0  0
   16.9784  -24.7126    4.4592 O   0  0  0  0  0  0  0  0  0  0  0  0
  2  1  1  1
  2  3  1  0
  3  4  1  0
  4  9  2  0
  5  6  2  0
  5  4  1  0
  6  7  1  0
  7  8  2  0
  9  8  1  0
 10 11  2  0
 10  2  1  0
 12 13  1  0
 13 14  2  0
 15 13  1  0
 15 16  1  0
 17 16  1  6
 17 18  1  0
 18 10  1  0
 19 17  1  0
 19 21  1  0
 20 19  2  0
 22 21  1  0
 22 26  1  0
 23 24  1  0
 22 23  1  1
 24 25  2  0
 26 29  1  0
 27 26  2  0
 28 24  1  0
M  END
$$$$
