FQD.pdb
     RDKit          3D

 29 29  0  0  1  0  0  0  0  0999 V2000
   26.3197  -14.0564  -16.9092 N   0  0  0  0  0  0  0  0  0  0  0  0
   25.6409  -13.0338  -16.1063 C   0  0  1  0  0  0  0  0  0  0  0  0
   26.6718  -12.4579  -15.1638 C   0  0  0  0  0  0  0  0  0  0  0  0
   27.8074  -11.8410  -15.8895 C   0  0  0  0  0  0  0  0  0  0  0  0
   28.8224  -12.6459  -16.3850 C   0  0  0  0  0  0  0  0  0  0  0  0
   29.8853  -12.0859  -17.0628 C   0  0  0  0  0  0  0  0  0  0  0  0
   29.9506  -10.7154  -17.2558 C   0  0  0  0  0  0  0  0  0  0  0  0
   28.9409   -9.9129  -16.7630 C   0  0  0  0  0  0  0  0  0  0  0  0
   27.8798  -10.4918  -16.0843 C   0  0  0  0  0  0  0  0  0  0  0  0
   25.1632  -11.9218  -16.9791 C   0  0  0  0  0  0  0  0  0  0  0  0
   25.6048  -11.8817  -18.1646 O   0  0  0  0  0  0  0  0  0  0  0  0
   23.8797  -10.6431  -21.1013 N   0  0  0  0  0  0  0  0  0  0  0  0
   22.8619   -9.7071  -20.8179 C   0  0  0  0  0  0  0  0  0  0  0  0
   22.4438   -8.9840  -21.7474 O   0  0  0  0  0  0  0  0  0  0  0  0
   22.2953   -9.5753  -19.4627 C   0  0  0  0  0  0  0  0  0  0  0  0
   22.8141  -10.5376  -18.4594 C   0  0  0  0  0  0  0  0  0  0  0  0
   23.6756   -9.9420  -17.3763 C   0  0  2  0  0  0  0  0  0  0  0  0
   24.2512  -10.9401  -16.5188 N   0  0  0  0  0  0  0  0  0  0  0  0
   22.8017   -9.0289  -16.5986 C   0  0  0  0  0  0  0  0  0  0  0  0
   22.0835   -9.5007  -15.6987 O   0  0  0  0  0  0  0  0  0  0  0  0
   22.7817   -7.6489  -16.8714 N   0  0  0  0  0  0  0  0  0  0  0  0
   21.9691   -6.7434  -16.0582 C   0  0  1  0  0  0  0  0  0  0  0  0
   22.7713   -6.2118  -14.9231 C   0  0  0  0  0  0  0  0  0  0  0  0
   22.0758   -5.2396  -14.0903 C   0  0  0  0  0  0  0  0  0  0  0  0
   20.8219   -5.4437  -13.8839 O   0  0  0  0  0  0  0  0  0  0  0  0
   21.4212   -5.7098  -16.9591 C   0  0  0  0  0  0  0  0  0  0  0  0
   20.5041   -4.9490  -16.5028 O   0  0  0  0  0  0  0  0  0  0  0  0
   22.5815   -4.1203  -13.4888 O   0  0  0  0  0  0  0  0  0  0  0  0
   21.8013   -5.4775  -18.2579 O   0  0  0  0  0  0  0  0  0  0  0  0
  2  1  1  6
  2  3  1  0
  3  4  1  0
  4  9  2  0
  5  6  2  0
  5  4  1  0
  6  7  1  0
  7  8  2  0
  9  8  1  0
 10 11  2  0
 10  2  1  0
 12 13  1  0
 13 14  2  0
 15 13  1  0
 15 16  1  0
 17 16  1  6
 17 18  1  0
 18 10  1  0
 19 17  1  0
 19 21  1  0
 20 19  2  0
 22 21  1  0
 22 26  1  0
 23 24  1  0
 22 23  1  1
 24 25  2  0
 26 29  1  0
 27 26  2  0
 28 24  1  0
M  END
$$$$
