FQD.pdb
     RDKit          3D

 29 29  0  0  1  0  0  0  0  0999 V2000
   17.2177  -12.3182    7.5660 N   0  0  0  0  0  0  0  0  0  0  0  0
   18.0434  -13.3532    6.9350 C   0  0  1  0  0  0  0  0  0  0  0  0
   19.2850  -13.5035    7.7827 C   0  0  0  0  0  0  0  0  0  0  0  0
   20.2108  -12.3571    7.6231 C   0  0  0  0  0  0  0  0  0  0  0  0
   20.4230  -11.4942    8.6881 C   0  0  0  0  0  0  0  0  0  0  0  0
   21.2821  -10.4233    8.5543 C   0  0  0  0  0  0  0  0  0  0  0  0
   21.9414  -10.1982    7.3568 C   0  0  0  0  0  0  0  0  0  0  0  0
   21.7312  -11.0563    6.2958 C   0  0  0  0  0  0  0  0  0  0  0  0
   20.8647  -12.1278    6.4469 C   0  0  0  0  0  0  0  0  0  0  0  0
   17.3316  -14.6645    6.9491 C   0  0  0  0  0  0  0  0  0  0  0  0
   16.5103  -14.8708    7.8900 O   0  0  0  0  0  0  0  0  0  0  0  0
   16.5577  -18.8981    2.1248 N   0  0  0  0  0  0  0  0  0  0  0  0
   16.0258  -19.5209    3.2744 C   0  0  0  0  0  0  0  0  0  0  0  0
   15.4198  -20.6049    3.1366 O   0  0  0  0  0  0  0  0  0  0  0  0
   16.1751  -18.9189    4.6125 C   0  0  0  0  0  0  0  0  0  0  0  0
   16.8127  -17.5794    4.6405 C   0  0  0  0  0  0  0  0  0  0  0  0
   16.9517  -16.9571    6.0056 C   0  0  2  0  0  0  0  0  0  0  0  0
   17.5513  -15.6528    5.9580 N   0  0  0  0  0  0  0  0  0  0  0  0
   17.7871  -17.8850    6.8076 C   0  0  0  0  0  0  0  0  0  0  0  0
   19.0101  -17.9418    6.5860 O   0  0  0  0  0  0  0  0  0  0  0  0
   17.2091  -18.6914    7.8050 N   0  0  0  0  0  0  0  0  0  0  0  0
   18.0399  -19.5926    8.6045 C   0  0  1  0  0  0  0  0  0  0  0  0
   17.9524  -19.2303   10.0451 C   0  0  0  0  0  0  0  0  0  0  0  0
   19.1221  -19.5918   10.8348 C   0  0  0  0  0  0  0  0  0  0  0  0
   20.0565  -20.2351   10.2270 O   0  0  0  0  0  0  0  0  0  0  0  0
   17.6217  -20.9740    8.2930 C   0  0  0  0  0  0  0  0  0  0  0  0
   16.4465  -21.1488    7.8279 O   0  0  0  0  0  0  0  0  0  0  0  0
   19.3663  -19.3378   12.1563 O   0  0  0  0  0  0  0  0  0  0  0  0
   18.3773  -22.1091    8.4539 O   0  0  0  0  0  0  0  0  0  0  0  0
  2  1  1  1
  2  3  1  0
  3  4  1  0
  4  9  2  0
  5  6  2  0
  5  4  1  0
  6  7  1  0
  7  8  2  0
  9  8  1  0
 10 11  2  0
 10  2  1  0
 12 13  1  0
 13 14  2  0
 15 13  1  0
 15 16  1  0
 17 16  1  6
 17 18  1  0
 18 10  1  0
 19 17  1  0
 19 21  1  0
 20 19  2  0
 22 21  1  0
 22 26  1  0
 23 24  1  0
 22 23  1  1
 24 25  2  0
 26 29  1  0
 27 26  2  0
 28 24  1  0
M  END
$$$$
