FGH.pdb
     RDKit          3D

 26 27  0  0  1  0  0  0  0  0999 V2000
   25.5965  -21.0797   -7.2709 N   0  0  0  0  0  0  0  0  0  0  0  0
   26.4407  -20.5295   -8.2998 C   0  0  1  0  0  0  0  0  0  0  0  0
   27.8910  -20.8441   -8.0086 C   0  0  0  0  0  0  0  0  0  0  0  0
   28.2980  -20.2401   -6.7194 C   0  0  0  0  0  0  0  0  0  0  0  0
   28.1676  -18.8735   -6.5443 C   0  0  0  0  0  0  0  0  0  0  0  0
   28.5573  -18.3440   -5.3284 C   0  0  0  0  0  0  0  0  0  0  0  0
   29.0599  -19.1274   -4.3130 C   0  0  0  0  0  0  0  0  0  0  0  0
   29.1704  -20.4830   -4.5358 C   0  0  0  0  0  0  0  0  0  0  0  0
   28.7988  -21.0717   -5.7268 C   0  0  0  0  0  0  0  0  0  0  0  0
   26.0430  -20.9936   -9.6469 C   0  0  0  0  0  0  0  0  0  0  0  0
   25.9945  -22.2227   -9.8694 O   0  0  0  0  0  0  0  0  0  0  0  0
   25.7116  -20.1029  -10.7064 N   0  0  0  0  0  0  0  0  0  0  0  0
   25.2373  -20.5508  -11.9816 C   0  0  0  0  0  0  0  0  0  0  0  0
   23.8501  -20.1956  -12.3100 C   0  0  0  0  0  0  0  0  0  0  0  0
   23.0973  -19.8470  -11.3230 O   0  0  0  0  0  0  0  0  0  0  0  0
   23.2959  -20.2094  -13.6059 N   0  0  0  0  0  0  0  0  0  0  0  0
   21.8787  -19.8935  -13.7458 C   0  0  1  0  0  0  0  0  0  0  0  0
   21.5509  -19.4642  -15.1408 C   0  0  0  0  0  0  0  0  0  0  0  0
   22.1494  -18.1540  -15.4213 C   0  0  0  0  0  0  0  0  0  0  0  0
   23.5061  -17.8727  -15.6227 C   0  0  0  0  0  0  0  0  0  0  0  0
   23.6660  -16.5688  -15.8518 N   0  0  0  0  0  0  0  0  0  0  0  0
   22.4632  -15.9957  -15.8063 C   0  0  0  0  0  0  0  0  0  0  0  0
   21.5409  -16.9669  -15.5434 N   0  0  0  0  0  0  0  0  0  0  0  0
   21.1378  -21.1202  -13.4150 C   0  0  0  0  0  0  0  0  0  0  0  0
   19.8478  -21.0624  -12.9608 O   0  0  0  0  0  0  0  0  0  0  0  0
   21.6749  -22.2470  -13.5404 O   0  0  0  0  0  0  0  0  0  0  0  0
  2 10  1  0
  2  1  1  1
  3  2  1  0
  4  3  1  0
  5  4  2  0
  6  5  1  0
  7  8  1  0
  7  6  2  0
  8  9  2  0
  9  4  1  0
 10 12  1  0
 11 10  2  0
 12 13  1  0
 14 15  2  0
 14 13  1  0
 16 14  1  0
 17 16  1  0
 17 24  1  0
 17 18  1  6
 19 18  1  0
 20 19  2  0
 21 20  1  0
 22 21  1  0
 22 23  2  0
 23 19  1  0
 24 25  1  0
 26 24  2  0
M  END
$$$$
