FGH.pdb
     RDKit          3D

 26 27  0  0  1  0  0  0  0  0999 V2000
   24.5873  -11.2058  -17.0888 N   0  0  0  0  0  0  0  0  0  0  0  0
   24.4060  -10.8900  -15.6955 C   0  0  1  0  0  0  0  0  0  0  0  0
   25.7250  -10.4849  -15.0763 C   0  0  0  0  0  0  0  0  0  0  0  0
   26.7595  -11.5060  -15.3590 C   0  0  0  0  0  0  0  0  0  0  0  0
   27.7519  -11.2229  -16.2811 C   0  0  0  0  0  0  0  0  0  0  0  0
   28.7008  -12.1992  -16.5199 C   0  0  0  0  0  0  0  0  0  0  0  0
   28.6806  -13.4168  -15.8763 C   0  0  0  0  0  0  0  0  0  0  0  0
   27.6719  -13.6512  -14.9667 C   0  0  0  0  0  0  0  0  0  0  0  0
   26.6960  -12.7179  -14.6846 C   0  0  0  0  0  0  0  0  0  0  0  0
   23.3696   -9.8539  -15.4946 C   0  0  0  0  0  0  0  0  0  0  0  0
   23.1325   -9.4580  -14.3329 O   0  0  0  0  0  0  0  0  0  0  0  0
   22.6262   -9.2840  -16.5662 N   0  0  0  0  0  0  0  0  0  0  0  0
   21.5438   -8.3681  -16.3634 C   0  0  0  0  0  0  0  0  0  0  0  0
   21.9237   -7.0045  -15.9700 C   0  0  0  0  0  0  0  0  0  0  0  0
   23.1482   -6.6641  -16.1867 O   0  0  0  0  0  0  0  0  0  0  0  0
   21.0574   -6.0604  -15.3827 N   0  0  0  0  0  0  0  0  0  0  0  0
   21.5680   -4.7125  -15.1579 C   0  0  1  0  0  0  0  0  0  0  0  0
   21.9777   -4.0634  -16.4419 C   0  0  0  0  0  0  0  0  0  0  0  0
   22.4832   -2.7097  -16.1863 C   0  0  0  0  0  0  0  0  0  0  0  0
   23.8201   -2.2936  -16.1945 C   0  0  0  0  0  0  0  0  0  0  0  0
   23.8874   -0.9909  -15.9178 N   0  0  0  0  0  0  0  0  0  0  0  0
   22.6438   -0.5483  -15.7308 C   0  0  0  0  0  0  0  0  0  0  0  0
   21.7905   -1.6007  -15.8957 N   0  0  0  0  0  0  0  0  0  0  0  0
   20.4769   -3.9455  -14.5379 C   0  0  0  0  0  0  0  0  0  0  0  0
   20.7388   -2.8362  -13.7798 O   0  0  0  0  0  0  0  0  0  0  0  0
   19.2814   -4.2942  -14.6897 O   0  0  0  0  0  0  0  0  0  0  0  0
  2 10  1  0
  2  1  1  6
  3  2  1  0
  4  3  1  0
  5  4  2  0
  6  5  1  0
  7  8  1  0
  7  6  2  0
  8  9  2  0
  9  4  1  0
 10 12  1  0
 11 10  2  0
 12 13  1  0
 14 15  2  0
 14 13  1  0
 16 14  1  0
 17 16  1  0
 17 24  1  0
 17 18  1  6
 19 18  1  0
 20 19  2  0
 21 20  1  0
 22 21  1  0
 22 23  2  0
 23 19  1  0
 24 25  1  0
 26 24  2  0
M  END
$$$$
