FGH.pdb
     RDKit          3D

 26 27  0  0  1  0  0  0  0  0999 V2000
   24.1716  -11.8733  -15.5698 N   0  0  0  0  0  0  0  0  0  0  0  0
   25.0377  -11.0123  -14.8066 C   0  0  1  0  0  0  0  0  0  0  0  0
   26.3709  -10.8618  -15.5046 C   0  0  0  0  0  0  0  0  0  0  0  0
   26.8932  -12.1884  -15.9043 C   0  0  0  0  0  0  0  0  0  0  0  0
   27.2118  -12.4154  -17.2319 C   0  0  0  0  0  0  0  0  0  0  0  0
   27.6968  -13.6651  -17.5689 C   0  0  0  0  0  0  0  0  0  0  0  0
   27.8655  -14.6642  -16.6358 C   0  0  0  0  0  0  0  0  0  0  0  0
   27.5340  -14.3893  -15.3265 C   0  0  0  0  0  0  0  0  0  0  0  0
   27.0454  -13.1626  -14.9269 C   0  0  0  0  0  0  0  0  0  0  0  0
   24.4129   -9.6987  -14.5377 C   0  0  0  0  0  0  0  0  0  0  0  0
   25.1388   -8.7535  -14.1607 O   0  0  0  0  0  0  0  0  0  0  0  0
   23.0181   -9.4591  -14.6886 N   0  0  0  0  0  0  0  0  0  0  0  0
   22.4289   -8.1625  -14.5353 C   0  0  0  0  0  0  0  0  0  0  0  0
   21.3951   -7.8085  -15.5173 C   0  0  0  0  0  0  0  0  0  0  0  0
   20.7781   -6.6929  -15.3251 O   0  0  0  0  0  0  0  0  0  0  0  0
   21.0381   -8.5904  -16.6344 N   0  0  0  0  0  0  0  0  0  0  0  0
   19.9636   -8.1040  -17.4928 C   0  0  1  0  0  0  0  0  0  0  0  0
   20.4025   -8.0186  -18.9204 C   0  0  0  0  0  0  0  0  0  0  0  0
   21.2878   -6.8636  -19.1098 C   0  0  0  0  0  0  0  0  0  0  0  0
   20.9708   -5.5157  -18.9031 C   0  0  0  0  0  0  0  0  0  0  0  0
   22.0318   -4.7566  -19.1793 N   0  0  0  0  0  0  0  0  0  0  0  0
   23.0238   -5.5631  -19.5571 C   0  0  0  0  0  0  0  0  0  0  0  0
   22.5651   -6.8479  -19.5131 N   0  0  0  0  0  0  0  0  0  0  0  0
   18.8564   -9.0641  -17.3686 C   0  0  0  0  0  0  0  0  0  0  0  0
   18.9710  -10.1712  -16.5717 O   0  0  0  0  0  0  0  0  0  0  0  0
   17.7828   -8.8890  -17.9936 O   0  0  0  0  0  0  0  0  0  0  0  0
  2 10  1  0
  2  1  1  6
  3  2  1  0
  4  3  1  0
  5  4  2  0
  6  5  1  0
  7  8  1  0
  7  6  2  0
  8  9  2  0
  9  4  1  0
 10 12  1  0
 11 10  2  0
 12 13  1  0
 14 15  2  0
 14 13  1  0
 16 14  1  0
 17 16  1  0
 17 24  1  0
 17 18  1  6
 19 18  1  0
 20 19  2  0
 21 20  1  0
 22 21  1  0
 22 23  2  0
 23 19  1  0
 24 25  1  0
 26 24  2  0
M  END
$$$$
