FGH.pdb
     RDKit          3D

 26 27  0  0  1  0  0  0  0  0999 V2000
   23.4710  -11.9468  -15.4974 N   0  0  0  0  0  0  0  0  0  0  0  0
   23.5912  -10.5384  -15.7730 C   0  0  1  0  0  0  0  0  0  0  0  0
   24.6587  -10.3003  -16.8175 C   0  0  0  0  0  0  0  0  0  0  0  0
   25.9241  -10.9565  -16.4165 C   0  0  0  0  0  0  0  0  0  0  0  0
   26.7794  -10.2988  -15.5499 C   0  0  0  0  0  0  0  0  0  0  0  0
   27.9514  -10.9412  -15.1971 C   0  0  0  0  0  0  0  0  0  0  0  0
   28.2781  -12.1901  -15.6774 C   0  0  0  0  0  0  0  0  0  0  0  0
   27.3937  -12.8042  -16.5378 C   0  0  0  0  0  0  0  0  0  0  0  0
   26.2084  -12.2157  -16.9277 C   0  0  0  0  0  0  0  0  0  0  0  0
   22.2976   -9.9414  -16.1711 C   0  0  0  0  0  0  0  0  0  0  0  0
   21.3466  -10.7014  -16.4545 O   0  0  0  0  0  0  0  0  0  0  0  0
   22.0838   -8.5363  -16.2470 N   0  0  0  0  0  0  0  0  0  0  0  0
   20.8553   -7.9585  -16.7038 C   0  0  0  0  0  0  0  0  0  0  0  0
   20.8143   -6.4905  -16.7449 C   0  0  0  0  0  0  0  0  0  0  0  0
   21.8355   -5.8733  -16.2565 O   0  0  0  0  0  0  0  0  0  0  0  0
   19.7547   -5.7247  -17.2717 N   0  0  0  0  0  0  0  0  0  0  0  0
   19.9147   -4.2753  -17.3134 C   0  0  1  0  0  0  0  0  0  0  0  0
   19.8111   -3.7554  -18.7122 C   0  0  0  0  0  0  0  0  0  0  0  0
   20.0933   -2.3155  -18.7395 C   0  0  0  0  0  0  0  0  0  0  0  0
   20.9949   -1.6177  -17.9268 C   0  0  0  0  0  0  0  0  0  0  0  0
   20.9773   -0.3227  -18.2443 N   0  0  0  0  0  0  0  0  0  0  0  0
   20.0980   -0.1563  -19.2324 C   0  0  0  0  0  0  0  0  0  0  0  0
   19.5611   -1.3752  -19.5312 N   0  0  0  0  0  0  0  0  0  0  0  0
   18.8367   -3.7075  -16.4897 C   0  0  0  0  0  0  0  0  0  0  0  0
   19.0577   -2.6123  -15.6988 O   0  0  0  0  0  0  0  0  0  0  0  0
   17.6905   -4.2177  -16.4934 O   0  0  0  0  0  0  0  0  0  0  0  0
  2 10  1  0
  2  1  1  6
  3  2  1  0
  4  3  1  0
  5  4  2  0
  6  5  1  0
  7  8  1  0
  7  6  2  0
  8  9  2  0
  9  4  1  0
 10 12  1  0
 11 10  2  0
 12 13  1  0
 14 15  2  0
 14 13  1  0
 16 14  1  0
 17 16  1  0
 17 24  1  0
 17 18  1  6
 19 18  1  0
 20 19  2  0
 21 20  1  0
 22 21  1  0
 22 23  2  0
 23 19  1  0
 24 25  1  0
 26 24  2  0
M  END
$$$$
