FGH.pdb
     RDKit          3D

 26 27  0  0  1  0  0  0  0  0999 V2000
   25.7817  -21.0500   -8.4436 N   0  0  0  0  0  0  0  0  0  0  0  0
   26.9401  -20.3892   -8.9872 C   0  0  1  0  0  0  0  0  0  0  0  0
   28.1844  -20.8222   -8.2446 C   0  0  0  0  0  0  0  0  0  0  0  0
   28.2026  -20.2324   -6.8865 C   0  0  0  0  0  0  0  0  0  0  0  0
   28.2518  -21.0722   -5.7875 C   0  0  0  0  0  0  0  0  0  0  0  0
   28.2676  -20.4870   -4.5353 C   0  0  0  0  0  0  0  0  0  0  0  0
   28.2362  -19.1210   -4.3620 C   0  0  0  0  0  0  0  0  0  0  0  0
   28.1875  -18.3269   -5.4875 C   0  0  0  0  0  0  0  0  0  0  0  0
   28.1695  -18.8498   -6.7639 C   0  0  0  0  0  0  0  0  0  0  0  0
   27.0703  -20.6123  -10.4437 C   0  0  0  0  0  0  0  0  0  0  0  0
   27.9439  -19.9778  -11.0734 O   0  0  0  0  0  0  0  0  0  0  0  0
   26.2441  -21.5194  -11.1650 N   0  0  0  0  0  0  0  0  0  0  0  0
   25.9372  -21.3575  -12.5548 C   0  0  0  0  0  0  0  0  0  0  0  0
   24.5085  -21.3242  -12.8955 C   0  0  0  0  0  0  0  0  0  0  0  0
   24.2091  -20.9009  -14.0760 O   0  0  0  0  0  0  0  0  0  0  0  0
   23.4620  -21.7159  -12.0364 N   0  0  0  0  0  0  0  0  0  0  0  0
   22.0985  -21.6615  -12.5522 C   0  0  1  0  0  0  0  0  0  0  0  0
   21.1841  -22.5509  -11.7709 C   0  0  0  0  0  0  0  0  0  0  0  0
   19.8145  -22.4488  -12.2881 C   0  0  0  0  0  0  0  0  0  0  0  0
   19.3412  -21.5466  -13.2484 C   0  0  0  0  0  0  0  0  0  0  0  0
   18.0419  -21.7573  -13.4617 N   0  0  0  0  0  0  0  0  0  0  0  0
   17.6565  -22.7623  -12.6752 C   0  0  0  0  0  0  0  0  0  0  0  0
   18.7416  -23.1810  -11.9609 N   0  0  0  0  0  0  0  0  0  0  0  0
   21.6569  -20.2638  -12.4318 C   0  0  0  0  0  0  0  0  0  0  0  0
   20.7400  -19.7380  -13.3016 O   0  0  0  0  0  0  0  0  0  0  0  0
   22.1142  -19.5225  -11.5288 O   0  0  0  0  0  0  0  0  0  0  0  0
  2 10  1  0
  2  1  1  1
  3  2  1  0
  4  3  1  0
  5  4  2  0
  6  5  1  0
  7  8  1  0
  7  6  2  0
  8  9  2  0
  9  4  1  0
 10 12  1  0
 11 10  2  0
 12 13  1  0
 14 15  2  0
 14 13  1  0
 16 14  1  0
 17 16  1  0
 17 24  1  0
 17 18  1  1
 19 18  1  0
 20 19  2  0
 21 20  1  0
 22 21  1  0
 22 23  2  0
 23 19  1  0
 24 25  1  0
 26 24  2  0
M  END
$$$$
