FGH.pdb
     RDKit          3D

 26 27  0  0  1  0  0  0  0  0999 V2000
   22.0314   -9.0534  -16.6294 N   0  0  0  0  0  0  0  0  0  0  0  0
   21.5245   -9.3470  -15.3138 C   0  0  1  0  0  0  0  0  0  0  0  0
   22.5050   -8.8813  -14.2608 C   0  0  0  0  0  0  0  0  0  0  0  0
   22.5439   -7.4018  -14.2148 C   0  0  0  0  0  0  0  0  0  0  0  0
   23.2083   -6.7135  -15.2148 C   0  0  0  0  0  0  0  0  0  0  0  0
   23.2243   -5.3333  -15.1399 C   0  0  0  0  0  0  0  0  0  0  0  0
   22.6089   -4.6457  -14.1173 C   0  0  0  0  0  0  0  0  0  0  0  0
   21.9601   -5.3761  -13.1450 C   0  0  0  0  0  0  0  0  0  0  0  0
   21.9085   -6.7546  -13.1636 C   0  0  0  0  0  0  0  0  0  0  0  0
   20.1798   -8.7695  -15.0987 C   0  0  0  0  0  0  0  0  0  0  0  0
   19.8543   -7.7481  -15.7415 O   0  0  0  0  0  0  0  0  0  0  0  0
   19.2349   -9.3243  -14.1904 N   0  0  0  0  0  0  0  0  0  0  0  0
   17.9193   -8.7874  -14.0098 C   0  0  0  0  0  0  0  0  0  0  0  0
   16.8804   -9.3255  -14.8984 C   0  0  0  0  0  0  0  0  0  0  0  0
   16.3973   -8.5132  -15.7753 O   0  0  0  0  0  0  0  0  0  0  0  0
   16.3847  -10.6444  -14.8587 N   0  0  0  0  0  0  0  0  0  0  0  0
   15.4585  -11.0575  -15.9073 C   0  0  1  0  0  0  0  0  0  0  0  0
   16.1665  -11.7899  -17.0027 C   0  0  0  0  0  0  0  0  0  0  0  0
   16.8911  -12.9426  -16.4552 C   0  0  0  0  0  0  0  0  0  0  0  0
   18.2696  -13.0430  -16.2315 C   0  0  0  0  0  0  0  0  0  0  0  0
   18.5568  -14.2423  -15.7243 N   0  0  0  0  0  0  0  0  0  0  0  0
   17.4155  -14.9220  -15.6113 C   0  0  0  0  0  0  0  0  0  0  0  0
   16.4018  -14.1248  -16.0585 N   0  0  0  0  0  0  0  0  0  0  0  0
   14.4706  -11.9434  -15.2731 C   0  0  0  0  0  0  0  0  0  0  0  0
   14.5723  -12.2778  -13.9495 O   0  0  0  0  0  0  0  0  0  0  0  0
   13.5136  -12.4137  -15.9340 O   0  0  0  0  0  0  0  0  0  0  0  0
  2 10  1  0
  2  1  1  6
  3  2  1  0
  4  3  1  0
  5  4  2  0
  6  5  1  0
  7  8  1  0
  7  6  2  0
  8  9  2  0
  9  4  1  0
 10 12  1  0
 11 10  2  0
 12 13  1  0
 14 15  2  0
 14 13  1  0
 16 14  1  0
 17 16  1  0
 17 24  1  0
 17 18  1  6
 19 18  1  0
 20 19  2  0
 21 20  1  0
 22 21  1  0
 22 23  2  0
 23 19  1  0
 24 25  1  0
 26 24  2  0
M  END
$$$$
