FGH.pdb
     RDKit          3D

 26 27  0  0  1  0  0  0  0  0999 V2000
   24.8817  -24.0629  -17.8302 N   0  0  0  0  0  0  0  0  0  0  0  0
   25.7892  -24.5282  -16.8134 C   0  0  1  0  0  0  0  0  0  0  0  0
   25.0364  -25.3091  -15.7596 C   0  0  0  0  0  0  0  0  0  0  0  0
   23.8892  -24.5189  -15.2574 C   0  0  0  0  0  0  0  0  0  0  0  0
   24.1309  -23.3884  -14.4965 C   0  0  0  0  0  0  0  0  0  0  0  0
   23.0364  -22.6752  -14.0446 C   0  0  0  0  0  0  0  0  0  0  0  0
   21.7433  -23.0556  -14.3280 C   0  0  0  0  0  0  0  0  0  0  0  0
   21.5544  -24.1888  -15.0895 C   0  0  0  0  0  0  0  0  0  0  0  0
   22.6047  -24.9432  -15.5699 C   0  0  0  0  0  0  0  0  0  0  0  0
   26.9012  -25.3183  -17.3855 C   0  0  0  0  0  0  0  0  0  0  0  0
   26.6991  -25.9697  -18.4330 O   0  0  0  0  0  0  0  0  0  0  0  0
   28.1960  -25.3721  -16.7971 N   0  0  0  0  0  0  0  0  0  0  0  0
   29.2834  -26.1061  -17.3719 C   0  0  0  0  0  0  0  0  0  0  0  0
   29.2149  -27.5670  -17.2322 C   0  0  0  0  0  0  0  0  0  0  0  0
   30.2944  -28.2207  -17.4962 O   0  0  0  0  0  0  0  0  0  0  0  0
   28.0711  -28.2897  -16.8368 N   0  0  0  0  0  0  0  0  0  0  0  0
   28.1695  -29.7438  -16.7761 C   0  0  1  0  0  0  0  0  0  0  0  0
   28.0769  -30.2382  -15.3673 C   0  0  0  0  0  0  0  0  0  0  0  0
   27.9550  -31.7006  -15.3508 C   0  0  0  0  0  0  0  0  0  0  0  0
   27.8246  -32.5481  -16.4575 C   0  0  0  0  0  0  0  0  0  0  0  0
   27.7402  -33.8141  -16.0471 N   0  0  0  0  0  0  0  0  0  0  0  0
   27.8112  -33.8175  -14.7159 C   0  0  0  0  0  0  0  0  0  0  0  0
   27.9422  -32.5255  -14.2955 N   0  0  0  0  0  0  0  0  0  0  0  0
   27.0487  -30.2763  -17.5656 C   0  0  0  0  0  0  0  0  0  0  0  0
   26.9680  -31.6101  -17.8625 O   0  0  0  0  0  0  0  0  0  0  0  0
   26.1428  -29.5170  -17.9859 O   0  0  0  0  0  0  0  0  0  0  0  0
  2 10  1  0
  2  1  1  6
  3  2  1  0
  4  3  1  0
  5  4  2  0
  6  5  1  0
  7  8  1  0
  7  6  2  0
  8  9  2  0
  9  4  1  0
 10 12  1  0
 11 10  2  0
 12 13  1  0
 14 15  2  0
 14 13  1  0
 16 14  1  0
 17 16  1  0
 17 24  1  0
 17 18  1  1
 19 18  1  0
 20 19  2  0
 21 20  1  0
 22 21  1  0
 22 23  2  0
 23 19  1  0
 24 25  1  0
 26 24  2  0
M  END
$$$$
