FGH.pdb
     RDKit          3D

 26 27  0  0  1  0  0  0  0  0999 V2000
   25.3890  -19.7075  -17.3971 N   0  0  0  0  0  0  0  0  0  0  0  0
   24.0606  -19.2559  -17.0723 C   0  0  1  0  0  0  0  0  0  0  0  0
   23.8568  -17.8394  -17.5613 C   0  0  0  0  0  0  0  0  0  0  0  0
   24.8721  -16.9404  -16.9666 C   0  0  0  0  0  0  0  0  0  0  0  0
   24.7271  -16.5369  -15.6508 C   0  0  0  0  0  0  0  0  0  0  0  0
   25.6936  -15.6978  -15.1286 C   0  0  0  0  0  0  0  0  0  0  0  0
   26.7705  -15.2657  -15.8708 C   0  0  0  0  0  0  0  0  0  0  0  0
   26.8705  -15.6952  -17.1766 C   0  0  0  0  0  0  0  0  0  0  0  0
   25.9393  -16.5324  -17.7554 C   0  0  0  0  0  0  0  0  0  0  0  0
   23.0229  -20.1684  -17.6002 C   0  0  0  0  0  0  0  0  0  0  0  0
   23.3813  -21.1797  -18.2415 O   0  0  0  0  0  0  0  0  0  0  0  0
   21.6295  -19.9484  -17.4115 N   0  0  0  0  0  0  0  0  0  0  0  0
   20.6319  -20.9081  -17.7800 C   0  0  0  0  0  0  0  0  0  0  0  0
   20.0661  -21.6988  -16.6786 C   0  0  0  0  0  0  0  0  0  0  0  0
   20.6793  -22.7938  -16.3833 O   0  0  0  0  0  0  0  0  0  0  0  0
   18.9201  -21.3489  -15.9364 N   0  0  0  0  0  0  0  0  0  0  0  0
   18.5394  -22.2097  -14.8218 C   0  0  1  0  0  0  0  0  0  0  0  0
   18.7991  -21.5457  -13.5067 C   0  0  0  0  0  0  0  0  0  0  0  0
   20.2071  -21.1430  -13.4120 C   0  0  0  0  0  0  0  0  0  0  0  0
   21.3116  -21.9798  -13.2117 C   0  0  0  0  0  0  0  0  0  0  0  0
   22.4281  -21.2514  -13.1813 N   0  0  0  0  0  0  0  0  0  0  0  0
   22.0875  -19.9743  -13.3546 C   0  0  0  0  0  0  0  0  0  0  0  0
   20.7311  -19.9130  -13.4950 N   0  0  0  0  0  0  0  0  0  0  0  0
   17.1010  -22.4792  -14.9684 C   0  0  0  0  0  0  0  0  0  0  0  0
   16.4727  -23.3992  -14.1730 O   0  0  0  0  0  0  0  0  0  0  0  0
   16.4194  -21.8718  -15.8289 O   0  0  0  0  0  0  0  0  0  0  0  0
  2 10  1  0
  2  1  1  6
  3  2  1  0
  4  3  1  0
  5  4  2  0
  6  5  1  0
  7  8  1  0
  7  6  2  0
  8  9  2  0
  9  4  1  0
 10 12  1  0
 11 10  2  0
 12 13  1  0
 14 15  2  0
 14 13  1  0
 16 14  1  0
 17 16  1  0
 17 24  1  0
 17 18  1  1
 19 18  1  0
 20 19  2  0
 21 20  1  0
 22 21  1  0
 22 23  2  0
 23 19  1  0
 24 25  1  0
 26 24  2  0
M  END
$$$$
