FGH.pdb
     RDKit          3D

 26 27  0  0  1  0  0  0  0  0999 V2000
   27.0670  -19.8108  -11.4271 N   0  0  0  0  0  0  0  0  0  0  0  0
   26.6066  -21.1698  -11.3036 C   0  0  1  0  0  0  0  0  0  0  0  0
   26.0224  -21.3998   -9.9277 C   0  0  0  0  0  0  0  0  0  0  0  0
   26.9002  -20.8083   -8.8923 C   0  0  0  0  0  0  0  0  0  0  0  0
   26.4107  -19.7871   -8.0967 C   0  0  0  0  0  0  0  0  0  0  0  0
   27.2578  -19.2588   -7.1406 C   0  0  0  0  0  0  0  0  0  0  0  0
   28.5457  -19.7151   -6.9670 C   0  0  0  0  0  0  0  0  0  0  0  0
   28.9869  -20.7338   -7.7839 C   0  0  0  0  0  0  0  0  0  0  0  0
   28.1905  -21.3026   -8.7561 C   0  0  0  0  0  0  0  0  0  0  0  0
   25.6449  -21.5259  -12.3697 C   0  0  0  0  0  0  0  0  0  0  0  0
   25.1836  -22.6873  -12.3997 O   0  0  0  0  0  0  0  0  0  0  0  0
   25.2182  -20.6047  -13.3671 N   0  0  0  0  0  0  0  0  0  0  0  0
   24.3740  -20.9777  -14.4626 C   0  0  0  0  0  0  0  0  0  0  0  0
   22.9299  -20.9596  -14.1934 C   0  0  0  0  0  0  0  0  0  0  0  0
   22.1590  -21.2948  -15.1710 O   0  0  0  0  0  0  0  0  0  0  0  0
   22.3401  -20.6075  -12.9625 N   0  0  0  0  0  0  0  0  0  0  0  0
   21.1942  -21.3867  -12.5068 C   0  0  1  0  0  0  0  0  0  0  0  0
   21.3491  -21.7992  -11.0772 C   0  0  0  0  0  0  0  0  0  0  0  0
   20.1501  -22.5133  -10.6234 C   0  0  0  0  0  0  0  0  0  0  0  0
   18.9562  -22.6916  -11.3327 C   0  0  0  0  0  0  0  0  0  0  0  0
   18.0952  -23.3934  -10.5949 N   0  0  0  0  0  0  0  0  0  0  0  0
   18.6874  -23.6760   -9.4344 C   0  0  0  0  0  0  0  0  0  0  0  0
   19.9412  -23.1369   -9.4565 N   0  0  0  0  0  0  0  0  0  0  0  0
   20.0123  -20.5234  -12.6509 C   0  0  0  0  0  0  0  0  0  0  0  0
   20.1433  -19.1972  -12.9637 O   0  0  0  0  0  0  0  0  0  0  0  0
   18.8573  -20.9853  -12.4877 O   0  0  0  0  0  0  0  0  0  0  0  0
  2 10  1  0
  2  1  1  1
  3  2  1  0
  4  3  1  0
  5  4  2  0
  6  5  1  0
  7  8  1  0
  7  6  2  0
  8  9  2  0
  9  4  1  0
 10 12  1  0
 11 10  2  0
 12 13  1  0
 14 15  2  0
 14 13  1  0
 16 14  1  0
 17 16  1  0
 17 24  1  0
 17 18  1  1
 19 18  1  0
 20 19  2  0
 21 20  1  0
 22 21  1  0
 22 23  2  0
 23 19  1  0
 24 25  1  0
 26 24  2  0
M  END
$$$$
