NNL.pdb
     RDKit          3D

 25 24  0  0  1  0  0  0  0  0999 V2000
   26.1970  -22.9055  -19.8544 N   0  0  0  0  0  0  0  0  0  0  0  0
   27.1082  -22.7577  -18.7840 C   0  0  0  0  0  0  0  0  0  0  0  0
   28.1077  -23.5116  -18.7628 O   0  0  0  0  0  0  0  0  0  0  0  0
   26.9204  -21.7671  -17.7193 C   0  0  0  0  0  0  0  0  0  0  0  0
   26.7492  -22.4479  -16.3858 C   0  0  2  0  0  0  0  0  0  0  0  0
   25.5326  -23.2255  -16.3575 N   0  0  0  0  0  0  0  0  0  0  0  0
   26.7726  -21.4805  -15.2672 C   0  0  0  0  0  0  0  0  0  0  0  0
   27.6528  -20.5823  -15.1618 O   0  0  0  0  0  0  0  0  0  0  0  0
   25.0210  -18.6827  -15.3560 N   0  0  0  0  0  0  0  0  0  0  0  0
   23.9124  -19.0409  -14.5642 C   0  0  0  0  0  0  0  0  0  0  0  0
   22.7764  -18.5526  -14.8001 O   0  0  0  0  0  0  0  0  0  0  0  0
   24.0772  -19.9960  -13.4473 C   0  0  0  0  0  0  0  0  0  0  0  0
   25.5058  -20.4962  -13.3303 C   0  0  2  0  0  0  0  0  0  0  0  0
   25.7670  -21.5631  -14.2718 N   0  0  0  0  0  0  0  0  0  0  0  0
   25.6244  -21.0610  -11.9541 C   0  0  0  0  0  0  0  0  0  0  0  0
   25.0589  -22.1611  -11.7303 O   0  0  0  0  0  0  0  0  0  0  0  0
   28.7161  -19.4678   -7.0124 C   0  0  0  0  0  0  0  0  0  0  0  0
   27.4466  -20.3146   -7.3613 C   0  0  1  0  0  0  0  0  0  0  0  0
   26.3886  -19.7739   -6.4681 C   0  0  0  0  0  0  0  0  0  0  0  0
   27.2899  -20.1752   -8.8136 C   0  0  0  0  0  0  0  0  0  0  0  0
   26.2240  -20.8821   -9.5552 C   0  0  2  0  0  0  0  0  0  0  0  0
   26.3481  -20.3752  -10.9491 N   0  0  0  0  0  0  0  0  0  0  0  0
   24.8822  -20.5185   -9.0888 C   0  0  0  0  0  0  0  0  0  0  0  0
   24.2364  -21.4027   -8.1936 O   0  0  0  0  0  0  0  0  0  0  0  0
   24.2250  -19.5017   -9.3918 O   0  0  0  0  0  0  0  0  0  0  0  0
  1  2  1  0
  2  3  2  0
  4  2  1  0
  5  4  1  0
  5  6  1  6
  7  8  2  0
  7  5  1  0
 10  9  1  0
 10 12  1  0
 11 10  2  0
 13 12  1  6
 13 14  1  0
 14  7  1  0
 15 22  1  0
 15 13  1  0
 16 15  2  0
 18 19  1  1
 18 17  1  0
 20 18  1  0
 21 20  1  1
 21 22  1  0
 23 21  1  0
 24 23  1  0
 25 23  2  0
M  END
$$$$
