NNL.pdb
     RDKit          3D

 25 24  0  0  1  0  0  0  0  0999 V2000
   39.9860  -25.3782    3.5064 N   0  0  0  0  0  0  0  0  0  0  0  0
   38.9665  -26.3558    3.5571 C   0  0  0  0  0  0  0  0  0  0  0  0
   39.1337  -27.4053    2.8950 O   0  0  0  0  0  0  0  0  0  0  0  0
   37.7436  -26.1799    4.3468 C   0  0  0  0  0  0  0  0  0  0  0  0
   37.6980  -24.8013    4.9538 C   0  0  2  0  0  0  0  0  0  0  0  0
   38.8721  -24.5539    5.7575 N   0  0  0  0  0  0  0  0  0  0  0  0
   36.4700  -24.5916    5.7511 C   0  0  0  0  0  0  0  0  0  0  0  0
   35.3129  -24.6751    5.2544 O   0  0  0  0  0  0  0  0  0  0  0  0
   34.0023  -25.6475   10.5819 N   0  0  0  0  0  0  0  0  0  0  0  0
   34.7528  -24.4690   10.4025 C   0  0  0  0  0  0  0  0  0  0  0  0
   34.4538  -23.4208   11.0322 O   0  0  0  0  0  0  0  0  0  0  0  0
   35.9004  -24.4562    9.4699 C   0  0  0  0  0  0  0  0  0  0  0  0
   35.4637  -24.2503    8.0306 C   0  0  2  0  0  0  0  0  0  0  0  0
   36.5947  -24.2843    7.1291 N   0  0  0  0  0  0  0  0  0  0  0  0
   34.8780  -22.8786    7.9786 C   0  0  0  0  0  0  0  0  0  0  0  0
   35.6183  -21.9495    7.5677 O   0  0  0  0  0  0  0  0  0  0  0  0
   31.9157  -21.2920    4.2402 C   0  0  0  0  0  0  0  0  0  0  0  0
   32.9013  -20.9087    5.3944 C   0  0  1  0  0  0  0  0  0  0  0  0
   32.8483  -19.4241    5.4436 C   0  0  0  0  0  0  0  0  0  0  0  0
   32.4354  -21.6751    6.5558 C   0  0  0  0  0  0  0  0  0  0  0  0
   32.9049  -21.3786    7.9261 C   0  0  2  0  0  0  0  0  0  0  0  0
   33.5403  -22.6460    8.3790 N   0  0  0  0  0  0  0  0  0  0  0  0
   31.7992  -21.1041    8.8492 C   0  0  0  0  0  0  0  0  0  0  0  0
   31.4714  -19.7508    9.0968 O   0  0  0  0  0  0  0  0  0  0  0  0
   31.0962  -21.9368    9.4574 O   0  0  0  0  0  0  0  0  0  0  0  0
  1  2  1  0
  2  3  2  0
  4  2  1  0
  5  4  1  0
  5  6  1  1
  7  8  2  0
  7  5  1  0
 10  9  1  0
 10 12  1  0
 11 10  2  0
 13 12  1  1
 13 14  1  0
 14  7  1  0
 15 22  1  0
 15 13  1  0
 16 15  2  0
 18 19  1  1
 18 17  1  0
 20 18  1  0
 21 20  1  6
 21 22  1  0
 23 21  1  0
 24 23  1  0
 25 23  2  0
M  END
$$$$
