NNL.pdb
     RDKit          3D

 25 24  0  0  1  0  0  0  0  0999 V2000
   20.7143  -23.9783  -15.1400 N   0  0  0  0  0  0  0  0  0  0  0  0
   19.8408  -22.8749  -15.0089 C   0  0  0  0  0  0  0  0  0  0  0  0
   19.6922  -22.1293  -16.0038 O   0  0  0  0  0  0  0  0  0  0  0  0
   19.1184  -22.5840  -13.7665 C   0  0  0  0  0  0  0  0  0  0  0  0
   19.4713  -23.5888  -12.7001 C   0  0  2  0  0  0  0  0  0  0  0  0
   19.0383  -24.9136  -13.0781 N   0  0  0  0  0  0  0  0  0  0  0  0
   18.9089  -23.2149  -11.3842 C   0  0  0  0  0  0  0  0  0  0  0  0
   19.1432  -22.1035  -10.8343 O   0  0  0  0  0  0  0  0  0  0  0  0
   14.0256  -23.2401   -8.1275 N   0  0  0  0  0  0  0  0  0  0  0  0
   15.3966  -22.9903   -8.3329 C   0  0  0  0  0  0  0  0  0  0  0  0
   16.0914  -22.4634   -7.4250 O   0  0  0  0  0  0  0  0  0  0  0  0
   16.0300  -23.3467   -9.6207 C   0  0  0  0  0  0  0  0  0  0  0  0
   17.4497  -23.8525   -9.4377 C   0  0  2  0  0  0  0  0  0  0  0  0
   18.0725  -24.1404  -10.7112 N   0  0  0  0  0  0  0  0  0  0  0  0
   17.3272  -25.1367   -8.6874 C   0  0  0  0  0  0  0  0  0  0  0  0
   16.2624  -25.7894   -8.8292 O   0  0  0  0  0  0  0  0  0  0  0  0
   17.8839  -25.7291   -3.1978 C   0  0  0  0  0  0  0  0  0  0  0  0
   17.7060  -26.7707   -4.3528 C   0  0  1  0  0  0  0  0  0  0  0  0
   16.3121  -27.2611   -4.1925 C   0  0  0  0  0  0  0  0  0  0  0  0
   18.0667  -26.0419   -5.5742 C   0  0  0  0  0  0  0  0  0  0  0  0
   18.0608  -26.6925   -6.9019 C   0  0  2  0  0  0  0  0  0  0  0  0
   18.3760  -25.5911   -7.8521 N   0  0  0  0  0  0  0  0  0  0  0  0
   16.7363  -27.2039   -7.2686 C   0  0  0  0  0  0  0  0  0  0  0  0
   15.7076  -26.2599   -7.4941 O   0  0  0  0  0  0  0  0  0  0  0  0
   16.3975  -28.3968   -7.4089 O   0  0  0  0  0  0  0  0  0  0  0  0
  1  2  1  0
  2  3  2  0
  4  2  1  0
  5  4  1  0
  5  6  1  6
  7  8  2  0
  7  5  1  0
 10  9  1  0
 10 12  1  0
 11 10  2  0
 13 12  1  6
 13 14  1  0
 14  7  1  0
 15 22  1  0
 15 13  1  0
 16 15  2  0
 18 19  1  6
 18 17  1  0
 20 18  1  0
 21 20  1  1
 21 22  1  0
 23 21  1  0
 24 23  1  0
 25 23  2  0
M  END
$$$$
