NNL.pdb
     RDKit          3D

 25 24  0  0  1  0  0  0  0  0999 V2000
   20.2380  -18.3307  -15.6773 N   0  0  0  0  0  0  0  0  0  0  0  0
   21.2043  -17.6359  -14.9150 C   0  0  0  0  0  0  0  0  0  0  0  0
   21.4505  -18.0595  -13.7627 O   0  0  0  0  0  0  0  0  0  0  0  0
   21.9125  -16.4573  -15.4243 C   0  0  0  0  0  0  0  0  0  0  0  0
   21.3984  -16.0787  -16.7895 C   0  0  2  0  0  0  0  0  0  0  0  0
   21.6923  -17.1120  -17.7546 N   0  0  0  0  0  0  0  0  0  0  0  0
   21.9405  -14.7784  -17.2403 C   0  0  0  0  0  0  0  0  0  0  0  0
   23.1093  -14.6497  -17.6983 O   0  0  0  0  0  0  0  0  0  0  0  0
   18.7079  -12.4004  -19.9857 N   0  0  0  0  0  0  0  0  0  0  0  0
   20.0305  -12.0620  -19.6387 C   0  0  0  0  0  0  0  0  0  0  0  0
   20.9559  -12.1560  -20.4869 O   0  0  0  0  0  0  0  0  0  0  0  0
   20.3408  -11.5926  -18.2712 C   0  0  0  0  0  0  0  0  0  0  0  0
   21.5180  -12.3360  -17.6661 C   0  0  2  0  0  0  0  0  0  0  0  0
   21.1161  -13.6286  -17.1557 N   0  0  0  0  0  0  0  0  0  0  0  0
   21.9680  -11.5070  -16.5096 C   0  0  0  0  0  0  0  0  0  0  0  0
   21.2603  -11.5317  -15.4711 O   0  0  0  0  0  0  0  0  0  0  0  0
   27.3350  -10.0207  -16.0630 C   0  0  0  0  0  0  0  0  0  0  0  0
   25.9990  -10.7678  -15.7353 C   0  0  1  0  0  0  0  0  0  0  0  0
   26.3303  -11.6109  -14.5568 C   0  0  0  0  0  0  0  0  0  0  0  0
   24.9998   -9.7033  -15.5889 C   0  0  0  0  0  0  0  0  0  0  0  0
   23.5693  -10.0011  -15.3632 C   0  0  2  0  0  0  0  0  0  0  0  0
   23.1471  -10.7279  -16.5915 N   0  0  0  0  0  0  0  0  0  0  0  0
   22.7505   -8.7872  -15.2852 C   0  0  0  0  0  0  0  0  0  0  0  0
   22.5760   -8.1937  -14.0134 O   0  0  0  0  0  0  0  0  0  0  0  0
   22.1754   -8.2003  -16.2245 O   0  0  0  0  0  0  0  0  0  0  0  0
  1  2  1  0
  2  3  2  0
  4  2  1  0
  5  4  1  0
  5  6  1  6
  7  8  2  0
  7  5  1  0
 10  9  1  0
 10 12  1  0
 11 10  2  0
 13 12  1  1
 13 14  1  0
 14  7  1  0
 15 22  1  0
 15 13  1  0
 16 15  2  0
 18 19  1  1
 18 17  1  0
 20 18  1  0
 21 20  1  6
 21 22  1  0
 23 21  1  0
 24 23  1  0
 25 23  2  0
M  END
$$$$
