NNL.pdb
     RDKit          3D

 25 24  0  0  1  0  0  0  0  0999 V2000
   30.4776  -22.8028  -18.0039 N   0  0  0  0  0  0  0  0  0  0  0  0
   29.8018  -21.6404  -18.4395 C   0  0  0  0  0  0  0  0  0  0  0  0
   30.1376  -21.1512  -19.5422 O   0  0  0  0  0  0  0  0  0  0  0  0
   28.7405  -21.0036  -17.6533 C   0  0  0  0  0  0  0  0  0  0  0  0
   28.5983  -21.6757  -16.3120 C   0  0  2  0  0  0  0  0  0  0  0  0
   28.0518  -23.0045  -16.4577 N   0  0  0  0  0  0  0  0  0  0  0  0
   27.7744  -20.8753  -15.3801 C   0  0  0  0  0  0  0  0  0  0  0  0
   28.0304  -19.6699  -15.1080 O   0  0  0  0  0  0  0  0  0  0  0  0
   23.0603  -18.8635  -13.8582 N   0  0  0  0  0  0  0  0  0  0  0  0
   23.3408  -20.2032  -13.5255 C   0  0  0  0  0  0  0  0  0  0  0  0
   22.7856  -20.7432  -12.5331 O   0  0  0  0  0  0  0  0  0  0  0  0
   24.2925  -20.9860  -14.3430 C   0  0  0  0  0  0  0  0  0  0  0  0
   25.7319  -20.7582  -13.9174 C   0  0  2  0  0  0  0  0  0  0  0  0
   26.6512  -21.4842  -14.7664 N   0  0  0  0  0  0  0  0  0  0  0  0
   25.8395  -21.3212  -12.5395 C   0  0  0  0  0  0  0  0  0  0  0  0
   25.7655  -22.5701  -12.4183 O   0  0  0  0  0  0  0  0  0  0  0  0
   28.5258  -19.8412   -7.5165 C   0  0  0  0  0  0  0  0  0  0  0  0
   27.2478  -20.6680   -7.8819 C   0  0  1  0  0  0  0  0  0  0  0  0
   26.2216  -20.2043   -6.9117 C   0  0  0  0  0  0  0  0  0  0  0  0
   27.0365  -20.4197   -9.3125 C   0  0  0  0  0  0  0  0  0  0  0  0
   25.9675  -21.1010  -10.0735 C   0  0  2  0  0  0  0  0  0  0  0  0
   26.0177  -20.4716  -11.4213 N   0  0  0  0  0  0  0  0  0  0  0  0
   24.6334  -20.8312   -9.5281 C   0  0  0  0  0  0  0  0  0  0  0  0
   24.0736  -21.7940   -8.6563 O   0  0  0  0  0  0  0  0  0  0  0  0
   23.9147  -19.8339   -9.7437 O   0  0  0  0  0  0  0  0  0  0  0  0
  1  2  1  0
  2  3  2  0
  4  2  1  0
  5  4  1  0
  5  6  1  6
  7  8  2  0
  7  5  1  0
 10  9  1  0
 10 12  1  0
 11 10  2  0
 13 12  1  6
 13 14  1  0
 14  7  1  0
 15 22  1  0
 15 13  1  0
 16 15  2  0
 18 19  1  1
 18 17  1  0
 20 18  1  0
 21 20  1  1
 21 22  1  0
 23 21  1  0
 24 23  1  0
 25 23  2  0
M  END
$$$$
