NNL.pdb
     RDKit          3D

 25 24  0  0  1  0  0  0  0  0999 V2000
   15.7988  -15.8335  -14.7623 N   0  0  0  0  0  0  0  0  0  0  0  0
   15.7422  -14.4350  -14.9587 C   0  0  0  0  0  0  0  0  0  0  0  0
   14.6852  -13.8450  -14.6386 O   0  0  0  0  0  0  0  0  0  0  0  0
   16.8630  -13.6706  -15.5153 C   0  0  0  0  0  0  0  0  0  0  0  0
   16.5044  -13.1131  -16.8687 C   0  0  2  0  0  0  0  0  0  0  0  0
   16.3531  -14.1730  -17.8380 N   0  0  0  0  0  0  0  0  0  0  0  0
   17.4971  -12.1210  -17.3356 C   0  0  0  0  0  0  0  0  0  0  0  0
   18.4337  -12.4157  -18.1283 O   0  0  0  0  0  0  0  0  0  0  0  0
   19.8746   -7.6682  -18.2214 N   0  0  0  0  0  0  0  0  0  0  0  0
   18.4928   -7.4121  -18.1248 C   0  0  0  0  0  0  0  0  0  0  0  0
   18.0279   -6.2899  -18.4552 O   0  0  0  0  0  0  0  0  0  0  0  0
   17.5770   -8.4638  -17.6329 C   0  0  0  0  0  0  0  0  0  0  0  0
   18.3142   -9.7431  -17.2800 C   0  0  2  0  0  0  0  0  0  0  0  0
   17.3947  -10.7842  -16.8757 N   0  0  0  0  0  0  0  0  0  0  0  0
   19.1690   -9.4054  -16.1042 C   0  0  0  0  0  0  0  0  0  0  0  0
   18.5936   -9.2490  -14.9976 O   0  0  0  0  0  0  0  0  0  0  0  0
   24.5261  -11.0565  -15.6813 C   0  0  0  0  0  0  0  0  0  0  0  0
   23.0367  -10.9544  -15.2107 C   0  0  1  0  0  0  0  0  0  0  0  0
   23.0308  -11.5977  -13.8708 C   0  0  0  0  0  0  0  0  0  0  0  0
   22.7068   -9.5285  -15.3157 C   0  0  0  0  0  0  0  0  0  0  0  0
   21.3560   -9.0147  -15.0039 C   0  0  2  0  0  0  0  0  0  0  0  0
   20.5712   -9.2691  -16.2427 N   0  0  0  0  0  0  0  0  0  0  0  0
   21.3455   -7.5649  -14.7846 C   0  0  0  0  0  0  0  0  0  0  0  0
   21.4337   -7.1021  -13.4511 O   0  0  0  0  0  0  0  0  0  0  0  0
   21.2662   -6.6689  -15.6497 O   0  0  0  0  0  0  0  0  0  0  0  0
  1  2  1  0
  2  3  2  0
  4  2  1  0
  5  4  1  0
  5  6  1  6
  7  8  2  0
  7  5  1  0
 10  9  1  0
 10 12  1  0
 11 10  2  0
 13 12  1  1
 13 14  1  0
 14  7  1  0
 15 22  1  0
 15 13  1  0
 16 15  2  0
 18 19  1  1
 18 17  1  0
 20 18  1  0
 21 20  1  6
 21 22  1  0
 23 21  1  0
 24 23  1  0
 25 23  2  0
M  END
$$$$
