NNL.pdb
     RDKit          3D

 25 24  0  0  1  0  0  0  0  0999 V2000
   18.0256  -12.5159  -20.7020 N   0  0  0  0  0  0  0  0  0  0  0  0
   16.9771  -11.5939  -20.9208 C   0  0  0  0  0  0  0  0  0  0  0  0
   16.1842  -11.8273  -21.8614 O   0  0  0  0  0  0  0  0  0  0  0  0
   16.7946  -10.3962  -20.0948 C   0  0  0  0  0  0  0  0  0  0  0  0
   17.8369  -10.3378  -19.0079 C   0  0  2  0  0  0  0  0  0  0  0  0
   17.6060  -11.3638  -18.0181 N   0  0  0  0  0  0  0  0  0  0  0  0
   17.8923   -9.0045  -18.3698 C   0  0  0  0  0  0  0  0  0  0  0  0
   18.3608   -7.9888  -18.9540 O   0  0  0  0  0  0  0  0  0  0  0  0
   16.5451   -5.1473  -15.4027 N   0  0  0  0  0  0  0  0  0  0  0  0
   16.0779   -6.2799  -14.7076 C   0  0  0  0  0  0  0  0  0  0  0  0
   15.3069   -6.1491  -13.7211 O   0  0  0  0  0  0  0  0  0  0  0  0
   16.4919   -7.6340  -15.1340 C   0  0  0  0  0  0  0  0  0  0  0  0
   17.4091   -7.5959  -16.3432 C   0  0  2  0  0  0  0  0  0  0  0  0
   17.3999   -8.8588  -17.0487 N   0  0  0  0  0  0  0  0  0  0  0  0
   18.7833   -7.3843  -15.8012 C   0  0  0  0  0  0  0  0  0  0  0  0
   19.0118   -6.2964  -15.2144 O   0  0  0  0  0  0  0  0  0  0  0  0
   22.9225  -10.8624  -13.5216 C   0  0  0  0  0  0  0  0  0  0  0  0
   22.9387   -9.4807  -14.2572 C   0  0  1  0  0  0  0  0  0  0  0  0
   24.0399   -9.6058  -15.2477 C   0  0  0  0  0  0  0  0  0  0  0  0
   21.5656   -9.2968  -14.7408 C   0  0  0  0  0  0  0  0  0  0  0  0
   21.1396   -8.0595  -15.4290 C   0  0  2  0  0  0  0  0  0  0  0  0
   19.7815   -8.3773  -15.9486 N   0  0  0  0  0  0  0  0  0  0  0  0
   21.9773   -7.7491  -16.5917 C   0  0  0  0  0  0  0  0  0  0  0  0
   23.0259   -6.8167  -16.4150 O   0  0  0  0  0  0  0  0  0  0  0  0
   21.8763   -8.2169  -17.7443 O   0  0  0  0  0  0  0  0  0  0  0  0
  1  2  1  0
  2  3  2  0
  4  2  1  0
  5  4  1  0
  5  6  1  1
  7  8  2  0
  7  5  1  0
 10  9  1  0
 10 12  1  0
 11 10  2  0
 13 12  1  1
 13 14  1  0
 14  7  1  0
 15 22  1  0
 15 13  1  0
 16 15  2  0
 18 19  1  6
 18 17  1  0
 20 18  1  0
 21 20  1  6
 21 22  1  0
 23 21  1  0
 24 23  1  0
 25 23  2  0
M  END
$$$$
