NNL.pdb
     RDKit          3D

 25 24  0  0  1  0  0  0  0  0999 V2000
   19.2552  -13.8948  -17.1323 N   0  0  0  0  0  0  0  0  0  0  0  0
   19.1503  -12.5345  -17.5013 C   0  0  0  0  0  0  0  0  0  0  0  0
   19.1496  -12.2617  -18.7233 O   0  0  0  0  0  0  0  0  0  0  0  0
   19.0443  -11.4554  -16.5141 C   0  0  0  0  0  0  0  0  0  0  0  0
   19.9222  -10.2936  -16.9022 C   0  0  2  0  0  0  0  0  0  0  0  0
   21.2955  -10.7144  -17.0529 N   0  0  0  0  0  0  0  0  0  0  0  0
   19.8239   -9.1816  -15.9320 C   0  0  0  0  0  0  0  0  0  0  0  0
   18.9506   -9.1472  -15.0216 O   0  0  0  0  0  0  0  0  0  0  0  0
   22.5722   -4.1475  -14.2391 N   0  0  0  0  0  0  0  0  0  0  0  0
   22.1089   -5.4028  -13.7990 C   0  0  0  0  0  0  0  0  0  0  0  0
   21.6844   -5.5490  -12.6229 O   0  0  0  0  0  0  0  0  0  0  0  0
   22.1186   -6.5605  -14.7191 C   0  0  0  0  0  0  0  0  0  0  0  0
   20.7173   -6.9694  -15.1362 C   0  0  2  0  0  0  0  0  0  0  0  0
   20.7465   -8.1097  -16.0260 N   0  0  0  0  0  0  0  0  0  0  0  0
   20.1676   -5.8091  -15.8969 C   0  0  0  0  0  0  0  0  0  0  0  0
   20.6992   -5.5399  -17.0037 O   0  0  0  0  0  0  0  0  0  0  0  0
   15.1903   -4.2834  -17.6160 C   0  0  0  0  0  0  0  0  0  0  0  0
   16.7319   -4.0699  -17.7846 C   0  0  1  0  0  0  0  0  0  0  0  0
   16.8428   -2.8600  -18.6408 C   0  0  0  0  0  0  0  0  0  0  0  0
   17.2561   -4.0215  -16.4150 C   0  0  0  0  0  0  0  0  0  0  0  0
   18.6954   -3.8289  -16.1364 C   0  0  2  0  0  0  0  0  0  0  0  0
   19.0899   -5.0495  -15.3816 N   0  0  0  0  0  0  0  0  0  0  0  0
   18.9464   -2.6845  -15.2547 C   0  0  0  0  0  0  0  0  0  0  0  0
   19.1864   -1.4293  -15.8606 O   0  0  0  0  0  0  0  0  0  0  0  0
   18.9753   -2.6820  -14.0070 O   0  0  0  0  0  0  0  0  0  0  0  0
  1  2  1  0
  2  3  2  0
  4  2  1  0
  5  4  1  0
  5  6  1  1
  7  8  2  0
  7  5  1  0
 10  9  1  0
 10 12  1  0
 11 10  2  0
 13 12  1  6
 13 14  1  0
 14  7  1  0
 15 22  1  0
 15 13  1  0
 16 15  2  0
 18 19  1  1
 18 17  1  0
 20 18  1  0
 21 20  1  1
 21 22  1  0
 23 21  1  0
 24 23  1  0
 25 23  2  0
M  END
$$$$
