NNL.pdb
     RDKit          3D

 25 24  0  0  1  0  0  0  0  0999 V2000
   16.6108  -21.0914  -13.3045 N   0  0  0  0  0  0  0  0  0  0  0  0
   16.9303  -21.9607  -12.2369 C   0  0  0  0  0  0  0  0  0  0  0  0
   16.0722  -22.8081  -11.9002 O   0  0  0  0  0  0  0  0  0  0  0  0
   18.2116  -21.8999  -11.5266 C   0  0  0  0  0  0  0  0  0  0  0  0
   19.0984  -20.8371  -12.1226 C   0  0  2  0  0  0  0  0  0  0  0  0
   18.7999  -20.6434  -13.5222 N   0  0  0  0  0  0  0  0  0  0  0  0
   20.5322  -21.1488  -11.9362 C   0  0  0  0  0  0  0  0  0  0  0  0
   21.0427  -21.3538  -10.8005 O   0  0  0  0  0  0  0  0  0  0  0  0
   25.3032  -22.4284  -12.4056 N   0  0  0  0  0  0  0  0  0  0  0  0
   24.5727  -23.0940  -13.4093 C   0  0  0  0  0  0  0  0  0  0  0  0
   25.0250  -24.1436  -13.9369 O   0  0  0  0  0  0  0  0  0  0  0  0
   23.2655  -22.5619  -13.8507 C   0  0  0  0  0  0  0  0  0  0  0  0
   22.8020  -21.4006  -12.9896 C   0  0  2  0  0  0  0  0  0  0  0  0
   21.3693  -21.2210  -13.0778 N   0  0  0  0  0  0  0  0  0  0  0  0
   23.4517  -20.1866  -13.5652 C   0  0  0  0  0  0  0  0  0  0  0  0
   23.4301  -19.1370  -12.8738 O   0  0  0  0  0  0  0  0  0  0  0  0
   28.5252  -20.1557  -14.8376 C   0  0  0  0  0  0  0  0  0  0  0  0
   27.5849  -19.3071  -13.9177 C   0  0  1  0  0  0  0  0  0  0  0  0
   27.7984  -17.9067  -14.3677 C   0  0  0  0  0  0  0  0  0  0  0  0
   26.2573  -19.9107  -14.0792 C   0  0  0  0  0  0  0  0  0  0  0  0
   25.2706  -19.3799  -15.0440 C   0  0  2  0  0  0  0  0  0  0  0  0
   24.0648  -20.2283  -14.8405 N   0  0  0  0  0  0  0  0  0  0  0  0
   25.6922  -19.5676  -16.4358 C   0  0  0  0  0  0  0  0  0  0  0  0
   26.1105  -18.4239  -17.1550 O   0  0  0  0  0  0  0  0  0  0  0  0
   25.7276  -20.6368  -17.0786 O   0  0  0  0  0  0  0  0  0  0  0  0
  1  2  1  0
  2  3  2  0
  4  2  1  0
  5  4  1  0
  5  6  1  6
  7  8  2  0
  7  5  1  0
 10  9  1  0
 10 12  1  0
 11 10  2  0
 13 12  1  6
 13 14  1  0
 14  7  1  0
 15 22  1  0
 15 13  1  0
 16 15  2  0
 18 19  1  6
 18 17  1  0
 20 18  1  0
 21 20  1  1
 21 22  1  0
 23 21  1  0
 24 23  1  0
 25 23  2  0
M  END
$$$$
