PSQ.pdb
     RDKit          3D

 23 23  0  0  1  0  0  0  0  0999 V2000
    8.7988  -14.6271   18.4718 N   0  0  0  0  0  0  0  0  0  0  0  0
    8.6956  -13.7074   17.3569 C   0  0  0  0  0  0  0  0  0  0  0  0
    7.5151  -12.8444   17.6960 C   0  0  0  0  0  0  0  0  0  0  0  0
    7.2625  -13.0025   19.1994 C   0  0  0  0  0  0  0  0  0  0  0  0
    8.4746  -13.7996   19.5903 C   0  0  1  0  0  0  0  0  0  0  0  0
    8.3841  -14.5008   20.8689 C   0  0  0  0  0  0  0  0  0  0  0  0
    8.1108  -13.8092   21.9057 O   0  0  0  0  0  0  0  0  0  0  0  0
   10.0184  -18.2312   22.0276 O   0  0  0  0  0  0  0  0  0  0  0  0
    8.6304  -18.0144   22.1266 C   0  0  0  0  0  0  0  0  0  0  0  0
    8.3440  -16.5321   22.2956 C   0  0  2  0  0  0  0  0  0  0  0  0
    8.5788  -15.8950   21.0353 N   0  0  0  0  0  0  0  0  0  0  0  0
    9.1441  -15.9487   23.3970 C   0  0  0  0  0  0  0  0  0  0  0  0
   10.3502  -15.6807   23.1530 O   0  0  0  0  0  0  0  0  0  0  0  0
    5.6673  -11.8233   26.0705 N   0  0  0  0  0  0  0  0  0  0  0  0
    6.7442  -12.5361   26.6730 C   0  0  0  0  0  0  0  0  0  0  0  0
    7.1634  -12.0794   27.7631 O   0  0  0  0  0  0  0  0  0  0  0  0
    7.3418  -13.7376   26.0657 C   0  0  0  0  0  0  0  0  0  0  0  0
    8.7900  -13.9522   26.3937 C   0  0  0  0  0  0  0  0  0  0  0  0
    9.4212  -15.1579   25.7872 C   0  0  2  0  0  0  0  0  0  0  0  0
    8.6109  -15.6877   24.6881 N   0  0  0  0  0  0  0  0  0  0  0  0
    9.7716  -16.2257   26.7491 C   0  0  0  0  0  0  0  0  0  0  0  0
   10.6915  -15.9757   27.7496 O   0  0  0  0  0  0  0  0  0  0  0  0
    9.2573  -17.3678   26.6880 O   0  0  0  0  0  0  0  0  0  0  0  0
  1  2  1  0
  2  3  1  0
  4  3  1  0
  5  1  1  0
  5  4  1  0
  5  6  1  1
  6  7  2  0
  9  8  1  0
 10  9  1  6
 10 12  1  0
 11  6  1  0
 11 10  1  0
 12 20  1  0
 13 12  2  0
 15 14  1  0
 15 17  1  0
 16 15  2  0
 18 17  1  0
 19 18  1  1
 20 19  1  0
 21 19  1  0
 21 22  1  0
 23 21  2  0
M  END
$$$$
