PSQ.pdb
     RDKit          3D

 23 23  0  0  1  0  0  0  0  0999 V2000
    6.9113  -18.1490   20.1609 N   0  0  0  0  0  0  0  0  0  0  0  0
    6.2755  -18.4115   18.8856 C   0  0  0  0  0  0  0  0  0  0  0  0
    7.3249  -18.0652   17.8696 C   0  0  0  0  0  0  0  0  0  0  0  0
    8.6703  -18.0499   18.6036 C   0  0  0  0  0  0  0  0  0  0  0  0
    8.2506  -18.5942   19.9397 C   0  0  1  0  0  0  0  0  0  0  0  0
    9.1738  -18.3406   21.0433 C   0  0  0  0  0  0  0  0  0  0  0  0
    9.9005  -19.3104   21.4425 O   0  0  0  0  0  0  0  0  0  0  0  0
   11.9839  -15.4634   23.5435 O   0  0  0  0  0  0  0  0  0  0  0  0
   11.0305  -15.6544   22.5246 C   0  0  0  0  0  0  0  0  0  0  0  0
   10.2373  -16.9240   22.7828 C   0  0  2  0  0  0  0  0  0  0  0  0
    9.3167  -17.0922   21.6994 N   0  0  0  0  0  0  0  0  0  0  0  0
    9.5732  -16.8873   24.1062 C   0  0  0  0  0  0  0  0  0  0  0  0
    8.5892  -16.1119   24.2352 O   0  0  0  0  0  0  0  0  0  0  0  0
    5.8338  -20.0945   26.8363 N   0  0  0  0  0  0  0  0  0  0  0  0
    6.9260  -20.4932   26.0124 C   0  0  0  0  0  0  0  0  0  0  0  0
    6.7833  -21.5768   25.3975 O   0  0  0  0  0  0  0  0  0  0  0  0
    8.1561  -19.6939   25.8799 C   0  0  0  0  0  0  0  0  0  0  0  0
    8.1389  -18.3886   26.6194 C   0  0  0  0  0  0  0  0  0  0  0  0
    9.3865  -17.5785   26.5357 C   0  0  2  0  0  0  0  0  0  0  0  0
    9.9978  -17.6773   25.2084 N   0  0  0  0  0  0  0  0  0  0  0  0
   10.3787  -17.8546   27.5975 C   0  0  0  0  0  0  0  0  0  0  0  0
   10.0354  -17.6736   28.9238 O   0  0  0  0  0  0  0  0  0  0  0  0
   11.5385  -18.2520   27.3338 O   0  0  0  0  0  0  0  0  0  0  0  0
  1  2  1  0
  2  3  1  0
  4  3  1  0
  5  1  1  0
  5  4  1  0
  5  6  1  1
  6  7  2  0
  9  8  1  0
 10  9  1  6
 10 12  1  0
 11  6  1  0
 11 10  1  0
 12 20  1  0
 13 12  2  0
 15 14  1  0
 15 17  1  0
 16 15  2  0
 18 17  1  0
 19 18  1  6
 20 19  1  0
 21 19  1  0
 21 22  1  0
 23 21  2  0
M  END
$$$$
