PSQ.pdb
     RDKit          3D

 23 23  0  0  1  0  0  0  0  0999 V2000
    8.1440  -14.9019   18.7834 N   0  0  0  0  0  0  0  0  0  0  0  0
    8.2163  -14.2075   17.5136 C   0  0  0  0  0  0  0  0  0  0  0  0
    7.6570  -12.8450   17.8034 C   0  0  0  0  0  0  0  0  0  0  0  0
    7.7049  -12.6559   19.3237 C   0  0  0  0  0  0  0  0  0  0  0  0
    8.4848  -13.8777   19.7192 C   0  0  1  0  0  0  0  0  0  0  0  0
    8.3794  -14.2671   21.1234 C   0  0  0  0  0  0  0  0  0  0  0  0
    8.8385  -13.4597   21.9982 O   0  0  0  0  0  0  0  0  0  0  0  0
    7.2899  -18.1030   22.5961 O   0  0  0  0  0  0  0  0  0  0  0  0
    6.7220  -16.9309   23.1317 C   0  0  0  0  0  0  0  0  0  0  0  0
    7.6848  -15.7660   22.9767 C   0  0  2  0  0  0  0  0  0  0  0  0
    7.8024  -15.4792   21.5790 N   0  0  0  0  0  0  0  0  0  0  0  0
    8.9877  -16.0517   23.6205 C   0  0  0  0  0  0  0  0  0  0  0  0
    9.9070  -16.5000   22.8856 O   0  0  0  0  0  0  0  0  0  0  0  0
   11.3745  -15.2214   29.6396 N   0  0  0  0  0  0  0  0  0  0  0  0
   10.2832  -14.5321   29.0356 C   0  0  0  0  0  0  0  0  0  0  0  0
    9.7544  -13.6286   29.7262 O   0  0  0  0  0  0  0  0  0  0  0  0
    9.7921  -14.8490   27.6837 C   0  0  0  0  0  0  0  0  0  0  0  0
   10.8654  -15.1662   26.6846 C   0  0  0  0  0  0  0  0  0  0  0  0
   10.5072  -16.1700   25.6435 C   0  0  2  0  0  0  0  0  0  0  0  0
    9.2302  -15.8428   25.0050 N   0  0  0  0  0  0  0  0  0  0  0  0
   10.5241  -17.5756   26.1040 C   0  0  0  0  0  0  0  0  0  0  0  0
    9.3461  -18.2961   26.1582 O   0  0  0  0  0  0  0  0  0  0  0  0
   11.5848  -18.1458   26.4537 O   0  0  0  0  0  0  0  0  0  0  0  0
  1  2  1  0
  2  3  1  0
  4  3  1  0
  5  1  1  0
  5  4  1  0
  5  6  1  1
  6  7  2  0
  9  8  1  0
 10  9  1  6
 10 12  1  0
 11  6  1  0
 11 10  1  0
 12 20  1  0
 13 12  2  0
 15 14  1  0
 15 17  1  0
 16 15  2  0
 18 17  1  0
 19 18  1  1
 20 19  1  0
 21 19  1  0
 21 22  1  0
 23 21  2  0
M  END
$$$$
