PSQ.pdb
     RDKit          3D

 23 23  0  0  1  0  0  0  0  0999 V2000
    7.6196  -14.9615   19.0310 N   0  0  0  0  0  0  0  0  0  0  0  0
    7.3146  -14.4240   17.7203 C   0  0  0  0  0  0  0  0  0  0  0  0
    7.6346  -12.9619   17.8353 C   0  0  0  0  0  0  0  0  0  0  0  0
    8.5370  -12.7967   19.0631 C   0  0  0  0  0  0  0  0  0  0  0  0
    8.7952  -14.2382   19.3994 C   0  0  1  0  0  0  0  0  0  0  0  0
    9.2759  -14.4942   20.7551 C   0  0  0  0  0  0  0  0  0  0  0  0
   10.5157  -14.3055   20.9895 O   0  0  0  0  0  0  0  0  0  0  0  0
    6.9758  -16.2086   23.8503 O   0  0  0  0  0  0  0  0  0  0  0  0
    7.8324  -15.1236   24.1189 C   0  0  0  0  0  0  0  0  0  0  0  0
    8.9948  -15.1211   23.1408 C   0  0  2  0  0  0  0  0  0  0  0  0
    8.4593  -14.9372   21.8259 N   0  0  0  0  0  0  0  0  0  0  0  0
    9.8103  -16.3511   23.2667 C   0  0  0  0  0  0  0  0  0  0  0  0
    9.4884  -17.3317   22.5450 O   0  0  0  0  0  0  0  0  0  0  0  0
   15.9911  -15.5263   23.7909 N   0  0  0  0  0  0  0  0  0  0  0  0
   15.2808  -16.7031   23.4148 C   0  0  0  0  0  0  0  0  0  0  0  0
   15.6261  -17.2303   22.3306 O   0  0  0  0  0  0  0  0  0  0  0  0
   14.2028  -17.2789   24.2370 C   0  0  0  0  0  0  0  0  0  0  0  0
   12.9533  -17.6234   23.4813 C   0  0  0  0  0  0  0  0  0  0  0  0
   11.7031  -17.6881   24.2892 C   0  0  2  0  0  0  0  0  0  0  0  0
   10.9163  -16.4602   24.1524 N   0  0  0  0  0  0  0  0  0  0  0  0
   11.9012  -18.0340   25.7137 C   0  0  0  0  0  0  0  0  0  0  0  0
   12.5893  -19.1833   26.0534 O   0  0  0  0  0  0  0  0  0  0  0  0
   11.4597  -17.3117   26.6388 O   0  0  0  0  0  0  0  0  0  0  0  0
  1  2  1  0
  2  3  1  0
  4  3  1  0
  5  1  1  0
  5  4  1  0
  5  6  1  1
  6  7  2  0
  9  8  1  0
 10  9  1  1
 10 12  1  0
 11  6  1  0
 11 10  1  0
 12 20  1  0
 13 12  2  0
 15 14  1  0
 15 17  1  0
 16 15  2  0
 18 17  1  0
 19 18  1  1
 20 19  1  0
 21 19  1  0
 21 22  1  0
 23 21  2  0
M  END
$$$$
