PSQ.pdb
     RDKit          3D

 23 23  0  0  1  0  0  0  0  0999 V2000
    7.9432  -15.2361   19.4454 N   0  0  0  0  0  0  0  0  0  0  0  0
    8.0789  -14.7461   18.0885 C   0  0  0  0  0  0  0  0  0  0  0  0
    8.1687  -13.2554   18.2397 C   0  0  0  0  0  0  0  0  0  0  0  0
    8.5366  -12.9752   19.7010 C   0  0  0  0  0  0  0  0  0  0  0  0
    8.8143  -14.3727   20.1779 C   0  0  1  0  0  0  0  0  0  0  0  0
    8.7930  -14.5617   21.6265 C   0  0  0  0  0  0  0  0  0  0  0  0
    9.7398  -14.0420   22.3057 O   0  0  0  0  0  0  0  0  0  0  0  0
    5.8383  -16.7439   23.7550 O   0  0  0  0  0  0  0  0  0  0  0  0
    6.3336  -15.5028   24.1998 C   0  0  0  0  0  0  0  0  0  0  0  0
    7.7765  -15.3276   23.7581 C   0  0  2  0  0  0  0  0  0  0  0  0
    7.7932  -15.2820   22.3273 N   0  0  0  0  0  0  0  0  0  0  0  0
    8.6451  -16.3910   24.3134 C   0  0  0  0  0  0  0  0  0  0  0  0
    8.9300  -17.3558   23.5557 O   0  0  0  0  0  0  0  0  0  0  0  0
   13.1644  -18.0461   29.9246 N   0  0  0  0  0  0  0  0  0  0  0  0
   11.8111  -17.8026   29.5505 C   0  0  0  0  0  0  0  0  0  0  0  0
   11.0961  -17.2379   30.4123 O   0  0  0  0  0  0  0  0  0  0  0  0
   11.2676  -18.1853   28.2361 C   0  0  0  0  0  0  0  0  0  0  0  0
   10.4887  -17.1076   27.5413 C   0  0  0  0  0  0  0  0  0  0  0  0
    9.8832  -17.4848   26.2333 C   0  0  2  0  0  0  0  0  0  0  0  0
    9.1554  -16.3610   25.6393 N   0  0  0  0  0  0  0  0  0  0  0  0
    9.0431  -18.7019   26.2657 C   0  0  0  0  0  0  0  0  0  0  0  0
    7.6685  -18.5871   26.3509 O   0  0  0  0  0  0  0  0  0  0  0  0
    9.5405  -19.8521   26.2191 O   0  0  0  0  0  0  0  0  0  0  0  0
  1  2  1  0
  2  3  1  0
  4  3  1  0
  5  1  1  0
  5  4  1  0
  5  6  1  1
  6  7  2  0
  9  8  1  0
 10  9  1  6
 10 12  1  0
 11  6  1  0
 11 10  1  0
 12 20  1  0
 13 12  2  0
 15 14  1  0
 15 17  1  0
 16 15  2  0
 18 17  1  0
 19 18  1  1
 20 19  1  0
 21 19  1  0
 21 22  1  0
 23 21  2  0
M  END
$$$$
