PSQ.pdb
     RDKit          3D

 23 23  0  0  1  0  0  0  0  0999 V2000
    8.5470  -14.6403   18.1853 N   0  0  0  0  0  0  0  0  0  0  0  0
    7.9638  -13.9819   17.0337 C   0  0  0  0  0  0  0  0  0  0  0  0
    7.2387  -12.8004   17.6097 C   0  0  0  0  0  0  0  0  0  0  0  0
    7.8067  -12.5681   19.0141 C   0  0  0  0  0  0  0  0  0  0  0  0
    8.9522  -13.5404   19.0019 C   0  0  1  0  0  0  0  0  0  0  0  0
    9.4815  -13.9092   20.3128 C   0  0  0  0  0  0  0  0  0  0  0  0
   10.6972  -13.6152   20.5649 O   0  0  0  0  0  0  0  0  0  0  0  0
    8.7792  -15.8459   24.7162 O   0  0  0  0  0  0  0  0  0  0  0  0
    8.2642  -15.5683   23.4352 C   0  0  0  0  0  0  0  0  0  0  0  0
    9.3448  -14.9586   22.5586 C   0  0  2  0  0  0  0  0  0  0  0  0
    8.7371  -14.5705   21.3218 N   0  0  0  0  0  0  0  0  0  0  0  0
   10.4830  -15.8889   22.3773 C   0  0  0  0  0  0  0  0  0  0  0  0
   10.3989  -16.7258   21.4400 O   0  0  0  0  0  0  0  0  0  0  0  0
   15.2457  -14.5221   19.8400 N   0  0  0  0  0  0  0  0  0  0  0  0
   15.7173  -15.7371   20.4163 C   0  0  0  0  0  0  0  0  0  0  0  0
   16.8412  -16.1313   20.0237 O   0  0  0  0  0  0  0  0  0  0  0  0
   14.9443  -16.4977   21.4131 C   0  0  0  0  0  0  0  0  0  0  0  0
   13.6622  -15.8474   21.8422 C   0  0  0  0  0  0  0  0  0  0  0  0
   12.8686  -16.5879   22.8628 C   0  0  2  0  0  0  0  0  0  0  0  0
   11.6383  -15.8702   23.2045 N   0  0  0  0  0  0  0  0  0  0  0  0
   13.6190  -16.9623   24.0813 C   0  0  0  0  0  0  0  0  0  0  0  0
   14.6276  -17.9040   24.0061 O   0  0  0  0  0  0  0  0  0  0  0  0
   13.3685  -16.4492   25.1979 O   0  0  0  0  0  0  0  0  0  0  0  0
  1  2  1  0
  2  3  1  0
  4  3  1  0
  5  1  1  0
  5  4  1  0
  5  6  1  1
  6  7  2  0
  9  8  1  0
 10  9  1  1
 10 12  1  0
 11  6  1  0
 11 10  1  0
 12 20  1  0
 13 12  2  0
 15 14  1  0
 15 17  1  0
 16 15  2  0
 18 17  1  0
 19 18  1  6
 20 19  1  0
 21 19  1  0
 21 22  1  0
 23 21  2  0
M  END
$$$$
