PSQ.pdb
     RDKit          3D

 23 23  0  0  1  0  0  0  0  0999 V2000
    7.7893  -15.0581   19.7373 N   0  0  0  0  0  0  0  0  0  0  0  0
    7.4873  -14.4967   18.4360 C   0  0  0  0  0  0  0  0  0  0  0  0
    7.4877  -13.0128   18.6630 C   0  0  0  0  0  0  0  0  0  0  0  0
    8.2339  -12.7617   19.9780 C   0  0  0  0  0  0  0  0  0  0  0  0
    8.7562  -14.1429   20.2554 C   0  0  1  0  0  0  0  0  0  0  0  0
    9.1677  -14.3974   21.6340 C   0  0  0  0  0  0  0  0  0  0  0  0
   10.4102  -14.3034   21.9082 O   0  0  0  0  0  0  0  0  0  0  0  0
    6.5592  -15.6744   24.6630 O   0  0  0  0  0  0  0  0  0  0  0  0
    7.5954  -14.7711   24.9691 C   0  0  0  0  0  0  0  0  0  0  0  0
    8.7608  -14.9702   24.0152 C   0  0  2  0  0  0  0  0  0  0  0  0
    8.2816  -14.7411   22.6857 N   0  0  0  0  0  0  0  0  0  0  0  0
    9.3774  -16.3061   24.1858 C   0  0  0  0  0  0  0  0  0  0  0  0
    8.9376  -17.2396   23.4639 O   0  0  0  0  0  0  0  0  0  0  0  0
   14.8373  -16.9665   22.9201 N   0  0  0  0  0  0  0  0  0  0  0  0
   14.5805  -17.6583   24.1392 C   0  0  0  0  0  0  0  0  0  0  0  0
   15.4343  -18.5128   24.4764 O   0  0  0  0  0  0  0  0  0  0  0  0
   13.3890  -17.3992   24.9655 C   0  0  0  0  0  0  0  0  0  0  0  0
   12.1694  -18.1781   24.5695 C   0  0  0  0  0  0  0  0  0  0  0  0
   10.9405  -17.9105   25.3682 C   0  0  2  0  0  0  0  0  0  0  0  0
   10.4223  -16.5644   25.1136 N   0  0  0  0  0  0  0  0  0  0  0  0
   11.0767  -18.1596   26.8199 C   0  0  0  0  0  0  0  0  0  0  0  0
   11.5123  -19.3919   27.2686 O   0  0  0  0  0  0  0  0  0  0  0  0
   10.8060  -17.2800   27.6717 O   0  0  0  0  0  0  0  0  0  0  0  0
  1  2  1  0
  2  3  1  0
  4  3  1  0
  5  1  1  0
  5  4  1  0
  5  6  1  1
  6  7  2  0
  9  8  1  0
 10  9  1  1
 10 12  1  0
 11  6  1  0
 11 10  1  0
 12 20  1  0
 13 12  2  0
 15 14  1  0
 15 17  1  0
 16 15  2  0
 18 17  1  0
 19 18  1  6
 20 19  1  0
 21 19  1  0
 21 22  1  0
 23 21  2  0
M  END
$$$$
