PSQ.pdb
     RDKit          3D

 23 23  0  0  1  0  0  0  0  0999 V2000
    8.3949  -14.9422   18.5002 N   0  0  0  0  0  0  0  0  0  0  0  0
    8.1420  -14.5094   17.1406 C   0  0  0  0  0  0  0  0  0  0  0  0
    7.8519  -13.0420   17.2663 C   0  0  0  0  0  0  0  0  0  0  0  0
    8.3920  -12.5943   18.6290 C   0  0  0  0  0  0  0  0  0  0  0  0
    9.1195  -13.8401   19.0491 C   0  0  1  0  0  0  0  0  0  0  0  0
    9.4160  -13.9477   20.4756 C   0  0  0  0  0  0  0  0  0  0  0  0
   10.2053  -13.0834   20.9835 O   0  0  0  0  0  0  0  0  0  0  0  0
    8.3649  -15.1080   24.9190 O   0  0  0  0  0  0  0  0  0  0  0  0
    8.0345  -14.9500   23.5592 C   0  0  0  0  0  0  0  0  0  0  0  0
    9.2872  -15.0348   22.7040 C   0  0  2  0  0  0  0  0  0  0  0  0
    8.8870  -14.9456   21.3323 N   0  0  0  0  0  0  0  0  0  0  0  0
   10.0636  -16.2604   23.0018 C   0  0  0  0  0  0  0  0  0  0  0  0
    9.5794  -17.3568   22.6151 O   0  0  0  0  0  0  0  0  0  0  0  0
   15.3886  -15.9627   21.7946 N   0  0  0  0  0  0  0  0  0  0  0  0
   15.4352  -15.9182   23.2182 C   0  0  0  0  0  0  0  0  0  0  0  0
   16.3507  -15.2208   23.7163 O   0  0  0  0  0  0  0  0  0  0  0  0
   14.4750  -16.6420   24.0689 C   0  0  0  0  0  0  0  0  0  0  0  0
   13.4201  -17.4008   23.3189 C   0  0  0  0  0  0  0  0  0  0  0  0
   12.0783  -17.4565   23.9640 C   0  0  2  0  0  0  0  0  0  0  0  0
   11.3056  -16.2423   23.6922 N   0  0  0  0  0  0  0  0  0  0  0  0
   12.0973  -17.7590   25.4119 C   0  0  0  0  0  0  0  0  0  0  0  0
   11.5223  -16.8767   26.3067 O   0  0  0  0  0  0  0  0  0  0  0  0
   12.6255  -18.8026   25.8641 O   0  0  0  0  0  0  0  0  0  0  0  0
  1  2  1  0
  2  3  1  0
  4  3  1  0
  5  1  1  0
  5  4  1  0
  5  6  1  1
  6  7  2  0
  9  8  1  0
 10  9  1  1
 10 12  1  0
 11  6  1  0
 11 10  1  0
 12 20  1  0
 13 12  2  0
 15 14  1  0
 15 17  1  0
 16 15  2  0
 18 17  1  0
 19 18  1  1
 20 19  1  0
 21 19  1  0
 21 22  1  0
 23 21  2  0
M  END
$$$$
