PSQ.pdb
     RDKit          3D

 23 23  0  0  1  0  0  0  0  0999 V2000
    8.2008  -15.1340   19.0293 N   0  0  0  0  0  0  0  0  0  0  0  0
    7.9893  -14.5279   17.7302 C   0  0  0  0  0  0  0  0  0  0  0  0
    7.6918  -13.0888   18.0362 C   0  0  0  0  0  0  0  0  0  0  0  0
    8.1880  -12.8227   19.4617 C   0  0  0  0  0  0  0  0  0  0  0  0
    8.9051  -14.1136   19.7390 C   0  0  1  0  0  0  0  0  0  0  0  0
    9.1572  -14.4060   21.1481 C   0  0  0  0  0  0  0  0  0  0  0  0
   10.3428  -14.2321   21.5863 O   0  0  0  0  0  0  0  0  0  0  0  0
    6.5334  -16.4738   23.7815 O   0  0  0  0  0  0  0  0  0  0  0  0
    7.2020  -15.3045   24.1926 C   0  0  0  0  0  0  0  0  0  0  0  0
    8.5037  -15.1497   23.4248 C   0  0  2  0  0  0  0  0  0  0  0  0
    8.1754  -14.8688   22.0599 N   0  0  0  0  0  0  0  0  0  0  0  0
    9.3675  -16.3430   23.5785 C   0  0  0  0  0  0  0  0  0  0  0  0
    9.6694  -16.9740   22.5312 O   0  0  0  0  0  0  0  0  0  0  0  0
   14.4379  -15.5350   22.9303 N   0  0  0  0  0  0  0  0  0  0  0  0
   14.6931  -16.5984   23.8439 C   0  0  0  0  0  0  0  0  0  0  0  0
   15.8982  -16.9032   24.0093 O   0  0  0  0  0  0  0  0  0  0  0  0
   13.6186  -17.3086   24.5586 C   0  0  0  0  0  0  0  0  0  0  0  0
   12.2432  -16.7516   24.3374 C   0  0  0  0  0  0  0  0  0  0  0  0
   11.1286  -17.4980   24.9856 C   0  0  2  0  0  0  0  0  0  0  0  0
    9.8553  -16.7897   24.8363 N   0  0  0  0  0  0  0  0  0  0  0  0
   11.3668  -17.8668   26.3982 C   0  0  0  0  0  0  0  0  0  0  0  0
   10.8025  -17.1139   27.4104 O   0  0  0  0  0  0  0  0  0  0  0  0
   12.0742  -18.8523   26.7157 O   0  0  0  0  0  0  0  0  0  0  0  0
  1  2  1  0
  2  3  1  0
  4  3  1  0
  5  1  1  0
  5  4  1  0
  5  6  1  1
  6  7  2  0
  9  8  1  0
 10  9  1  1
 10 12  1  0
 11  6  1  0
 11 10  1  0
 12 20  1  0
 13 12  2  0
 15 14  1  0
 15 17  1  0
 16 15  2  0
 18 17  1  0
 19 18  1  1
 20 19  1  0
 21 19  1  0
 21 22  1  0
 23 21  2  0
M  END
$$$$
