PSQ.pdb
     RDKit          3D

 23 23  0  0  1  0  0  0  0  0999 V2000
    8.1443  -14.7601   18.7996 N   0  0  0  0  0  0  0  0  0  0  0  0
    8.2136  -13.8755   17.6540 C   0  0  0  0  0  0  0  0  0  0  0  0
    7.5694  -12.6048   18.1270 C   0  0  0  0  0  0  0  0  0  0  0  0
    7.5625  -12.6502   19.6590 C   0  0  0  0  0  0  0  0  0  0  0  0
    8.3990  -13.8763   19.8926 C   0  0  1  0  0  0  0  0  0  0  0  0
    8.2754  -14.4825   21.2161 C   0  0  0  0  0  0  0  0  0  0  0  0
    8.6446  -13.7897   22.2219 O   0  0  0  0  0  0  0  0  0  0  0  0
    7.7573  -18.5906   22.0944 O   0  0  0  0  0  0  0  0  0  0  0  0
    6.9258  -17.6324   22.7061 C   0  0  0  0  0  0  0  0  0  0  0  0
    7.6428  -16.2957   22.7895 C   0  0  2  0  0  0  0  0  0  0  0  0
    7.7738  -15.7861   21.4581 N   0  0  0  0  0  0  0  0  0  0  0  0
    8.9410  -16.4210   23.4915 C   0  0  0  0  0  0  0  0  0  0  0  0
    9.9806  -16.4373   22.7809 O   0  0  0  0  0  0  0  0  0  0  0  0
   11.3031  -13.4308   28.3170 N   0  0  0  0  0  0  0  0  0  0  0  0
    9.9477  -13.8319   28.1356 C   0  0  0  0  0  0  0  0  0  0  0  0
    9.0918  -13.1852   28.7852 O   0  0  0  0  0  0  0  0  0  0  0  0
    9.5575  -14.9374   27.2440 C   0  0  0  0  0  0  0  0  0  0  0  0
   10.6734  -15.4950   26.4105 C   0  0  0  0  0  0  0  0  0  0  0  0
   10.3350  -16.6910   25.5889 C   0  0  2  0  0  0  0  0  0  0  0  0
    9.0511  -16.5214   24.9048 N   0  0  0  0  0  0  0  0  0  0  0  0
   10.3812  -17.9779   26.3168 C   0  0  0  0  0  0  0  0  0  0  0  0
    9.2493  -18.7672   26.3914 O   0  0  0  0  0  0  0  0  0  0  0  0
   11.4260  -18.3846   26.8786 O   0  0  0  0  0  0  0  0  0  0  0  0
  1  2  1  0
  2  3  1  0
  4  3  1  0
  5  1  1  0
  5  4  1  0
  5  6  1  1
  6  7  2  0
  9  8  1  0
 10  9  1  6
 10 12  1  0
 11  6  1  0
 11 10  1  0
 12 20  1  0
 13 12  2  0
 15 14  1  0
 15 17  1  0
 16 15  2  0
 18 17  1  0
 19 18  1  1
 20 19  1  0
 21 19  1  0
 21 22  1  0
 23 21  2  0
M  END
$$$$
