PSQ.pdb
     RDKit          3D

 23 23  0  0  1  0  0  0  0  0999 V2000
    7.9282  -14.7981   18.5550 N   0  0  0  0  0  0  0  0  0  0  0  0
    7.4193  -14.2749   17.3032 C   0  0  0  0  0  0  0  0  0  0  0  0
    7.5878  -12.7883   17.4266 C   0  0  0  0  0  0  0  0  0  0  0  0
    8.6001  -12.5447   18.5513 C   0  0  0  0  0  0  0  0  0  0  0  0
    9.0514  -13.9538   18.8128 C   0  0  1  0  0  0  0  0  0  0  0  0
    9.7080  -14.1784   20.0985 C   0  0  0  0  0  0  0  0  0  0  0  0
   10.9315  -13.8332   20.2071 O   0  0  0  0  0  0  0  0  0  0  0  0
    8.1890  -16.5488   23.2048 O   0  0  0  0  0  0  0  0  0  0  0  0
    8.7650  -15.3054   23.5297 C   0  0  0  0  0  0  0  0  0  0  0  0
    9.7788  -14.9067   22.4709 C   0  0  2  0  0  0  0  0  0  0  0  0
    9.0789  -14.7528   21.2315 N   0  0  0  0  0  0  0  0  0  0  0  0
   10.8897  -15.8829   22.3908 C   0  0  0  0  0  0  0  0  0  0  0  0
   10.7567  -16.8417   21.5851 O   0  0  0  0  0  0  0  0  0  0  0  0
   15.2901  -15.0871   19.4983 N   0  0  0  0  0  0  0  0  0  0  0  0
   15.6378  -14.8847   20.8654 C   0  0  0  0  0  0  0  0  0  0  0  0
   16.8081  -14.4894   21.0818 O   0  0  0  0  0  0  0  0  0  0  0  0
   14.6929  -15.1214   21.9702 C   0  0  0  0  0  0  0  0  0  0  0  0
   14.0832  -16.4920   21.9916 C   0  0  0  0  0  0  0  0  0  0  0  0
   13.1483  -16.7692   23.1180 C   0  0  2  0  0  0  0  0  0  0  0  0
   12.0715  -15.7778   23.1730 N   0  0  0  0  0  0  0  0  0  0  0  0
   13.7956  -16.9216   24.4393 C   0  0  0  0  0  0  0  0  0  0  0  0
   14.8040  -17.8512   24.6084 O   0  0  0  0  0  0  0  0  0  0  0  0
   13.4567  -16.2278   25.4274 O   0  0  0  0  0  0  0  0  0  0  0  0
  1  2  1  0
  2  3  1  0
  4  3  1  0
  5  1  1  0
  5  4  1  0
  5  6  1  1
  6  7  2  0
  9  8  1  0
 10  9  1  1
 10 12  1  0
 11  6  1  0
 11 10  1  0
 12 20  1  0
 13 12  2  0
 15 14  1  0
 15 17  1  0
 16 15  2  0
 18 17  1  0
 19 18  1  6
 20 19  1  0
 21 19  1  0
 21 22  1  0
 23 21  2  0
M  END
$$$$
