PSQ.pdb
     RDKit          3D

 23 23  0  0  1  0  0  0  0  0999 V2000
    8.3644  -14.7680   18.9116 N   0  0  0  0  0  0  0  0  0  0  0  0
    8.4085  -13.7380   17.8934 C   0  0  0  0  0  0  0  0  0  0  0  0
    7.7653  -12.5470   18.5424 C   0  0  0  0  0  0  0  0  0  0  0  0
    7.7855  -12.7963   20.0545 C   0  0  0  0  0  0  0  0  0  0  0  0
    8.6331  -14.0358   20.1085 C   0  0  1  0  0  0  0  0  0  0  0  0
    8.5361  -14.8140   21.3411 C   0  0  0  0  0  0  0  0  0  0  0  0
    8.8533  -14.2358   22.4333 O   0  0  0  0  0  0  0  0  0  0  0  0
    6.5124  -18.2563   21.4306 O   0  0  0  0  0  0  0  0  0  0  0  0
    7.5606  -18.2747   22.3710 C   0  0  0  0  0  0  0  0  0  0  0  0
    8.0318  -16.8588   22.6557 C   0  0  2  0  0  0  0  0  0  0  0  0
    8.1141  -16.1658   21.4057 N   0  0  0  0  0  0  0  0  0  0  0  0
    9.3093  -16.8542   23.4052 C   0  0  0  0  0  0  0  0  0  0  0  0
   10.2783  -16.2386   22.8874 O   0  0  0  0  0  0  0  0  0  0  0  0
    9.3500  -13.1108   27.4432 N   0  0  0  0  0  0  0  0  0  0  0  0
   10.1079  -14.0791   28.1635 C   0  0  0  0  0  0  0  0  0  0  0  0
   10.2959  -13.8360   29.3793 O   0  0  0  0  0  0  0  0  0  0  0  0
   10.6466  -15.2969   27.5339 C   0  0  0  0  0  0  0  0  0  0  0  0
    9.8373  -15.8190   26.3836 C   0  0  0  0  0  0  0  0  0  0  0  0
   10.3921  -17.0148   25.6893 C   0  0  2  0  0  0  0  0  0  0  0  0
    9.4753  -17.5050   24.6575 N   0  0  0  0  0  0  0  0  0  0  0  0
   10.8161  -18.1124   26.5857 C   0  0  0  0  0  0  0  0  0  0  0  0
    9.9076  -19.0836   26.9615 O   0  0  0  0  0  0  0  0  0  0  0  0
   11.9878  -18.1945   27.0248 O   0  0  0  0  0  0  0  0  0  0  0  0
  1  2  1  0
  2  3  1  0
  4  3  1  0
  5  1  1  0
  5  4  1  0
  5  6  1  1
  6  7  2  0
  9  8  1  0
 10  9  1  6
 10 12  1  0
 11  6  1  0
 11 10  1  0
 12 20  1  0
 13 12  2  0
 15 14  1  0
 15 17  1  0
 16 15  2  0
 18 17  1  0
 19 18  1  1
 20 19  1  0
 21 19  1  0
 21 22  1  0
 23 21  2  0
M  END
$$$$
