PSQ.pdb
     RDKit          3D

 23 23  0  0  1  0  0  0  0  0999 V2000
    8.5786  -14.6971   18.4738 N   0  0  0  0  0  0  0  0  0  0  0  0
    8.6496  -13.7798   17.3543 C   0  0  0  0  0  0  0  0  0  0  0  0
    7.8926  -12.5693   17.8181 C   0  0  0  0  0  0  0  0  0  0  0  0
    7.8035  -12.6555   19.3458 C   0  0  0  0  0  0  0  0  0  0  0  0
    8.7096  -13.8271   19.5993 C   0  0  1  0  0  0  0  0  0  0  0  0
    8.5551  -14.4752   20.8996 C   0  0  0  0  0  0  0  0  0  0  0  0
    8.6961  -13.7530   21.9419 O   0  0  0  0  0  0  0  0  0  0  0  0
    8.4309  -18.6703   21.9209 O   0  0  0  0  0  0  0  0  0  0  0  0
    7.3713  -17.7765   22.1693 C   0  0  0  0  0  0  0  0  0  0  0  0
    7.9100  -16.3700   22.3682 C   0  0  2  0  0  0  0  0  0  0  0  0
    8.2595  -15.8497   21.0811 N   0  0  0  0  0  0  0  0  0  0  0  0
    9.0402  -16.3541   23.3253 C   0  0  0  0  0  0  0  0  0  0  0  0
   10.2033  -16.3850   22.8433 O   0  0  0  0  0  0  0  0  0  0  0  0
    9.2013  -13.6950   29.1178 N   0  0  0  0  0  0  0  0  0  0  0  0
   10.4126  -14.4414   29.0387 C   0  0  0  0  0  0  0  0  0  0  0  0
   11.1779  -14.3529   30.0283 O   0  0  0  0  0  0  0  0  0  0  0  0
   10.7615  -15.2710   27.8728 C   0  0  0  0  0  0  0  0  0  0  0  0
    9.6945  -15.3561   26.8215 C   0  0  0  0  0  0  0  0  0  0  0  0
    9.9848  -16.2606   25.6736 C   0  0  2  0  0  0  0  0  0  0  0  0
    8.8618  -16.3065   24.7343 N   0  0  0  0  0  0  0  0  0  0  0  0
   10.4155  -17.6244   26.0510 C   0  0  0  0  0  0  0  0  0  0  0  0
   11.7617  -17.9114   26.1743 O   0  0  0  0  0  0  0  0  0  0  0  0
    9.5908  -18.5445   26.2654 O   0  0  0  0  0  0  0  0  0  0  0  0
  1  2  1  0
  2  3  1  0
  4  3  1  0
  5  1  1  0
  5  4  1  0
  5  6  1  1
  6  7  2  0
  9  8  1  0
 10  9  1  6
 10 12  1  0
 11  6  1  0
 11 10  1  0
 12 20  1  0
 13 12  2  0
 15 14  1  0
 15 17  1  0
 16 15  2  0
 18 17  1  0
 19 18  1  1
 20 19  1  0
 21 19  1  0
 21 22  1  0
 23 21  2  0
M  END
$$$$
