GDI.pdb
     RDKit          3D

 21 20  0  0  1  0  0  0  0  0999 V2000
    7.4835  -12.6678   18.5822 N   0  0  0  0  0  0  0  0  0  0  0  0
    8.5571  -13.4291   19.1816 C   0  0  0  0  0  0  0  0  0  0  0  0
    8.1345  -14.0995   20.4342 C   0  0  0  0  0  0  0  0  0  0  0  0
    7.2072  -13.5926   21.1096 O   0  0  0  0  0  0  0  0  0  0  0  0
    8.7272  -15.3041   20.9258 N   0  0  0  0  0  0  0  0  0  0  0  0
    8.3343  -15.9422   22.1369 C   0  0  1  0  0  0  0  0  0  0  0  0
    8.7037  -17.3952   22.1296 C   0  0  0  0  0  0  0  0  0  0  0  0
    8.1798  -18.1648   20.9967 C   0  0  0  0  0  0  0  0  0  0  0  0
    6.9563  -18.4220   20.9198 O   0  0  0  0  0  0  0  0  0  0  0  0
    8.9889  -15.2827   23.3198 C   0  0  0  0  0  0  0  0  0  0  0  0
   10.2259  -15.1115   23.3469 O   0  0  0  0  0  0  0  0  0  0  0  0
    9.0103  -18.6172   20.0030 O   0  0  0  0  0  0  0  0  0  0  0  0
    5.8579  -12.2683   27.0097 C   0  0  0  0  0  0  0  0  0  0  0  0
    6.4945  -13.3889   26.2261 C   0  0  0  0  0  0  0  0  0  0  0  0
    7.9557  -13.0504   26.0029 C   0  0  2  0  0  0  0  0  0  0  0  0
    8.0352  -12.0952   24.8344 C   0  0  0  0  0  0  0  0  0  0  0  0
    8.7512  -14.2844   25.6283 C   0  0  2  0  0  0  0  0  0  0  0  0
    8.2085  -14.8508   24.4114 N   0  0  0  0  0  0  0  0  0  0  0  0
    8.7469  -15.2217   26.7499 C   0  0  0  0  0  0  0  0  0  0  0  0
    9.4420  -14.9301   27.9025 O   0  0  0  0  0  0  0  0  0  0  0  0
    8.1147  -16.2960   26.6775 O   0  0  0  0  0  0  0  0  0  0  0  0
  1  2  1  0
  3  5  1  0
  3  2  1  0
  4  3  2  0
  6  5  1  0
  6  7  1  6
  8  7  1  0
  8 12  1  0
  9  8  2  0
 10  6  1  0
 11 10  2  0
 13 14  1  0
 14 15  1  0
 15 16  1  6
 17 15  1  0
 17 18  1  6
 18 10  1  0
 19 17  1  0
 20 19  1  0
 21 19  2  0
M  END
$$$$
