GDI.pdb
     RDKit          3D

 21 20  0  0  1  0  0  0  0  0999 V2000
    6.8884  -13.1752   19.0297 N   0  0  0  0  0  0  0  0  0  0  0  0
    8.1744  -13.7777   19.3027 C   0  0  0  0  0  0  0  0  0  0  0  0
    8.1541  -14.6037   20.5332 C   0  0  0  0  0  0  0  0  0  0  0  0
    7.1414  -14.5652   21.2721 O   0  0  0  0  0  0  0  0  0  0  0  0
    9.2323  -15.4526   20.9342 N   0  0  0  0  0  0  0  0  0  0  0  0
    9.2107  -16.2574   22.1091 C   0  0  1  0  0  0  0  0  0  0  0  0
   10.2624  -17.3247   22.0554 C   0  0  0  0  0  0  0  0  0  0  0  0
   10.3169  -18.0820   20.8009 C   0  0  0  0  0  0  0  0  0  0  0  0
    9.3737  -18.8414   20.4802 O   0  0  0  0  0  0  0  0  0  0  0  0
    9.4397  -15.4139   23.3334 C   0  0  0  0  0  0  0  0  0  0  0  0
   10.4975  -14.7631   23.4670 O   0  0  0  0  0  0  0  0  0  0  0  0
   11.3929  -17.9774   19.9565 O   0  0  0  0  0  0  0  0  0  0  0  0
    6.3999  -11.6758   26.7841 C   0  0  0  0  0  0  0  0  0  0  0  0
    7.5137  -12.6915   26.8368 C   0  0  0  0  0  0  0  0  0  0  0  0
    7.4130  -13.5802   25.6122 C   0  0  2  0  0  0  0  0  0  0  0  0
    6.1509  -14.4017   25.7403 C   0  0  0  0  0  0  0  0  0  0  0  0
    8.5748  -14.5505   25.5444 C   0  0  2  0  0  0  0  0  0  0  0  0
    8.4585  -15.3509   24.3436 N   0  0  0  0  0  0  0  0  0  0  0  0
    8.6086  -15.3508   26.7671 C   0  0  0  0  0  0  0  0  0  0  0  0
    9.0480  -14.7967   27.9489 O   0  0  0  0  0  0  0  0  0  0  0  0
    8.2407  -16.5440   26.7558 O   0  0  0  0  0  0  0  0  0  0  0  0
  1  2  1  0
  3  5  1  0
  3  2  1  0
  4  3  2  0
  6  5  1  0
  6  7  1  6
  8  7  1  0
  8 12  1  0
  9  8  2  0
 10  6  1  0
 11 10  2  0
 13 14  1  0
 14 15  1  0
 15 16  1  1
 17 15  1  0
 17 18  1  6
 18 10  1  0
 19 17  1  0
 20 19  1  0
 21 19  2  0
M  END
$$$$
