GDI.pdb
     RDKit          3D

 21 20  0  0  1  0  0  0  0  0999 V2000
    7.7107  -14.9440   19.5938 N   0  0  0  0  0  0  0  0  0  0  0  0
    6.8017  -14.8818   20.7169 C   0  0  0  0  0  0  0  0  0  0  0  0
    7.3862  -15.4771   21.9420 C   0  0  0  0  0  0  0  0  0  0  0  0
    6.6835  -15.5418   22.9788 O   0  0  0  0  0  0  0  0  0  0  0  0
    8.7194  -15.9885   22.0147 N   0  0  0  0  0  0  0  0  0  0  0  0
    9.2758  -16.5834   23.1829 C   0  0  1  0  0  0  0  0  0  0  0  0
   10.5077  -17.3730   22.8558 C   0  0  0  0  0  0  0  0  0  0  0  0
   10.2678  -18.6381   22.1542 C   0  0  0  0  0  0  0  0  0  0  0  0
    9.2976  -19.3632   22.4735 O   0  0  0  0  0  0  0  0  0  0  0  0
    9.6315  -15.5298   24.1959 C   0  0  0  0  0  0  0  0  0  0  0  0
   10.5336  -14.6992   23.9579 O   0  0  0  0  0  0  0  0  0  0  0  0
   11.0934  -19.0534   21.1404 O   0  0  0  0  0  0  0  0  0  0  0  0
    5.9689  -12.5587   26.1413 C   0  0  0  0  0  0  0  0  0  0  0  0
    7.2765  -13.1579   25.6872 C   0  0  0  0  0  0  0  0  0  0  0  0
    7.9409  -13.8217   26.8777 C   0  0  2  0  0  0  0  0  0  0  0  0
    8.3049  -12.7384   27.8668 C   0  0  0  0  0  0  0  0  0  0  0  0
    9.2286  -14.5091   26.4715 C   0  0  2  0  0  0  0  0  0  0  0  0
    8.9470  -15.4712   25.4269 N   0  0  0  0  0  0  0  0  0  0  0  0
    9.8505  -15.1076   27.6511 C   0  0  0  0  0  0  0  0  0  0  0  0
    9.8582  -16.4750   27.8150 O   0  0  0  0  0  0  0  0  0  0  0  0
   10.3813  -14.3886   28.5233 O   0  0  0  0  0  0  0  0  0  0  0  0
  1  2  1  0
  3  5  1  0
  3  2  1  0
  4  3  2  0
  6  5  1  0
  6  7  1  6
  8  7  1  0
  8 12  1  0
  9  8  2  0
 10  6  1  0
 11 10  2  0
 13 14  1  0
 14 15  1  0
 15 16  1  1
 17 15  1  0
 17 18  1  6
 18 10  1  0
 19 17  1  0
 20 19  1  0
 21 19  2  0
M  END
$$$$
