GDI.pdb
     RDKit          3D

 21 20  0  0  1  0  0  0  0  0999 V2000
    6.5817  -13.4250   19.2371 N   0  0  0  0  0  0  0  0  0  0  0  0
    7.9311  -13.7354   19.6544 C   0  0  0  0  0  0  0  0  0  0  0  0
    7.9587  -14.6611   20.8117 C   0  0  0  0  0  0  0  0  0  0  0  0
    6.9033  -14.8487   21.4628 O   0  0  0  0  0  0  0  0  0  0  0  0
    9.1301  -15.3620   21.2366 N   0  0  0  0  0  0  0  0  0  0  0  0
    9.1852  -16.1762   22.4038 C   0  0  1  0  0  0  0  0  0  0  0  0
   10.2245  -17.2484   22.2693 C   0  0  0  0  0  0  0  0  0  0  0  0
   10.0403  -18.1542   21.1310 C   0  0  0  0  0  0  0  0  0  0  0  0
    8.9609  -18.7726   20.9842 O   0  0  0  0  0  0  0  0  0  0  0  0
    9.5030  -15.3439   23.6159 C   0  0  0  0  0  0  0  0  0  0  0  0
   10.6054  -14.7653   23.7173 O   0  0  0  0  0  0  0  0  0  0  0  0
   11.0374  -18.3439   20.2081 O   0  0  0  0  0  0  0  0  0  0  0  0
    6.0819  -11.9211   25.4832 C   0  0  0  0  0  0  0  0  0  0  0  0
    7.3197  -12.7032   25.1208 C   0  0  0  0  0  0  0  0  0  0  0  0
    7.6371  -13.6558   26.2572 C   0  0  2  0  0  0  0  0  0  0  0  0
    8.0398  -12.8272   27.4554 C   0  0  0  0  0  0  0  0  0  0  0  0
    8.8136  -14.5458   25.9116 C   0  0  2  0  0  0  0  0  0  0  0  0
    8.5555  -15.2097   24.6510 N   0  0  0  0  0  0  0  0  0  0  0  0
    9.0557  -15.4767   27.0121 C   0  0  0  0  0  0  0  0  0  0  0  0
    8.7827  -16.8181   26.8610 O   0  0  0  0  0  0  0  0  0  0  0  0
    9.5118  -15.0688   28.1006 O   0  0  0  0  0  0  0  0  0  0  0  0
  1  2  1  0
  3  5  1  0
  3  2  1  0
  4  3  2  0
  6  5  1  0
  6  7  1  6
  8  7  1  0
  8 12  1  0
  9  8  2  0
 10  6  1  0
 11 10  2  0
 13 14  1  0
 14 15  1  0
 15 16  1  1
 17 15  1  0
 17 18  1  6
 18 10  1  0
 19 17  1  0
 20 19  1  0
 21 19  2  0
M  END
$$$$
