GDI.pdb
     RDKit          3D

 21 20  0  0  1  0  0  0  0  0999 V2000
    7.0547  -12.8647   18.9490 N   0  0  0  0  0  0  0  0  0  0  0  0
    8.2860  -13.5321   19.3095 C   0  0  0  0  0  0  0  0  0  0  0  0
    8.1446  -14.3336   20.5483 C   0  0  0  0  0  0  0  0  0  0  0  0
    7.0666  -14.2772   21.1867 O   0  0  0  0  0  0  0  0  0  0  0  0
    9.1756  -15.1777   21.0665 N   0  0  0  0  0  0  0  0  0  0  0  0
    9.0290  -15.9798   22.2343 C   0  0  1  0  0  0  0  0  0  0  0  0
    9.9618  -17.1533   22.2075 C   0  0  0  0  0  0  0  0  0  0  0  0
    9.8568  -18.0580   23.3567 C   0  0  0  0  0  0  0  0  0  0  0  0
    8.7568  -18.2214   23.9333 O   0  0  0  0  0  0  0  0  0  0  0  0
    9.3060  -15.1700   23.4714 C   0  0  0  0  0  0  0  0  0  0  0  0
   10.4344  -14.6698   23.6631 O   0  0  0  0  0  0  0  0  0  0  0  0
   10.9514  -18.7406   23.8232 O   0  0  0  0  0  0  0  0  0  0  0  0
    7.1546  -10.9018   26.3402 C   0  0  0  0  0  0  0  0  0  0  0  0
    7.3470  -12.2902   26.8972 C   0  0  0  0  0  0  0  0  0  0  0  0
    7.1849  -13.2887   25.7675 C   0  0  2  0  0  0  0  0  0  0  0  0
    6.0550  -14.2228   26.1353 C   0  0  0  0  0  0  0  0  0  0  0  0
    8.4309  -14.1349   25.6034 C   0  0  2  0  0  0  0  0  0  0  0  0
    8.2903  -14.9685   24.4279 N   0  0  0  0  0  0  0  0  0  0  0  0
    8.6599  -14.9012   26.8268 C   0  0  0  0  0  0  0  0  0  0  0  0
    8.5399  -16.2731   26.8209 O   0  0  0  0  0  0  0  0  0  0  0  0
    8.9664  -14.3232   27.8904 O   0  0  0  0  0  0  0  0  0  0  0  0
  1  2  1  0
  3  5  1  0
  3  2  1  0
  4  3  2  0
  6  5  1  0
  6  7  1  6
  8  7  1  0
  8 12  1  0
  9  8  2  0
 10  6  1  0
 11 10  2  0
 13 14  1  0
 14 15  1  0
 15 16  1  1
 17 15  1  0
 17 18  1  6
 18 10  1  0
 19 17  1  0
 20 19  1  0
 21 19  2  0
M  END
$$$$
