GDI.pdb
     RDKit          3D

 21 20  0  0  1  0  0  0  0  0999 V2000
    5.9121  -15.2168   20.1382 N   0  0  0  0  0  0  0  0  0  0  0  0
    7.3382  -15.0483   20.3097 C   0  0  0  0  0  0  0  0  0  0  0  0
    7.8152  -15.6044   21.5982 C   0  0  0  0  0  0  0  0  0  0  0  0
    6.9780  -15.8500   22.4991 O   0  0  0  0  0  0  0  0  0  0  0  0
    9.1892  -15.8814   21.8801 N   0  0  0  0  0  0  0  0  0  0  0  0
    9.6420  -16.4933   23.0838 C   0  0  1  0  0  0  0  0  0  0  0  0
   10.9169  -17.2504   22.8616 C   0  0  0  0  0  0  0  0  0  0  0  0
   10.9143  -18.1463   21.7007 C   0  0  0  0  0  0  0  0  0  0  0  0
   10.0468  -19.0441   21.5978 O   0  0  0  0  0  0  0  0  0  0  0  0
    9.8741  -15.4578   24.1499 C   0  0  0  0  0  0  0  0  0  0  0  0
   10.7997  -14.6267   24.0368 O   0  0  0  0  0  0  0  0  0  0  0  0
   11.8538  -18.0231   20.7087 O   0  0  0  0  0  0  0  0  0  0  0  0
    6.1077  -12.4744   25.8058 C   0  0  0  0  0  0  0  0  0  0  0  0
    7.4499  -13.0809   25.4808 C   0  0  0  0  0  0  0  0  0  0  0  0
    7.9691  -13.7907   26.7162 C   0  0  2  0  0  0  0  0  0  0  0  0
    8.2908  -12.7385   27.7524 C   0  0  0  0  0  0  0  0  0  0  0  0
    9.2549  -14.5350   26.4187 C   0  0  2  0  0  0  0  0  0  0  0  0
    9.0455  -15.4168   25.2897 N   0  0  0  0  0  0  0  0  0  0  0  0
    9.6967  -15.2374   27.6220 C   0  0  0  0  0  0  0  0  0  0  0  0
    9.6180  -16.6105   27.6940 O   0  0  0  0  0  0  0  0  0  0  0  0
   10.1500  -14.6032   28.5975 O   0  0  0  0  0  0  0  0  0  0  0  0
  1  2  1  0
  3  5  1  0
  3  2  1  0
  4  3  2  0
  6  5  1  0
  6  7  1  6
  8  7  1  0
  8 12  1  0
  9  8  2  0
 10  6  1  0
 11 10  2  0
 13 14  1  0
 14 15  1  0
 15 16  1  1
 17 15  1  0
 17 18  1  6
 18 10  1  0
 19 17  1  0
 20 19  1  0
 21 19  2  0
M  END
$$$$
