GDI.pdb
     RDKit          3D

 21 20  0  0  1  0  0  0  0  0999 V2000
    7.5551  -12.7404   18.4620 N   0  0  0  0  0  0  0  0  0  0  0  0
    8.6562  -13.3645   19.1617 C   0  0  0  0  0  0  0  0  0  0  0  0
    8.2018  -14.1350   20.3436 C   0  0  0  0  0  0  0  0  0  0  0  0
    7.0936  -13.8552   20.8598 O   0  0  0  0  0  0  0  0  0  0  0  0
    8.9596  -15.1913   20.9386 N   0  0  0  0  0  0  0  0  0  0  0  0
    8.5193  -15.9435   22.0649 C   0  0  1  0  0  0  0  0  0  0  0  0
    9.0235  -17.3543   22.0062 C   0  0  0  0  0  0  0  0  0  0  0  0
    8.8043  -18.0408   20.7291 C   0  0  0  0  0  0  0  0  0  0  0  0
    9.7600  -18.2300   19.9417 O   0  0  0  0  0  0  0  0  0  0  0  0
    8.9973  -15.3119   23.3437 C   0  0  0  0  0  0  0  0  0  0  0  0
   10.1903  -14.9649   23.4729 O   0  0  0  0  0  0  0  0  0  0  0  0
    7.5582  -18.4880   20.3700 O   0  0  0  0  0  0  0  0  0  0  0  0
    5.4531  -12.1430   25.8039 C   0  0  0  0  0  0  0  0  0  0  0  0
    6.7106  -12.7505   25.2343 C   0  0  0  0  0  0  0  0  0  0  0  0
    7.2509  -13.7597   26.2289 C   0  0  2  0  0  0  0  0  0  0  0  0
    7.7133  -13.0010   27.4516 C   0  0  0  0  0  0  0  0  0  0  0  0
    8.4570  -14.4863   25.6694 C   0  0  2  0  0  0  0  0  0  0  0  0
    8.0993  -15.1057   24.4106 N   0  0  0  0  0  0  0  0  0  0  0  0
    8.9490  -15.4415   26.6603 C   0  0  0  0  0  0  0  0  0  0  0  0
    9.8137  -15.0324   27.6511 O   0  0  0  0  0  0  0  0  0  0  0  0
    8.5926  -16.6376   26.6213 O   0  0  0  0  0  0  0  0  0  0  0  0
  1  2  1  0
  3  5  1  0
  3  2  1  0
  4  3  2  0
  6  5  1  0
  6  7  1  6
  8  7  1  0
  8 12  1  0
  9  8  2  0
 10  6  1  0
 11 10  2  0
 13 14  1  0
 14 15  1  0
 15 16  1  1
 17 15  1  0
 17 18  1  6
 18 10  1  0
 19 17  1  0
 20 19  1  0
 21 19  2  0
M  END
$$$$
