GWM.pdb
     RDKit          3D

 27 28  0  0  1  0  0  0  0  0999 V2000
   10.0581  -17.4179   18.6497 N   0  0  0  0  0  0  0  0  0  0  0  0
   10.7192  -16.2293   19.0893 C   0  0  0  0  0  0  0  0  0  0  0  0
   10.3461  -15.8411   20.4738 C   0  0  0  0  0  0  0  0  0  0  0  0
   10.9056  -14.8355   21.0109 O   0  0  0  0  0  0  0  0  0  0  0  0
    9.3873  -16.5395   21.2399 N   0  0  0  0  0  0  0  0  0  0  0  0
    8.9902  -16.1480   22.5646 C   0  0  1  0  0  0  0  0  0  0  0  0
    7.6686  -16.7412   22.9745 C   0  0  0  0  0  0  0  0  0  0  0  0
    7.0134  -15.9968   24.0572 C   0  0  0  0  0  0  0  0  0  0  0  0
    6.1407  -16.5439   24.9668 C   0  0  0  0  0  0  0  0  0  0  0  0
    5.7429  -15.5846   25.8009 N   0  0  0  0  0  0  0  0  0  0  0  0
    6.3297  -14.4136   25.4676 C   0  0  0  0  0  0  0  0  0  0  0  0
    6.2752  -13.1317   25.9798 C   0  0  0  0  0  0  0  0  0  0  0  0
    7.0058  -12.1083   25.4130 C   0  0  0  0  0  0  0  0  0  0  0  0
    7.8043  -12.3716   24.3155 C   0  0  0  0  0  0  0  0  0  0  0  0
    7.8860  -13.6348   23.7757 C   0  0  0  0  0  0  0  0  0  0  0  0
    7.1398  -14.6626   24.3607 C   0  0  0  0  0  0  0  0  0  0  0  0
    9.9946  -16.4922   23.5903 C   0  0  0  0  0  0  0  0  0  0  0  0
   10.7087  -17.5080   23.4560 O   0  0  0  0  0  0  0  0  0  0  0  0
    9.9336  -12.9247   28.7479 C   0  0  0  0  0  0  0  0  0  0  0  0
   11.3299  -13.9040   29.3046 S   0  0  0  0  0  0  0  0  0  0  0  0
   11.6333  -15.3269   28.1847 C   0  0  0  0  0  0  0  0  0  0  0  0
   10.9417  -15.0181   26.9027 C   0  0  0  0  0  0  0  0  0  0  0  0
   11.0684  -16.0504   25.8308 C   0  0  2  0  0  0  0  0  0  0  0  0
   10.1616  -15.6797   24.7346 N   0  0  0  0  0  0  0  0  0  0  0  0
   10.5618  -17.3564   26.3493 C   0  0  0  0  0  0  0  0  0  0  0  0
    9.3292  -17.6224   26.4193 O   0  0  0  0  0  0  0  0  0  0  0  0
   11.4116  -18.3670   26.7897 O   0  0  0  0  0  0  0  0  0  0  0  0
  2  3  1  0
  2  1  1  0
  3  4  2  0
  5  6  1  0
  5  3  1  0
  6  7  1  1
  8  7  1  0
  8 16  1  0
  9  8  2  0
 10  9  1  0
 10 11  1  0
 11 12  1  0
 11 16  2  0
 12 13  2  0
 13 14  1  0
 15 14  2  0
 16 15  1  0
 17  6  1  0
 17 18  2  0
 19 20  1  0
 21 20  1  0
 22 21  1  0
 23 24  1  0
 23 22  1  1
 24 17  1  0
 25 23  1  0
 26 25  2  0
 27 25  1  0
M  END
$$$$
