GWM.pdb
     RDKit          3D

 27 28  0  0  1  0  0  0  0  0999 V2000
    7.4754  -15.5361   19.2961 N   0  0  0  0  0  0  0  0  0  0  0  0
    7.6369  -16.6026   20.2340 C   0  0  0  0  0  0  0  0  0  0  0  0
    8.3308  -16.1768   21.4766 C   0  0  0  0  0  0  0  0  0  0  0  0
    9.0206  -15.1105   21.4706 O   0  0  0  0  0  0  0  0  0  0  0  0
    8.2654  -16.9036   22.6855 N   0  0  0  0  0  0  0  0  0  0  0  0
    8.9157  -16.4888   23.8983 C   0  0  1  0  0  0  0  0  0  0  0  0
    8.0810  -16.7489   25.1239 C   0  0  0  0  0  0  0  0  0  0  0  0
    7.2279  -15.6123   25.4924 C   0  0  0  0  0  0  0  0  0  0  0  0
    6.1032  -15.6996   26.2771 C   0  0  0  0  0  0  0  0  0  0  0  0
    5.5811  -14.4809   26.4050 N   0  0  0  0  0  0  0  0  0  0  0  0
    6.3313  -13.5860   25.7244 C   0  0  0  0  0  0  0  0  0  0  0  0
    6.2511  -12.2218   25.5221 C   0  0  0  0  0  0  0  0  0  0  0  0
    7.1887  -11.5606   24.7565 C   0  0  0  0  0  0  0  0  0  0  0  0
    8.2238  -12.2761   24.1838 C   0  0  0  0  0  0  0  0  0  0  0  0
    8.3390  -13.6359   24.3614 C   0  0  0  0  0  0  0  0  0  0  0  0
    7.3811  -14.2930   25.1400 C   0  0  0  0  0  0  0  0  0  0  0  0
   10.2348  -17.1238   24.0885 C   0  0  0  0  0  0  0  0  0  0  0  0
   10.3530  -18.3647   24.0112 O   0  0  0  0  0  0  0  0  0  0  0  0
    9.5775  -13.2111   28.6601 C   0  0  0  0  0  0  0  0  0  0  0  0
   10.6520  -14.6404   28.5160 S   0  0  0  0  0  0  0  0  0  0  0  0
   11.1101  -14.9547   26.7662 C   0  0  0  0  0  0  0  0  0  0  0  0
   11.7564  -16.2956   26.7267 C   0  0  0  0  0  0  0  0  0  0  0  0
   12.3405  -16.6972   25.4121 C   0  0  2  0  0  0  0  0  0  0  0  0
   11.3785  -16.3390   24.3598 N   0  0  0  0  0  0  0  0  0  0  0  0
   12.4555  -18.1857   25.3640 C   0  0  0  0  0  0  0  0  0  0  0  0
   13.4093  -18.8069   25.9109 O   0  0  0  0  0  0  0  0  0  0  0  0
   11.5215  -18.9877   24.7144 O   0  0  0  0  0  0  0  0  0  0  0  0
  2  3  1  0
  2  1  1  0
  3  4  2  0
  5  6  1  0
  5  3  1  0
  6  7  1  1
  8  7  1  0
  8 16  1  0
  9  8  2  0
 10  9  1  0
 10 11  1  0
 11 12  1  0
 11 16  2  0
 12 13  2  0
 13 14  1  0
 15 14  2  0
 16 15  1  0
 17  6  1  0
 17 18  2  0
 19 20  1  0
 21 20  1  0
 22 21  1  0
 23 24  1  0
 23 22  1  1
 24 17  1  0
 25 23  1  0
 26 25  2  0
 27 25  1  0
M  END
$$$$
