GWM.pdb
     RDKit          3D

 27 28  0  0  1  0  0  0  0  0999 V2000
   10.5118  -16.9376   18.1024 N   0  0  0  0  0  0  0  0  0  0  0  0
   10.2380  -17.6544   19.3084 C   0  0  0  0  0  0  0  0  0  0  0  0
    9.9015  -16.7605   20.4461 C   0  0  0  0  0  0  0  0  0  0  0  0
   10.3622  -15.5771   20.4658 O   0  0  0  0  0  0  0  0  0  0  0  0
    9.0836  -17.1592   21.5259 N   0  0  0  0  0  0  0  0  0  0  0  0
    8.7431  -16.2982   22.6252 C   0  0  1  0  0  0  0  0  0  0  0  0
    7.2892  -16.3880   23.0054 C   0  0  0  0  0  0  0  0  0  0  0  0
    6.9467  -15.5666   24.1731 C   0  0  0  0  0  0  0  0  0  0  0  0
    6.5136  -16.0626   25.3792 C   0  0  0  0  0  0  0  0  0  0  0  0
    6.2985  -15.0394   26.2045 N   0  0  0  0  0  0  0  0  0  0  0  0
    6.5779  -13.8758   25.5762 C   0  0  0  0  0  0  0  0  0  0  0  0
    6.5311  -12.5467   25.9502 C   0  0  0  0  0  0  0  0  0  0  0  0
    6.8849  -11.5473   25.0680 C   0  0  0  0  0  0  0  0  0  0  0  0
    7.2924  -11.8831   23.7902 C   0  0  0  0  0  0  0  0  0  0  0  0
    7.3528  -13.1950   23.3791 C   0  0  0  0  0  0  0  0  0  0  0  0
    6.9910  -14.1977   24.2843 C   0  0  0  0  0  0  0  0  0  0  0  0
    9.5573  -16.5554   23.8294 C   0  0  0  0  0  0  0  0  0  0  0  0
    9.5918  -17.6975   24.3337 O   0  0  0  0  0  0  0  0  0  0  0  0
   10.0545  -13.4084   28.5136 C   0  0  0  0  0  0  0  0  0  0  0  0
   10.6166  -14.9205   29.2986 S   0  0  0  0  0  0  0  0  0  0  0  0
   10.7763  -16.2836   28.0791 C   0  0  0  0  0  0  0  0  0  0  0  0
   10.1843  -15.7901   26.8050 C   0  0  0  0  0  0  0  0  0  0  0  0
   11.1131  -15.7304   25.6369 C   0  0  2  0  0  0  0  0  0  0  0  0
   10.3066  -15.5165   24.4265 N   0  0  0  0  0  0  0  0  0  0  0  0
   11.7602  -17.0650   25.4598 C   0  0  0  0  0  0  0  0  0  0  0  0
   13.0127  -17.2195   25.5074 O   0  0  0  0  0  0  0  0  0  0  0  0
   11.0286  -18.2268   25.2306 O   0  0  0  0  0  0  0  0  0  0  0  0
  2  3  1  0
  2  1  1  0
  3  4  2  0
  5  6  1  0
  5  3  1  0
  6  7  1  1
  8  7  1  0
  8 16  1  0
  9  8  2  0
 10  9  1  0
 10 11  1  0
 11 12  1  0
 11 16  2  0
 12 13  2  0
 13 14  1  0
 15 14  2  0
 16 15  1  0
 17  6  1  0
 17 18  2  0
 19 20  1  0
 21 20  1  0
 22 21  1  0
 23 24  1  0
 23 22  1  1
 24 17  1  0
 25 23  1  0
 26 25  2  0
 27 25  1  0
M  END
$$$$
