GWM.pdb
     RDKit          3D

 27 28  0  0  1  0  0  0  0  0999 V2000
   11.2984  -17.1678   18.2265 N   0  0  0  0  0  0  0  0  0  0  0  0
   10.6073  -17.8147   19.2975 C   0  0  0  0  0  0  0  0  0  0  0  0
   10.3311  -16.9039   20.4382 C   0  0  0  0  0  0  0  0  0  0  0  0
   11.1471  -15.9660   20.6980 O   0  0  0  0  0  0  0  0  0  0  0  0
    9.1923  -17.0240   21.2643 N   0  0  0  0  0  0  0  0  0  0  0  0
    8.8843  -16.1112   22.3309 C   0  0  1  0  0  0  0  0  0  0  0  0
    7.4059  -15.8695   22.4806 C   0  0  0  0  0  0  0  0  0  0  0  0
    7.0215  -15.4706   23.8403 C   0  0  0  0  0  0  0  0  0  0  0  0
    6.6176  -16.3385   24.8261 C   0  0  0  0  0  0  0  0  0  0  0  0
    6.3490  -15.6350   25.9248 N   0  0  0  0  0  0  0  0  0  0  0  0
    6.5645  -14.3210   25.6931 C   0  0  0  0  0  0  0  0  0  0  0  0
    6.4469  -13.1782   26.4604 C   0  0  0  0  0  0  0  0  0  0  0  0
    6.7452  -11.9373   25.9376 C   0  0  0  0  0  0  0  0  0  0  0  0
    7.1682  -11.8378   24.6250 C   0  0  0  0  0  0  0  0  0  0  0  0
    7.2983  -12.9520   23.8280 C   0  0  0  0  0  0  0  0  0  0  0  0
    6.9924  -14.2036   24.3715 C   0  0  0  0  0  0  0  0  0  0  0  0
    9.4200  -16.5499   23.6347 C   0  0  0  0  0  0  0  0  0  0  0  0
    9.5252  -17.7670   23.8946 O   0  0  0  0  0  0  0  0  0  0  0  0
    8.7920  -13.9042   29.5123 C   0  0  0  0  0  0  0  0  0  0  0  0
   10.5726  -14.0374   29.3392 S   0  0  0  0  0  0  0  0  0  0  0  0
   11.0291  -15.3765   28.1691 C   0  0  0  0  0  0  0  0  0  0  0  0
   10.3247  -15.0860   26.8897 C   0  0  0  0  0  0  0  0  0  0  0  0
   10.6893  -15.9592   25.7342 C   0  0  2  0  0  0  0  0  0  0  0  0
    9.8200  -15.6021   24.6037 N   0  0  0  0  0  0  0  0  0  0  0  0
   10.3543  -17.3759   26.0689 C   0  0  0  0  0  0  0  0  0  0  0  0
    9.1824  -17.8349   25.9653 O   0  0  0  0  0  0  0  0  0  0  0  0
   11.3087  -18.2847   26.5169 O   0  0  0  0  0  0  0  0  0  0  0  0
  2  3  1  0
  2  1  1  0
  3  4  2  0
  5  6  1  0
  5  3  1  0
  6  7  1  1
  8  7  1  0
  8 16  1  0
  9  8  2  0
 10  9  1  0
 10 11  1  0
 11 12  1  0
 11 16  2  0
 12 13  2  0
 13 14  1  0
 15 14  2  0
 16 15  1  0
 17  6  1  0
 17 18  2  0
 19 20  1  0
 21 20  1  0
 22 21  1  0
 23 24  1  0
 23 22  1  1
 24 17  1  0
 25 23  1  0
 26 25  2  0
 27 25  1  0
M  END
$$$$
