GWM.pdb
     RDKit          3D

 27 28  0  0  1  0  0  0  0  0999 V2000
   11.5510  -16.3852   18.4288 N   0  0  0  0  0  0  0  0  0  0  0  0
   10.5840  -17.1069   19.1952 C   0  0  0  0  0  0  0  0  0  0  0  0
   10.2794  -16.4578   20.4963 C   0  0  0  0  0  0  0  0  0  0  0  0
   11.0151  -15.5069   20.9053 O   0  0  0  0  0  0  0  0  0  0  0  0
    9.1987  -16.8453   21.3184 N   0  0  0  0  0  0  0  0  0  0  0  0
    8.8947  -16.2224   22.5774 C   0  0  1  0  0  0  0  0  0  0  0  0
    7.5175  -16.5663   23.0788 C   0  0  0  0  0  0  0  0  0  0  0  0
    7.1161  -15.7765   24.2496 C   0  0  0  0  0  0  0  0  0  0  0  0
    6.5367  -16.2951   25.3825 C   0  0  0  0  0  0  0  0  0  0  0  0
    6.3081  -15.2976   26.2351 N   0  0  0  0  0  0  0  0  0  0  0  0
    6.7212  -14.1290   25.6963 C   0  0  0  0  0  0  0  0  0  0  0  0
    6.7233  -12.8179   26.1318 C   0  0  0  0  0  0  0  0  0  0  0  0
    7.2246  -11.8066   25.3392 C   0  0  0  0  0  0  0  0  0  0  0  0
    7.7324  -12.1119   24.0900 C   0  0  0  0  0  0  0  0  0  0  0  0
    7.7484  -13.4051   23.6198 C   0  0  0  0  0  0  0  0  0  0  0  0
    7.2368  -14.4202   24.4343 C   0  0  0  0  0  0  0  0  0  0  0  0
    9.8721  -16.5542   23.6329 C   0  0  0  0  0  0  0  0  0  0  0  0
   10.3890  -17.6903   23.6774 O   0  0  0  0  0  0  0  0  0  0  0  0
    9.1899  -13.4487   28.8978 C   0  0  0  0  0  0  0  0  0  0  0  0
   10.7605  -14.1491   29.4086 S   0  0  0  0  0  0  0  0  0  0  0  0
   11.3592  -15.3932   28.1984 C   0  0  0  0  0  0  0  0  0  0  0  0
   10.6702  -15.1041   26.9105 C   0  0  0  0  0  0  0  0  0  0  0  0
   11.1076  -15.9237   25.7410 C   0  0  2  0  0  0  0  0  0  0  0  0
   10.2353  -15.5942   24.6044 N   0  0  0  0  0  0  0  0  0  0  0  0
   10.8579  -17.3665   26.0361 C   0  0  0  0  0  0  0  0  0  0  0  0
   11.7768  -18.1477   26.4103 O   0  0  0  0  0  0  0  0  0  0  0  0
    9.5982  -17.9472   25.9189 O   0  0  0  0  0  0  0  0  0  0  0  0
  2  3  1  0
  2  1  1  0
  3  4  2  0
  5  6  1  0
  5  3  1  0
  6  7  1  1
  8  7  1  0
  8 16  1  0
  9  8  2  0
 10  9  1  0
 10 11  1  0
 11 12  1  0
 11 16  2  0
 12 13  2  0
 13 14  1  0
 15 14  2  0
 16 15  1  0
 17  6  1  0
 17 18  2  0
 19 20  1  0
 21 20  1  0
 22 21  1  0
 23 24  1  0
 23 22  1  1
 24 17  1  0
 25 23  1  0
 26 25  2  0
 27 25  1  0
M  END
$$$$
