GWM.pdb
     RDKit          3D

 27 28  0  0  1  0  0  0  0  0999 V2000
    7.5273  -22.3142   23.2388 N   0  0  0  0  0  0  0  0  0  0  0  0
    7.3356  -21.4496   24.3608 C   0  0  0  0  0  0  0  0  0  0  0  0
    7.6989  -20.0389   24.0697 C   0  0  0  0  0  0  0  0  0  0  0  0
    8.6199  -19.7934   23.2304 O   0  0  0  0  0  0  0  0  0  0  0  0
    7.0666  -18.9359   24.6842 N   0  0  0  0  0  0  0  0  0  0  0  0
    7.5195  -17.5794   24.5416 C   0  0  1  0  0  0  0  0  0  0  0  0
    6.3882  -16.5862   24.5359 C   0  0  0  0  0  0  0  0  0  0  0  0
    6.8047  -15.2399   24.1244 C   0  0  0  0  0  0  0  0  0  0  0  0
    7.5061  -14.9536   22.9780 C   0  0  0  0  0  0  0  0  0  0  0  0
    7.7105  -13.6385   22.9246 N   0  0  0  0  0  0  0  0  0  0  0  0
    7.1621  -13.0440   24.0075 C   0  0  0  0  0  0  0  0  0  0  0  0
    7.0806  -11.7371   24.4478 C   0  0  0  0  0  0  0  0  0  0  0  0
    6.4397  -11.4235   25.6281 C   0  0  0  0  0  0  0  0  0  0  0  0
    5.8708  -12.4342   26.3806 C   0  0  0  0  0  0  0  0  0  0  0  0
    5.9303  -13.7484   25.9766 C   0  0  0  0  0  0  0  0  0  0  0  0
    6.5833  -14.0515   24.7778 C   0  0  0  0  0  0  0  0  0  0  0  0
    8.4834  -17.1831   25.5871 C   0  0  0  0  0  0  0  0  0  0  0  0
    8.0773  -16.7728   26.6946 O   0  0  0  0  0  0  0  0  0  0  0  0
   10.0966  -13.4035   29.4181 C   0  0  0  0  0  0  0  0  0  0  0  0
   10.6741  -15.1018   29.3977 S   0  0  0  0  0  0  0  0  0  0  0  0
   10.0574  -15.9967   27.9180 C   0  0  0  0  0  0  0  0  0  0  0  0
   11.1680  -16.0010   26.9262 C   0  0  0  0  0  0  0  0  0  0  0  0
   10.7591  -16.0966   25.4929 C   0  0  2  0  0  0  0  0  0  0  0  0
    9.8745  -17.2621   25.3502 N   0  0  0  0  0  0  0  0  0  0  0  0
   11.9626  -16.3995   24.6616 C   0  0  0  0  0  0  0  0  0  0  0  0
   12.8542  -15.5368   24.4253 O   0  0  0  0  0  0  0  0  0  0  0  0
   12.1831  -17.6502   24.0919 O   0  0  0  0  0  0  0  0  0  0  0  0
  2  3  1  0
  2  1  1  0
  3  4  2  0
  5  6  1  0
  5  3  1  0
  6  7  1  1
  8  7  1  0
  8 16  1  0
  9  8  2  0
 10  9  1  0
 10 11  1  0
 11 12  1  0
 11 16  2  0
 12 13  2  0
 13 14  1  0
 15 14  2  0
 16 15  1  0
 17  6  1  0
 17 18  2  0
 19 20  1  0
 21 20  1  0
 22 21  1  0
 23 24  1  0
 23 22  1  1
 24 17  1  0
 25 23  1  0
 26 25  2  0
 27 25  1  0
M  END
$$$$
