GWM.pdb
     RDKit          3D

 27 28  0  0  1  0  0  0  0  0999 V2000
    9.9799  -19.2298   19.9303 N   0  0  0  0  0  0  0  0  0  0  0  0
    9.6342  -19.1410   21.3144 C   0  0  0  0  0  0  0  0  0  0  0  0
    9.8366  -17.7791   21.8724 C   0  0  0  0  0  0  0  0  0  0  0  0
   10.8168  -17.0799   21.4684 O   0  0  0  0  0  0  0  0  0  0  0  0
    8.9855  -17.2081   22.8437 N   0  0  0  0  0  0  0  0  0  0  0  0
    9.1398  -15.8712   23.3483 C   0  0  1  0  0  0  0  0  0  0  0  0
    7.8473  -15.0993   23.3543 C   0  0  0  0  0  0  0  0  0  0  0  0
    7.2588  -14.9495   22.0176 C   0  0  0  0  0  0  0  0  0  0  0  0
    6.2888  -15.7692   21.4930 C   0  0  0  0  0  0  0  0  0  0  0  0
    5.9918  -15.3420   20.2668 N   0  0  0  0  0  0  0  0  0  0  0  0
    6.7409  -14.2585   19.9639 C   0  0  0  0  0  0  0  0  0  0  0  0
    6.8396  -13.4378   18.8570 C   0  0  0  0  0  0  0  0  0  0  0  0
    7.7209  -12.3771   18.8351 C   0  0  0  0  0  0  0  0  0  0  0  0
    8.5168  -12.1332   19.9390 C   0  0  0  0  0  0  0  0  0  0  0  0
    8.4484  -12.9272   21.0608 C   0  0  0  0  0  0  0  0  0  0  0  0
    7.5503  -13.9991   21.0689 C   0  0  0  0  0  0  0  0  0  0  0  0
    9.7124  -15.8335   24.7084 C   0  0  0  0  0  0  0  0  0  0  0  0
    9.4941  -14.8574   25.4564 O   0  0  0  0  0  0  0  0  0  0  0  0
    9.2760  -12.8528   29.3412 C   0  0  0  0  0  0  0  0  0  0  0  0
    9.9545  -14.5057   29.1810 S   0  0  0  0  0  0  0  0  0  0  0  0
   10.5234  -14.8280   27.4655 C   0  0  0  0  0  0  0  0  0  0  0  0
   11.0076  -16.2357   27.4320 C   0  0  0  0  0  0  0  0  0  0  0  0
   11.6071  -16.6864   26.1405 C   0  0  2  0  0  0  0  0  0  0  0  0
   10.5129  -16.8978   25.1816 N   0  0  0  0  0  0  0  0  0  0  0  0
   12.2363  -18.0269   26.3364 C   0  0  0  0  0  0  0  0  0  0  0  0
   13.3784  -18.1668   26.8571 O   0  0  0  0  0  0  0  0  0  0  0  0
   11.6085  -19.2106   25.9593 O   0  0  0  0  0  0  0  0  0  0  0  0
  2  3  1  0
  2  1  1  0
  3  4  2  0
  5  6  1  0
  5  3  1  0
  6  7  1  1
  8  7  1  0
  8 16  1  0
  9  8  2  0
 10  9  1  0
 10 11  1  0
 11 12  1  0
 11 16  2  0
 12 13  2  0
 13 14  1  0
 15 14  2  0
 16 15  1  0
 17  6  1  0
 17 18  2  0
 19 20  1  0
 21 20  1  0
 22 21  1  0
 23 24  1  0
 23 22  1  1
 24 17  1  0
 25 23  1  0
 26 25  2  0
 27 25  1  0
M  END
$$$$
