GWM.pdb
     RDKit          3D

 27 28  0  0  1  0  0  0  0  0999 V2000
    6.0735  -22.2038   23.5766 N   0  0  0  0  0  0  0  0  0  0  0  0
    5.7159  -20.9461   24.1541 C   0  0  0  0  0  0  0  0  0  0  0  0
    6.5414  -19.8219   23.6426 C   0  0  0  0  0  0  0  0  0  0  0  0
    7.7980  -19.9708   23.5343 O   0  0  0  0  0  0  0  0  0  0  0  0
    5.9981  -18.5750   23.2631 N   0  0  0  0  0  0  0  0  0  0  0  0
    6.7975  -17.4269   22.9338 C   0  0  1  0  0  0  0  0  0  0  0  0
    6.0278  -16.3819   22.1709 C   0  0  0  0  0  0  0  0  0  0  0  0
    6.7970  -15.7880   21.0704 C   0  0  0  0  0  0  0  0  0  0  0  0
    7.2009  -16.4633   19.9439 C   0  0  0  0  0  0  0  0  0  0  0  0
    7.8724  -15.6189   19.1626 N   0  0  0  0  0  0  0  0  0  0  0  0
    7.9246  -14.3992   19.7426 C   0  0  0  0  0  0  0  0  0  0  0  0
    8.4807  -13.1870   19.3820 C   0  0  0  0  0  0  0  0  0  0  0  0
    8.3706  -12.0829   20.2012 C   0  0  0  0  0  0  0  0  0  0  0  0
    7.6930  -12.1932   21.4013 C   0  0  0  0  0  0  0  0  0  0  0  0
    7.1250  -13.3827   21.7965 C   0  0  0  0  0  0  0  0  0  0  0  0
    7.2445  -14.4938   20.9558 C   0  0  0  0  0  0  0  0  0  0  0  0
    7.4015  -16.7886   24.1200 C   0  0  0  0  0  0  0  0  0  0  0  0
    6.7865  -16.7710   25.2069 O   0  0  0  0  0  0  0  0  0  0  0  0
    6.3366  -11.4358   27.1739 C   0  0  0  0  0  0  0  0  0  0  0  0
    6.7615  -13.1772   27.2457 S   0  0  0  0  0  0  0  0  0  0  0  0
    7.9657  -13.6229   25.9335 C   0  0  0  0  0  0  0  0  0  0  0  0
    8.2918  -15.0634   26.1225 C   0  0  0  0  0  0  0  0  0  0  0  0
    9.3461  -15.6151   25.2199 C   0  0  2  0  0  0  0  0  0  0  0  0
    8.6797  -16.1906   24.0426 N   0  0  0  0  0  0  0  0  0  0  0  0
   10.0210  -16.7603   25.9014 C   0  0  0  0  0  0  0  0  0  0  0  0
   10.8962  -16.5923   26.7962 O   0  0  0  0  0  0  0  0  0  0  0  0
    9.7321  -18.0875   25.5974 O   0  0  0  0  0  0  0  0  0  0  0  0
  2  3  1  0
  2  1  1  0
  3  4  2  0
  5  6  1  0
  5  3  1  0
  6  7  1  1
  8  7  1  0
  8 16  1  0
  9  8  2  0
 10  9  1  0
 10 11  1  0
 11 12  1  0
 11 16  2  0
 12 13  2  0
 13 14  1  0
 15 14  2  0
 16 15  1  0
 17  6  1  0
 17 18  2  0
 19 20  1  0
 21 20  1  0
 22 21  1  0
 23 24  1  0
 23 22  1  1
 24 17  1  0
 25 23  1  0
 26 25  2  0
 27 25  1  0
M  END
$$$$
