GWM.pdb
     RDKit          3D

 27 28  0  0  1  0  0  0  0  0999 V2000
   10.9391  -19.3429   18.9706 N   0  0  0  0  0  0  0  0  0  0  0  0
    9.9118  -19.3924   19.9632 C   0  0  0  0  0  0  0  0  0  0  0  0
    9.9261  -18.2130   20.8663 C   0  0  0  0  0  0  0  0  0  0  0  0
   10.9487  -17.4604   20.8918 O   0  0  0  0  0  0  0  0  0  0  0  0
    8.8475  -17.8753   21.7129 N   0  0  0  0  0  0  0  0  0  0  0  0
    8.8762  -16.7739   22.6357 C   0  0  1  0  0  0  0  0  0  0  0  0
    7.5344  -16.1087   22.7890 C   0  0  0  0  0  0  0  0  0  0  0  0
    7.6248  -14.7444   23.3238 C   0  0  0  0  0  0  0  0  0  0  0  0
    8.3176  -13.7158   22.7319 C   0  0  0  0  0  0  0  0  0  0  0  0
    8.1834  -12.6263   23.4864 N   0  0  0  0  0  0  0  0  0  0  0  0
    7.4184  -12.9058   24.5650 C   0  0  0  0  0  0  0  0  0  0  0  0
    6.9720  -12.1670   25.6436 C   0  0  0  0  0  0  0  0  0  0  0  0
    6.1817  -12.7390   26.6186 C   0  0  0  0  0  0  0  0  0  0  0  0
    5.8322  -14.0725   26.5128 C   0  0  0  0  0  0  0  0  0  0  0  0
    6.2564  -14.8424   25.4540 C   0  0  0  0  0  0  0  0  0  0  0  0
    7.0571  -14.2491   24.4730 C   0  0  0  0  0  0  0  0  0  0  0  0
    9.3618  -17.1597   23.9754 C   0  0  0  0  0  0  0  0  0  0  0  0
    9.1852  -18.3216   24.3982 O   0  0  0  0  0  0  0  0  0  0  0  0
   10.5298  -12.7872   28.3510 C   0  0  0  0  0  0  0  0  0  0  0  0
   10.8353  -14.2391   29.3593 S   0  0  0  0  0  0  0  0  0  0  0  0
   11.2642  -15.6916   28.3215 C   0  0  0  0  0  0  0  0  0  0  0  0
   10.6135  -15.4803   26.9989 C   0  0  0  0  0  0  0  0  0  0  0  0
   10.7137  -16.6176   26.0360 C   0  0  2  0  0  0  0  0  0  0  0  0
   10.0309  -16.2231   24.7953 N   0  0  0  0  0  0  0  0  0  0  0  0
    9.9404  -17.7785   26.5705 C   0  0  0  0  0  0  0  0  0  0  0  0
   10.4774  -18.6828   27.2695 O   0  0  0  0  0  0  0  0  0  0  0  0
    8.5784  -17.9425   26.3348 O   0  0  0  0  0  0  0  0  0  0  0  0
  2  3  1  0
  2  1  1  0
  3  4  2  0
  5  6  1  0
  5  3  1  0
  6  7  1  1
  8  7  1  0
  8 16  1  0
  9  8  2  0
 10  9  1  0
 10 11  1  0
 11 12  1  0
 11 16  2  0
 12 13  2  0
 13 14  1  0
 15 14  2  0
 16 15  1  0
 17  6  1  0
 17 18  2  0
 19 20  1  0
 21 20  1  0
 22 21  1  0
 23 24  1  0
 23 22  1  1
 24 17  1  0
 25 23  1  0
 26 25  2  0
 27 25  1  0
M  END
$$$$
