GWM.pdb
     RDKit          3D

 27 28  0  0  1  0  0  0  0  0999 V2000
   10.9761  -18.5820   18.3991 N   0  0  0  0  0  0  0  0  0  0  0  0
   10.4704  -18.9901   19.6722 C   0  0  0  0  0  0  0  0  0  0  0  0
   10.3789  -17.8685   20.6421 C   0  0  0  0  0  0  0  0  0  0  0  0
   11.3923  -17.1278   20.8352 O   0  0  0  0  0  0  0  0  0  0  0  0
    9.2079  -17.5742   21.3743 N   0  0  0  0  0  0  0  0  0  0  0  0
    9.1259  -16.5264   22.3546 C   0  0  1  0  0  0  0  0  0  0  0  0
    7.7274  -15.9947   22.5218 C   0  0  0  0  0  0  0  0  0  0  0  0
    7.6906  -14.6208   23.0383 C   0  0  0  0  0  0  0  0  0  0  0  0
    8.1876  -13.5228   22.3782 C   0  0  0  0  0  0  0  0  0  0  0  0
    7.9847  -12.4463   23.1360 N   0  0  0  0  0  0  0  0  0  0  0  0
    7.3653  -12.8022   24.2833 C   0  0  0  0  0  0  0  0  0  0  0  0
    6.9294  -12.1077   25.3951 C   0  0  0  0  0  0  0  0  0  0  0  0
    6.3130  -12.7587   26.4433 C   0  0  0  0  0  0  0  0  0  0  0  0
    6.1297  -14.1275   26.3781 C   0  0  0  0  0  0  0  0  0  0  0  0
    6.5495  -14.8554   25.2883 C   0  0  0  0  0  0  0  0  0  0  0  0
    7.1729  -14.1820   24.2331 C   0  0  0  0  0  0  0  0  0  0  0  0
    9.6300  -16.9389   23.6793 C   0  0  0  0  0  0  0  0  0  0  0  0
    9.6046  -18.1414   24.0159 O   0  0  0  0  0  0  0  0  0  0  0  0
    9.9609  -13.6061   30.1722 C   0  0  0  0  0  0  0  0  0  0  0  0
   11.2480  -13.6825   28.9250 S   0  0  0  0  0  0  0  0  0  0  0  0
   11.2923  -15.3293   28.1145 C   0  0  0  0  0  0  0  0  0  0  0  0
   10.8583  -15.1249   26.7049 C   0  0  0  0  0  0  0  0  0  0  0  0
   10.7200  -16.3631   25.8813 C   0  0  2  0  0  0  0  0  0  0  0  0
   10.1466  -15.9822   24.5822 N   0  0  0  0  0  0  0  0  0  0  0  0
    9.7123  -17.2627   26.5188 C   0  0  0  0  0  0  0  0  0  0  0  0
    8.4735  -17.1503   26.3006 O   0  0  0  0  0  0  0  0  0  0  0  0
   10.0689  -18.2837   27.3951 O   0  0  0  0  0  0  0  0  0  0  0  0
  2  3  1  0
  2  1  1  0
  3  4  2  0
  5  6  1  0
  5  3  1  0
  6  7  1  1
  8  7  1  0
  8 16  1  0
  9  8  2  0
 10  9  1  0
 10 11  1  0
 11 12  1  0
 11 16  2  0
 12 13  2  0
 13 14  1  0
 15 14  2  0
 16 15  1  0
 17  6  1  0
 17 18  2  0
 19 20  1  0
 21 20  1  0
 22 21  1  0
 23 24  1  0
 23 22  1  1
 24 17  1  0
 25 23  1  0
 26 25  2  0
 27 25  1  0
M  END
$$$$
