GWM.pdb
     RDKit          3D

 27 28  0  0  1  0  0  0  0  0999 V2000
   10.3661  -20.1302   21.3754 N   0  0  0  0  0  0  0  0  0  0  0  0
    9.5676  -19.5116   22.3869 C   0  0  0  0  0  0  0  0  0  0  0  0
    9.9468  -18.0969   22.6351 C   0  0  0  0  0  0  0  0  0  0  0  0
   10.9826  -17.6221   22.0741 O   0  0  0  0  0  0  0  0  0  0  0  0
    9.2075  -17.2350   23.4744 N   0  0  0  0  0  0  0  0  0  0  0  0
    9.5383  -15.8519   23.6824 C   0  0  1  0  0  0  0  0  0  0  0  0
    8.3233  -14.9642   23.7300 C   0  0  0  0  0  0  0  0  0  0  0  0
    7.5430  -14.9876   22.4865 C   0  0  0  0  0  0  0  0  0  0  0  0
    6.4968  -15.8423   22.2348 C   0  0  0  0  0  0  0  0  0  0  0  0
    6.0242  -15.5847   21.0164 N   0  0  0  0  0  0  0  0  0  0  0  0
    6.7308  -14.5799   20.4525 C   0  0  0  0  0  0  0  0  0  0  0  0
    6.6714  -13.9289   19.2355 C   0  0  0  0  0  0  0  0  0  0  0  0
    7.5505  -12.9108   18.9304 C   0  0  0  0  0  0  0  0  0  0  0  0
    8.5051  -12.5378   19.8584 C   0  0  0  0  0  0  0  0  0  0  0  0
    8.5970  -13.1613   21.0817 C   0  0  0  0  0  0  0  0  0  0  0  0
    7.6991  -14.1918   21.3772 C   0  0  0  0  0  0  0  0  0  0  0  0
   10.3278  -15.6287   24.9097 C   0  0  0  0  0  0  0  0  0  0  0  0
   10.9090  -14.5388   25.0947 O   0  0  0  0  0  0  0  0  0  0  0  0
    8.4371  -11.7341   27.5517 C   0  0  0  0  0  0  0  0  0  0  0  0
    8.4929  -13.5138   27.3332 S   0  0  0  0  0  0  0  0  0  0  0  0
    9.9491  -14.2429   28.1810 C   0  0  0  0  0  0  0  0  0  0  0  0
    9.8433  -15.7195   28.0208 C   0  0  0  0  0  0  0  0  0  0  0  0
   10.9403  -16.3692   27.2431 C   0  0  2  0  0  0  0  0  0  0  0  0
   10.4367  -16.6418   25.8891 N   0  0  0  0  0  0  0  0  0  0  0  0
   11.2358  -17.7061   27.8403 C   0  0  0  0  0  0  0  0  0  0  0  0
   10.8674  -18.7846   27.2964 O   0  0  0  0  0  0  0  0  0  0  0  0
   11.9355  -17.8540   29.0345 O   0  0  0  0  0  0  0  0  0  0  0  0
  2  3  1  0
  2  1  1  0
  3  4  2  0
  5  6  1  0
  5  3  1  0
  6  7  1  1
  8  7  1  0
  8 16  1  0
  9  8  2  0
 10  9  1  0
 10 11  1  0
 11 12  1  0
 11 16  2  0
 12 13  2  0
 13 14  1  0
 15 14  2  0
 16 15  1  0
 17  6  1  0
 17 18  2  0
 19 20  1  0
 21 20  1  0
 22 21  1  0
 23 24  1  0
 23 22  1  1
 24 17  1  0
 25 23  1  0
 26 25  2  0
 27 25  1  0
M  END
$$$$
