EGD.pdb
     RDKit          3D

 22 21  0  0  1  0  0  0  0  0999 V2000
   16.8209  -10.4983  -15.5023 N   0  0  0  0  0  0  0  0  0  0  0  0
   18.1777  -10.9497  -15.4007 C   0  0  1  0  0  0  0  0  0  0  0  0
   18.4043  -12.3661  -15.7771 C   0  0  0  0  0  0  0  0  0  0  0  0
   17.4701  -13.3868  -15.2680 C   0  0  0  0  0  0  0  0  0  0  0  0
   17.6349  -14.7568  -15.7291 C   0  0  0  0  0  0  0  0  0  0  0  0
   18.5419  -15.0665  -16.5330 O   0  0  0  0  0  0  0  0  0  0  0  0
   19.1400  -10.0313  -16.1000 C   0  0  0  0  0  0  0  0  0  0  0  0
   20.3723  -10.2525  -15.9665 O   0  0  0  0  0  0  0  0  0  0  0  0
   16.7867  -15.7786  -15.2932 O   0  0  0  0  0  0  0  0  0  0  0  0
   18.6545   -8.9549  -16.8793 N   0  0  0  0  0  0  0  0  0  0  0  0
   19.6765   -8.0593  -17.4341 C   0  0  0  0  0  0  0  0  0  0  0  0
   19.7108   -6.8417  -16.5812 C   0  0  0  0  0  0  0  0  0  0  0  0
   18.7041   -6.5065  -15.8712 O   0  0  0  0  0  0  0  0  0  0  0  0
   20.8643   -6.0148  -16.5301 N   0  0  0  0  0  0  0  0  0  0  0  0
   20.8459   -4.8585  -15.6250 C   0  0  1  0  0  0  0  0  0  0  0  0
   22.1039   -4.8256  -14.8016 C   0  0  0  0  0  0  0  0  0  0  0  0
   22.1454   -5.8307  -13.7471 C   0  0  0  0  0  0  0  0  0  0  0  0
   22.6864   -6.9306  -13.8650 O   0  0  0  0  0  0  0  0  0  0  0  0
   20.8433   -3.6820  -16.5648 C   0  0  0  0  0  0  0  0  0  0  0  0
   21.0178   -3.8161  -17.8123 O   0  0  0  0  0  0  0  0  0  0  0  0
   21.5287   -5.5283  -12.5121 O   0  0  0  0  0  0  0  0  0  0  0  0
   20.6468   -2.4316  -16.0631 O   0  0  0  0  0  0  0  0  0  0  0  0
  2  1  1  6
  2  7  1  0
  3  4  1  0
  3  2  1  0
  5  4  1  0
  5  6  2  0
  7  8  2  0
  9  5  1  0
 10 11  1  0
 10  7  1  0
 11 12  1  0
 12 13  2  0
 12 14  1  0
 14 15  1  0
 15 16  1  1
 15 19  1  0
 16 17  1  0
 17 21  1  0
 17 18  2  0
 19 22  1  0
 20 19  2  0
M  END
$$$$
