EGD.pdb
     RDKit          3D

 22 21  0  0  1  0  0  0  0  0999 V2000
   21.3487  -16.1834  -18.1108 N   0  0  0  0  0  0  0  0  0  0  0  0
   20.8801  -15.1420  -17.2443 C   0  0  1  0  0  0  0  0  0  0  0  0
   20.4341  -15.5874  -15.9019 C   0  0  0  0  0  0  0  0  0  0  0  0
   19.4674  -16.6973  -15.8147 C   0  0  0  0  0  0  0  0  0  0  0  0
   19.0225  -17.1157  -14.4943 C   0  0  0  0  0  0  0  0  0  0  0  0
   18.2041  -18.0508  -14.3511 O   0  0  0  0  0  0  0  0  0  0  0  0
   21.8470  -13.9953  -17.1530 C   0  0  0  0  0  0  0  0  0  0  0  0
   23.0560  -14.2175  -17.4256 O   0  0  0  0  0  0  0  0  0  0  0  0
   19.4908  -16.4892  -13.3359 O   0  0  0  0  0  0  0  0  0  0  0  0
   21.3917  -12.7120  -16.7688 N   0  0  0  0  0  0  0  0  0  0  0  0
   22.4085  -11.6536  -16.7556 C   0  0  0  0  0  0  0  0  0  0  0  0
   21.7236  -10.3838  -16.3952 C   0  0  0  0  0  0  0  0  0  0  0  0
   20.4560  -10.3373  -16.2511 O   0  0  0  0  0  0  0  0  0  0  0  0
   22.4587   -9.1844  -16.2000 N   0  0  0  0  0  0  0  0  0  0  0  0
   21.7215   -7.9805  -15.7952 C   0  0  1  0  0  0  0  0  0  0  0  0
   22.0432   -7.6319  -14.3682 C   0  0  0  0  0  0  0  0  0  0  0  0
   21.4212   -6.3969  -13.9078 C   0  0  0  0  0  0  0  0  0  0  0  0
   22.0505   -5.4103  -13.5243 O   0  0  0  0  0  0  0  0  0  0  0  0
   22.2779   -6.9124  -16.6990 C   0  0  0  0  0  0  0  0  0  0  0  0
   23.2752   -7.1196  -17.4521 O   0  0  0  0  0  0  0  0  0  0  0  0
   20.0100   -6.3228  -13.8999 O   0  0  0  0  0  0  0  0  0  0  0  0
   21.6937   -5.6826  -16.7118 O   0  0  0  0  0  0  0  0  0  0  0  0
  2  1  1  1
  2  7  1  0
  3  4  1  0
  3  2  1  0
  5  4  1  0
  5  6  2  0
  7  8  2  0
  9  5  1  0
 10 11  1  0
 10  7  1  0
 11 12  1  0
 12 13  2  0
 12 14  1  0
 14 15  1  0
 15 16  1  1
 15 19  1  0
 16 17  1  0
 17 21  1  0
 17 18  2  0
 19 22  1  0
 20 19  2  0
M  END
$$$$
