EGD.pdb
     RDKit          3D

 22 21  0  0  1  0  0  0  0  0999 V2000
   16.8272  -11.0913  -17.0193 N   0  0  0  0  0  0  0  0  0  0  0  0
   17.1889  -11.6862  -15.7662 C   0  0  1  0  0  0  0  0  0  0  0  0
   18.2373  -12.7324  -15.8407 C   0  0  0  0  0  0  0  0  0  0  0  0
   18.5921  -13.2794  -17.1631 C   0  0  0  0  0  0  0  0  0  0  0  0
   19.5535  -14.3699  -17.2176 C   0  0  0  0  0  0  0  0  0  0  0  0
   20.7845  -14.1531  -17.1688 O   0  0  0  0  0  0  0  0  0  0  0  0
   17.5065  -10.6594  -14.7159 C   0  0  0  0  0  0  0  0  0  0  0  0
   17.7230  -11.0607  -13.5423 O   0  0  0  0  0  0  0  0  0  0  0  0
   19.1396  -15.7004  -17.3277 O   0  0  0  0  0  0  0  0  0  0  0  0
   17.5542   -9.2871  -15.0567 N   0  0  0  0  0  0  0  0  0  0  0  0
   18.0207   -8.3843  -13.9977 C   0  0  0  0  0  0  0  0  0  0  0  0
   18.9891   -7.4389  -14.6141 C   0  0  0  0  0  0  0  0  0  0  0  0
   19.3345   -7.5549  -15.8377 O   0  0  0  0  0  0  0  0  0  0  0  0
   19.5588   -6.3784  -13.8608 N   0  0  0  0  0  0  0  0  0  0  0  0
   20.4176   -5.4159  -14.5630 C   0  0  1  0  0  0  0  0  0  0  0  0
   20.5229   -4.1421  -13.7706 C   0  0  0  0  0  0  0  0  0  0  0  0
   21.3054   -3.1021  -14.4266 C   0  0  0  0  0  0  0  0  0  0  0  0
   22.4192   -2.7370  -14.0492 O   0  0  0  0  0  0  0  0  0  0  0  0
   21.7606   -6.0964  -14.5792 C   0  0  0  0  0  0  0  0  0  0  0  0
   22.7448   -5.6290  -15.2254 O   0  0  0  0  0  0  0  0  0  0  0  0
   20.7561   -2.4721  -15.5661 O   0  0  0  0  0  0  0  0  0  0  0  0
   21.9286   -7.2514  -13.8779 O   0  0  0  0  0  0  0  0  0  0  0  0
  2  1  1  6
  2  7  1  0
  3  4  1  0
  3  2  1  0
  5  4  1  0
  5  6  2  0
  7  8  2  0
  9  5  1  0
 10 11  1  0
 10  7  1  0
 11 12  1  0
 12 13  2  0
 12 14  1  0
 14 15  1  0
 15 16  1  1
 15 19  1  0
 16 17  1  0
 17 21  1  0
 17 18  2  0
 19 22  1  0
 20 19  2  0
M  END
$$$$
