EGD.pdb
     RDKit          3D

 22 21  0  0  1  0  0  0  0  0999 V2000
   18.7760  -10.0908  -18.2968 N   0  0  0  0  0  0  0  0  0  0  0  0
   18.7617  -10.8882  -17.1056 C   0  0  1  0  0  0  0  0  0  0  0  0
   19.1059  -12.3181  -17.2959 C   0  0  0  0  0  0  0  0  0  0  0  0
   20.4825  -12.6626  -17.6957 C   0  0  0  0  0  0  0  0  0  0  0  0
   20.8135  -14.0685  -17.8699 C   0  0  0  0  0  0  0  0  0  0  0  0
   20.8256  -14.5970  -19.0036 O   0  0  0  0  0  0  0  0  0  0  0  0
   19.5623  -10.2703  -15.9940 C   0  0  0  0  0  0  0  0  0  0  0  0
   19.4755  -10.7821  -14.8469 O   0  0  0  0  0  0  0  0  0  0  0  0
   21.1293  -14.8827  -16.7785 O   0  0  0  0  0  0  0  0  0  0  0  0
   20.3820   -9.1459  -16.2500 N   0  0  0  0  0  0  0  0  0  0  0  0
   21.2631   -8.7370  -15.1498 C   0  0  0  0  0  0  0  0  0  0  0  0
   21.4613   -7.2675  -15.2617 C   0  0  0  0  0  0  0  0  0  0  0  0
   22.2269   -6.7725  -16.1554 O   0  0  0  0  0  0  0  0  0  0  0  0
   20.8049   -6.3700  -14.3782 N   0  0  0  0  0  0  0  0  0  0  0  0
   20.9971   -4.9293  -14.5885 C   0  0  1  0  0  0  0  0  0  0  0  0
   19.7678   -4.1754  -14.1618 C   0  0  0  0  0  0  0  0  0  0  0  0
   19.9157   -2.7265  -14.2160 C   0  0  0  0  0  0  0  0  0  0  0  0
   20.4004   -2.1190  -15.1712 O   0  0  0  0  0  0  0  0  0  0  0  0
   22.1293   -4.5903  -13.6556 C   0  0  0  0  0  0  0  0  0  0  0  0
   22.6973   -3.4581  -13.6691 O   0  0  0  0  0  0  0  0  0  0  0  0
   19.4769   -1.9688  -13.1068 O   0  0  0  0  0  0  0  0  0  0  0  0
   22.5602   -5.5269  -12.7661 O   0  0  0  0  0  0  0  0  0  0  0  0
  2  1  1  6
  2  7  1  0
  3  4  1  0
  3  2  1  0
  5  4  1  0
  5  6  2  0
  7  8  2  0
  9  5  1  0
 10 11  1  0
 10  7  1  0
 11 12  1  0
 12 13  2  0
 12 14  1  0
 14 15  1  0
 15 16  1  1
 15 19  1  0
 16 17  1  0
 17 21  1  0
 17 18  2  0
 19 22  1  0
 20 19  2  0
M  END
$$$$
