EGD.pdb
     RDKit          3D

 22 21  0  0  1  0  0  0  0  0999 V2000
   21.9682  -15.7865  -16.4057 N   0  0  0  0  0  0  0  0  0  0  0  0
   20.5500  -15.9950  -16.3960 C   0  0  1  0  0  0  0  0  0  0  0  0
   20.0456  -16.8702  -15.3102 C   0  0  0  0  0  0  0  0  0  0  0  0
   20.6539  -18.2025  -15.1414 C   0  0  0  0  0  0  0  0  0  0  0  0
   20.1211  -19.0721  -14.1038 C   0  0  0  0  0  0  0  0  0  0  0  0
   19.1540  -18.7183  -13.3937 O   0  0  0  0  0  0  0  0  0  0  0  0
   19.7816  -14.7055  -16.4684 C   0  0  0  0  0  0  0  0  0  0  0  0
   18.5369  -14.7676  -16.6478 O   0  0  0  0  0  0  0  0  0  0  0  0
   20.6691  -20.3345  -13.8597 O   0  0  0  0  0  0  0  0  0  0  0  0
   20.4566  -13.4690  -16.3378 N   0  0  0  0  0  0  0  0  0  0  0  0
   19.6036  -12.2746  -16.3441 C   0  0  0  0  0  0  0  0  0  0  0  0
   20.4799  -11.1013  -16.0854 C   0  0  0  0  0  0  0  0  0  0  0  0
   21.7319  -11.2466  -15.8826 O   0  0  0  0  0  0  0  0  0  0  0  0
   19.9508   -9.7837  -16.0562 N   0  0  0  0  0  0  0  0  0  0  0  0
   20.8901   -8.6654  -15.9017 C   0  0  1  0  0  0  0  0  0  0  0  0
   20.3725   -7.4513  -16.6227 C   0  0  0  0  0  0  0  0  0  0  0  0
   21.2589   -6.2970  -16.5460 C   0  0  0  0  0  0  0  0  0  0  0  0
   22.3598   -6.3095  -15.9944 O   0  0  0  0  0  0  0  0  0  0  0  0
   20.8735   -8.4004  -14.4196 C   0  0  0  0  0  0  0  0  0  0  0  0
   19.8184   -8.5101  -13.7274 O   0  0  0  0  0  0  0  0  0  0  0  0
   20.8329   -5.0876  -17.1401 O   0  0  0  0  0  0  0  0  0  0  0  0
   22.0274   -8.0313  -13.7979 O   0  0  0  0  0  0  0  0  0  0  0  0
  2  1  1  1
  2  7  1  0
  3  4  1  0
  3  2  1  0
  5  4  1  0
  5  6  2  0
  7  8  2  0
  9  5  1  0
 10 11  1  0
 10  7  1  0
 11 12  1  0
 12 13  2  0
 12 14  1  0
 14 15  1  0
 15 16  1  6
 15 19  1  0
 16 17  1  0
 17 21  1  0
 17 18  2  0
 19 22  1  0
 20 19  2  0
M  END
$$$$
