EGD.pdb
     RDKit          3D

 22 21  0  0  1  0  0  0  0  0999 V2000
   24.1348  -32.5782  -11.8132 N   0  0  0  0  0  0  0  0  0  0  0  0
   22.8849  -31.9450  -11.5097 C   0  0  1  0  0  0  0  0  0  0  0  0
   21.6969  -32.5394  -12.1688 C   0  0  0  0  0  0  0  0  0  0  0  0
   21.6479  -32.5618  -13.6422 C   0  0  0  0  0  0  0  0  0  0  0  0
   21.5778  -33.8548  -14.3054 C   0  0  0  0  0  0  0  0  0  0  0  0
   21.5689  -33.9448  -15.5530 O   0  0  0  0  0  0  0  0  0  0  0  0
   22.6717  -31.7791  -10.0314 C   0  0  0  0  0  0  0  0  0  0  0  0
   21.6233  -31.1980   -9.6462 O   0  0  0  0  0  0  0  0  0  0  0  0
   21.5167  -35.0451  -13.5753 O   0  0  0  0  0  0  0  0  0  0  0  0
   23.6340  -32.2676   -9.1165 N   0  0  0  0  0  0  0  0  0  0  0  0
   23.3012  -32.1060   -7.6962 C   0  0  0  0  0  0  0  0  0  0  0  0
   24.3838  -32.7544   -6.9094 C   0  0  0  0  0  0  0  0  0  0  0  0
   25.6125  -32.5036   -7.1489 O   0  0  0  0  0  0  0  0  0  0  0  0
   24.0841  -33.6719   -5.8677 N   0  0  0  0  0  0  0  0  0  0  0  0
   25.2042  -34.2638   -5.1250 C   0  0  1  0  0  0  0  0  0  0  0  0
   25.6568  -33.3280   -4.0383 C   0  0  0  0  0  0  0  0  0  0  0  0
   26.8174  -33.8032   -3.2957 C   0  0  0  0  0  0  0  0  0  0  0  0
   27.4088  -34.8550   -3.5416 O   0  0  0  0  0  0  0  0  0  0  0  0
   24.5949  -35.4887   -4.4958 C   0  0  0  0  0  0  0  0  0  0  0  0
   23.3442  -35.6889   -4.4848 O   0  0  0  0  0  0  0  0  0  0  0  0
   27.2968  -33.0114   -2.2280 O   0  0  0  0  0  0  0  0  0  0  0  0
   25.4101  -36.4145   -3.9194 O   0  0  0  0  0  0  0  0  0  0  0  0
  2  1  1  1
  2  7  1  0
  3  4  1  0
  3  2  1  0
  5  4  1  0
  5  6  2  0
  7  8  2  0
  9  5  1  0
 10 11  1  0
 10  7  1  0
 11 12  1  0
 12 13  2  0
 12 14  1  0
 14 15  1  0
 15 16  1  1
 15 19  1  0
 16 17  1  0
 17 21  1  0
 17 18  2  0
 19 22  1  0
 20 19  2  0
M  END
$$$$
