EGD.pdb
     RDKit          3D

 22 21  0  0  1  0  0  0  0  0999 V2000
   19.6225  -12.4781  -16.3414 N   0  0  0  0  0  0  0  0  0  0  0  0
   18.2218  -12.1727  -16.3409 C   0  0  1  0  0  0  0  0  0  0  0  0
   17.3854  -13.0354  -15.4719 C   0  0  0  0  0  0  0  0  0  0  0  0
   17.7839  -14.4426  -15.2857 C   0  0  0  0  0  0  0  0  0  0  0  0
   16.9940  -15.2642  -14.3815 C   0  0  0  0  0  0  0  0  0  0  0  0
   16.0062  -14.7953  -13.7739 O   0  0  0  0  0  0  0  0  0  0  0  0
   17.9544  -10.7146  -16.0939 C   0  0  0  0  0  0  0  0  0  0  0  0
   16.7582  -10.3219  -16.1066 O   0  0  0  0  0  0  0  0  0  0  0  0
   17.3083  -16.6074  -14.1561 O   0  0  0  0  0  0  0  0  0  0  0  0
   19.0297   -9.8260  -15.8576 N   0  0  0  0  0  0  0  0  0  0  0  0
   18.6538   -8.4585  -15.4798 C   0  0  0  0  0  0  0  0  0  0  0  0
   19.9116   -7.7014  -15.2425 C   0  0  0  0  0  0  0  0  0  0  0  0
   21.0472   -8.2834  -15.2789 O   0  0  0  0  0  0  0  0  0  0  0  0
   19.8877   -6.3081  -14.9684 N   0  0  0  0  0  0  0  0  0  0  0  0
   21.1706   -5.6200  -14.7750 C   0  0  1  0  0  0  0  0  0  0  0  0
   20.9960   -4.1378  -14.9597 C   0  0  0  0  0  0  0  0  0  0  0  0
   22.2341   -3.3783  -14.8395 C   0  0  0  0  0  0  0  0  0  0  0  0
   23.3478   -3.8297  -15.1087 O   0  0  0  0  0  0  0  0  0  0  0  0
   21.5005   -5.8996  -13.3327 C   0  0  0  0  0  0  0  0  0  0  0  0
   22.5154   -5.3980  -12.7644 O   0  0  0  0  0  0  0  0  0  0  0  0
   22.1561   -2.0417  -14.3873 O   0  0  0  0  0  0  0  0  0  0  0  0
   20.6847   -6.7168  -12.6111 O   0  0  0  0  0  0  0  0  0  0  0  0
  2  1  1  1
  2  7  1  0
  3  4  1  0
  3  2  1  0
  5  4  1  0
  5  6  2  0
  7  8  2  0
  9  5  1  0
 10 11  1  0
 10  7  1  0
 11 12  1  0
 12 13  2  0
 12 14  1  0
 14 15  1  0
 15 16  1  1
 15 19  1  0
 16 17  1  0
 17 21  1  0
 17 18  2  0
 19 22  1  0
 20 19  2  0
M  END
$$$$
