EGD.pdb
     RDKit          3D

 22 21  0  0  1  0  0  0  0  0999 V2000
   16.4698  -13.6802    4.7800 N   0  0  0  0  0  0  0  0  0  0  0  0
   15.9805  -15.0056    5.0225 C   0  0  1  0  0  0  0  0  0  0  0  0
   14.8257  -15.4174    4.1881 C   0  0  0  0  0  0  0  0  0  0  0  0
   13.6416  -14.5400    4.1444 C   0  0  0  0  0  0  0  0  0  0  0  0
   12.6205  -14.8171    3.1459 C   0  0  0  0  0  0  0  0  0  0  0  0
   12.6853  -15.8301    2.4149 O   0  0  0  0  0  0  0  0  0  0  0  0
   17.0762  -16.0338    4.9956 C   0  0  0  0  0  0  0  0  0  0  0  0
   18.2634  -15.6305    4.8809 O   0  0  0  0  0  0  0  0  0  0  0  0
   11.5293  -13.9627    2.9640 O   0  0  0  0  0  0  0  0  0  0  0  0
   16.7611  -17.4094    5.0961 N   0  0  0  0  0  0  0  0  0  0  0  0
   17.9065  -18.3270    5.0844 C   0  0  0  0  0  0  0  0  0  0  0  0
   17.3769  -19.7016    5.2882 C   0  0  0  0  0  0  0  0  0  0  0  0
   16.1349  -19.9034    5.5038 O   0  0  0  0  0  0  0  0  0  0  0  0
   18.2364  -20.8315    5.2491 N   0  0  0  0  0  0  0  0  0  0  0  0
   17.6270  -22.1657    5.3208 C   0  0  1  0  0  0  0  0  0  0  0  0
   18.3963  -23.1329    4.4638 C   0  0  0  0  0  0  0  0  0  0  0  0
   17.8613  -24.4885    4.4779 C   0  0  0  0  0  0  0  0  0  0  0  0
   18.4369  -25.4507    4.9871 O   0  0  0  0  0  0  0  0  0  0  0  0
   17.7979  -22.5481    6.7671 C   0  0  0  0  0  0  0  0  0  0  0  0
   17.3116  -23.6164    7.2434 O   0  0  0  0  0  0  0  0  0  0  0  0
   16.6054  -24.7168    3.8717 O   0  0  0  0  0  0  0  0  0  0  0  0
   18.4974  -21.7230    7.5941 O   0  0  0  0  0  0  0  0  0  0  0  0
  2  1  1  6
  2  7  1  0
  3  4  1  0
  3  2  1  0
  5  4  1  0
  5  6  2  0
  7  8  2  0
  9  5  1  0
 10 11  1  0
 10  7  1  0
 11 12  1  0
 12 13  2  0
 12 14  1  0
 14 15  1  0
 15 16  1  6
 15 19  1  0
 16 17  1  0
 17 21  1  0
 17 18  2  0
 19 22  1  0
 20 19  2  0
M  END
$$$$
