EGD.pdb
     RDKit          3D

 22 21  0  0  1  0  0  0  0  0999 V2000
   27.3647  -21.7487  -15.0065 N   0  0  0  0  0  0  0  0  0  0  0  0
   27.6554  -20.4079  -15.4225 C   0  0  1  0  0  0  0  0  0  0  0  0
   28.4378  -20.2891  -16.6767 C   0  0  0  0  0  0  0  0  0  0  0  0
   28.1822  -21.2570  -17.7590 C   0  0  0  0  0  0  0  0  0  0  0  0
   27.5100  -20.7815  -18.9584 C   0  0  0  0  0  0  0  0  0  0  0  0
   27.8032  -19.6799  -19.4734 O   0  0  0  0  0  0  0  0  0  0  0  0
   26.4293  -19.5394  -15.4515 C   0  0  0  0  0  0  0  0  0  0  0  0
   26.5630  -18.3386  -15.8058 O   0  0  0  0  0  0  0  0  0  0  0  0
   26.5109  -21.5355  -19.5804 O   0  0  0  0  0  0  0  0  0  0  0  0
   25.1717  -20.0747  -15.0862 N   0  0  0  0  0  0  0  0  0  0  0  0
   24.0196  -19.1884  -15.2893 C   0  0  0  0  0  0  0  0  0  0  0  0
   22.7930  -20.0224  -15.1828 C   0  0  0  0  0  0  0  0  0  0  0  0
   22.5133  -20.8981  -16.0686 O   0  0  0  0  0  0  0  0  0  0  0  0
   21.8957  -19.8703  -14.0925 N   0  0  0  0  0  0  0  0  0  0  0  0
   20.7639  -20.8009  -13.9943 C   0  0  1  0  0  0  0  0  0  0  0  0
   20.1218  -20.6938  -12.6387 C   0  0  0  0  0  0  0  0  0  0  0  0
   19.0188  -21.6240  -12.4330 C   0  0  0  0  0  0  0  0  0  0  0  0
   18.7964  -22.5983  -13.1526 O   0  0  0  0  0  0  0  0  0  0  0  0
   19.8029  -20.2897  -15.0346 C   0  0  0  0  0  0  0  0  0  0  0  0
   18.9631  -21.0467  -15.6059 O   0  0  0  0  0  0  0  0  0  0  0  0
   18.1494  -21.3978  -11.3422 O   0  0  0  0  0  0  0  0  0  0  0  0
   19.8324  -18.9718  -15.3756 O   0  0  0  0  0  0  0  0  0  0  0  0
  2  1  1  6
  2  7  1  0
  3  4  1  0
  3  2  1  0
  5  4  1  0
  5  6  2  0
  7  8  2  0
  9  5  1  0
 10 11  1  0
 10  7  1  0
 11 12  1  0
 12 13  2  0
 12 14  1  0
 14 15  1  0
 15 16  1  1
 15 19  1  0
 16 17  1  0
 17 21  1  0
 17 18  2  0
 19 22  1  0
 20 19  2  0
M  END
$$$$
