EGD.pdb
     RDKit          3D

 22 21  0  0  1  0  0  0  0  0999 V2000
   17.0551  -12.3409  -15.1501 N   0  0  0  0  0  0  0  0  0  0  0  0
   18.2624  -12.9359  -15.6435 C   0  0  1  0  0  0  0  0  0  0  0  0
   18.0753  -14.0000  -16.6594 C   0  0  0  0  0  0  0  0  0  0  0  0
   17.7575  -15.3639  -16.1985 C   0  0  0  0  0  0  0  0  0  0  0  0
   16.5005  -15.9567  -16.6288 C   0  0  0  0  0  0  0  0  0  0  0  0
   15.4919  -15.9482  -15.8889 O   0  0  0  0  0  0  0  0  0  0  0  0
   19.2626  -11.9096  -16.0959 C   0  0  0  0  0  0  0  0  0  0  0  0
   20.4192  -12.3040  -16.3995 O   0  0  0  0  0  0  0  0  0  0  0  0
   16.3714  -16.5588  -17.8835 O   0  0  0  0  0  0  0  0  0  0  0  0
   18.8954  -10.5453  -16.1699 N   0  0  0  0  0  0  0  0  0  0  0  0
   19.9512   -9.6250  -16.6084 C   0  0  0  0  0  0  0  0  0  0  0  0
   20.1335   -8.6133  -15.5339 C   0  0  0  0  0  0  0  0  0  0  0  0
   19.4567   -8.6717  -14.4529 O   0  0  0  0  0  0  0  0  0  0  0  0
   21.0659   -7.5517  -15.6771 N   0  0  0  0  0  0  0  0  0  0  0  0
   21.1590   -6.5633  -14.5950 C   0  0  1  0  0  0  0  0  0  0  0  0
   22.4967   -5.8771  -14.6343 C   0  0  0  0  0  0  0  0  0  0  0  0
   22.6272   -4.7836  -13.6797 C   0  0  0  0  0  0  0  0  0  0  0  0
   22.5943   -3.5920  -13.9888 O   0  0  0  0  0  0  0  0  0  0  0  0
   20.0854   -5.5662  -14.9423 C   0  0  0  0  0  0  0  0  0  0  0  0
   19.7812   -5.2941  -16.1414 O   0  0  0  0  0  0  0  0  0  0  0  0
   22.8020   -5.1061  -12.3150 O   0  0  0  0  0  0  0  0  0  0  0  0
   19.4162   -4.9343  -13.9389 O   0  0  0  0  0  0  0  0  0  0  0  0
  2  1  1  6
  2  7  1  0
  3  4  1  0
  3  2  1  0
  5  4  1  0
  5  6  2  0
  7  8  2  0
  9  5  1  0
 10 11  1  0
 10  7  1  0
 11 12  1  0
 12 13  2  0
 12 14  1  0
 14 15  1  0
 15 16  1  6
 15 19  1  0
 16 17  1  0
 17 21  1  0
 17 18  2  0
 19 22  1  0
 20 19  2  0
M  END
$$$$
