EGD.pdb
     RDKit          3D

 22 21  0  0  1  0  0  0  0  0999 V2000
   19.1072  -13.6549  -15.3835 N   0  0  0  0  0  0  0  0  0  0  0  0
   17.9491  -13.3616  -16.1759 C   0  0  1  0  0  0  0  0  0  0  0  0
   16.6662  -13.8752  -15.6376 C   0  0  0  0  0  0  0  0  0  0  0  0
   16.6322  -15.2421  -15.0861 C   0  0  0  0  0  0  0  0  0  0  0  0
   15.4282  -15.6702  -14.3907 C   0  0  0  0  0  0  0  0  0  0  0  0
   14.4432  -14.9088  -14.2693 O   0  0  0  0  0  0  0  0  0  0  0  0
   17.8547  -11.9051  -16.5338 C   0  0  0  0  0  0  0  0  0  0  0  0
   17.0042  -11.5615  -17.3963 O   0  0  0  0  0  0  0  0  0  0  0  0
   15.3258  -16.9468  -13.8309 O   0  0  0  0  0  0  0  0  0  0  0  0
   18.7069  -10.9643  -15.9091 N   0  0  0  0  0  0  0  0  0  0  0  0
   18.4805   -9.5606  -16.2732 C   0  0  0  0  0  0  0  0  0  0  0  0
   19.1454   -8.7210  -15.2415 C   0  0  0  0  0  0  0  0  0  0  0  0
   19.3792   -9.1768  -14.0721 O   0  0  0  0  0  0  0  0  0  0  0  0
   19.5409   -7.3869  -15.5255 N   0  0  0  0  0  0  0  0  0  0  0  0
   20.1974   -6.6192  -14.4596 C   0  0  1  0  0  0  0  0  0  0  0  0
   21.4520   -5.9756  -14.9827 C   0  0  0  0  0  0  0  0  0  0  0  0
   22.1563   -5.1672  -13.9955 C   0  0  0  0  0  0  0  0  0  0  0  0
   21.8468   -5.1100  -12.8050 O   0  0  0  0  0  0  0  0  0  0  0  0
   19.1929   -5.5452  -14.1361 C   0  0  0  0  0  0  0  0  0  0  0  0
   18.6894   -4.8025  -15.0302 O   0  0  0  0  0  0  0  0  0  0  0  0
   23.2627   -4.4012  -14.4267 O   0  0  0  0  0  0  0  0  0  0  0  0
   18.8091   -5.3626  -12.8425 O   0  0  0  0  0  0  0  0  0  0  0  0
  2  1  1  1
  2  7  1  0
  3  4  1  0
  3  2  1  0
  5  4  1  0
  5  6  2  0
  7  8  2  0
  9  5  1  0
 10 11  1  0
 10  7  1  0
 11 12  1  0
 12 13  2  0
 12 14  1  0
 14 15  1  0
 15 16  1  6
 15 19  1  0
 16 17  1  0
 17 21  1  0
 17 18  2  0
 19 22  1  0
 20 19  2  0
M  END
$$$$
