QIE.pdb
     RDKit          3D

 27 26  0  0  1  0  0  0  0  0999 V2000
   16.9768   -8.9012  -19.4139 N   0  0  0  0  0  0  0  0  0  0  0  0
   15.8161   -9.6215  -18.9549 C   0  0  0  0  0  0  0  0  0  0  0  0
   14.8712   -9.8215  -19.7640 O   0  0  0  0  0  0  0  0  0  0  0  0
   15.7895  -10.0949  -17.5479 C   0  0  0  0  0  0  0  0  0  0  0  0
   17.0153   -9.7413  -16.7708 C   0  0  0  0  0  0  0  0  0  0  0  0
   17.8075  -10.9118  -16.2855 C   0  0  2  0  0  0  0  0  0  0  0  0
   17.0612  -11.7498  -15.3672 N   0  0  0  0  0  0  0  0  0  0  0  0
   18.9805  -10.3708  -15.5109 C   0  0  0  0  0  0  0  0  0  0  0  0
   18.8621  -10.1311  -14.2807 O   0  0  0  0  0  0  0  0  0  0  0  0
   23.7804  -12.4703  -15.5152 C   0  0  0  0  0  0  0  0  0  0  0  0
   22.4918  -11.7329  -15.2235 C   0  0  0  0  0  0  0  0  0  0  0  0
   22.6436  -10.2854  -15.6908 C   0  0  2  0  0  0  0  0  0  0  0  0
   23.7139   -9.6738  -14.8139 C   0  0  0  0  0  0  0  0  0  0  0  0
   21.3556   -9.5315  -15.4359 C   0  0  2  0  0  0  0  0  0  0  0  0
   20.2371  -10.1155  -16.1233 N   0  0  0  0  0  0  0  0  0  0  0  0
   21.5369   -8.0945  -15.7822 C   0  0  0  0  0  0  0  0  0  0  0  0
   21.5128   -7.7416  -16.9884 O   0  0  0  0  0  0  0  0  0  0  0  0
   21.7376   -7.0885  -14.8188 N   0  0  0  0  0  0  0  0  0  0  0  0
   21.7770   -5.6546  -15.1255 C   0  0  1  0  0  0  0  0  0  0  0  0
   20.5650   -5.2334  -15.8722 C   0  0  0  0  0  0  0  0  0  0  0  0
   19.2843   -5.1327  -15.1581 C   0  0  0  0  0  0  0  0  0  0  0  0
   18.1324   -5.8500  -15.6901 C   0  0  0  0  0  0  0  0  0  0  0  0
   18.1045   -6.3759  -16.8113 O   0  0  0  0  0  0  0  0  0  0  0  0
   22.2303   -4.8383  -14.0090 C   0  0  0  0  0  0  0  0  0  0  0  0
   22.4596   -3.4717  -14.1525 O   0  0  0  0  0  0  0  0  0  0  0  0
   16.9536   -5.9808  -14.9195 O   0  0  0  0  0  0  0  0  0  0  0  0
   22.4386   -5.3312  -12.8724 O   0  0  0  0  0  0  0  0  0  0  0  0
  2  1  1  0
  3  2  2  0
  4  2  1  0
  5  4  1  0
  6  5  1  0
  6  7  1  1
  8 15  1  0
  8  6  1  0
  9  8  2  0
 11 10  1  0
 11 12  1  0
 12 14  1  0
 12 13  1  1
 14 15  1  6
 16 18  1  0
 16 14  1  0
 17 16  2  0
 19 18  1  0
 19 24  1  0
 19 20  1  1
 21 20  1  0
 22 26  1  0
 22 21  1  0
 23 22  2  0
 24 25  1  0
 27 24  2  0
M  END
$$$$
