QIE.pdb
     RDKit          3D

 27 26  0  0  1  0  0  0  0  0999 V2000
   25.9666  -18.2213  -19.0632 N   0  0  0  0  0  0  0  0  0  0  0  0
   27.0461  -19.1142  -18.7253 C   0  0  0  0  0  0  0  0  0  0  0  0
   27.4877  -19.8904  -19.6141 O   0  0  0  0  0  0  0  0  0  0  0  0
   27.5877  -19.0763  -17.3434 C   0  0  0  0  0  0  0  0  0  0  0  0
   26.5941  -19.4626  -16.2969 C   0  0  0  0  0  0  0  0  0  0  0  0
   27.0346  -20.5693  -15.3944 C   0  0  2  0  0  0  0  0  0  0  0  0
   27.4213  -21.7629  -16.1212 N   0  0  0  0  0  0  0  0  0  0  0  0
   25.8524  -20.9531  -14.5436 C   0  0  0  0  0  0  0  0  0  0  0  0
   25.0442  -21.8276  -14.9519 O   0  0  0  0  0  0  0  0  0  0  0  0
   26.6103  -20.7858   -9.2738 C   0  0  0  0  0  0  0  0  0  0  0  0
   26.0251  -21.3522  -10.5489 C   0  0  0  0  0  0  0  0  0  0  0  0
   24.8279  -20.4940  -10.9574 C   0  0  2  0  0  0  0  0  0  0  0  0
   23.6539  -21.0046  -10.1513 C   0  0  0  0  0  0  0  0  0  0  0  0
   24.5140  -20.7234  -12.4206 C   0  0  2  0  0  0  0  0  0  0  0  0
   25.6084  -20.3574  -13.2767 N   0  0  0  0  0  0  0  0  0  0  0  0
   23.2575  -20.0109  -12.7833 C   0  0  0  0  0  0  0  0  0  0  0  0
   23.1611  -18.7771  -12.5633 O   0  0  0  0  0  0  0  0  0  0  0  0
   22.1498  -20.6509  -13.3696 N   0  0  0  0  0  0  0  0  0  0  0  0
   20.9181  -19.9601  -13.7665 C   0  0  1  0  0  0  0  0  0  0  0  0
   20.8408  -19.8084  -15.2412 C   0  0  0  0  0  0  0  0  0  0  0  0
   20.2951  -20.9108  -16.0457 C   0  0  0  0  0  0  0  0  0  0  0  0
   20.2041  -20.7396  -17.4903 C   0  0  0  0  0  0  0  0  0  0  0  0
   20.7359  -21.5007  -18.3103 O   0  0  0  0  0  0  0  0  0  0  0  0
   19.7402  -20.4229  -13.0476 C   0  0  0  0  0  0  0  0  0  0  0  0
   19.7288  -21.6453  -12.3796 O   0  0  0  0  0  0  0  0  0  0  0  0
   19.4774  -19.6564  -18.0373 O   0  0  0  0  0  0  0  0  0  0  0  0
   18.6844  -19.7435  -13.0034 O   0  0  0  0  0  0  0  0  0  0  0  0
  2  1  1  0
  3  2  2  0
  4  2  1  0
  5  4  1  0
  6  5  1  0
  6  7  1  6
  8 15  1  0
  8  6  1  0
  9  8  2  0
 11 10  1  0
 11 12  1  0
 12 14  1  0
 12 13  1  1
 14 15  1  6
 16 18  1  0
 16 14  1  0
 17 16  2  0
 19 18  1  0
 19 24  1  0
 19 20  1  6
 21 20  1  0
 22 26  1  0
 22 21  1  0
 23 22  2  0
 24 25  1  0
 27 24  2  0
M  END
$$$$
