QIE.pdb
     RDKit          3D

 27 26  0  0  1  0  0  0  0  0999 V2000
   28.2026  -21.5172  -19.9348 N   0  0  0  0  0  0  0  0  0  0  0  0
   28.0933  -22.8759  -20.4027 C   0  0  0  0  0  0  0  0  0  0  0  0
   28.6897  -23.1981  -21.4647 O   0  0  0  0  0  0  0  0  0  0  0  0
   27.2818  -23.8329  -19.6090 C   0  0  0  0  0  0  0  0  0  0  0  0
   26.6025  -23.2139  -18.4314 C   0  0  0  0  0  0  0  0  0  0  0  0
   27.5241  -22.5894  -17.4346 C   0  0  2  0  0  0  0  0  0  0  0  0
   28.1426  -23.5644  -16.5575 N   0  0  0  0  0  0  0  0  0  0  0  0
   26.6937  -21.6917  -16.5551 C   0  0  0  0  0  0  0  0  0  0  0  0
   26.1883  -22.1461  -15.4955 O   0  0  0  0  0  0  0  0  0  0  0  0
   28.2566  -16.6260  -16.2181 C   0  0  0  0  0  0  0  0  0  0  0  0
   27.7172  -17.9906  -15.8492 C   0  0  0  0  0  0  0  0  0  0  0  0
   26.2136  -18.0096  -16.1243 C   0  0  2  0  0  0  0  0  0  0  0  0
   25.5733  -17.2292  -14.9976 C   0  0  0  0  0  0  0  0  0  0  0  0
   25.7008  -19.4319  -16.0464 C   0  0  2  0  0  0  0  0  0  0  0  0
   26.4536  -20.3291  -16.8790 N   0  0  0  0  0  0  0  0  0  0  0  0
   24.2464  -19.4604  -16.3653 C   0  0  0  0  0  0  0  0  0  0  0  0
   23.8434  -18.9844  -17.4565 O   0  0  0  0  0  0  0  0  0  0  0  0
   23.2774  -20.0000  -15.4989 N   0  0  0  0  0  0  0  0  0  0  0  0
   21.8349  -19.9750  -15.7636 C   0  0  1  0  0  0  0  0  0  0  0  0
   21.3463  -21.3090  -16.1942 C   0  0  0  0  0  0  0  0  0  0  0  0
   21.4308  -21.6770  -17.6147 C   0  0  0  0  0  0  0  0  0  0  0  0
   21.8875  -23.0173  -17.9605 C   0  0  0  0  0  0  0  0  0  0  0  0
   22.1912  -23.8799  -17.1250 O   0  0  0  0  0  0  0  0  0  0  0  0
   21.0771  -19.2424  -14.7599 C   0  0  0  0  0  0  0  0  0  0  0  0
   19.7339  -18.9257  -14.9498 O   0  0  0  0  0  0  0  0  0  0  0  0
   22.0079  -23.4038  -19.3158 O   0  0  0  0  0  0  0  0  0  0  0  0
   21.6022  -18.8609  -13.6843 O   0  0  0  0  0  0  0  0  0  0  0  0
  2  1  1  0
  3  2  2  0
  4  2  1  0
  5  4  1  0
  6  5  1  0
  6  7  1  1
  8 15  1  0
  8  6  1  0
  9  8  2  0
 11 10  1  0
 11 12  1  0
 12 14  1  0
 12 13  1  1
 14 15  1  6
 16 18  1  0
 16 14  1  0
 17 16  2  0
 19 18  1  0
 19 24  1  0
 19 20  1  1
 21 20  1  0
 22 26  1  0
 22 21  1  0
 23 22  2  0
 24 25  1  0
 27 24  2  0
M  END
$$$$
