QIE.pdb
     RDKit          3D

 27 26  0  0  1  0  0  0  0  0999 V2000
   17.6671  -11.8770  -18.0305 N   0  0  0  0  0  0  0  0  0  0  0  0
   17.5385  -12.5678  -16.7723 C   0  0  0  0  0  0  0  0  0  0  0  0
   16.3918  -12.6872  -16.2640 O   0  0  0  0  0  0  0  0  0  0  0  0
   18.7658  -13.1073  -16.1342 C   0  0  0  0  0  0  0  0  0  0  0  0
   20.0074  -12.8857  -16.9347 C   0  0  0  0  0  0  0  0  0  0  0  0
   21.2476  -13.4700  -16.3399 C   0  0  2  0  0  0  0  0  0  0  0  0
   20.9654  -14.4387  -15.2986 N   0  0  0  0  0  0  0  0  0  0  0  0
   22.0035  -12.3455  -15.6819 C   0  0  0  0  0  0  0  0  0  0  0  0
   21.6353  -11.9169  -14.5570 O   0  0  0  0  0  0  0  0  0  0  0  0
   27.3578  -11.8394  -15.5217 C   0  0  0  0  0  0  0  0  0  0  0  0
   25.8681  -11.8013  -15.2599 C   0  0  0  0  0  0  0  0  0  0  0  0
   25.2784  -10.5900  -15.9823 C   0  0  2  0  0  0  0  0  0  0  0  0
   25.8583   -9.3724  -15.2970 C   0  0  0  0  0  0  0  0  0  0  0  0
   23.7782  -10.5589  -15.7806 C   0  0  2  0  0  0  0  0  0  0  0  0
   23.1352  -11.7385  -16.2903 N   0  0  0  0  0  0  0  0  0  0  0  0
   23.2165   -9.3144  -16.3750 C   0  0  0  0  0  0  0  0  0  0  0  0
   23.4001   -9.0746  -17.5951 O   0  0  0  0  0  0  0  0  0  0  0  0
   22.4772   -8.3722  -15.6357 N   0  0  0  0  0  0  0  0  0  0  0  0
   21.8307   -7.1934  -16.2222 C   0  0  1  0  0  0  0  0  0  0  0  0
   20.3868   -7.4395  -16.4642 C   0  0  0  0  0  0  0  0  0  0  0  0
   19.4291   -7.2044  -15.3743 C   0  0  0  0  0  0  0  0  0  0  0  0
   18.0078   -7.3770  -15.6473 C   0  0  0  0  0  0  0  0  0  0  0  0
   17.5480   -7.6524  -16.7641 O   0  0  0  0  0  0  0  0  0  0  0  0
   22.2322   -5.9432  -15.5944 C   0  0  0  0  0  0  0  0  0  0  0  0
   21.8908   -4.7099  -16.1448 O   0  0  0  0  0  0  0  0  0  0  0  0
   17.0578   -7.2318  -14.6095 O   0  0  0  0  0  0  0  0  0  0  0  0
   22.9065   -5.9233  -14.5346 O   0  0  0  0  0  0  0  0  0  0  0  0
  2  1  1  0
  3  2  2  0
  4  2  1  0
  5  4  1  0
  6  5  1  0
  6  7  1  1
  8 15  1  0
  8  6  1  0
  9  8  2  0
 11 10  1  0
 11 12  1  0
 12 14  1  0
 12 13  1  1
 14 15  1  6
 16 18  1  0
 16 14  1  0
 17 16  2  0
 19 18  1  0
 19 24  1  0
 19 20  1  1
 21 20  1  0
 22 26  1  0
 22 21  1  0
 23 22  2  0
 24 25  1  0
 27 24  2  0
M  END
$$$$
