QIE.pdb
     RDKit          3D

 27 26  0  0  1  0  0  0  0  0999 V2000
   20.9918  -22.4692  -11.9812 N   0  0  0  0  0  0  0  0  0  0  0  0
   21.1844  -21.0791  -11.6537 C   0  0  0  0  0  0  0  0  0  0  0  0
   20.2374  -20.2739  -11.8597 O   0  0  0  0  0  0  0  0  0  0  0  0
   22.4919  -20.6615  -11.0876 C   0  0  0  0  0  0  0  0  0  0  0  0
   23.4875  -21.7709  -10.9906 C   0  0  0  0  0  0  0  0  0  0  0  0
   24.7485  -21.4185  -10.2703 C   0  0  2  0  0  0  0  0  0  0  0  0
   24.5040  -20.7053   -9.0317 N   0  0  0  0  0  0  0  0  0  0  0  0
   25.5250  -20.4798  -11.1561 C   0  0  0  0  0  0  0  0  0  0  0  0
   25.5967  -19.2575  -10.8633 O   0  0  0  0  0  0  0  0  0  0  0  0
   30.4431  -21.2260  -11.9841 C   0  0  0  0  0  0  0  0  0  0  0  0
   29.0925  -20.5514  -11.8847 C   0  0  0  0  0  0  0  0  0  0  0  0
   28.4313  -20.5818  -13.2626 C   0  0  2  0  0  0  0  0  0  0  0  0
   29.2010  -19.5986  -14.1167 C   0  0  0  0  0  0  0  0  0  0  0  0
   27.0075  -20.0787  -13.1542 C   0  0  2  0  0  0  0  0  0  0  0  0
   26.1914  -20.9260  -12.3291 N   0  0  0  0  0  0  0  0  0  0  0  0
   26.4316  -19.9013  -14.5160 C   0  0  0  0  0  0  0  0  0  0  0  0
   26.1375  -20.9143  -15.1995 O   0  0  0  0  0  0  0  0  0  0  0  0
   26.1926  -18.6405  -15.0940 N   0  0  0  0  0  0  0  0  0  0  0  0
   25.5244  -18.4429  -16.3848 C   0  0  1  0  0  0  0  0  0  0  0  0
   24.5373  -17.3365  -16.3128 C   0  0  0  0  0  0  0  0  0  0  0  0
   23.7897  -16.9655  -17.5227 C   0  0  0  0  0  0  0  0  0  0  0  0
   22.9094  -15.8051  -17.4686 C   0  0  0  0  0  0  0  0  0  0  0  0
   22.7914  -15.0741  -16.4756 O   0  0  0  0  0  0  0  0  0  0  0  0
   26.4345  -18.4963  -17.5194 C   0  0  0  0  0  0  0  0  0  0  0  0
   26.1072  -19.1888  -18.6830 O   0  0  0  0  0  0  0  0  0  0  0  0
   22.1231  -15.4516  -18.5899 O   0  0  0  0  0  0  0  0  0  0  0  0
   27.5536  -17.9259  -17.4957 O   0  0  0  0  0  0  0  0  0  0  0  0
  2  1  1  0
  3  2  2  0
  4  2  1  0
  5  4  1  0
  6  5  1  0
  6  7  1  1
  8 15  1  0
  8  6  1  0
  9  8  2  0
 11 10  1  0
 11 12  1  0
 12 14  1  0
 12 13  1  6
 14 15  1  1
 16 18  1  0
 16 14  1  0
 17 16  2  0
 19 18  1  0
 19 24  1  0
 19 20  1  1
 21 20  1  0
 22 26  1  0
 22 21  1  0
 23 22  2  0
 24 25  1  0
 27 24  2  0
M  END
$$$$
