QIE.pdb
     RDKit          3D

 27 26  0  0  1  0  0  0  0  0999 V2000
   16.9217  -11.5606  -14.8792 N   0  0  0  0  0  0  0  0  0  0  0  0
   16.6861  -12.7734  -14.1373 C   0  0  0  0  0  0  0  0  0  0  0  0
   17.1018  -13.8629  -14.6144 O   0  0  0  0  0  0  0  0  0  0  0  0
   15.9637  -12.6808  -12.8434 C   0  0  0  0  0  0  0  0  0  0  0  0
   15.5760  -11.2876  -12.4691 C   0  0  0  0  0  0  0  0  0  0  0  0
   14.8938  -11.1624  -11.1455 C   0  0  2  0  0  0  0  0  0  0  0  0
   13.6404  -11.8894  -11.0917 N   0  0  0  0  0  0  0  0  0  0  0  0
   14.5513   -9.7084  -10.9519 C   0  0  0  0  0  0  0  0  0  0  0  0
   13.3686   -9.3145  -11.1275 O   0  0  0  0  0  0  0  0  0  0  0  0
   12.9485   -5.5294   -7.8938 C   0  0  0  0  0  0  0  0  0  0  0  0
   14.0355   -5.6842   -8.9348 C   0  0  0  0  0  0  0  0  0  0  0  0
   14.2842   -7.1756   -9.1600 C   0  0  2  0  0  0  0  0  0  0  0  0
   14.9885   -7.6736   -7.9172 C   0  0  0  0  0  0  0  0  0  0  0  0
   15.2286   -7.3625  -10.3284 C   0  0  2  0  0  0  0  0  0  0  0  0
   15.5263   -8.7469  -10.5725 N   0  0  0  0  0  0  0  0  0  0  0  0
   16.4611   -6.5547  -10.1132 C   0  0  0  0  0  0  0  0  0  0  0  0
   17.3861   -7.0169   -9.3985 O   0  0  0  0  0  0  0  0  0  0  0  0
   16.6546   -5.2787  -10.6743 N   0  0  0  0  0  0  0  0  0  0  0  0
   17.8174   -4.9076  -11.4877 C   0  0  1  0  0  0  0  0  0  0  0  0
   18.1681   -5.9873  -12.4443 C   0  0  0  0  0  0  0  0  0  0  0  0
   19.2999   -5.7902  -13.3612 C   0  0  0  0  0  0  0  0  0  0  0  0
   19.6400   -6.8628  -14.2877 C   0  0  0  0  0  0  0  0  0  0  0  0
   20.6631   -7.5551  -14.1964 O   0  0  0  0  0  0  0  0  0  0  0  0
   17.7706   -3.5345  -11.9682 C   0  0  0  0  0  0  0  0  0  0  0  0
   18.9333   -2.7945  -12.1715 O   0  0  0  0  0  0  0  0  0  0  0  0
   18.7838   -7.1699  -15.3709 O   0  0  0  0  0  0  0  0  0  0  0  0
   16.6820   -2.9580  -12.2146 O   0  0  0  0  0  0  0  0  0  0  0  0
  2  1  1  0
  3  2  2  0
  4  2  1  0
  5  4  1  0
  6  5  1  0
  6  7  1  6
  8 15  1  0
  8  6  1  0
  9  8  2  0
 11 10  1  0
 11 12  1  0
 12 14  1  0
 12 13  1  1
 14 15  1  1
 16 18  1  0
 16 14  1  0
 17 16  2  0
 19 18  1  0
 19 24  1  0
 19 20  1  6
 21 20  1  0
 22 26  1  0
 22 21  1  0
 23 22  2  0
 24 25  1  0
 27 24  2  0
M  END
$$$$
