IKN.pdb
     RDKit          3D

 26 25  0  0  1  0  0  0  0  0999 V2000
    6.4118  -11.7525   27.6351 C   0  0  0  0  0  0  0  0  0  0  0  0
    5.8295  -12.8942   26.8377 C   0  0  0  0  0  0  0  0  0  0  0  0
    6.9808  -13.6446   26.1809 C   0  0  2  0  0  0  0  0  0  0  0  0
    7.7151  -12.6923   25.2917 C   0  0  0  0  0  0  0  0  0  0  0  0
    6.3643  -14.7496   25.3560 C   0  0  2  0  0  0  0  0  0  0  0  0
    5.6312  -15.6047   26.2598 N   0  0  0  0  0  0  0  0  0  0  0  0
    7.3961  -15.4907   24.5903 C   0  0  0  0  0  0  0  0  0  0  0  0
    7.9067  -16.4942   25.1645 O   0  0  0  0  0  0  0  0  0  0  0  0
    7.8200  -15.1438   23.3009 N   0  0  0  0  0  0  0  0  0  0  0  0
    8.8869  -15.9060   22.6389 C   0  0  1  0  0  0  0  0  0  0  0  0
    8.6711  -15.6721   21.1734 C   0  0  0  0  0  0  0  0  0  0  0  0
    8.8016  -14.2800   20.6844 C   0  0  0  0  0  0  0  0  0  0  0  0
    8.5501  -14.3390   19.1655 C   0  0  0  0  0  0  0  0  0  0  0  0
    8.6456  -12.9586   18.5638 C   0  0  0  0  0  0  0  0  0  0  0  0
    8.4371  -13.1036   17.1357 N   0  0  0  0  0  0  0  0  0  0  0  0
   10.1635  -15.3788   23.1595 C   0  0  0  0  0  0  0  0  0  0  0  0
   10.1875  -14.4030   23.9720 O   0  0  0  0  0  0  0  0  0  0  0  0
   10.6758  -15.7818   27.1260 N   0  0  0  0  0  0  0  0  0  0  0  0
   11.6235  -15.8773   26.0627 C   0  0  0  0  0  0  0  0  0  0  0  0
   12.5959  -15.0902   26.0570 O   0  0  0  0  0  0  0  0  0  0  0  0
   11.4395  -16.8826   25.0133 C   0  0  0  0  0  0  0  0  0  0  0  0
   12.2566  -16.5643   23.7938 C   0  0  2  0  0  0  0  0  0  0  0  0
   11.4241  -15.9110   22.8037 N   0  0  0  0  0  0  0  0  0  0  0  0
   12.7876  -17.8581   23.2744 C   0  0  0  0  0  0  0  0  0  0  0  0
   12.1299  -18.5482   22.2867 O   0  0  0  0  0  0  0  0  0  0  0  0
   13.8557  -18.3015   23.7659 O   0  0  0  0  0  0  0  0  0  0  0  0
  1  2  1  0
  3  5  1  0
  3  2  1  0
  3  4  1  6
  5  6  1  1
  7  9  1  0
  7  5  1  0
  8  7  2  0
 10  9  1  0
 11 12  1  0
 10 11  1  6
 12 13  1  0
 13 14  1  0
 14 15  1  0
 16 23  1  0
 16 10  1  0
 17 16  2  0
 18 19  1  0
 19 20  2  0
 19 21  1  0
 22 21  1  1
 22 23  1  0
 22 24  1  0
 24 25  1  0
 26 24  2  0
M  END
$$$$
