IKN.pdb
     RDKit          3D

 26 25  0  0  1  0  0  0  0  0999 V2000
    6.7391  -11.9932   28.2369 C   0  0  0  0  0  0  0  0  0  0  0  0
    6.0546  -13.0730   27.4345 C   0  0  0  0  0  0  0  0  0  0  0  0
    7.0853  -13.6861   26.4954 C   0  0  2  0  0  0  0  0  0  0  0  0
    7.6588  -12.5935   25.6503 C   0  0  0  0  0  0  0  0  0  0  0  0
    6.3462  -14.6763   25.6266 C   0  0  2  0  0  0  0  0  0  0  0  0
    5.8909  -15.7459   26.4834 N   0  0  0  0  0  0  0  0  0  0  0  0
    7.2026  -15.1662   24.5190 C   0  0  0  0  0  0  0  0  0  0  0  0
    7.8385  -16.2372   24.7343 O   0  0  0  0  0  0  0  0  0  0  0  0
    7.3376  -14.5202   23.2834 N   0  0  0  0  0  0  0  0  0  0  0  0
    8.1626  -15.1114   22.2216 C   0  0  1  0  0  0  0  0  0  0  0  0
    7.7311  -14.4111   20.9676 C   0  0  0  0  0  0  0  0  0  0  0  0
    8.3397  -14.8656   19.6958 C   0  0  0  0  0  0  0  0  0  0  0  0
    7.8354  -13.8923   18.6131 C   0  0  0  0  0  0  0  0  0  0  0  0
    8.2423  -14.3753   17.2428 C   0  0  0  0  0  0  0  0  0  0  0  0
    7.5886  -13.5118   16.2778 N   0  0  0  0  0  0  0  0  0  0  0  0
    9.5687  -14.8723   22.6011 C   0  0  0  0  0  0  0  0  0  0  0  0
    9.8646  -14.1250   23.5844 O   0  0  0  0  0  0  0  0  0  0  0  0
   14.0598  -16.6623   24.0232 N   0  0  0  0  0  0  0  0  0  0  0  0
   12.8288  -17.3404   24.2736 C   0  0  0  0  0  0  0  0  0  0  0  0
   12.8301  -18.3060   25.0690 O   0  0  0  0  0  0  0  0  0  0  0  0
   11.6050  -16.8965   23.6022 C   0  0  0  0  0  0  0  0  0  0  0  0
   11.8812  -15.7891   22.6256 C   0  0  2  0  0  0  0  0  0  0  0  0
   10.6644  -15.4468   21.9168 N   0  0  0  0  0  0  0  0  0  0  0  0
   12.9248  -16.2884   21.6836 C   0  0  0  0  0  0  0  0  0  0  0  0
   14.2590  -16.0789   21.9291 O   0  0  0  0  0  0  0  0  0  0  0  0
   12.5500  -16.9075   20.6564 O   0  0  0  0  0  0  0  0  0  0  0  0
  1  2  1  0
  3  5  1  0
  3  2  1  0
  3  4  1  6
  5  6  1  1
  7  9  1  0
  7  5  1  0
  8  7  2  0
 10  9  1  0
 11 12  1  0
 10 11  1  6
 12 13  1  0
 13 14  1  0
 14 15  1  0
 16 23  1  0
 16 10  1  0
 17 16  2  0
 18 19  1  0
 19 20  2  0
 19 21  1  0
 22 21  1  1
 22 23  1  0
 22 24  1  0
 24 25  1  0
 26 24  2  0
M  END
$$$$
