IKN.pdb
     RDKit          3D

 26 25  0  0  1  0  0  0  0  0999 V2000
    6.0460  -12.0596   27.7839 C   0  0  0  0  0  0  0  0  0  0  0  0
    5.6500  -13.2441   26.9362 C   0  0  0  0  0  0  0  0  0  0  0  0
    6.8400  -13.6148   26.0607 C   0  0  2  0  0  0  0  0  0  0  0  0
    7.2669  -12.3949   25.3079 C   0  0  0  0  0  0  0  0  0  0  0  0
    6.3570  -14.6729   25.0970 C   0  0  2  0  0  0  0  0  0  0  0  0
    6.0773  -15.8621   25.8671 N   0  0  0  0  0  0  0  0  0  0  0  0
    7.3498  -14.9171   24.0224 C   0  0  0  0  0  0  0  0  0  0  0  0
    8.0277  -15.9797   24.1170 O   0  0  0  0  0  0  0  0  0  0  0  0
    7.5669  -14.0544   22.9403 N   0  0  0  0  0  0  0  0  0  0  0  0
    8.4356  -14.4610   21.8279 C   0  0  1  0  0  0  0  0  0  0  0  0
    8.3597  -13.3271   20.8493 C   0  0  0  0  0  0  0  0  0  0  0  0
    7.3902  -13.4577   19.7370 C   0  0  0  0  0  0  0  0  0  0  0  0
    8.1416  -14.1805   18.6026 C   0  0  0  0  0  0  0  0  0  0  0  0
    7.2227  -14.4108   17.4281 C   0  0  0  0  0  0  0  0  0  0  0  0
    8.0064  -15.0678   16.3995 N   0  0  0  0  0  0  0  0  0  0  0  0
    9.7769  -14.6822   22.4028 C   0  0  0  0  0  0  0  0  0  0  0  0
   10.2253  -13.9361   23.3275 O   0  0  0  0  0  0  0  0  0  0  0  0
   11.7627  -17.5715   25.9731 N   0  0  0  0  0  0  0  0  0  0  0  0
   11.2505  -18.1144   24.7563 C   0  0  0  0  0  0  0  0  0  0  0  0
   11.4581  -19.3227   24.5075 O   0  0  0  0  0  0  0  0  0  0  0  0
   10.5017  -17.2555   23.8358 C   0  0  0  0  0  0  0  0  0  0  0  0
   11.4194  -16.4711   22.9420 C   0  0  2  0  0  0  0  0  0  0  0  0
   10.6400  -15.7189   21.9793 N   0  0  0  0  0  0  0  0  0  0  0  0
   12.3076  -17.4549   22.2572 C   0  0  0  0  0  0  0  0  0  0  0  0
   11.7881  -18.4345   21.4479 O   0  0  0  0  0  0  0  0  0  0  0  0
   13.5472  -17.3636   22.4408 O   0  0  0  0  0  0  0  0  0  0  0  0
  1  2  1  0
  3  5  1  0
  3  2  1  0
  3  4  1  6
  5  6  1  1
  7  9  1  0
  7  5  1  0
  8  7  2  0
 10  9  1  0
 11 12  1  0
 10 11  1  6
 12 13  1  0
 13 14  1  0
 14 15  1  0
 16 23  1  0
 16 10  1  0
 17 16  2  0
 18 19  1  0
 19 20  2  0
 19 21  1  0
 22 21  1  1
 22 23  1  0
 22 24  1  0
 24 25  1  0
 26 24  2  0
M  END
$$$$
