IKN.pdb
     RDKit          3D

 26 25  0  0  1  0  0  0  0  0999 V2000
    6.8568  -11.8373   28.1279 C   0  0  0  0  0  0  0  0  0  0  0  0
    6.0817  -12.8666   27.3417 C   0  0  0  0  0  0  0  0  0  0  0  0
    7.0485  -13.5556   26.3875 C   0  0  2  0  0  0  0  0  0  0  0  0
    7.6412  -12.5171   25.4890 C   0  0  0  0  0  0  0  0  0  0  0  0
    6.2338  -14.5354   25.5764 C   0  0  2  0  0  0  0  0  0  0  0  0
    5.8004  -15.5816   26.4725 N   0  0  0  0  0  0  0  0  0  0  0  0
    7.0109  -15.0621   24.4280 C   0  0  0  0  0  0  0  0  0  0  0  0
    7.5129  -16.2131   24.5721 O   0  0  0  0  0  0  0  0  0  0  0  0
    7.2099  -14.3680   23.2276 N   0  0  0  0  0  0  0  0  0  0  0  0
    7.8741  -15.0216   22.0922 C   0  0  1  0  0  0  0  0  0  0  0  0
    7.7161  -14.0606   20.9518 C   0  0  0  0  0  0  0  0  0  0  0  0
    8.3006  -14.4551   19.6491 C   0  0  0  0  0  0  0  0  0  0  0  0
    7.9153  -13.3410   18.6570 C   0  0  0  0  0  0  0  0  0  0  0  0
    8.8670  -13.3290   17.4862 C   0  0  0  0  0  0  0  0  0  0  0  0
    8.9230  -14.6841   16.9719 N   0  0  0  0  0  0  0  0  0  0  0  0
    9.2721  -15.2565   22.5031 C   0  0  0  0  0  0  0  0  0  0  0  0
    9.9527  -14.3435   23.0653 O   0  0  0  0  0  0  0  0  0  0  0  0
   10.6261  -16.5396   25.3234 N   0  0  0  0  0  0  0  0  0  0  0  0
   11.0972  -17.7972   24.8392 C   0  0  0  0  0  0  0  0  0  0  0  0
   11.1428  -18.7634   25.6325 O   0  0  0  0  0  0  0  0  0  0  0  0
   11.5123  -17.9281   23.4405 C   0  0  0  0  0  0  0  0  0  0  0  0
   11.3307  -16.6411   22.6876 C   0  0  2  0  0  0  0  0  0  0  0  0
    9.9403  -16.4874   22.3092 N   0  0  0  0  0  0  0  0  0  0  0  0
   12.2067  -16.7135   21.4821 C   0  0  0  0  0  0  0  0  0  0  0  0
   13.0170  -15.6624   21.1313 O   0  0  0  0  0  0  0  0  0  0  0  0
   12.1837  -17.7645   20.7940 O   0  0  0  0  0  0  0  0  0  0  0  0
  1  2  1  0
  3  5  1  0
  3  2  1  0
  3  4  1  6
  5  6  1  1
  7  9  1  0
  7  5  1  0
  8  7  2  0
 10  9  1  0
 11 12  1  0
 10 11  1  6
 12 13  1  0
 13 14  1  0
 14 15  1  0
 16 23  1  0
 16 10  1  0
 17 16  2  0
 18 19  1  0
 19 20  2  0
 19 21  1  0
 22 21  1  6
 22 23  1  0
 22 24  1  0
 24 25  1  0
 26 24  2  0
M  END
$$$$
