IKN.pdb
     RDKit          3D

 26 25  0  0  1  0  0  0  0  0999 V2000
    6.3660  -11.2588   26.2638 C   0  0  0  0  0  0  0  0  0  0  0  0
    6.6025  -12.4086   27.2127 C   0  0  0  0  0  0  0  0  0  0  0  0
    7.4656  -13.4395   26.4969 C   0  0  2  0  0  0  0  0  0  0  0  0
    8.5705  -12.7185   25.7921 C   0  0  0  0  0  0  0  0  0  0  0  0
    6.5745  -14.1280   25.4902 C   0  0  2  0  0  0  0  0  0  0  0  0
    5.5657  -14.8495   26.2299 N   0  0  0  0  0  0  0  0  0  0  0  0
    7.3574  -15.0128   24.5933 C   0  0  0  0  0  0  0  0  0  0  0  0
    7.5208  -16.2036   24.9843 O   0  0  0  0  0  0  0  0  0  0  0  0
    7.9081  -14.6062   23.3711 N   0  0  0  0  0  0  0  0  0  0  0  0
    8.7039  -15.5424   22.5662 C   0  0  1  0  0  0  0  0  0  0  0  0
    9.0022  -14.7987   21.2985 C   0  0  0  0  0  0  0  0  0  0  0  0
    7.8480  -14.4067   20.4569 C   0  0  0  0  0  0  0  0  0  0  0  0
    8.4454  -13.8613   19.1456 C   0  0  0  0  0  0  0  0  0  0  0  0
    7.3448  -13.4721   18.1897 C   0  0  0  0  0  0  0  0  0  0  0  0
    7.9762  -12.8121   17.0628 N   0  0  0  0  0  0  0  0  0  0  0  0
    9.8946  -15.8795   23.3706 C   0  0  0  0  0  0  0  0  0  0  0  0
   10.6134  -14.9709   23.8908 O   0  0  0  0  0  0  0  0  0  0  0  0
    9.1247  -19.4669   25.6802 N   0  0  0  0  0  0  0  0  0  0  0  0
   10.3625  -18.8356   26.0078 C   0  0  0  0  0  0  0  0  0  0  0  0
   10.4873  -18.3174   27.1395 O   0  0  0  0  0  0  0  0  0  0  0  0
   11.4472  -18.8084   25.0237 C   0  0  0  0  0  0  0  0  0  0  0  0
   11.5396  -17.4741   24.3401 C   0  0  2  0  0  0  0  0  0  0  0  0
   10.3113  -17.2076   23.6188 N   0  0  0  0  0  0  0  0  0  0  0  0
   12.7020  -17.5414   23.4073 C   0  0  0  0  0  0  0  0  0  0  0  0
   13.9741  -17.7586   23.8755 O   0  0  0  0  0  0  0  0  0  0  0  0
   12.4862  -17.3937   22.1783 O   0  0  0  0  0  0  0  0  0  0  0  0
  1  2  1  0
  3  5  1  0
  3  2  1  0
  3  4  1  6
  5  6  1  1
  7  9  1  0
  7  5  1  0
  8  7  2  0
 10  9  1  0
 11 12  1  0
 10 11  1  6
 12 13  1  0
 13 14  1  0
 14 15  1  0
 16 23  1  0
 16 10  1  0
 17 16  2  0
 18 19  1  0
 19 20  2  0
 19 21  1  0
 22 21  1  6
 22 23  1  0
 22 24  1  0
 24 25  1  0
 26 24  2  0
M  END
$$$$
