IKN.pdb
     RDKit          3D

 26 25  0  0  1  0  0  0  0  0999 V2000
    6.9437  -11.9227   28.0855 C   0  0  0  0  0  0  0  0  0  0  0  0
    6.1514  -12.9246   27.2812 C   0  0  0  0  0  0  0  0  0  0  0  0
    7.1203  -13.6700   26.3725 C   0  0  2  0  0  0  0  0  0  0  0  0
    7.8384  -12.6661   25.5279 C   0  0  0  0  0  0  0  0  0  0  0  0
    6.2860  -14.5768   25.4989 C   0  0  2  0  0  0  0  0  0  0  0  0
    5.7145  -15.5917   26.3526 N   0  0  0  0  0  0  0  0  0  0  0  0
    7.0926  -15.1552   24.3967 C   0  0  0  0  0  0  0  0  0  0  0  0
    7.5602  -16.3130   24.5927 O   0  0  0  0  0  0  0  0  0  0  0  0
    7.3538  -14.5015   23.1856 N   0  0  0  0  0  0  0  0  0  0  0  0
    8.0525  -15.2007   22.0990 C   0  0  1  0  0  0  0  0  0  0  0  0
    7.9038  -14.3016   20.9080 C   0  0  0  0  0  0  0  0  0  0  0  0
    8.6060  -14.7019   19.6667 C   0  0  0  0  0  0  0  0  0  0  0  0
    8.0844  -13.7622   18.5627 C   0  0  0  0  0  0  0  0  0  0  0  0
    8.7515  -14.0777   17.2467 C   0  0  0  0  0  0  0  0  0  0  0  0
    8.1294  -13.2347   16.2435 N   0  0  0  0  0  0  0  0  0  0  0  0
    9.4449  -15.3910   22.5500 C   0  0  0  0  0  0  0  0  0  0  0  0
   10.0560  -14.4821   23.1929 O   0  0  0  0  0  0  0  0  0  0  0  0
   10.6822  -17.1893   25.2582 N   0  0  0  0  0  0  0  0  0  0  0  0
   11.3290  -18.2668   24.5810 C   0  0  0  0  0  0  0  0  0  0  0  0
   11.4407  -19.3630   25.1733 O   0  0  0  0  0  0  0  0  0  0  0  0
   11.8420  -18.0684   23.2234 C   0  0  0  0  0  0  0  0  0  0  0  0
   11.5665  -16.6779   22.7264 C   0  0  2  0  0  0  0  0  0  0  0  0
   10.1828  -16.5726   22.3089 N   0  0  0  0  0  0  0  0  0  0  0  0
   12.4897  -16.4333   21.5802 C   0  0  0  0  0  0  0  0  0  0  0  0
   13.6399  -15.7015   21.7409 O   0  0  0  0  0  0  0  0  0  0  0  0
   12.1864  -16.9159   20.4604 O   0  0  0  0  0  0  0  0  0  0  0  0
  1  2  1  0
  3  5  1  0
  3  2  1  0
  3  4  1  6
  5  6  1  1
  7  9  1  0
  7  5  1  0
  8  7  2  0
 10  9  1  0
 11 12  1  0
 10 11  1  6
 12 13  1  0
 13 14  1  0
 14 15  1  0
 16 23  1  0
 16 10  1  0
 17 16  2  0
 18 19  1  0
 19 20  2  0
 19 21  1  0
 22 21  1  6
 22 23  1  0
 22 24  1  0
 24 25  1  0
 26 24  2  0
M  END
$$$$
