PME.pdb
     RDKit          3D

 25 25  0  0  1  0  0  0  0  0999 V2000
   27.6316  -19.1827  -13.9600 N   0  0  0  0  0  0  0  0  0  0  0  0
   28.8288  -18.9142  -14.7401 C   0  0  0  0  0  0  0  0  0  0  0  0
   29.5084  -20.2058  -14.9584 C   0  0  0  0  0  0  0  0  0  0  0  0
   28.9162  -21.1411  -13.9288 C   0  0  0  0  0  0  0  0  0  0  0  0
   27.4897  -20.5963  -13.8936 C   0  0  1  0  0  0  0  0  0  0  0  0
   26.7034  -21.1152  -12.7644 C   0  0  0  0  0  0  0  0  0  0  0  0
   26.2302  -22.2918  -12.9456 O   0  0  0  0  0  0  0  0  0  0  0  0
   27.7444  -18.7239   -7.1808 C   0  0  0  0  0  0  0  0  0  0  0  0
   27.3209  -20.4468   -6.7990 S   0  0  0  0  0  0  0  0  0  0  0  0
   26.8087  -21.2604   -8.3639 C   0  0  0  0  0  0  0  0  0  0  0  0
   26.0433  -20.2606   -9.1486 C   0  0  0  0  0  0  0  0  0  0  0  0
   25.6008  -20.7615  -10.5280 C   0  0  2  0  0  0  0  0  0  0  0  0
   26.4879  -20.3896  -11.5930 N   0  0  0  0  0  0  0  0  0  0  0  0
   24.2322  -20.2331  -10.7500 C   0  0  0  0  0  0  0  0  0  0  0  0
   24.0391  -18.9672  -10.7350 O   0  0  0  0  0  0  0  0  0  0  0  0
   23.1152  -21.0757  -10.9807 N   0  0  0  0  0  0  0  0  0  0  0  0
   22.0532  -20.6532  -11.8606 C   0  0  1  0  0  0  0  0  0  0  0  0
   22.1758  -21.2726  -13.2301 C   0  0  0  0  0  0  0  0  0  0  0  0
   21.0703  -20.8881  -14.1611 C   0  0  0  0  0  0  0  0  0  0  0  0
   21.2368  -21.4960  -15.5067 C   0  0  0  0  0  0  0  0  0  0  0  0
   20.4222  -22.4042  -15.8435 O   0  0  0  0  0  0  0  0  0  0  0  0
   20.7552  -20.9123  -11.2228 C   0  0  0  0  0  0  0  0  0  0  0  0
   19.5990  -20.3218  -11.6816 O   0  0  0  0  0  0  0  0  0  0  0  0
   22.2344  -21.1072  -16.3845 O   0  0  0  0  0  0  0  0  0  0  0  0
   20.6803  -21.6793  -10.2456 O   0  0  0  0  0  0  0  0  0  0  0  0
  1  5  1  0
  2  1  1  0
  3  2  1  0
  4  3  1  0
  4  5  1  0
  5  6  1  1
  6 13  1  0
  6  7  2  0
  9  8  1  0
 10  9  1  0
 11 10  1  0
 12 14  1  0
 12 11  1  1
 13 12  1  0
 14 15  2  0
 16 17  1  0
 16 14  1  0
 18 19  1  0
 17 18  1  6
 19 20  1  0
 20 21  2  0
 20 24  1  0
 22 17  1  0
 23 22  1  0
 25 22  2  0
M  END
$$$$
