PME.pdb
     RDKit          3D

 25 25  0  0  1  0  0  0  0  0999 V2000
   22.1637  -15.3219  -19.0039 N   0  0  0  0  0  0  0  0  0  0  0  0
   21.5900  -16.6170  -19.3320 C   0  0  0  0  0  0  0  0  0  0  0  0
   20.4287  -16.8195  -18.4441 C   0  0  0  0  0  0  0  0  0  0  0  0
   20.6136  -15.8244  -17.3212 C   0  0  0  0  0  0  0  0  0  0  0  0
   21.2624  -14.6859  -18.1060 C   0  0  1  0  0  0  0  0  0  0  0  0
   21.8378  -13.6455  -17.2406 C   0  0  0  0  0  0  0  0  0  0  0  0
   21.0032  -13.1119  -16.4282 O   0  0  0  0  0  0  0  0  0  0  0  0
   28.3337  -12.1766  -15.5124 C   0  0  0  0  0  0  0  0  0  0  0  0
   27.5318  -13.8038  -15.5645 S   0  0  0  0  0  0  0  0  0  0  0  0
   25.7235  -13.5464  -15.3721 C   0  0  0  0  0  0  0  0  0  0  0  0
   25.3282  -12.4788  -16.3235 C   0  0  0  0  0  0  0  0  0  0  0  0
   23.8122  -12.2944  -16.4540 C   0  0  2  0  0  0  0  0  0  0  0  0
   23.1791  -13.2677  -17.2975 N   0  0  0  0  0  0  0  0  0  0  0  0
   23.5964  -10.9153  -16.9573 C   0  0  0  0  0  0  0  0  0  0  0  0
   23.6387  -10.6946  -18.2180 O   0  0  0  0  0  0  0  0  0  0  0  0
   23.3423   -9.8179  -16.0959 N   0  0  0  0  0  0  0  0  0  0  0  0
   23.0786   -8.5091  -16.6417 C   0  0  1  0  0  0  0  0  0  0  0  0
   22.4205   -7.6003  -15.6342 C   0  0  0  0  0  0  0  0  0  0  0  0
   22.1777   -6.2163  -16.1465 C   0  0  0  0  0  0  0  0  0  0  0  0
   21.4648   -5.3707  -15.1543 C   0  0  0  0  0  0  0  0  0  0  0  0
   21.1768   -5.8943  -14.0386 O   0  0  0  0  0  0  0  0  0  0  0  0
   24.3178   -7.9516  -17.2006 C   0  0  0  0  0  0  0  0  0  0  0  0
   24.3138   -7.2187  -18.3663 O   0  0  0  0  0  0  0  0  0  0  0  0
   21.1137   -4.0556  -15.4077 O   0  0  0  0  0  0  0  0  0  0  0  0
   25.4038   -8.1360  -16.6214 O   0  0  0  0  0  0  0  0  0  0  0  0
  1  5  1  0
  2  1  1  0
  3  2  1  0
  4  3  1  0
  4  5  1  0
  5  6  1  1
  6 13  1  0
  6  7  2  0
  9  8  1  0
 10  9  1  0
 11 10  1  0
 12 14  1  0
 12 11  1  6
 13 12  1  0
 14 15  2  0
 16 17  1  0
 16 14  1  0
 18 19  1  0
 17 18  1  1
 19 20  1  0
 20 21  2  0
 20 24  1  0
 22 17  1  0
 23 22  1  0
 25 22  2  0
M  END
$$$$
