PME.pdb
     RDKit          3D

 25 25  0  0  1  0  0  0  0  0999 V2000
   21.6627  -12.4161  -18.6121 N   0  0  0  0  0  0  0  0  0  0  0  0
   21.2991  -13.7119  -19.1624 C   0  0  0  0  0  0  0  0  0  0  0  0
   20.5847  -14.4523  -18.1045 C   0  0  0  0  0  0  0  0  0  0  0  0
   20.9291  -13.7337  -16.8198 C   0  0  0  0  0  0  0  0  0  0  0  0
   21.0122  -12.3045  -17.3523 C   0  0  1  0  0  0  0  0  0  0  0  0
   21.6159  -11.3675  -16.3932 C   0  0  0  0  0  0  0  0  0  0  0  0
   20.9674  -11.2430  -15.2954 O   0  0  0  0  0  0  0  0  0  0  0  0
   28.1165  -12.6709  -15.5561 C   0  0  0  0  0  0  0  0  0  0  0  0
   27.3871  -11.0382  -15.8655 S   0  0  0  0  0  0  0  0  0  0  0  0
   25.5778  -11.1662  -15.5768 C   0  0  0  0  0  0  0  0  0  0  0  0
   24.9941   -9.8297  -15.8487 C   0  0  0  0  0  0  0  0  0  0  0  0
   23.4656   -9.7870  -15.7424 C   0  0  2  0  0  0  0  0  0  0  0  0
   22.7952  -10.6699  -16.6538 N   0  0  0  0  0  0  0  0  0  0  0  0
   23.0664   -8.3746  -15.9599 C   0  0  0  0  0  0  0  0  0  0  0  0
   22.8407   -7.9636  -17.1516 O   0  0  0  0  0  0  0  0  0  0  0  0
   22.9217   -7.4483  -14.8959 N   0  0  0  0  0  0  0  0  0  0  0  0
   22.2808   -6.1757  -15.1199 C   0  0  1  0  0  0  0  0  0  0  0  0
   20.9270   -6.3321  -15.7655 C   0  0  0  0  0  0  0  0  0  0  0  0
   20.2424   -5.0313  -16.0410 C   0  0  0  0  0  0  0  0  0  0  0  0
   18.9101   -5.2238  -16.6702 C   0  0  0  0  0  0  0  0  0  0  0  0
   17.9383   -5.5033  -15.9089 O   0  0  0  0  0  0  0  0  0  0  0  0
   22.2372   -5.4199  -13.8606 C   0  0  0  0  0  0  0  0  0  0  0  0
   22.3899   -6.0441  -12.6428 O   0  0  0  0  0  0  0  0  0  0  0  0
   18.7039   -5.1091  -18.0344 O   0  0  0  0  0  0  0  0  0  0  0  0
   22.0591   -4.1883  -13.8760 O   0  0  0  0  0  0  0  0  0  0  0  0
  1  5  1  0
  2  1  1  0
  3  2  1  0
  4  3  1  0
  4  5  1  0
  5  6  1  1
  6 13  1  0
  6  7  2  0
  9  8  1  0
 10  9  1  0
 11 10  1  0
 12 14  1  0
 12 11  1  6
 13 12  1  0
 14 15  2  0
 16 17  1  0
 16 14  1  0
 18 19  1  0
 17 18  1  1
 19 20  1  0
 20 21  2  0
 20 24  1  0
 22 17  1  0
 23 22  1  0
 25 22  2  0
M  END
$$$$
