PME.pdb
     RDKit          3D

 25 25  0  0  1  0  0  0  0  0999 V2000
   15.6576  -12.3449  -14.4026 N   0  0  0  0  0  0  0  0  0  0  0  0
   15.4446  -13.3858  -15.3950 C   0  0  0  0  0  0  0  0  0  0  0  0
   14.6002  -12.8100  -16.4596 C   0  0  0  0  0  0  0  0  0  0  0  0
   13.9820  -11.5742  -15.8465 C   0  0  0  0  0  0  0  0  0  0  0  0
   15.1399  -11.1389  -14.9505 C   0  0  1  0  0  0  0  0  0  0  0  0
   14.7589  -10.0996  -13.9824 C   0  0  0  0  0  0  0  0  0  0  0  0
   14.4097   -8.9863  -14.5113 O   0  0  0  0  0  0  0  0  0  0  0  0
   10.8230  -10.8418   -9.2556 C   0  0  0  0  0  0  0  0  0  0  0  0
   11.9603   -9.7850   -8.3159 S   0  0  0  0  0  0  0  0  0  0  0  0
   13.0397   -8.9115   -9.5180 C   0  0  0  0  0  0  0  0  0  0  0  0
   13.5401   -9.9267  -10.4773 C   0  0  0  0  0  0  0  0  0  0  0  0
   14.3951   -9.3435  -11.6079 C   0  0  2  0  0  0  0  0  0  0  0  0
   14.7762  -10.3047  -12.6030 N   0  0  0  0  0  0  0  0  0  0  0  0
   15.5813   -8.7263  -10.9648 C   0  0  0  0  0  0  0  0  0  0  0  0
   16.4500   -9.4785  -10.3995 O   0  0  0  0  0  0  0  0  0  0  0  0
   15.7996   -7.3252  -10.9475 N   0  0  0  0  0  0  0  0  0  0  0  0
   16.9743   -6.7786  -10.3138 C   0  0  1  0  0  0  0  0  0  0  0  0
   17.8470   -6.0328  -11.2917 C   0  0  0  0  0  0  0  0  0  0  0  0
   18.4641   -6.9115  -12.3328 C   0  0  0  0  0  0  0  0  0  0  0  0
   19.5301   -6.2107  -13.0946 C   0  0  0  0  0  0  0  0  0  0  0  0
   19.8165   -5.0278  -12.7471 O   0  0  0  0  0  0  0  0  0  0  0  0
   16.5744   -5.9644   -9.1579 C   0  0  0  0  0  0  0  0  0  0  0  0
   17.4593   -5.6736   -8.1438 O   0  0  0  0  0  0  0  0  0  0  0  0
   20.2051   -6.7997  -14.1502 O   0  0  0  0  0  0  0  0  0  0  0  0
   15.4149   -5.5197   -9.0770 O   0  0  0  0  0  0  0  0  0  0  0  0
  1  5  1  0
  2  1  1  0
  3  2  1  0
  4  3  1  0
  4  5  1  0
  5  6  1  1
  6 13  1  0
  6  7  2  0
  9  8  1  0
 10  9  1  0
 11 10  1  0
 12 14  1  0
 12 11  1  1
 13 12  1  0
 14 15  2  0
 16 17  1  0
 16 14  1  0
 18 19  1  0
 17 18  1  6
 19 20  1  0
 20 21  2  0
 20 24  1  0
 22 17  1  0
 23 22  1  0
 25 22  2  0
M  END
$$$$
