PME.pdb
     RDKit          3D

 25 25  0  0  1  0  0  0  0  0999 V2000
   24.8570  -32.7345   -8.1286 N   0  0  0  0  0  0  0  0  0  0  0  0
   25.3919  -32.5705   -9.4706 C   0  0  0  0  0  0  0  0  0  0  0  0
   26.6817  -33.2861   -9.5187 C   0  0  0  0  0  0  0  0  0  0  0  0
   27.0745  -33.4870   -8.0728 C   0  0  0  0  0  0  0  0  0  0  0  0
   25.6864  -33.6808   -7.4656 C   0  0  1  0  0  0  0  0  0  0  0  0
   25.6880  -33.6223   -5.9962 C   0  0  0  0  0  0  0  0  0  0  0  0
   26.2390  -34.6292   -5.4273 O   0  0  0  0  0  0  0  0  0  0  0  0
   24.6531  -28.1274   -3.1173 C   0  0  0  0  0  0  0  0  0  0  0  0
   24.4491  -29.0549   -1.5708 S   0  0  0  0  0  0  0  0  0  0  0  0
   24.8580  -30.8128   -1.9108 C   0  0  0  0  0  0  0  0  0  0  0  0
   24.6983  -31.0265   -3.3703 C   0  0  0  0  0  0  0  0  0  0  0  0
   25.1887  -32.3957   -3.8541 C   0  0  2  0  0  0  0  0  0  0  0  0
   25.1357  -32.5616   -5.2786 N   0  0  0  0  0  0  0  0  0  0  0  0
   24.3614  -33.4111   -3.1567 C   0  0  0  0  0  0  0  0  0  0  0  0
   23.1336  -33.5558   -3.4908 O   0  0  0  0  0  0  0  0  0  0  0  0
   24.8743  -34.2382   -2.1254 N   0  0  0  0  0  0  0  0  0  0  0  0
   24.0150  -35.1813   -1.4525 C   0  0  1  0  0  0  0  0  0  0  0  0
   24.7981  -36.2979   -0.8092 C   0  0  0  0  0  0  0  0  0  0  0  0
   23.9371  -37.3402   -0.1693 C   0  0  0  0  0  0  0  0  0  0  0  0
   24.7415  -38.4192    0.4604 C   0  0  0  0  0  0  0  0  0  0  0  0
   24.1162  -39.3371    1.0674 O   0  0  0  0  0  0  0  0  0  0  0  0
   23.1455  -34.4661   -0.5085 C   0  0  0  0  0  0  0  0  0  0  0  0
   23.6124  -33.4059    0.2359 O   0  0  0  0  0  0  0  0  0  0  0  0
   26.1245  -38.4504    0.4044 O   0  0  0  0  0  0  0  0  0  0  0  0
   21.9587  -34.8122   -0.3655 O   0  0  0  0  0  0  0  0  0  0  0  0
  1  5  1  0
  2  1  1  0
  3  2  1  0
  4  3  1  0
  4  5  1  0
  5  6  1  1
  6 13  1  0
  6  7  2  0
  9  8  1  0
 10  9  1  0
 11 10  1  0
 12 14  1  0
 12 11  1  6
 13 12  1  0
 14 15  2  0
 16 17  1  0
 16 14  1  0
 18 19  1  0
 17 18  1  1
 19 20  1  0
 20 21  2  0
 20 24  1  0
 22 17  1  0
 23 22  1  0
 25 22  2  0
M  END
$$$$
