PME.pdb
     RDKit          3D

 25 25  0  0  1  0  0  0  0  0999 V2000
   22.0553  -15.7071  -16.8521 N   0  0  0  0  0  0  0  0  0  0  0  0
   21.5408  -17.0517  -16.6490 C   0  0  0  0  0  0  0  0  0  0  0  0
   21.0560  -17.1299  -15.2573 C   0  0  0  0  0  0  0  0  0  0  0  0
   21.6969  -15.9571  -14.5508 C   0  0  0  0  0  0  0  0  0  0  0  0
   21.7028  -14.9511  -15.7002 C   0  0  1  0  0  0  0  0  0  0  0  0
   22.5311  -13.7677  -15.4246 C   0  0  0  0  0  0  0  0  0  0  0  0
   22.1397  -13.0693  -14.4244 O   0  0  0  0  0  0  0  0  0  0  0  0
   29.4116  -10.1263  -17.0390 C   0  0  0  0  0  0  0  0  0  0  0  0
   28.2766  -11.4970  -17.3942 S   0  0  0  0  0  0  0  0  0  0  0  0
   26.7460  -11.2284  -16.4153 C   0  0  0  0  0  0  0  0  0  0  0  0
   25.8746  -12.4100  -16.6296 C   0  0  0  0  0  0  0  0  0  0  0  0
   24.4933  -12.2887  -15.9765 C   0  0  2  0  0  0  0  0  0  0  0  0
   23.6491  -13.4300  -16.1868 N   0  0  0  0  0  0  0  0  0  0  0  0
   23.8787  -11.0503  -16.5154 C   0  0  0  0  0  0  0  0  0  0  0  0
   23.4243  -11.0461  -17.7127 O   0  0  0  0  0  0  0  0  0  0  0  0
   23.7701   -9.8575  -15.7563 N   0  0  0  0  0  0  0  0  0  0  0  0
   23.0305   -8.7312  -16.2708 C   0  0  1  0  0  0  0  0  0  0  0  0
   21.7342   -8.5218  -15.5292 C   0  0  0  0  0  0  0  0  0  0  0  0
   20.9775   -7.3124  -15.9781 C   0  0  0  0  0  0  0  0  0  0  0  0
   19.6872   -7.1615  -15.2568 C   0  0  0  0  0  0  0  0  0  0  0  0
   18.9730   -6.1554  -15.5390 O   0  0  0  0  0  0  0  0  0  0  0  0
   23.8915   -7.5406  -16.2780 C   0  0  0  0  0  0  0  0  0  0  0  0
   25.1752   -7.5798  -15.7816 O   0  0  0  0  0  0  0  0  0  0  0  0
   19.2518   -8.0688  -14.3058 O   0  0  0  0  0  0  0  0  0  0  0  0
   23.4679   -6.4650  -16.7389 O   0  0  0  0  0  0  0  0  0  0  0  0
  1  5  1  0
  2  1  1  0
  3  2  1  0
  4  3  1  0
  4  5  1  0
  5  6  1  1
  6 13  1  0
  6  7  2  0
  9  8  1  0
 10  9  1  0
 11 10  1  0
 12 14  1  0
 12 11  1  6
 13 12  1  0
 14 15  2  0
 16 17  1  0
 16 14  1  0
 18 19  1  0
 17 18  1  1
 19 20  1  0
 20 21  2  0
 20 24  1  0
 22 17  1  0
 23 22  1  0
 25 22  2  0
M  END
$$$$
