PME.pdb
     RDKit          3D

 25 25  0  0  1  0  0  0  0  0999 V2000
   17.1379  -12.4018  -13.1485 N   0  0  0  0  0  0  0  0  0  0  0  0
   17.0745  -13.6248  -13.9322 C   0  0  0  0  0  0  0  0  0  0  0  0
   16.2546  -13.3386  -15.1254 C   0  0  0  0  0  0  0  0  0  0  0  0
   15.4993  -12.0728  -14.7896 C   0  0  0  0  0  0  0  0  0  0  0  0
   16.5585  -11.3725  -13.9406 C   0  0  1  0  0  0  0  0  0  0  0  0
   16.0327  -10.2108  -13.2081 C   0  0  0  0  0  0  0  0  0  0  0  0
   15.6598   -9.2390  -13.9549 O   0  0  0  0  0  0  0  0  0  0  0  0
   11.8629   -7.7918   -7.0699 C   0  0  0  0  0  0  0  0  0  0  0  0
   12.5791   -9.1447   -8.0446 S   0  0  0  0  0  0  0  0  0  0  0  0
   13.7754   -8.4122   -9.2301 C   0  0  0  0  0  0  0  0  0  0  0  0
   14.3945   -9.5336   -9.9786 C   0  0  0  0  0  0  0  0  0  0  0  0
   15.4013   -9.0870  -11.0446 C   0  0  2  0  0  0  0  0  0  0  0  0
   15.9469  -10.1666  -11.8168 N   0  0  0  0  0  0  0  0  0  0  0  0
   16.4643   -8.3352  -10.3329 C   0  0  0  0  0  0  0  0  0  0  0  0
   17.3853   -8.9807   -9.7205 O   0  0  0  0  0  0  0  0  0  0  0  0
   16.5074   -6.9182  -10.2997 N   0  0  0  0  0  0  0  0  0  0  0  0
   17.7594   -6.2319  -10.0951 C   0  0  1  0  0  0  0  0  0  0  0  0
   18.7876   -6.6145  -11.1296 C   0  0  0  0  0  0  0  0  0  0  0  0
   20.0590   -5.8335  -11.0259 C   0  0  0  0  0  0  0  0  0  0  0  0
   21.0705   -6.2790  -12.0191 C   0  0  0  0  0  0  0  0  0  0  0  0
   21.1834   -5.6027  -13.0830 O   0  0  0  0  0  0  0  0  0  0  0  0
   17.5197   -4.7840  -10.0257 C   0  0  0  0  0  0  0  0  0  0  0  0
   18.3755   -3.9461   -9.3464 O   0  0  0  0  0  0  0  0  0  0  0  0
   21.8758   -7.3875  -11.8202 O   0  0  0  0  0  0  0  0  0  0  0  0
   16.5266   -4.2866  -10.5872 O   0  0  0  0  0  0  0  0  0  0  0  0
  1  5  1  0
  2  1  1  0
  3  2  1  0
  4  3  1  0
  4  5  1  0
  5  6  1  1
  6 13  1  0
  6  7  2  0
  9  8  1  0
 10  9  1  0
 11 10  1  0
 12 14  1  0
 12 11  1  1
 13 12  1  0
 14 15  2  0
 16 17  1  0
 16 14  1  0
 18 19  1  0
 17 18  1  6
 19 20  1  0
 20 21  2  0
 20 24  1  0
 22 17  1  0
 23 22  1  0
 25 22  2  0
M  END
$$$$
