PME.pdb
     RDKit          3D

 25 25  0  0  1  0  0  0  0  0999 V2000
   27.2758  -19.6505  -15.9991 N   0  0  0  0  0  0  0  0  0  0  0  0
   28.5062  -19.3294  -16.7041 C   0  0  0  0  0  0  0  0  0  0  0  0
   29.3711  -20.5235  -16.6421 C   0  0  0  0  0  0  0  0  0  0  0  0
   28.7972  -21.3678  -15.5271 C   0  0  0  0  0  0  0  0  0  0  0  0
   27.3160  -21.0424  -15.7099 C   0  0  1  0  0  0  0  0  0  0  0  0
   26.4847  -21.4936  -14.5839 C   0  0  0  0  0  0  0  0  0  0  0  0
   25.7821  -22.5362  -14.8295 O   0  0  0  0  0  0  0  0  0  0  0  0
   25.0725  -20.8691   -6.8009 C   0  0  0  0  0  0  0  0  0  0  0  0
   26.0352  -20.3136   -8.2355 S   0  0  0  0  0  0  0  0  0  0  0  0
   25.2667  -21.0316   -9.7412 C   0  0  0  0  0  0  0  0  0  0  0  0
   26.1162  -20.6455  -10.8946 C   0  0  0  0  0  0  0  0  0  0  0  0
   25.6166  -21.1827  -12.2404 C   0  0  2  0  0  0  0  0  0  0  0  0
   26.4598  -20.8427  -13.3507 N   0  0  0  0  0  0  0  0  0  0  0  0
   24.2409  -20.6569  -12.4206 C   0  0  0  0  0  0  0  0  0  0  0  0
   24.0762  -19.4237  -12.7242 O   0  0  0  0  0  0  0  0  0  0  0  0
   23.0867  -21.4669  -12.2702 N   0  0  0  0  0  0  0  0  0  0  0  0
   21.7936  -20.9758  -12.6788 C   0  0  1  0  0  0  0  0  0  0  0  0
   21.1509  -21.8699  -13.7092 C   0  0  0  0  0  0  0  0  0  0  0  0
   19.7794  -21.4289  -14.1111 C   0  0  0  0  0  0  0  0  0  0  0  0
   19.1568  -22.3609  -15.0867 C   0  0  0  0  0  0  0  0  0  0  0  0
   19.5372  -22.2870  -16.2915 O   0  0  0  0  0  0  0  0  0  0  0  0
   20.9526  -20.7623  -11.4931 C   0  0  0  0  0  0  0  0  0  0  0  0
   19.7859  -20.0344  -11.5618 O   0  0  0  0  0  0  0  0  0  0  0  0
   18.1938  -23.2878  -14.7253 O   0  0  0  0  0  0  0  0  0  0  0  0
   21.2865  -21.2424  -10.3945 O   0  0  0  0  0  0  0  0  0  0  0  0
  1  5  1  0
  2  1  1  0
  3  2  1  0
  4  3  1  0
  4  5  1  0
  5  6  1  1
  6 13  1  0
  6  7  2  0
  9  8  1  0
 10  9  1  0
 11 10  1  0
 12 14  1  0
 12 11  1  1
 13 12  1  0
 14 15  2  0
 16 17  1  0
 16 14  1  0
 18 19  1  0
 17 18  1  6
 19 20  1  0
 20 21  2  0
 20 24  1  0
 22 17  1  0
 23 22  1  0
 25 22  2  0
M  END
$$$$
