HAG.pdb
     RDKit          3D

 20 20  0  0  1  0  0  0  0  0999 V2000
   24.3302  -33.7319   -8.3679 N   0  0  0  0  0  0  0  0  0  0  0  0
   25.7468  -33.7992   -8.1564 C   0  0  1  0  0  0  0  0  0  0  0  0
   26.4088  -32.4767   -8.4570 C   0  0  0  0  0  0  0  0  0  0  0  0
   26.2665  -32.2209   -9.9129 C   0  0  0  0  0  0  0  0  0  0  0  0
   25.6215  -33.0897  -10.7689 C   0  0  0  0  0  0  0  0  0  0  0  0
   25.6648  -32.5707  -11.9973 N   0  0  0  0  0  0  0  0  0  0  0  0
   26.3205  -31.4092  -11.9035 C   0  0  0  0  0  0  0  0  0  0  0  0
   26.6987  -31.1741  -10.6357 N   0  0  0  0  0  0  0  0  0  0  0  0
   26.1019  -34.3288   -6.8209 C   0  0  0  0  0  0  0  0  0  0  0  0
   25.3211  -34.0946   -5.8631 O   0  0  0  0  0  0  0  0  0  0  0  0
   28.6974  -36.6623   -5.5015 C   0  0  0  0  0  0  0  0  0  0  0  0
   27.6085  -35.6327   -5.2685 C   0  0  2  0  0  0  0  0  0  0  0  0
   27.2621  -35.0806   -6.5535 N   0  0  0  0  0  0  0  0  0  0  0  0
   28.1255  -34.6155   -4.3302 C   0  0  0  0  0  0  0  0  0  0  0  0
   28.5886  -33.5464   -4.7664 O   0  0  0  0  0  0  0  0  0  0  0  0
   28.0673  -34.9152   -2.9409 N   0  0  0  0  0  0  0  0  0  0  0  0
   28.5317  -33.9249   -1.9935 C   0  0  0  0  0  0  0  0  0  0  0  0
   28.3420  -34.4112   -0.6114 C   0  0  0  0  0  0  0  0  0  0  0  0
   28.7804  -33.6816    0.4749 O   0  0  0  0  0  0  0  0  0  0  0  0
   27.7711  -35.5085   -0.4274 O   0  0  0  0  0  0  0  0  0  0  0  0
  2  3  1  0
  2  1  1  1
  4  8  1  0
  4  3  1  0
  5  4  2  0
  6  5  1  0
  6  7  1  0
  7  8  2  0
  9  2  1  0
 10  9  2  0
 12 11  1  6
 12 13  1  0
 13  9  1  0
 14 12  1  0
 14 15  2  0
 16 14  1  0
 17 16  1  0
 17 18  1  0
 18 19  1  0
 20 18  2  0
M  END
$$$$
