HAG.pdb
     RDKit          3D

 20 20  0  0  1  0  0  0  0  0999 V2000
   20.0308  -10.3171  -19.1931 N   0  0  0  0  0  0  0  0  0  0  0  0
   20.8159   -9.8333  -18.0951 C   0  0  1  0  0  0  0  0  0  0  0  0
   22.0364   -9.0900  -18.5804 C   0  0  0  0  0  0  0  0  0  0  0  0
   22.8250  -10.0204  -19.4276 C   0  0  0  0  0  0  0  0  0  0  0  0
   23.4031  -11.1741  -18.9393 C   0  0  0  0  0  0  0  0  0  0  0  0
   24.0322  -11.7816  -19.9470 N   0  0  0  0  0  0  0  0  0  0  0  0
   23.8478  -11.0224  -21.0319 C   0  0  0  0  0  0  0  0  0  0  0  0
   23.1110   -9.9379  -20.7377 N   0  0  0  0  0  0  0  0  0  0  0  0
   20.0194   -9.0553  -17.1204 C   0  0  0  0  0  0  0  0  0  0  0  0
   19.2277   -8.1837  -17.5625 O   0  0  0  0  0  0  0  0  0  0  0  0
   18.7860   -9.5901  -13.7670 C   0  0  0  0  0  0  0  0  0  0  0  0
   19.2580   -8.5507  -14.7655 C   0  0  2  0  0  0  0  0  0  0  0  0
   20.0917   -9.2293  -15.7249 N   0  0  0  0  0  0  0  0  0  0  0  0
   19.9797   -7.4937  -14.0279 C   0  0  0  0  0  0  0  0  0  0  0  0
   19.4055   -6.8677  -13.1190 O   0  0  0  0  0  0  0  0  0  0  0  0
   21.3280   -7.2370  -14.4017 N   0  0  0  0  0  0  0  0  0  0  0  0
   22.0831   -6.2524  -13.6573 C   0  0  0  0  0  0  0  0  0  0  0  0
   21.8354   -4.9008  -14.2000 C   0  0  0  0  0  0  0  0  0  0  0  0
   22.4802   -3.7917  -13.6916 O   0  0  0  0  0  0  0  0  0  0  0  0
   21.0228   -4.7645  -15.1407 O   0  0  0  0  0  0  0  0  0  0  0  0
  2  3  1  0
  2  1  1  6
  4  8  1  0
  4  3  1  0
  5  4  2  0
  6  5  1  0
  6  7  1  0
  7  8  2  0
  9  2  1  0
 10  9  2  0
 12 11  1  1
 12 13  1  0
 13  9  1  0
 14 12  1  0
 14 15  2  0
 16 14  1  0
 17 16  1  0
 17 18  1  0
 18 19  1  0
 20 18  2  0
M  END
$$$$
