HAG.pdb
     RDKit          3D

 20 20  0  0  1  0  0  0  0  0999 V2000
   14.6566  -19.4175    4.5788 N   0  0  0  0  0  0  0  0  0  0  0  0
   16.0886  -19.4580    4.6406 C   0  0  1  0  0  0  0  0  0  0  0  0
   16.7057  -19.0059    3.3397 C   0  0  0  0  0  0  0  0  0  0  0  0
   16.2901  -19.9652    2.2850 C   0  0  0  0  0  0  0  0  0  0  0  0
   16.9625  -21.1435    2.0337 C   0  0  0  0  0  0  0  0  0  0  0  0
   16.3385  -21.7729    1.0364 N   0  0  0  0  0  0  0  0  0  0  0  0
   15.3054  -21.0028    0.6794 C   0  0  0  0  0  0  0  0  0  0  0  0
   15.2558  -19.8899    1.4307 N   0  0  0  0  0  0  0  0  0  0  0  0
   16.6318  -18.7391    5.8144 C   0  0  0  0  0  0  0  0  0  0  0  0
   16.2578  -17.5543    6.0096 O   0  0  0  0  0  0  0  0  0  0  0  0
   18.4253  -19.6836    8.9077 C   0  0  0  0  0  0  0  0  0  0  0  0
   18.0737  -18.6204    7.8850 C   0  0  2  0  0  0  0  0  0  0  0  0
   17.5438  -19.2990    6.7297 N   0  0  0  0  0  0  0  0  0  0  0  0
   19.2949  -17.8462    7.5826 C   0  0  0  0  0  0  0  0  0  0  0  0
   20.0023  -18.1575    6.6077 O   0  0  0  0  0  0  0  0  0  0  0  0
   19.6101  -16.7568    8.4413 N   0  0  0  0  0  0  0  0  0  0  0  0
   20.7714  -15.9467    8.1431 C   0  0  0  0  0  0  0  0  0  0  0  0
   21.9735  -16.5219    8.7811 C   0  0  0  0  0  0  0  0  0  0  0  0
   23.1987  -15.8911    8.7081 O   0  0  0  0  0  0  0  0  0  0  0  0
   21.8729  -17.6042    9.3994 O   0  0  0  0  0  0  0  0  0  0  0  0
  2  3  1  0
  2  1  1  6
  4  8  1  0
  4  3  1  0
  5  4  2  0
  6  5  1  0
  6  7  1  0
  7  8  2  0
  9  2  1  0
 10  9  2  0
 12 11  1  1
 12 13  1  0
 13  9  1  0
 14 12  1  0
 14 15  2  0
 16 14  1  0
 17 16  1  0
 17 18  1  0
 18 19  1  0
 20 18  2  0
M  END
$$$$
