HAG.pdb
     RDKit          3D

 20 20  0  0  1  0  0  0  0  0999 V2000
   24.4583  -11.2518  -17.3112 N   0  0  0  0  0  0  0  0  0  0  0  0
   24.1890  -10.8089  -15.9743 C   0  0  1  0  0  0  0  0  0  0  0  0
   25.4542  -10.7421  -15.1543 C   0  0  0  0  0  0  0  0  0  0  0  0
   26.0910  -12.0830  -15.1960 C   0  0  0  0  0  0  0  0  0  0  0  0
   25.4519  -13.2317  -14.7767 C   0  0  0  0  0  0  0  0  0  0  0  0
   26.2882  -14.2574  -14.9462 N   0  0  0  0  0  0  0  0  0  0  0  0
   27.4169  -13.7556  -15.4579 C   0  0  0  0  0  0  0  0  0  0  0  0
   27.3192  -12.4252  -15.6196 N   0  0  0  0  0  0  0  0  0  0  0  0
   23.4111   -9.5507  -15.9336 C   0  0  0  0  0  0  0  0  0  0  0  0
   23.9394   -8.5112  -16.4048 O   0  0  0  0  0  0  0  0  0  0  0  0
   19.8873   -8.6447  -15.1185 C   0  0  0  0  0  0  0  0  0  0  0  0
   21.3232   -8.2379  -15.3883 C   0  0  2  0  0  0  0  0  0  0  0  0
   22.1127   -9.4430  -15.3991 N   0  0  0  0  0  0  0  0  0  0  0  0
   21.7419   -7.2898  -14.3356 C   0  0  0  0  0  0  0  0  0  0  0  0
   22.2510   -7.7153  -13.2832 O   0  0  0  0  0  0  0  0  0  0  0  0
   21.5378   -5.9038  -14.5824 N   0  0  0  0  0  0  0  0  0  0  0  0
   22.0032   -4.9450  -13.6037 C   0  0  0  0  0  0  0  0  0  0  0  0
   21.6888   -3.5705  -14.0450 C   0  0  0  0  0  0  0  0  0  0  0  0
   21.9680   -2.4777  -13.2499 O   0  0  0  0  0  0  0  0  0  0  0  0
   21.1582   -3.3993  -15.1643 O   0  0  0  0  0  0  0  0  0  0  0  0
  2  3  1  0
  2  1  1  6
  4  8  1  0
  4  3  1  0
  5  4  2  0
  6  5  1  0
  6  7  1  0
  7  8  2  0
  9  2  1  0
 10  9  2  0
 12 11  1  1
 12 13  1  0
 13  9  1  0
 14 12  1  0
 14 15  2  0
 16 14  1  0
 17 16  1  0
 17 18  1  0
 18 19  1  0
 20 18  2  0
M  END
$$$$
