HAG.pdb
     RDKit          3D

 20 20  0  0  1  0  0  0  0  0999 V2000
   21.2390  -11.4079  -16.4891 N   0  0  0  0  0  0  0  0  0  0  0  0
   20.9667  -10.0916  -15.9900 C   0  0  1  0  0  0  0  0  0  0  0  0
   20.2301  -10.1467  -14.6739 C   0  0  0  0  0  0  0  0  0  0  0  0
   18.9350  -10.8341  -14.9093 C   0  0  0  0  0  0  0  0  0  0  0  0
   18.5425  -11.2928  -16.1500 C   0  0  0  0  0  0  0  0  0  0  0  0
   17.3415  -11.8597  -16.0220 N   0  0  0  0  0  0  0  0  0  0  0  0
   16.9993  -11.7543  -14.7338 C   0  0  0  0  0  0  0  0  0  0  0  0
   17.9605  -11.1293  -14.0328 N   0  0  0  0  0  0  0  0  0  0  0  0
   22.1743   -9.2380  -15.9370 C   0  0  0  0  0  0  0  0  0  0  0  0
   23.2028   -9.6993  -15.3792 O   0  0  0  0  0  0  0  0  0  0  0  0
   23.5577   -6.4636  -17.8046 C   0  0  0  0  0  0  0  0  0  0  0  0
   23.4109   -7.0919  -16.4321 C   0  0  2  0  0  0  0  0  0  0  0  0
   22.2453   -7.9378  -16.4731 N   0  0  0  0  0  0  0  0  0  0  0  0
   23.2950   -6.0073  -15.4359 C   0  0  0  0  0  0  0  0  0  0  0  0
   24.2305   -5.2015  -15.2832 O   0  0  0  0  0  0  0  0  0  0  0  0
   22.0909   -5.9354  -14.6819 N   0  0  0  0  0  0  0  0  0  0  0  0
   21.9641   -4.9133  -13.6655 C   0  0  0  0  0  0  0  0  0  0  0  0
   21.3623   -3.6926  -14.2403 C   0  0  0  0  0  0  0  0  0  0  0  0
   21.1135   -2.5788  -13.4645 O   0  0  0  0  0  0  0  0  0  0  0  0
   21.0741   -3.6735  -15.4570 O   0  0  0  0  0  0  0  0  0  0  0  0
  2  3  1  0
  2  1  1  1
  4  8  1  0
  4  3  1  0
  5  4  2  0
  6  5  1  0
  6  7  1  0
  7  8  2  0
  9  2  1  0
 10  9  2  0
 12 11  1  6
 12 13  1  0
 13  9  1  0
 14 12  1  0
 14 15  2  0
 16 14  1  0
 17 16  1  0
 17 18  1  0
 18 19  1  0
 20 18  2  0
M  END
$$$$
