HAG.pdb
     RDKit          3D

 20 20  0  0  1  0  0  0  0  0999 V2000
   21.2261  -16.1884  -17.2818 N   0  0  0  0  0  0  0  0  0  0  0  0
   22.3068  -16.5978  -16.4330 C   0  0  1  0  0  0  0  0  0  0  0  0
   22.3937  -18.1019  -16.3443 C   0  0  0  0  0  0  0  0  0  0  0  0
   21.0703  -18.6053  -15.8967 C   0  0  0  0  0  0  0  0  0  0  0  0
   20.3775  -18.0580  -14.8364 C   0  0  0  0  0  0  0  0  0  0  0  0
   19.2338  -18.7305  -14.6965 N   0  0  0  0  0  0  0  0  0  0  0  0
   19.2192  -19.6709  -15.6469 C   0  0  0  0  0  0  0  0  0  0  0  0
   20.3344  -19.6132  -16.3944 N   0  0  0  0  0  0  0  0  0  0  0  0
   23.5945  -15.9688  -16.8016 C   0  0  0  0  0  0  0  0  0  0  0  0
   23.8777  -15.8685  -18.0229 O   0  0  0  0  0  0  0  0  0  0  0  0
   26.2322  -14.0688  -14.9832 C   0  0  0  0  0  0  0  0  0  0  0  0
   25.7729  -14.8363  -16.2080 C   0  0  2  0  0  0  0  0  0  0  0  0
   24.5261  -15.4737  -15.8688 N   0  0  0  0  0  0  0  0  0  0  0  0
   26.8287  -15.8035  -16.5717 C   0  0  0  0  0  0  0  0  0  0  0  0
   27.9391  -15.3954  -16.9565 O   0  0  0  0  0  0  0  0  0  0  0  0
   26.5166  -17.1870  -16.4617 N   0  0  0  0  0  0  0  0  0  0  0  0
   27.5167  -18.1603  -16.8442 C   0  0  0  0  0  0  0  0  0  0  0  0
   26.9958  -19.5298  -16.6553 C   0  0  0  0  0  0  0  0  0  0  0  0
   27.7841  -20.6383  -16.8881 O   0  0  0  0  0  0  0  0  0  0  0  0
   25.8139  -19.6823  -16.2759 O   0  0  0  0  0  0  0  0  0  0  0  0
  2  3  1  0
  2  1  1  6
  4  8  1  0
  4  3  1  0
  5  4  2  0
  6  5  1  0
  6  7  1  0
  7  8  2  0
  9  2  1  0
 10  9  2  0
 12 11  1  1
 12 13  1  0
 13  9  1  0
 14 12  1  0
 14 15  2  0
 16 14  1  0
 17 16  1  0
 17 18  1  0
 18 19  1  0
 20 18  2  0
M  END
$$$$
