HAG.pdb
     RDKit          3D

 20 20  0  0  1  0  0  0  0  0999 V2000
   23.0110  -21.0059  -14.1415 N   0  0  0  0  0  0  0  0  0  0  0  0
   21.9725  -20.5109  -13.2856 C   0  0  1  0  0  0  0  0  0  0  0  0
   20.6633  -20.3903  -14.0267 C   0  0  0  0  0  0  0  0  0  0  0  0
   20.8573  -19.4166  -15.1310 C   0  0  0  0  0  0  0  0  0  0  0  0
   20.8029  -18.0504  -14.9463 C   0  0  0  0  0  0  0  0  0  0  0  0
   21.0196  -17.4633  -16.1246 N   0  0  0  0  0  0  0  0  0  0  0  0
   21.2035  -18.4422  -17.0165 C   0  0  0  0  0  0  0  0  0  0  0  0
   21.1085  -19.6477  -16.4305 N   0  0  0  0  0  0  0  0  0  0  0  0
   21.8516  -21.2807  -12.0276 C   0  0  0  0  0  0  0  0  0  0  0  0
   21.6839  -22.5247  -12.1072 O   0  0  0  0  0  0  0  0  0  0  0  0
   22.2740  -20.5099   -8.3980 C   0  0  0  0  0  0  0  0  0  0  0  0
   21.8272  -21.4428   -9.5071 C   0  0  2  0  0  0  0  0  0  0  0  0
   21.9125  -20.7072  -10.7430 N   0  0  0  0  0  0  0  0  0  0  0  0
   20.4540  -21.8966   -9.2059 C   0  0  0  0  0  0  0  0  0  0  0  0
   19.4796  -21.2260   -9.5913 O   0  0  0  0  0  0  0  0  0  0  0  0
   20.3094  -23.1070   -8.4725 N   0  0  0  0  0  0  0  0  0  0  0  0
   18.9775  -23.6016   -8.1983 C   0  0  0  0  0  0  0  0  0  0  0  0
   18.8231  -23.8815   -6.7559 C   0  0  0  0  0  0  0  0  0  0  0  0
   17.6243  -24.3209   -6.2323 O   0  0  0  0  0  0  0  0  0  0  0  0
   19.8033  -23.7151   -5.9974 O   0  0  0  0  0  0  0  0  0  0  0  0
  2  3  1  0
  2  1  1  6
  4  8  1  0
  4  3  1  0
  5  4  2  0
  6  5  1  0
  6  7  1  0
  7  8  2  0
  9  2  1  0
 10  9  2  0
 12 11  1  1
 12 13  1  0
 13  9  1  0
 14 12  1  0
 14 15  2  0
 16 14  1  0
 17 16  1  0
 17 18  1  0
 18 19  1  0
 20 18  2  0
M  END
$$$$
