HAG.pdb
     RDKit          3D

 20 20  0  0  1  0  0  0  0  0999 V2000
   18.7985  -12.0839  -17.2726 N   0  0  0  0  0  0  0  0  0  0  0  0
   18.3419  -11.3471  -16.1304 C   0  0  1  0  0  0  0  0  0  0  0  0
   18.5854  -12.1119  -14.8523 C   0  0  0  0  0  0  0  0  0  0  0  0
   17.6852  -13.2930  -14.8541 C   0  0  0  0  0  0  0  0  0  0  0  0
   18.0873  -14.5435  -15.2759 C   0  0  0  0  0  0  0  0  0  0  0  0
   17.0527  -15.3766  -15.1500 N   0  0  0  0  0  0  0  0  0  0  0  0
   16.0355  -14.6590  -14.6621 C   0  0  0  0  0  0  0  0  0  0  0  0
   16.3997  -13.3794  -14.4729 N   0  0  0  0  0  0  0  0  0  0  0  0
   18.8786   -9.9687  -16.0860 C   0  0  0  0  0  0  0  0  0  0  0  0
   20.1056   -9.8026  -16.3063 O   0  0  0  0  0  0  0  0  0  0  0  0
   17.4034   -6.5521  -15.7428 C   0  0  0  0  0  0  0  0  0  0  0  0
   18.6039   -7.4786  -15.7639 C   0  0  2  0  0  0  0  0  0  0  0  0
   18.1003   -8.8277  -15.8120 N   0  0  0  0  0  0  0  0  0  0  0  0
   19.4148   -7.2140  -14.5578 C   0  0  0  0  0  0  0  0  0  0  0  0
   19.1466   -7.7929  -13.4897 O   0  0  0  0  0  0  0  0  0  0  0  0
   20.4882   -6.2885  -14.6793 N   0  0  0  0  0  0  0  0  0  0  0  0
   21.3587   -6.0766  -13.5430 C   0  0  0  0  0  0  0  0  0  0  0  0
   22.4123   -5.0978  -13.8816 C   0  0  0  0  0  0  0  0  0  0  0  0
   23.2122   -4.5356  -12.9079 O   0  0  0  0  0  0  0  0  0  0  0  0
   22.5785   -4.7753  -15.0784 O   0  0  0  0  0  0  0  0  0  0  0  0
  2  3  1  0
  2  1  1  6
  4  8  1  0
  4  3  1  0
  5  4  2  0
  6  5  1  0
  6  7  1  0
  7  8  2  0
  9  2  1  0
 10  9  2  0
 12 11  1  1
 12 13  1  0
 13  9  1  0
 14 12  1  0
 14 15  2  0
 16 14  1  0
 17 16  1  0
 17 18  1  0
 18 19  1  0
 20 18  2  0
M  END
$$$$
