HAG.pdb
     RDKit          3D

 20 20  0  0  1  0  0  0  0  0999 V2000
   18.4400  -12.6378  -16.5139 N   0  0  0  0  0  0  0  0  0  0  0  0
   19.1665  -11.4378  -16.8108 C   0  0  1  0  0  0  0  0  0  0  0  0
   18.3531  -10.5049  -17.6744 C   0  0  0  0  0  0  0  0  0  0  0  0
   18.0081  -11.2308  -18.9232 C   0  0  0  0  0  0  0  0  0  0  0  0
   18.8500  -12.1497  -19.5151 C   0  0  0  0  0  0  0  0  0  0  0  0
   18.2483  -12.6191  -20.6096 N   0  0  0  0  0  0  0  0  0  0  0  0
   17.0632  -12.0056  -20.6926 C   0  0  0  0  0  0  0  0  0  0  0  0
   16.8942  -11.1504  -19.6700 N   0  0  0  0  0  0  0  0  0  0  0  0
   19.7025  -10.7781  -15.5995 C   0  0  0  0  0  0  0  0  0  0  0  0
   18.9425  -10.6563  -14.6049 O   0  0  0  0  0  0  0  0  0  0  0  0
   23.0033   -9.9767  -14.2163 C   0  0  0  0  0  0  0  0  0  0  0  0
   21.5407   -9.5938  -14.3351 C   0  0  2  0  0  0  0  0  0  0  0  0
   21.0137  -10.2766  -15.4892 N   0  0  0  0  0  0  0  0  0  0  0  0
   21.4545   -8.1237  -14.4522 C   0  0  0  0  0  0  0  0  0  0  0  0
   21.8653   -7.4017  -13.5261 O   0  0  0  0  0  0  0  0  0  0  0  0
   20.8926   -7.5929  -15.6463 N   0  0  0  0  0  0  0  0  0  0  0  0
   20.8375   -6.1565  -15.8130 C   0  0  0  0  0  0  0  0  0  0  0  0
   19.5523   -5.6321  -15.3071 C   0  0  0  0  0  0  0  0  0  0  0  0
   19.2486   -4.2875  -15.3706 O   0  0  0  0  0  0  0  0  0  0  0  0
   18.7252   -6.4285  -14.8116 O   0  0  0  0  0  0  0  0  0  0  0  0
  2  3  1  0
  2  1  1  1
  4  8  1  0
  4  3  1  0
  5  4  2  0
  6  5  1  0
  6  7  1  0
  7  8  2  0
  9  2  1  0
 10  9  2  0
 12 11  1  6
 12 13  1  0
 13  9  1  0
 14 12  1  0
 14 15  2  0
 16 14  1  0
 17 16  1  0
 17 18  1  0
 18 19  1  0
 20 18  2  0
M  END
$$$$
