HAG.pdb
     RDKit          3D

 20 20  0  0  1  0  0  0  0  0999 V2000
   20.6428  -11.2909  -18.5704 N   0  0  0  0  0  0  0  0  0  0  0  0
   20.8452  -11.0840  -17.1660 C   0  0  1  0  0  0  0  0  0  0  0  0
   22.1084  -11.7588  -16.6898 C   0  0  0  0  0  0  0  0  0  0  0  0
   22.0127  -13.1979  -17.0432 C   0  0  0  0  0  0  0  0  0  0  0  0
   20.8637  -13.9407  -16.8646 C   0  0  0  0  0  0  0  0  0  0  0  0
   21.1053  -15.1853  -17.2801 N   0  0  0  0  0  0  0  0  0  0  0  0
   22.3727  -15.2119  -17.7054 C   0  0  0  0  0  0  0  0  0  0  0  0
   22.9485  -14.0054  -17.5698 N   0  0  0  0  0  0  0  0  0  0  0  0
   20.7766   -9.6567  -16.7816 C   0  0  0  0  0  0  0  0  0  0  0  0
   21.6533   -8.8773  -17.2351 O   0  0  0  0  0  0  0  0  0  0  0  0
   18.2730   -7.5160  -15.0331 C   0  0  0  0  0  0  0  0  0  0  0  0
   19.6607   -7.7163  -15.6112 C   0  0  2  0  0  0  0  0  0  0  0  0
   19.7887   -9.1138  -15.9375 N   0  0  0  0  0  0  0  0  0  0  0  0
   20.6494   -7.2709  -14.6080 C   0  0  0  0  0  0  0  0  0  0  0  0
   21.1836   -8.1013  -13.8511 O   0  0  0  0  0  0  0  0  0  0  0  0
   20.9494   -5.8814  -14.5550 N   0  0  0  0  0  0  0  0  0  0  0  0
   21.9626   -5.4212  -13.6300 C   0  0  0  0  0  0  0  0  0  0  0  0
   22.1275   -3.9572  -13.7393 C   0  0  0  0  0  0  0  0  0  0  0  0
   22.9284   -3.2555  -12.8614 O   0  0  0  0  0  0  0  0  0  0  0  0
   21.5259   -3.3452  -14.6489 O   0  0  0  0  0  0  0  0  0  0  0  0
  2  3  1  0
  2  1  1  6
  4  8  1  0
  4  3  1  0
  5  4  2  0
  6  5  1  0
  6  7  1  0
  7  8  2  0
  9  2  1  0
 10  9  2  0
 12 11  1  1
 12 13  1  0
 13  9  1  0
 14 12  1  0
 14 15  2  0
 16 14  1  0
 17 16  1  0
 17 18  1  0
 18 19  1  0
 20 18  2  0
M  END
$$$$
