HAG.pdb
     RDKit          3D

 20 20  0  0  1  0  0  0  0  0999 V2000
   32.0367   -9.7662  -18.6490 N   0  0  0  0  0  0  0  0  0  0  0  0
   31.4573   -9.6290  -17.3446 C   0  0  1  0  0  0  0  0  0  0  0  0
   32.1566   -8.5569  -16.5450 C   0  0  0  0  0  0  0  0  0  0  0  0
   33.5805   -8.9542  -16.4048 C   0  0  0  0  0  0  0  0  0  0  0  0
   34.0675  -10.1702  -16.8383 C   0  0  0  0  0  0  0  0  0  0  0  0
   35.3738  -10.2136  -16.5701 N   0  0  0  0  0  0  0  0  0  0  0  0
   35.6873   -9.0530  -15.9850 C   0  0  0  0  0  0  0  0  0  0  0  0
   34.6042   -8.2654  -15.8732 N   0  0  0  0  0  0  0  0  0  0  0  0
   29.9891   -9.4490  -17.3861 C   0  0  0  0  0  0  0  0  0  0  0  0
   29.3820   -9.2738  -16.2986 O   0  0  0  0  0  0  0  0  0  0  0  0
   27.3889   -8.4174  -19.6664 C   0  0  0  0  0  0  0  0  0  0  0  0
   27.7862   -9.4427  -18.6220 C   0  0  2  0  0  0  0  0  0  0  0  0
   29.2260   -9.4615  -18.5695 N   0  0  0  0  0  0  0  0  0  0  0  0
   27.2116  -10.7469  -19.0107 C   0  0  0  0  0  0  0  0  0  0  0  0
   25.9778  -10.8813  -19.0963 O   0  0  0  0  0  0  0  0  0  0  0  0
   28.1185  -11.8107  -19.2743 N   0  0  0  0  0  0  0  0  0  0  0  0
   27.5879  -13.1007  -19.6588 C   0  0  0  0  0  0  0  0  0  0  0  0
   27.6376  -13.2569  -21.1271 C   0  0  0  0  0  0  0  0  0  0  0  0
   27.2978  -14.4477  -21.7362 O   0  0  0  0  0  0  0  0  0  0  0  0
   27.9962  -12.2857  -21.8286 O   0  0  0  0  0  0  0  0  0  0  0  0
  2  3  1  0
  2  1  1  6
  4  8  1  0
  4  3  1  0
  5  4  2  0
  6  5  1  0
  6  7  1  0
  7  8  2  0
  9  2  1  0
 10  9  2  0
 12 11  1  6
 12 13  1  0
 13  9  1  0
 14 12  1  0
 14 15  2  0
 16 14  1  0
 17 16  1  0
 17 18  1  0
 18 19  1  0
 20 18  2  0
M  END
$$$$
