RMT.pdb
     RDKit          3D

 27 26  0  0  1  0  0  0  0  0999 V2000
    6.3177  -18.5597   17.2702 N   0  0  0  0  0  0  0  0  0  0  0  0
    6.8544  -17.8792   16.1388 C   0  0  0  0  0  0  0  0  0  0  0  0
    6.3317  -17.9864   14.9604 N   0  0  0  0  0  0  0  0  0  0  0  0
    7.9983  -17.0588   16.3313 N   0  0  0  0  0  0  0  0  0  0  0  0
    8.4976  -16.8918   17.6700 C   0  0  0  0  0  0  0  0  0  0  0  0
    7.9342  -15.6088   18.2906 C   0  0  0  0  0  0  0  0  0  0  0  0
    8.5200  -15.4105   19.6742 C   0  0  0  0  0  0  0  0  0  0  0  0
    7.8242  -14.2424   20.3404 C   0  0  2  0  0  0  0  0  0  0  0  0
    8.0358  -13.0933   19.5015 N   0  0  0  0  0  0  0  0  0  0  0  0
    8.3272  -14.0313   21.7191 C   0  0  0  0  0  0  0  0  0  0  0  0
    9.4770  -13.5285   21.9551 O   0  0  0  0  0  0  0  0  0  0  0  0
    6.8516  -17.5584   14.1667 C   0  0  0  0  0  0  0  0  0  0  0  0
    6.7409  -11.7953   27.6482 S   0  0  0  0  0  0  0  0  0  0  0  0
    6.2122  -11.1008   26.0679 C   0  0  0  0  0  0  0  0  0  0  0  0
    6.8067  -12.0988   24.6731 C   0  0  0  0  0  0  0  0  0  0  0  0
    7.0687  -13.5383   25.1192 C   0  0  2  0  0  0  0  0  0  0  0  0
    8.0034  -14.2372   24.2064 N   0  0  0  0  0  0  0  0  0  0  0  0
    7.5708  -14.3713   22.8480 C   0  0  0  0  0  0  0  0  0  0  0  0
    8.2569  -15.6020   24.7365 O   0  0  0  0  0  0  0  0  0  0  0  0
    7.3038  -16.4283   24.9514 C   0  0  0  0  0  0  0  0  0  0  0  0
   10.0962  -18.4052   23.3236 C   0  0  2  0  0  0  0  0  0  0  0  0
   10.7395  -18.1342   24.6671 O   0  0  0  0  0  0  0  0  0  0  0  0
   11.8931  -17.3707   24.5460 C   0  0  2  0  0  0  0  0  0  0  0  0
    9.7624  -17.4315   25.6106 N   0  0  0  0  0  0  0  0  0  0  0  0
    9.5512  -16.1046   25.0461 C   0  0  0  0  0  0  0  0  0  0  0  0
   10.2749  -17.3928   26.9727 O   0  0  0  0  0  0  0  0  0  0  0  0
   10.5254  -16.3011   27.5238 O   0  0  0  0  0  0  0  0  0  0  0  0
  2  1  1  0
  3  2  2  0
  4  2  1  0
  5  4  1  0
  6  5  1  0
  7  8  1  0
  7  6  1  0
  8 10  1  0
  8  9  1  6
 10 17  1  0
 11 10  2  0
 13 14  1  0
 13 12  1  0
 14 15  1  0
 16 15  1  6
 17 16  1  0
 18 19  2  0
 18 16  1  0
 21 20  1  6
 21 23  1  0
 21 22  1  0
 23 24  1  1
 24 18  1  0
 25 27  1  0
 25 23  1  0
 26 25  2  0
M  END
$$$$
