RMT.pdb
     RDKit          3D

 27 26  0  0  1  0  0  0  0  0999 V2000
    9.0059  -15.6693   16.0202 N   0  0  0  0  0  0  0  0  0  0  0  0
    8.2503  -14.4840   16.2550 C   0  0  0  0  0  0  0  0  0  0  0  0
    8.4909  -13.3794   15.6260 N   0  0  0  0  0  0  0  0  0  0  0  0
    7.2011  -14.5371   17.2115 N   0  0  0  0  0  0  0  0  0  0  0  0
    7.2375  -15.5784   18.2034 C   0  0  0  0  0  0  0  0  0  0  0  0
    7.4385  -14.9762   19.5983 C   0  0  0  0  0  0  0  0  0  0  0  0
    8.9199  -14.8619   19.8968 C   0  0  0  0  0  0  0  0  0  0  0  0
    9.2615  -15.7799   21.0514 C   0  0  2  0  0  0  0  0  0  0  0  0
    8.2251  -16.7752   21.1175 N   0  0  0  0  0  0  0  0  0  0  0  0
    9.3949  -15.0233   22.3195 C   0  0  0  0  0  0  0  0  0  0  0  0
   10.5013  -14.5044   22.6900 O   0  0  0  0  0  0  0  0  0  0  0  0
    7.8854  -12.5623   15.8474 C   0  0  0  0  0  0  0  0  0  0  0  0
    5.2141  -11.8463   28.1310 S   0  0  0  0  0  0  0  0  0  0  0  0
    5.7991  -11.6087   26.4396 C   0  0  0  0  0  0  0  0  0  0  0  0
    7.2749  -12.6101   26.1019 C   0  0  0  0  0  0  0  0  0  0  0  0
    7.1529  -13.3003   24.7422 C   0  0  1  0  0  0  0  0  0  0  0  0
    8.3591  -14.0973   24.4180 N   0  0  0  0  0  0  0  0  0  0  0  0
    8.3140  -14.8318   23.1896 C   0  0  0  0  0  0  0  0  0  0  0  0
    8.5986  -15.0688   25.5165 O   0  0  0  0  0  0  0  0  0  0  0  0
    8.6983  -14.6946   26.7361 C   0  0  0  0  0  0  0  0  0  0  0  0
    6.6947  -18.4916   25.6882 C   0  0  2  0  0  0  0  0  0  0  0  0
    8.1732  -18.7016   25.9382 O   0  0  0  0  0  0  0  0  0  0  0  0
    8.8322  -19.1561   24.8035 C   0  0  2  0  0  0  0  0  0  0  0  0
    8.8347  -17.4124   26.4271 N   0  0  0  0  0  0  0  0  0  0  0  0
    8.7355  -16.4709   25.3192 C   0  0  0  0  0  0  0  0  0  0  0  0
   10.2078  -17.6477   26.8495 O   0  0  0  0  0  0  0  0  0  0  0  0
   11.1573  -17.1094   26.2437 O   0  0  0  0  0  0  0  0  0  0  0  0
  2  1  1  0
  3  2  2  0
  4  2  1  0
  5  4  1  0
  6  5  1  0
  7  8  1  0
  7  6  1  0
  8 10  1  0
  8  9  1  1
 10 17  1  0
 11 10  2  0
 13 14  1  0
 13 12  1  0
 14 15  1  0
 16 15  1  6
 17 16  1  0
 18 19  2  0
 18 16  1  0
 21 20  1  1
 21 23  1  0
 21 22  1  0
 23 24  1  1
 24 18  1  0
 25 27  1  0
 25 23  1  0
 26 25  2  0
M  END
$$$$
