RMT.pdb
     RDKit          3D

 27 26  0  0  1  0  0  0  0  0999 V2000
    9.3254  -19.0481   17.2753 N   0  0  0  0  0  0  0  0  0  0  0  0
    9.0239  -20.4164   17.5358 C   0  0  0  0  0  0  0  0  0  0  0  0
    9.4463  -21.3710   16.7717 N   0  0  0  0  0  0  0  0  0  0  0  0
    8.2360  -20.7230   18.6777 N   0  0  0  0  0  0  0  0  0  0  0  0
    8.6622  -20.2145   19.9541 C   0  0  0  0  0  0  0  0  0  0  0  0
    8.7078  -18.6828   19.9270 C   0  0  0  0  0  0  0  0  0  0  0  0
    9.2409  -18.1643   21.2475 C   0  0  0  0  0  0  0  0  0  0  0  0
    9.2450  -16.6505   21.2161 C   0  0  2  0  0  0  0  0  0  0  0  0
   10.2367  -16.2529   20.2530 N   0  0  0  0  0  0  0  0  0  0  0  0
    9.5100  -16.0849   22.5608 C   0  0  0  0  0  0  0  0  0  0  0  0
   10.6877  -16.0116   23.0490 O   0  0  0  0  0  0  0  0  0  0  0  0
    9.2440  -22.3471   17.0710 C   0  0  0  0  0  0  0  0  0  0  0  0
    6.5011  -11.1129   25.5847 S   0  0  0  0  0  0  0  0  0  0  0  0
    6.7664  -12.2375   26.9718 C   0  0  0  0  0  0  0  0  0  0  0  0
    7.9419  -13.5527   26.5435 C   0  0  0  0  0  0  0  0  0  0  0  0
    7.6006  -14.1505   25.1775 C   0  0  2  0  0  0  0  0  0  0  0  0
    8.6538  -15.0782   24.7027 N   0  0  0  0  0  0  0  0  0  0  0  0
    8.4832  -15.5962   23.3787 C   0  0  0  0  0  0  0  0  0  0  0  0
    8.7269  -16.2340   25.6338 O   0  0  0  0  0  0  0  0  0  0  0  0
    7.6780  -16.8643   26.0077 C   0  0  0  0  0  0  0  0  0  0  0  0
   10.3936  -19.4645   25.2752 C   0  0  2  0  0  0  0  0  0  0  0  0
   10.9436  -18.8638   26.5515 O   0  0  0  0  0  0  0  0  0  0  0  0
   12.1819  -18.2675   26.3533 C   0  0  2  0  0  0  0  0  0  0  0  0
    9.9733  -17.8363   27.1359 N   0  0  0  0  0  0  0  0  0  0  0  0
    9.9402  -16.7350   26.1821 C   0  0  0  0  0  0  0  0  0  0  0  0
   10.3820  -17.4189   28.4693 O   0  0  0  0  0  0  0  0  0  0  0  0
   10.7410  -16.2424   28.6819 O   0  0  0  0  0  0  0  0  0  0  0  0
  2  1  1  0
  3  2  2  0
  4  2  1  0
  5  4  1  0
  6  5  1  0
  7  8  1  0
  7  6  1  0
  8 10  1  0
  8  9  1  6
 10 17  1  0
 11 10  2  0
 13 14  1  0
 13 12  1  0
 14 15  1  0
 16 15  1  6
 17 16  1  0
 18 19  2  0
 18 16  1  0
 21 20  1  1
 21 23  1  0
 21 22  1  0
 23 24  1  1
 24 18  1  0
 25 27  1  0
 25 23  1  0
 26 25  2  0
M  END
$$$$
