RMT.pdb
     RDKit          3D

 27 26  0  0  1  0  0  0  0  0999 V2000
    8.4492  -13.1473   13.8546 N   0  0  0  0  0  0  0  0  0  0  0  0
    8.7791  -13.8535   15.0477 C   0  0  0  0  0  0  0  0  0  0  0  0
    9.2787  -15.0466   15.0246 N   0  0  0  0  0  0  0  0  0  0  0  0
    8.5481  -13.2093   16.2928 N   0  0  0  0  0  0  0  0  0  0  0  0
    8.8548  -13.9311   17.4988 C   0  0  0  0  0  0  0  0  0  0  0  0
    7.5654  -14.2911   18.2447 C   0  0  0  0  0  0  0  0  0  0  0  0
    7.6878  -13.8880   19.7005 C   0  0  0  0  0  0  0  0  0  0  0  0
    8.0627  -15.1058   20.5184 C   0  0  2  0  0  0  0  0  0  0  0  0
    6.9036  -15.9567   20.5605 N   0  0  0  0  0  0  0  0  0  0  0  0
    8.5269  -14.7223   21.8732 C   0  0  0  0  0  0  0  0  0  0  0  0
    9.5963  -14.0505   22.0621 O   0  0  0  0  0  0  0  0  0  0  0  0
    9.3503  -15.5519   15.9317 C   0  0  0  0  0  0  0  0  0  0  0  0
    6.3696  -10.9304   26.4771 S   0  0  0  0  0  0  0  0  0  0  0  0
    6.6046  -12.4722   27.3865 C   0  0  0  0  0  0  0  0  0  0  0  0
    7.7626  -13.5769   26.5300 C   0  0  0  0  0  0  0  0  0  0  0  0
    7.2267  -13.9431   25.1449 C   0  0  2  0  0  0  0  0  0  0  0  0
    8.2037  -14.7424   24.3691 N   0  0  0  0  0  0  0  0  0  0  0  0
    7.8199  -15.0745   23.0301 C   0  0  0  0  0  0  0  0  0  0  0  0
    8.4621  -16.0139   25.0933 O   0  0  0  0  0  0  0  0  0  0  0  0
    7.5080  -16.7715   25.4845 C   0  0  0  0  0  0  0  0  0  0  0  0
   10.5677  -18.7982   23.8462 C   0  0  2  0  0  0  0  0  0  0  0  0
   11.0665  -18.4818   25.2403 O   0  0  0  0  0  0  0  0  0  0  0  0
   12.2109  -17.6955   25.2163 C   0  0  2  0  0  0  0  0  0  0  0  0
    9.9853  -17.7795   26.0627 N   0  0  0  0  0  0  0  0  0  0  0  0
    9.7625  -16.4955   25.4106 C   0  0  0  0  0  0  0  0  0  0  0  0
   10.3823  -17.6457   27.4570 O   0  0  0  0  0  0  0  0  0  0  0  0
   10.6607  -16.5249   27.9308 O   0  0  0  0  0  0  0  0  0  0  0  0
  2  1  1  0
  3  2  2  0
  4  2  1  0
  5  4  1  0
  6  5  1  0
  7  8  1  0
  7  6  1  0
  8 10  1  0
  8  9  1  1
 10 17  1  0
 11 10  2  0
 13 14  1  0
 13 12  1  0
 14 15  1  0
 16 15  1  6
 17 16  1  0
 18 19  2  0
 18 16  1  0
 21 20  1  6
 21 23  1  0
 21 22  1  0
 23 24  1  1
 24 18  1  0
 25 27  1  0
 25 23  1  0
 26 25  2  0
M  END
$$$$
