RMT.pdb
     RDKit          3D

 27 26  0  0  1  0  0  0  0  0999 V2000
    8.0066  -13.9859   15.3637 N   0  0  0  0  0  0  0  0  0  0  0  0
    8.2288  -13.3380   16.6135 C   0  0  0  0  0  0  0  0  0  0  0  0
    8.1646  -12.0524   16.7425 N   0  0  0  0  0  0  0  0  0  0  0  0
    8.5258  -14.1465   17.7435 N   0  0  0  0  0  0  0  0  0  0  0  0
    8.7453  -15.5527   17.5343 C   0  0  0  0  0  0  0  0  0  0  0  0
    8.2920  -16.3493   18.7625 C   0  0  0  0  0  0  0  0  0  0  0  0
    9.4882  -16.6606   19.6395 C   0  0  0  0  0  0  0  0  0  0  0  0
    9.0132  -17.3882   20.8795 C   0  0  2  0  0  0  0  0  0  0  0  0
    7.6073  -17.6388   20.7069 N   0  0  0  0  0  0  0  0  0  0  0  0
    9.2973  -16.6044   22.1056 C   0  0  0  0  0  0  0  0  0  0  0  0
   10.4805  -16.2483   22.4275 O   0  0  0  0  0  0  0  0  0  0  0  0
    8.3511  -11.6574   17.6872 C   0  0  0  0  0  0  0  0  0  0  0  0
    6.7902  -11.5254   27.6129 S   0  0  0  0  0  0  0  0  0  0  0  0
    6.3733  -12.5462   26.1833 C   0  0  0  0  0  0  0  0  0  0  0  0
    7.6537  -13.7922   25.8626 C   0  0  0  0  0  0  0  0  0  0  0  0
    7.3790  -14.5132   24.5418 C   0  0  1  0  0  0  0  0  0  0  0  0
    8.4770  -15.4402   24.1807 N   0  0  0  0  0  0  0  0  0  0  0  0
    8.2836  -16.2068   22.9867 C   0  0  0  0  0  0  0  0  0  0  0  0
    8.6843  -16.3940   25.3011 O   0  0  0  0  0  0  0  0  0  0  0  0
    7.7109  -17.0382   25.8253 C   0  0  0  0  0  0  0  0  0  0  0  0
   10.6674  -19.4457   25.4078 C   0  0  2  0  0  0  0  0  0  0  0  0
   11.1743  -18.6028   26.5588 O   0  0  0  0  0  0  0  0  0  0  0  0
   12.3479  -17.9346   26.2356 C   0  0  2  0  0  0  0  0  0  0  0  0
   10.1186  -17.5889   27.0018 N   0  0  0  0  0  0  0  0  0  0  0  0
    9.9532  -16.6730   25.8804 C   0  0  0  0  0  0  0  0  0  0  0  0
   10.5128  -16.9149   28.2305 O   0  0  0  0  0  0  0  0  0  0  0  0
   10.7732  -15.6941   28.2271 O   0  0  0  0  0  0  0  0  0  0  0  0
  2  1  1  0
  3  2  2  0
  4  2  1  0
  5  4  1  0
  6  5  1  0
  7  8  1  0
  7  6  1  0
  8 10  1  0
  8  9  1  6
 10 17  1  0
 11 10  2  0
 13 14  1  0
 13 12  1  0
 14 15  1  0
 16 15  1  6
 17 16  1  0
 18 19  2  0
 18 16  1  0
 21 20  1  1
 21 23  1  0
 21 22  1  0
 23 24  1  1
 24 18  1  0
 25 27  1  0
 25 23  1  0
 26 25  2  0
M  END
$$$$
