RMT.pdb
     RDKit          3D

 27 26  0  0  1  0  0  0  0  0999 V2000
   10.4441  -13.0345   19.4274 N   0  0  0  0  0  0  0  0  0  0  0  0
    9.2777  -12.2243   19.5459 C   0  0  0  0  0  0  0  0  0  0  0  0
    9.2985  -11.0705   20.1306 N   0  0  0  0  0  0  0  0  0  0  0  0
    8.0630  -12.7144   18.9953 N   0  0  0  0  0  0  0  0  0  0  0  0
    8.0502  -14.0483   18.4570 C   0  0  0  0  0  0  0  0  0  0  0  0
    8.4866  -15.0564   19.5257 C   0  0  0  0  0  0  0  0  0  0  0  0
    7.2655  -15.7145   20.1361 C   0  0  0  0  0  0  0  0  0  0  0  0
    7.7171  -16.7733   21.1197 C   0  0  2  0  0  0  0  0  0  0  0  0
    6.5620  -17.5677   21.4416 N   0  0  0  0  0  0  0  0  0  0  0  0
    8.3317  -16.1629   22.3231 C   0  0  0  0  0  0  0  0  0  0  0  0
    9.4670  -15.5796   22.2868 O   0  0  0  0  0  0  0  0  0  0  0  0
    8.3895  -10.5765   20.2444 C   0  0  0  0  0  0  0  0  0  0  0  0
    6.4026  -10.7169   25.9882 S   0  0  0  0  0  0  0  0  0  0  0  0
    6.3656  -12.4741   26.4005 C   0  0  0  0  0  0  0  0  0  0  0  0
    7.4234  -13.4391   25.2848 C   0  0  0  0  0  0  0  0  0  0  0  0
    7.3989  -14.9188   25.6718 C   0  0  2  0  0  0  0  0  0  0  0  0
    8.2816  -15.7310   24.8021 N   0  0  0  0  0  0  0  0  0  0  0  0
    7.7035  -16.1896   23.5749 C   0  0  0  0  0  0  0  0  0  0  0  0
    8.7330  -16.9252   25.5625 O   0  0  0  0  0  0  0  0  0  0  0  0
    7.9059  -17.6837   26.1773 C   0  0  0  0  0  0  0  0  0  0  0  0
   11.0668  -19.6220   24.2347 C   0  0  2  0  0  0  0  0  0  0  0  0
   11.6027  -19.1668   25.5755 O   0  0  0  0  0  0  0  0  0  0  0  0
   12.6627  -18.2803   25.4372 C   0  0  2  0  0  0  0  0  0  0  0  0
   10.5017  -18.5146   26.4128 N   0  0  0  0  0  0  0  0  0  0  0  0
   10.0932  -17.3265   25.6744 C   0  0  0  0  0  0  0  0  0  0  0  0
   10.9669  -18.2131   27.7589 O   0  0  0  0  0  0  0  0  0  0  0  0
   11.0589  -17.0300   28.1464 O   0  0  0  0  0  0  0  0  0  0  0  0
  2  1  1  0
  3  2  2  0
  4  2  1  0
  5  4  1  0
  6  5  1  0
  7  8  1  0
  7  6  1  0
  8 10  1  0
  8  9  1  1
 10 17  1  0
 11 10  2  0
 13 14  1  0
 13 12  1  0
 14 15  1  0
 16 15  1  6
 17 16  1  0
 18 19  2  0
 18 16  1  0
 21 20  1  1
 21 23  1  0
 21 22  1  0
 23 24  1  1
 24 18  1  0
 25 27  1  0
 25 23  1  0
 26 25  2  0
M  END
$$$$
