RMT.pdb
     RDKit          3D

 27 26  0  0  1  0  0  0  0  0999 V2000
    8.7466  -13.4097   20.5631 N   0  0  0  0  0  0  0  0  0  0  0  0
    9.7366  -13.3686   19.5387 C   0  0  0  0  0  0  0  0  0  0  0  0
   10.1081  -12.2598   18.9856 N   0  0  0  0  0  0  0  0  0  0  0  0
   10.3256  -14.5944   19.1271 N   0  0  0  0  0  0  0  0  0  0  0  0
    9.7331  -15.8216   19.5876 C   0  0  0  0  0  0  0  0  0  0  0  0
   10.1249  -16.0862   21.0454 C   0  0  0  0  0  0  0  0  0  0  0  0
   10.5568  -17.5301   21.2044 C   0  0  0  0  0  0  0  0  0  0  0  0
   11.2264  -17.6980   22.5519 C   0  0  2  0  0  0  0  0  0  0  0  0
   11.5699  -19.0889   22.6800 N   0  0  0  0  0  0  0  0  0  0  0  0
   10.3472  -17.2333   23.6516 C   0  0  0  0  0  0  0  0  0  0  0  0
    9.2415  -17.8085   23.9291 O   0  0  0  0  0  0  0  0  0  0  0  0
   10.7851  -12.3227   18.1976 C   0  0  0  0  0  0  0  0  0  0  0  0
   12.3705  -15.0159   29.5572 S   0  0  0  0  0  0  0  0  0  0  0  0
   10.8916  -14.0332   29.2309 C   0  0  0  0  0  0  0  0  0  0  0  0
    9.8784  -14.7754   27.9204 C   0  0  0  0  0  0  0  0  0  0  0  0
   10.7481  -15.1465   26.7179 C   0  0  2  0  0  0  0  0  0  0  0  0
    9.9420  -15.6963   25.6029 N   0  0  0  0  0  0  0  0  0  0  0  0
   10.6764  -16.1332   24.4539 C   0  0  0  0  0  0  0  0  0  0  0  0
    8.9774  -14.6587   25.1546 O   0  0  0  0  0  0  0  0  0  0  0  0
    9.3649  -13.5040   24.7624 C   0  0  0  0  0  0  0  0  0  0  0  0
    6.6152  -13.7317   22.5351 C   0  0  2  0  0  0  0  0  0  0  0  0
    5.7964  -13.9815   23.7840 O   0  0  0  0  0  0  0  0  0  0  0  0
    5.2795  -15.2700   23.8168 C   0  0  2  0  0  0  0  0  0  0  0  0
    6.6290  -13.7365   25.0430 N   0  0  0  0  0  0  0  0  0  0  0  0
    7.5679  -14.8484   25.1201 C   0  0  0  0  0  0  0  0  0  0  0  0
    5.7850  -13.6247   26.2240 O   0  0  0  0  0  0  0  0  0  0  0  0
    5.8077  -14.5097   27.1040 O   0  0  0  0  0  0  0  0  0  0  0  0
  2  1  1  0
  3  2  2  0
  4  2  1  0
  5  4  1  0
  6  5  1  0
  7  8  1  0
  7  6  1  0
  8 10  1  0
  8  9  1  1
 10 17  1  0
 11 10  2  0
 13 14  1  0
 13 12  1  0
 14 15  1  0
 16 15  1  1
 17 16  1  0
 18 19  2  0
 18 16  1  0
 21 20  1  6
 21 23  1  0
 21 22  1  0
 23 24  1  1
 24 18  1  0
 25 27  1  0
 25 23  1  0
 26 25  2  0
M  END
$$$$
