RMT.pdb
     RDKit          3D

 27 26  0  0  1  0  0  0  0  0999 V2000
    8.0992  -15.0891   15.3303 N   0  0  0  0  0  0  0  0  0  0  0  0
    8.0560  -13.7004   15.6474 C   0  0  0  0  0  0  0  0  0  0  0  0
    8.0413  -12.7863   14.7321 N   0  0  0  0  0  0  0  0  0  0  0  0
    8.0252  -13.3270   17.0179 N   0  0  0  0  0  0  0  0  0  0  0  0
    8.0514  -14.3708   18.0075 C   0  0  0  0  0  0  0  0  0  0  0  0
    6.9510  -14.1423   19.0495 C   0  0  0  0  0  0  0  0  0  0  0  0
    7.5765  -13.7899   20.3841 C   0  0  0  0  0  0  0  0  0  0  0  0
    8.1413  -15.0475   21.0103 C   0  0  2  0  0  0  0  0  0  0  0  0
    7.0748  -16.0119   21.0511 N   0  0  0  0  0  0  0  0  0  0  0  0
    8.7026  -14.7740   22.3551 C   0  0  0  0  0  0  0  0  0  0  0  0
    9.8129  -14.1650   22.5189 O   0  0  0  0  0  0  0  0  0  0  0  0
    8.0506  -11.7945   15.0477 C   0  0  0  0  0  0  0  0  0  0  0  0
    7.2846  -11.7001   28.0296 S   0  0  0  0  0  0  0  0  0  0  0  0
    6.2853  -12.0870   26.5767 C   0  0  0  0  0  0  0  0  0  0  0  0
    7.2591  -12.9548   25.3143 C   0  0  0  0  0  0  0  0  0  0  0  0
    7.6944  -14.3290   25.8261 C   0  0  2  0  0  0  0  0  0  0  0  0
    8.5695  -15.0272   24.8556 N   0  0  0  0  0  0  0  0  0  0  0  0
    8.0482  -15.1680   23.5293 C   0  0  0  0  0  0  0  0  0  0  0  0
    8.8635  -16.3891   25.3720 O   0  0  0  0  0  0  0  0  0  0  0  0
    7.9356  -17.2457   25.5780 C   0  0  0  0  0  0  0  0  0  0  0  0
   10.7963  -19.1627   24.0492 C   0  0  2  0  0  0  0  0  0  0  0  0
   11.4099  -18.8726   25.4025 O   0  0  0  0  0  0  0  0  0  0  0  0
   12.5720  -18.1199   25.2952 C   0  0  2  0  0  0  0  0  0  0  0  0
   10.4165  -18.1458   26.3101 N   0  0  0  0  0  0  0  0  0  0  0  0
   10.1722  -16.8558   25.6776 C   0  0  0  0  0  0  0  0  0  0  0  0
   10.9290  -18.0235   27.6672 O   0  0  0  0  0  0  0  0  0  0  0  0
   11.2014  -16.9016   28.1420 O   0  0  0  0  0  0  0  0  0  0  0  0
  2  1  1  0
  3  2  2  0
  4  2  1  0
  5  4  1  0
  6  5  1  0
  7  8  1  0
  7  6  1  0
  8 10  1  0
  8  9  1  1
 10 17  1  0
 11 10  2  0
 13 14  1  0
 13 12  1  0
 14 15  1  0
 16 15  1  6
 17 16  1  0
 18 19  2  0
 18 16  1  0
 21 20  1  6
 21 23  1  0
 21 22  1  0
 23 24  1  1
 24 18  1  0
 25 27  1  0
 25 23  1  0
 26 25  2  0
M  END
$$$$
