IEC.pdb
     RDKit          3D

 24 23  0  0  1  0  0  0  0  0999 V2000
    7.2436  -12.5225   17.9969 C   0  0  0  0  0  0  0  0  0  0  0  0
    8.1631  -13.5504   18.5693 C   0  0  0  0  0  0  0  0  0  0  0  0
    7.8078  -13.9139   19.9989 C   0  0  2  0  0  0  0  0  0  0  0  0
    7.9518  -12.7130   20.9222 C   0  0  0  0  0  0  0  0  0  0  0  0
    8.7907  -14.9545   20.4980 C   0  0  2  0  0  0  0  0  0  0  0  0
    8.6913  -16.0887   19.5982 N   0  0  0  0  0  0  0  0  0  0  0  0
    8.5119  -15.4055   21.8572 C   0  0  0  0  0  0  0  0  0  0  0  0
    7.4220  -15.1005   22.4516 O   0  0  0  0  0  0  0  0  0  0  0  0
    9.3723  -16.1993   22.6504 N   0  0  0  0  0  0  0  0  0  0  0  0
    9.1816  -16.5735   23.9978 C   0  0  1  0  0  0  0  0  0  0  0  0
    9.9736  -17.7243   24.5078 C   0  0  0  0  0  0  0  0  0  0  0  0
   10.6184  -18.5242   23.3686 C   0  0  0  0  0  0  0  0  0  0  0  0
   11.9611  -18.9874   23.7556 C   0  0  0  0  0  0  0  0  0  0  0  0
   12.0802  -19.8941   24.5973 O   0  0  0  0  0  0  0  0  0  0  0  0
    9.4949  -15.3947   24.8439 C   0  0  0  0  0  0  0  0  0  0  0  0
   10.6091  -14.8323   24.7288 O   0  0  0  0  0  0  0  0  0  0  0  0
   13.0770  -18.4236   23.1925 O   0  0  0  0  0  0  0  0  0  0  0  0
    8.5605  -14.8763   25.7922 N   0  0  0  0  0  0  0  0  0  0  0  0
    8.9747  -13.8187   26.6925 C   0  0  1  0  0  0  0  0  0  0  0  0
    7.9967  -12.6751   26.5450 C   0  0  0  0  0  0  0  0  0  0  0  0
    6.2887  -13.2660   26.5884 S   0  0  0  0  0  0  0  0  0  0  0  0
    9.0550  -14.2986   28.0958 C   0  0  0  0  0  0  0  0  0  0  0  0
    8.6959  -15.5690   28.4816 O   0  0  0  0  0  0  0  0  0  0  0  0
    9.4720  -13.4971   28.9618 O   0  0  0  0  0  0  0  0  0  0  0  0
  2  1  1  0
  3  2  1  0
  3  4  1  1
  5  7  1  0
  5  3  1  0
  5  6  1  6
  7  8  2  0
  9 10  1  0
  9  7  1  0
 11 12  1  0
 10 11  1  1
 12 13  1  0
 13 14  2  0
 13 17  1  0
 15 10  1  0
 16 15  2  0
 18 15  1  0
 19 18  1  0
 19 20  1  1
 20 21  1  0
 22 19  1  0
 23 22  1  0
 24 22  2  0
M  END
$$$$
