IEC.pdb
     RDKit          3D

 24 23  0  0  1  0  0  0  0  0999 V2000
    7.3026  -12.1569   18.8062 C   0  0  0  0  0  0  0  0  0  0  0  0
    7.5651  -13.5991   19.0905 C   0  0  0  0  0  0  0  0  0  0  0  0
    7.3559  -13.9491   20.5519 C   0  0  2  0  0  0  0  0  0  0  0  0
    8.2964  -13.1547   21.4463 C   0  0  0  0  0  0  0  0  0  0  0  0
    7.7035  -15.4098   20.7599 C   0  0  2  0  0  0  0  0  0  0  0  0
    6.6749  -16.1837   20.0898 N   0  0  0  0  0  0  0  0  0  0  0  0
    7.7444  -15.7979   22.1657 C   0  0  0  0  0  0  0  0  0  0  0  0
    6.7101  -15.7132   22.9123 O   0  0  0  0  0  0  0  0  0  0  0  0
    8.8803  -16.2934   22.8468 N   0  0  0  0  0  0  0  0  0  0  0  0
    8.9809  -16.5989   24.2211 C   0  0  1  0  0  0  0  0  0  0  0  0
   10.0102  -17.5920   24.6284 C   0  0  0  0  0  0  0  0  0  0  0  0
   10.0267  -17.8083   26.1471 C   0  0  0  0  0  0  0  0  0  0  0  0
   11.0445  -18.8051   26.5178 C   0  0  0  0  0  0  0  0  0  0  0  0
   12.1484  -18.4272   26.9460 O   0  0  0  0  0  0  0  0  0  0  0  0
    9.2565  -15.3339   24.9472 C   0  0  0  0  0  0  0  0  0  0  0  0
   10.1727  -14.5793   24.5447 O   0  0  0  0  0  0  0  0  0  0  0  0
   10.7796  -20.1447   26.3927 O   0  0  0  0  0  0  0  0  0  0  0  0
    8.5055  -14.9455   26.0989 N   0  0  0  0  0  0  0  0  0  0  0  0
    8.8690  -13.7356   26.8093 C   0  0  1  0  0  0  0  0  0  0  0  0
    7.6452  -12.8497   26.8721 C   0  0  0  0  0  0  0  0  0  0  0  0
    6.1770  -13.7955   27.3388 S   0  0  0  0  0  0  0  0  0  0  0  0
    9.4014  -14.0379   28.1624 C   0  0  0  0  0  0  0  0  0  0  0  0
    9.4601  -15.3089   28.6847 O   0  0  0  0  0  0  0  0  0  0  0  0
    9.8145  -13.0791   28.8527 O   0  0  0  0  0  0  0  0  0  0  0  0
  2  1  1  0
  3  2  1  0
  3  4  1  1
  5  7  1  0
  5  3  1  0
  5  6  1  6
  7  8  2  0
  9 10  1  0
  9  7  1  0
 11 12  1  0
 10 11  1  6
 12 13  1  0
 13 14  2  0
 13 17  1  0
 15 10  1  0
 16 15  2  0
 18 15  1  0
 19 18  1  0
 19 20  1  1
 20 21  1  0
 22 19  1  0
 23 22  1  0
 24 22  2  0
M  END
$$$$
