IEC.pdb
     RDKit          3D

 24 23  0  0  1  0  0  0  0  0999 V2000
    5.9536  -11.5856   26.7810 C   0  0  0  0  0  0  0  0  0  0  0  0
    5.8233  -12.8022   25.9250 C   0  0  0  0  0  0  0  0  0  0  0  0
    7.0881  -13.6401   25.9125 C   0  0  2  0  0  0  0  0  0  0  0  0
    8.2381  -12.8879   25.2588 C   0  0  0  0  0  0  0  0  0  0  0  0
    6.8497  -14.8735   25.0641 C   0  0  2  0  0  0  0  0  0  0  0  0
    5.6886  -15.5443   25.6189 N   0  0  0  0  0  0  0  0  0  0  0  0
    7.9757  -15.8012   25.0665 C   0  0  0  0  0  0  0  0  0  0  0  0
    8.1921  -16.5861   26.0521 O   0  0  0  0  0  0  0  0  0  0  0  0
    8.9245  -15.9418   24.0275 N   0  0  0  0  0  0  0  0  0  0  0  0
   10.0675  -16.7698   24.0267 C   0  0  1  0  0  0  0  0  0  0  0  0
   10.9140  -16.7675   22.8039 C   0  0  0  0  0  0  0  0  0  0  0  0
   12.1763  -17.6212   22.9809 C   0  0  0  0  0  0  0  0  0  0  0  0
   12.9668  -17.6415   21.7392 C   0  0  0  0  0  0  0  0  0  0  0  0
   14.0500  -17.0343   21.6895 O   0  0  0  0  0  0  0  0  0  0  0  0
   10.9208  -16.3650   25.1718 C   0  0  0  0  0  0  0  0  0  0  0  0
   11.5344  -15.2729   25.1273 O   0  0  0  0  0  0  0  0  0  0  0  0
   12.5134  -18.3260   20.6409 O   0  0  0  0  0  0  0  0  0  0  0  0
   11.0666  -17.1859   26.3320 N   0  0  0  0  0  0  0  0  0  0  0  0
   11.6759  -16.6299   27.5237 C   0  0  1  0  0  0  0  0  0  0  0  0
   10.7686  -15.5365   28.0410 C   0  0  0  0  0  0  0  0  0  0  0  0
   11.4428  -14.7820   29.5391 S   0  0  0  0  0  0  0  0  0  0  0  0
   11.9193  -17.6761   28.5495 C   0  0  0  0  0  0  0  0  0  0  0  0
   12.7091  -17.4781   29.6580 O   0  0  0  0  0  0  0  0  0  0  0  0
   11.3727  -18.7900   28.3856 O   0  0  0  0  0  0  0  0  0  0  0  0
  2  1  1  0
  3  2  1  0
  3  4  1  6
  5  7  1  0
  5  3  1  0
  5  6  1  1
  7  8  2  0
  9 10  1  0
  9  7  1  0
 11 12  1  0
 10 11  1  6
 12 13  1  0
 13 14  2  0
 13 17  1  0
 15 10  1  0
 16 15  2  0
 18 15  1  0
 19 18  1  0
 19 20  1  1
 20 21  1  0
 22 19  1  0
 23 22  1  0
 24 22  2  0
M  END
$$$$
