IEC.pdb
     RDKit          3D

 24 23  0  0  1  0  0  0  0  0999 V2000
    7.7832  -11.9082   22.4439 C   0  0  0  0  0  0  0  0  0  0  0  0
    7.6173  -13.3694   22.1844 C   0  0  0  0  0  0  0  0  0  0  0  0
    8.3672  -13.8271   20.9474 C   0  0  2  0  0  0  0  0  0  0  0  0
    7.7395  -13.2579   19.6835 C   0  0  0  0  0  0  0  0  0  0  0  0
    8.2544  -15.3347   20.8367 C   0  0  2  0  0  0  0  0  0  0  0  0
    6.8397  -15.6416   20.7346 N   0  0  0  0  0  0  0  0  0  0  0  0
    8.8077  -16.0402   21.9877 C   0  0  0  0  0  0  0  0  0  0  0  0
    8.0622  -16.4464   22.9435 O   0  0  0  0  0  0  0  0  0  0  0  0
   10.1741  -16.3485   22.1812 N   0  0  0  0  0  0  0  0  0  0  0  0
   10.7514  -16.9849   23.3010 C   0  0  1  0  0  0  0  0  0  0  0  0
   12.0826  -17.6216   23.1161 C   0  0  0  0  0  0  0  0  0  0  0  0
   12.0170  -18.8146   22.1539 C   0  0  0  0  0  0  0  0  0  0  0  0
   13.3557  -19.3931   21.9532 C   0  0  0  0  0  0  0  0  0  0  0  0
   14.2069  -19.3013   22.8542 O   0  0  0  0  0  0  0  0  0  0  0  0
   10.8761  -15.9748   24.3816 C   0  0  0  0  0  0  0  0  0  0  0  0
   11.5387  -14.9310   24.1759 O   0  0  0  0  0  0  0  0  0  0  0  0
   13.6656  -20.0309   20.7796 O   0  0  0  0  0  0  0  0  0  0  0  0
   10.2606  -16.1552   25.6582 N   0  0  0  0  0  0  0  0  0  0  0  0
   10.4925  -15.1780   26.7032 C   0  0  1  0  0  0  0  0  0  0  0  0
    9.2502  -14.3246   26.8235 C   0  0  0  0  0  0  0  0  0  0  0  0
    9.4363  -13.0786   28.1200 S   0  0  0  0  0  0  0  0  0  0  0  0
   10.8406  -15.8305   27.9912 C   0  0  0  0  0  0  0  0  0  0  0  0
   11.5594  -15.2067   28.9841 O   0  0  0  0  0  0  0  0  0  0  0  0
   10.4547  -17.0075   28.1702 O   0  0  0  0  0  0  0  0  0  0  0  0
  2  1  1  0
  3  2  1  0
  3  4  1  6
  5  7  1  0
  5  3  1  0
  5  6  1  1
  7  8  2  0
  9 10  1  0
  9  7  1  0
 11 12  1  0
 10 11  1  6
 12 13  1  0
 13 14  2  0
 13 17  1  0
 15 10  1  0
 16 15  2  0
 18 15  1  0
 19 18  1  0
 19 20  1  1
 20 21  1  0
 22 19  1  0
 23 22  1  0
 24 22  2  0
M  END
$$$$
