IEC.pdb
     RDKit          3D

 24 23  0  0  1  0  0  0  0  0999 V2000
    7.2515  -12.1024   19.2587 C   0  0  0  0  0  0  0  0  0  0  0  0
    7.6017  -13.5486   19.3835 C   0  0  0  0  0  0  0  0  0  0  0  0
    7.7249  -13.9925   20.8291 C   0  0  2  0  0  0  0  0  0  0  0  0
    8.8377  -13.2379   21.5417 C   0  0  0  0  0  0  0  0  0  0  0  0
    8.1162  -15.4566   20.8599 C   0  0  2  0  0  0  0  0  0  0  0  0
    6.9956  -16.2002   20.3145 N   0  0  0  0  0  0  0  0  0  0  0  0
    8.3994  -15.9493   22.2036 C   0  0  0  0  0  0  0  0  0  0  0  0
    7.4643  -16.1511   23.0518 O   0  0  0  0  0  0  0  0  0  0  0  0
    9.6837  -16.2514   22.7124 N   0  0  0  0  0  0  0  0  0  0  0  0
    9.9934  -16.7528   23.9949 C   0  0  1  0  0  0  0  0  0  0  0  0
   11.2193  -17.5841   24.1276 C   0  0  0  0  0  0  0  0  0  0  0  0
   11.3942  -18.1213   25.5540 C   0  0  0  0  0  0  0  0  0  0  0  0
   12.5592  -19.0179   25.6311 C   0  0  0  0  0  0  0  0  0  0  0  0
   12.3865  -20.2395   25.7814 O   0  0  0  0  0  0  0  0  0  0  0  0
   10.1270  -15.5947   24.9138 C   0  0  0  0  0  0  0  0  0  0  0  0
   11.0090  -14.7318   24.6936 O   0  0  0  0  0  0  0  0  0  0  0  0
   13.8301  -18.5114   25.5381 O   0  0  0  0  0  0  0  0  0  0  0  0
    9.2764  -15.4304   26.0499 N   0  0  0  0  0  0  0  0  0  0  0  0
    9.5214  -14.3364   26.9685 C   0  0  1  0  0  0  0  0  0  0  0  0
    8.2114  -13.6144   27.1892 C   0  0  0  0  0  0  0  0  0  0  0  0
    7.4774  -13.0978   25.6199 S   0  0  0  0  0  0  0  0  0  0  0  0
   10.1076  -14.8185   28.2452 C   0  0  0  0  0  0  0  0  0  0  0  0
   10.4564  -13.9820   29.2799 O   0  0  0  0  0  0  0  0  0  0  0  0
   10.2886  -16.0501   28.3740 O   0  0  0  0  0  0  0  0  0  0  0  0
  2  1  1  0
  3  2  1  0
  3  4  1  6
  5  7  1  0
  5  3  1  0
  5  6  1  1
  7  8  2  0
  9 10  1  0
  9  7  1  0
 11 12  1  0
 10 11  1  6
 12 13  1  0
 13 14  2  0
 13 17  1  0
 15 10  1  0
 16 15  2  0
 18 15  1  0
 19 18  1  0
 19 20  1  1
 20 21  1  0
 22 19  1  0
 23 22  1  0
 24 22  2  0
M  END
$$$$
