IEC.pdb
     RDKit          3D

 24 23  0  0  1  0  0  0  0  0999 V2000
    5.9535  -11.3980   26.6371 C   0  0  0  0  0  0  0  0  0  0  0  0
    5.7776  -12.6688   25.8730 C   0  0  0  0  0  0  0  0  0  0  0  0
    7.0402  -13.5099   25.8485 C   0  0  2  0  0  0  0  0  0  0  0  0
    8.1551  -12.8036   25.0912 C   0  0  0  0  0  0  0  0  0  0  0  0
    6.7588  -14.7931   25.0924 C   0  0  2  0  0  0  0  0  0  0  0  0
    5.6674  -15.4546   25.7832 N   0  0  0  0  0  0  0  0  0  0  0  0
    7.9031  -15.6970   25.0452 C   0  0  0  0  0  0  0  0  0  0  0  0
    8.1402  -16.5241   25.9907 O   0  0  0  0  0  0  0  0  0  0  0  0
    8.8492  -15.7680   23.9966 N   0  0  0  0  0  0  0  0  0  0  0  0
    9.9489  -16.6476   23.9024 C   0  0  1  0  0  0  0  0  0  0  0  0
   10.7391  -16.6237   22.6428 C   0  0  0  0  0  0  0  0  0  0  0  0
   11.9388  -17.5781   22.7022 C   0  0  0  0  0  0  0  0  0  0  0  0
   12.6680  -17.5746   21.4234 C   0  0  0  0  0  0  0  0  0  0  0  0
   12.1190  -18.0196   20.4010 O   0  0  0  0  0  0  0  0  0  0  0  0
   10.8713  -16.3413   25.0243 C   0  0  0  0  0  0  0  0  0  0  0  0
   11.4303  -15.2206   25.0740 O   0  0  0  0  0  0  0  0  0  0  0  0
   13.9466  -17.0837   21.3568 O   0  0  0  0  0  0  0  0  0  0  0  0
   11.1448  -17.2896   26.0573 N   0  0  0  0  0  0  0  0  0  0  0  0
   11.6446  -16.8236   27.3354 C   0  0  1  0  0  0  0  0  0  0  0  0
   10.6219  -15.8718   27.9138 C   0  0  0  0  0  0  0  0  0  0  0  0
   11.2585  -15.0472   29.3912 S   0  0  0  0  0  0  0  0  0  0  0  0
   11.9272  -17.9553   28.2549 C   0  0  0  0  0  0  0  0  0  0  0  0
   12.7119  -17.8381   29.3784 O   0  0  0  0  0  0  0  0  0  0  0  0
   11.4199  -19.0665   27.9829 O   0  0  0  0  0  0  0  0  0  0  0  0
  2  1  1  0
  3  2  1  0
  3  4  1  6
  5  7  1  0
  5  3  1  0
  5  6  1  1
  7  8  2  0
  9 10  1  0
  9  7  1  0
 11 12  1  0
 10 11  1  6
 12 13  1  0
 13 14  2  0
 13 17  1  0
 15 10  1  0
 16 15  2  0
 18 15  1  0
 19 18  1  0
 19 20  1  1
 20 21  1  0
 22 19  1  0
 23 22  1  0
 24 22  2  0
M  END
$$$$
