IEC.pdb
     RDKit          3D

 24 23  0  0  1  0  0  0  0  0999 V2000
    7.2951  -11.8440   18.6517 C   0  0  0  0  0  0  0  0  0  0  0  0
    7.7615  -13.1989   18.2317 C   0  0  0  0  0  0  0  0  0  0  0  0
    8.1613  -14.0655   19.4112 C   0  0  2  0  0  0  0  0  0  0  0  0
    9.2798  -13.4173   20.2139 C   0  0  0  0  0  0  0  0  0  0  0  0
    8.7164  -15.3761   18.8897 C   0  0  2  0  0  0  0  0  0  0  0  0
    7.6483  -16.0147   18.1431 N   0  0  0  0  0  0  0  0  0  0  0  0
    9.1555  -16.2783   19.9489 C   0  0  0  0  0  0  0  0  0  0  0  0
    8.3171  -16.9207   20.6691 O   0  0  0  0  0  0  0  0  0  0  0  0
   10.5007  -16.5427   20.2953 N   0  0  0  0  0  0  0  0  0  0  0  0
   10.9644  -17.4552   21.2672 C   0  0  1  0  0  0  0  0  0  0  0  0
   12.3479  -17.9779   21.1110 C   0  0  0  0  0  0  0  0  0  0  0  0
   12.6636  -19.0749   22.1359 C   0  0  0  0  0  0  0  0  0  0  0  0
   14.0408  -19.5654   21.9627 C   0  0  0  0  0  0  0  0  0  0  0  0
   14.8832  -19.3608   22.8533 O   0  0  0  0  0  0  0  0  0  0  0  0
   10.8757  -16.7904   22.5914 C   0  0  0  0  0  0  0  0  0  0  0  0
   11.6546  -15.8458   22.8601 O   0  0  0  0  0  0  0  0  0  0  0  0
   14.3960  -20.2449   20.8259 O   0  0  0  0  0  0  0  0  0  0  0  0
    9.9242  -17.1952   23.5772 N   0  0  0  0  0  0  0  0  0  0  0  0
    9.9021  -16.5236   24.8614 C   0  0  1  0  0  0  0  0  0  0  0  0
    8.4560  -16.3119   25.2487 C   0  0  0  0  0  0  0  0  0  0  0  0
    7.6366  -15.1666   24.1152 S   0  0  0  0  0  0  0  0  0  0  0  0
   10.6422  -17.2953   25.8922 C   0  0  0  0  0  0  0  0  0  0  0  0
   10.8328  -16.8480   27.1788 O   0  0  0  0  0  0  0  0  0  0  0  0
   11.1113  -18.4074   25.5612 O   0  0  0  0  0  0  0  0  0  0  0  0
  2  1  1  0
  3  2  1  0
  3  4  1  6
  5  7  1  0
  5  3  1  0
  5  6  1  1
  7  8  2  0
  9 10  1  0
  9  7  1  0
 11 12  1  0
 10 11  1  6
 12 13  1  0
 13 14  2  0
 13 17  1  0
 15 10  1  0
 16 15  2  0
 18 15  1  0
 19 18  1  0
 19 20  1  1
 20 21  1  0
 22 19  1  0
 23 22  1  0
 24 22  2  0
M  END
$$$$
