IEC.pdb
     RDKit          3D

 24 23  0  0  1  0  0  0  0  0999 V2000
    8.0225  -12.0824   27.5745 C   0  0  0  0  0  0  0  0  0  0  0  0
    7.5265  -13.3706   27.0050 C   0  0  0  0  0  0  0  0  0  0  0  0
    7.1643  -13.2537   25.5363 C   0  0  2  0  0  0  0  0  0  0  0  0
    5.9580  -12.3473   25.3394 C   0  0  0  0  0  0  0  0  0  0  0  0
    6.7579  -14.6206   25.0222 C   0  0  2  0  0  0  0  0  0  0  0  0
    5.7354  -15.1190   25.9233 N   0  0  0  0  0  0  0  0  0  0  0  0
    7.8611  -15.5747   24.9875 C   0  0  0  0  0  0  0  0  0  0  0  0
    7.9855  -16.4844   25.8771 O   0  0  0  0  0  0  0  0  0  0  0  0
    8.8833  -15.6111   24.0110 N   0  0  0  0  0  0  0  0  0  0  0  0
    9.9708  -16.5087   23.9523 C   0  0  1  0  0  0  0  0  0  0  0  0
   10.8017  -16.4984   22.7189 C   0  0  0  0  0  0  0  0  0  0  0  0
   11.9115  -17.5564   22.7682 C   0  0  0  0  0  0  0  0  0  0  0  0
   12.6792  -17.5614   21.5121 C   0  0  0  0  0  0  0  0  0  0  0  0
   13.9213  -17.5773   21.5503 O   0  0  0  0  0  0  0  0  0  0  0  0
   10.8614  -16.2171   25.1035 C   0  0  0  0  0  0  0  0  0  0  0  0
   11.5440  -15.1659   25.1037 O   0  0  0  0  0  0  0  0  0  0  0  0
   12.0304  -17.5488   20.3041 O   0  0  0  0  0  0  0  0  0  0  0  0
   10.9666  -17.1025   26.2199 N   0  0  0  0  0  0  0  0  0  0  0  0
   11.9421  -16.8268   27.2558 C   0  0  1  0  0  0  0  0  0  0  0  0
   11.6081  -15.4819   27.8607 C   0  0  0  0  0  0  0  0  0  0  0  0
   10.1884  -15.6002   28.9735 S   0  0  0  0  0  0  0  0  0  0  0  0
   11.9667  -17.9019   28.2804 C   0  0  0  0  0  0  0  0  0  0  0  0
   12.8640  -17.9321   29.3223 O   0  0  0  0  0  0  0  0  0  0  0  0
   11.1234  -18.8210   28.1797 O   0  0  0  0  0  0  0  0  0  0  0  0
  2  1  1  0
  3  2  1  0
  3  4  1  1
  5  7  1  0
  5  3  1  0
  5  6  1  1
  7  8  2  0
  9 10  1  0
  9  7  1  0
 11 12  1  0
 10 11  1  6
 12 13  1  0
 13 14  2  0
 13 17  1  0
 15 10  1  0
 16 15  2  0
 18 15  1  0
 19 18  1  0
 19 20  1  1
 20 21  1  0
 22 19  1  0
 23 22  1  0
 24 22  2  0
M  END
$$$$
