NVT.pdb
     RDKit          3D

 23 22  0  0  1  0  0  0  0  0999 V2000
   17.5749  -11.5959  -18.9798 N   0  0  0  0  0  0  0  0  0  0  0  0
   17.2084  -10.2595  -18.6266 C   0  0  0  0  0  0  0  0  0  0  0  0
   16.4668   -9.6278  -19.3816 O   0  0  0  0  0  0  0  0  0  0  0  0
   17.7375   -9.7184  -17.3843 C   0  0  0  0  0  0  0  0  0  0  0  0
   18.6797  -10.6863  -16.7240 C   0  0  2  0  0  0  0  0  0  0  0  0
   17.8929  -11.7870  -16.1189 N   0  0  0  0  0  0  0  0  0  0  0  0
   19.4119  -10.0848  -15.5839 C   0  0  0  0  0  0  0  0  0  0  0  0
   18.8968  -10.0360  -14.4282 O   0  0  0  0  0  0  0  0  0  0  0  0
   23.6658   -9.4709  -15.8595 C   0  0  0  0  0  0  0  0  0  0  0  0
   22.8383   -9.6884  -14.6236 C   0  0  2  0  0  0  0  0  0  0  0  0
   22.7117  -11.1348  -14.2577 C   0  0  0  0  0  0  0  0  0  0  0  0
   21.5065   -8.9758  -14.6778 C   0  0  2  0  0  0  0  0  0  0  0  0
   20.7022   -9.5558  -15.7754 N   0  0  0  0  0  0  0  0  0  0  0  0
   21.5779   -7.5408  -14.9578 C   0  0  0  0  0  0  0  0  0  0  0  0
   22.0625   -7.1299  -16.0760 O   0  0  0  0  0  0  0  0  0  0  0  0
   19.0347   -5.0222  -15.5359 C   0  0  0  0  0  0  0  0  0  0  0  0
   19.9039   -4.4881  -14.4164 C   0  0  1  0  0  0  0  0  0  0  0  0
   19.2883   -4.6469  -13.1769 O   0  0  0  0  0  0  0  0  0  0  0  0
   21.2943   -5.0853  -14.4557 C   0  0  2  0  0  0  0  0  0  0  0  0
   21.1559   -6.4879  -14.1077 N   0  0  0  0  0  0  0  0  0  0  0  0
   22.2201   -4.3832  -13.5361 C   0  0  0  0  0  0  0  0  0  0  0  0
   22.5947   -3.0639  -13.7422 O   0  0  0  0  0  0  0  0  0  0  0  0
   22.7203   -4.9479  -12.5118 O   0  0  0  0  0  0  0  0  0  0  0  0
  2  1  1  0
  3  2  2  0
  4  2  1  0
  4  5  1  0
  5  6  1  1
  7  8  2  0
  7  5  1  0
 10  9  1  6
 10 12  1  0
 11 10  1  0
 12 13  1  6
 13  7  1  0
 14 12  1  0
 15 14  2  0
 17 16  1  6
 17 19  1  0
 18 17  1  0
 19 21  1  0
 19 20  1  1
 20 14  1  0
 21 22  1  0
 23 21  2  0
M  END
$$$$
