NVT.pdb
     RDKit          3D

 23 22  0  0  1  0  0  0  0  0999 V2000
   16.5514  -11.2148  -19.0400 N   0  0  0  0  0  0  0  0  0  0  0  0
   16.7189  -12.1793  -17.9975 C   0  0  0  0  0  0  0  0  0  0  0  0
   15.9337  -13.1271  -17.9336 O   0  0  0  0  0  0  0  0  0  0  0  0
   17.8173  -11.9832  -17.0641 C   0  0  0  0  0  0  0  0  0  0  0  0
   18.6068  -10.7488  -17.4006 C   0  0  2  0  0  0  0  0  0  0  0  0
   19.6986  -11.1153  -18.3336 N   0  0  0  0  0  0  0  0  0  0  0  0
   19.3027  -10.1760  -16.2236 C   0  0  0  0  0  0  0  0  0  0  0  0
   18.6789   -9.9335  -15.1487 O   0  0  0  0  0  0  0  0  0  0  0  0
   22.4057  -11.6930  -14.6714 C   0  0  0  0  0  0  0  0  0  0  0  0
   22.7064  -10.2567  -14.9968 C   0  0  2  0  0  0  0  0  0  0  0  0
   23.7254   -9.6553  -14.0792 C   0  0  0  0  0  0  0  0  0  0  0  0
   21.4595   -9.4123  -15.1266 C   0  0  2  0  0  0  0  0  0  0  0  0
   20.6800   -9.8925  -16.2884 N   0  0  0  0  0  0  0  0  0  0  0  0
   21.6934   -7.9881  -15.3709 C   0  0  0  0  0  0  0  0  0  0  0  0
   22.3748   -7.6178  -16.3968 O   0  0  0  0  0  0  0  0  0  0  0  0
   19.6739   -5.3610  -16.4916 C   0  0  0  0  0  0  0  0  0  0  0  0
   20.2723   -4.8232  -15.2084 C   0  0  1  0  0  0  0  0  0  0  0  0
   19.3505   -4.8606  -14.1646 O   0  0  0  0  0  0  0  0  0  0  0  0
   21.5707   -5.5205  -14.8626 C   0  0  2  0  0  0  0  0  0  0  0  0
   21.2379   -6.9047  -14.5782 N   0  0  0  0  0  0  0  0  0  0  0  0
   22.2521   -4.8759  -13.7156 C   0  0  0  0  0  0  0  0  0  0  0  0
   22.8012   -3.6060  -13.8110 O   0  0  0  0  0  0  0  0  0  0  0  0
   22.3709   -5.4478  -12.5855 O   0  0  0  0  0  0  0  0  0  0  0  0
  2  1  1  0
  3  2  2  0
  4  2  1  0
  4  5  1  0
  5  6  1  6
  7  8  2  0
  7  5  1  0
 10  9  1  1
 10 12  1  0
 11 10  1  0
 12 13  1  6
 13  7  1  0
 14 12  1  0
 15 14  2  0
 17 16  1  6
 17 19  1  0
 18 17  1  0
 19 21  1  0
 19 20  1  1
 20 14  1  0
 21 22  1  0
 23 21  2  0
M  END
$$$$
