NVT.pdb
     RDKit          3D

 23 22  0  0  1  0  0  0  0  0999 V2000
   16.5445  -13.1268  -20.5061 N   0  0  0  0  0  0  0  0  0  0  0  0
   17.8954  -12.8436  -20.1317 C   0  0  0  0  0  0  0  0  0  0  0  0
   18.7985  -13.0941  -20.9321 O   0  0  0  0  0  0  0  0  0  0  0  0
   18.1269  -12.2707  -18.8147 C   0  0  0  0  0  0  0  0  0  0  0  0
   19.1363  -13.0714  -18.0400 C   0  0  2  0  0  0  0  0  0  0  0  0
   18.4734  -14.2767  -17.4881 N   0  0  0  0  0  0  0  0  0  0  0  0
   19.6457  -12.3512  -16.8486 C   0  0  0  0  0  0  0  0  0  0  0  0
   19.1883  -12.5929  -15.6928 O   0  0  0  0  0  0  0  0  0  0  0  0
   23.0928  -12.4454  -15.7064 C   0  0  0  0  0  0  0  0  0  0  0  0
   22.7741  -10.9853  -15.8678 C   0  0  2  0  0  0  0  0  0  0  0  0
   23.5521  -10.1149  -14.9302 C   0  0  0  0  0  0  0  0  0  0  0  0
   21.2895  -10.7033  -15.8383 C   0  0  2  0  0  0  0  0  0  0  0  0
   20.6549  -11.3802  -16.9903 N   0  0  0  0  0  0  0  0  0  0  0  0
   20.9203   -9.2919  -15.9586 C   0  0  0  0  0  0  0  0  0  0  0  0
   21.2534   -8.6302  -17.0099 O   0  0  0  0  0  0  0  0  0  0  0  0
   17.5659   -7.6185  -16.0751 C   0  0  0  0  0  0  0  0  0  0  0  0
   18.3820   -6.9854  -14.9673 C   0  0  1  0  0  0  0  0  0  0  0  0
   18.0060   -7.4737  -13.7181 O   0  0  0  0  0  0  0  0  0  0  0  0
   19.8682   -7.1213  -15.2213 C   0  0  2  0  0  0  0  0  0  0  0  0
   20.2009   -8.5190  -15.0129 N   0  0  0  0  0  0  0  0  0  0  0  0
   20.6600   -6.2337  -14.3377 C   0  0  0  0  0  0  0  0  0  0  0  0
   20.6407   -4.8543  -14.4797 O   0  0  0  0  0  0  0  0  0  0  0  0
   21.3978   -6.6846  -13.4045 O   0  0  0  0  0  0  0  0  0  0  0  0
  2  1  1  0
  3  2  2  0
  4  2  1  0
  4  5  1  0
  5  6  1  1
  7  8  2  0
  7  5  1  0
 10  9  1  1
 10 12  1  0
 11 10  1  0
 12 13  1  6
 13  7  1  0
 14 12  1  0
 15 14  2  0
 17 16  1  6
 17 19  1  0
 18 17  1  0
 19 21  1  0
 19 20  1  1
 20 14  1  0
 21 22  1  0
 23 21  2  0
M  END
$$$$
