NVT.pdb
     RDKit          3D

 23 22  0  0  1  0  0  0  0  0999 V2000
   15.8185  -12.6621  -16.3954 N   0  0  0  0  0  0  0  0  0  0  0  0
   16.0877  -12.1375  -15.0925 C   0  0  0  0  0  0  0  0  0  0  0  0
   15.1810  -12.1264  -14.2578 O   0  0  0  0  0  0  0  0  0  0  0  0
   17.4294  -11.6427  -14.8260 C   0  0  0  0  0  0  0  0  0  0  0  0
   18.2805  -11.6761  -16.0650 C   0  0  2  0  0  0  0  0  0  0  0  0
   18.6751  -13.0781  -16.3400 N   0  0  0  0  0  0  0  0  0  0  0  0
   19.5655  -10.9564  -15.8963 C   0  0  0  0  0  0  0  0  0  0  0  0
   20.5822  -11.5372  -15.4143 O   0  0  0  0  0  0  0  0  0  0  0  0
   20.5354   -7.9414  -18.5400 C   0  0  0  0  0  0  0  0  0  0  0  0
   21.4670   -8.7144  -17.6489 C   0  0  2  0  0  0  0  0  0  0  0  0
   21.8908  -10.0202  -18.2465 C   0  0  0  0  0  0  0  0  0  0  0  0
   20.9452   -8.8544  -16.2372 C   0  0  2  0  0  0  0  0  0  0  0  0
   19.6709   -9.6047  -16.2745 N   0  0  0  0  0  0  0  0  0  0  0  0
   20.6405   -7.5945  -15.5571 C   0  0  0  0  0  0  0  0  0  0  0  0
   19.5444   -6.9746  -15.8182 O   0  0  0  0  0  0  0  0  0  0  0  0
   20.0848   -7.0061  -12.0390 C   0  0  0  0  0  0  0  0  0  0  0  0
   21.0897   -5.9519  -12.4544 C   0  0  1  0  0  0  0  0  0  0  0  0
   22.3694   -6.2651  -12.0018 O   0  0  0  0  0  0  0  0  0  0  0  0
   21.0469   -5.6968  -13.9460 C   0  0  2  0  0  0  0  0  0  0  0  0
   21.4429   -6.9348  -14.5925 N   0  0  0  0  0  0  0  0  0  0  0  0
   21.9275   -4.5708  -14.3364 C   0  0  0  0  0  0  0  0  0  0  0  0
   21.6791   -3.2707  -13.9224 O   0  0  0  0  0  0  0  0  0  0  0  0
   22.9548   -4.7326  -15.0690 O   0  0  0  0  0  0  0  0  0  0  0  0
  2  1  1  0
  3  2  2  0
  4  2  1  0
  4  5  1  0
  5  6  1  1
  7  8  2  0
  7  5  1  0
 10  9  1  6
 10 12  1  0
 11 10  1  0
 12 13  1  6
 13  7  1  0
 14 12  1  0
 15 14  2  0
 17 16  1  6
 17 19  1  0
 18 17  1  0
 19 21  1  0
 19 20  1  6
 20 14  1  0
 21 22  1  0
 23 21  2  0
M  END
$$$$
