NVT.pdb
     RDKit          3D

 23 22  0  0  1  0  0  0  0  0999 V2000
   25.8718  -14.2623  -15.2943 N   0  0  0  0  0  0  0  0  0  0  0  0
   26.3437  -13.2906  -16.2315 C   0  0  0  0  0  0  0  0  0  0  0  0
   27.5321  -13.3081  -16.5575 O   0  0  0  0  0  0  0  0  0  0  0  0
   25.3837  -12.3286  -16.7503 C   0  0  0  0  0  0  0  0  0  0  0  0
   24.0173  -12.5488  -16.1629 C   0  0  2  0  0  0  0  0  0  0  0  0
   23.4325  -13.7768  -16.7519 N   0  0  0  0  0  0  0  0  0  0  0  0
   23.0604  -11.4747  -16.5211 C   0  0  0  0  0  0  0  0  0  0  0  0
   22.6077  -11.3679  -17.6989 O   0  0  0  0  0  0  0  0  0  0  0  0
   19.7314  -11.1090  -16.1345 C   0  0  0  0  0  0  0  0  0  0  0  0
   20.2886   -9.9806  -15.3125 C   0  0  2  0  0  0  0  0  0  0  0  0
   19.3076   -8.8664  -15.1166 C   0  0  0  0  0  0  0  0  0  0  0  0
   21.6326   -9.5011  -15.8108 C   0  0  2  0  0  0  0  0  0  0  0  0
   22.6395  -10.5517  -15.5453 N   0  0  0  0  0  0  0  0  0  0  0  0
   22.1437   -8.2929  -15.1615 C   0  0  0  0  0  0  0  0  0  0  0  0
   22.5828   -8.3516  -13.9541 O   0  0  0  0  0  0  0  0  0  0  0  0
   24.5660   -5.6194  -16.8104 C   0  0  0  0  0  0  0  0  0  0  0  0
   23.4024   -4.9620  -16.0978 C   0  0  1  0  0  0  0  0  0  0  0  0
   22.4439   -4.5103  -17.0020 O   0  0  0  0  0  0  0  0  0  0  0  0
   22.8173   -5.8655  -15.0333 C   0  0  2  0  0  0  0  0  0  0  0  0
   22.2226   -6.9947  -15.7254 N   0  0  0  0  0  0  0  0  0  0  0  0
   21.8242   -5.1546  -14.1944 C   0  0  0  0  0  0  0  0  0  0  0  0
   22.2074   -4.2481  -13.2173 O   0  0  0  0  0  0  0  0  0  0  0  0
   20.5713   -5.3347  -14.3226 O   0  0  0  0  0  0  0  0  0  0  0  0
  2  1  1  0
  3  2  2  0
  4  2  1  0
  4  5  1  0
  5  6  1  6
  7  8  2  0
  7  5  1  0
 10  9  1  6
 10 12  1  0
 11 10  1  0
 12 13  1  1
 13  7  1  0
 14 12  1  0
 15 14  2  0
 17 16  1  6
 17 19  1  0
 18 17  1  0
 19 21  1  0
 19 20  1  6
 20 14  1  0
 21 22  1  0
 23 21  2  0
M  END
$$$$
