NVT.pdb
     RDKit          3D

 23 22  0  0  1  0  0  0  0  0999 V2000
   18.8933  -12.6718  -19.7647 N   0  0  0  0  0  0  0  0  0  0  0  0
   17.9971  -11.7653  -19.1164 C   0  0  0  0  0  0  0  0  0  0  0  0
   16.9437  -11.4657  -19.6816 O   0  0  0  0  0  0  0  0  0  0  0  0
   18.3852  -11.2446  -17.8147 C   0  0  0  0  0  0  0  0  0  0  0  0
   19.7197  -11.7874  -17.3847 C   0  0  2  0  0  0  0  0  0  0  0  0
   19.5427  -13.1809  -16.9117 N   0  0  0  0  0  0  0  0  0  0  0  0
   20.2803  -11.0684  -16.2157 C   0  0  0  0  0  0  0  0  0  0  0  0
   19.8597  -11.2973  -15.0435 O   0  0  0  0  0  0  0  0  0  0  0  0
   24.2011   -9.6042  -16.4815 C   0  0  0  0  0  0  0  0  0  0  0  0
   23.4310   -9.9653  -15.2422 C   0  0  2  0  0  0  0  0  0  0  0  0
   23.5315  -11.4196  -14.9001 C   0  0  0  0  0  0  0  0  0  0  0  0
   22.0052   -9.4645  -15.2721 C   0  0  2  0  0  0  0  0  0  0  0  0
   21.2979  -10.1130  -16.3978 N   0  0  0  0  0  0  0  0  0  0  0  0
   21.8544   -8.0248  -15.4894 C   0  0  0  0  0  0  0  0  0  0  0  0
   22.1526   -7.5149  -16.6318 O   0  0  0  0  0  0  0  0  0  0  0  0
   18.9432   -5.9646  -15.7749 C   0  0  0  0  0  0  0  0  0  0  0  0
   19.7889   -5.3178  -14.6978 C   0  0  1  0  0  0  0  0  0  0  0  0
   19.3080   -5.6202  -13.4258 O   0  0  0  0  0  0  0  0  0  0  0  0
   21.2553   -5.6567  -14.8606 C   0  0  2  0  0  0  0  0  0  0  0  0
   21.3942   -7.0680  -14.5501 N   0  0  0  0  0  0  0  0  0  0  0  0
   22.1129   -4.8189  -13.9899 C   0  0  0  0  0  0  0  0  0  0  0  0
   22.2393   -3.4517  -14.1854 O   0  0  0  0  0  0  0  0  0  0  0  0
   22.7775   -5.3039  -13.0195 O   0  0  0  0  0  0  0  0  0  0  0  0
  2  1  1  0
  3  2  2  0
  4  2  1  0
  4  5  1  0
  5  6  1  1
  7  8  2  0
  7  5  1  0
 10  9  1  6
 10 12  1  0
 11 10  1  0
 12 13  1  6
 13  7  1  0
 14 12  1  0
 15 14  2  0
 17 16  1  6
 17 19  1  0
 18 17  1  0
 19 21  1  0
 19 20  1  1
 20 14  1  0
 21 22  1  0
 23 21  2  0
M  END
$$$$
