NVT.pdb
     RDKit          3D

 23 22  0  0  1  0  0  0  0  0999 V2000
   29.0203  -18.5150  -17.2052 N   0  0  0  0  0  0  0  0  0  0  0  0
   27.6133  -18.2820  -17.3116 C   0  0  0  0  0  0  0  0  0  0  0  0
   27.2142  -17.3902  -18.0628 O   0  0  0  0  0  0  0  0  0  0  0  0
   26.7266  -19.1196  -16.5189 C   0  0  0  0  0  0  0  0  0  0  0  0
   27.5038  -20.0552  -15.6351 C   0  0  2  0  0  0  0  0  0  0  0  0
   28.1277  -21.1045  -16.4757 N   0  0  0  0  0  0  0  0  0  0  0  0
   26.6383  -20.8028  -14.6918 C   0  0  0  0  0  0  0  0  0  0  0  0
   26.1826  -21.9464  -14.9882 O   0  0  0  0  0  0  0  0  0  0  0  0
   27.2492  -21.1020  -10.8181 C   0  0  0  0  0  0  0  0  0  0  0  0
   25.8570  -20.6001  -11.0812 C   0  0  2  0  0  0  0  0  0  0  0  0
   24.8771  -21.0332  -10.0353 C   0  0  0  0  0  0  0  0  0  0  0  0
   25.3853  -20.8921  -12.4872 C   0  0  2  0  0  0  0  0  0  0  0  0
   26.3103  -20.2438  -13.4423 N   0  0  0  0  0  0  0  0  0  0  0  0
   24.0548  -20.3791  -12.8178 C   0  0  0  0  0  0  0  0  0  0  0  0
   23.7589  -19.1541  -12.5616 O   0  0  0  0  0  0  0  0  0  0  0  0
   22.5226  -19.6048  -15.9079 C   0  0  0  0  0  0  0  0  0  0  0  0
   21.5464  -20.5393  -15.2241 C   0  0  1  0  0  0  0  0  0  0  0  0
   21.6325  -21.8297  -15.7419 O   0  0  0  0  0  0  0  0  0  0  0  0
   21.7023  -20.5054  -13.7187 C   0  0  2  0  0  0  0  0  0  0  0  0
   22.9926  -21.0996  -13.4194 N   0  0  0  0  0  0  0  0  0  0  0  0
   20.5994  -21.2216  -13.0359 C   0  0  0  0  0  0  0  0  0  0  0  0
   19.3083  -20.7165  -13.0045 O   0  0  0  0  0  0  0  0  0  0  0  0
   20.7741  -22.3339  -12.4436 O   0  0  0  0  0  0  0  0  0  0  0  0
  2  1  1  0
  3  2  2  0
  4  2  1  0
  4  5  1  0
  5  6  1  6
  7  8  2  0
  7  5  1  0
 10  9  1  1
 10 12  1  0
 11 10  1  0
 12 13  1  6
 13  7  1  0
 14 12  1  0
 15 14  2  0
 17 16  1  6
 17 19  1  0
 18 17  1  0
 19 21  1  0
 19 20  1  6
 20 14  1  0
 21 22  1  0
 23 21  2  0
M  END
$$$$
