MVP.pdb
     RDKit          3D

 23 23  0  0  1  0  0  0  0  0999 V2000
   19.8851  -20.7205  -10.5648 C   0  0  0  0  0  0  0  0  0  0  0  0
   20.2477  -19.7270  -12.0235 S   0  0  0  0  0  0  0  0  0  0  0  0
   21.9598  -19.8955  -12.5414 C   0  0  0  0  0  0  0  0  0  0  0  0
   22.7852  -20.6659  -11.5204 C   0  0  0  0  0  0  0  0  0  0  0  0
   24.2296  -20.5330  -11.9439 C   0  0  2  0  0  0  0  0  0  0  0  0
   24.4156  -21.1995  -13.2158 N   0  0  0  0  0  0  0  0  0  0  0  0
   25.1563  -21.1369  -10.9407 C   0  0  0  0  0  0  0  0  0  0  0  0
   25.1479  -22.3653  -10.6788 O   0  0  0  0  0  0  0  0  0  0  0  0
   28.4080  -21.9148  -11.0707 C   0  0  0  0  0  0  0  0  0  0  0  0
   28.3318  -21.0276   -9.8974 C   0  0  1  0  0  0  0  0  0  0  0  0
   28.7944  -19.6369  -10.3189 C   0  0  0  0  0  0  0  0  0  0  0  0
   26.9894  -20.9240   -9.2033 C   0  0  2  0  0  0  0  0  0  0  0  0
   26.0895  -20.3264  -10.2420 N   0  0  0  0  0  0  0  0  0  0  0  0
   26.9482  -19.9993   -8.0785 C   0  0  0  0  0  0  0  0  0  0  0  0
   26.1793  -18.9759   -8.1675 O   0  0  0  0  0  0  0  0  0  0  0  0
   27.6747  -20.1197   -6.8834 N   0  0  0  0  0  0  0  0  0  0  0  0
   28.6218  -21.1523   -6.5333 C   0  0  0  0  0  0  0  0  0  0  0  0
   28.3862  -21.3716   -5.0426 C   0  0  0  0  0  0  0  0  0  0  0  0
   27.5354  -20.2280   -4.5951 C   0  0  0  0  0  0  0  0  0  0  0  0
   27.5937  -19.2404   -5.7071 C   0  0  1  0  0  0  0  0  0  0  0  0
   28.7683  -18.3620   -5.7080 C   0  0  0  0  0  0  0  0  0  0  0  0
   28.9723  -17.3705   -4.7418 O   0  0  0  0  0  0  0  0  0  0  0  0
   29.6402  -18.4761   -6.5917 O   0  0  0  0  0  0  0  0  0  0  0  0
  1  2  1  0
  2  3  1  0
  3  4  1  0
  4  5  1  0
  5  6  1  6
  7 13  1  0
  7  5  1  0
  8  7  2  0
 10  9  1  6
 10 12  1  0
 10 11  1  0
 12 13  1  6
 12 14  1  0
 14 16  1  0
 14 15  2  0
 16 20  1  0
 17 18  1  0
 17 16  1  0
 18 19  1  0
 19 20  1  0
 20 21  1  1
 21 22  1  0
 23 21  2  0
M  END
$$$$
