MVP.pdb
     RDKit          3D

 23 23  0  0  1  0  0  0  0  0999 V2000
   22.3611  -23.7680  -21.3053 C   0  0  0  0  0  0  0  0  0  0  0  0
   22.9277  -23.7633  -19.5949 S   0  0  0  0  0  0  0  0  0  0  0  0
   24.5490  -23.0074  -19.4272 C   0  0  0  0  0  0  0  0  0  0  0  0
   25.0492  -23.0572  -17.9904 C   0  0  0  0  0  0  0  0  0  0  0  0
   26.2875  -22.1931  -17.9340 C   0  0  2  0  0  0  0  0  0  0  0  0
   27.3783  -22.8816  -18.5917 N   0  0  0  0  0  0  0  0  0  0  0  0
   26.6848  -21.8898  -16.5269 C   0  0  0  0  0  0  0  0  0  0  0  0
   27.4043  -22.6687  -15.8536 O   0  0  0  0  0  0  0  0  0  0  0  0
   28.3374  -18.7194  -15.3403 C   0  0  0  0  0  0  0  0  0  0  0  0
   27.1404  -18.9736  -14.5204 C   0  0  1  0  0  0  0  0  0  0  0  0
   26.0267  -18.0493  -15.0011 C   0  0  0  0  0  0  0  0  0  0  0  0
   26.6298  -20.3991  -14.4777 C   0  0  2  0  0  0  0  0  0  0  0  0
   26.2534  -20.6919  -15.8984 N   0  0  0  0  0  0  0  0  0  0  0  0
   25.4088  -20.5923  -13.7071 C   0  0  0  0  0  0  0  0  0  0  0  0
   24.3235  -20.8335  -14.3479 O   0  0  0  0  0  0  0  0  0  0  0  0
   25.2988  -20.5450  -12.3085 N   0  0  0  0  0  0  0  0  0  0  0  0
   26.3135  -20.1441  -11.3622 C   0  0  0  0  0  0  0  0  0  0  0  0
   26.0958  -21.0793  -10.1775 C   0  0  0  0  0  0  0  0  0  0  0  0
   24.7749  -21.7350  -10.4172 C   0  0  0  0  0  0  0  0  0  0  0  0
   24.1350  -20.9382  -11.4994 C   0  0  1  0  0  0  0  0  0  0  0  0
   23.4469  -19.7194  -11.0611 C   0  0  0  0  0  0  0  0  0  0  0  0
   22.1516  -19.7307  -10.5316 O   0  0  0  0  0  0  0  0  0  0  0  0
   24.0101  -18.6108  -11.1499 O   0  0  0  0  0  0  0  0  0  0  0  0
  1  2  1  0
  2  3  1  0
  3  4  1  0
  4  5  1  0
  5  6  1  1
  7 13  1  0
  7  5  1  0
  8  7  2  0
 10  9  1  6
 10 12  1  0
 10 11  1  0
 12 13  1  6
 12 14  1  0
 14 16  1  0
 14 15  2  0
 16 20  1  0
 17 18  1  0
 17 16  1  0
 18 19  1  0
 19 20  1  0
 20 21  1  1
 21 22  1  0
 23 21  2  0
M  END
$$$$
