MVP.pdb
     RDKit          3D

 23 23  0  0  1  0  0  0  0  0999 V2000
   24.1516  -19.4805  -16.9727 C   0  0  0  0  0  0  0  0  0  0  0  0
   23.6867  -19.1804  -18.6875 S   0  0  0  0  0  0  0  0  0  0  0  0
   23.4025  -17.4360  -19.0102 C   0  0  0  0  0  0  0  0  0  0  0  0
   23.0415  -16.6785  -17.7401 C   0  0  0  0  0  0  0  0  0  0  0  0
   22.8345  -15.2365  -18.1414 C   0  0  2  0  0  0  0  0  0  0  0  0
   23.8104  -14.8784  -19.1493 N   0  0  0  0  0  0  0  0  0  0  0  0
   22.9804  -14.3135  -16.9767 C   0  0  0  0  0  0  0  0  0  0  0  0
   22.2261  -14.3789  -15.9744 O   0  0  0  0  0  0  0  0  0  0  0  0
   26.3998  -11.8726  -16.8251 C   0  0  0  0  0  0  0  0  0  0  0  0
   25.6084  -12.2071  -15.6287 C   0  0  1  0  0  0  0  0  0  0  0  0
   25.8766  -11.1465  -14.5662 C   0  0  0  0  0  0  0  0  0  0  0  0
   24.1138  -12.3646  -15.8183 C   0  0  2  0  0  0  0  0  0  0  0  0
   23.9930  -13.3183  -16.9681 N   0  0  0  0  0  0  0  0  0  0  0  0
   23.4171  -11.1579  -16.2428 C   0  0  0  0  0  0  0  0  0  0  0  0
   23.4193  -10.8688  -17.4930 O   0  0  0  0  0  0  0  0  0  0  0  0
   22.7269  -10.2656  -15.4072 N   0  0  0  0  0  0  0  0  0  0  0  0
   22.5663  -10.3521  -13.9746 C   0  0  0  0  0  0  0  0  0  0  0  0
   21.1513   -9.8361  -13.7355 C   0  0  0  0  0  0  0  0  0  0  0  0
   20.7276   -9.2062  -15.0223 C   0  0  0  0  0  0  0  0  0  0  0  0
   21.9774   -9.0689  -15.8189 C   0  0  1  0  0  0  0  0  0  0  0  0
   22.7923   -7.8883  -15.5132 C   0  0  0  0  0  0  0  0  0  0  0  0
   22.4527   -6.6018  -15.9465 O   0  0  0  0  0  0  0  0  0  0  0  0
   23.8368   -7.9999  -14.8419 O   0  0  0  0  0  0  0  0  0  0  0  0
  1  2  1  0
  2  3  1  0
  3  4  1  0
  4  5  1  0
  5  6  1  6
  7 13  1  0
  7  5  1  0
  8  7  2  0
 10  9  1  6
 10 12  1  0
 10 11  1  0
 12 13  1  6
 12 14  1  0
 14 16  1  0
 14 15  2  0
 16 20  1  0
 17 18  1  0
 17 16  1  0
 18 19  1  0
 19 20  1  0
 20 21  1  1
 21 22  1  0
 23 21  2  0
M  END
$$$$
