MVP.pdb
     RDKit          3D

 23 23  0  0  1  0  0  0  0  0999 V2000
   20.5620  -22.7997  -17.5059 C   0  0  0  0  0  0  0  0  0  0  0  0
   19.1095  -22.7468  -16.4410 S   0  0  0  0  0  0  0  0  0  0  0  0
   19.5326  -22.3115  -14.7501 C   0  0  0  0  0  0  0  0  0  0  0  0
   20.8776  -21.6031  -14.6692 C   0  0  0  0  0  0  0  0  0  0  0  0
   21.1825  -21.4218  -13.2004 C   0  0  2  0  0  0  0  0  0  0  0  0
   20.0523  -20.7876  -12.5547 N   0  0  0  0  0  0  0  0  0  0  0  0
   22.3966  -20.5784  -12.9892 C   0  0  0  0  0  0  0  0  0  0  0  0
   22.3297  -19.3297  -12.8709 O   0  0  0  0  0  0  0  0  0  0  0  0
   24.9023  -20.5826  -10.3147 C   0  0  0  0  0  0  0  0  0  0  0  0
   25.6144  -20.7879  -11.5877 C   0  0  1  0  0  0  0  0  0  0  0  0
   25.9510  -22.2699  -11.7135 C   0  0  0  0  0  0  0  0  0  0  0  0
   24.9141  -20.3208  -12.8470 C   0  0  2  0  0  0  0  0  0  0  0  0
   23.6835  -21.1735  -12.9149 N   0  0  0  0  0  0  0  0  0  0  0  0
   25.6348  -20.5838  -14.0852 C   0  0  0  0  0  0  0  0  0  0  0  0
   25.2271  -21.5484  -14.8268 O   0  0  0  0  0  0  0  0  0  0  0  0
   26.7480  -19.8723  -14.5599 N   0  0  0  0  0  0  0  0  0  0  0  0
   27.5359  -18.8970  -13.8432 C   0  0  0  0  0  0  0  0  0  0  0  0
   27.8926  -17.8646  -14.9074 C   0  0  0  0  0  0  0  0  0  0  0  0
   27.5380  -18.4931  -16.2156 C   0  0  0  0  0  0  0  0  0  0  0  0
   27.3266  -19.9345  -15.9108 C   0  0  1  0  0  0  0  0  0  0  0  0
   28.5438  -20.7507  -15.8523 C   0  0  0  0  0  0  0  0  0  0  0  0
   29.2417  -21.1514  -16.9971 O   0  0  0  0  0  0  0  0  0  0  0  0
   29.0030  -21.1202  -14.7538 O   0  0  0  0  0  0  0  0  0  0  0  0
  1  2  1  0
  2  3  1  0
  3  4  1  0
  4  5  1  0
  5  6  1  1
  7 13  1  0
  7  5  1  0
  8  7  2  0
 10  9  1  1
 10 12  1  0
 10 11  1  0
 12 13  1  6
 12 14  1  0
 14 16  1  0
 14 15  2  0
 16 20  1  0
 17 18  1  0
 17 16  1  0
 18 19  1  0
 19 20  1  0
 20 21  1  1
 21 22  1  0
 23 21  2  0
M  END
$$$$
