DYA.pdb
     RDKit          3D

 26 26  0  0  1  0  0  0  0  0999 V2000
   27.1306  -20.1399  -17.7816 N   0  0  0  0  0  0  0  0  0  0  0  0
   27.1260  -21.5359  -17.4380 C   0  0  1  0  0  0  0  0  0  0  0  0
   28.4085  -22.1865  -17.8840 C   0  0  0  0  0  0  0  0  0  0  0  0
   29.3720  -21.1325  -18.2431 C   0  0  0  0  0  0  0  0  0  0  0  0
   29.0897  -19.9355  -18.0611 O   0  0  0  0  0  0  0  0  0  0  0  0
   26.8322  -21.7540  -15.9966 C   0  0  0  0  0  0  0  0  0  0  0  0
   26.5589  -22.9187  -15.6340 O   0  0  0  0  0  0  0  0  0  0  0  0
   30.5965  -21.4636  -18.7846 O   0  0  0  0  0  0  0  0  0  0  0  0
   25.1894  -20.4017   -7.4542 O   0  0  0  0  0  0  0  0  0  0  0  0
   25.6649  -20.3250   -8.7510 C   0  0  0  0  0  0  0  0  0  0  0  0
   26.0403  -21.4861   -9.3913 C   0  0  0  0  0  0  0  0  0  0  0  0
   26.5126  -21.4146  -10.6767 C   0  0  0  0  0  0  0  0  0  0  0  0
   26.6138  -20.1857  -11.3325 C   0  0  0  0  0  0  0  0  0  0  0  0
   27.1376  -20.1399  -12.7128 C   0  0  0  0  0  0  0  0  0  0  0  0
   26.2625  -20.8567  -13.7186 C   0  0  2  0  0  0  0  0  0  0  0  0
   26.8526  -20.7055  -15.0478 N   0  0  0  0  0  0  0  0  0  0  0  0
   24.8584  -20.3698  -13.7165 C   0  0  0  0  0  0  0  0  0  0  0  0
   24.2025  -20.4379  -12.6440 O   0  0  0  0  0  0  0  0  0  0  0  0
   26.2302  -19.0360  -10.6666 C   0  0  0  0  0  0  0  0  0  0  0  0
   25.7533  -19.0938   -9.3736 C   0  0  0  0  0  0  0  0  0  0  0  0
   22.6648  -18.4851  -16.1394 C   0  0  0  0  0  0  0  0  0  0  0  0
   22.9174  -19.2575  -14.8694 C   0  0  2  0  0  0  0  0  0  0  0  0
   24.2309  -19.8329  -14.8748 N   0  0  0  0  0  0  0  0  0  0  0  0
   21.8512  -20.2698  -14.6929 C   0  0  0  0  0  0  0  0  0  0  0  0
   20.6988  -19.8535  -14.4122 O   0  0  0  0  0  0  0  0  0  0  0  0
   22.0277  -21.6320  -14.8135 O   0  0  0  0  0  0  0  0  0  0  0  0
  2  1  1  1
  3  2  1  0
  3  4  1  0
  4  5  2  0
  6  2  1  0
  7  6  2  0
  8  4  1  0
  9 10  1  0
 10 11  2  0
 10 20  1  0
 11 12  1  0
 12 13  2  0
 13 14  1  0
 15 14  1  1
 15 17  1  0
 15 16  1  0
 16  6  1  0
 17 23  1  0
 18 17  2  0
 19 13  1  0
 20 19  2  0
 22 21  1  6
 22 24  1  0
 23 22  1  0
 24 25  2  0
 24 26  1  0
M  END
$$$$
