DYA.pdb
     RDKit          3D

 26 26  0  0  1  0  0  0  0  0999 V2000
   20.3461   -7.5985  -18.1119 N   0  0  0  0  0  0  0  0  0  0  0  0
   20.1217   -6.1798  -18.1739 C   0  0  1  0  0  0  0  0  0  0  0  0
   18.8933   -5.8818  -18.9920 C   0  0  0  0  0  0  0  0  0  0  0  0
   19.1523   -6.2674  -20.3893 C   0  0  0  0  0  0  0  0  0  0  0  0
   18.2698   -6.8322  -21.0586 O   0  0  0  0  0  0  0  0  0  0  0  0
   20.0856   -5.5618  -16.8217 C   0  0  0  0  0  0  0  0  0  0  0  0
   19.2368   -5.9951  -16.0126 O   0  0  0  0  0  0  0  0  0  0  0  0
   20.3765   -6.0057  -20.9683 O   0  0  0  0  0  0  0  0  0  0  0  0
   23.1662   -9.7251  -13.6136 O   0  0  0  0  0  0  0  0  0  0  0  0
   22.9225   -8.3758  -13.7966 C   0  0  0  0  0  0  0  0  0  0  0  0
   23.5890   -7.7102  -14.8026 C   0  0  0  0  0  0  0  0  0  0  0  0
   23.3506   -6.3724  -14.9872 C   0  0  0  0  0  0  0  0  0  0  0  0
   22.4467   -5.6893  -14.1707 C   0  0  0  0  0  0  0  0  0  0  0  0
   22.2204   -4.2458  -14.3868 C   0  0  0  0  0  0  0  0  0  0  0  0
   20.9207   -3.9344  -15.0974 C   0  0  2  0  0  0  0  0  0  0  0  0
   20.9634   -4.5224  -16.4354 N   0  0  0  0  0  0  0  0  0  0  0  0
   20.6399   -2.4774  -15.1803 C   0  0  0  0  0  0  0  0  0  0  0  0
   21.4746   -1.7390  -15.7660 O   0  0  0  0  0  0  0  0  0  0  0  0
   21.7916   -6.3815  -13.1687 C   0  0  0  0  0  0  0  0  0  0  0  0
   22.0220   -7.7272  -12.9722 C   0  0  0  0  0  0  0  0  0  0  0  0
   17.7693   -0.2027  -14.2594 C   0  0  0  0  0  0  0  0  0  0  0  0
   19.1928   -0.4826  -14.6699 C   0  0  2  0  0  0  0  0  0  0  0  0
   19.4697   -1.8888  -14.6252 N   0  0  0  0  0  0  0  0  0  0  0  0
   20.1112    0.3077  -13.8185 C   0  0  0  0  0  0  0  0  0  0  0  0
   20.5795   -0.2539  -12.7961 O   0  0  0  0  0  0  0  0  0  0  0  0
   20.4903    1.6106  -14.0633 O   0  0  0  0  0  0  0  0  0  0  0  0
  2  1  1  1
  3  2  1  0
  3  4  1  0
  4  5  2  0
  6  2  1  0
  7  6  2  0
  8  4  1  0
  9 10  1  0
 10 11  2  0
 10 20  1  0
 11 12  1  0
 12 13  2  0
 13 14  1  0
 15 14  1  6
 15 17  1  0
 15 16  1  0
 16  6  1  0
 17 23  1  0
 18 17  2  0
 19 13  1  0
 20 19  2  0
 22 21  1  1
 22 24  1  0
 23 22  1  0
 24 25  2  0
 24 26  1  0
M  END
$$$$
