DYA.pdb
     RDKit          3D

 26 26  0  0  1  0  0  0  0  0999 V2000
   19.8685  -14.3731  -16.3601 N   0  0  0  0  0  0  0  0  0  0  0  0
   19.8663  -13.2583  -17.2678 C   0  0  1  0  0  0  0  0  0  0  0  0
   18.7357  -13.3910  -18.2533 C   0  0  0  0  0  0  0  0  0  0  0  0
   18.9352  -14.6216  -19.0370 C   0  0  0  0  0  0  0  0  0  0  0  0
   19.9658  -14.7735  -19.7156 O   0  0  0  0  0  0  0  0  0  0  0  0
   19.8642  -11.9556  -16.5503 C   0  0  0  0  0  0  0  0  0  0  0  0
   18.9612  -11.7634  -15.7075 O   0  0  0  0  0  0  0  0  0  0  0  0
   17.9806  -15.6170  -19.0254 O   0  0  0  0  0  0  0  0  0  0  0  0
   22.6627   -4.1922  -13.4315 O   0  0  0  0  0  0  0  0  0  0  0  0
   22.5298   -5.4778  -13.9246 C   0  0  0  0  0  0  0  0  0  0  0  0
   23.0698   -5.7765  -15.1568 C   0  0  0  0  0  0  0  0  0  0  0  0
   22.9400   -7.0497  -15.6495 C   0  0  0  0  0  0  0  0  0  0  0  0
   22.2715   -8.0334  -14.9176 C   0  0  0  0  0  0  0  0  0  0  0  0
   22.1378   -9.3924  -15.4805 C   0  0  0  0  0  0  0  0  0  0  0  0
   20.7869   -9.6594  -16.1088 C   0  0  2  0  0  0  0  0  0  0  0  0
   20.8319  -10.9525  -16.7898 N   0  0  0  0  0  0  0  0  0  0  0  0
   20.3649   -8.5913  -17.0522 C   0  0  0  0  0  0  0  0  0  0  0  0
   21.0218   -8.4373  -18.1151 O   0  0  0  0  0  0  0  0  0  0  0  0
   21.7392   -7.7066  -13.6838 C   0  0  0  0  0  0  0  0  0  0  0  0
   21.8627   -6.4299  -13.1765 C   0  0  0  0  0  0  0  0  0  0  0  0
   17.3554   -6.5270  -17.6919 C   0  0  0  0  0  0  0  0  0  0  0  0
   18.8557   -6.6761  -17.6750 C   0  0  2  0  0  0  0  0  0  0  0  0
   19.2528   -7.7407  -16.8002 N   0  0  0  0  0  0  0  0  0  0  0  0
   19.4715   -5.3791  -17.3123 C   0  0  0  0  0  0  0  0  0  0  0  0
   19.6776   -5.1575  -16.0923 O   0  0  0  0  0  0  0  0  0  0  0  0
   19.8352   -4.3988  -18.2112 O   0  0  0  0  0  0  0  0  0  0  0  0
  2  1  1  1
  3  2  1  0
  3  4  1  0
  4  5  2  0
  6  2  1  0
  7  6  2  0
  8  4  1  0
  9 10  1  0
 10 11  2  0
 10 20  1  0
 11 12  1  0
 12 13  2  0
 13 14  1  0
 15 14  1  6
 15 17  1  0
 15 16  1  0
 16  6  1  0
 17 23  1  0
 18 17  2  0
 19 13  1  0
 20 19  2  0
 22 21  1  1
 22 24  1  0
 23 22  1  0
 24 25  2  0
 24 26  1  0
M  END
$$$$
