DYA.pdb
     RDKit          3D

 26 26  0  0  1  0  0  0  0  0999 V2000
   20.9184  -12.9065  -21.2151 N   0  0  0  0  0  0  0  0  0  0  0  0
   21.2128  -11.6306  -20.6217 C   0  0  1  0  0  0  0  0  0  0  0  0
   21.4775  -10.6063  -21.6930 C   0  0  0  0  0  0  0  0  0  0  0  0
   22.7489  -10.9372  -22.3581 C   0  0  0  0  0  0  0  0  0  0  0  0
   22.7640  -11.2593  -23.5588 O   0  0  0  0  0  0  0  0  0  0  0  0
   20.1614  -11.2083  -19.6584 C   0  0  0  0  0  0  0  0  0  0  0  0
   18.9719  -11.4394  -19.9658 O   0  0  0  0  0  0  0  0  0  0  0  0
   23.9346  -10.8930  -21.6549 O   0  0  0  0  0  0  0  0  0  0  0  0
   18.1163  -16.4641  -16.7634 O   0  0  0  0  0  0  0  0  0  0  0  0
   18.4834  -15.1372  -16.6287 C   0  0  0  0  0  0  0  0  0  0  0  0
   19.8052  -14.7914  -16.8091 C   0  0  0  0  0  0  0  0  0  0  0  0
   20.1735  -13.4772  -16.6761 C   0  0  0  0  0  0  0  0  0  0  0  0
   19.2273  -12.4990  -16.3627 C   0  0  0  0  0  0  0  0  0  0  0  0
   19.6571  -11.0938  -16.2144 C   0  0  0  0  0  0  0  0  0  0  0  0
   19.4258  -10.2539  -17.4523 C   0  0  2  0  0  0  0  0  0  0  0  0
   20.4628  -10.5676  -18.4342 N   0  0  0  0  0  0  0  0  0  0  0  0
   19.4055   -8.7954  -17.1679 C   0  0  0  0  0  0  0  0  0  0  0  0
   20.4660   -8.2488  -16.7657 O   0  0  0  0  0  0  0  0  0  0  0  0
   17.9077  -12.8736  -16.1870 C   0  0  0  0  0  0  0  0  0  0  0  0
   17.5237  -14.1919  -16.3179 C   0  0  0  0  0  0  0  0  0  0  0  0
   16.8326   -6.0258  -17.3637 C   0  0  0  0  0  0  0  0  0  0  0  0
   18.1929   -6.5934  -17.0465 C   0  0  2  0  0  0  0  0  0  0  0  0
   18.2389   -7.9980  -17.3319 N   0  0  0  0  0  0  0  0  0  0  0  0
   18.5349   -6.2851  -15.6390 C   0  0  0  0  0  0  0  0  0  0  0  0
   18.2893   -7.1668  -14.7775 O   0  0  0  0  0  0  0  0  0  0  0  0
   19.1017   -5.1058  -15.2042 O   0  0  0  0  0  0  0  0  0  0  0  0
  2  1  1  6
  3  2  1  0
  3  4  1  0
  4  5  2  0
  6  2  1  0
  7  6  2  0
  8  4  1  0
  9 10  1  0
 10 11  2  0
 10 20  1  0
 11 12  1  0
 12 13  2  0
 13 14  1  0
 15 14  1  1
 15 17  1  0
 15 16  1  0
 16  6  1  0
 17 23  1  0
 18 17  2  0
 19 13  1  0
 20 19  2  0
 22 21  1  1
 22 24  1  0
 23 22  1  0
 24 25  2  0
 24 26  1  0
M  END
$$$$
