DYA.pdb
     RDKit          3D

 26 26  0  0  1  0  0  0  0  0999 V2000
   24.6093  -36.2075  -16.2113 N   0  0  0  0  0  0  0  0  0  0  0  0
   25.9839  -35.8695  -16.4621 C   0  0  1  0  0  0  0  0  0  0  0  0
   26.6152  -36.8930  -17.3683 C   0  0  0  0  0  0  0  0  0  0  0  0
   26.8249  -38.1341  -16.6041 C   0  0  0  0  0  0  0  0  0  0  0  0
   26.1319  -39.1396  -16.8374 O   0  0  0  0  0  0  0  0  0  0  0  0
   26.1329  -34.4770  -16.9625 C   0  0  0  0  0  0  0  0  0  0  0  0
   25.1968  -34.0065  -17.6445 O   0  0  0  0  0  0  0  0  0  0  0  0
   27.7919  -38.1923  -15.6224 O   0  0  0  0  0  0  0  0  0  0  0  0
   28.2951  -25.9932  -17.2457 O   0  0  0  0  0  0  0  0  0  0  0  0
   28.2325  -27.3449  -16.9587 C   0  0  0  0  0  0  0  0  0  0  0  0
   27.0609  -27.8633  -16.4508 C   0  0  0  0  0  0  0  0  0  0  0  0
   26.9946  -29.2027  -16.1645 C   0  0  0  0  0  0  0  0  0  0  0  0
   28.0951  -30.0344  -16.3826 C   0  0  0  0  0  0  0  0  0  0  0  0
   27.9966  -31.4708  -16.0531 C   0  0  0  0  0  0  0  0  0  0  0  0
   27.3868  -32.3070  -17.1576 C   0  0  2  0  0  0  0  0  0  0  0  0
   27.2769  -33.6897  -16.6950 N   0  0  0  0  0  0  0  0  0  0  0  0
   28.1591  -32.2446  -18.4258 C   0  0  0  0  0  0  0  0  0  0  0  0
   29.2756  -32.8241  -18.4761 O   0  0  0  0  0  0  0  0  0  0  0  0
   29.2585  -29.4882  -16.8932 C   0  0  0  0  0  0  0  0  0  0  0  0
   29.3386  -28.1427  -17.1855 C   0  0  0  0  0  0  0  0  0  0  0  0
   27.4179  -31.4477  -21.9836 C   0  0  0  0  0  0  0  0  0  0  0  0
   28.3854  -31.5384  -20.8308 C   0  0  2  0  0  0  0  0  0  0  0  0
   27.6867  -31.5579  -19.5786 N   0  0  0  0  0  0  0  0  0  0  0  0
   29.3610  -30.4283  -20.9232 C   0  0  0  0  0  0  0  0  0  0  0  0
   29.3190  -29.7050  -21.9504 O   0  0  0  0  0  0  0  0  0  0  0  0
   30.3099  -30.1293  -19.9685 O   0  0  0  0  0  0  0  0  0  0  0  0
  2  1  1  6
  3  2  1  0
  3  4  1  0
  4  5  2  0
  6  2  1  0
  7  6  2  0
  8  4  1  0
  9 10  1  0
 10 11  2  0
 10 20  1  0
 11 12  1  0
 12 13  2  0
 13 14  1  0
 15 14  1  1
 15 17  1  0
 15 16  1  0
 16  6  1  0
 17 23  1  0
 18 17  2  0
 19 13  1  0
 20 19  2  0
 22 21  1  6
 22 24  1  0
 23 22  1  0
 24 25  2  0
 24 26  1  0
M  END
$$$$
