DYA.pdb
     RDKit          3D

 26 26  0  0  1  0  0  0  0  0999 V2000
   20.6001  -10.6180  -18.5571 N   0  0  0  0  0  0  0  0  0  0  0  0
   20.4656   -9.2266  -18.8930 C   0  0  1  0  0  0  0  0  0  0  0  0
   19.2995   -9.0256  -19.8240 C   0  0  0  0  0  0  0  0  0  0  0  0
   19.5734   -9.7376  -21.0835 C   0  0  0  0  0  0  0  0  0  0  0  0
   20.6007   -9.4852  -21.7367 O   0  0  0  0  0  0  0  0  0  0  0  0
   20.4005   -8.3650  -17.6825 C   0  0  0  0  0  0  0  0  0  0  0  0
   19.7785   -8.8081  -16.6927 O   0  0  0  0  0  0  0  0  0  0  0  0
   18.6926  -10.6909  -21.5501 O   0  0  0  0  0  0  0  0  0  0  0  0
   24.9094  -10.7797  -14.2253 O   0  0  0  0  0  0  0  0  0  0  0  0
   24.2718   -9.6207  -14.6299 C   0  0  0  0  0  0  0  0  0  0  0  0
   24.7313   -8.9661  -15.7521 C   0  0  0  0  0  0  0  0  0  0  0  0
   24.1024   -7.8165  -16.1565 C   0  0  0  0  0  0  0  0  0  0  0  0
   23.0115   -7.3119  -15.4454 C   0  0  0  0  0  0  0  0  0  0  0  0
   22.3627   -6.0650  -15.8991 C   0  0  0  0  0  0  0  0  0  0  0  0
   20.9538   -6.2662  -16.4146 C   0  0  2  0  0  0  0  0  0  0  0  0
   21.0075   -7.0892  -17.6220 N   0  0  0  0  0  0  0  0  0  0  0  0
   20.2491   -4.9871  -16.6903 C   0  0  0  0  0  0  0  0  0  0  0  0
   20.6508   -4.2765  -17.6488 O   0  0  0  0  0  0  0  0  0  0  0  0
   22.5709   -7.9888  -14.3228 C   0  0  0  0  0  0  0  0  0  0  0  0
   23.1943   -9.1461  -13.9052 C   0  0  0  0  0  0  0  0  0  0  0  0
   17.1666   -3.2486  -15.3705 C   0  0  0  0  0  0  0  0  0  0  0  0
   18.4418   -3.3140  -16.1722 C   0  0  2  0  0  0  0  0  0  0  0  0
   19.1439   -4.5377  -15.9154 N   0  0  0  0  0  0  0  0  0  0  0  0
   19.2614   -2.1144  -15.8854 C   0  0  0  0  0  0  0  0  0  0  0  0
   20.1931   -2.2363  -15.0506 O   0  0  0  0  0  0  0  0  0  0  0  0
   19.0791   -0.8765  -16.4647 O   0  0  0  0  0  0  0  0  0  0  0  0
  2  1  1  1
  3  2  1  0
  3  4  1  0
  4  5  2  0
  6  2  1  0
  7  6  2  0
  8  4  1  0
  9 10  1  0
 10 11  2  0
 10 20  1  0
 11 12  1  0
 12 13  2  0
 13 14  1  0
 15 14  1  6
 15 17  1  0
 15 16  1  0
 16  6  1  0
 17 23  1  0
 18 17  2  0
 19 13  1  0
 20 19  2  0
 22 21  1  1
 22 24  1  0
 23 22  1  0
 24 25  2  0
 24 26  1  0
M  END
$$$$
