DYA.pdb
     RDKit          3D

 26 26  0  0  1  0  0  0  0  0999 V2000
   41.1306   -8.4221   -8.2683 N   0  0  0  0  0  0  0  0  0  0  0  0
   40.7474   -7.2409   -7.5439 C   0  0  1  0  0  0  0  0  0  0  0  0
   41.9119   -6.2920   -7.4409 C   0  0  0  0  0  0  0  0  0  0  0  0
   42.9666   -6.9258   -6.6320 C   0  0  0  0  0  0  0  0  0  0  0  0
   44.1220   -7.0318   -7.0787 O   0  0  0  0  0  0  0  0  0  0  0  0
   39.5286   -6.6081   -8.1147 C   0  0  0  0  0  0  0  0  0  0  0  0
   39.3881   -6.6444   -9.3563 O   0  0  0  0  0  0  0  0  0  0  0  0
   42.6822   -7.4078   -5.3715 O   0  0  0  0  0  0  0  0  0  0  0  0
   37.3592   -2.3404   -2.2825 O   0  0  0  0  0  0  0  0  0  0  0  0
   37.0786   -3.0813   -3.4164 C   0  0  0  0  0  0  0  0  0  0  0  0
   37.2426   -4.4490   -3.3744 C   0  0  0  0  0  0  0  0  0  0  0  0
   36.9659   -5.1873   -4.4964 C   0  0  0  0  0  0  0  0  0  0  0  0
   36.5238   -4.5678   -5.6673 C   0  0  0  0  0  0  0  0  0  0  0  0
   36.2455   -5.3890   -6.8630 C   0  0  0  0  0  0  0  0  0  0  0  0
   37.3569   -5.3622   -7.8904 C   0  0  2  0  0  0  0  0  0  0  0  0
   38.5482   -5.9812   -7.3111 N   0  0  0  0  0  0  0  0  0  0  0  0
   37.6676   -3.9913   -8.3728 C   0  0  0  0  0  0  0  0  0  0  0  0
   38.4679   -3.2876   -7.7024 O   0  0  0  0  0  0  0  0  0  0  0  0
   36.3679   -3.1937   -5.6819 C   0  0  0  0  0  0  0  0  0  0  0  0
   36.6426   -2.4393   -4.5605 C   0  0  0  0  0  0  0  0  0  0  0  0
   36.6829   -1.8740  -11.3520 C   0  0  0  0  0  0  0  0  0  0  0  0
   37.4016   -2.1364  -10.0528 C   0  0  2  0  0  0  0  0  0  0  0  0
   37.0974   -3.4472   -9.5570 N   0  0  0  0  0  0  0  0  0  0  0  0
   37.0663   -1.0675   -9.0844 C   0  0  0  0  0  0  0  0  0  0  0  0
   37.9583   -0.2204   -8.8260 O   0  0  0  0  0  0  0  0  0  0  0  0
   35.8513   -0.9324   -8.4467 O   0  0  0  0  0  0  0  0  0  0  0  0
  2  1  1  6
  3  2  1  0
  3  4  1  0
  4  5  2  0
  6  2  1  0
  7  6  2  0
  8  4  1  0
  9 10  1  0
 10 11  2  0
 10 20  1  0
 11 12  1  0
 12 13  2  0
 13 14  1  0
 15 14  1  1
 15 17  1  0
 15 16  1  0
 16  6  1  0
 17 23  1  0
 18 17  2  0
 19 13  1  0
 20 19  2  0
 22 21  1  6
 22 24  1  0
 23 22  1  0
 24 25  2  0
 24 26  1  0
M  END
$$$$
