DYA.pdb
     RDKit          3D

 26 26  0  0  1  0  0  0  0  0999 V2000
   19.3534  -20.7900  -12.8569 N   0  0  0  0  0  0  0  0  0  0  0  0
   20.2136  -20.4938  -13.9701 C   0  0  1  0  0  0  0  0  0  0  0  0
   19.5883  -19.4409  -14.8461 C   0  0  0  0  0  0  0  0  0  0  0  0
   18.4134  -20.0223  -15.5168 C   0  0  0  0  0  0  0  0  0  0  0  0
   18.4282  -21.2068  -15.8943 O   0  0  0  0  0  0  0  0  0  0  0  0
   21.5914  -20.1449  -13.5322 C   0  0  0  0  0  0  0  0  0  0  0  0
   21.7136  -19.2304  -12.6887 O   0  0  0  0  0  0  0  0  0  0  0  0
   17.2857  -19.2580  -15.7325 O   0  0  0  0  0  0  0  0  0  0  0  0
   30.0805  -20.7607  -11.4442 O   0  0  0  0  0  0  0  0  0  0  0  0
   28.8043  -20.9880  -11.9271 C   0  0  0  0  0  0  0  0  0  0  0  0
   27.7519  -21.0157  -11.0377 C   0  0  0  0  0  0  0  0  0  0  0  0
   26.4852  -21.2412  -11.5121 C   0  0  0  0  0  0  0  0  0  0  0  0
   26.2588  -21.4403  -12.8757 C   0  0  0  0  0  0  0  0  0  0  0  0
   24.8845  -21.6928  -13.3545 C   0  0  0  0  0  0  0  0  0  0  0  0
   24.0877  -20.4308  -13.6066 C   0  0  2  0  0  0  0  0  0  0  0  0
   22.7391  -20.8028  -14.0319 N   0  0  0  0  0  0  0  0  0  0  0  0
   24.7199  -19.5369  -14.6116 C   0  0  0  0  0  0  0  0  0  0  0  0
   24.5800  -19.8140  -15.8317 O   0  0  0  0  0  0  0  0  0  0  0  0
   27.3328  -21.4075  -13.7463 C   0  0  0  0  0  0  0  0  0  0  0  0
   28.6119  -21.1816  -13.2824 C   0  0  0  0  0  0  0  0  0  0  0  0
   26.8784  -16.4291  -14.5019 C   0  0  0  0  0  0  0  0  0  0  0  0
   26.1321  -17.5383  -15.1991 C   0  0  2  0  0  0  0  0  0  0  0  0
   25.4737  -18.3864  -14.2485 N   0  0  0  0  0  0  0  0  0  0  0  0
   27.0669  -18.2807  -16.0754 C   0  0  0  0  0  0  0  0  0  0  0  0
   27.6755  -19.2598  -15.5745 O   0  0  0  0  0  0  0  0  0  0  0  0
   27.3186  -17.9787  -17.3971 O   0  0  0  0  0  0  0  0  0  0  0  0
  2  1  1  1
  3  2  1  0
  3  4  1  0
  4  5  2  0
  6  2  1  0
  7  6  2  0
  8  4  1  0
  9 10  1  0
 10 11  2  0
 10 20  1  0
 11 12  1  0
 12 13  2  0
 13 14  1  0
 15 14  1  6
 15 17  1  0
 15 16  1  0
 16  6  1  0
 17 23  1  0
 18 17  2  0
 19 13  1  0
 20 19  2  0
 22 21  1  1
 22 24  1  0
 23 22  1  0
 24 25  2  0
 24 26  1  0
M  END
$$$$
