DYA.pdb
     RDKit          3D

 26 26  0  0  1  0  0  0  0  0999 V2000
   24.9699  -40.0677   -9.0042 N   0  0  0  0  0  0  0  0  0  0  0  0
   24.1369  -39.0443   -8.4337 C   0  0  1  0  0  0  0  0  0  0  0  0
   22.7860  -39.6082   -8.0813 C   0  0  0  0  0  0  0  0  0  0  0  0
   22.0837  -39.9629   -9.3260 C   0  0  0  0  0  0  0  0  0  0  0  0
   22.6526  -39.8403  -10.4246 O   0  0  0  0  0  0  0  0  0  0  0  0
   24.7988  -38.3595   -7.2915 C   0  0  0  0  0  0  0  0  0  0  0  0
   25.5087  -39.0567   -6.5347 O   0  0  0  0  0  0  0  0  0  0  0  0
   20.7882  -40.4342   -9.2843 O   0  0  0  0  0  0  0  0  0  0  0  0
   28.1219  -32.1423   -2.0291 O   0  0  0  0  0  0  0  0  0  0  0  0
   27.5098  -32.8262   -3.0641 C   0  0  0  0  0  0  0  0  0  0  0  0
   28.1803  -33.8743   -3.6568 C   0  0  0  0  0  0  0  0  0  0  0  0
   27.5773  -34.5547   -4.6834 C   0  0  0  0  0  0  0  0  0  0  0  0
   26.3024  -34.1955   -5.1259 C   0  0  0  0  0  0  0  0  0  0  0  0
   25.6844  -34.9400   -6.2418 C   0  0  0  0  0  0  0  0  0  0  0  0
   25.2352  -36.3357   -5.8658 C   0  0  2  0  0  0  0  0  0  0  0  0
   24.6505  -36.9752   -7.0436 N   0  0  0  0  0  0  0  0  0  0  0  0
   24.2700  -36.3494   -4.7358 C   0  0  0  0  0  0  0  0  0  0  0  0
   23.0739  -36.0313   -4.9660 O   0  0  0  0  0  0  0  0  0  0  0  0
   25.6521  -33.1398   -4.5135 C   0  0  0  0  0  0  0  0  0  0  0  0
   26.2471  -32.4470   -3.4799 C   0  0  0  0  0  0  0  0  0  0  0  0
   24.2592  -37.7340   -1.2514 C   0  0  0  0  0  0  0  0  0  0  0  0
   23.7111  -36.8348   -2.3304 C   0  0  2  0  0  0  0  0  0  0  0  0
   24.6452  -36.7063   -3.4108 N   0  0  0  0  0  0  0  0  0  0  0  0
   23.3407  -35.5295   -1.7373 C   0  0  0  0  0  0  0  0  0  0  0  0
   22.1165  -35.2923   -1.5793 O   0  0  0  0  0  0  0  0  0  0  0  0
   24.2367  -34.5572   -1.3461 O   0  0  0  0  0  0  0  0  0  0  0  0
  2  1  1  1
  3  2  1  0
  3  4  1  0
  4  5  2  0
  6  2  1  0
  7  6  2  0
  8  4  1  0
  9 10  1  0
 10 11  2  0
 10 20  1  0
 11 12  1  0
 12 13  2  0
 13 14  1  0
 15 14  1  6
 15 17  1  0
 15 16  1  0
 16  6  1  0
 17 23  1  0
 18 17  2  0
 19 13  1  0
 20 19  2  0
 22 21  1  1
 22 24  1  0
 23 22  1  0
 24 25  2  0
 24 26  1  0
M  END
$$$$
