DYA.pdb
     RDKit          3D

 26 26  0  0  1  0  0  0  0  0999 V2000
   21.2661  -13.2530  -16.3168 N   0  0  0  0  0  0  0  0  0  0  0  0
   20.4911  -12.1664  -16.8512 C   0  0  1  0  0  0  0  0  0  0  0  0
   19.0347  -12.3515  -16.5172 C   0  0  0  0  0  0  0  0  0  0  0  0
   18.5706  -13.6148  -17.1149 C   0  0  0  0  0  0  0  0  0  0  0  0
   18.9915  -13.9745  -18.2280 O   0  0  0  0  0  0  0  0  0  0  0  0
   21.0223  -10.8429  -16.4294 C   0  0  0  0  0  0  0  0  0  0  0  0
   21.1875  -10.6520  -15.2050 O   0  0  0  0  0  0  0  0  0  0  0  0
   17.6646  -14.4104  -16.4452 O   0  0  0  0  0  0  0  0  0  0  0  0
   25.1687   -3.0691  -17.1817 O   0  0  0  0  0  0  0  0  0  0  0  0
   24.6781   -4.3551  -17.3186 C   0  0  0  0  0  0  0  0  0  0  0  0
   24.0412   -4.7027  -18.4903 C   0  0  0  0  0  0  0  0  0  0  0  0
   23.5529   -5.9765  -18.6299 C   0  0  0  0  0  0  0  0  0  0  0  0
   23.6961   -6.9123  -17.6032 C   0  0  0  0  0  0  0  0  0  0  0  0
   23.1488   -8.2728  -17.7790 C   0  0  0  0  0  0  0  0  0  0  0  0
   21.9296   -8.5520  -16.9265 C   0  0  2  0  0  0  0  0  0  0  0  0
   21.3376   -9.8192  -17.3527 N   0  0  0  0  0  0  0  0  0  0  0  0
   20.9200   -7.4629  -16.9843 C   0  0  0  0  0  0  0  0  0  0  0  0
   20.3832   -7.2022  -18.0929 O   0  0  0  0  0  0  0  0  0  0  0  0
   24.3394   -6.5370  -16.4379 C   0  0  0  0  0  0  0  0  0  0  0  0
   24.8353   -5.2591  -16.2844 C   0  0  0  0  0  0  0  0  0  0  0  0
   18.4817   -5.7954  -14.9460 C   0  0  0  0  0  0  0  0  0  0  0  0
   19.6394   -5.5928  -15.8904 C   0  0  2  0  0  0  0  0  0  0  0  0
   20.5399   -6.7077  -15.8402 N   0  0  0  0  0  0  0  0  0  0  0  0
   20.3046   -4.3069  -15.5792 C   0  0  0  0  0  0  0  0  0  0  0  0
   21.3061   -4.3423  -14.8205 O   0  0  0  0  0  0  0  0  0  0  0  0
   19.9083   -3.0764  -16.0588 O   0  0  0  0  0  0  0  0  0  0  0  0
  2  1  1  1
  3  2  1  0
  3  4  1  0
  4  5  2  0
  6  2  1  0
  7  6  2  0
  8  4  1  0
  9 10  1  0
 10 11  2  0
 10 20  1  0
 11 12  1  0
 12 13  2  0
 13 14  1  0
 15 14  1  6
 15 17  1  0
 15 16  1  0
 16  6  1  0
 17 23  1  0
 18 17  2  0
 19 13  1  0
 20 19  2  0
 22 21  1  1
 22 24  1  0
 23 22  1  0
 24 25  2  0
 24 26  1  0
M  END
$$$$
