IPG.pdb
     RDKit          3D

 20 20  0  0  1  0  0  0  0  0999 V2000
    6.8085  -11.5188   27.4532 C   0  0  0  0  0  0  0  0  0  0  0  0
    6.0344  -12.5339   26.6301 C   0  0  0  0  0  0  0  0  0  0  0  0
    7.0329  -13.4949   26.0695 C   0  0  2  0  0  0  0  0  0  0  0  0
    8.1184  -12.7658   25.3054 C   0  0  0  0  0  0  0  0  0  0  0  0
    6.3689  -14.5468   25.2003 C   0  0  2  0  0  0  0  0  0  0  0  0
    5.4670  -15.2796   26.0621 N   0  0  0  0  0  0  0  0  0  0  0  0
    7.3068  -15.4583   24.5499 C   0  0  0  0  0  0  0  0  0  0  0  0
    7.6888  -16.5287   25.1440 O   0  0  0  0  0  0  0  0  0  0  0  0
    7.8082  -15.1662   23.2459 N   0  0  0  0  0  0  0  0  0  0  0  0
    7.6630  -13.9617   22.4713 C   0  0  0  0  0  0  0  0  0  0  0  0
    8.2443  -14.2425   21.0858 C   0  0  0  0  0  0  0  0  0  0  0  0
    8.1352  -15.7553   21.0459 C   0  0  0  0  0  0  0  0  0  0  0  0
    8.5960  -16.1023   22.4214 C   0  0  1  0  0  0  0  0  0  0  0  0
   10.0315  -15.7900   22.6477 C   0  0  0  0  0  0  0  0  0  0  0  0
   10.4054  -14.7240   23.2129 O   0  0  0  0  0  0  0  0  0  0  0  0
   11.0217  -16.7260   22.2119 N   0  0  0  0  0  0  0  0  0  0  0  0
   11.9146  -17.3674   23.1144 C   0  0  0  0  0  0  0  0  0  0  0  0
   13.0937  -16.5461   23.4691 C   0  0  0  0  0  0  0  0  0  0  0  0
   13.2276  -16.1855   24.8027 O   0  0  0  0  0  0  0  0  0  0  0  0
   13.9653  -16.1605   22.6594 O   0  0  0  0  0  0  0  0  0  0  0  0
  2  1  1  0
  3  2  1  0
  3  5  1  0
  3  4  1  6
  5  7  1  0
  5  6  1  1
  7  9  1  0
  8  7  2  0
  9 13  1  0
  9 10  1  0
 11 10  1  0
 12 11  1  0
 12 13  1  0
 13 14  1  6
 14 16  1  0
 14 15  2  0
 16 17  1  0
 17 18  1  0
 18 19  1  0
 20 18  2  0
M  END
$$$$
