IPG.pdb
     RDKit          3D

 20 20  0  0  1  0  0  0  0  0999 V2000
    6.7935  -11.7601   27.4063 C   0  0  0  0  0  0  0  0  0  0  0  0
    6.0364  -12.8132   26.6159 C   0  0  0  0  0  0  0  0  0  0  0  0
    7.0532  -13.7581   26.0608 C   0  0  2  0  0  0  0  0  0  0  0  0
    8.1029  -13.0167   25.2596 C   0  0  0  0  0  0  0  0  0  0  0  0
    6.4058  -14.8505   25.2298 C   0  0  2  0  0  0  0  0  0  0  0  0
    5.6341  -15.6597   26.1478 N   0  0  0  0  0  0  0  0  0  0  0  0
    7.3570  -15.6796   24.4941 C   0  0  0  0  0  0  0  0  0  0  0  0
    7.7580  -16.7956   24.9824 O   0  0  0  0  0  0  0  0  0  0  0  0
    7.8503  -15.2555   23.2237 N   0  0  0  0  0  0  0  0  0  0  0  0
    7.7229  -13.9700   22.5887 C   0  0  0  0  0  0  0  0  0  0  0  0
    8.2828  -14.1077   21.1731 C   0  0  0  0  0  0  0  0  0  0  0  0
    8.1405  -15.6043   20.9680 C   0  0  0  0  0  0  0  0  0  0  0  0
    8.6086  -16.1105   22.2907 C   0  0  1  0  0  0  0  0  0  0  0  0
   10.0529  -15.8544   22.5311 C   0  0  0  0  0  0  0  0  0  0  0  0
   10.4598  -14.8256   23.1408 O   0  0  0  0  0  0  0  0  0  0  0  0
   11.0134  -16.8027   22.0571 N   0  0  0  0  0  0  0  0  0  0  0  0
   12.1133  -17.2349   22.8486 C   0  0  0  0  0  0  0  0  0  0  0  0
   13.2231  -16.2574   22.9092 C   0  0  0  0  0  0  0  0  0  0  0  0
   13.5963  -15.8108   24.1693 O   0  0  0  0  0  0  0  0  0  0  0  0
   13.8386  -15.8130   21.9155 O   0  0  0  0  0  0  0  0  0  0  0  0
  2  1  1  0
  3  2  1  0
  3  5  1  0
  3  4  1  6
  5  7  1  0
  5  6  1  1
  7  9  1  0
  8  7  2  0
  9 13  1  0
  9 10  1  0
 11 10  1  0
 12 11  1  0
 12 13  1  0
 13 14  1  6
 14 16  1  0
 14 15  2  0
 16 17  1  0
 17 18  1  0
 18 19  1  0
 20 18  2  0
M  END
$$$$
