IPG.pdb
     RDKit          3D

 20 20  0  0  1  0  0  0  0  0999 V2000
    7.2550  -11.7458   27.5944 C   0  0  0  0  0  0  0  0  0  0  0  0
    6.3620  -12.6421   26.7541 C   0  0  0  0  0  0  0  0  0  0  0  0
    7.2445  -13.6709   26.1235 C   0  0  2  0  0  0  0  0  0  0  0  0
    8.3429  -13.0188   25.3100 C   0  0  0  0  0  0  0  0  0  0  0  0
    6.4482  -14.6475   25.2779 C   0  0  2  0  0  0  0  0  0  0  0  0
    5.5232  -15.3054   26.1749 N   0  0  0  0  0  0  0  0  0  0  0  0
    7.2683  -15.6327   24.5776 C   0  0  0  0  0  0  0  0  0  0  0  0
    7.4351  -16.8053   25.0696 O   0  0  0  0  0  0  0  0  0  0  0  0
    7.8929  -15.2998   23.3382 N   0  0  0  0  0  0  0  0  0  0  0  0
    8.2114  -14.0002   22.8078 C   0  0  0  0  0  0  0  0  0  0  0  0
    8.7131  -14.2059   21.3786 C   0  0  0  0  0  0  0  0  0  0  0  0
    8.0816  -15.5479   21.0585 C   0  0  0  0  0  0  0  0  0  0  0  0
    8.3348  -16.2834   22.3313 C   0  0  1  0  0  0  0  0  0  0  0  0
    9.7781  -16.5444   22.5724 C   0  0  0  0  0  0  0  0  0  0  0  0
   10.4273  -17.3960   21.9022 O   0  0  0  0  0  0  0  0  0  0  0  0
   10.4543  -15.8083   23.5958 N   0  0  0  0  0  0  0  0  0  0  0  0
   11.7394  -16.1791   24.0796 C   0  0  0  0  0  0  0  0  0  0  0  0
   12.8215  -16.0098   23.0840 C   0  0  0  0  0  0  0  0  0  0  0  0
   13.6673  -14.9230   23.2569 O   0  0  0  0  0  0  0  0  0  0  0  0
   13.0223  -16.7695   22.1112 O   0  0  0  0  0  0  0  0  0  0  0  0
  2  1  1  0
  3  2  1  0
  3  5  1  0
  3  4  1  6
  5  7  1  0
  5  6  1  1
  7  9  1  0
  8  7  2  0
  9 13  1  0
  9 10  1  0
 11 10  1  0
 12 11  1  0
 12 13  1  0
 13 14  1  1
 14 16  1  0
 14 15  2  0
 16 17  1  0
 17 18  1  0
 18 19  1  0
 20 18  2  0
M  END
$$$$
