IPG.pdb
     RDKit          3D

 20 20  0  0  1  0  0  0  0  0999 V2000
    8.4894  -12.6227   27.2096 C   0  0  0  0  0  0  0  0  0  0  0  0
    7.9870  -14.0187   26.8842 C   0  0  0  0  0  0  0  0  0  0  0  0
    6.9017  -13.8668   25.8674 C   0  0  2  0  0  0  0  0  0  0  0  0
    5.7437  -13.0657   26.4251 C   0  0  0  0  0  0  0  0  0  0  0  0
    6.4315  -15.2124   25.3468 C   0  0  2  0  0  0  0  0  0  0  0  0
    6.1763  -16.0344   26.5097 N   0  0  0  0  0  0  0  0  0  0  0  0
    7.3836  -15.8702   24.4556 C   0  0  0  0  0  0  0  0  0  0  0  0
    7.8757  -17.0140   24.7626 O   0  0  0  0  0  0  0  0  0  0  0  0
    7.7764  -15.2458   23.2338 N   0  0  0  0  0  0  0  0  0  0  0  0
    7.3773  -13.9688   22.7031 C   0  0  0  0  0  0  0  0  0  0  0  0
    7.9558  -13.8649   21.2921 C   0  0  0  0  0  0  0  0  0  0  0  0
    8.1378  -15.3349   20.9632 C   0  0  0  0  0  0  0  0  0  0  0  0
    8.7016  -15.8383   22.2491 C   0  0  1  0  0  0  0  0  0  0  0  0
   10.0571  -15.3008   22.5373 C   0  0  0  0  0  0  0  0  0  0  0  0
   10.2445  -14.3546   23.3530 O   0  0  0  0  0  0  0  0  0  0  0  0
   11.1860  -15.8728   21.8702 N   0  0  0  0  0  0  0  0  0  0  0  0
   11.7342  -17.1317   22.2415 C   0  0  0  0  0  0  0  0  0  0  0  0
   12.8782  -17.0302   23.1752 C   0  0  0  0  0  0  0  0  0  0  0  0
   12.6237  -17.3109   24.5104 O   0  0  0  0  0  0  0  0  0  0  0  0
   14.0424  -16.7131   22.8466 O   0  0  0  0  0  0  0  0  0  0  0  0
  2  1  1  0
  3  2  1  0
  3  5  1  0
  3  4  1  1
  5  7  1  0
  5  6  1  1
  7  9  1  0
  8  7  2  0
  9 13  1  0
  9 10  1  0
 11 10  1  0
 12 11  1  0
 12 13  1  0
 13 14  1  1
 14 16  1  0
 14 15  2  0
 16 17  1  0
 17 18  1  0
 18 19  1  0
 20 18  2  0
M  END
$$$$
