IPG.pdb
     RDKit          3D

 20 20  0  0  1  0  0  0  0  0999 V2000
    6.5910  -11.4874   27.3267 C   0  0  0  0  0  0  0  0  0  0  0  0
    5.9559  -12.6742   26.6232 C   0  0  0  0  0  0  0  0  0  0  0  0
    7.0704  -13.4974   26.0618 C   0  0  2  0  0  0  0  0  0  0  0  0
    7.9707  -12.6607   25.1770 C   0  0  0  0  0  0  0  0  0  0  0  0
    6.5476  -14.7100   25.3141 C   0  0  2  0  0  0  0  0  0  0  0  0
    5.8272  -15.5082   26.2822 N   0  0  0  0  0  0  0  0  0  0  0  0
    7.5897  -15.5058   24.6705 C   0  0  0  0  0  0  0  0  0  0  0  0
    8.1501  -16.4721   25.3005 O   0  0  0  0  0  0  0  0  0  0  0  0
    7.9953  -15.2153   23.3333 N   0  0  0  0  0  0  0  0  0  0  0  0
    7.5592  -14.1507   22.4683 C   0  0  0  0  0  0  0  0  0  0  0  0
    8.1790  -14.4024   21.0939 C   0  0  0  0  0  0  0  0  0  0  0  0
    8.4351  -15.8954   21.1797 C   0  0  0  0  0  0  0  0  0  0  0  0
    8.9773  -16.0039   22.5650 C   0  0  1  0  0  0  0  0  0  0  0  0
   10.2981  -15.3408   22.7239 C   0  0  0  0  0  0  0  0  0  0  0  0
   10.4144  -14.0850   22.7948 O   0  0  0  0  0  0  0  0  0  0  0  0
   11.4755  -16.1499   22.7991 N   0  0  0  0  0  0  0  0  0  0  0  0
   12.5842  -15.8087   23.6222 C   0  0  0  0  0  0  0  0  0  0  0  0
   13.7082  -16.7677   23.5338 C   0  0  0  0  0  0  0  0  0  0  0  0
   14.8248  -16.3595   22.8177 O   0  0  0  0  0  0  0  0  0  0  0  0
   13.7193  -17.9050   24.0536 O   0  0  0  0  0  0  0  0  0  0  0  0
  2  1  1  0
  3  2  1  0
  3  5  1  0
  3  4  1  6
  5  7  1  0
  5  6  1  1
  7  9  1  0
  8  7  2  0
  9 13  1  0
  9 10  1  0
 11 10  1  0
 12 11  1  0
 12 13  1  0
 13 14  1  6
 14 16  1  0
 14 15  2  0
 16 17  1  0
 17 18  1  0
 18 19  1  0
 20 18  2  0
M  END
$$$$
