IPG.pdb
     RDKit          3D

 20 20  0  0  1  0  0  0  0  0999 V2000
    6.5410  -11.8220   27.4464 C   0  0  0  0  0  0  0  0  0  0  0  0
    5.8537  -12.9726   26.7318 C   0  0  0  0  0  0  0  0  0  0  0  0
    6.9222  -13.7628   26.0472 C   0  0  2  0  0  0  0  0  0  0  0  0
    7.7382  -12.8846   25.1217 C   0  0  0  0  0  0  0  0  0  0  0  0
    6.3464  -14.9521   25.3010 C   0  0  2  0  0  0  0  0  0  0  0  0
    5.6962  -15.7812   26.2925 N   0  0  0  0  0  0  0  0  0  0  0  0
    7.3392  -15.7258   24.5601 C   0  0  0  0  0  0  0  0  0  0  0  0
    7.9026  -16.7439   25.0994 O   0  0  0  0  0  0  0  0  0  0  0  0
    7.6929  -15.3559   23.2277 N   0  0  0  0  0  0  0  0  0  0  0  0
    7.2988  -14.1916   22.4788 C   0  0  0  0  0  0  0  0  0  0  0  0
    7.8189  -14.3738   21.0531 C   0  0  0  0  0  0  0  0  0  0  0  0
    7.9557  -15.8841   21.0037 C   0  0  0  0  0  0  0  0  0  0  0  0
    8.5628  -16.1507   22.3398 C   0  0  1  0  0  0  0  0  0  0  0  0
    9.9404  -15.6076   22.4692 C   0  0  0  0  0  0  0  0  0  0  0  0
   10.1619  -14.3805   22.6709 O   0  0  0  0  0  0  0  0  0  0  0  0
   11.0512  -16.5026   22.3619 N   0  0  0  0  0  0  0  0  0  0  0  0
   12.3648  -16.1402   22.7697 C   0  0  0  0  0  0  0  0  0  0  0  0
   13.2633  -17.2977   22.9792 C   0  0  0  0  0  0  0  0  0  0  0  0
   12.6741  -18.4778   23.4111 O   0  0  0  0  0  0  0  0  0  0  0  0
   14.5003  -17.2841   22.7958 O   0  0  0  0  0  0  0  0  0  0  0  0
  2  1  1  0
  3  2  1  0
  3  5  1  0
  3  4  1  6
  5  7  1  0
  5  6  1  1
  7  9  1  0
  8  7  2  0
  9 13  1  0
  9 10  1  0
 11 10  1  0
 12 11  1  0
 12 13  1  0
 13 14  1  6
 14 16  1  0
 14 15  2  0
 16 17  1  0
 17 18  1  0
 18 19  1  0
 20 18  2  0
M  END
$$$$
