IPG.pdb
     RDKit          3D

 20 20  0  0  1  0  0  0  0  0999 V2000
    6.5720  -11.7112   27.4603 C   0  0  0  0  0  0  0  0  0  0  0  0
    5.9034  -12.8496   26.7092 C   0  0  0  0  0  0  0  0  0  0  0  0
    6.9929  -13.6622   26.0867 C   0  0  2  0  0  0  0  0  0  0  0  0
    7.8753  -12.8028   25.2056 C   0  0  0  0  0  0  0  0  0  0  0  0
    6.4367  -14.8431   25.3128 C   0  0  2  0  0  0  0  0  0  0  0  0
    5.7312  -15.6649   26.2719 N   0  0  0  0  0  0  0  0  0  0  0  0
    7.4525  -15.6286   24.6167 C   0  0  0  0  0  0  0  0  0  0  0  0
    7.9877  -16.6461   25.1851 O   0  0  0  0  0  0  0  0  0  0  0  0
    7.8601  -15.2712   23.2965 N   0  0  0  0  0  0  0  0  0  0  0  0
    7.5449  -14.0854   22.5439 C   0  0  0  0  0  0  0  0  0  0  0  0
    8.0938  -14.2873   21.1316 C   0  0  0  0  0  0  0  0  0  0  0  0
    8.1565  -15.8022   21.0774 C   0  0  0  0  0  0  0  0  0  0  0  0
    8.7131  -16.1045   22.4278 C   0  0  1  0  0  0  0  0  0  0  0  0
   10.1120  -15.6314   22.5972 C   0  0  0  0  0  0  0  0  0  0  0  0
   10.3820  -14.4639   22.9965 O   0  0  0  0  0  0  0  0  0  0  0  0
   11.1874  -16.5264   22.2986 N   0  0  0  0  0  0  0  0  0  0  0  0
   12.5520  -16.1626   22.4685 C   0  0  0  0  0  0  0  0  0  0  0  0
   13.1754  -16.7411   23.6799 C   0  0  0  0  0  0  0  0  0  0  0  0
   12.3745  -16.8428   24.8088 O   0  0  0  0  0  0  0  0  0  0  0  0
   14.3587  -17.1389   23.7537 O   0  0  0  0  0  0  0  0  0  0  0  0
  2  1  1  0
  3  2  1  0
  3  5  1  0
  3  4  1  6
  5  7  1  0
  5  6  1  1
  7  9  1  0
  8  7  2  0
  9 13  1  0
  9 10  1  0
 11 10  1  0
 12 11  1  0
 12 13  1  0
 13 14  1  6
 14 16  1  0
 14 15  2  0
 16 17  1  0
 17 18  1  0
 18 19  1  0
 20 18  2  0
M  END
$$$$
