IPG.pdb
     RDKit          3D

 20 20  0  0  1  0  0  0  0  0999 V2000
    6.5740  -11.5623   27.2921 C   0  0  0  0  0  0  0  0  0  0  0  0
    5.9197  -12.7520   26.6112 C   0  0  0  0  0  0  0  0  0  0  0  0
    7.0194  -13.5864   26.0373 C   0  0  2  0  0  0  0  0  0  0  0  0
    7.9058  -12.7637   25.1258 C   0  0  0  0  0  0  0  0  0  0  0  0
    6.4767  -14.8048   25.3134 C   0  0  2  0  0  0  0  0  0  0  0  0
    5.8041  -15.6076   26.3116 N   0  0  0  0  0  0  0  0  0  0  0  0
    7.4982  -15.5925   24.6282 C   0  0  0  0  0  0  0  0  0  0  0  0
    8.0465  -16.5933   25.2134 O   0  0  0  0  0  0  0  0  0  0  0  0
    7.8969  -15.2557   23.2998 N   0  0  0  0  0  0  0  0  0  0  0  0
    7.5101  -14.1227   22.5006 C   0  0  0  0  0  0  0  0  0  0  0  0
    8.0894  -14.3370   21.1025 C   0  0  0  0  0  0  0  0  0  0  0  0
    8.2571  -15.8449   21.1050 C   0  0  0  0  0  0  0  0  0  0  0  0
    8.8161  -16.0588   22.4712 C   0  0  1  0  0  0  0  0  0  0  0  0
   10.1768  -15.4840   22.6371 C   0  0  0  0  0  0  0  0  0  0  0  0
   10.3708  -14.2413   22.7547 O   0  0  0  0  0  0  0  0  0  0  0  0
   11.3032  -16.3655   22.6644 N   0  0  0  0  0  0  0  0  0  0  0  0
   12.5979  -15.9366   23.0681 C   0  0  0  0  0  0  0  0  0  0  0  0
   13.5980  -17.0267   23.1148 C   0  0  0  0  0  0  0  0  0  0  0  0
   13.9952  -17.4588   24.3725 O   0  0  0  0  0  0  0  0  0  0  0  0
   14.1023  -17.5769   22.1114 O   0  0  0  0  0  0  0  0  0  0  0  0
  2  1  1  0
  3  2  1  0
  3  5  1  0
  3  4  1  6
  5  7  1  0
  5  6  1  1
  7  9  1  0
  8  7  2  0
  9 13  1  0
  9 10  1  0
 11 10  1  0
 12 11  1  0
 12 13  1  0
 13 14  1  6
 14 16  1  0
 14 15  2  0
 16 17  1  0
 17 18  1  0
 18 19  1  0
 20 18  2  0
M  END
$$$$
