IPG.pdb
     RDKit          3D

 20 20  0  0  1  0  0  0  0  0999 V2000
   10.5387  -14.2428   29.5558 C   0  0  0  0  0  0  0  0  0  0  0  0
    9.2332  -14.9061   29.1526 C   0  0  0  0  0  0  0  0  0  0  0  0
    9.3717  -15.3090   27.7197 C   0  0  2  0  0  0  0  0  0  0  0  0
    9.8440  -14.1462   26.8721 C   0  0  0  0  0  0  0  0  0  0  0  0
    8.0797  -15.8896   27.1751 C   0  0  2  0  0  0  0  0  0  0  0  0
    7.7458  -17.0122   28.0244 N   0  0  0  0  0  0  0  0  0  0  0  0
    8.1602  -16.3117   25.7791 C   0  0  0  0  0  0  0  0  0  0  0  0
    8.4095  -17.5348   25.4846 O   0  0  0  0  0  0  0  0  0  0  0  0
    7.9626  -15.3665   24.7282 N   0  0  0  0  0  0  0  0  0  0  0  0
    7.7066  -13.9531   24.8210 C   0  0  0  0  0  0  0  0  0  0  0  0
    7.4064  -13.4543   23.4077 C   0  0  0  0  0  0  0  0  0  0  0  0
    6.9619  -14.7477   22.7508 C   0  0  0  0  0  0  0  0  0  0  0  0
    7.9793  -15.6958   23.2902 C   0  0  1  0  0  0  0  0  0  0  0  0
    9.3514  -15.4198   22.7896 C   0  0  0  0  0  0  0  0  0  0  0  0
   10.1963  -14.7722   23.4695 O   0  0  0  0  0  0  0  0  0  0  0  0
    9.7278  -15.9026   21.4966 N   0  0  0  0  0  0  0  0  0  0  0  0
   10.1702  -17.2369   21.2797 C   0  0  0  0  0  0  0  0  0  0  0  0
   11.6346  -17.4071   21.4121 C   0  0  0  0  0  0  0  0  0  0  0  0
   12.2524  -16.7287   22.4534 O   0  0  0  0  0  0  0  0  0  0  0  0
   12.3427  -18.1111   20.6592 O   0  0  0  0  0  0  0  0  0  0  0  0
  2  1  1  0
  3  2  1  0
  3  5  1  0
  3  4  1  6
  5  7  1  0
  5  6  1  1
  7  9  1  0
  8  7  2  0
  9 13  1  0
  9 10  1  0
 11 10  1  0
 12 11  1  0
 12 13  1  0
 13 14  1  6
 14 16  1  0
 14 15  2  0
 16 17  1  0
 17 18  1  0
 18 19  1  0
 20 18  2  0
M  END
$$$$
