KDY.pdb
     RDKit          3D

 30 30  0  0  1  0  0  0  0  0999 V2000
    7.5184  -16.8786   20.8137 N   0  0  0  0  0  0  0  0  0  0  0  0
    8.3136  -15.9079   21.4987 C   0  0  1  0  0  0  0  0  0  0  0  0
    7.4650  -14.7119   21.9224 C   0  0  0  0  0  0  0  0  0  0  0  0
    7.7721  -13.5617   21.0221 C   0  0  0  0  0  0  0  0  0  0  0  0
    7.5376  -13.7948   19.5817 C   0  0  0  0  0  0  0  0  0  0  0  0
    7.8791  -12.7350   18.6174 C   0  0  0  0  0  0  0  0  0  0  0  0
    7.5365  -13.0595   17.2756 N   0  0  0  0  0  0  0  0  0  0  0  0
    8.9448  -16.4999   22.7033 C   0  0  0  0  0  0  0  0  0  0  0  0
    8.2665  -17.2076   23.4984 O   0  0  0  0  0  0  0  0  0  0  0  0
   10.3217  -16.2933   23.0017 N   0  0  0  0  0  0  0  0  0  0  0  0
   10.9135  -16.9888   24.0989 C   0  0  1  0  0  0  0  0  0  0  0  0
   12.3662  -17.2800   23.7990 C   0  0  0  0  0  0  0  0  0  0  0  0
   12.5511  -17.9700   22.4982 C   0  0  0  0  0  0  0  0  0  0  0  0
   13.2558  -17.4127   21.6016 O   0  0  0  0  0  0  0  0  0  0  0  0
   10.8216  -16.2092   25.3639 C   0  0  0  0  0  0  0  0  0  0  0  0
   11.3028  -15.0543   25.4882 O   0  0  0  0  0  0  0  0  0  0  0  0
   12.0085  -19.1961   22.1718 O   0  0  0  0  0  0  0  0  0  0  0  0
    6.7676  -11.3484   25.4946 O   0  0  0  0  0  0  0  0  0  0  0  0
    7.2515  -12.4438   26.1567 C   0  0  0  0  0  0  0  0  0  0  0  0
    6.5485  -13.6412   26.1321 C   0  0  0  0  0  0  0  0  0  0  0  0
    7.0534  -14.7366   26.8070 C   0  0  0  0  0  0  0  0  0  0  0  0
    8.2367  -14.6748   27.5054 C   0  0  0  0  0  0  0  0  0  0  0  0
    8.7671  -15.8384   28.2287 C   0  0  0  0  0  0  0  0  0  0  0  0
   10.1680  -16.1415   27.7932 C   0  0  2  0  0  0  0  0  0  0  0  0
   10.1689  -16.7882   26.4680 N   0  0  0  0  0  0  0  0  0  0  0  0
   10.9239  -16.9943   28.7266 C   0  0  0  0  0  0  0  0  0  0  0  0
   11.3610  -16.5841   29.9733 O   0  0  0  0  0  0  0  0  0  0  0  0
    8.9148  -13.4704   27.5124 C   0  0  0  0  0  0  0  0  0  0  0  0
    8.4379  -12.3591   26.8491 C   0  0  0  0  0  0  0  0  0  0  0  0
   11.2020  -18.1692   28.3922 O   0  0  0  0  0  0  0  0  0  0  0  0
  2  1  1  1
  2  8  1  0
  2  3  1  0
  4  3  1  0
  4  5  1  0
  6  5  1  0
  7  6  1  0
  8  9  2  0
 10 11  1  0
 10  8  1  0
 11 12  1  6
 13 12  1  0
 14 13  2  0
 15 16  2  0
 15 11  1  0
 17 13  1  0
 18 19  1  0
 19 29  2  0
 19 20  1  0
 20 21  2  0
 21 22  1  0
 22 23  1  0
 24 23  1  1
 24 26  1  0
 24 25  1  0
 25 15  1  0
 26 27  1  0
 28 22  2  0
 29 28  1  0
 30 26  2  0
M  END
$$$$
