KDY.pdb
     RDKit          3D

 30 30  0  0  1  0  0  0  0  0999 V2000
    7.8988  -19.8056   19.9126 N   0  0  0  0  0  0  0  0  0  0  0  0
    7.4987  -19.0469   21.0563 C   0  0  1  0  0  0  0  0  0  0  0  0
    6.8465  -19.9459   22.1034 C   0  0  0  0  0  0  0  0  0  0  0  0
    6.8777  -21.3553   21.6132 C   0  0  0  0  0  0  0  0  0  0  0  0
    6.1858  -22.3455   22.4646 C   0  0  0  0  0  0  0  0  0  0  0  0
    6.0995  -23.7452   22.0138 C   0  0  0  0  0  0  0  0  0  0  0  0
    5.4865  -24.6084   22.9636 N   0  0  0  0  0  0  0  0  0  0  0  0
    8.6643  -18.3637   21.6686 C   0  0  0  0  0  0  0  0  0  0  0  0
    9.5998  -19.0347   22.1858 O   0  0  0  0  0  0  0  0  0  0  0  0
    8.7676  -16.9437   21.6940 N   0  0  0  0  0  0  0  0  0  0  0  0
    9.8661  -16.3326   22.3706 C   0  0  1  0  0  0  0  0  0  0  0  0
   10.3608  -15.1444   21.5778 C   0  0  0  0  0  0  0  0  0  0  0  0
   10.9137  -15.5327   20.2565 C   0  0  0  0  0  0  0  0  0  0  0  0
   11.8702  -16.3659   20.2112 O   0  0  0  0  0  0  0  0  0  0  0  0
    9.4940  -15.8860   23.7411 C   0  0  0  0  0  0  0  0  0  0  0  0
    8.5268  -15.1150   23.9666 O   0  0  0  0  0  0  0  0  0  0  0  0
   10.4658  -15.0532   19.0425 O   0  0  0  0  0  0  0  0  0  0  0  0
    5.8589  -11.2096   26.6296 O   0  0  0  0  0  0  0  0  0  0  0  0
    6.4685  -12.4332   26.5668 C   0  0  0  0  0  0  0  0  0  0  0  0
    7.7948  -12.5730   26.9541 C   0  0  0  0  0  0  0  0  0  0  0  0
    8.3931  -13.8169   26.8835 C   0  0  0  0  0  0  0  0  0  0  0  0
    7.7103  -14.9248   26.4386 C   0  0  0  0  0  0  0  0  0  0  0  0
    8.3511  -16.2443   26.3568 C   0  0  0  0  0  0  0  0  0  0  0  0
    9.8369  -16.1061   26.2245 C   0  0  2  0  0  0  0  0  0  0  0  0
   10.2563  -16.3452   24.8312 N   0  0  0  0  0  0  0  0  0  0  0  0
   10.6113  -17.0002   27.1025 C   0  0  0  0  0  0  0  0  0  0  0  0
   10.6637  -16.8822   28.4798 O   0  0  0  0  0  0  0  0  0  0  0  0
    6.3918  -14.7559   26.0599 C   0  0  0  0  0  0  0  0  0  0  0  0
    5.7658  -13.5283   26.1186 C   0  0  0  0  0  0  0  0  0  0  0  0
   11.2739  -17.9334   26.5928 O   0  0  0  0  0  0  0  0  0  0  0  0
  2  1  1  6
  2  8  1  0
  2  3  1  0
  4  3  1  0
  4  5  1  0
  6  5  1  0
  7  6  1  0
  8  9  2  0
 10 11  1  0
 10  8  1  0
 11 12  1  6
 13 12  1  0
 14 13  2  0
 15 16  2  0
 15 11  1  0
 17 13  1  0
 18 19  1  0
 19 29  2  0
 19 20  1  0
 20 21  2  0
 21 22  1  0
 22 23  1  0
 24 23  1  6
 24 26  1  0
 24 25  1  0
 25 15  1  0
 26 27  1  0
 28 22  2  0
 29 28  1  0
 30 26  2  0
M  END
$$$$
