KDY.pdb
     RDKit          3D

 30 30  0  0  1  0  0  0  0  0999 V2000
    7.0355  -16.5010   19.4861 N   0  0  0  0  0  0  0  0  0  0  0  0
    8.3027  -15.8491   19.5998 C   0  0  1  0  0  0  0  0  0  0  0  0
    8.1353  -14.4232   20.1181 C   0  0  0  0  0  0  0  0  0  0  0  0
    7.3758  -13.6304   19.1071 C   0  0  0  0  0  0  0  0  0  0  0  0
    7.9408  -13.6238   17.7415 C   0  0  0  0  0  0  0  0  0  0  0  0
    7.2413  -12.8827   16.6780 C   0  0  0  0  0  0  0  0  0  0  0  0
    7.8640  -12.9985   15.4045 N   0  0  0  0  0  0  0  0  0  0  0  0
    9.1965  -16.5931   20.5205 C   0  0  0  0  0  0  0  0  0  0  0  0
    8.7367  -17.1206   21.5709 O   0  0  0  0  0  0  0  0  0  0  0  0
   10.5881  -16.7369   20.2550 N   0  0  0  0  0  0  0  0  0  0  0  0
   11.4075  -17.4549   21.1774 C   0  0  1  0  0  0  0  0  0  0  0  0
   12.7424  -17.7693   20.5417 C   0  0  0  0  0  0  0  0  0  0  0  0
   12.6065  -18.5731   19.3016 C   0  0  0  0  0  0  0  0  0  0  0  0
   13.0756  -18.1122   18.2159 O   0  0  0  0  0  0  0  0  0  0  0  0
   11.6320  -16.6875   22.4332 C   0  0  0  0  0  0  0  0  0  0  0  0
   12.3195  -15.6357   22.4745 O   0  0  0  0  0  0  0  0  0  0  0  0
   11.9983  -19.8095   19.2260 O   0  0  0  0  0  0  0  0  0  0  0  0
   10.6097  -14.3816   30.8426 O   0  0  0  0  0  0  0  0  0  0  0  0
   10.4406  -14.8319   29.5615 C   0  0  0  0  0  0  0  0  0  0  0  0
   10.2024  -13.9319   28.5310 C   0  0  0  0  0  0  0  0  0  0  0  0
   10.0342  -14.4059   27.2436 C   0  0  0  0  0  0  0  0  0  0  0  0
   10.0958  -15.7488   26.9525 C   0  0  0  0  0  0  0  0  0  0  0  0
    9.9084  -16.2506   25.5844 C   0  0  0  0  0  0  0  0  0  0  0  0
   11.2291  -16.4494   24.9059 C   0  0  2  0  0  0  0  0  0  0  0  0
   11.0509  -17.1583   23.6253 N   0  0  0  0  0  0  0  0  0  0  0  0
   12.2210  -17.1845   25.7095 C   0  0  0  0  0  0  0  0  0  0  0  0
   13.1653  -16.5808   26.5203 O   0  0  0  0  0  0  0  0  0  0  0  0
   10.3341  -16.6211   27.9977 C   0  0  0  0  0  0  0  0  0  0  0  0
   10.5065  -16.1801   29.2931 C   0  0  0  0  0  0  0  0  0  0  0  0
   12.2309  -18.4368   25.6717 O   0  0  0  0  0  0  0  0  0  0  0  0
  2  1  1  1
  2  8  1  0
  2  3  1  0
  4  3  1  0
  4  5  1  0
  6  5  1  0
  7  6  1  0
  8  9  2  0
 10 11  1  0
 10  8  1  0
 11 12  1  6
 13 12  1  0
 14 13  2  0
 15 16  2  0
 15 11  1  0
 17 13  1  0
 18 19  1  0
 19 29  2  0
 19 20  1  0
 20 21  2  0
 21 22  1  0
 22 23  1  0
 24 23  1  1
 24 26  1  0
 24 25  1  0
 25 15  1  0
 26 27  1  0
 28 22  2  0
 29 28  1  0
 30 26  2  0
M  END
$$$$
