KDY.pdb
     RDKit          3D

 30 30  0  0  1  0  0  0  0  0999 V2000
   10.9217  -18.1646   21.3078 N   0  0  0  0  0  0  0  0  0  0  0  0
   10.2610  -18.0852   22.5731 C   0  0  1  0  0  0  0  0  0  0  0  0
   11.1892  -18.5323   23.6994 C   0  0  0  0  0  0  0  0  0  0  0  0
   11.5930  -19.9484   23.4557 C   0  0  0  0  0  0  0  0  0  0  0  0
   10.6405  -20.9763   23.9250 C   0  0  0  0  0  0  0  0  0  0  0  0
   10.9724  -22.3999   23.7432 C   0  0  0  0  0  0  0  0  0  0  0  0
   12.1120  -22.8142   24.4865 N   0  0  0  0  0  0  0  0  0  0  0  0
    9.8091  -16.6988   22.8448 C   0  0  0  0  0  0  0  0  0  0  0  0
   10.4676  -15.9519   23.6204 O   0  0  0  0  0  0  0  0  0  0  0  0
    8.6306  -16.1680   22.2473 N   0  0  0  0  0  0  0  0  0  0  0  0
    8.2300  -14.8323   22.5529 C   0  0  1  0  0  0  0  0  0  0  0  0
    7.2210  -14.3530   21.5345 C   0  0  0  0  0  0  0  0  0  0  0  0
    7.8205  -14.1490   20.1924 C   0  0  0  0  0  0  0  0  0  0  0  0
    9.0541  -14.3977   20.0260 O   0  0  0  0  0  0  0  0  0  0  0  0
    7.6378  -14.7291   23.9148 C   0  0  0  0  0  0  0  0  0  0  0  0
    6.8540  -15.5932   24.3835 O   0  0  0  0  0  0  0  0  0  0  0  0
    7.1345  -13.7007   19.0821 O   0  0  0  0  0  0  0  0  0  0  0  0
   11.8924  -16.9356   29.0416 O   0  0  0  0  0  0  0  0  0  0  0  0
   11.0835  -15.9515   28.5418 C   0  0  0  0  0  0  0  0  0  0  0  0
   10.2727  -15.2141   29.3947 C   0  0  0  0  0  0  0  0  0  0  0  0
    9.4626  -14.2243   28.8711 C   0  0  0  0  0  0  0  0  0  0  0  0
    9.4358  -13.9475   27.5241 C   0  0  0  0  0  0  0  0  0  0  0  0
    8.5676  -12.9002   26.9691 C   0  0  0  0  0  0  0  0  0  0  0  0
    7.4996  -13.4980   26.1054 C   0  0  2  0  0  0  0  0  0  0  0  0
    7.9681  -13.6178   24.7124 N   0  0  0  0  0  0  0  0  0  0  0  0
    6.2293  -12.7522   26.1055 C   0  0  0  0  0  0  0  0  0  0  0  0
    5.3092  -12.7852   27.1379 O   0  0  0  0  0  0  0  0  0  0  0  0
   10.2532  -14.6970   26.6993 C   0  0  0  0  0  0  0  0  0  0  0  0
   11.0731  -15.6914   27.1904 C   0  0  0  0  0  0  0  0  0  0  0  0
    5.9407  -12.0368   25.1183 O   0  0  0  0  0  0  0  0  0  0  0  0
  2  1  1  6
  2  8  1  0
  2  3  1  0
  4  3  1  0
  4  5  1  0
  6  5  1  0
  7  6  1  0
  8  9  2  0
 10 11  1  0
 10  8  1  0
 11 12  1  6
 13 12  1  0
 14 13  2  0
 15 16  2  0
 15 11  1  0
 17 13  1  0
 18 19  1  0
 19 29  2  0
 19 20  1  0
 20 21  2  0
 21 22  1  0
 22 23  1  0
 24 23  1  1
 24 26  1  0
 24 25  1  0
 25 15  1  0
 26 27  1  0
 28 22  2  0
 29 28  1  0
 30 26  2  0
M  END
$$$$
