TSY.pdb
     RDKit          3D

 26 26  0  0  1  0  0  0  0  0999 V2000
   30.7572   -4.8942    8.2852 C   0  0  0  0  0  0  0  0  0  0  0  0
   30.7046   -6.3981    8.2359 C   0  0  1  0  0  0  0  0  0  0  0  0
   31.8307   -7.0003    8.7782 O   0  0  0  0  0  0  0  0  0  0  0  0
   29.4958   -6.9570    8.9372 C   0  0  2  0  0  0  0  0  0  0  0  0
   29.5173   -8.3898    8.8381 N   0  0  0  0  0  0  0  0  0  0  0  0
   28.2465   -6.3768    8.3556 C   0  0  0  0  0  0  0  0  0  0  0  0
   27.8395   -6.8522    7.2689 O   0  0  0  0  0  0  0  0  0  0  0  0
   25.6985   -3.7264   10.4560 O   0  0  0  0  0  0  0  0  0  0  0  0
   25.2395   -4.5616    9.4569 C   0  0  0  0  0  0  0  0  0  0  0  0
   26.3010   -4.8162    8.3929 C   0  0  2  0  0  0  0  0  0  0  0  0
   27.5114   -5.3427    8.9491 N   0  0  0  0  0  0  0  0  0  0  0  0
   26.5612   -3.6095    7.5851 C   0  0  0  0  0  0  0  0  0  0  0  0
   27.6100   -2.9310    7.8349 O   0  0  0  0  0  0  0  0  0  0  0  0
   26.3505    1.8504    0.5603 O   0  0  0  0  0  0  0  0  0  0  0  0
   26.2948    0.8498    1.5232 C   0  0  0  0  0  0  0  0  0  0  0  0
   27.3463   -0.0330    1.6398 C   0  0  0  0  0  0  0  0  0  0  0  0
   27.2979   -1.0318    2.5961 C   0  0  0  0  0  0  0  0  0  0  0  0
   26.2235   -1.1858    3.4543 C   0  0  0  0  0  0  0  0  0  0  0  0
   26.2659   -2.2595    4.4194 C   0  0  0  0  0  0  0  0  0  0  0  0
   25.9394   -1.8903    5.8334 C   0  0  2  0  0  0  0  0  0  0  0  0
   25.7387   -3.1397    6.5501 N   0  0  0  0  0  0  0  0  0  0  0  0
   24.7230   -1.0901    5.9822 C   0  0  0  0  0  0  0  0  0  0  0  0
   24.6983    0.2774    5.8444 O   0  0  0  0  0  0  0  0  0  0  0  0
   25.1727   -0.2994    3.3339 C   0  0  0  0  0  0  0  0  0  0  0  0
   25.2286    0.6873    2.3837 C   0  0  0  0  0  0  0  0  0  0  0  0
   23.6062   -1.6496    6.2538 O   0  0  0  0  0  0  0  0  0  0  0  0
  2  1  1  1
  3  2  1  0
  4  2  1  0
  4  6  1  0
  4  5  1  6
  6  7  2  0
  9  8  1  0
 10  9  1  1
 11  6  1  0
 11 10  1  0
 12 10  1  0
 12 21  1  0
 13 12  2  0
 15 14  1  0
 16 15  2  0
 17 16  1  0
 18 24  1  0
 18 17  2  0
 19 18  1  0
 20 22  1  0
 20 21  1  0
 20 19  1  6
 22 23  1  0
 24 25  2  0
 25 15  1  0
 26 22  2  0
M  END
$$$$
