TSY.pdb
     RDKit          3D

 26 26  0  0  1  0  0  0  0  0999 V2000
   22.8036  -12.7721  -21.4682 C   0  0  0  0  0  0  0  0  0  0  0  0
   22.5372  -11.9055  -20.2661 C   0  0  1  0  0  0  0  0  0  0  0  0
   21.4941  -11.0115  -20.4600 O   0  0  0  0  0  0  0  0  0  0  0  0
   22.2362  -12.7094  -19.0298 C   0  0  2  0  0  0  0  0  0  0  0  0
   21.0698  -13.5136  -19.2662 N   0  0  0  0  0  0  0  0  0  0  0  0
   22.0591  -11.8028  -17.8541 C   0  0  0  0  0  0  0  0  0  0  0  0
   20.9021  -11.3802  -17.6188 O   0  0  0  0  0  0  0  0  0  0  0  0
   25.2882  -10.4871  -15.4425 O   0  0  0  0  0  0  0  0  0  0  0  0
   24.0321  -10.6036  -14.8810 C   0  0  0  0  0  0  0  0  0  0  0  0
   22.9271  -10.4826  -15.9240 C   0  0  2  0  0  0  0  0  0  0  0  0
   23.1012  -11.4021  -17.0083 N   0  0  0  0  0  0  0  0  0  0  0  0
   22.7891   -9.0970  -16.4113 C   0  0  0  0  0  0  0  0  0  0  0  0
   23.3012   -8.8005  -17.5394 O   0  0  0  0  0  0  0  0  0  0  0  0
   15.5841   -8.0164  -16.6640 O   0  0  0  0  0  0  0  0  0  0  0  0
   16.9255   -7.7054  -16.8517 C   0  0  0  0  0  0  0  0  0  0  0  0
   17.7759   -8.6649  -17.3562 C   0  0  0  0  0  0  0  0  0  0  0  0
   19.1128   -8.3625  -17.5457 C   0  0  0  0  0  0  0  0  0  0  0  0
   19.6420   -7.1196  -17.2463 C   0  0  0  0  0  0  0  0  0  0  0  0
   21.0505   -6.9004  -17.4790 C   0  0  0  0  0  0  0  0  0  0  0  0
   21.9030   -6.7300  -16.2598 C   0  0  2  0  0  0  0  0  0  0  0  0
   22.1318   -8.0636  -15.7268 N   0  0  0  0  0  0  0  0  0  0  0  0
   21.2890   -5.9260  -15.2021 C   0  0  0  0  0  0  0  0  0  0  0  0
   21.1096   -4.5663  -15.2961 O   0  0  0  0  0  0  0  0  0  0  0  0
   18.7865   -6.1617  -16.7412 C   0  0  0  0  0  0  0  0  0  0  0  0
   17.4634   -6.4696  -16.5565 C   0  0  0  0  0  0  0  0  0  0  0  0
   20.8851   -6.4744  -14.1204 O   0  0  0  0  0  0  0  0  0  0  0  0
  2  1  1  6
  3  2  1  0
  4  2  1  0
  4  6  1  0
  4  5  1  6
  6  7  2  0
  9  8  1  0
 10  9  1  1
 11  6  1  0
 11 10  1  0
 12 10  1  0
 12 21  1  0
 13 12  2  0
 15 14  1  0
 16 15  2  0
 17 16  1  0
 18 24  1  0
 18 17  2  0
 19 18  1  0
 20 22  1  0
 20 21  1  0
 20 19  1  6
 22 23  1  0
 24 25  2  0
 25 15  1  0
 26 22  2  0
M  END
$$$$
