TSY.pdb
     RDKit          3D

 26 26  0  0  1  0  0  0  0  0999 V2000
   28.5567  -13.3944  -16.8574 C   0  0  0  0  0  0  0  0  0  0  0  0
   27.2333  -12.6984  -17.0347 C   0  0  1  0  0  0  0  0  0  0  0  0
   26.1743  -13.3885  -16.4628 O   0  0  0  0  0  0  0  0  0  0  0  0
   27.2353  -11.3021  -16.4729 C   0  0  2  0  0  0  0  0  0  0  0  0
   27.5941  -11.3567  -15.0830 N   0  0  0  0  0  0  0  0  0  0  0  0
   25.9008  -10.6600  -16.6791 C   0  0  0  0  0  0  0  0  0  0  0  0
   25.5045  -10.5163  -17.8602 O   0  0  0  0  0  0  0  0  0  0  0  0
   22.4349  -11.5038  -15.6993 O   0  0  0  0  0  0  0  0  0  0  0  0
   22.6660  -10.2511  -15.1668 C   0  0  0  0  0  0  0  0  0  0  0  0
   23.8281   -9.5439  -15.8545 C   0  0  2  0  0  0  0  0  0  0  0  0
   25.0754  -10.2141  -15.6389 N   0  0  0  0  0  0  0  0  0  0  0  0
   23.9071   -8.1232  -15.4647 C   0  0  0  0  0  0  0  0  0  0  0  0
   24.4253   -7.8350  -14.3372 O   0  0  0  0  0  0  0  0  0  0  0  0
   29.1664   -5.2411  -19.1390 O   0  0  0  0  0  0  0  0  0  0  0  0
   27.8620   -5.1971  -18.6615 C   0  0  0  0  0  0  0  0  0  0  0  0
   27.3911   -4.0337  -18.0929 C   0  0  0  0  0  0  0  0  0  0  0  0
   26.0935   -3.9824  -17.6152 C   0  0  0  0  0  0  0  0  0  0  0  0
   25.2342   -5.0646  -17.6844 C   0  0  0  0  0  0  0  0  0  0  0  0
   23.8976   -4.9131  -17.1583 C   0  0  0  0  0  0  0  0  0  0  0  0
   23.6012   -5.6454  -15.8863 C   0  0  2  0  0  0  0  0  0  0  0  0
   23.4528   -7.0476  -16.2426 N   0  0  0  0  0  0  0  0  0  0  0  0
   22.3691   -5.2216  -15.2195 C   0  0  0  0  0  0  0  0  0  0  0  0
   22.3248   -4.2120  -14.2877 O   0  0  0  0  0  0  0  0  0  0  0  0
   25.7101   -6.2277  -18.2547 C   0  0  0  0  0  0  0  0  0  0  0  0
   26.9970   -6.2700  -18.7254 C   0  0  0  0  0  0  0  0  0  0  0  0
   21.2565   -5.7914  -15.4868 O   0  0  0  0  0  0  0  0  0  0  0  0
  2  1  1  1
  3  2  1  0
  4  2  1  0
  4  6  1  0
  4  5  1  1
  6  7  2  0
  9  8  1  0
 10  9  1  1
 11  6  1  0
 11 10  1  0
 12 10  1  0
 12 21  1  0
 13 12  2  0
 15 14  1  0
 16 15  2  0
 17 16  1  0
 18 24  1  0
 18 17  2  0
 19 18  1  0
 20 22  1  0
 20 21  1  0
 20 19  1  6
 22 23  1  0
 24 25  2  0
 25 15  1  0
 26 22  2  0
M  END
$$$$
