TSY.pdb
     RDKit          3D

 26 26  0  0  1  0  0  0  0  0999 V2000
   28.9641  -19.3172  -16.7671 C   0  0  0  0  0  0  0  0  0  0  0  0
   27.7043  -19.8211  -16.1145 C   0  0  1  0  0  0  0  0  0  0  0  0
   26.6168  -19.8441  -16.9757 O   0  0  0  0  0  0  0  0  0  0  0  0
   27.8663  -21.2002  -15.5340 C   0  0  2  0  0  0  0  0  0  0  0  0
   28.0369  -22.1423  -16.6048 N   0  0  0  0  0  0  0  0  0  0  0  0
   26.6912  -21.5405  -14.6742 C   0  0  0  0  0  0  0  0  0  0  0  0
   25.7529  -22.1813  -15.2047 O   0  0  0  0  0  0  0  0  0  0  0  0
   24.4563  -21.2552  -10.3323 O   0  0  0  0  0  0  0  0  0  0  0  0
   25.6199  -21.1237  -11.0638 C   0  0  0  0  0  0  0  0  0  0  0  0
   25.4013  -21.4219  -12.5426 C   0  0  2  0  0  0  0  0  0  0  0  0
   26.5793  -21.1881  -13.3233 N   0  0  0  0  0  0  0  0  0  0  0  0
   24.2442  -20.6819  -13.0810 C   0  0  0  0  0  0  0  0  0  0  0  0
   24.3348  -19.4157  -13.1883 O   0  0  0  0  0  0  0  0  0  0  0  0
   17.0158  -18.6012  -17.6783 O   0  0  0  0  0  0  0  0  0  0  0  0
   18.0998  -19.2307  -17.0784 C   0  0  0  0  0  0  0  0  0  0  0  0
   19.3113  -18.5770  -17.0195 C   0  0  0  0  0  0  0  0  0  0  0  0
   20.3950  -19.1975  -16.4238 C   0  0  0  0  0  0  0  0  0  0  0  0
   20.3150  -20.4655  -15.8759 C   0  0  0  0  0  0  0  0  0  0  0  0
   21.5020  -21.0289  -15.2759 C   0  0  0  0  0  0  0  0  0  0  0  0
   21.8583  -20.5210  -13.9131 C   0  0  2  0  0  0  0  0  0  0  0  0
   23.0351  -21.2638  -13.4907 N   0  0  0  0  0  0  0  0  0  0  0  0
   20.8177  -20.7218  -12.9035 C   0  0  0  0  0  0  0  0  0  0  0  0
   20.7671  -21.8222  -12.0813 O   0  0  0  0  0  0  0  0  0  0  0  0
   19.0997  -21.1165  -15.9371 C   0  0  0  0  0  0  0  0  0  0  0  0
   18.0310  -20.4945  -16.5291 C   0  0  0  0  0  0  0  0  0  0  0  0
   19.8907  -19.8561  -12.7446 O   0  0  0  0  0  0  0  0  0  0  0  0
  2  1  1  6
  3  2  1  0
  4  2  1  0
  4  6  1  0
  4  5  1  6
  6  7  2  0
  9  8  1  0
 10  9  1  1
 11  6  1  0
 11 10  1  0
 12 10  1  0
 12 21  1  0
 13 12  2  0
 15 14  1  0
 16 15  2  0
 17 16  1  0
 18 24  1  0
 18 17  2  0
 19 18  1  0
 20 22  1  0
 20 21  1  0
 20 19  1  6
 22 23  1  0
 24 25  2  0
 25 15  1  0
 26 22  2  0
M  END
$$$$
