TSY.pdb
     RDKit          3D

 26 26  0  0  1  0  0  0  0  0999 V2000
   23.4995   -9.8468  -20.4864 C   0  0  0  0  0  0  0  0  0  0  0  0
   22.1494  -10.4652  -20.7353 C   0  0  1  0  0  0  0  0  0  0  0  0
   21.9839  -10.9035  -22.0412 O   0  0  0  0  0  0  0  0  0  0  0  0
   21.8667  -11.6237  -19.8171 C   0  0  2  0  0  0  0  0  0  0  0  0
   20.6315  -12.2428  -20.2103 N   0  0  0  0  0  0  0  0  0  0  0  0
   21.8300  -11.1601  -18.3961 C   0  0  0  0  0  0  0  0  0  0  0  0
   20.9080  -10.3762  -18.0671 O   0  0  0  0  0  0  0  0  0  0  0  0
   25.0259  -11.7278  -15.6461 O   0  0  0  0  0  0  0  0  0  0  0  0
   23.7283  -11.7738  -15.1763 C   0  0  0  0  0  0  0  0  0  0  0  0
   22.7642  -11.0228  -16.0874 C   0  0  2  0  0  0  0  0  0  0  0  0
   22.7573  -11.5471  -17.4203 N   0  0  0  0  0  0  0  0  0  0  0  0
   23.0305   -9.5718  -16.0821 C   0  0  0  0  0  0  0  0  0  0  0  0
   23.8654   -9.1086  -16.9254 O   0  0  0  0  0  0  0  0  0  0  0  0
   21.4309   -1.1306  -17.0454 O   0  0  0  0  0  0  0  0  0  0  0  0
   21.6195   -2.5017  -16.9204 C   0  0  0  0  0  0  0  0  0  0  0  0
   20.5312   -3.3134  -16.6855 C   0  0  0  0  0  0  0  0  0  0  0  0
   20.7113   -4.6796  -16.5600 C   0  0  0  0  0  0  0  0  0  0  0  0
   21.9556   -5.2763  -16.6614 C   0  0  0  0  0  0  0  0  0  0  0  0
   22.0416   -6.7107  -16.5156 C   0  0  0  0  0  0  0  0  0  0  0  0
   22.6614   -7.2100  -15.2473 C   0  0  2  0  0  0  0  0  0  0  0  0
   22.4327   -8.6459  -15.2139 N   0  0  0  0  0  0  0  0  0  0  0  0
   22.0861   -6.6380  -14.0291 C   0  0  0  0  0  0  0  0  0  0  0  0
   22.4244   -5.3962  -13.5464 O   0  0  0  0  0  0  0  0  0  0  0  0
   23.0427   -4.4594  -16.8967 C   0  0  0  0  0  0  0  0  0  0  0  0
   22.8555   -3.1069  -17.0198 C   0  0  0  0  0  0  0  0  0  0  0  0
   21.2229   -7.2912  -13.3493 O   0  0  0  0  0  0  0  0  0  0  0  0
  2  1  1  6
  3  2  1  0
  4  2  1  0
  4  6  1  0
  4  5  1  6
  6  7  2  0
  9  8  1  0
 10  9  1  1
 11  6  1  0
 11 10  1  0
 12 10  1  0
 12 21  1  0
 13 12  2  0
 15 14  1  0
 16 15  2  0
 17 16  1  0
 18 24  1  0
 18 17  2  0
 19 18  1  0
 20 22  1  0
 20 21  1  0
 20 19  1  6
 22 23  1  0
 24 25  2  0
 25 15  1  0
 26 22  2  0
M  END
$$$$
