TSY.pdb
     RDKit          3D

 26 26  0  0  1  0  0  0  0  0999 V2000
   36.4400   -6.0811   -7.9890 C   0  0  0  0  0  0  0  0  0  0  0  0
   37.8473   -6.5461   -7.7234 C   0  0  1  0  0  0  0  0  0  0  0  0
   38.0269   -7.9010   -7.9613 O   0  0  0  0  0  0  0  0  0  0  0  0
   38.8671   -5.7928   -8.5344 C   0  0  2  0  0  0  0  0  0  0  0  0
   40.1752   -6.3054   -8.2353 N   0  0  0  0  0  0  0  0  0  0  0  0
   38.7666   -4.3267   -8.2585 C   0  0  0  0  0  0  0  0  0  0  0  0
   39.2559   -3.9058   -7.1833 O   0  0  0  0  0  0  0  0  0  0  0  0
   36.6273   -1.6186  -10.7497 O   0  0  0  0  0  0  0  0  0  0  0  0
   37.7237   -1.1700  -10.0404 C   0  0  0  0  0  0  0  0  0  0  0  0
   37.9903   -2.0198   -8.8034 C   0  0  2  0  0  0  0  0  0  0  0  0
   38.1632   -3.4051   -9.1236 N   0  0  0  0  0  0  0  0  0  0  0  0
   36.9453   -1.8313   -7.7792 C   0  0  0  0  0  0  0  0  0  0  0  0
   35.8577   -2.4834   -7.9000 O   0  0  0  0  0  0  0  0  0  0  0  0
   33.4367   -0.4180    0.2330 O   0  0  0  0  0  0  0  0  0  0  0  0
   34.2495   -0.4775   -0.8927 C   0  0  0  0  0  0  0  0  0  0  0  0
   34.5703   -1.7056   -1.4286 C   0  0  0  0  0  0  0  0  0  0  0  0
   35.3790   -1.7726   -2.5493 C   0  0  0  0  0  0  0  0  0  0  0  0
   35.8879   -0.6432   -3.1656 C   0  0  0  0  0  0  0  0  0  0  0  0
   36.7233   -0.8160   -4.3311 C   0  0  0  0  0  0  0  0  0  0  0  0
   36.0215   -0.8114   -5.6538 C   0  0  2  0  0  0  0  0  0  0  0  0
   37.0504   -0.9821   -6.6673 N   0  0  0  0  0  0  0  0  0  0  0  0
   35.3035    0.4289   -5.9512 C   0  0  0  0  0  0  0  0  0  0  0  0
   34.0161    0.6732   -5.5359 O   0  0  0  0  0  0  0  0  0  0  0  0
   35.5640    0.5848   -2.6255 C   0  0  0  0  0  0  0  0  0  0  0  0
   34.7621    0.6422   -1.5149 C   0  0  0  0  0  0  0  0  0  0  0  0
   35.8634    1.3577   -6.6279 O   0  0  0  0  0  0  0  0  0  0  0  0
  2  1  1  6
  3  2  1  0
  4  2  1  0
  4  6  1  0
  4  5  1  1
  6  7  2  0
  9  8  1  0
 10  9  1  6
 11  6  1  0
 11 10  1  0
 12 10  1  0
 12 21  1  0
 13 12  2  0
 15 14  1  0
 16 15  2  0
 17 16  1  0
 18 24  1  0
 18 17  2  0
 19 18  1  0
 20 22  1  0
 20 21  1  0
 20 19  1  1
 22 23  1  0
 24 25  2  0
 25 15  1  0
 26 22  2  0
M  END
$$$$
