TSY.pdb
     RDKit          3D

 26 26  0  0  1  0  0  0  0  0999 V2000
   18.7610  -11.4232  -19.3645 C   0  0  0  0  0  0  0  0  0  0  0  0
   19.7861  -10.3649  -19.0542 C   0  0  1  0  0  0  0  0  0  0  0  0
   19.3711   -9.4761  -18.0731 O   0  0  0  0  0  0  0  0  0  0  0  0
   21.1058  -10.9475  -18.6249 C   0  0  2  0  0  0  0  0  0  0  0  0
   20.8951  -11.7959  -17.4851 N   0  0  0  0  0  0  0  0  0  0  0  0
   22.0830   -9.8542  -18.3327 C   0  0  0  0  0  0  0  0  0  0  0  0
   22.5598   -9.7991  -17.1742 O   0  0  0  0  0  0  0  0  0  0  0  0
   22.9316   -6.7244  -21.0518 O   0  0  0  0  0  0  0  0  0  0  0  0
   23.9428   -7.1564  -20.2167 C   0  0  0  0  0  0  0  0  0  0  0  0
   23.3987   -7.8309  -18.9627 C   0  0  2  0  0  0  0  0  0  0  0  0
   22.4926   -8.8969  -19.2696 N   0  0  0  0  0  0  0  0  0  0  0  0
   22.7869   -6.8539  -18.0421 C   0  0  0  0  0  0  0  0  0  0  0  0
   21.5304   -6.6582  -18.1183 O   0  0  0  0  0  0  0  0  0  0  0  0
   19.3188   -9.2101  -12.6828 O   0  0  0  0  0  0  0  0  0  0  0  0
   20.2864   -8.3601  -13.2050 C   0  0  0  0  0  0  0  0  0  0  0  0
   20.0094   -7.0157  -13.3246 C   0  0  0  0  0  0  0  0  0  0  0  0
   20.9679   -6.1634  -13.8436 C   0  0  0  0  0  0  0  0  0  0  0  0
   22.2120   -6.6083  -14.2543 C   0  0  0  0  0  0  0  0  0  0  0  0
   23.1454   -5.6412  -14.7831 C   0  0  0  0  0  0  0  0  0  0  0  0
   22.8729   -5.1501  -16.1711 C   0  0  2  0  0  0  0  0  0  0  0  0
   23.4826   -6.1116  -17.0760 N   0  0  0  0  0  0  0  0  0  0  0  0
   23.4419   -3.8348  -16.4681 C   0  0  0  0  0  0  0  0  0  0  0  0
   23.0196   -2.6759  -15.8613 O   0  0  0  0  0  0  0  0  0  0  0  0
   22.4851   -7.9556  -14.1327 C   0  0  0  0  0  0  0  0  0  0  0  0
   21.5298   -8.7931  -13.6174 C   0  0  0  0  0  0  0  0  0  0  0  0
   24.3800   -3.7116  -17.3277 O   0  0  0  0  0  0  0  0  0  0  0  0
  2  1  1  1
  3  2  1  0
  4  2  1  0
  4  6  1  0
  4  5  1  1
  6  7  2  0
  9  8  1  0
 10  9  1  6
 11  6  1  0
 11 10  1  0
 12 10  1  0
 12 21  1  0
 13 12  2  0
 15 14  1  0
 16 15  2  0
 17 16  1  0
 18 24  1  0
 18 17  2  0
 19 18  1  0
 20 22  1  0
 20 21  1  0
 20 19  1  1
 22 23  1  0
 24 25  2  0
 25 15  1  0
 26 22  2  0
M  END
$$$$
