TSY.pdb
     RDKit          3D

 26 26  0  0  1  0  0  0  0  0999 V2000
   28.5080  -20.0528  -16.6481 C   0  0  0  0  0  0  0  0  0  0  0  0
   27.7770  -20.1584  -15.3360 C   0  0  1  0  0  0  0  0  0  0  0  0
   28.6237  -20.3627  -14.2561 O   0  0  0  0  0  0  0  0  0  0  0  0
   26.9362  -18.9447  -15.0440 C   0  0  2  0  0  0  0  0  0  0  0  0
   27.7630  -17.7725  -15.1202 N   0  0  0  0  0  0  0  0  0  0  0  0
   26.2816  -19.0790  -13.7064 C   0  0  0  0  0  0  0  0  0  0  0  0
   26.5819  -18.2355  -12.8283 O   0  0  0  0  0  0  0  0  0  0  0  0
   23.8276  -22.3685  -12.4942 O   0  0  0  0  0  0  0  0  0  0  0  0
   23.4621  -21.0745  -12.1803 C   0  0  0  0  0  0  0  0  0  0  0  0
   24.6637  -20.1379  -12.1307 C   0  0  2  0  0  0  0  0  0  0  0  0
   25.3610  -20.0831  -13.3807 N   0  0  0  0  0  0  0  0  0  0  0  0
   25.5745  -20.4806  -11.0219 C   0  0  0  0  0  0  0  0  0  0  0  0
   26.4864  -21.3440  -11.2353 O   0  0  0  0  0  0  0  0  0  0  0  0
   29.6001  -19.7393   -3.0639 O   0  0  0  0  0  0  0  0  0  0  0  0
   28.8809  -19.6011   -4.2450 C   0  0  0  0  0  0  0  0  0  0  0  0
   29.5047  -19.0792   -5.3572 C   0  0  0  0  0  0  0  0  0  0  0  0
   28.7950  -18.9386   -6.5366 C   0  0  0  0  0  0  0  0  0  0  0  0
   27.4656  -19.3048   -6.6507 C   0  0  0  0  0  0  0  0  0  0  0  0
   26.8106  -19.1193   -7.9245 C   0  0  0  0  0  0  0  0  0  0  0  0
   26.3326  -20.3624   -8.6090 C   0  0  2  0  0  0  0  0  0  0  0  0
   25.5197  -19.9274   -9.7337 N   0  0  0  0  0  0  0  0  0  0  0  0
   25.5062  -21.2325   -7.7711 C   0  0  0  0  0  0  0  0  0  0  0  0
   26.0288  -22.1456   -6.8865 O   0  0  0  0  0  0  0  0  0  0  0  0
   26.8449  -19.8271   -5.5342 C   0  0  0  0  0  0  0  0  0  0  0  0
   27.5553  -19.9630   -4.3696 C   0  0  0  0  0  0  0  0  0  0  0  0
   24.2307  -21.1736   -7.8329 O   0  0  0  0  0  0  0  0  0  0  0  0
  2  1  1  6
  3  2  1  0
  4  2  1  0
  4  6  1  0
  4  5  1  1
  6  7  2  0
  9  8  1  0
 10  9  1  6
 11  6  1  0
 11 10  1  0
 12 10  1  0
 12 21  1  0
 13 12  2  0
 15 14  1  0
 16 15  2  0
 17 16  1  0
 18 24  1  0
 18 17  2  0
 19 18  1  0
 20 22  1  0
 20 21  1  0
 20 19  1  1
 22 23  1  0
 24 25  2  0
 25 15  1  0
 26 22  2  0
M  END
$$$$
