FCW.pdb
     RDKit          3D

 32 34  0  0  1  0  0  0  0  0999 V2000
   25.8568  -11.4547  -19.3968 N   0  0  0  0  0  0  0  0  0  0  0  0
   25.1603  -11.0501  -18.2025 C   0  0  1  0  0  0  0  0  0  0  0  0
   25.6515   -9.6907  -17.7772 C   0  0  0  0  0  0  0  0  0  0  0  0
   27.0995   -9.6914  -17.4699 C   0  0  0  0  0  0  0  0  0  0  0  0
   27.6323  -10.5481  -16.5229 C   0  0  0  0  0  0  0  0  0  0  0  0
   28.9730  -10.5628  -16.2176 C   0  0  0  0  0  0  0  0  0  0  0  0
   29.8518   -9.7052  -16.8591 C   0  0  0  0  0  0  0  0  0  0  0  0
   29.3415   -8.8528  -17.7972 C   0  0  0  0  0  0  0  0  0  0  0  0
   27.9765   -8.8404  -18.1056 C   0  0  0  0  0  0  0  0  0  0  0  0
   23.7105  -10.9501  -18.5120 C   0  0  0  0  0  0  0  0  0  0  0  0
   23.2297  -11.5455  -19.5153 O   0  0  0  0  0  0  0  0  0  0  0  0
   22.8182  -10.1942  -17.7094 N   0  0  0  0  0  0  0  0  0  0  0  0
   21.3921  -10.2516  -17.9373 C   0  0  1  0  0  0  0  0  0  0  0  0
   20.8893  -11.6569  -17.8959 C   0  0  0  0  0  0  0  0  0  0  0  0
   21.5941  -12.6570  -16.5844 S   0  0  0  0  0  0  0  0  0  0  0  0
   20.6600   -9.3222  -17.0324 C   0  0  0  0  0  0  0  0  0  0  0  0
   21.2333   -8.6776  -16.1096 O   0  0  0  0  0  0  0  0  0  0  0  0
   19.2659   -9.1581  -17.2186 N   0  0  0  0  0  0  0  0  0  0  0  0
   18.4927   -8.1628  -16.4502 C   0  0  1  0  0  0  0  0  0  0  0  0
   19.1338   -6.8266  -16.5386 C   0  0  0  0  0  0  0  0  0  0  0  0
   18.6241   -5.9812  -17.6179 C   0  0  0  0  0  0  0  0  0  0  0  0
   17.3545   -5.4294  -17.6885 C   0  0  0  0  0  0  0  0  0  0  0  0
   17.2368   -4.7447  -18.8363 N   0  0  0  0  0  0  0  0  0  0  0  0
   18.3948   -4.8289  -19.5250 C   0  0  0  0  0  0  0  0  0  0  0  0
   18.7826   -4.2943  -20.7389 C   0  0  0  0  0  0  0  0  0  0  0  0
   20.0516   -4.5408  -21.1830 C   0  0  0  0  0  0  0  0  0  0  0  0
   20.9205   -5.2956  -20.4510 C   0  0  0  0  0  0  0  0  0  0  0  0
   20.5551   -5.8314  -19.2517 C   0  0  0  0  0  0  0  0  0  0  0  0
   19.2688   -5.6016  -18.7681 C   0  0  0  0  0  0  0  0  0  0  0  0
   17.0659   -8.2747  -16.7047 C   0  0  0  0  0  0  0  0  0  0  0  0
   16.1903   -7.6741  -16.0360 O   0  0  0  0  0  0  0  0  0  0  0  0
   16.5402   -9.0817  -17.7410 O   0  0  0  0  0  0  0  0  0  0  0  0
  2  1  1  6
  3  4  1  0
  3  2  1  0
  4  9  1  0
  4  5  2  0
  5  6  1  0
  6  7  2  0
  8  7  1  0
  9  8  2  0
 10 12  1  0
 10  2  1  0
 11 10  2  0
 13 14  1  1
 13 12  1  0
 15 14  1  0
 16 13  1  0
 17 16  2  0
 18 16  1  0
 19 18  1  0
 19 20  1  6
 20 21  1  0
 21 22  2  0
 22 23  1  0
 24 25  2  0
 24 23  1  0
 26 25  1  0
 27 26  2  0
 28 27  1  0
 28 29  2  0
 29 21  1  0
 29 24  1  0
 30 32  1  0
 30 19  1  0
 31 30  2  0
M  END
$$$$
