FCW.pdb
     RDKit          3D

 32 34  0  0  1  0  0  0  0  0999 V2000
   22.2933  -22.9524  -16.9551 N   0  0  0  0  0  0  0  0  0  0  0  0
   23.2458  -23.8761  -17.5161 C   0  0  1  0  0  0  0  0  0  0  0  0
   24.6296  -23.2901  -17.4074 C   0  0  0  0  0  0  0  0  0  0  0  0
   24.7935  -22.0853  -18.2515 C   0  0  0  0  0  0  0  0  0  0  0  0
   25.0302  -22.1875  -19.6110 C   0  0  0  0  0  0  0  0  0  0  0  0
   25.1904  -21.0825  -20.4136 C   0  0  0  0  0  0  0  0  0  0  0  0
   25.1193  -19.8064  -19.8790 C   0  0  0  0  0  0  0  0  0  0  0  0
   24.8860  -19.6881  -18.5379 C   0  0  0  0  0  0  0  0  0  0  0  0
   24.7232  -20.8147  -17.7239 C   0  0  0  0  0  0  0  0  0  0  0  0
   23.2051  -25.1343  -16.7268 C   0  0  0  0  0  0  0  0  0  0  0  0
   22.6274  -25.1656  -15.6054 O   0  0  0  0  0  0  0  0  0  0  0  0
   23.8032  -26.3344  -17.1890 N   0  0  0  0  0  0  0  0  0  0  0  0
   23.6401  -27.5696  -16.4566 C   0  0  1  0  0  0  0  0  0  0  0  0
   22.2016  -27.8460  -16.1669 C   0  0  0  0  0  0  0  0  0  0  0  0
   21.0524  -27.0148  -17.2648 S   0  0  0  0  0  0  0  0  0  0  0  0
   24.3475  -28.6959  -17.1271 C   0  0  0  0  0  0  0  0  0  0  0  0
   24.3386  -28.8560  -18.3802 O   0  0  0  0  0  0  0  0  0  0  0  0
   25.0571  -29.6208  -16.3234 N   0  0  0  0  0  0  0  0  0  0  0  0
   25.8525  -30.7136  -16.9167 C   0  0  1  0  0  0  0  0  0  0  0  0
   27.1504  -30.8540  -16.2095 C   0  0  0  0  0  0  0  0  0  0  0  0
   28.0864  -29.7536  -16.4386 C   0  0  0  0  0  0  0  0  0  0  0  0
   27.8711  -28.4224  -16.1178 C   0  0  0  0  0  0  0  0  0  0  0  0
   28.9330  -27.7001  -16.5063 N   0  0  0  0  0  0  0  0  0  0  0  0
   29.8438  -28.5188  -17.0742 C   0  0  0  0  0  0  0  0  0  0  0  0
   31.0918  -28.2709  -17.6133 C   0  0  0  0  0  0  0  0  0  0  0  0
   31.8074  -29.3246  -18.1096 C   0  0  0  0  0  0  0  0  0  0  0  0
   31.3083  -30.5934  -18.0771 C   0  0  0  0  0  0  0  0  0  0  0  0
   30.0788  -30.8566  -17.5496 C   0  0  0  0  0  0  0  0  0  0  0  0
   29.3209  -29.8067  -17.0353 C   0  0  0  0  0  0  0  0  0  0  0  0
   25.0480  -31.9018  -17.1491 C   0  0  0  0  0  0  0  0  0  0  0  0
   23.9752  -32.1452  -16.5455 O   0  0  0  0  0  0  0  0  0  0  0  0
   25.4142  -32.8954  -18.0874 O   0  0  0  0  0  0  0  0  0  0  0  0
  2  1  1  1
  3  4  1  0
  3  2  1  0
  4  9  1  0
  4  5  2  0
  5  6  1  0
  6  7  2  0
  8  7  1  0
  9  8  2  0
 10 12  1  0
 10  2  1  0
 11 10  2  0
 13 14  1  6
 13 12  1  0
 15 14  1  0
 16 13  1  0
 17 16  2  0
 18 16  1  0
 19 18  1  0
 19 20  1  1
 20 21  1  0
 21 22  2  0
 22 23  1  0
 24 25  2  0
 24 23  1  0
 26 25  1  0
 27 26  2  0
 28 27  1  0
 28 29  2  0
 29 21  1  0
 29 24  1  0
 30 32  1  0
 30 19  1  0
 31 30  2  0
M  END
$$$$
