FCW.pdb
     RDKit          3D

 32 34  0  0  1  0  0  0  0  0999 V2000
   20.3283  -30.0976  -11.2064 N   0  0  0  0  0  0  0  0  0  0  0  0
   20.1402  -30.2141  -12.6298 C   0  0  1  0  0  0  0  0  0  0  0  0
   18.9725  -29.3589  -13.0484 C   0  0  0  0  0  0  0  0  0  0  0  0
   17.6923  -30.1005  -13.0016 C   0  0  0  0  0  0  0  0  0  0  0  0
   17.1212  -30.6206  -14.1496 C   0  0  0  0  0  0  0  0  0  0  0  0
   15.9306  -31.3084  -14.1308 C   0  0  0  0  0  0  0  0  0  0  0  0
   15.2501  -31.5076  -12.9406 C   0  0  0  0  0  0  0  0  0  0  0  0
   15.8008  -31.0003  -11.7976 C   0  0  0  0  0  0  0  0  0  0  0  0
   17.0127  -30.3008  -11.8203 C   0  0  0  0  0  0  0  0  0  0  0  0
   21.3605  -29.7090  -13.3106 C   0  0  0  0  0  0  0  0  0  0  0  0
   22.1289  -28.8981  -12.7240 O   0  0  0  0  0  0  0  0  0  0  0  0
   21.7098  -30.1072  -14.6263 N   0  0  0  0  0  0  0  0  0  0  0  0
   22.9427  -29.6561  -15.2306 C   0  0  1  0  0  0  0  0  0  0  0  0
   23.7656  -30.8046  -15.7135 C   0  0  0  0  0  0  0  0  0  0  0  0
   24.5414  -31.7597  -14.4085 S   0  0  0  0  0  0  0  0  0  0  0  0
   22.6906  -28.6168  -16.2674 C   0  0  0  0  0  0  0  0  0  0  0  0
   21.6406  -28.5958  -16.9694 O   0  0  0  0  0  0  0  0  0  0  0  0
   23.6701  -27.6144  -16.4697 N   0  0  0  0  0  0  0  0  0  0  0  0
   23.5034  -26.5622  -17.4915 C   0  0  1  0  0  0  0  0  0  0  0  0
   24.5982  -25.5641  -17.3922 C   0  0  0  0  0  0  0  0  0  0  0  0
   25.8584  -25.9855  -18.0035 C   0  0  0  0  0  0  0  0  0  0  0  0
   26.2138  -25.8177  -19.3327 C   0  0  0  0  0  0  0  0  0  0  0  0
   27.4250  -26.3584  -19.5347 N   0  0  0  0  0  0  0  0  0  0  0  0
   27.8791  -26.8779  -18.3744 C   0  0  0  0  0  0  0  0  0  0  0  0
   29.0599  -27.5213  -18.0559 C   0  0  0  0  0  0  0  0  0  0  0  0
   29.2515  -27.9287  -16.7652 C   0  0  0  0  0  0  0  0  0  0  0  0
   28.3044  -27.7089  -15.8087 C   0  0  0  0  0  0  0  0  0  0  0  0
   27.1334  -27.0764  -16.1048 C   0  0  0  0  0  0  0  0  0  0  0  0
   26.9035  -26.6481  -17.4105 C   0  0  0  0  0  0  0  0  0  0  0  0
   23.1797  -27.1212  -18.7937 C   0  0  0  0  0  0  0  0  0  0  0  0
   22.4260  -26.5592  -19.6247 O   0  0  0  0  0  0  0  0  0  0  0  0
   23.6943  -28.3624  -19.2367 O   0  0  0  0  0  0  0  0  0  0  0  0
  2  1  1  1
  3  4  1  0
  3  2  1  0
  4  9  1  0
  4  5  2  0
  5  6  1  0
  6  7  2  0
  8  7  1  0
  9  8  2  0
 10 12  1  0
 10  2  1  0
 11 10  2  0
 13 14  1  6
 13 12  1  0
 15 14  1  0
 16 13  1  0
 17 16  2  0
 18 16  1  0
 19 18  1  0
 19 20  1  6
 20 21  1  0
 21 22  2  0
 22 23  1  0
 24 25  2  0
 24 23  1  0
 26 25  1  0
 27 26  2  0
 28 27  1  0
 28 29  2  0
 29 21  1  0
 29 24  1  0
 30 32  1  0
 30 19  1  0
 31 30  2  0
M  END
$$$$
