FCW.pdb
     RDKit          3D

 32 34  0  0  1  0  0  0  0  0999 V2000
   26.4679  -19.0958  -16.0208 N   0  0  0  0  0  0  0  0  0  0  0  0
   27.0001  -18.7470  -14.7285 C   0  0  1  0  0  0  0  0  0  0  0  0
   27.2521  -17.2623  -14.6791 C   0  0  0  0  0  0  0  0  0  0  0  0
   28.3132  -16.8445  -15.6227 C   0  0  0  0  0  0  0  0  0  0  0  0
   28.0897  -15.8532  -16.5619 C   0  0  0  0  0  0  0  0  0  0  0  0
   29.0588  -15.4525  -17.4514 C   0  0  0  0  0  0  0  0  0  0  0  0
   30.3143  -16.0381  -17.4376 C   0  0  0  0  0  0  0  0  0  0  0  0
   30.5512  -17.0187  -16.5161 C   0  0  0  0  0  0  0  0  0  0  0  0
   29.5628  -17.4241  -15.6121 C   0  0  0  0  0  0  0  0  0  0  0  0
   25.9891  -19.0866  -13.6939 C   0  0  0  0  0  0  0  0  0  0  0  0
   24.7612  -18.9001  -13.9163 O   0  0  0  0  0  0  0  0  0  0  0  0
   26.3518  -19.6248  -12.4328 N   0  0  0  0  0  0  0  0  0  0  0  0
   25.4168  -20.4262  -11.6763 C   0  0  1  0  0  0  0  0  0  0  0  0
   24.9408  -21.6004  -12.4664 C   0  0  0  0  0  0  0  0  0  0  0  0
   23.4842  -22.4030  -11.7949 S   0  0  0  0  0  0  0  0  0  0  0  0
   25.9656  -20.7822  -10.3381 C   0  0  0  0  0  0  0  0  0  0  0  0
   27.0094  -21.4789  -10.1934 O   0  0  0  0  0  0  0  0  0  0  0  0
   25.2865  -20.3183   -9.1854 N   0  0  0  0  0  0  0  0  0  0  0  0
   25.3769  -21.0274   -7.8940 C   0  0  1  0  0  0  0  0  0  0  0  0
   25.5524  -20.0597   -6.7816 C   0  0  0  0  0  0  0  0  0  0  0  0
   26.8857  -19.4636   -6.7030 C   0  0  0  0  0  0  0  0  0  0  0  0
   27.4386  -18.5832   -7.6198 C   0  0  0  0  0  0  0  0  0  0  0  0
   28.6875  -18.2775   -7.2366 N   0  0  0  0  0  0  0  0  0  0  0  0
   28.9738  -18.9318   -6.0911 C   0  0  0  0  0  0  0  0  0  0  0  0
   30.1052  -18.9427   -5.2976 C   0  0  0  0  0  0  0  0  0  0  0  0
   30.0968  -19.7044   -4.1626 C   0  0  0  0  0  0  0  0  0  0  0  0
   29.0015  -20.4390   -3.8146 C   0  0  0  0  0  0  0  0  0  0  0  0
   27.8769  -20.4408   -4.5856 C   0  0  0  0  0  0  0  0  0  0  0  0
   27.8500  -19.6767   -5.7503 C   0  0  0  0  0  0  0  0  0  0  0  0
   24.3600  -22.0590   -7.7726 C   0  0  0  0  0  0  0  0  0  0  0  0
   23.3078  -22.0832   -8.4556 O   0  0  0  0  0  0  0  0  0  0  0  0
   24.4747  -23.1350   -6.8610 O   0  0  0  0  0  0  0  0  0  0  0  0
  2  1  1  6
  3  4  1  0
  3  2  1  0
  4  9  1  0
  4  5  2  0
  5  6  1  0
  6  7  2  0
  8  7  1  0
  9  8  2  0
 10 12  1  0
 10  2  1  0
 11 10  2  0
 13 14  1  6
 13 12  1  0
 15 14  1  0
 16 13  1  0
 17 16  2  0
 18 16  1  0
 19 18  1  0
 19 20  1  1
 20 21  1  0
 21 22  2  0
 22 23  1  0
 24 25  2  0
 24 23  1  0
 26 25  1  0
 27 26  2  0
 28 27  1  0
 28 29  2  0
 29 21  1  0
 29 24  1  0
 30 32  1  0
 30 19  1  0
 31 30  2  0
M  END
$$$$
