FCW.pdb
     RDKit          3D

 32 34  0  0  1  0  0  0  0  0999 V2000
   29.1015  -23.3293  -19.0191 N   0  0  0  0  0  0  0  0  0  0  0  0
   28.3240  -22.1839  -18.6209 C   0  0  1  0  0  0  0  0  0  0  0  0
   26.9067  -22.3534  -19.1034 C   0  0  0  0  0  0  0  0  0  0  0  0
   26.7246  -21.8566  -20.4859 C   0  0  0  0  0  0  0  0  0  0  0  0
   26.6146  -20.5036  -20.7542 C   0  0  0  0  0  0  0  0  0  0  0  0
   26.4401  -20.0198  -22.0295 C   0  0  0  0  0  0  0  0  0  0  0  0
   26.3670  -20.8858  -23.1084 C   0  0  0  0  0  0  0  0  0  0  0  0
   26.4740  -22.2252  -22.8604 C   0  0  0  0  0  0  0  0  0  0  0  0
   26.6516  -22.7143  -21.5613 C   0  0  0  0  0  0  0  0  0  0  0  0
   28.3099  -22.1153  -17.1367 C   0  0  0  0  0  0  0  0  0  0  0  0
   29.3161  -22.4855  -16.4713 O   0  0  0  0  0  0  0  0  0  0  0  0
   27.1856  -21.6405  -16.4141 N   0  0  0  0  0  0  0  0  0  0  0  0
   27.3102  -21.2518  -15.0277 C   0  0  1  0  0  0  0  0  0  0  0  0
   28.3825  -20.2295  -14.8420 C   0  0  0  0  0  0  0  0  0  0  0  0
   27.9855  -18.6114  -15.5064 S   0  0  0  0  0  0  0  0  0  0  0  0
   25.9937  -20.8560  -14.4544 C   0  0  0  0  0  0  0  0  0  0  0  0
   25.0970  -20.2860  -15.1378 O   0  0  0  0  0  0  0  0  0  0  0  0
   25.7422  -21.1323  -13.0886 N   0  0  0  0  0  0  0  0  0  0  0  0
   24.4535  -20.7939  -12.4534 C   0  0  1  0  0  0  0  0  0  0  0  0
   24.4283  -21.2671  -11.0463 C   0  0  0  0  0  0  0  0  0  0  0  0
   25.3246  -20.5404  -10.1474 C   0  0  0  0  0  0  0  0  0  0  0  0
   26.3735  -19.7203  -10.5327 C   0  0  0  0  0  0  0  0  0  0  0  0
   26.9918  -19.2544   -9.4369 N   0  0  0  0  0  0  0  0  0  0  0  0
   26.3787  -19.7443   -8.3385 C   0  0  0  0  0  0  0  0  0  0  0  0
   26.6205  -19.5564   -6.9909 C   0  0  0  0  0  0  0  0  0  0  0  0
   25.8047  -20.1820   -6.0899 C   0  0  0  0  0  0  0  0  0  0  0  0
   24.7745  -20.9745   -6.5033 C   0  0  0  0  0  0  0  0  0  0  0  0
   24.5216  -21.1717   -7.8285 C   0  0  0  0  0  0  0  0  0  0  0  0
   25.3333  -20.5505   -8.7753 C   0  0  0  0  0  0  0  0  0  0  0  0
   24.0527  -19.4265  -12.7410 C   0  0  0  0  0  0  0  0  0  0  0  0
   24.8515  -18.5277  -13.0992 O   0  0  0  0  0  0  0  0  0  0  0  0
   22.7105  -18.9909  -12.6386 O   0  0  0  0  0  0  0  0  0  0  0  0
  2  1  1  1
  3  4  1  0
  3  2  1  0
  4  9  1  0
  4  5  2  0
  5  6  1  0
  6  7  2  0
  8  7  1  0
  9  8  2  0
 10 12  1  0
 10  2  1  0
 11 10  2  0
 13 14  1  6
 13 12  1  0
 15 14  1  0
 16 13  1  0
 17 16  2  0
 18 16  1  0
 19 18  1  0
 19 20  1  1
 20 21  1  0
 21 22  2  0
 22 23  1  0
 24 25  2  0
 24 23  1  0
 26 25  1  0
 27 26  2  0
 28 27  1  0
 28 29  2  0
 29 21  1  0
 29 24  1  0
 30 32  1  0
 30 19  1  0
 31 30  2  0
M  END
$$$$
