FCW.pdb
     RDKit          3D

 32 34  0  0  1  0  0  0  0  0999 V2000
   26.2049  -18.4139  -16.1801 N   0  0  0  0  0  0  0  0  0  0  0  0
   26.9009  -18.5774  -14.9295 C   0  0  1  0  0  0  0  0  0  0  0  0
   27.3511  -17.2286  -14.4313 C   0  0  0  0  0  0  0  0  0  0  0  0
   28.1975  -16.5226  -15.4194 C   0  0  0  0  0  0  0  0  0  0  0  0
   27.7683  -15.3580  -16.0309 C   0  0  0  0  0  0  0  0  0  0  0  0
   28.5353  -14.6881  -16.9550 C   0  0  0  0  0  0  0  0  0  0  0  0
   29.7862  -15.1649  -17.3117 C   0  0  0  0  0  0  0  0  0  0  0  0
   30.2249  -16.3141  -16.7168 C   0  0  0  0  0  0  0  0  0  0  0  0
   29.4419  -16.9933  -15.7766 C   0  0  0  0  0  0  0  0  0  0  0  0
   25.9585  -19.1545  -13.9363 C   0  0  0  0  0  0  0  0  0  0  0  0
   24.7853  -19.4693  -14.2779 O   0  0  0  0  0  0  0  0  0  0  0  0
   26.3277  -19.3728  -12.5844 N   0  0  0  0  0  0  0  0  0  0  0  0
   25.8088  -20.5053  -11.8516 C   0  0  1  0  0  0  0  0  0  0  0  0
   26.0231  -21.7815  -12.5964 C   0  0  0  0  0  0  0  0  0  0  0  0
   25.3046  -23.2258  -11.8123 S   0  0  0  0  0  0  0  0  0  0  0  0
   26.3227  -20.5291  -10.4538 C   0  0  0  0  0  0  0  0  0  0  0  0
   27.4953  -20.9002  -10.1656 O   0  0  0  0  0  0  0  0  0  0  0  0
   25.4583  -20.1180   -9.4102 N   0  0  0  0  0  0  0  0  0  0  0  0
   25.3718  -20.8600   -8.1371 C   0  0  1  0  0  0  0  0  0  0  0  0
   25.5382  -19.9371   -6.9861 C   0  0  0  0  0  0  0  0  0  0  0  0
   26.9003  -19.4360   -6.8043 C   0  0  0  0  0  0  0  0  0  0  0  0
   27.4671  -18.3607   -7.4704 C   0  0  0  0  0  0  0  0  0  0  0  0
   28.7400  -18.2186   -7.0710 N   0  0  0  0  0  0  0  0  0  0  0  0
   29.0286  -19.1707   -6.1586 C   0  0  0  0  0  0  0  0  0  0  0  0
   30.1813  -19.4403   -5.4455 C   0  0  0  0  0  0  0  0  0  0  0  0
   30.1702  -20.4816   -4.5600 C   0  0  0  0  0  0  0  0  0  0  0  0
   29.0519  -21.2412   -4.3789 C   0  0  0  0  0  0  0  0  0  0  0  0
   27.9061  -20.9902   -5.0741 C   0  0  0  0  0  0  0  0  0  0  0  0
   27.8812  -19.9371   -5.9860 C   0  0  0  0  0  0  0  0  0  0  0  0
   24.2584  -21.7945   -8.1319 C   0  0  0  0  0  0  0  0  0  0  0  0
   23.3114  -21.7537   -8.9540 O   0  0  0  0  0  0  0  0  0  0  0  0
   24.1494  -22.8408   -7.1858 O   0  0  0  0  0  0  0  0  0  0  0  0
  2  1  1  6
  3  4  1  0
  3  2  1  0
  4  9  1  0
  4  5  2  0
  5  6  1  0
  6  7  2  0
  8  7  1  0
  9  8  2  0
 10 12  1  0
 10  2  1  0
 11 10  2  0
 13 14  1  6
 13 12  1  0
 15 14  1  0
 16 13  1  0
 17 16  2  0
 18 16  1  0
 19 18  1  0
 19 20  1  1
 20 21  1  0
 21 22  2  0
 22 23  1  0
 24 25  2  0
 24 23  1  0
 26 25  1  0
 27 26  2  0
 28 27  1  0
 28 29  2  0
 29 21  1  0
 29 24  1  0
 30 32  1  0
 30 19  1  0
 31 30  2  0
M  END
$$$$
