FCW.pdb
     RDKit          3D

 32 34  0  0  1  0  0  0  0  0999 V2000
   27.8912  -19.7545  -15.4549 N   0  0  0  0  0  0  0  0  0  0  0  0
   27.2187  -19.2611  -14.2804 C   0  0  1  0  0  0  0  0  0  0  0  0
   26.1147  -18.3242  -14.6967 C   0  0  0  0  0  0  0  0  0  0  0  0
   26.6374  -17.0877  -15.3203 C   0  0  0  0  0  0  0  0  0  0  0  0
   26.6744  -16.9370  -16.6953 C   0  0  0  0  0  0  0  0  0  0  0  0
   27.1601  -15.7996  -17.2965 C   0  0  0  0  0  0  0  0  0  0  0  0
   27.6376  -14.7471  -16.5326 C   0  0  0  0  0  0  0  0  0  0  0  0
   27.6080  -14.8801  -15.1730 C   0  0  0  0  0  0  0  0  0  0  0  0
   27.1129  -16.0389  -14.5643 C   0  0  0  0  0  0  0  0  0  0  0  0
   26.6122  -20.4131  -13.5642 C   0  0  0  0  0  0  0  0  0  0  0  0
   26.3833  -21.4942  -14.1733 O   0  0  0  0  0  0  0  0  0  0  0  0
   26.2686  -20.3506  -12.1895 N   0  0  0  0  0  0  0  0  0  0  0  0
   25.4223  -21.3595  -11.5941 C   0  0  1  0  0  0  0  0  0  0  0  0
   25.9666  -21.8241  -10.2836 C   0  0  0  0  0  0  0  0  0  0  0  0
   25.8088  -20.6326   -8.9523 S   0  0  0  0  0  0  0  0  0  0  0  0
   24.0034  -20.9106  -11.5328 C   0  0  0  0  0  0  0  0  0  0  0  0
   23.6440  -19.8719  -10.9101 O   0  0  0  0  0  0  0  0  0  0  0  0
   23.0223  -21.6824  -12.2012 N   0  0  0  0  0  0  0  0  0  0  0  0
   21.6254  -21.2219  -12.3257 C   0  0  1  0  0  0  0  0  0  0  0  0
   21.5830  -19.8121  -12.7894 C   0  0  0  0  0  0  0  0  0  0  0  0
   21.1794  -19.6462  -14.1854 C   0  0  0  0  0  0  0  0  0  0  0  0
   20.0631  -20.2113  -14.7821 C   0  0  0  0  0  0  0  0  0  0  0  0
   20.0367  -19.8669  -16.0785 N   0  0  0  0  0  0  0  0  0  0  0  0
   21.1052  -19.0890  -16.3537 C   0  0  0  0  0  0  0  0  0  0  0  0
   21.5184  -18.4753  -17.5209 C   0  0  0  0  0  0  0  0  0  0  0  0
   22.6563  -17.7185  -17.4907 C   0  0  0  0  0  0  0  0  0  0  0  0
   23.3724  -17.5679  -16.3398 C   0  0  0  0  0  0  0  0  0  0  0  0
   22.9803  -18.1664  -15.1792 C   0  0  0  0  0  0  0  0  0  0  0  0
   21.8256  -18.9461  -15.1729 C   0  0  0  0  0  0  0  0  0  0  0  0
   20.7904  -22.2060  -12.9947 C   0  0  0  0  0  0  0  0  0  0  0  0
   21.2288  -23.0495  -13.8136 O   0  0  0  0  0  0  0  0  0  0  0  0
   19.3956  -22.2939  -12.7748 O   0  0  0  0  0  0  0  0  0  0  0  0
  2  1  1  6
  3  4  1  0
  3  2  1  0
  4  9  1  0
  4  5  2  0
  5  6  1  0
  6  7  2  0
  8  7  1  0
  9  8  2  0
 10 12  1  0
 10  2  1  0
 11 10  2  0
 13 14  1  1
 13 12  1  0
 15 14  1  0
 16 13  1  0
 17 16  2  0
 18 16  1  0
 19 18  1  0
 19 20  1  6
 20 21  1  0
 21 22  2  0
 22 23  1  0
 24 25  2  0
 24 23  1  0
 26 25  1  0
 27 26  2  0
 28 27  1  0
 28 29  2  0
 29 21  1  0
 29 24  1  0
 30 32  1  0
 30 19  1  0
 31 30  2  0
M  END
$$$$
