FCW.pdb
     RDKit          3D

 32 34  0  0  1  0  0  0  0  0999 V2000
   28.9221  -22.4377  -21.1698 N   0  0  0  0  0  0  0  0  0  0  0  0
   28.6651  -23.8551  -21.1826 C   0  0  1  0  0  0  0  0  0  0  0  0
   29.9234  -24.5848  -21.5755 C   0  0  0  0  0  0  0  0  0  0  0  0
   30.1710  -24.5255  -23.0337 C   0  0  0  0  0  0  0  0  0  0  0  0
   29.4439  -25.3028  -23.9178 C   0  0  0  0  0  0  0  0  0  0  0  0
   29.6599  -25.2678  -25.2754 C   0  0  0  0  0  0  0  0  0  0  0  0
   30.6302  -24.4384  -25.8139 C   0  0  0  0  0  0  0  0  0  0  0  0
   31.3570  -23.6641  -24.9541 C   0  0  0  0  0  0  0  0  0  0  0  0
   31.1346  -23.7020  -23.5730 C   0  0  0  0  0  0  0  0  0  0  0  0
   28.2853  -24.2789  -19.8101 C   0  0  0  0  0  0  0  0  0  0  0  0
   28.6098  -23.5771  -18.8130 O   0  0  0  0  0  0  0  0  0  0  0  0
   27.5553  -25.4696  -19.5632 N   0  0  0  0  0  0  0  0  0  0  0  0
   27.1686  -25.8324  -18.2187 C   0  0  1  0  0  0  0  0  0  0  0  0
   25.8830  -25.1820  -17.8266 C   0  0  0  0  0  0  0  0  0  0  0  0
   25.5455  -25.2114  -16.0653 S   0  0  0  0  0  0  0  0  0  0  0  0
   27.1789  -27.3099  -18.0309 C   0  0  0  0  0  0  0  0  0  0  0  0
   26.9101  -28.1170  -18.9647 O   0  0  0  0  0  0  0  0  0  0  0  0
   27.5041  -27.8251  -16.7526 N   0  0  0  0  0  0  0  0  0  0  0  0
   27.4642  -29.2727  -16.4667 C   0  0  1  0  0  0  0  0  0  0  0  0
   28.5793  -29.6544  -15.5638 C   0  0  0  0  0  0  0  0  0  0  0  0
   29.8770  -29.7833  -16.2262 C   0  0  0  0  0  0  0  0  0  0  0  0
   30.5678  -28.7667  -16.8671 C   0  0  0  0  0  0  0  0  0  0  0  0
   31.7010  -29.2646  -17.3847 N   0  0  0  0  0  0  0  0  0  0  0  0
   31.7774  -30.5824  -17.1022 C   0  0  0  0  0  0  0  0  0  0  0  0
   32.7392  -31.5305  -17.3954 C   0  0  0  0  0  0  0  0  0  0  0  0
   32.5480  -32.8098  -16.9534 C   0  0  0  0  0  0  0  0  0  0  0  0
   31.4370  -33.1503  -16.2394 C   0  0  0  0  0  0  0  0  0  0  0  0
   30.4776  -32.2285  -15.9414 C   0  0  0  0  0  0  0  0  0  0  0  0
   30.6386  -30.9148  -16.3765 C   0  0  0  0  0  0  0  0  0  0  0  0
   26.1190  -29.7231  -16.1494 C   0  0  0  0  0  0  0  0  0  0  0  0
   25.1760  -28.9483  -15.8582 O   0  0  0  0  0  0  0  0  0  0  0  0
   25.7580  -31.0911  -16.1422 O   0  0  0  0  0  0  0  0  0  0  0  0
  2  1  1  1
  3  4  1  0
  3  2  1  0
  4  9  1  0
  4  5  2  0
  5  6  1  0
  6  7  2  0
  8  7  1  0
  9  8  2  0
 10 12  1  0
 10  2  1  0
 11 10  2  0
 13 14  1  6
 13 12  1  0
 15 14  1  0
 16 13  1  0
 17 16  2  0
 18 16  1  0
 19 18  1  0
 19 20  1  1
 20 21  1  0
 21 22  2  0
 22 23  1  0
 24 25  2  0
 24 23  1  0
 26 25  1  0
 27 26  2  0
 28 27  1  0
 28 29  2  0
 29 21  1  0
 29 24  1  0
 30 32  1  0
 30 19  1  0
 31 30  2  0
M  END
$$$$
