FCW.pdb
     RDKit          3D

 32 34  0  0  1  0  0  0  0  0999 V2000
   27.4256  -20.8379  -17.4030 N   0  0  0  0  0  0  0  0  0  0  0  0
   27.7831  -21.4913  -16.1699 C   0  0  1  0  0  0  0  0  0  0  0  0
   29.2788  -21.4403  -15.9960 C   0  0  0  0  0  0  0  0  0  0  0  0
   29.9755  -22.4149  -16.8654 C   0  0  0  0  0  0  0  0  0  0  0  0
   30.5883  -22.0190  -18.0411 C   0  0  0  0  0  0  0  0  0  0  0  0
   31.2367  -22.9074  -18.8665 C   0  0  0  0  0  0  0  0  0  0  0  0
   31.2996  -24.2531  -18.5435 C   0  0  0  0  0  0  0  0  0  0  0  0
   30.6994  -24.6604  -17.3856 C   0  0  0  0  0  0  0  0  0  0  0  0
   30.0403  -23.7538  -16.5477 C   0  0  0  0  0  0  0  0  0  0  0  0
   27.1538  -20.7532  -15.0444 C   0  0  0  0  0  0  0  0  0  0  0  0
   26.8080  -19.5480  -15.1858 O   0  0  0  0  0  0  0  0  0  0  0  0
   26.9184  -21.3583  -13.7834 N   0  0  0  0  0  0  0  0  0  0  0  0
   26.2113  -20.6457  -12.7437 C   0  0  1  0  0  0  0  0  0  0  0  0
   24.8521  -20.2261  -13.1975 C   0  0  0  0  0  0  0  0  0  0  0  0
   23.8750  -21.5430  -13.9243 S   0  0  0  0  0  0  0  0  0  0  0  0
   26.2110  -21.4100  -11.4653 C   0  0  0  0  0  0  0  0  0  0  0  0
   26.2728  -22.6712  -11.4259 O   0  0  0  0  0  0  0  0  0  0  0  0
   26.1390  -20.6894  -10.2485 N   0  0  0  0  0  0  0  0  0  0  0  0
   26.0641  -21.3758   -8.9439 C   0  0  1  0  0  0  0  0  0  0  0  0
   27.3859  -21.3514   -8.2680 C   0  0  0  0  0  0  0  0  0  0  0  0
   27.5883  -20.2102   -7.3758 C   0  0  0  0  0  0  0  0  0  0  0  0
   27.0347  -18.9488   -7.5301 C   0  0  0  0  0  0  0  0  0  0  0  0
   27.4712  -18.1540   -6.5413 N   0  0  0  0  0  0  0  0  0  0  0  0
   28.2974  -18.8569   -5.7378 C   0  0  0  0  0  0  0  0  0  0  0  0
   28.9842  -18.5038   -4.5918 C   0  0  0  0  0  0  0  0  0  0  0  0
   29.7459  -19.4538   -3.9707 C   0  0  0  0  0  0  0  0  0  0  0  0
   29.8311  -20.7225   -4.4642 C   0  0  0  0  0  0  0  0  0  0  0  0
   29.1611  -21.0885   -5.5938 C   0  0  0  0  0  0  0  0  0  0  0  0
   28.3757  -20.1458   -6.2539 C   0  0  0  0  0  0  0  0  0  0  0  0
   24.8845  -20.9794   -8.1925 C   0  0  0  0  0  0  0  0  0  0  0  0
   24.1409  -20.0226   -8.5180 O   0  0  0  0  0  0  0  0  0  0  0  0
   24.4730  -21.6488   -7.0160 O   0  0  0  0  0  0  0  0  0  0  0  0
  2  1  1  6
  3  4  1  0
  3  2  1  0
  4  9  1  0
  4  5  2  0
  5  6  1  0
  6  7  2  0
  8  7  1  0
  9  8  2  0
 10 12  1  0
 10  2  1  0
 11 10  2  0
 13 14  1  6
 13 12  1  0
 15 14  1  0
 16 13  1  0
 17 16  2  0
 18 16  1  0
 19 18  1  0
 19 20  1  1
 20 21  1  0
 21 22  2  0
 22 23  1  0
 24 25  2  0
 24 23  1  0
 26 25  1  0
 27 26  2  0
 28 27  1  0
 28 29  2  0
 29 21  1  0
 29 24  1  0
 30 32  1  0
 30 19  1  0
 31 30  2  0
M  END
$$$$
