FCW.pdb
     RDKit          3D

 32 34  0  0  1  0  0  0  0  0999 V2000
   27.2181  -21.1352  -16.0350 N   0  0  0  0  0  0  0  0  0  0  0  0
   27.2817  -20.4271  -14.7820 C   0  0  1  0  0  0  0  0  0  0  0  0
   26.8565  -18.9977  -14.9969 C   0  0  0  0  0  0  0  0  0  0  0  0
   27.7270  -18.2962  -15.9671 C   0  0  0  0  0  0  0  0  0  0  0  0
   27.2467  -17.8885  -17.1990 C   0  0  0  0  0  0  0  0  0  0  0  0
   28.0382  -17.2399  -18.1176 C   0  0  0  0  0  0  0  0  0  0  0  0
   29.3671  -16.9678  -17.8362 C   0  0  0  0  0  0  0  0  0  0  0  0
   29.8569  -17.3639  -16.6237 C   0  0  0  0  0  0  0  0  0  0  0  0
   29.0487  -18.0237  -15.6909 C   0  0  0  0  0  0  0  0  0  0  0  0
   26.3321  -21.0620  -13.8319 C   0  0  0  0  0  0  0  0  0  0  0  0
   25.3547  -21.7350  -14.2606 O   0  0  0  0  0  0  0  0  0  0  0  0
   26.4779  -20.9418  -12.4261 N   0  0  0  0  0  0  0  0  0  0  0  0
   25.4344  -21.3948  -11.5348 C   0  0  1  0  0  0  0  0  0  0  0  0
   25.9227  -21.4898  -10.1270 C   0  0  0  0  0  0  0  0  0  0  0  0
   25.6341  -20.0185   -9.1426 S   0  0  0  0  0  0  0  0  0  0  0  0
   24.1966  -20.5812  -11.6902 C   0  0  0  0  0  0  0  0  0  0  0  0
   24.1949  -19.3208  -11.6050 O   0  0  0  0  0  0  0  0  0  0  0  0
   22.9757  -21.2521  -11.9441 N   0  0  0  0  0  0  0  0  0  0  0  0
   21.7072  -20.5166  -12.1141 C   0  0  1  0  0  0  0  0  0  0  0  0
   21.8824  -19.3936  -13.0695 C   0  0  0  0  0  0  0  0  0  0  0  0
   21.5414  -19.7185  -14.4542 C   0  0  0  0  0  0  0  0  0  0  0  0
   20.2724  -20.0019  -14.9345 C   0  0  0  0  0  0  0  0  0  0  0  0
   20.3519  -20.2861  -16.2433 N   0  0  0  0  0  0  0  0  0  0  0  0
   21.6391  -20.1972  -16.6402 C   0  0  0  0  0  0  0  0  0  0  0  0
   22.2345  -20.3787  -17.8740 C   0  0  0  0  0  0  0  0  0  0  0  0
   23.5856  -20.1992  -17.9774 C   0  0  0  0  0  0  0  0  0  0  0  0
   24.3352  -19.8492  -16.8930 C   0  0  0  0  0  0  0  0  0  0  0  0
   23.7651  -19.6665  -15.6681 C   0  0  0  0  0  0  0  0  0  0  0  0
   22.3903  -19.8419  -15.5252 C   0  0  0  0  0  0  0  0  0  0  0  0
   20.5803  -21.4179  -12.2898 C   0  0  0  0  0  0  0  0  0  0  0  0
   20.6776  -22.5650  -12.7890 O   0  0  0  0  0  0  0  0  0  0  0  0
   19.2631  -21.0704  -11.9079 O   0  0  0  0  0  0  0  0  0  0  0  0
  2  1  1  6
  3  4  1  0
  3  2  1  0
  4  9  1  0
  4  5  2  0
  5  6  1  0
  6  7  2  0
  8  7  1  0
  9  8  2  0
 10 12  1  0
 10  2  1  0
 11 10  2  0
 13 14  1  1
 13 12  1  0
 15 14  1  0
 16 13  1  0
 17 16  2  0
 18 16  1  0
 19 18  1  0
 19 20  1  6
 20 21  1  0
 21 22  2  0
 22 23  1  0
 24 25  2  0
 24 23  1  0
 26 25  1  0
 27 26  2  0
 28 27  1  0
 28 29  2  0
 29 21  1  0
 29 24  1  0
 30 32  1  0
 30 19  1  0
 31 30  2  0
M  END
$$$$
