FCW.pdb
     RDKit          3D

 32 34  0  0  1  0  0  0  0  0999 V2000
   28.5336  -19.6892  -10.9467 N   0  0  0  0  0  0  0  0  0  0  0  0
   27.6060  -20.7698  -11.1636 C   0  0  1  0  0  0  0  0  0  0  0  0
   26.7717  -20.9647   -9.9241 C   0  0  0  0  0  0  0  0  0  0  0  0
   27.5485  -20.7313   -8.6859 C   0  0  0  0  0  0  0  0  0  0  0  0
   28.6347  -21.5239   -8.3593 C   0  0  0  0  0  0  0  0  0  0  0  0
   29.3677  -21.3287   -7.2124 C   0  0  0  0  0  0  0  0  0  0  0  0
   29.0378  -20.3139   -6.3289 C   0  0  0  0  0  0  0  0  0  0  0  0
   27.9677  -19.5221   -6.6368 C   0  0  0  0  0  0  0  0  0  0  0  0
   27.2239  -19.7233   -7.8050 C   0  0  0  0  0  0  0  0  0  0  0  0
   26.7032  -20.3998  -12.2842 C   0  0  0  0  0  0  0  0  0  0  0  0
   26.6545  -19.2086  -12.6976 O   0  0  0  0  0  0  0  0  0  0  0  0
   25.8703  -21.3507  -12.9274 N   0  0  0  0  0  0  0  0  0  0  0  0
   25.4482  -21.1557  -14.2958 C   0  0  1  0  0  0  0  0  0  0  0  0
   26.6133  -20.9077  -15.1960 C   0  0  0  0  0  0  0  0  0  0  0  0
   26.1928  -20.7903  -16.9357 S   0  0  0  0  0  0  0  0  0  0  0  0
   24.5578  -22.2592  -14.7518 C   0  0  0  0  0  0  0  0  0  0  0  0
   24.9121  -23.4716  -14.7340 O   0  0  0  0  0  0  0  0  0  0  0  0
   23.2634  -21.9308  -15.2226 N   0  0  0  0  0  0  0  0  0  0  0  0
   22.1321  -22.8711  -15.1010 C   0  0  1  0  0  0  0  0  0  0  0  0
   21.9564  -23.2917  -13.6879 C   0  0  0  0  0  0  0  0  0  0  0  0
   21.2249  -22.3347  -12.8583 C   0  0  0  0  0  0  0  0  0  0  0  0
   21.5565  -21.0022  -12.6688 C   0  0  0  0  0  0  0  0  0  0  0  0
   20.6790  -20.4482  -11.8184 N   0  0  0  0  0  0  0  0  0  0  0  0
   19.7765  -21.3789  -11.4420 C   0  0  0  0  0  0  0  0  0  0  0  0
   18.6799  -21.3089  -10.6039 C   0  0  0  0  0  0  0  0  0  0  0  0
   17.9253  -22.4344  -10.4241 C   0  0  0  0  0  0  0  0  0  0  0  0
   18.2408  -23.6026  -11.0534 C   0  0  0  0  0  0  0  0  0  0  0  0
   19.3191  -23.6903  -11.8831 C   0  0  0  0  0  0  0  0  0  0  0  0
   20.1116  -22.5631  -12.0893 C   0  0  0  0  0  0  0  0  0  0  0  0
   20.9703  -22.4169  -15.8474 C   0  0  0  0  0  0  0  0  0  0  0  0
   20.7922  -21.2264  -16.2016 O   0  0  0  0  0  0  0  0  0  0  0  0
   19.9304  -23.2920  -16.2405 O   0  0  0  0  0  0  0  0  0  0  0  0
  2  1  1  1
  3  4  1  0
  3  2  1  0
  4  9  1  0
  4  5  2  0
  5  6  1  0
  6  7  2  0
  8  7  1  0
  9  8  2  0
 10 12  1  0
 10  2  1  0
 11 10  2  0
 13 14  1  6
 13 12  1  0
 15 14  1  0
 16 13  1  0
 17 16  2  0
 18 16  1  0
 19 18  1  0
 19 20  1  1
 20 21  1  0
 21 22  2  0
 22 23  1  0
 24 25  2  0
 24 23  1  0
 26 25  1  0
 27 26  2  0
 28 27  1  0
 28 29  2  0
 29 21  1  0
 29 24  1  0
 30 32  1  0
 30 19  1  0
 31 30  2  0
M  END
$$$$
