FCW.pdb
     RDKit          3D

 32 34  0  0  1  0  0  0  0  0999 V2000
   27.7272  -21.4049  -15.4799 N   0  0  0  0  0  0  0  0  0  0  0  0
   27.6814  -21.3640  -14.0407 C   0  0  1  0  0  0  0  0  0  0  0  0
   28.3232  -20.0887  -13.5592 C   0  0  0  0  0  0  0  0  0  0  0  0
   28.4889  -20.0679  -12.0884 C   0  0  0  0  0  0  0  0  0  0  0  0
   27.6264  -19.3504  -11.2785 C   0  0  0  0  0  0  0  0  0  0  0  0
   27.7640  -19.3127   -9.9109 C   0  0  0  0  0  0  0  0  0  0  0  0
   28.7892  -20.0040   -9.2860 C   0  0  0  0  0  0  0  0  0  0  0  0
   29.6497  -20.7176  -10.0716 C   0  0  0  0  0  0  0  0  0  0  0  0
   29.5068  -20.7540  -11.4633 C   0  0  0  0  0  0  0  0  0  0  0  0
   26.2584  -21.3644  -13.6131 C   0  0  0  0  0  0  0  0  0  0  0  0
   25.3350  -21.2825  -14.4691 O   0  0  0  0  0  0  0  0  0  0  0  0
   25.8807  -21.4542  -12.2490 N   0  0  0  0  0  0  0  0  0  0  0  0
   24.5021  -21.6801  -11.8786 C   0  0  1  0  0  0  0  0  0  0  0  0
   24.3620  -21.9065  -10.4094 C   0  0  0  0  0  0  0  0  0  0  0  0
   24.2691  -20.4038   -9.4345 S   0  0  0  0  0  0  0  0  0  0  0  0
   23.6144  -20.6091  -12.4111 C   0  0  0  0  0  0  0  0  0  0  0  0
   23.8619  -19.3800  -12.2566 O   0  0  0  0  0  0  0  0  0  0  0  0
   22.4481  -20.9894  -13.1185 N   0  0  0  0  0  0  0  0  0  0  0  0
   21.8955  -20.1589  -14.2065 C   0  0  1  0  0  0  0  0  0  0  0  0
   22.9432  -19.8613  -15.2156 C   0  0  0  0  0  0  0  0  0  0  0  0
   23.6058  -18.5697  -15.0370 C   0  0  0  0  0  0  0  0  0  0  0  0
   23.0196  -17.4166  -14.5388 C   0  0  0  0  0  0  0  0  0  0  0  0
   23.9221  -16.4240  -14.5531 N   0  0  0  0  0  0  0  0  0  0  0  0
   25.0887  -16.8909  -15.0466 C   0  0  0  0  0  0  0  0  0  0  0  0
   26.3108  -16.2786  -15.2497 C   0  0  0  0  0  0  0  0  0  0  0  0
   27.3364  -17.0254  -15.7586 C   0  0  0  0  0  0  0  0  0  0  0  0
   27.1654  -18.3442  -16.0613 C   0  0  0  0  0  0  0  0  0  0  0  0
   25.9667  -18.9647  -15.8681 C   0  0  0  0  0  0  0  0  0  0  0  0
   24.8986  -18.2342  -15.3518 C   0  0  0  0  0  0  0  0  0  0  0  0
   20.6050  -20.6516  -14.6592 C   0  0  0  0  0  0  0  0  0  0  0  0
   20.1780  -21.8068  -14.4197 O   0  0  0  0  0  0  0  0  0  0  0  0
   19.7128  -19.8582  -15.4182 O   0  0  0  0  0  0  0  0  0  0  0  0
  2  1  1  6
  3  4  1  0
  3  2  1  0
  4  9  1  0
  4  5  2  0
  5  6  1  0
  6  7  2  0
  8  7  1  0
  9  8  2  0
 10 12  1  0
 10  2  1  0
 11 10  2  0
 13 14  1  1
 13 12  1  0
 15 14  1  0
 16 13  1  0
 17 16  2  0
 18 16  1  0
 19 18  1  0
 19 20  1  6
 20 21  1  0
 21 22  2  0
 22 23  1  0
 24 25  2  0
 24 23  1  0
 26 25  1  0
 27 26  2  0
 28 27  1  0
 28 29  2  0
 29 21  1  0
 29 24  1  0
 30 32  1  0
 30 19  1  0
 31 30  2  0
M  END
$$$$
