FCW.pdb
     RDKit          3D

 32 34  0  0  1  0  0  0  0  0999 V2000
   21.7624  -19.3791  -16.1909 N   0  0  0  0  0  0  0  0  0  0  0  0
   22.8784  -18.8425  -15.4549 C   0  0  1  0  0  0  0  0  0  0  0  0
   22.5348  -17.4575  -14.9712 C   0  0  0  0  0  0  0  0  0  0  0  0
   22.3696  -16.5010  -16.0888 C   0  0  0  0  0  0  0  0  0  0  0  0
   23.4382  -16.1429  -16.8916 C   0  0  0  0  0  0  0  0  0  0  0  0
   23.3092  -15.2529  -17.9319 C   0  0  0  0  0  0  0  0  0  0  0  0
   22.0832  -14.6739  -18.2167 C   0  0  0  0  0  0  0  0  0  0  0  0
   21.0177  -15.0171  -17.4332 C   0  0  0  0  0  0  0  0  0  0  0  0
   21.1523  -15.9233  -16.3753 C   0  0  0  0  0  0  0  0  0  0  0  0
   23.1227  -19.7064  -14.2710 C   0  0  0  0  0  0  0  0  0  0  0  0
   22.1556  -20.1329  -13.5818 O   0  0  0  0  0  0  0  0  0  0  0  0
   24.4297  -20.0830  -13.8688 N   0  0  0  0  0  0  0  0  0  0  0  0
   24.6286  -20.9755  -12.7496 C   0  0  1  0  0  0  0  0  0  0  0  0
   25.0274  -22.3405  -13.2047 C   0  0  0  0  0  0  0  0  0  0  0  0
   26.6656  -22.4301  -13.9294 S   0  0  0  0  0  0  0  0  0  0  0  0
   25.5499  -20.3833  -11.7401 C   0  0  0  0  0  0  0  0  0  0  0  0
   26.6272  -19.8051  -12.0576 O   0  0  0  0  0  0  0  0  0  0  0  0
   25.1990  -20.4744  -10.3712 N   0  0  0  0  0  0  0  0  0  0  0  0
   26.1809  -20.8732   -9.3438 C   0  0  1  0  0  0  0  0  0  0  0  0
   27.2159  -19.8216   -9.1789 C   0  0  0  0  0  0  0  0  0  0  0  0
   28.2562  -20.1443   -8.2026 C   0  0  0  0  0  0  0  0  0  0  0  0
   29.2840  -21.0571   -8.3807 C   0  0  0  0  0  0  0  0  0  0  0  0
   30.0209  -21.1123   -7.2609 N   0  0  0  0  0  0  0  0  0  0  0  0
   29.5078  -20.2599   -6.3486 C   0  0  0  0  0  0  0  0  0  0  0  0
   29.9041  -19.9422   -5.0634 C   0  0  0  0  0  0  0  0  0  0  0  0
   29.1837  -19.0084   -4.3722 C   0  0  0  0  0  0  0  0  0  0  0  0
   28.0982  -18.4004   -4.9309 C   0  0  0  0  0  0  0  0  0  0  0  0
   27.6923  -18.7017   -6.1972 C   0  0  0  0  0  0  0  0  0  0  0  0
   28.4023  -19.6496   -6.9311 C   0  0  0  0  0  0  0  0  0  0  0  0
   25.5335  -21.4123   -8.1591 C   0  0  0  0  0  0  0  0  0  0  0  0
   24.3649  -21.1180   -7.8096 O   0  0  0  0  0  0  0  0  0  0  0  0
   26.1771  -22.3252   -7.2907 O   0  0  0  0  0  0  0  0  0  0  0  0
  2  1  1  1
  3  4  1  0
  3  2  1  0
  4  9  1  0
  4  5  2  0
  5  6  1  0
  6  7  2  0
  8  7  1  0
  9  8  2  0
 10 12  1  0
 10  2  1  0
 11 10  2  0
 13 14  1  6
 13 12  1  0
 15 14  1  0
 16 13  1  0
 17 16  2  0
 18 16  1  0
 19 18  1  0
 19 20  1  1
 20 21  1  0
 21 22  2  0
 22 23  1  0
 24 25  2  0
 24 23  1  0
 26 25  1  0
 27 26  2  0
 28 27  1  0
 28 29  2  0
 29 21  1  0
 29 24  1  0
 30 32  1  0
 30 19  1  0
 31 30  2  0
M  END
$$$$
