IAD.pdb
     RDKit          3D

 22 21  0  0  1  0  0  0  0  0999 V2000
    8.4028  -20.6390   19.6139 C   0  0  0  0  0  0  0  0  0  0  0  0
    8.7047  -19.2170   19.1967 C   0  0  0  0  0  0  0  0  0  0  0  0
    7.4304  -18.3749   19.1298 C   0  0  2  0  0  0  0  0  0  0  0  0
    6.4707  -19.0104   18.2031 C   0  0  0  0  0  0  0  0  0  0  0  0
    7.8300  -16.9798   18.8180 C   0  0  2  0  0  0  0  0  0  0  0  0
    8.4319  -16.9689   17.4962 N   0  0  0  0  0  0  0  0  0  0  0  0
    8.6440  -16.3095   19.8286 C   0  0  0  0  0  0  0  0  0  0  0  0
    9.8934  -16.3000   19.6793 O   0  0  0  0  0  0  0  0  0  0  0  0
    8.1768  -14.2728   23.0125 C   0  0  0  0  0  0  0  0  0  0  0  0
    8.9504  -15.0869   22.0279 C   0  0  2  0  0  0  0  0  0  0  0  0
    8.1419  -15.6558   20.9857 N   0  0  0  0  0  0  0  0  0  0  0  0
    9.7331  -16.1142   22.7653 C   0  0  0  0  0  0  0  0  0  0  0  0
    9.2609  -17.2554   23.0270 O   0  0  0  0  0  0  0  0  0  0  0  0
   11.0362  -15.8247   23.1905 N   0  0  0  0  0  0  0  0  0  0  0  0
   11.9366  -16.7143   23.8803 C   0  0  1  0  0  0  0  0  0  0  0  0
   13.3312  -16.2092   23.9559 C   0  0  0  0  0  0  0  0  0  0  0  0
   14.0170  -16.2695   22.6475 C   0  0  0  0  0  0  0  0  0  0  0  0
   13.7281  -17.1431   21.8042 O   0  0  0  0  0  0  0  0  0  0  0  0
   11.3334  -17.1321   25.1476 C   0  0  0  0  0  0  0  0  0  0  0  0
   10.5950  -16.2379   25.8945 O   0  0  0  0  0  0  0  0  0  0  0  0
   15.0116  -15.3602   22.2963 O   0  0  0  0  0  0  0  0  0  0  0  0
   11.4706  -18.3087   25.5830 O   0  0  0  0  0  0  0  0  0  0  0  0
  2  3  1  0
  2  1  1  0
  3  5  1  0
  3  4  1  6
  5  6  1  6
  7  5  1  0
  8  7  2  0
 10  9  1  1
 10 12  1  0
 10 11  1  0
 11  7  1  0
 12 14  1  0
 13 12  2  0
 14 15  1  0
 15 16  1  1
 15 19  1  0
 16 17  1  0
 17 21  1  0
 17 18  2  0
 19 22  2  0
 19 20  1  0
M  END
$$$$
