IAD.pdb
     RDKit          3D

 22 21  0  0  1  0  0  0  0  0999 V2000
    7.4426  -11.9561   19.7045 C   0  0  0  0  0  0  0  0  0  0  0  0
    7.6061  -13.2766   20.4236 C   0  0  0  0  0  0  0  0  0  0  0  0
    8.7258  -14.1125   19.8030 C   0  0  2  0  0  0  0  0  0  0  0  0
    8.4439  -14.3213   18.3675 C   0  0  0  0  0  0  0  0  0  0  0  0
    8.8874  -15.3328   20.6323 C   0  0  2  0  0  0  0  0  0  0  0  0
    7.8000  -16.2412   20.3128 N   0  0  0  0  0  0  0  0  0  0  0  0
    9.0518  -15.1111   22.0665 C   0  0  0  0  0  0  0  0  0  0  0  0
   10.0849  -14.5125   22.4638 O   0  0  0  0  0  0  0  0  0  0  0  0
    7.0064  -15.1487   25.2192 C   0  0  0  0  0  0  0  0  0  0  0  0
    8.2962  -15.2899   24.4796 C   0  0  2  0  0  0  0  0  0  0  0  0
    8.1330  -15.5183   23.0707 N   0  0  0  0  0  0  0  0  0  0  0  0
    9.1120  -16.3460   25.1361 C   0  0  0  0  0  0  0  0  0  0  0  0
    9.0544  -16.5608   26.3788 O   0  0  0  0  0  0  0  0  0  0  0  0
    9.9764  -17.1367   24.3679 N   0  0  0  0  0  0  0  0  0  0  0  0
   10.8278  -18.1979   24.8445 C   0  0  1  0  0  0  0  0  0  0  0  0
   11.2878  -19.1187   23.7738 C   0  0  0  0  0  0  0  0  0  0  0  0
   10.1746  -19.5722   22.9131 C   0  0  0  0  0  0  0  0  0  0  0  0
    9.0716  -19.8977   23.3981 O   0  0  0  0  0  0  0  0  0  0  0  0
   11.8723  -17.6364   25.7037 C   0  0  0  0  0  0  0  0  0  0  0  0
   12.7348  -18.4697   26.3852 O   0  0  0  0  0  0  0  0  0  0  0  0
   10.3032  -19.6572   21.5290 O   0  0  0  0  0  0  0  0  0  0  0  0
   12.0097  -16.3892   25.8395 O   0  0  0  0  0  0  0  0  0  0  0  0
  2  3  1  0
  2  1  1  0
  3  5  1  0
  3  4  1  6
  5  6  1  1
  7  5  1  0
  8  7  2  0
 10  9  1  1
 10 12  1  0
 10 11  1  0
 11  7  1  0
 12 14  1  0
 13 12  2  0
 14 15  1  0
 15 16  1  6
 15 19  1  0
 16 17  1  0
 17 21  1  0
 17 18  2  0
 19 22  2  0
 19 20  1  0
M  END
$$$$
