IAD.pdb
     RDKit          3D

 22 21  0  0  1  0  0  0  0  0999 V2000
    7.5140  -11.3561   27.3591 C   0  0  0  0  0  0  0  0  0  0  0  0
    6.5786  -12.3297   26.6775 C   0  0  0  0  0  0  0  0  0  0  0  0
    7.3524  -13.4526   25.9862 C   0  0  2  0  0  0  0  0  0  0  0  0
    8.3885  -12.8671   25.1103 C   0  0  0  0  0  0  0  0  0  0  0  0
    6.3616  -14.3467   25.3366 C   0  0  2  0  0  0  0  0  0  0  0  0
    5.3555  -14.6963   26.3242 N   0  0  0  0  0  0  0  0  0  0  0  0
    6.9113  -15.5052   24.6375 C   0  0  0  0  0  0  0  0  0  0  0  0
    7.0211  -16.5877   25.2696 O   0  0  0  0  0  0  0  0  0  0  0  0
    7.8202  -16.4978   21.0847 C   0  0  0  0  0  0  0  0  0  0  0  0
    7.7677  -16.6876   22.5652 C   0  0  2  0  0  0  0  0  0  0  0  0
    7.3409  -15.5189   23.2834 N   0  0  0  0  0  0  0  0  0  0  0  0
    9.0874  -17.1908   23.0310 C   0  0  0  0  0  0  0  0  0  0  0  0
    9.5916  -18.2592   22.5859 O   0  0  0  0  0  0  0  0  0  0  0  0
    9.8077  -16.4704   23.9926 N   0  0  0  0  0  0  0  0  0  0  0  0
   11.0529  -16.8575   24.6072 C   0  0  1  0  0  0  0  0  0  0  0  0
   12.1460  -15.8714   24.4108 C   0  0  0  0  0  0  0  0  0  0  0  0
   12.7906  -16.0109   23.0876 C   0  0  0  0  0  0  0  0  0  0  0  0
   12.6290  -17.0351   22.3929 O   0  0  0  0  0  0  0  0  0  0  0  0
   10.8050  -17.2776   25.9881 C   0  0  0  0  0  0  0  0  0  0  0  0
   11.7966  -17.9060   26.7124 O   0  0  0  0  0  0  0  0  0  0  0  0
   13.6036  -15.0125   22.5571 O   0  0  0  0  0  0  0  0  0  0  0  0
    9.6906  -17.0759   26.5451 O   0  0  0  0  0  0  0  0  0  0  0  0
  2  3  1  0
  2  1  1  0
  3  5  1  0
  3  4  1  6
  5  6  1  1
  7  5  1  0
  8  7  2  0
 10  9  1  6
 10 12  1  0
 10 11  1  0
 11  7  1  0
 12 14  1  0
 13 12  2  0
 14 15  1  0
 15 16  1  1
 15 19  1  0
 16 17  1  0
 17 21  1  0
 17 18  2  0
 19 22  2  0
 19 20  1  0
M  END
$$$$
