IAD.pdb
     RDKit          3D

 22 21  0  0  1  0  0  0  0  0999 V2000
    7.5401  -12.0802   19.0951 C   0  0  0  0  0  0  0  0  0  0  0  0
    7.0865  -13.4073   19.6613 C   0  0  0  0  0  0  0  0  0  0  0  0
    8.1131  -13.9728   20.6430 C   0  0  2  0  0  0  0  0  0  0  0  0
    9.4248  -14.0834   19.9715 C   0  0  0  0  0  0  0  0  0  0  0  0
    7.5502  -15.2235   21.2105 C   0  0  2  0  0  0  0  0  0  0  0  0
    6.1243  -15.0272   21.4056 N   0  0  0  0  0  0  0  0  0  0  0  0
    8.2279  -15.7477   22.3933 C   0  0  0  0  0  0  0  0  0  0  0  0
    8.2816  -15.0237   23.4210 O   0  0  0  0  0  0  0  0  0  0  0  0
    9.2964  -18.7407   24.1830 C   0  0  0  0  0  0  0  0  0  0  0  0
    9.7049  -17.4478   23.5569 C   0  0  2  0  0  0  0  0  0  0  0  0
    8.8430  -17.0248   22.4883 N   0  0  0  0  0  0  0  0  0  0  0  0
   11.1272  -17.5482   23.1343 C   0  0  0  0  0  0  0  0  0  0  0  0
   11.4615  -18.0361   22.0189 O   0  0  0  0  0  0  0  0  0  0  0  0
   12.1411  -17.0924   23.9869 N   0  0  0  0  0  0  0  0  0  0  0  0
   13.5602  -17.1265   23.7357 C   0  0  1  0  0  0  0  0  0  0  0  0
   14.1890  -15.7819   23.6876 C   0  0  0  0  0  0  0  0  0  0  0  0
   15.5766  -15.8339   23.1800 C   0  0  0  0  0  0  0  0  0  0  0  0
   15.9276  -16.6874   22.3397 O   0  0  0  0  0  0  0  0  0  0  0  0
   14.1901  -18.1005   24.6296 C   0  0  0  0  0  0  0  0  0  0  0  0
   15.3578  -18.7331   24.2567 O   0  0  0  0  0  0  0  0  0  0  0  0
   16.5516  -14.9387   23.6127 O   0  0  0  0  0  0  0  0  0  0  0  0
   13.6872  -18.3814   25.7525 O   0  0  0  0  0  0  0  0  0  0  0  0
  2  3  1  0
  2  1  1  0
  3  5  1  0
  3  4  1  6
  5  6  1  1
  7  5  1  0
  8  7  2  0
 10  9  1  6
 10 12  1  0
 10 11  1  0
 11  7  1  0
 12 14  1  0
 13 12  2  0
 14 15  1  0
 15 16  1  1
 15 19  1  0
 16 17  1  0
 17 21  1  0
 17 18  2  0
 19 22  2  0
 19 20  1  0
M  END
$$$$
