IAD.pdb
     RDKit          3D

 22 21  0  0  1  0  0  0  0  0999 V2000
    7.4837  -11.6282   27.5051 C   0  0  0  0  0  0  0  0  0  0  0  0
    6.6094  -12.6119   26.7598 C   0  0  0  0  0  0  0  0  0  0  0  0
    7.4426  -13.5259   25.8609 C   0  0  2  0  0  0  0  0  0  0  0  0
    8.3110  -12.7022   24.9942 C   0  0  0  0  0  0  0  0  0  0  0  0
    6.5088  -14.4539   25.1753 C   0  0  2  0  0  0  0  0  0  0  0  0
    5.7371  -15.1478   26.1916 N   0  0  0  0  0  0  0  0  0  0  0  0
    7.1102  -15.3523   24.1934 C   0  0  0  0  0  0  0  0  0  0  0  0
    7.3196  -16.5474   24.5266 O   0  0  0  0  0  0  0  0  0  0  0  0
    8.1706  -15.2876   20.5342 C   0  0  0  0  0  0  0  0  0  0  0  0
    8.0286  -15.8911   21.8929 C   0  0  2  0  0  0  0  0  0  0  0  0
    7.4866  -14.9905   22.8721 N   0  0  0  0  0  0  0  0  0  0  0  0
    9.3406  -16.4571   22.3055 C   0  0  0  0  0  0  0  0  0  0  0  0
    9.9312  -17.3424   21.6263 O   0  0  0  0  0  0  0  0  0  0  0  0
    9.9551  -16.0061   23.4808 N   0  0  0  0  0  0  0  0  0  0  0  0
   11.2194  -16.4448   24.0168 C   0  0  1  0  0  0  0  0  0  0  0  0
   12.2740  -15.3995   23.9870 C   0  0  0  0  0  0  0  0  0  0  0  0
   13.2601  -15.6339   22.9107 C   0  0  0  0  0  0  0  0  0  0  0  0
   13.1545  -16.6065   22.1357 O   0  0  0  0  0  0  0  0  0  0  0  0
   11.0002  -17.1019   25.3071 C   0  0  0  0  0  0  0  0  0  0  0  0
   11.3929  -18.4106   25.4967 O   0  0  0  0  0  0  0  0  0  0  0  0
   14.3468  -14.7859   22.7120 O   0  0  0  0  0  0  0  0  0  0  0  0
   10.4541  -16.4935   26.2686 O   0  0  0  0  0  0  0  0  0  0  0  0
  2  3  1  0
  2  1  1  0
  3  5  1  0
  3  4  1  6
  5  6  1  1
  7  5  1  0
  8  7  2  0
 10  9  1  6
 10 12  1  0
 10 11  1  0
 11  7  1  0
 12 14  1  0
 13 12  2  0
 14 15  1  0
 15 16  1  1
 15 19  1  0
 16 17  1  0
 17 21  1  0
 17 18  2  0
 19 22  2  0
 19 20  1  0
M  END
$$$$
