ENP.pdb
     RDKit          3D

 25 25  0  0  1  0  0  0  0  0999 V2000
   11.4638  -17.1691   21.2522 N   0  0  0  0  0  0  0  0  0  0  0  0
   11.6141  -15.7721   21.2845 C   0  0  1  0  0  0  0  0  0  0  0  0
   11.9780  -15.1815   19.9645 C   0  0  0  0  0  0  0  0  0  0  0  0
   13.3389  -15.5455   19.4979 C   0  0  0  0  0  0  0  0  0  0  0  0
   13.6792  -15.0173   18.1842 C   0  0  0  0  0  0  0  0  0  0  0  0
   14.5828  -14.2293   17.9092 O   0  0  0  0  0  0  0  0  0  0  0  0
   10.4327  -15.0445   21.8819 C   0  0  0  0  0  0  0  0  0  0  0  0
   10.4982  -13.8018   21.8651 O   0  0  0  0  0  0  0  0  0  0  0  0
   12.8919  -15.4496   17.0880 O   0  0  0  0  0  0  0  0  0  0  0  0
    6.9351  -17.6250   21.1507 N   0  0  0  0  0  0  0  0  0  0  0  0
    6.5753  -16.3697   21.6998 C   0  0  0  0  0  0  0  0  0  0  0  0
    5.8528  -15.6115   21.0162 O   0  0  0  0  0  0  0  0  0  0  0  0
    7.0516  -16.0024   23.0279 C   0  0  0  0  0  0  0  0  0  0  0  0
    8.2244  -15.0264   23.0219 C   0  0  2  0  0  0  0  0  0  0  0  0
    9.3209  -15.7241   22.4273 N   0  0  0  0  0  0  0  0  0  0  0  0
    8.5237  -14.6944   24.4290 C   0  0  0  0  0  0  0  0  0  0  0  0
    9.3772  -15.4668   25.0275 O   0  0  0  0  0  0  0  0  0  0  0  0
    7.9981  -13.6428   25.2031 N   0  0  0  0  0  0  0  0  0  0  0  0
    7.1340  -12.5414   24.8525 C   0  0  0  0  0  0  0  0  0  0  0  0
    6.5660  -11.9895   26.1630 C   0  0  0  0  0  0  0  0  0  0  0  0
    7.6471  -12.3338   27.1746 C   0  0  0  0  0  0  0  0  0  0  0  0
    8.3302  -13.5475   26.6443 C   0  0  1  0  0  0  0  0  0  0  0  0
    7.8357  -14.7753   27.3340 C   0  0  0  0  0  0  0  0  0  0  0  0
    6.9248  -15.4353   26.8128 O   0  0  0  0  0  0  0  0  0  0  0  0
    8.3933  -15.1702   28.5452 O   0  0  0  0  0  0  0  0  0  0  0  0
  2  1  1  6
  2  7  1  0
  2  3  1  0
  3  4  1  0
  5  6  2  0
  5  4  1  0
  7 15  1  0
  7  8  2  0
  9  5  1  0
 11 10  1  0
 12 11  2  0
 13 11  1  0
 14 13  1  1
 15 14  1  0
 16 14  1  0
 17 16  2  0
 18 16  1  0
 18 19  1  0
 20 19  1  0
 21 22  1  0
 21 20  1  0
 22 23  1  1
 22 18  1  0
 23 25  1  0
 24 23  2  0
M  END
$$$$
