ENP.pdb
     RDKit          3D

 25 25  0  0  1  0  0  0  0  0999 V2000
   11.3369  -17.2094   13.6994 N   0  0  0  0  0  0  0  0  0  0  0  0
   11.4273  -17.2347   15.1018 C   0  0  1  0  0  0  0  0  0  0  0  0
   12.7397  -16.7557   15.6228 C   0  0  0  0  0  0  0  0  0  0  0  0
   13.8923  -17.0958   14.7522 C   0  0  0  0  0  0  0  0  0  0  0  0
   15.1916  -16.8199   15.3492 C   0  0  0  0  0  0  0  0  0  0  0  0
   15.4511  -16.6983   16.5454 O   0  0  0  0  0  0  0  0  0  0  0  0
   10.2904  -16.5261   15.7998 C   0  0  0  0  0  0  0  0  0  0  0  0
    9.8823  -15.4869   15.2500 O   0  0  0  0  0  0  0  0  0  0  0  0
   16.2917  -16.6729   14.4681 O   0  0  0  0  0  0  0  0  0  0  0  0
    7.1694  -17.6783   15.5546 N   0  0  0  0  0  0  0  0  0  0  0  0
    6.8875  -18.1000   16.8773 C   0  0  0  0  0  0  0  0  0  0  0  0
    5.9910  -18.9556   17.0459 O   0  0  0  0  0  0  0  0  0  0  0  0
    7.6399  -17.5316   17.9893 C   0  0  0  0  0  0  0  0  0  0  0  0
    8.5744  -16.3926   17.5925 C   0  0  2  0  0  0  0  0  0  0  0  0
    9.7216  -17.0058   17.0005 N   0  0  0  0  0  0  0  0  0  0  0  0
    8.9482  -15.6824   18.8317 C   0  0  0  0  0  0  0  0  0  0  0  0
    9.8310  -16.2686   19.5802 O   0  0  0  0  0  0  0  0  0  0  0  0
    8.4659  -14.4467   19.3027 N   0  0  0  0  0  0  0  0  0  0  0  0
    7.4759  -13.5437   18.7670 C   0  0  0  0  0  0  0  0  0  0  0  0
    7.0719  -12.6032   19.9058 C   0  0  0  0  0  0  0  0  0  0  0  0
    8.3171  -12.5684   20.7769 C   0  0  0  0  0  0  0  0  0  0  0  0
    9.0041  -13.8727   20.5587 C   0  0  1  0  0  0  0  0  0  0  0  0
    8.7166  -14.8149   21.6800 C   0  0  0  0  0  0  0  0  0  0  0  0
    7.9237  -15.7499   21.4948 O   0  0  0  0  0  0  0  0  0  0  0  0
    9.3332  -14.6425   22.9144 O   0  0  0  0  0  0  0  0  0  0  0  0
  2  1  1  6
  2  7  1  0
  2  3  1  0
  3  4  1  0
  5  6  2  0
  5  4  1  0
  7 15  1  0
  7  8  2  0
  9  5  1  0
 11 10  1  0
 12 11  2  0
 13 11  1  0
 14 13  1  1
 15 14  1  0
 16 14  1  0
 17 16  2  0
 18 16  1  0
 18 19  1  0
 20 19  1  0
 21 22  1  0
 21 20  1  0
 22 23  1  1
 22 18  1  0
 23 25  1  0
 24 23  2  0
M  END
$$$$
