ENP.pdb
     RDKit          3D

 25 25  0  0  1  0  0  0  0  0999 V2000
    8.3145  -12.7507   20.6604 N   0  0  0  0  0  0  0  0  0  0  0  0
    7.8914  -14.0911   20.6582 C   0  0  1  0  0  0  0  0  0  0  0  0
    7.9768  -14.7404   19.3186 C   0  0  0  0  0  0  0  0  0  0  0  0
    8.4170  -13.8270   18.2350 C   0  0  0  0  0  0  0  0  0  0  0  0
    7.9383  -14.1994   16.9110 C   0  0  0  0  0  0  0  0  0  0  0  0
    8.2439  -13.6848   15.8364 O   0  0  0  0  0  0  0  0  0  0  0  0
    8.5664  -14.9462   21.7046 C   0  0  0  0  0  0  0  0  0  0  0  0
    9.3142  -15.8414   21.2710 O   0  0  0  0  0  0  0  0  0  0  0  0
    7.0171  -15.2734   16.8333 O   0  0  0  0  0  0  0  0  0  0  0  0
    6.6292  -17.7650   25.4306 N   0  0  0  0  0  0  0  0  0  0  0  0
    8.0260  -17.5361   25.4912 C   0  0  0  0  0  0  0  0  0  0  0  0
    8.7075  -18.2452   26.2638 O   0  0  0  0  0  0  0  0  0  0  0  0
    8.6208  -16.4942   24.6627 C   0  0  0  0  0  0  0  0  0  0  0  0
    7.6067  -15.6634   23.8820 C   0  0  2  0  0  0  0  0  0  0  0  0
    8.3664  -14.7488   23.0890 N   0  0  0  0  0  0  0  0  0  0  0  0
    6.7861  -14.9347   24.8696 C   0  0  0  0  0  0  0  0  0  0  0  0
    5.7067  -15.5347   25.2672 O   0  0  0  0  0  0  0  0  0  0  0  0
    7.0295  -13.6687   25.4347 N   0  0  0  0  0  0  0  0  0  0  0  0
    6.2053  -12.4869   25.5150 C   0  0  0  0  0  0  0  0  0  0  0  0
    6.8192  -11.5912   26.5946 C   0  0  0  0  0  0  0  0  0  0  0  0
    8.2897  -11.9746   26.5597 C   0  0  0  0  0  0  0  0  0  0  0  0
    8.3319  -13.3859   26.0829 C   0  0  1  0  0  0  0  0  0  0  0  0
    8.5128  -14.3250   27.2289 C   0  0  0  0  0  0  0  0  0  0  0  0
    7.5868  -15.0910   27.5338 O   0  0  0  0  0  0  0  0  0  0  0  0
    9.7067  -14.3374   27.9417 O   0  0  0  0  0  0  0  0  0  0  0  0
  2  1  1  6
  2  7  1  0
  2  3  1  0
  3  4  1  0
  5  6  2  0
  5  4  1  0
  7 15  1  0
  7  8  2  0
  9  5  1  0
 11 10  1  0
 12 11  2  0
 13 11  1  0
 14 13  1  1
 15 14  1  0
 16 14  1  0
 17 16  2  0
 18 16  1  0
 18 19  1  0
 20 19  1  0
 21 22  1  0
 21 20  1  0
 22 23  1  1
 22 18  1  0
 23 25  1  0
 24 23  2  0
M  END
$$$$
