ENP.pdb
     RDKit          3D

 25 25  0  0  1  0  0  0  0  0999 V2000
    9.4196  -14.8127   19.9729 N   0  0  0  0  0  0  0  0  0  0  0  0
    8.5411  -13.7723   20.3212 C   0  0  1  0  0  0  0  0  0  0  0  0
    7.5752  -13.4216   19.2407 C   0  0  0  0  0  0  0  0  0  0  0  0
    8.2176  -13.0875   17.9454 C   0  0  0  0  0  0  0  0  0  0  0  0
    8.8514  -14.2203   17.2852 C   0  0  0  0  0  0  0  0  0  0  0  0
   10.0395  -14.3417   16.9909 O   0  0  0  0  0  0  0  0  0  0  0  0
    7.8156  -13.9972   21.6269 C   0  0  0  0  0  0  0  0  0  0  0  0
    7.0428  -13.0877   21.9797 O   0  0  0  0  0  0  0  0  0  0  0  0
    8.0213  -15.3145   16.9362 O   0  0  0  0  0  0  0  0  0  0  0  0
    5.2212  -17.2746   22.6488 N   0  0  0  0  0  0  0  0  0  0  0  0
    6.5535  -17.6545   22.9446 C   0  0  0  0  0  0  0  0  0  0  0  0
    7.0212  -18.6628   22.3710 O   0  0  0  0  0  0  0  0  0  0  0  0
    7.3307  -16.8702   23.8967 C   0  0  0  0  0  0  0  0  0  0  0  0
    7.3027  -15.3670   23.6362 C   0  0  2  0  0  0  0  0  0  0  0  0
    7.9974  -15.1628   22.4040 N   0  0  0  0  0  0  0  0  0  0  0  0
    8.0217  -14.7172   24.7499 C   0  0  0  0  0  0  0  0  0  0  0  0
    9.2362  -15.1233   24.9582 O   0  0  0  0  0  0  0  0  0  0  0  0
    7.5533  -13.7103   25.6149 N   0  0  0  0  0  0  0  0  0  0  0  0
    6.2974  -13.0009   25.6594 C   0  0  0  0  0  0  0  0  0  0  0  0
    6.2030  -12.3538   27.0440 C   0  0  0  0  0  0  0  0  0  0  0  0
    7.6604  -12.1488   27.4243 C   0  0  0  0  0  0  0  0  0  0  0  0
    8.4224  -13.2090   26.7058 C   0  0  1  0  0  0  0  0  0  0  0  0
    8.7442  -14.3415   27.6232 C   0  0  0  0  0  0  0  0  0  0  0  0
    8.0821  -15.3869   27.5475 O   0  0  0  0  0  0  0  0  0  0  0  0
    9.7751  -14.2210   28.5488 O   0  0  0  0  0  0  0  0  0  0  0  0
  2  1  1  6
  2  7  1  0
  2  3  1  0
  3  4  1  0
  5  6  2  0
  5  4  1  0
  7 15  1  0
  7  8  2  0
  9  5  1  0
 11 10  1  0
 12 11  2  0
 13 11  1  0
 14 13  1  1
 15 14  1  0
 16 14  1  0
 17 16  2  0
 18 16  1  0
 18 19  1  0
 20 19  1  0
 21 22  1  0
 21 20  1  0
 22 23  1  1
 22 18  1  0
 23 25  1  0
 24 23  2  0
M  END
$$$$
