KVL.pdb
     RDKit          3D

 25 24  0  0  1  0  0  0  0  0999 V2000
   27.1315  -21.3814  -17.7280 N   0  0  0  0  0  0  0  0  0  0  0  0
   27.2418  -22.0140  -16.4525 C   0  0  1  0  0  0  0  0  0  0  0  0
   28.5483  -22.6929  -16.1838 C   0  0  0  0  0  0  0  0  0  0  0  0
   29.2127  -23.2947  -17.3740 C   0  0  0  0  0  0  0  0  0  0  0  0
   30.2212  -22.4273  -18.0600 C   0  0  0  0  0  0  0  0  0  0  0  0
   30.8489  -23.1228  -19.2515 C   0  0  0  0  0  0  0  0  0  0  0  0
   31.6712  -24.2024  -18.7467 N   0  0  0  0  0  0  0  0  0  0  0  0
   26.8758  -21.1136  -15.3307 C   0  0  0  0  0  0  0  0  0  0  0  0
   27.3415  -19.9549  -15.3404 O   0  0  0  0  0  0  0  0  0  0  0  0
   23.8342  -19.1761  -12.2223 C   0  0  0  0  0  0  0  0  0  0  0  0
   24.2024  -20.1783  -13.2842 C   0  0  2  0  0  0  0  0  0  0  0  0
   23.3262  -21.4031  -13.2461 C   0  0  0  0  0  0  0  0  0  0  0  0
   25.6790  -20.5469  -13.2093 C   0  0  2  0  0  0  0  0  0  0  0  0
   26.0336  -21.4876  -14.2538 N   0  0  0  0  0  0  0  0  0  0  0  0
   25.9634  -21.1199  -11.8693 C   0  0  0  0  0  0  0  0  0  0  0  0
   25.4195  -22.2094  -11.5655 O   0  0  0  0  0  0  0  0  0  0  0  0
   26.2894  -19.6515   -6.7600 C   0  0  0  0  0  0  0  0  0  0  0  0
   27.6769  -20.0975   -7.2519 C   0  0  2  0  0  0  0  0  0  0  0  0
   28.6815  -19.2637   -6.5293 C   0  0  0  0  0  0  0  0  0  0  0  0
   27.6786  -19.9198   -8.7271 C   0  0  0  0  0  0  0  0  0  0  0  0
   26.7376  -20.7901   -9.4931 C   0  0  2  0  0  0  0  0  0  0  0  0
   26.8100  -20.5034  -10.9267 N   0  0  0  0  0  0  0  0  0  0  0  0
   25.3412  -20.5656   -9.0645 C   0  0  0  0  0  0  0  0  0  0  0  0
   24.7336  -21.4707   -8.4169 O   0  0  0  0  0  0  0  0  0  0  0  0
   24.6250  -19.3921   -9.3302 O   0  0  0  0  0  0  0  0  0  0  0  0
  2  1  1  6
  3  2  1  0
  4  3  1  0
  5  6  1  0
  5  4  1  0
  6  7  1  0
  8  2  1  0
  8  9  2  0
 11 13  1  0
 11 10  1  1
 12 11  1  0
 13 14  1  6
 14  8  1  0
 15 13  1  0
 16 15  2  0
 18 17  1  1
 18 20  1  0
 19 18  1  0
 21 20  1  1
 21 23  1  0
 21 22  1  0
 22 15  1  0
 23 25  1  0
 24 23  2  0
M  END
$$$$
