KVL.pdb
     RDKit          3D

 25 24  0  0  1  0  0  0  0  0999 V2000
   22.8633  -22.0670  -13.4303 N   0  0  0  0  0  0  0  0  0  0  0  0
   23.2032  -21.0472  -12.4903 C   0  0  1  0  0  0  0  0  0  0  0  0
   22.0724  -20.5515  -11.6443 C   0  0  0  0  0  0  0  0  0  0  0  0
   21.1836  -19.5455  -12.2909 C   0  0  0  0  0  0  0  0  0  0  0  0
   21.5649  -19.1431  -13.6811 C   0  0  0  0  0  0  0  0  0  0  0  0
   20.6083  -18.1176  -14.2561 C   0  0  0  0  0  0  0  0  0  0  0  0
   21.0992  -17.7454  -15.5665 N   0  0  0  0  0  0  0  0  0  0  0  0
   24.3717  -21.4073  -11.6488 C   0  0  0  0  0  0  0  0  0  0  0  0
   24.3120  -22.4706  -10.9966 O   0  0  0  0  0  0  0  0  0  0  0  0
   28.0852  -21.3799  -12.7698 C   0  0  0  0  0  0  0  0  0  0  0  0
   27.9919  -20.7212  -11.4188 C   0  0  2  0  0  0  0  0  0  0  0  0
   29.1674  -21.0517  -10.5366 C   0  0  0  0  0  0  0  0  0  0  0  0
   26.6711  -21.0489  -10.7332 C   0  0  2  0  0  0  0  0  0  0  0  0
   25.5460  -20.6208  -11.5411 N   0  0  0  0  0  0  0  0  0  0  0  0
   26.6433  -20.3880   -9.4039 C   0  0  0  0  0  0  0  0  0  0  0  0
   26.1127  -19.2538   -9.3193 O   0  0  0  0  0  0  0  0  0  0  0  0
   29.5938  -20.8871   -4.1152 C   0  0  0  0  0  0  0  0  0  0  0  0
   28.2440  -20.3726   -4.6438 C   0  0  2  0  0  0  0  0  0  0  0  0
   27.2209  -20.6957   -3.6068 C   0  0  0  0  0  0  0  0  0  0  0  0
   28.0224  -21.0385   -5.9535 C   0  0  0  0  0  0  0  0  0  0  0  0
   27.2270  -20.2673   -6.9545 C   0  0  2  0  0  0  0  0  0  0  0  0
   27.1808  -20.9691   -8.2382 N   0  0  0  0  0  0  0  0  0  0  0  0
   27.8258  -18.9379   -7.1956 C   0  0  0  0  0  0  0  0  0  0  0  0
   28.8676  -18.8429   -7.9122 O   0  0  0  0  0  0  0  0  0  0  0  0
   27.3083  -17.7456   -6.6748 O   0  0  0  0  0  0  0  0  0  0  0  0
  2  1  1  1
  3  2  1  0
  4  3  1  0
  5  6  1  0
  5  4  1  0
  6  7  1  0
  8  2  1  0
  8  9  2  0
 11 13  1  0
 11 10  1  6
 12 11  1  0
 13 14  1  6
 14  8  1  0
 15 13  1  0
 16 15  2  0
 18 17  1  1
 18 20  1  0
 19 18  1  0
 21 20  1  1
 21 23  1  0
 21 22  1  0
 22 15  1  0
 23 25  1  0
 24 23  2  0
M  END
$$$$
