KVL.pdb
     RDKit          3D

 25 24  0  0  1  0  0  0  0  0999 V2000
   26.1874  -19.1429  -16.4085 N   0  0  0  0  0  0  0  0  0  0  0  0
   26.6682  -19.9637  -15.3435 C   0  0  1  0  0  0  0  0  0  0  0  0
   28.1549  -19.9881  -15.1729 C   0  0  0  0  0  0  0  0  0  0  0  0
   28.9182  -20.5899  -16.3023 C   0  0  0  0  0  0  0  0  0  0  0  0
   29.0822  -22.0767  -16.2533 C   0  0  0  0  0  0  0  0  0  0  0  0
   29.9422  -22.5891  -17.3915 C   0  0  0  0  0  0  0  0  0  0  0  0
   29.0761  -22.8123  -18.5301 N   0  0  0  0  0  0  0  0  0  0  0  0
   25.9946  -19.6816  -14.0512 C   0  0  0  0  0  0  0  0  0  0  0  0
   25.9542  -18.4950  -13.6643 O   0  0  0  0  0  0  0  0  0  0  0  0
   22.4725  -20.4656  -13.1351 C   0  0  0  0  0  0  0  0  0  0  0  0
   23.3094  -20.9436  -11.9780 C   0  0  2  0  0  0  0  0  0  0  0  0
   22.6359  -20.7164  -10.6499 C   0  0  0  0  0  0  0  0  0  0  0  0
   24.7019  -20.3257  -12.0097 C   0  0  2  0  0  0  0  0  0  0  0  0
   25.3971  -20.6732  -13.2335 N   0  0  0  0  0  0  0  0  0  0  0  0
   25.4623  -20.7949  -10.8237 C   0  0  0  0  0  0  0  0  0  0  0  0
   25.8745  -21.9804  -10.8177 O   0  0  0  0  0  0  0  0  0  0  0  0
   27.7413  -18.4890   -5.5848 C   0  0  0  0  0  0  0  0  0  0  0  0
   27.6538  -19.7675   -6.4356 C   0  0  2  0  0  0  0  0  0  0  0  0
   29.0451  -20.2858   -6.5833 C   0  0  0  0  0  0  0  0  0  0  0  0
   27.0040  -19.3795   -7.7144 C   0  0  0  0  0  0  0  0  0  0  0  0
   26.3832  -20.4891   -8.4971 C   0  0  2  0  0  0  0  0  0  0  0  0
   25.7426  -19.9784   -9.7101 N   0  0  0  0  0  0  0  0  0  0  0  0
   25.3457  -21.1806   -7.7036 C   0  0  0  0  0  0  0  0  0  0  0  0
   25.6692  -22.1704   -6.9802 O   0  0  0  0  0  0  0  0  0  0  0  0
   23.9960  -20.8080   -7.6948 O   0  0  0  0  0  0  0  0  0  0  0  0
  2  1  1  6
  3  2  1  0
  4  3  1  0
  5  6  1  0
  5  4  1  0
  6  7  1  0
  8  2  1  0
  8  9  2  0
 11 13  1  0
 11 10  1  6
 12 11  1  0
 13 14  1  6
 14  8  1  0
 15 13  1  0
 16 15  2  0
 18 17  1  1
 18 20  1  0
 19 18  1  0
 21 20  1  1
 21 23  1  0
 21 22  1  0
 22 15  1  0
 23 25  1  0
 24 23  2  0
M  END
$$$$
