KVL.pdb
     RDKit          3D

 25 24  0  0  1  0  0  0  0  0999 V2000
   25.6039  -18.6071  -15.2637 N   0  0  0  0  0  0  0  0  0  0  0  0
   26.6187  -18.6443  -14.2598 C   0  0  1  0  0  0  0  0  0  0  0  0
   27.6009  -17.5156  -14.2979 C   0  0  0  0  0  0  0  0  0  0  0  0
   27.8705  -16.9480  -15.6490 C   0  0  0  0  0  0  0  0  0  0  0  0
   28.8799  -17.6859  -16.4714 C   0  0  0  0  0  0  0  0  0  0  0  0
   29.0959  -17.0329  -17.8222 C   0  0  0  0  0  0  0  0  0  0  0  0
   30.1416  -17.7677  -18.5029 N   0  0  0  0  0  0  0  0  0  0  0  0
   26.0683  -18.8173  -12.8922 C   0  0  0  0  0  0  0  0  0  0  0  0
   25.2506  -17.9666  -12.4834 O   0  0  0  0  0  0  0  0  0  0  0  0
   25.4516  -22.4729  -11.0082 C   0  0  0  0  0  0  0  0  0  0  0  0
   24.8016  -21.1538  -10.6842 C   0  0  2  0  0  0  0  0  0  0  0  0
   23.6207  -20.8619  -11.5728 C   0  0  0  0  0  0  0  0  0  0  0  0
   25.8147  -20.0159  -10.7121 C   0  0  2  0  0  0  0  0  0  0  0  0
   26.4132  -19.8849  -12.0260 N   0  0  0  0  0  0  0  0  0  0  0  0
   26.8558  -20.2748   -9.6854 C   0  0  0  0  0  0  0  0  0  0  0  0
   27.8511  -20.9647  -10.0147 O   0  0  0  0  0  0  0  0  0  0  0  0
   28.5062  -18.0438   -4.4448 C   0  0  0  0  0  0  0  0  0  0  0  0
   28.7052  -19.3805   -5.1794 C   0  0  2  0  0  0  0  0  0  0  0  0
   30.1296  -19.7772   -4.9793 C   0  0  0  0  0  0  0  0  0  0  0  0
   28.3271  -19.1433   -6.5967 C   0  0  0  0  0  0  0  0  0  0  0  0
   27.6467  -20.2760   -7.2919 C   0  0  2  0  0  0  0  0  0  0  0  0
   26.7814  -19.7861   -8.3660 N   0  0  0  0  0  0  0  0  0  0  0  0
   26.8003  -21.0416   -6.3530 C   0  0  0  0  0  0  0  0  0  0  0  0
   25.5410  -20.8986   -6.3886 O   0  0  0  0  0  0  0  0  0  0  0  0
   27.3062  -21.9374   -5.4030 O   0  0  0  0  0  0  0  0  0  0  0  0
  2  1  1  6
  3  2  1  0
  4  3  1  0
  5  6  1  0
  5  4  1  0
  6  7  1  0
  8  2  1  0
  8  9  2  0
 11 13  1  0
 11 10  1  6
 12 11  1  0
 13 14  1  6
 14  8  1  0
 15 13  1  0
 16 15  2  0
 18 17  1  1
 18 20  1  0
 19 18  1  0
 21 20  1  1
 21 23  1  0
 21 22  1  0
 22 15  1  0
 23 25  1  0
 24 23  2  0
M  END
$$$$
