KVL.pdb
     RDKit          3D

 25 24  0  0  1  0  0  0  0  0999 V2000
   27.2700  -21.4465  -17.2960 N   0  0  0  0  0  0  0  0  0  0  0  0
   27.8431  -21.5991  -15.9970 C   0  0  1  0  0  0  0  0  0  0  0  0
   29.3114  -21.3233  -15.9070 C   0  0  0  0  0  0  0  0  0  0  0  0
   30.1906  -22.3100  -16.5952 C   0  0  0  0  0  0  0  0  0  0  0  0
   30.2042  -23.6860  -16.0065 C   0  0  0  0  0  0  0  0  0  0  0  0
   31.0849  -24.6318  -16.7986 C   0  0  0  0  0  0  0  0  0  0  0  0
   31.1645  -25.8768  -16.0637 N   0  0  0  0  0  0  0  0  0  0  0  0
   27.1020  -20.8519  -14.9503 C   0  0  0  0  0  0  0  0  0  0  0  0
   27.1421  -19.6044  -14.9889 O   0  0  0  0  0  0  0  0  0  0  0  0
   23.3248  -19.7544  -12.4330 C   0  0  0  0  0  0  0  0  0  0  0  0
   24.1181  -20.6207  -13.3752 C   0  0  2  0  0  0  0  0  0  0  0  0
   23.5299  -21.9998  -13.5201 C   0  0  0  0  0  0  0  0  0  0  0  0
   25.5856  -20.6806  -12.9691 C   0  0  2  0  0  0  0  0  0  0  0  0
   26.3547  -21.4660  -13.9142 N   0  0  0  0  0  0  0  0  0  0  0  0
   25.6830  -21.2591  -11.6051 C   0  0  0  0  0  0  0  0  0  0  0  0
   25.5396  -22.4995  -11.4781 O   0  0  0  0  0  0  0  0  0  0  0  0
   28.6316  -21.0854   -8.1001 C   0  0  0  0  0  0  0  0  0  0  0  0
   27.8476  -19.7784   -8.3074 C   0  0  2  0  0  0  0  0  0  0  0  0
   28.4006  -18.7836   -7.3424 C   0  0  0  0  0  0  0  0  0  0  0  0
   26.4143  -20.1081   -8.0955 C   0  0  0  0  0  0  0  0  0  0  0  0
   25.7983  -21.0278   -9.0976 C   0  0  2  0  0  0  0  0  0  0  0  0
   25.9274  -20.4875  -10.4517 N   0  0  0  0  0  0  0  0  0  0  0  0
   24.3572  -21.2148   -8.8288 C   0  0  0  0  0  0  0  0  0  0  0  0
   23.9914  -21.9966   -7.8999 O   0  0  0  0  0  0  0  0  0  0  0  0
   23.3420  -20.5711   -9.5469 O   0  0  0  0  0  0  0  0  0  0  0  0
  2  1  1  6
  3  2  1  0
  4  3  1  0
  5  6  1  0
  5  4  1  0
  6  7  1  0
  8  2  1  0
  8  9  2  0
 11 13  1  0
 11 10  1  1
 12 11  1  0
 13 14  1  6
 14  8  1  0
 15 13  1  0
 16 15  2  0
 18 17  1  1
 18 20  1  0
 19 18  1  0
 21 20  1  1
 21 23  1  0
 21 22  1  0
 22 15  1  0
 23 25  1  0
 24 23  2  0
M  END
$$$$
