KVL.pdb
     RDKit          3D

 25 24  0  0  1  0  0  0  0  0999 V2000
   28.9124  -24.1205  -17.8263 N   0  0  0  0  0  0  0  0  0  0  0  0
   27.6715  -24.1902  -17.1230 C   0  0  1  0  0  0  0  0  0  0  0  0
   27.4554  -25.4379  -16.3251 C   0  0  0  0  0  0  0  0  0  0  0  0
   26.7876  -26.5540  -17.0521 C   0  0  0  0  0  0  0  0  0  0  0  0
   25.4547  -26.2307  -17.6509 C   0  0  0  0  0  0  0  0  0  0  0  0
   24.8526  -27.4223  -18.3687 C   0  0  0  0  0  0  0  0  0  0  0  0
   23.8968  -28.0380  -17.4721 N   0  0  0  0  0  0  0  0  0  0  0  0
   27.4105  -22.9850  -16.2968 C   0  0  0  0  0  0  0  0  0  0  0  0
   28.3261  -22.5851  -15.5476 O   0  0  0  0  0  0  0  0  0  0  0  0
   24.3254  -20.2085  -17.1457 C   0  0  0  0  0  0  0  0  0  0  0  0
   25.5836  -19.8903  -16.3820 C   0  0  2  0  0  0  0  0  0  0  0  0
   26.7012  -19.4322  -17.2821 C   0  0  0  0  0  0  0  0  0  0  0  0
   26.0147  -21.0644  -15.5116 C   0  0  2  0  0  0  0  0  0  0  0  0
   26.1903  -22.2638  -16.3066 N   0  0  0  0  0  0  0  0  0  0  0  0
   24.9928  -21.2802  -14.4562 C   0  0  0  0  0  0  0  0  0  0  0  0
   24.0683  -22.0969  -14.6876 O   0  0  0  0  0  0  0  0  0  0  0  0
   25.5784  -22.1765  -10.1197 C   0  0  0  0  0  0  0  0  0  0  0  0
   25.6977  -20.6630  -10.3664 C   0  0  2  0  0  0  0  0  0  0  0  0
   26.0835  -20.0410   -9.0661 C   0  0  0  0  0  0  0  0  0  0  0  0
   24.3823  -20.2166  -10.8942 C   0  0  0  0  0  0  0  0  0  0  0  0
   23.9678  -20.8038  -12.2029 C   0  0  2  0  0  0  0  0  0  0  0  0
   25.0100  -20.6163  -13.2135 N   0  0  0  0  0  0  0  0  0  0  0  0
   22.7379  -20.1579  -12.7071 C   0  0  0  0  0  0  0  0  0  0  0  0
   22.8296  -19.1869  -13.5174 O   0  0  0  0  0  0  0  0  0  0  0  0
   21.4454  -20.5549  -12.3429 O   0  0  0  0  0  0  0  0  0  0  0  0
  2  1  1  1
  3  2  1  0
  4  3  1  0
  5  6  1  0
  5  4  1  0
  6  7  1  0
  8  2  1  0
  8  9  2  0
 11 13  1  0
 11 10  1  6
 12 11  1  0
 13 14  1  6
 14  8  1  0
 15 13  1  0
 16 15  2  0
 18 17  1  1
 18 20  1  0
 19 18  1  0
 21 20  1  1
 21 23  1  0
 21 22  1  0
 22 15  1  0
 23 25  1  0
 24 23  2  0
M  END
$$$$
