KVL.pdb
     RDKit          3D

 25 24  0  0  1  0  0  0  0  0999 V2000
   16.4994  -24.3165  -12.6827 N   0  0  0  0  0  0  0  0  0  0  0  0
   17.8405  -24.1165  -13.1307 C   0  0  1  0  0  0  0  0  0  0  0  0
   18.3704  -25.1648  -14.0583 C   0  0  0  0  0  0  0  0  0  0  0  0
   18.4055  -26.5483  -13.5063 C   0  0  0  0  0  0  0  0  0  0  0  0
   19.3167  -26.7560  -12.3374 C   0  0  0  0  0  0  0  0  0  0  0  0
   19.2951  -28.1914  -11.8508 C   0  0  0  0  0  0  0  0  0  0  0  0
   20.1495  -28.2726  -10.6846 N   0  0  0  0  0  0  0  0  0  0  0  0
   18.0640  -22.7589  -13.6877 C   0  0  0  0  0  0  0  0  0  0  0  0
   17.0969  -22.1894  -14.2352 O   0  0  0  0  0  0  0  0  0  0  0  0
   21.7865  -20.5354  -13.3188 C   0  0  0  0  0  0  0  0  0  0  0  0
   20.4207  -19.9053  -13.3898 C   0  0  2  0  0  0  0  0  0  0  0  0
   19.8553  -19.6050  -12.0263 C   0  0  0  0  0  0  0  0  0  0  0  0
   19.4620  -20.7538  -14.2162 C   0  0  2  0  0  0  0  0  0  0  0  0
   19.3033  -22.0729  -13.6360 N   0  0  0  0  0  0  0  0  0  0  0  0
   19.9809  -20.8507  -15.6041 C   0  0  0  0  0  0  0  0  0  0  0  0
   20.9966  -21.5595  -15.8065 O   0  0  0  0  0  0  0  0  0  0  0  0
   17.9379  -20.3188  -21.3198 C   0  0  0  0  0  0  0  0  0  0  0  0
   19.1842  -20.6091  -20.4665 C   0  0  2  0  0  0  0  0  0  0  0  0
   19.6004  -22.0097  -20.7696 C   0  0  0  0  0  0  0  0  0  0  0  0
   18.7905  -20.3780  -19.0524 C   0  0  0  0  0  0  0  0  0  0  0  0
   19.9076  -20.3065  -18.0643 C   0  0  2  0  0  0  0  0  0  0  0  0
   19.3916  -20.1890  -16.6996 N   0  0  0  0  0  0  0  0  0  0  0  0
   20.7646  -19.1297  -18.3187 C   0  0  0  0  0  0  0  0  0  0  0  0
   21.6330  -19.1774  -19.2414 O   0  0  0  0  0  0  0  0  0  0  0  0
   20.6810  -17.9351  -17.5931 O   0  0  0  0  0  0  0  0  0  0  0  0
  2  1  1  6
  3  2  1  0
  4  3  1  0
  5  6  1  0
  5  4  1  0
  6  7  1  0
  8  2  1  0
  8  9  2  0
 11 13  1  0
 11 10  1  1
 12 11  1  0
 13 14  1  1
 14  8  1  0
 15 13  1  0
 16 15  2  0
 18 17  1  6
 18 20  1  0
 19 18  1  0
 21 20  1  6
 21 23  1  0
 21 22  1  0
 22 15  1  0
 23 25  1  0
 24 23  2  0
M  END
$$$$
