KVL.pdb
     RDKit          3D

 25 24  0  0  1  0  0  0  0  0999 V2000
   22.6022  -21.1420  -17.1551 N   0  0  0  0  0  0  0  0  0  0  0  0
   23.1315  -20.1330  -16.2943 C   0  0  1  0  0  0  0  0  0  0  0  0
   22.1173  -19.2306  -15.6639 C   0  0  0  0  0  0  0  0  0  0  0  0
   21.4439  -18.2789  -16.5918 C   0  0  0  0  0  0  0  0  0  0  0  0
   22.0466  -16.9110  -16.6659 C   0  0  0  0  0  0  0  0  0  0  0  0
   21.0200  -15.8255  -16.4104 C   0  0  0  0  0  0  0  0  0  0  0  0
   20.9348  -15.0119  -17.6052 N   0  0  0  0  0  0  0  0  0  0  0  0
   24.0590  -20.6781  -15.2718 C   0  0  0  0  0  0  0  0  0  0  0  0
   23.6543  -21.6266  -14.5674 O   0  0  0  0  0  0  0  0  0  0  0  0
   28.5382  -20.9284  -13.1166 C   0  0  0  0  0  0  0  0  0  0  0  0
   27.6688  -20.3810  -14.2176 C   0  0  2  0  0  0  0  0  0  0  0  0
   27.8706  -18.9030  -14.4274 C   0  0  0  0  0  0  0  0  0  0  0  0
   26.2010  -20.7151  -13.9817 C   0  0  2  0  0  0  0  0  0  0  0  0
   25.3705  -20.1895  -15.0474 N   0  0  0  0  0  0  0  0  0  0  0  0
   25.7862  -20.1562  -12.6700 C   0  0  0  0  0  0  0  0  0  0  0  0
   25.6150  -18.9158  -12.5842 O   0  0  0  0  0  0  0  0  0  0  0  0
   22.5140  -19.2910  -10.5541 C   0  0  0  0  0  0  0  0  0  0  0  0
   22.8320  -20.7937  -10.4719 C   0  0  2  0  0  0  0  0  0  0  0  0
   21.6203  -21.4633   -9.9153 C   0  0  0  0  0  0  0  0  0  0  0  0
   24.0474  -20.9220   -9.6266 C   0  0  0  0  0  0  0  0  0  0  0  0
   25.3086  -20.3695  -10.2041 C   0  0  2  0  0  0  0  0  0  0  0  0
   25.5765  -20.9463  -11.5224 N   0  0  0  0  0  0  0  0  0  0  0  0
   26.4665  -20.6789   -9.3395 C   0  0  0  0  0  0  0  0  0  0  0  0
   26.5477  -20.1482   -8.1908 O   0  0  0  0  0  0  0  0  0  0  0  0
   27.5062  -21.5403   -9.7106 O   0  0  0  0  0  0  0  0  0  0  0  0
  2  1  1  1
  3  2  1  0
  4  3  1  0
  5  6  1  0
  5  4  1  0
  6  7  1  0
  8  2  1  0
  8  9  2  0
 11 13  1  0
 11 10  1  1
 12 11  1  0
 13 14  1  6
 14  8  1  0
 15 13  1  0
 16 15  2  0
 18 17  1  1
 18 20  1  0
 19 18  1  0
 21 20  1  1
 21 23  1  0
 21 22  1  0
 22 15  1  0
 23 25  1  0
 24 23  2  0
M  END
$$$$
