NFR.pdb
     RDKit          3D

 31 31  0  0  1  0  0  0  0  0999 V2000
   20.6469  -23.2146   -6.7080 N   0  0  0  0  0  0  0  0  0  0  0  0
   20.5204  -22.7293   -8.0373 C   0  0  0  0  0  0  0  0  0  0  0  0
   19.5327  -23.0886   -8.7121 O   0  0  0  0  0  0  0  0  0  0  0  0
   21.5683  -21.8192   -8.5590 C   0  0  0  0  0  0  0  0  0  0  0  0
   22.6869  -21.6533   -7.5676 C   0  0  2  0  0  0  0  0  0  0  0  0
   22.2404  -21.0053   -6.3714 N   0  0  0  0  0  0  0  0  0  0  0  0
   23.8274  -20.9588   -8.2010 C   0  0  0  0  0  0  0  0  0  0  0  0
   23.5900  -19.8837   -8.8084 O   0  0  0  0  0  0  0  0  0  0  0  0
   25.1605  -21.4556   -8.1485 N   0  0  0  0  0  0  0  0  0  0  0  0
   26.2180  -20.7384   -8.8263 C   0  0  1  0  0  0  0  0  0  0  0  0
   27.5220  -20.9113   -8.0952 C   0  0  0  0  0  0  0  0  0  0  0  0
   27.5651  -20.1916   -6.8098 C   0  0  0  0  0  0  0  0  0  0  0  0
   27.3233  -18.8397   -6.7469 C   0  0  0  0  0  0  0  0  0  0  0  0
   27.3604  -18.1427   -5.5400 C   0  0  0  0  0  0  0  0  0  0  0  0
   27.6423  -18.8093   -4.3901 C   0  0  0  0  0  0  0  0  0  0  0  0
   27.8886  -20.1569   -4.4149 C   0  0  0  0  0  0  0  0  0  0  0  0
   27.8487  -20.8484   -5.6349 C   0  0  0  0  0  0  0  0  0  0  0  0
   26.2979  -21.1969  -10.2387 C   0  0  0  0  0  0  0  0  0  0  0  0
   26.3145  -22.4170  -10.5524 O   0  0  0  0  0  0  0  0  0  0  0  0
   26.0614  -23.6884  -16.1968 N   0  0  0  0  0  0  0  0  0  0  0  0
   25.1369  -24.6436  -15.7015 C   0  0  0  0  0  0  0  0  0  0  0  0
   24.6697  -25.4975  -16.5558 N   0  0  0  0  0  0  0  0  0  0  0  0
   24.7580  -24.6422  -14.3322 N   0  0  0  0  0  0  0  0  0  0  0  0
   25.2037  -23.5484  -13.5034 C   0  0  0  0  0  0  0  0  0  0  0  0
   24.5177  -22.2590  -13.7228 C   0  0  0  0  0  0  0  0  0  0  0  0
   24.8450  -21.0593  -12.9627 C   0  0  0  0  0  0  0  0  0  0  0  0
   26.2640  -20.7171  -12.7395 C   0  0  2  0  0  0  0  0  0  0  0  0
   26.3582  -20.2608  -11.2831 N   0  0  0  0  0  0  0  0  0  0  0  0
   26.6676  -19.4912  -13.4389 C   0  0  0  0  0  0  0  0  0  0  0  0
   27.4631  -19.4419  -14.5348 O   0  0  0  0  0  0  0  0  0  0  0  0
   26.2572  -18.3608  -12.9993 O   0  0  0  0  0  0  0  0  0  0  0  0
  2  1  1  0
  2  3  2  0
  4  5  1  0
  4  2  1  0
  5  6  1  1
  7  8  2  0
  7  5  1  0
  9  7  1  0
 10  9  1  0
 10 11  1  1
 11 12  1  0
 12 13  2  0
 12 17  1  0
 13 14  1  0
 14 15  2  0
 16 15  1  0
 17 16  2  0
 18 28  1  0
 18 10  1  0
 19 18  2  0
 20 21  1  0
 21 23  1  0
 22 21  2  0
 23 24  1  0
 25 24  1  0
 25 26  1  0
 27 26  1  6
 27 28  1  0
 27 29  1  0
 29 30  1  0
 31 29  2  0
M  END
$$$$
