NFR.pdb
     RDKit          3D

 31 31  0  0  1  0  0  0  0  0999 V2000
   29.2560  -21.3583  -19.0435 N   0  0  0  0  0  0  0  0  0  0  0  0
   28.0540  -22.1021  -19.1869 C   0  0  0  0  0  0  0  0  0  0  0  0
   27.5908  -22.2718  -20.3343 O   0  0  0  0  0  0  0  0  0  0  0  0
   27.4077  -22.6409  -17.9660 C   0  0  0  0  0  0  0  0  0  0  0  0
   28.2330  -22.3536  -16.7422 C   0  0  2  0  0  0  0  0  0  0  0  0
   29.3163  -23.2799  -16.6065 N   0  0  0  0  0  0  0  0  0  0  0  0
   27.3671  -22.3092  -15.5452 C   0  0  0  0  0  0  0  0  0  0  0  0
   27.0727  -23.4027  -14.9985 O   0  0  0  0  0  0  0  0  0  0  0  0
   26.8640  -21.0941  -15.0001 N   0  0  0  0  0  0  0  0  0  0  0  0
   26.0940  -21.1245  -13.7760 C   0  0  1  0  0  0  0  0  0  0  0  0
   26.6077  -20.0940  -12.8069 C   0  0  0  0  0  0  0  0  0  0  0  0
   27.8597  -20.4975  -12.1422 C   0  0  0  0  0  0  0  0  0  0  0  0
   27.8414  -21.2908  -11.0196 C   0  0  0  0  0  0  0  0  0  0  0  0
   29.0157  -21.6815  -10.3777 C   0  0  0  0  0  0  0  0  0  0  0  0
   30.2149  -21.2721  -10.8677 C   0  0  0  0  0  0  0  0  0  0  0  0
   30.2715  -20.4808  -11.9848 C   0  0  0  0  0  0  0  0  0  0  0  0
   29.0836  -20.0934  -12.6229 C   0  0  0  0  0  0  0  0  0  0  0  0
   24.6543  -20.9315  -14.0944 C   0  0  0  0  0  0  0  0  0  0  0  0
   24.2588  -20.1011  -14.9555 O   0  0  0  0  0  0  0  0  0  0  0  0
   17.6854  -23.0191  -11.3044 N   0  0  0  0  0  0  0  0  0  0  0  0
   17.1616  -23.6419  -12.4663 C   0  0  0  0  0  0  0  0  0  0  0  0
   15.8766  -23.5957  -12.6212 N   0  0  0  0  0  0  0  0  0  0  0  0
   18.0246  -24.2785  -13.3983 N   0  0  0  0  0  0  0  0  0  0  0  0
   19.4441  -24.2504  -13.1411 C   0  0  0  0  0  0  0  0  0  0  0  0
   20.1425  -23.0126  -13.5430 C   0  0  0  0  0  0  0  0  0  0  0  0
   21.5905  -22.8692  -13.4608 C   0  0  0  0  0  0  0  0  0  0  0  0
   22.2053  -21.5794  -13.8334 C   0  0  2  0  0  0  0  0  0  0  0  0
   23.6760  -21.6867  -13.4286 N   0  0  0  0  0  0  0  0  0  0  0  0
   21.7637  -20.4729  -12.9758 C   0  0  0  0  0  0  0  0  0  0  0  0
   20.7031  -19.6667  -13.2236 O   0  0  0  0  0  0  0  0  0  0  0  0
   22.4156  -20.2189  -11.9034 O   0  0  0  0  0  0  0  0  0  0  0  0
  2  1  1  0
  2  3  2  0
  4  5  1  0
  4  2  1  0
  5  6  1  1
  7  8  2  0
  7  5  1  0
  9  7  1  0
 10  9  1  0
 10 11  1  1
 11 12  1  0
 12 13  2  0
 12 17  1  0
 13 14  1  0
 14 15  2  0
 16 15  1  0
 17 16  2  0
 18 28  1  0
 18 10  1  0
 19 18  2  0
 20 21  1  0
 21 23  1  0
 22 21  2  0
 23 24  1  0
 25 24  1  0
 25 26  1  0
 27 26  1  1
 27 28  1  0
 27 29  1  0
 29 30  1  0
 31 29  2  0
M  END
$$$$
