NFR.pdb
     RDKit          3D

 31 31  0  0  1  0  0  0  0  0999 V2000
   29.0732  -19.3728  -17.4254 N   0  0  0  0  0  0  0  0  0  0  0  0
   27.6611  -19.4969  -17.3300 C   0  0  0  0  0  0  0  0  0  0  0  0
   26.9727  -19.2772  -18.3488 O   0  0  0  0  0  0  0  0  0  0  0  0
   27.0731  -19.8816  -16.0243 C   0  0  0  0  0  0  0  0  0  0  0  0
   27.7473  -21.1032  -15.4634 C   0  0  2  0  0  0  0  0  0  0  0  0
   27.5404  -22.2496  -16.2958 N   0  0  0  0  0  0  0  0  0  0  0  0
   27.3144  -21.3259  -14.0678 C   0  0  0  0  0  0  0  0  0  0  0  0
   26.3044  -22.0512  -13.8801 O   0  0  0  0  0  0  0  0  0  0  0  0
   27.9884  -20.7583  -12.9497 N   0  0  0  0  0  0  0  0  0  0  0  0
   27.4117  -20.8820  -11.6290 C   0  0  1  0  0  0  0  0  0  0  0  0
   28.3529  -20.3320  -10.5915 C   0  0  0  0  0  0  0  0  0  0  0  0
   27.7559  -20.2643   -9.2457 C   0  0  0  0  0  0  0  0  0  0  0  0
   27.7952  -21.3464   -8.3986 C   0  0  0  0  0  0  0  0  0  0  0  0
   27.2353  -21.3004   -7.1226 C   0  0  0  0  0  0  0  0  0  0  0  0
   26.6327  -20.1598   -6.6964 C   0  0  0  0  0  0  0  0  0  0  0  0
   26.5748  -19.0616   -7.5137 C   0  0  0  0  0  0  0  0  0  0  0  0
   27.1414  -19.1188   -8.7958 C   0  0  0  0  0  0  0  0  0  0  0  0
   26.0873  -20.2062  -11.6043 C   0  0  0  0  0  0  0  0  0  0  0  0
   25.9314  -19.0125  -11.9760 O   0  0  0  0  0  0  0  0  0  0  0  0
   19.7610  -20.6130  -15.5439 N   0  0  0  0  0  0  0  0  0  0  0  0
   19.6292  -19.2498  -15.1743 C   0  0  0  0  0  0  0  0  0  0  0  0
   18.5022  -18.6775  -15.4563 N   0  0  0  0  0  0  0  0  0  0  0  0
   20.6955  -18.5684  -14.5282 N   0  0  0  0  0  0  0  0  0  0  0  0
   21.8706  -19.3257  -14.1713 C   0  0  0  0  0  0  0  0  0  0  0  0
   21.7448  -20.1720  -12.9674 C   0  0  0  0  0  0  0  0  0  0  0  0
   22.8836  -20.8587  -12.3711 C   0  0  0  0  0  0  0  0  0  0  0  0
   23.5702  -20.2407  -11.2190 C   0  0  2  0  0  0  0  0  0  0  0  0
   24.9501  -20.8965  -11.1558 N   0  0  0  0  0  0  0  0  0  0  0  0
   23.0059  -20.6620   -9.9310 C   0  0  0  0  0  0  0  0  0  0  0  0
   21.8688  -20.1742   -9.3783 O   0  0  0  0  0  0  0  0  0  0  0  0
   23.6165  -21.5558   -9.2471 O   0  0  0  0  0  0  0  0  0  0  0  0
  2  1  1  0
  2  3  2  0
  4  5  1  0
  4  2  1  0
  5  6  1  6
  7  8  2  0
  7  5  1  0
  9  7  1  0
 10  9  1  0
 10 11  1  1
 11 12  1  0
 12 13  2  0
 12 17  1  0
 13 14  1  0
 14 15  2  0
 16 15  1  0
 17 16  2  0
 18 28  1  0
 18 10  1  0
 19 18  2  0
 20 21  1  0
 21 23  1  0
 22 21  2  0
 23 24  1  0
 25 24  1  0
 25 26  1  0
 27 26  1  6
 27 28  1  0
 27 29  1  0
 29 30  1  0
 31 29  2  0
M  END
$$$$
