NFR.pdb
     RDKit          3D

 31 31  0  0  1  0  0  0  0  0999 V2000
   11.5809  -16.0901    8.6285 N   0  0  0  0  0  0  0  0  0  0  0  0
   12.8009  -15.6788    8.0278 C   0  0  0  0  0  0  0  0  0  0  0  0
   13.8472  -15.7283    8.7081 O   0  0  0  0  0  0  0  0  0  0  0  0
   12.7722  -15.2105    6.6212 C   0  0  0  0  0  0  0  0  0  0  0  0
   14.0271  -14.4583    6.2732 C   0  0  2  0  0  0  0  0  0  0  0  0
   13.7495  -13.0936    5.9404 N   0  0  0  0  0  0  0  0  0  0  0  0
   14.7640  -15.1672    5.2060 C   0  0  0  0  0  0  0  0  0  0  0  0
   14.3529  -15.0315    4.0254 O   0  0  0  0  0  0  0  0  0  0  0  0
   15.9019  -15.9832    5.4636 N   0  0  0  0  0  0  0  0  0  0  0  0
   16.5831  -16.6281    4.3626 C   0  0  1  0  0  0  0  0  0  0  0  0
   18.0629  -16.3636    4.4336 C   0  0  0  0  0  0  0  0  0  0  0  0
   18.4292  -15.0021    4.0043 C   0  0  0  0  0  0  0  0  0  0  0  0
   18.5647  -14.6925    2.6717 C   0  0  0  0  0  0  0  0  0  0  0  0
   18.9110  -13.4102    2.2476 C   0  0  0  0  0  0  0  0  0  0  0  0
   19.1221  -12.4343    3.1690 C   0  0  0  0  0  0  0  0  0  0  0  0
   18.9959  -12.7067    4.5059 C   0  0  0  0  0  0  0  0  0  0  0  0
   18.6470  -14.0005    4.9215 C   0  0  0  0  0  0  0  0  0  0  0  0
   16.2685  -18.0814    4.3717 C   0  0  0  0  0  0  0  0  0  0  0  0
   16.1954  -18.7496    5.4374 O   0  0  0  0  0  0  0  0  0  0  0  0
   14.6672  -22.9146   -2.7191 N   0  0  0  0  0  0  0  0  0  0  0  0
   13.7409  -23.4337   -1.7784 C   0  0  0  0  0  0  0  0  0  0  0  0
   12.7864  -24.1716   -2.2492 N   0  0  0  0  0  0  0  0  0  0  0  0
   13.8751  -23.1435   -0.3941 N   0  0  0  0  0  0  0  0  0  0  0  0
   15.0682  -22.4617    0.0462 C   0  0  0  0  0  0  0  0  0  0  0  0
   15.0499  -21.9771    1.4412 C   0  0  0  0  0  0  0  0  0  0  0  0
   15.3127  -20.5867    1.7901 C   0  0  0  0  0  0  0  0  0  0  0  0
   15.7335  -20.2606    3.1675 C   0  0  2  0  0  0  0  0  0  0  0  0
   16.0396  -18.7625    3.1657 N   0  0  0  0  0  0  0  0  0  0  0  0
   17.0528  -20.8108    3.5017 C   0  0  0  0  0  0  0  0  0  0  0  0
   18.2408  -20.2613    3.1513 O   0  0  0  0  0  0  0  0  0  0  0  0
   17.1208  -21.8999    4.1717 O   0  0  0  0  0  0  0  0  0  0  0  0
  2  1  1  0
  2  3  2  0
  4  5  1  0
  4  2  1  0
  5  6  1  6
  7  8  2  0
  7  5  1  0
  9  7  1  0
 10  9  1  0
 10 11  1  1
 11 12  1  0
 12 13  2  0
 12 17  1  0
 13 14  1  0
 14 15  2  0
 16 15  1  0
 17 16  2  0
 18 28  1  0
 18 10  1  0
 19 18  2  0
 20 21  1  0
 21 23  1  0
 22 21  2  0
 23 24  1  0
 25 24  1  0
 25 26  1  0
 27 26  1  6
 27 28  1  0
 27 29  1  0
 29 30  1  0
 31 29  2  0
M  END
$$$$
