NFR.pdb
     RDKit          3D

 31 31  0  0  1  0  0  0  0  0999 V2000
   29.2637  -21.7096  -19.7341 N   0  0  0  0  0  0  0  0  0  0  0  0
   29.5507  -22.8303  -18.9094 C   0  0  0  0  0  0  0  0  0  0  0  0
   30.3634  -23.6834  -19.3238 O   0  0  0  0  0  0  0  0  0  0  0  0
   28.8705  -22.9325  -17.5958 C   0  0  0  0  0  0  0  0  0  0  0  0
   27.9657  -21.7547  -17.3592 C   0  0  2  0  0  0  0  0  0  0  0  0
   28.6753  -20.5152  -17.4592 N   0  0  0  0  0  0  0  0  0  0  0  0
   27.2620  -21.9068  -16.0684 C   0  0  0  0  0  0  0  0  0  0  0  0
   26.6040  -22.9625  -15.8847 O   0  0  0  0  0  0  0  0  0  0  0  0
   27.3025  -20.9180  -15.0450 N   0  0  0  0  0  0  0  0  0  0  0  0
   26.5605  -21.1253  -13.8208 C   0  0  1  0  0  0  0  0  0  0  0  0
   27.1929  -20.3626  -12.6881 C   0  0  0  0  0  0  0  0  0  0  0  0
   26.4370  -20.4660  -11.4270 C   0  0  0  0  0  0  0  0  0  0  0  0
   26.5962  -21.5472  -10.5929 C   0  0  0  0  0  0  0  0  0  0  0  0
   25.8893  -21.6617   -9.3967 C   0  0  0  0  0  0  0  0  0  0  0  0
   25.0175  -20.6834   -9.0377 C   0  0  0  0  0  0  0  0  0  0  0  0
   24.8334  -19.5913   -9.8444 C   0  0  0  0  0  0  0  0  0  0  0  0
   25.5499  -19.4863  -11.0460 C   0  0  0  0  0  0  0  0  0  0  0  0
   25.1396  -20.7425  -14.0349 C   0  0  0  0  0  0  0  0  0  0  0  0
   24.8079  -19.6579  -14.5835 O   0  0  0  0  0  0  0  0  0  0  0  0
   18.0446  -23.1517  -12.4614 N   0  0  0  0  0  0  0  0  0  0  0  0
   17.4827  -23.1609  -13.7639 C   0  0  0  0  0  0  0  0  0  0  0  0
   16.2093  -22.9407  -13.8491 N   0  0  0  0  0  0  0  0  0  0  0  0
   18.2976  -23.4027  -14.9024 N   0  0  0  0  0  0  0  0  0  0  0  0
   19.7093  -23.6185  -14.6959 C   0  0  0  0  0  0  0  0  0  0  0  0
   20.4873  -22.4271  -14.3004 C   0  0  0  0  0  0  0  0  0  0  0  0
   21.9433  -22.4289  -14.2371 C   0  0  0  0  0  0  0  0  0  0  0  0
   22.6439  -21.1994  -13.8152 C   0  0  2  0  0  0  0  0  0  0  0  0
   24.1071  -21.5993  -13.6219 N   0  0  0  0  0  0  0  0  0  0  0  0
   22.2893  -20.7850  -12.4524 C   0  0  0  0  0  0  0  0  0  0  0  0
   21.5786  -19.6766  -12.1320 O   0  0  0  0  0  0  0  0  0  0  0  0
   22.6730  -21.5033  -11.4643 O   0  0  0  0  0  0  0  0  0  0  0  0
  2  1  1  0
  2  3  2  0
  4  5  1  0
  4  2  1  0
  5  6  1  1
  7  8  2  0
  7  5  1  0
  9  7  1  0
 10  9  1  0
 10 11  1  1
 11 12  1  0
 12 13  2  0
 12 17  1  0
 13 14  1  0
 14 15  2  0
 16 15  1  0
 17 16  2  0
 18 28  1  0
 18 10  1  0
 19 18  2  0
 20 21  1  0
 21 23  1  0
 22 21  2  0
 23 24  1  0
 25 24  1  0
 25 26  1  0
 27 26  1  1
 27 28  1  0
 27 29  1  0
 29 30  1  0
 31 29  2  0
M  END
$$$$
