NFR.pdb
     RDKit          3D

 31 31  0  0  1  0  0  0  0  0999 V2000
   25.0397  -33.1295  -16.2529 N   0  0  0  0  0  0  0  0  0  0  0  0
   24.3308  -34.2094  -15.6613 C   0  0  0  0  0  0  0  0  0  0  0  0
   23.3745  -34.7104  -16.2893 O   0  0  0  0  0  0  0  0  0  0  0  0
   24.7615  -34.6890  -14.3261 C   0  0  0  0  0  0  0  0  0  0  0  0
   25.9022  -33.8656  -13.7946 C   0  0  2  0  0  0  0  0  0  0  0  0
   27.0932  -34.0527  -14.5669 N   0  0  0  0  0  0  0  0  0  0  0  0
   26.1040  -34.1461  -12.3576 C   0  0  0  0  0  0  0  0  0  0  0  0
   27.1912  -34.6772  -12.0151 O   0  0  0  0  0  0  0  0  0  0  0  0
   25.1286  -33.8418  -11.3663 N   0  0  0  0  0  0  0  0  0  0  0  0
   25.4510  -34.0202   -9.9676 C   0  0  1  0  0  0  0  0  0  0  0  0
   26.0739  -32.7694   -9.4087 C   0  0  0  0  0  0  0  0  0  0  0  0
   26.4085  -32.8786   -7.9776 C   0  0  0  0  0  0  0  0  0  0  0  0
   27.6368  -33.3436   -7.5713 C   0  0  0  0  0  0  0  0  0  0  0  0
   27.9702  -33.4540   -6.2220 C   0  0  0  0  0  0  0  0  0  0  0  0
   27.0632  -33.0947   -5.2764 C   0  0  0  0  0  0  0  0  0  0  0  0
   25.8291  -32.6270   -5.6446 C   0  0  0  0  0  0  0  0  0  0  0  0
   25.5040  -32.5200   -7.0052 C   0  0  0  0  0  0  0  0  0  0  0  0
   24.2253  -34.4199   -9.2264 C   0  0  0  0  0  0  0  0  0  0  0  0
   23.4021  -33.5775   -8.7790 O   0  0  0  0  0  0  0  0  0  0  0  0
   30.4101  -37.2501   -5.6749 N   0  0  0  0  0  0  0  0  0  0  0  0
   29.5285  -37.9780   -4.8350 C   0  0  0  0  0  0  0  0  0  0  0  0
   30.0426  -38.5023   -3.7682 N   0  0  0  0  0  0  0  0  0  0  0  0
   28.1542  -38.1111   -5.1699 N   0  0  0  0  0  0  0  0  0  0  0  0
   27.7019  -37.5576   -6.4233 C   0  0  0  0  0  0  0  0  0  0  0  0
   26.4710  -36.7442   -6.3562 C   0  0  0  0  0  0  0  0  0  0  0  0
   25.7959  -36.2467   -7.5481 C   0  0  0  0  0  0  0  0  0  0  0  0
   24.3377  -36.4392   -7.6789 C   0  0  2  0  0  0  0  0  0  0  0  0
   23.9471  -35.7772   -9.0008 N   0  0  0  0  0  0  0  0  0  0  0  0
   23.5716  -35.6259   -6.7267 C   0  0  0  0  0  0  0  0  0  0  0  0
   24.0553  -34.5624   -6.0404 O   0  0  0  0  0  0  0  0  0  0  0  0
   22.3471  -35.9232   -6.4992 O   0  0  0  0  0  0  0  0  0  0  0  0
  2  1  1  0
  2  3  2  0
  4  5  1  0
  4  2  1  0
  5  6  1  6
  7  8  2  0
  7  5  1  0
  9  7  1  0
 10  9  1  0
 10 11  1  1
 11 12  1  0
 12 13  2  0
 12 17  1  0
 13 14  1  0
 14 15  2  0
 16 15  1  0
 17 16  2  0
 18 28  1  0
 18 10  1  0
 19 18  2  0
 20 21  1  0
 21 23  1  0
 22 21  2  0
 23 24  1  0
 25 24  1  0
 25 26  1  0
 27 26  1  1
 27 28  1  0
 27 29  1  0
 29 30  1  0
 31 29  2  0
M  END
$$$$
