NFR.pdb
     RDKit          3D

 31 31  0  0  1  0  0  0  0  0999 V2000
   28.5749  -21.7447  -18.7921 N   0  0  0  0  0  0  0  0  0  0  0  0
   27.1677  -21.8717  -18.9418 C   0  0  0  0  0  0  0  0  0  0  0  0
   26.6745  -21.7377  -20.0814 O   0  0  0  0  0  0  0  0  0  0  0  0
   26.3528  -22.1573  -17.7364 C   0  0  0  0  0  0  0  0  0  0  0  0
   27.2089  -22.2078  -16.5010 C   0  0  2  0  0  0  0  0  0  0  0  0
   28.0097  -23.3941  -16.4617 N   0  0  0  0  0  0  0  0  0  0  0  0
   26.3696  -22.0458  -15.2952 C   0  0  0  0  0  0  0  0  0  0  0  0
   26.0071  -23.0888  -14.6936 O   0  0  0  0  0  0  0  0  0  0  0  0
   25.9649  -20.7737  -14.8007 N   0  0  0  0  0  0  0  0  0  0  0  0
   25.2289  -20.6908  -13.5582 C   0  0  1  0  0  0  0  0  0  0  0  0
   25.8334  -19.6468  -12.6586 C   0  0  0  0  0  0  0  0  0  0  0  0
   26.4980  -20.2179  -11.4736 C   0  0  0  0  0  0  0  0  0  0  0  0
   27.7798  -20.7092  -11.5488 C   0  0  0  0  0  0  0  0  0  0  0  0
   28.4237  -21.2533  -10.4383 C   0  0  0  0  0  0  0  0  0  0  0  0
   27.7747  -21.3035   -9.2458 C   0  0  0  0  0  0  0  0  0  0  0  0
   26.4964  -20.8232   -9.1336 C   0  0  0  0  0  0  0  0  0  0  0  0
   25.8579  -20.2778  -10.2575 C   0  0  0  0  0  0  0  0  0  0  0  0
   23.7960  -20.4221  -13.8512 C   0  0  0  0  0  0  0  0  0  0  0  0
   23.4283  -19.6922  -14.8101 O   0  0  0  0  0  0  0  0  0  0  0  0
   15.9666  -22.2488  -13.3777 N   0  0  0  0  0  0  0  0  0  0  0  0
   16.5480  -23.5421  -13.3362 C   0  0  0  0  0  0  0  0  0  0  0  0
   15.9697  -24.4621  -14.0409 N   0  0  0  0  0  0  0  0  0  0  0  0
   17.7067  -23.7903  -12.5524 N   0  0  0  0  0  0  0  0  0  0  0  0
   18.2908  -22.6852  -11.8315 C   0  0  0  0  0  0  0  0  0  0  0  0
   19.1140  -21.7603  -12.6365 C   0  0  0  0  0  0  0  0  0  0  0  0
   20.5698  -21.7482  -12.5693 C   0  0  0  0  0  0  0  0  0  0  0  0
   21.3167  -20.7683  -13.3834 C   0  0  2  0  0  0  0  0  0  0  0  0
   22.7925  -20.9876  -13.0486 N   0  0  0  0  0  0  0  0  0  0  0  0
   21.1312  -19.3881  -12.9194 C   0  0  0  0  0  0  0  0  0  0  0  0
   20.3216  -18.4699  -13.5005 O   0  0  0  0  0  0  0  0  0  0  0  0
   21.7769  -18.9863  -11.8893 O   0  0  0  0  0  0  0  0  0  0  0  0
  2  1  1  0
  2  3  2  0
  4  5  1  0
  4  2  1  0
  5  6  1  1
  7  8  2  0
  7  5  1  0
  9  7  1  0
 10  9  1  0
 10 11  1  1
 11 12  1  0
 12 13  2  0
 12 17  1  0
 13 14  1  0
 14 15  2  0
 16 15  1  0
 17 16  2  0
 18 28  1  0
 18 10  1  0
 19 18  2  0
 20 21  1  0
 21 23  1  0
 22 21  2  0
 23 24  1  0
 25 24  1  0
 25 26  1  0
 27 26  1  1
 27 28  1  0
 27 29  1  0
 29 30  1  0
 31 29  2  0
M  END
$$$$
