NFR.pdb
     RDKit          3D

 31 31  0  0  1  0  0  0  0  0999 V2000
   20.8744  -33.1307   -5.1441 N   0  0  0  0  0  0  0  0  0  0  0  0
   19.7128  -32.3188   -5.2444 C   0  0  0  0  0  0  0  0  0  0  0  0
   19.2401  -32.0912   -6.3779 O   0  0  0  0  0  0  0  0  0  0  0  0
   19.1180  -31.7807   -3.9973 C   0  0  0  0  0  0  0  0  0  0  0  0
   20.0000  -32.0575   -2.8111 C   0  0  2  0  0  0  0  0  0  0  0  0
   19.9234  -33.4283   -2.4046 N   0  0  0  0  0  0  0  0  0  0  0  0
   19.6842  -31.1187   -1.7141 C   0  0  0  0  0  0  0  0  0  0  0  0
   18.6856  -31.3779   -0.9951 O   0  0  0  0  0  0  0  0  0  0  0  0
   20.4569  -29.9530   -1.4482 N   0  0  0  0  0  0  0  0  0  0  0  0
   20.0957  -29.0926   -0.3430 C   0  0  1  0  0  0  0  0  0  0  0  0
   21.3172  -28.4126    0.2140 C   0  0  0  0  0  0  0  0  0  0  0  0
   21.0059  -27.4474    1.2834 C   0  0  0  0  0  0  0  0  0  0  0  0
   20.9343  -26.0997    1.0217 C   0  0  0  0  0  0  0  0  0  0  0  0
   20.6415  -25.1725    2.0210 C   0  0  0  0  0  0  0  0  0  0  0  0
   20.4195  -25.6034    3.2902 C   0  0  0  0  0  0  0  0  0  0  0  0
   20.4826  -26.9394    3.5877 C   0  0  0  0  0  0  0  0  0  0  0  0
   20.7780  -27.8637    2.5745 C   0  0  0  0  0  0  0  0  0  0  0  0
   19.0641  -28.1202   -0.7921 C   0  0  0  0  0  0  0  0  0  0  0  0
   19.1985  -27.4272   -1.8357 O   0  0  0  0  0  0  0  0  0  0  0  0
   13.7186  -25.3619   -5.3368 N   0  0  0  0  0  0  0  0  0  0  0  0
   13.1246  -24.8393   -4.1594 C   0  0  0  0  0  0  0  0  0  0  0  0
   12.4920  -23.7153   -4.2773 N   0  0  0  0  0  0  0  0  0  0  0  0
   13.2329  -25.5331   -2.9243 N   0  0  0  0  0  0  0  0  0  0  0  0
   14.4617  -26.2351   -2.6431 C   0  0  0  0  0  0  0  0  0  0  0  0
   14.4751  -27.0266   -1.3963 C   0  0  0  0  0  0  0  0  0  0  0  0
   15.6658  -27.7213   -0.9232 C   0  0  0  0  0  0  0  0  0  0  0  0
   16.8339  -26.9283   -0.4906 C   0  0  2  0  0  0  0  0  0  0  0  0
   17.8867  -27.9451   -0.0479 N   0  0  0  0  0  0  0  0  0  0  0  0
   16.5968  -26.2115    0.7683 C   0  0  0  0  0  0  0  0  0  0  0  0
   16.5781  -26.7780    1.9991 O   0  0  0  0  0  0  0  0  0  0  0  0
   16.3807  -24.9499    0.7344 O   0  0  0  0  0  0  0  0  0  0  0  0
  2  1  1  0
  2  3  2  0
  4  5  1  0
  4  2  1  0
  5  6  1  1
  7  8  2  0
  7  5  1  0
  9  7  1  0
 10  9  1  0
 10 11  1  6
 11 12  1  0
 12 13  2  0
 12 17  1  0
 13 14  1  0
 14 15  2  0
 16 15  1  0
 17 16  2  0
 18 28  1  0
 18 10  1  0
 19 18  2  0
 20 21  1  0
 21 23  1  0
 22 21  2  0
 23 24  1  0
 25 24  1  0
 25 26  1  0
 27 26  1  1
 27 28  1  0
 27 29  1  0
 29 30  1  0
 31 29  2  0
M  END
$$$$
