NFR.pdb
     RDKit          3D

 31 31  0  0  1  0  0  0  0  0999 V2000
   28.5057  -23.1020  -19.4838 N   0  0  0  0  0  0  0  0  0  0  0  0
   27.2181  -22.5081  -19.5730 C   0  0  0  0  0  0  0  0  0  0  0  0
   26.7885  -22.1814  -20.6994 O   0  0  0  0  0  0  0  0  0  0  0  0
   26.4466  -22.3048  -18.3232 C   0  0  0  0  0  0  0  0  0  0  0  0
   27.1966  -22.8296  -17.1301 C   0  0  2  0  0  0  0  0  0  0  0  0
   27.3122  -24.2563  -17.1648 N   0  0  0  0  0  0  0  0  0  0  0  0
   26.5741  -22.3378  -15.8830 C   0  0  0  0  0  0  0  0  0  0  0  0
   25.8224  -23.1276  -15.2566 O   0  0  0  0  0  0  0  0  0  0  0  0
   26.7918  -21.0255  -15.3760 N   0  0  0  0  0  0  0  0  0  0  0  0
   26.1100  -20.6017  -14.1727 C   0  0  1  0  0  0  0  0  0  0  0  0
   26.7916  -19.3984  -13.5792 C   0  0  0  0  0  0  0  0  0  0  0  0
   27.0876  -18.3514  -14.5734 C   0  0  0  0  0  0  0  0  0  0  0  0
   26.4144  -17.1528  -14.5611 C   0  0  0  0  0  0  0  0  0  0  0  0
   26.6811  -16.1515  -15.4939 C   0  0  0  0  0  0  0  0  0  0  0  0
   27.6300  -16.3571  -16.4442 C   0  0  0  0  0  0  0  0  0  0  0  0
   28.3210  -17.5395  -16.4869 C   0  0  0  0  0  0  0  0  0  0  0  0
   28.0446  -18.5403  -15.5433 C   0  0  0  0  0  0  0  0  0  0  0  0
   24.6785  -20.3439  -14.4822 C   0  0  0  0  0  0  0  0  0  0  0  0
   24.3016  -19.8682  -15.5864 O   0  0  0  0  0  0  0  0  0  0  0  0
   24.0715  -23.6331  -18.2593 N   0  0  0  0  0  0  0  0  0  0  0  0
   22.8224  -23.1472  -18.7244 C   0  0  0  0  0  0  0  0  0  0  0  0
   22.5685  -23.3090  -19.9841 N   0  0  0  0  0  0  0  0  0  0  0  0
   21.9129  -22.5178  -17.8328 N   0  0  0  0  0  0  0  0  0  0  0  0
   22.2901  -22.4013  -16.4450 C   0  0  0  0  0  0  0  0  0  0  0  0
   21.2804  -21.7907  -15.5568 C   0  0  0  0  0  0  0  0  0  0  0  0
   21.5436  -21.5066  -14.1518 C   0  0  0  0  0  0  0  0  0  0  0  0
   22.2293  -20.2496  -13.7909 C   0  0  2  0  0  0  0  0  0  0  0  0
   23.6871  -20.6305  -13.5305 N   0  0  0  0  0  0  0  0  0  0  0  0
   21.8350  -19.7489  -12.4686 C   0  0  0  0  0  0  0  0  0  0  0  0
   22.6072  -19.7873  -11.3557 O   0  0  0  0  0  0  0  0  0  0  0  0
   20.6718  -19.2347  -12.3198 O   0  0  0  0  0  0  0  0  0  0  0  0
  2  1  1  0
  2  3  2  0
  4  5  1  0
  4  2  1  0
  5  6  1  1
  7  8  2  0
  7  5  1  0
  9  7  1  0
 10  9  1  0
 10 11  1  6
 11 12  1  0
 12 13  2  0
 12 17  1  0
 13 14  1  0
 14 15  2  0
 16 15  1  0
 17 16  2  0
 18 28  1  0
 18 10  1  0
 19 18  2  0
 20 21  1  0
 21 23  1  0
 22 21  2  0
 23 24  1  0
 25 24  1  0
 25 26  1  0
 27 26  1  1
 27 28  1  0
 27 29  1  0
 29 30  1  0
 31 29  2  0
M  END
$$$$
