KAK.pdb
     RDKit          3D

 24 23  0  0  1  0  0  0  0  0999 V2000
    7.9879  -16.5618   17.5308 N   0  0  0  0  0  0  0  0  0  0  0  0
    8.5659  -15.5987   18.4339 C   0  0  1  0  0  0  0  0  0  0  0  0
    7.8508  -14.2863   18.2243 C   0  0  0  0  0  0  0  0  0  0  0  0
    8.5117  -13.5988   17.0476 C   0  0  0  0  0  0  0  0  0  0  0  0
    7.9187  -14.0589   15.7319 C   0  0  0  0  0  0  0  0  0  0  0  0
    8.6580  -13.2861   14.6330 C   0  0  0  0  0  0  0  0  0  0  0  0
    8.1836  -13.6538   13.3231 N   0  0  0  0  0  0  0  0  0  0  0  0
    8.4804  -16.0896   19.8117 C   0  0  0  0  0  0  0  0  0  0  0  0
    7.3494  -16.1409   20.3550 O   0  0  0  0  0  0  0  0  0  0  0  0
   10.6182  -18.0443   22.1174 C   0  0  0  0  0  0  0  0  0  0  0  0
    9.5410  -17.0320   21.9233 C   0  0  2  0  0  0  0  0  0  0  0  0
    9.6010  -16.5118   20.5722 N   0  0  0  0  0  0  0  0  0  0  0  0
    9.6034  -15.9200   22.9229 C   0  0  0  0  0  0  0  0  0  0  0  0
   10.4869  -15.0521   22.7879 O   0  0  0  0  0  0  0  0  0  0  0  0
    8.6775  -15.8632   23.9925 N   0  0  0  0  0  0  0  0  0  0  0  0
    8.7035  -14.7985   24.9475 C   0  0  1  0  0  0  0  0  0  0  0  0
    7.3403  -14.1267   25.1206 C   0  0  0  0  0  0  0  0  0  0  0  0
    7.4100  -13.0114   26.1137 C   0  0  0  0  0  0  0  0  0  0  0  0
    6.0847  -12.3648   26.3529 C   0  0  0  0  0  0  0  0  0  0  0  0
    6.1130  -11.2432   27.3247 C   0  0  0  0  0  0  0  0  0  0  0  0
    4.8734  -10.6460   27.6695 N   0  0  0  0  0  0  0  0  0  0  0  0
    9.1269  -15.3127   26.2791 C   0  0  0  0  0  0  0  0  0  0  0  0
    9.7398  -14.4920   27.2111 O   0  0  0  0  0  0  0  0  0  0  0  0
    8.9486  -16.5200   26.6243 O   0  0  0  0  0  0  0  0  0  0  0  0
  2  1  1  6
  2  3  1  0
  3  4  1  0
  5  4  1  0
  5  6  1  0
  6  7  1  0
  8 12  1  0
  8  2  1  0
  9  8  2  0
 11 10  1  1
 11 13  1  0
 11 12  1  0
 13 15  1  0
 14 13  2  0
 15 16  1  0
 16 17  1  1
 16 22  1  0
 18 17  1  0
 19 20  1  0
 19 18  1  0
 21 20  1  0
 22 24  2  0
 22 23  1  0
M  END
$$$$
