KAK.pdb
     RDKit          3D

 24 23  0  0  1  0  0  0  0  0999 V2000
    9.0442  -17.7032   19.1131 N   0  0  0  0  0  0  0  0  0  0  0  0
    8.1621  -17.5070   20.2358 C   0  0  1  0  0  0  0  0  0  0  0  0
    7.3444  -18.7646   20.4023 C   0  0  0  0  0  0  0  0  0  0  0  0
    6.4536  -18.8844   19.1832 C   0  0  0  0  0  0  0  0  0  0  0  0
    5.6197  -20.1481   19.2277 C   0  0  0  0  0  0  0  0  0  0  0  0
    4.7911  -20.1627   17.9376 C   0  0  0  0  0  0  0  0  0  0  0  0
    3.9753  -21.3473   17.8512 N   0  0  0  0  0  0  0  0  0  0  0  0
    8.9389  -17.1609   21.4289 C   0  0  0  0  0  0  0  0  0  0  0  0
   10.0325  -17.7489   21.6171 O   0  0  0  0  0  0  0  0  0  0  0  0
    8.7452  -14.5593   24.1303 C   0  0  0  0  0  0  0  0  0  0  0  0
    9.2803  -15.8341   23.5724 C   0  0  2  0  0  0  0  0  0  0  0  0
    8.5299  -16.1988   22.3878 N   0  0  0  0  0  0  0  0  0  0  0  0
    9.2741  -16.9507   24.5689 C   0  0  0  0  0  0  0  0  0  0  0  0
    8.1799  -17.4556   24.8847 O   0  0  0  0  0  0  0  0  0  0  0  0
   10.4862  -17.4158   25.1337 N   0  0  0  0  0  0  0  0  0  0  0  0
   10.5175  -18.5486   26.0066 C   0  0  1  0  0  0  0  0  0  0  0  0
   11.7850  -19.3884   25.8395 C   0  0  0  0  0  0  0  0  0  0  0  0
   11.8863  -19.9439   24.4552 C   0  0  0  0  0  0  0  0  0  0  0  0
   13.1292  -20.7446   24.2416 C   0  0  0  0  0  0  0  0  0  0  0  0
   13.3061  -21.2500   22.8573 C   0  0  0  0  0  0  0  0  0  0  0  0
   14.5118  -21.9362   22.5612 N   0  0  0  0  0  0  0  0  0  0  0  0
   10.4524  -18.1054   27.4265 C   0  0  0  0  0  0  0  0  0  0  0  0
   10.5167  -16.7655   27.7708 O   0  0  0  0  0  0  0  0  0  0  0  0
   10.3355  -18.9272   28.3854 O   0  0  0  0  0  0  0  0  0  0  0  0
  2  1  1  6
  2  3  1  0
  3  4  1  0
  5  4  1  0
  5  6  1  0
  6  7  1  0
  8 12  1  0
  8  2  1  0
  9  8  2  0
 11 10  1  1
 11 13  1  0
 11 12  1  0
 13 15  1  0
 14 13  2  0
 15 16  1  0
 16 17  1  1
 16 22  1  0
 18 17  1  0
 19 20  1  0
 19 18  1  0
 21 20  1  0
 22 24  2  0
 22 23  1  0
M  END
$$$$
