KAK.pdb
     RDKit          3D

 24 23  0  0  1  0  0  0  0  0999 V2000
    7.9027  -12.9573   18.5427 N   0  0  0  0  0  0  0  0  0  0  0  0
    8.8758  -13.9670   18.8752 C   0  0  1  0  0  0  0  0  0  0  0  0
   10.2354  -13.3117   18.8752 C   0  0  0  0  0  0  0  0  0  0  0  0
   11.2616  -14.4088   18.6820 C   0  0  0  0  0  0  0  0  0  0  0  0
   12.6726  -13.8585   18.7034 C   0  0  0  0  0  0  0  0  0  0  0  0
   13.6080  -15.0676   18.5828 C   0  0  0  0  0  0  0  0  0  0  0  0
   14.9787  -14.6560   18.4161 N   0  0  0  0  0  0  0  0  0  0  0  0
    8.5345  -14.5892   20.1571 C   0  0  0  0  0  0  0  0  0  0  0  0
    8.1184  -13.8507   21.0837 O   0  0  0  0  0  0  0  0  0  0  0  0
    7.9129  -18.0751   21.3338 C   0  0  0  0  0  0  0  0  0  0  0  0
    8.1909  -16.6394   21.6235 C   0  0  2  0  0  0  0  0  0  0  0  0
    8.6457  -15.9794   20.4163 N   0  0  0  0  0  0  0  0  0  0  0  0
    9.1769  -16.4522   22.7338 C   0  0  0  0  0  0  0  0  0  0  0  0
   10.3912  -16.4786   22.4571 O   0  0  0  0  0  0  0  0  0  0  0  0
    8.7320  -16.2507   24.0627 N   0  0  0  0  0  0  0  0  0  0  0  0
    9.6547  -16.0484   25.1369 C   0  0  1  0  0  0  0  0  0  0  0  0
    8.9787  -15.5279   26.4063 C   0  0  0  0  0  0  0  0  0  0  0  0
    9.9750  -15.3146   27.5003 C   0  0  0  0  0  0  0  0  0  0  0  0
    9.3426  -14.8897   28.7853 C   0  0  0  0  0  0  0  0  0  0  0  0
   10.3026  -14.6218   29.8853 C   0  0  0  0  0  0  0  0  0  0  0  0
    9.7650  -14.2913   31.1557 N   0  0  0  0  0  0  0  0  0  0  0  0
   10.3345  -17.3283   25.4785 C   0  0  0  0  0  0  0  0  0  0  0  0
   11.6319  -17.3529   25.9623 O   0  0  0  0  0  0  0  0  0  0  0  0
    9.7631  -18.4527   25.3445 O   0  0  0  0  0  0  0  0  0  0  0  0
  2  1  1  1
  2  3  1  0
  3  4  1  0
  5  4  1  0
  5  6  1  0
  6  7  1  0
  8 12  1  0
  8  2  1  0
  9  8  2  0
 11 10  1  6
 11 13  1  0
 11 12  1  0
 13 15  1  0
 14 13  2  0
 15 16  1  0
 16 17  1  1
 16 22  1  0
 18 17  1  0
 19 20  1  0
 19 18  1  0
 21 20  1  0
 22 24  2  0
 22 23  1  0
M  END
$$$$
