KAK.pdb
     RDKit          3D

 24 23  0  0  1  0  0  0  0  0999 V2000
    9.1339  -15.5350   14.8927 N   0  0  0  0  0  0  0  0  0  0  0  0
    8.1370  -15.6201   15.9301 C   0  0  1  0  0  0  0  0  0  0  0  0
    7.6849  -17.0575   16.0153 C   0  0  0  0  0  0  0  0  0  0  0  0
    6.9211  -17.3631   14.7435 C   0  0  0  0  0  0  0  0  0  0  0  0
    5.7887  -18.3366   14.9970 C   0  0  0  0  0  0  0  0  0  0  0  0
    5.1911  -18.6685   13.6244 C   0  0  0  0  0  0  0  0  0  0  0  0
    4.0705  -19.5664   13.7432 N   0  0  0  0  0  0  0  0  0  0  0  0
    8.6812  -15.1100   17.1911 C   0  0  0  0  0  0  0  0  0  0  0  0
    9.7792  -15.5683   17.5929 O   0  0  0  0  0  0  0  0  0  0  0  0
    7.6313  -12.5736   19.7749 C   0  0  0  0  0  0  0  0  0  0  0  0
    8.4999  -13.6841   19.2901 C   0  0  2  0  0  0  0  0  0  0  0  0
    8.0414  -14.1267   17.9888 N   0  0  0  0  0  0  0  0  0  0  0  0
    8.5628  -14.8318   20.2487 C   0  0  0  0  0  0  0  0  0  0  0  0
    7.6561  -15.6852   20.2099 O   0  0  0  0  0  0  0  0  0  0  0  0
    9.6297  -14.9373   21.1734 N   0  0  0  0  0  0  0  0  0  0  0  0
    9.7477  -16.0589   22.0533 C   0  0  1  0  0  0  0  0  0  0  0  0
   11.1997  -16.4856   22.2752 C   0  0  0  0  0  0  0  0  0  0  0  0
   11.7398  -17.2050   21.0813 C   0  0  0  0  0  0  0  0  0  0  0  0
   13.2141  -17.4329   21.1600 C   0  0  0  0  0  0  0  0  0  0  0  0
   13.8142  -18.0125   19.9323 C   0  0  0  0  0  0  0  0  0  0  0  0
   15.2124  -18.2520   19.9388 N   0  0  0  0  0  0  0  0  0  0  0  0
    9.1636  -15.7325   23.3834 C   0  0  0  0  0  0  0  0  0  0  0  0
    8.6427  -14.4790   23.6579 O   0  0  0  0  0  0  0  0  0  0  0  0
    9.1142  -16.5804   24.3253 O   0  0  0  0  0  0  0  0  0  0  0  0
  2  1  1  6
  2  3  1  0
  3  4  1  0
  5  4  1  0
  5  6  1  0
  6  7  1  0
  8 12  1  0
  8  2  1  0
  9  8  2  0
 11 10  1  1
 11 13  1  0
 11 12  1  0
 13 15  1  0
 14 13  2  0
 15 16  1  0
 16 17  1  1
 16 22  1  0
 18 17  1  0
 19 20  1  0
 19 18  1  0
 21 20  1  0
 22 24  2  0
 22 23  1  0
M  END
$$$$
