KAK.pdb
     RDKit          3D

 24 23  0  0  1  0  0  0  0  0999 V2000
    7.3129  -16.6016   18.3364 N   0  0  0  0  0  0  0  0  0  0  0  0
    8.1465  -15.6496   19.0263 C   0  0  1  0  0  0  0  0  0  0  0  0
    7.4390  -14.3168   19.0008 C   0  0  0  0  0  0  0  0  0  0  0  0
    8.0497  -13.5068   17.8761 C   0  0  0  0  0  0  0  0  0  0  0  0
    7.9561  -14.2370   16.5524 C   0  0  0  0  0  0  0  0  0  0  0  0
    8.7017  -13.3715   15.5296 C   0  0  0  0  0  0  0  0  0  0  0  0
    8.8795  -14.0696   14.2817 N   0  0  0  0  0  0  0  0  0  0  0  0
    8.4340  -16.1252   20.3820 C   0  0  0  0  0  0  0  0  0  0  0  0
    7.4660  -16.3631   21.1459 O   0  0  0  0  0  0  0  0  0  0  0  0
   11.4139  -17.4668   22.1889 C   0  0  0  0  0  0  0  0  0  0  0  0
   10.0547  -16.8544   22.2023 C   0  0  2  0  0  0  0  0  0  0  0  0
    9.7434  -16.3339   20.8863 N   0  0  0  0  0  0  0  0  0  0  0  0
    9.9095  -15.7879   23.2423 C   0  0  0  0  0  0  0  0  0  0  0  0
   10.4701  -14.6924   23.0484 O   0  0  0  0  0  0  0  0  0  0  0  0
    9.1521  -16.0265   24.4144 N   0  0  0  0  0  0  0  0  0  0  0  0
    9.0351  -15.0386   25.4423 C   0  0  1  0  0  0  0  0  0  0  0  0
    7.6576  -14.3742   25.4692 C   0  0  0  0  0  0  0  0  0  0  0  0
    7.5863  -13.3214   26.5282 C   0  0  0  0  0  0  0  0  0  0  0  0
    6.2683  -12.6189   26.5591 C   0  0  0  0  0  0  0  0  0  0  0  0
    6.1924  -11.4938   27.5243 C   0  0  0  0  0  0  0  0  0  0  0  0
    4.9471  -10.8269   27.6540 N   0  0  0  0  0  0  0  0  0  0  0  0
    9.2657  -15.6562   26.7774 C   0  0  0  0  0  0  0  0  0  0  0  0
    9.6998  -14.9058   27.8574 O   0  0  0  0  0  0  0  0  0  0  0  0
    9.0774  -16.8921   26.9909 O   0  0  0  0  0  0  0  0  0  0  0  0
  2  1  1  1
  2  3  1  0
  3  4  1  0
  5  4  1  0
  5  6  1  0
  6  7  1  0
  8 12  1  0
  8  2  1  0
  9  8  2  0
 11 10  1  6
 11 13  1  0
 11 12  1  0
 13 15  1  0
 14 13  2  0
 15 16  1  0
 16 17  1  1
 16 22  1  0
 18 17  1  0
 19 20  1  0
 19 18  1  0
 21 20  1  0
 22 24  2  0
 22 23  1  0
M  END
$$$$
