KAK.pdb
     RDKit          3D

 24 23  0  0  1  0  0  0  0  0999 V2000
    8.5813  -12.7436   19.4330 N   0  0  0  0  0  0  0  0  0  0  0  0
    7.8210  -13.7621   20.1125 C   0  0  1  0  0  0  0  0  0  0  0  0
    7.9906  -15.0503   19.3447 C   0  0  0  0  0  0  0  0  0  0  0  0
    7.6417  -14.7599   17.8997 C   0  0  0  0  0  0  0  0  0  0  0  0
    7.5519  -16.0331   17.0841 C   0  0  0  0  0  0  0  0  0  0  0  0
    7.0348  -15.6223   15.7003 C   0  0  0  0  0  0  0  0  0  0  0  0
    6.9715  -16.7513   14.8073 N   0  0  0  0  0  0  0  0  0  0  0  0
    8.2520  -13.8611   21.5093 C   0  0  0  0  0  0  0  0  0  0  0  0
    9.4829  -13.9339   21.7475 O   0  0  0  0  0  0  0  0  0  0  0  0
    6.6382  -13.6002   24.8867 C   0  0  0  0  0  0  0  0  0  0  0  0
    7.7565  -14.0290   23.9988 C   0  0  2  0  0  0  0  0  0  0  0  0
    7.3610  -13.8798   22.6129 N   0  0  0  0  0  0  0  0  0  0  0  0
    8.2104  -15.4285   24.2730 C   0  0  0  0  0  0  0  0  0  0  0  0
    7.6130  -16.3652   23.7094 O   0  0  0  0  0  0  0  0  0  0  0  0
    9.2927  -15.6731   25.1524 N   0  0  0  0  0  0  0  0  0  0  0  0
    9.7354  -17.0024   25.4407 C   0  0  1  0  0  0  0  0  0  0  0  0
   11.0783  -17.3327   24.7871 C   0  0  0  0  0  0  0  0  0  0  0  0
   11.4960  -18.7357   25.0902 C   0  0  0  0  0  0  0  0  0  0  0  0
   12.8419  -19.0722   24.5363 C   0  0  0  0  0  0  0  0  0  0  0  0
   13.2736  -20.4722   24.7743 C   0  0  0  0  0  0  0  0  0  0  0  0
   14.4531  -20.9124   24.1207 N   0  0  0  0  0  0  0  0  0  0  0  0
    9.8904  -17.1851   26.9102 C   0  0  0  0  0  0  0  0  0  0  0  0
    9.7896  -18.4343   27.4995 O   0  0  0  0  0  0  0  0  0  0  0  0
   10.1209  -16.2124   27.6907 O   0  0  0  0  0  0  0  0  0  0  0  0
  2  1  1  6
  2  3  1  0
  3  4  1  0
  5  4  1  0
  5  6  1  0
  6  7  1  0
  8 12  1  0
  8  2  1  0
  9  8  2  0
 11 10  1  1
 11 13  1  0
 11 12  1  0
 13 15  1  0
 14 13  2  0
 15 16  1  0
 16 17  1  6
 16 22  1  0
 18 17  1  0
 19 20  1  0
 19 18  1  0
 21 20  1  0
 22 24  2  0
 22 23  1  0
M  END
$$$$
