KAK.pdb
     RDKit          3D

 24 23  0  0  1  0  0  0  0  0999 V2000
    6.9456  -15.3067   20.1253 N   0  0  0  0  0  0  0  0  0  0  0  0
    8.3375  -14.9352   20.1663 C   0  0  1  0  0  0  0  0  0  0  0  0
    8.5113  -13.7106   19.3016 C   0  0  0  0  0  0  0  0  0  0  0  0
    7.8597  -14.0083   17.9671 C   0  0  0  0  0  0  0  0  0  0  0  0
    8.6494  -13.4138   16.8194 C   0  0  0  0  0  0  0  0  0  0  0  0
    7.8112  -13.6428   15.5560 C   0  0  0  0  0  0  0  0  0  0  0  0
    8.4135  -13.0175   14.4061 N   0  0  0  0  0  0  0  0  0  0  0  0
    8.7601  -14.7273   21.5538 C   0  0  0  0  0  0  0  0  0  0  0  0
    9.9769  -14.5132   21.7784 O   0  0  0  0  0  0  0  0  0  0  0  0
    7.1621  -14.1125   24.8651 C   0  0  0  0  0  0  0  0  0  0  0  0
    8.2804  -14.6693   24.0514 C   0  0  2  0  0  0  0  0  0  0  0  0
    7.8757  -14.7533   22.6626 N   0  0  0  0  0  0  0  0  0  0  0  0
    8.7517  -16.0002   24.5477 C   0  0  0  0  0  0  0  0  0  0  0  0
    8.0484  -17.0016   24.3142 O   0  0  0  0  0  0  0  0  0  0  0  0
    9.9680  -16.1096   25.2642 N   0  0  0  0  0  0  0  0  0  0  0  0
   10.4735  -17.3787   25.6887 C   0  0  1  0  0  0  0  0  0  0  0  0
   11.9157  -17.6203   25.2399 C   0  0  0  0  0  0  0  0  0  0  0  0
   12.4009  -18.9636   25.6815 C   0  0  0  0  0  0  0  0  0  0  0  0
   13.8151  -19.2296   25.2803 C   0  0  0  0  0  0  0  0  0  0  0  0
   14.3132  -20.5812   25.6383 C   0  0  0  0  0  0  0  0  0  0  0  0
   15.6087  -20.9411   25.1862 N   0  0  0  0  0  0  0  0  0  0  0  0
   10.4398  -17.4746   27.1741 C   0  0  0  0  0  0  0  0  0  0  0  0
   10.3778  -18.6982   27.8198 O   0  0  0  0  0  0  0  0  0  0  0  0
   10.4659  -16.4474   27.9176 O   0  0  0  0  0  0  0  0  0  0  0  0
  2  1  1  1
  2  3  1  0
  3  4  1  0
  5  4  1  0
  5  6  1  0
  6  7  1  0
  8 12  1  0
  8  2  1  0
  9  8  2  0
 11 10  1  1
 11 13  1  0
 11 12  1  0
 13 15  1  0
 14 13  2  0
 15 16  1  0
 16 17  1  1
 16 22  1  0
 18 17  1  0
 19 20  1  0
 19 18  1  0
 21 20  1  0
 22 24  2  0
 22 23  1  0
M  END
$$$$
