MWT.pdb
     RDKit          3D

 30 31  0  0  1  0  0  0  0  0999 V2000
   29.1532  -16.4484  -16.9093 C   0  0  0  0  0  0  0  0  0  0  0  0
   28.3502  -18.0359  -16.5562 S   0  0  0  0  0  0  0  0  0  0  0  0
   27.2474  -17.8207  -15.1323 C   0  0  0  0  0  0  0  0  0  0  0  0
   26.6644  -19.1598  -14.8094 C   0  0  0  0  0  0  0  0  0  0  0  0
   27.6824  -20.0723  -14.1021 C   0  0  2  0  0  0  0  0  0  0  0  0
   27.9052  -21.1767  -15.0072 N   0  0  0  0  0  0  0  0  0  0  0  0
   26.9684  -20.5508  -12.8955 C   0  0  0  0  0  0  0  0  0  0  0  0
   26.0779  -21.4233  -13.0638 O   0  0  0  0  0  0  0  0  0  0  0  0
   27.2727  -20.0495  -11.6085 N   0  0  0  0  0  0  0  0  0  0  0  0
   26.5385  -20.4393  -10.3976 C   0  0  1  0  0  0  0  0  0  0  0  0
   27.3210  -20.1296   -9.1854 C   0  0  0  0  0  0  0  0  0  0  0  0
   26.7213  -20.3855   -7.8850 C   0  0  0  0  0  0  0  0  0  0  0  0
   25.5099  -20.9907   -7.6334 C   0  0  0  0  0  0  0  0  0  0  0  0
   25.2774  -21.0246   -6.2961 N   0  0  0  0  0  0  0  0  0  0  0  0
   26.3323  -20.4458   -5.6922 C   0  0  0  0  0  0  0  0  0  0  0  0
   26.5887  -20.2436   -4.3563 C   0  0  0  0  0  0  0  0  0  0  0  0
   27.7719  -19.6274   -3.9323 C   0  0  0  0  0  0  0  0  0  0  0  0
   28.6894  -19.2197   -4.8791 C   0  0  0  0  0  0  0  0  0  0  0  0
   28.4146  -19.4294   -6.2036 C   0  0  0  0  0  0  0  0  0  0  0  0
   27.2406  -20.0423   -6.6626 C   0  0  0  0  0  0  0  0  0  0  0  0
   25.1452  -20.0187  -10.4621 C   0  0  0  0  0  0  0  0  0  0  0  0
   24.7205  -18.8542  -10.2715 O   0  0  0  0  0  0  0  0  0  0  0  0
   23.1145  -20.1363  -13.5190 C   0  0  0  0  0  0  0  0  0  0  0  0
   22.3971  -21.0190  -12.4922 C   0  0  1  0  0  0  0  0  0  0  0  0
   22.6877  -22.3554  -12.7271 O   0  0  0  0  0  0  0  0  0  0  0  0
   22.7910  -20.5908  -11.0945 C   0  0  2  0  0  0  0  0  0  0  0  0
   24.1379  -20.9895  -10.7663 N   0  0  0  0  0  0  0  0  0  0  0  0
   21.8055  -21.2872  -10.1866 C   0  0  0  0  0  0  0  0  0  0  0  0
   20.4796  -20.9444  -10.2624 O   0  0  0  0  0  0  0  0  0  0  0  0
   22.1723  -22.1610   -9.3757 O   0  0  0  0  0  0  0  0  0  0  0  0
  2  3  1  0
  2  1  1  0
  4  3  1  0
  5  4  1  0
  5  6  1  6
  7  8  2  0
  7  5  1  0
  9  7  1  0
 10  9  1  0
 10 11  1  1
 12 13  2  0
 12 11  1  0
 14 13  1  0
 15 20  2  0
 15 14  1  0
 16 15  1  0
 17 18  1  0
 17 16  2  0
 18 19  2  0
 19 20  1  0
 20 12  1  0
 21 10  1  0
 21 22  2  0
 24 23  1  6
 25 24  1  0
 26 27  1  1
 26 24  1  0
 27 21  1  0
 28 26  1  0
 29 28  1  0
 30 28  2  0
M  END
$$$$
