MWT.pdb
     RDKit          3D

 30 31  0  0  1  0  0  0  0  0999 V2000
   22.9196  -18.4390  -15.0457 C   0  0  0  0  0  0  0  0  0  0  0  0
   24.5168  -18.4721  -15.9046 S   0  0  0  0  0  0  0  0  0  0  0  0
   25.1198  -20.1824  -15.9360 C   0  0  0  0  0  0  0  0  0  0  0  0
   25.0784  -20.6990  -14.5327 C   0  0  0  0  0  0  0  0  0  0  0  0
   26.4156  -20.4806  -13.8023 C   0  0  2  0  0  0  0  0  0  0  0  0
   27.3468  -21.3977  -14.4189 N   0  0  0  0  0  0  0  0  0  0  0  0
   26.1448  -20.9043  -12.4088 C   0  0  0  0  0  0  0  0  0  0  0  0
   25.9271  -22.1278  -12.2131 O   0  0  0  0  0  0  0  0  0  0  0  0
   26.1307  -19.9751  -11.3427 N   0  0  0  0  0  0  0  0  0  0  0  0
   25.8422  -20.3489   -9.9518 C   0  0  1  0  0  0  0  0  0  0  0  0
   26.6038  -19.5045   -9.0114 C   0  0  0  0  0  0  0  0  0  0  0  0
   27.4834  -20.1512   -8.0501 C   0  0  0  0  0  0  0  0  0  0  0  0
   28.0875  -21.3828   -8.1743 C   0  0  0  0  0  0  0  0  0  0  0  0
   28.8105  -21.6592   -7.0587 N   0  0  0  0  0  0  0  0  0  0  0  0
   28.6725  -20.6124   -6.2235 C   0  0  0  0  0  0  0  0  0  0  0  0
   29.2113  -20.3952   -4.9769 C   0  0  0  0  0  0  0  0  0  0  0  0
   28.9516  -19.2135   -4.2729 C   0  0  0  0  0  0  0  0  0  0  0  0
   28.1399  -18.2574   -4.8485 C   0  0  0  0  0  0  0  0  0  0  0  0
   27.6129  -18.4935   -6.0896 C   0  0  0  0  0  0  0  0  0  0  0  0
   27.8518  -19.6647   -6.8215 C   0  0  0  0  0  0  0  0  0  0  0  0
   24.4130  -20.5301   -9.7355 C   0  0  0  0  0  0  0  0  0  0  0  0
   23.5049  -19.7772  -10.1615 O   0  0  0  0  0  0  0  0  0  0  0  0
   23.0113  -23.1293   -6.6814 C   0  0  0  0  0  0  0  0  0  0  0  0
   22.3123  -23.2120   -8.0426 C   0  0  1  0  0  0  0  0  0  0  0  0
   20.9591  -23.4654   -7.8686 O   0  0  0  0  0  0  0  0  0  0  0  0
   22.5543  -21.9318   -8.8136 C   0  0  2  0  0  0  0  0  0  0  0  0
   23.9609  -21.6544   -8.9733 N   0  0  0  0  0  0  0  0  0  0  0  0
   21.9014  -20.8529   -7.9826 C   0  0  0  0  0  0  0  0  0  0  0  0
   20.5341  -20.8373   -7.8748 O   0  0  0  0  0  0  0  0  0  0  0  0
   22.5772  -19.9829   -7.3979 O   0  0  0  0  0  0  0  0  0  0  0  0
  2  3  1  0
  2  1  1  0
  4  3  1  0
  5  4  1  0
  5  6  1  6
  7  8  2  0
  7  5  1  0
  9  7  1  0
 10  9  1  0
 10 11  1  1
 12 13  2  0
 12 11  1  0
 14 13  1  0
 15 20  2  0
 15 14  1  0
 16 15  1  0
 17 18  1  0
 17 16  2  0
 18 19  2  0
 19 20  1  0
 20 12  1  0
 21 10  1  0
 21 22  2  0
 24 23  1  1
 25 24  1  0
 26 27  1  1
 26 24  1  0
 27 21  1  0
 28 26  1  0
 29 28  1  0
 30 28  2  0
M  END
$$$$
