MWT.pdb
     RDKit          3D

 30 31  0  0  1  0  0  0  0  0999 V2000
   29.4084  -13.2444  -15.2884 C   0  0  0  0  0  0  0  0  0  0  0  0
   27.8126  -12.5625  -15.8160 S   0  0  0  0  0  0  0  0  0  0  0  0
   28.0438  -10.8141  -16.2394 C   0  0  0  0  0  0  0  0  0  0  0  0
   26.6862  -10.2119  -16.4176 C   0  0  0  0  0  0  0  0  0  0  0  0
   25.7979  -11.0648  -17.3410 C   0  0  2  0  0  0  0  0  0  0  0  0
   26.3729  -10.9324  -18.6603 N   0  0  0  0  0  0  0  0  0  0  0  0
   24.4778  -10.3937  -17.3011 C   0  0  0  0  0  0  0  0  0  0  0  0
   24.3512   -9.3363  -17.9707 O   0  0  0  0  0  0  0  0  0  0  0  0
   23.4047  -10.9171  -16.5431 N   0  0  0  0  0  0  0  0  0  0  0  0
   22.0781  -10.2891  -16.4842 C   0  0  1  0  0  0  0  0  0  0  0  0
   21.0194  -11.3080  -16.3488 C   0  0  0  0  0  0  0  0  0  0  0  0
   19.6340  -10.8689  -16.2860 C   0  0  0  0  0  0  0  0  0  0  0  0
   19.1076   -9.7042  -16.7995 C   0  0  0  0  0  0  0  0  0  0  0  0
   17.7815   -9.6307  -16.5170 N   0  0  0  0  0  0  0  0  0  0  0  0
   17.4577  -10.7405  -15.8271 C   0  0  0  0  0  0  0  0  0  0  0  0
   16.2456  -11.1488  -15.3218 C   0  0  0  0  0  0  0  0  0  0  0  0
   16.1192  -12.3644  -14.6393 C   0  0  0  0  0  0  0  0  0  0  0  0
   17.2360  -13.1584  -14.4762 C   0  0  0  0  0  0  0  0  0  0  0  0
   18.4332  -12.7333  -14.9859 C   0  0  0  0  0  0  0  0  0  0  0  0
   18.5952  -11.5228  -15.6736 C   0  0  0  0  0  0  0  0  0  0  0  0
   22.0716   -9.1439  -15.5838 C   0  0  0  0  0  0  0  0  0  0  0  0
   22.4990   -9.1347  -14.4047 O   0  0  0  0  0  0  0  0  0  0  0  0
   23.7047   -5.7900  -16.2059 C   0  0  0  0  0  0  0  0  0  0  0  0
   22.2088   -5.5410  -15.9855 C   0  0  1  0  0  0  0  0  0  0  0  0
   21.5770   -5.3275  -17.2023 O   0  0  0  0  0  0  0  0  0  0  0  0
   21.6078   -6.7086  -15.2322 C   0  0  2  0  0  0  0  0  0  0  0  0
   21.5378   -7.8982  -16.0451 N   0  0  0  0  0  0  0  0  0  0  0  0
   20.2182   -6.2506  -14.8579 C   0  0  0  0  0  0  0  0  0  0  0  0
   20.0772   -5.2811  -13.8980 O   0  0  0  0  0  0  0  0  0  0  0  0
   19.2049   -6.7343  -15.4010 O   0  0  0  0  0  0  0  0  0  0  0  0
  2  3  1  0
  2  1  1  0
  4  3  1  0
  5  4  1  0
  5  6  1  6
  7  8  2  0
  7  5  1  0
  9  7  1  0
 10  9  1  0
 10 11  1  1
 12 13  2  0
 12 11  1  0
 14 13  1  0
 15 20  2  0
 15 14  1  0
 16 15  1  0
 17 18  1  0
 17 16  2  0
 18 19  2  0
 19 20  1  0
 20 12  1  0
 21 10  1  0
 21 22  2  0
 24 23  1  6
 25 24  1  0
 26 27  1  6
 26 24  1  0
 27 21  1  0
 28 26  1  0
 29 28  1  0
 30 28  2  0
M  END
$$$$
