MWT.pdb
     RDKit          3D

 30 31  0  0  1  0  0  0  0  0999 V2000
   27.8904  -41.4488   -9.3114 C   0  0  0  0  0  0  0  0  0  0  0  0
   29.3910  -42.4089   -8.9704 S   0  0  0  0  0  0  0  0  0  0  0  0
   30.8295  -41.3233   -9.1752 C   0  0  0  0  0  0  0  0  0  0  0  0
   30.8189  -40.3455   -8.0432 C   0  0  0  0  0  0  0  0  0  0  0  0
   31.5452  -39.0385   -8.4085 C   0  0  2  0  0  0  0  0  0  0  0  0
   32.9501  -39.3060   -8.1998 N   0  0  0  0  0  0  0  0  0  0  0  0
   31.0675  -38.0610   -7.4030 C   0  0  0  0  0  0  0  0  0  0  0  0
   31.4872  -38.1980   -6.2250 O   0  0  0  0  0  0  0  0  0  0  0  0
   30.1775  -37.0182   -7.7500 N   0  0  0  0  0  0  0  0  0  0  0  0
   29.5990  -36.0923   -6.7674 C   0  0  1  0  0  0  0  0  0  0  0  0
   29.0794  -34.8800   -7.4293 C   0  0  0  0  0  0  0  0  0  0  0  0
   28.2134  -33.9898   -6.6719 C   0  0  0  0  0  0  0  0  0  0  0  0
   28.1241  -33.8852   -5.3014 C   0  0  0  0  0  0  0  0  0  0  0  0
   27.1824  -32.9659   -4.9670 N   0  0  0  0  0  0  0  0  0  0  0  0
   26.6703  -32.4826   -6.1145 C   0  0  0  0  0  0  0  0  0  0  0  0
   25.7029  -31.5274   -6.3212 C   0  0  0  0  0  0  0  0  0  0  0  0
   25.3218  -31.1522   -7.6148 C   0  0  0  0  0  0  0  0  0  0  0  0
   25.9335  -31.7576   -8.6936 C   0  0  0  0  0  0  0  0  0  0  0  0
   26.8934  -32.7067   -8.4662 C   0  0  0  0  0  0  0  0  0  0  0  0
   27.2983  -33.1061   -7.1851 C   0  0  0  0  0  0  0  0  0  0  0  0
   28.7489  -36.7922   -5.8136 C   0  0  0  0  0  0  0  0  0  0  0  0
   27.7213  -37.4543   -6.0943 O   0  0  0  0  0  0  0  0  0  0  0  0
   30.3113  -37.7959   -2.0294 C   0  0  0  0  0  0  0  0  0  0  0  0
   29.1137  -38.4839   -2.6931 C   0  0  1  0  0  0  0  0  0  0  0  0
   28.3611  -39.1547   -1.7397 O   0  0  0  0  0  0  0  0  0  0  0  0
   28.2926  -37.4566   -3.4430 C   0  0  2  0  0  0  0  0  0  0  0  0
   29.0787  -36.7455   -4.4213 N   0  0  0  0  0  0  0  0  0  0  0  0
   27.8008  -36.5053   -2.3782 C   0  0  0  0  0  0  0  0  0  0  0  0
   26.8517  -36.9409   -1.4890 O   0  0  0  0  0  0  0  0  0  0  0  0
   28.2383  -35.3404   -2.2935 O   0  0  0  0  0  0  0  0  0  0  0  0
  2  3  1  0
  2  1  1  0
  4  3  1  0
  5  4  1  0
  5  6  1  1
  7  8  2  0
  7  5  1  0
  9  7  1  0
 10  9  1  0
 10 11  1  6
 12 13  2  0
 12 11  1  0
 14 13  1  0
 15 20  2  0
 15 14  1  0
 16 15  1  0
 17 18  1  0
 17 16  2  0
 18 19  2  0
 19 20  1  0
 20 12  1  0
 21 10  1  0
 21 22  2  0
 24 23  1  1
 25 24  1  0
 26 27  1  6
 26 24  1  0
 27 21  1  0
 28 26  1  0
 29 28  1  0
 30 28  2  0
M  END
$$$$
