MWT.pdb
     RDKit          3D

 30 31  0  0  1  0  0  0  0  0999 V2000
   32.1627  -22.7278   -9.6516 C   0  0  0  0  0  0  0  0  0  0  0  0
   32.6427  -22.5753  -11.3941 S   0  0  0  0  0  0  0  0  0  0  0  0
   31.2922  -21.7678  -12.2962 C   0  0  0  0  0  0  0  0  0  0  0  0
   30.0557  -21.8980  -11.4645 C   0  0  0  0  0  0  0  0  0  0  0  0
   28.8345  -21.2592  -12.1499 C   0  0  2  0  0  0  0  0  0  0  0  0
   29.1430  -19.8512  -12.2547 N   0  0  0  0  0  0  0  0  0  0  0  0
   27.7278  -21.4582  -11.1853 C   0  0  0  0  0  0  0  0  0  0  0  0
   27.4032  -22.6446  -10.9212 O   0  0  0  0  0  0  0  0  0  0  0  0
   27.0630  -20.3632  -10.5861 N   0  0  0  0  0  0  0  0  0  0  0  0
   25.9958  -20.5163   -9.5886 C   0  0  1  0  0  0  0  0  0  0  0  0
   26.3358  -19.8048   -8.3412 C   0  0  0  0  0  0  0  0  0  0  0  0
   27.4759  -20.2665   -7.5646 C   0  0  0  0  0  0  0  0  0  0  0  0
   28.3735  -21.2518   -7.9120 C   0  0  0  0  0  0  0  0  0  0  0  0
   29.2827  -21.4221   -6.9181 N   0  0  0  0  0  0  0  0  0  0  0  0
   28.9720  -20.5520   -5.9388 C   0  0  0  0  0  0  0  0  0  0  0  0
   29.5871  -20.3191   -4.7311 C   0  0  0  0  0  0  0  0  0  0  0  0
   29.1065  -19.3421   -3.8513 C   0  0  0  0  0  0  0  0  0  0  0  0
   27.9961  -18.6063   -4.2119 C   0  0  0  0  0  0  0  0  0  0  0  0
   27.3981  -18.8544   -5.4180 C   0  0  0  0  0  0  0  0  0  0  0  0
   27.8524  -19.8245   -6.3218 C   0  0  0  0  0  0  0  0  0  0  0  0
   24.6810  -20.3092  -10.1806 C   0  0  0  0  0  0  0  0  0  0  0  0
   23.7189  -19.7121   -9.6413 O   0  0  0  0  0  0  0  0  0  0  0  0
   24.7429  -18.9532  -13.8935 C   0  0  0  0  0  0  0  0  0  0  0  0
   23.7710  -20.1298  -13.7553 C   0  0  1  0  0  0  0  0  0  0  0  0
   24.3525  -21.2887  -14.2498 O   0  0  0  0  0  0  0  0  0  0  0  0
   23.3581  -20.2769  -12.3063 C   0  0  2  0  0  0  0  0  0  0  0  0
   24.4204  -20.8170  -11.4935 N   0  0  0  0  0  0  0  0  0  0  0  0
   22.1873  -21.2303  -12.3347 C   0  0  0  0  0  0  0  0  0  0  0  0
   22.3635  -22.5085  -11.8693 O   0  0  0  0  0  0  0  0  0  0  0  0
   21.0725  -20.8797  -12.7703 O   0  0  0  0  0  0  0  0  0  0  0  0
  2  3  1  0
  2  1  1  0
  4  3  1  0
  5  4  1  0
  5  6  1  1
  7  8  2  0
  7  5  1  0
  9  7  1  0
 10  9  1  0
 10 11  1  1
 12 13  2  0
 12 11  1  0
 14 13  1  0
 15 20  2  0
 15 14  1  0
 16 15  1  0
 17 18  1  0
 17 16  2  0
 18 19  2  0
 19 20  1  0
 20 12  1  0
 21 10  1  0
 21 22  2  0
 24 23  1  1
 25 24  1  0
 26 27  1  1
 26 24  1  0
 27 21  1  0
 28 26  1  0
 29 28  1  0
 30 28  2  0
M  END
$$$$
