MWT.pdb
     RDKit          3D

 30 31  0  0  1  0  0  0  0  0999 V2000
   28.1394  -20.2346  -17.7300 C   0  0  0  0  0  0  0  0  0  0  0  0
   29.6429  -21.1331  -18.2012 S   0  0  0  0  0  0  0  0  0  0  0  0
   30.1438  -22.1877  -16.8131 C   0  0  0  0  0  0  0  0  0  0  0  0
   29.2852  -21.8270  -15.6425 C   0  0  0  0  0  0  0  0  0  0  0  0
   30.0140  -22.0545  -14.3060 C   0  0  2  0  0  0  0  0  0  0  0  0
   30.5128  -23.4097  -14.3638 N   0  0  0  0  0  0  0  0  0  0  0  0
   28.9448  -21.9583  -13.2851 C   0  0  0  0  0  0  0  0  0  0  0  0
   27.8121  -22.4088  -13.5962 O   0  0  0  0  0  0  0  0  0  0  0  0
   29.1845  -21.3847  -12.0148 N   0  0  0  0  0  0  0  0  0  0  0  0
   28.1481  -21.2510  -10.9826 C   0  0  1  0  0  0  0  0  0  0  0  0
   28.7445  -20.8890   -9.6822 C   0  0  0  0  0  0  0  0  0  0  0  0
   27.8593  -20.6433   -8.5542 C   0  0  0  0  0  0  0  0  0  0  0  0
   26.4836  -20.7111   -8.5476 C   0  0  0  0  0  0  0  0  0  0  0  0
   26.0094  -20.3865   -7.3174 N   0  0  0  0  0  0  0  0  0  0  0  0
   27.0728  -20.1124   -6.5386 C   0  0  0  0  0  0  0  0  0  0  0  0
   27.1317  -19.7474   -5.2140 C   0  0  0  0  0  0  0  0  0  0  0  0
   28.3591  -19.5218   -4.5800 C   0  0  0  0  0  0  0  0  0  0  0  0
   29.5234  -19.6706   -5.3057 C   0  0  0  0  0  0  0  0  0  0  0  0
   29.4429  -20.0336   -6.6232 C   0  0  0  0  0  0  0  0  0  0  0  0
   28.2316  -20.2667   -7.2888 C   0  0  0  0  0  0  0  0  0  0  0  0
   27.0073  -20.4874  -11.4703 C   0  0  0  0  0  0  0  0  0  0  0  0
   27.0507  -19.3310  -11.9538 O   0  0  0  0  0  0  0  0  0  0  0  0
   22.9514  -20.4624  -13.9344 C   0  0  0  0  0  0  0  0  0  0  0  0
   24.2383  -21.0801  -13.3771 C   0  0  1  0  0  0  0  0  0  0  0  0
   25.2704  -20.9389  -14.2938 O   0  0  0  0  0  0  0  0  0  0  0  0
   24.5711  -20.4397  -12.0462 C   0  0  2  0  0  0  0  0  0  0  0  0
   25.7014  -21.0709  -11.4101 N   0  0  0  0  0  0  0  0  0  0  0  0
   23.3292  -20.6275  -11.2077 C   0  0  0  0  0  0  0  0  0  0  0  0
   22.1997  -19.9194  -11.5304 O   0  0  0  0  0  0  0  0  0  0  0  0
   23.3123  -21.4079  -10.2349 O   0  0  0  0  0  0  0  0  0  0  0  0
  2  3  1  0
  2  1  1  0
  4  3  1  0
  5  4  1  0
  5  6  1  6
  7  8  2  0
  7  5  1  0
  9  7  1  0
 10  9  1  0
 10 11  1  1
 12 13  2  0
 12 11  1  0
 14 13  1  0
 15 20  2  0
 15 14  1  0
 16 15  1  0
 17 18  1  0
 17 16  2  0
 18 19  2  0
 19 20  1  0
 20 12  1  0
 21 10  1  0
 21 22  2  0
 24 23  1  6
 25 24  1  0
 26 27  1  1
 26 24  1  0
 27 21  1  0
 28 26  1  0
 29 28  1  0
 30 28  2  0
M  END
$$$$
