MWT.pdb
     RDKit          3D

 30 31  0  0  1  0  0  0  0  0999 V2000
   26.4584  -17.6720  -16.7700 C   0  0  0  0  0  0  0  0  0  0  0  0
   28.2446  -17.4468  -16.5494 S   0  0  0  0  0  0  0  0  0  0  0  0
   28.9502  -18.9995  -15.9322 C   0  0  0  0  0  0  0  0  0  0  0  0
   27.9693  -19.5861  -14.9671 C   0  0  0  0  0  0  0  0  0  0  0  0
   28.4669  -20.9214  -14.3852 C   0  0  2  0  0  0  0  0  0  0  0  0
   28.2512  -21.9006  -15.4260 N   0  0  0  0  0  0  0  0  0  0  0  0
   27.5536  -21.1888  -13.2499 C   0  0  0  0  0  0  0  0  0  0  0  0
   26.4365  -21.7003  -13.5202 O   0  0  0  0  0  0  0  0  0  0  0  0
   27.9194  -20.8827  -11.9184 N   0  0  0  0  0  0  0  0  0  0  0  0
   26.9758  -20.9253  -10.7935 C   0  0  1  0  0  0  0  0  0  0  0  0
   27.6795  -20.7415   -9.5095 C   0  0  0  0  0  0  0  0  0  0  0  0
   26.8891  -20.5776   -8.2994 C   0  0  0  0  0  0  0  0  0  0  0  0
   25.5243  -20.7145   -8.1736 C   0  0  0  0  0  0  0  0  0  0  0  0
   25.1482  -20.4546   -6.8951 N   0  0  0  0  0  0  0  0  0  0  0  0
   26.2633  -20.1532   -6.2037 C   0  0  0  0  0  0  0  0  0  0  0  0
   26.4242  -19.8293   -4.8769 C   0  0  0  0  0  0  0  0  0  0  0  0
   27.6918  -19.5633   -4.3460 C   0  0  0  0  0  0  0  0  0  0  0  0
   28.7916  -19.6296   -5.1769 C   0  0  0  0  0  0  0  0  0  0  0  0
   28.6098  -19.9528   -6.4946 C   0  0  0  0  0  0  0  0  0  0  0  0
   27.3558  -20.2245   -7.0587 C   0  0  0  0  0  0  0  0  0  0  0  0
   25.7880  -20.1269  -11.0654 C   0  0  0  0  0  0  0  0  0  0  0  0
   25.7698  -18.8956  -11.3030 O   0  0  0  0  0  0  0  0  0  0  0  0
   24.3988  -19.0965  -13.5085 C   0  0  0  0  0  0  0  0  0  0  0  0
   23.2247  -19.9322  -12.9877 C   0  0  1  0  0  0  0  0  0  0  0  0
   23.2103  -21.1727  -13.6092 O   0  0  0  0  0  0  0  0  0  0  0  0
   23.3201  -20.0541  -11.4817 C   0  0  2  0  0  0  0  0  0  0  0  0
   24.5063  -20.7646  -11.0707 N   0  0  0  0  0  0  0  0  0  0  0  0
   22.0852  -20.8248  -11.0792 C   0  0  0  0  0  0  0  0  0  0  0  0
   20.8631  -20.2082  -11.1657 O   0  0  0  0  0  0  0  0  0  0  0  0
   22.1561  -22.0018  -10.6726 O   0  0  0  0  0  0  0  0  0  0  0  0
  2  3  1  0
  2  1  1  0
  4  3  1  0
  5  4  1  0
  5  6  1  6
  7  8  2  0
  7  5  1  0
  9  7  1  0
 10  9  1  0
 10 11  1  1
 12 13  2  0
 12 11  1  0
 14 13  1  0
 15 20  2  0
 15 14  1  0
 16 15  1  0
 17 18  1  0
 17 16  2  0
 18 19  2  0
 19 20  1  0
 20 12  1  0
 21 10  1  0
 21 22  2  0
 24 23  1  6
 25 24  1  0
 26 27  1  6
 26 24  1  0
 27 21  1  0
 28 26  1  0
 29 28  1  0
 30 28  2  0
M  END
$$$$
