TPW.pdb
     RDKit          3D

 29 31  0  0  1  0  0  0  0  0999 V2000
    9.9629  -14.1490   16.6159 C   0  0  0  0  0  0  0  0  0  0  0  0
    9.8419  -14.4819   18.0806 C   0  0  1  0  0  0  0  0  0  0  0  0
   10.6399  -13.6206   18.7972 O   0  0  0  0  0  0  0  0  0  0  0  0
    8.3510  -14.3171   18.4310 C   0  0  2  0  0  0  0  0  0  0  0  0
    7.9368  -12.9675   18.1624 N   0  0  0  0  0  0  0  0  0  0  0  0
    8.0750  -14.8012   19.7865 C   0  0  0  0  0  0  0  0  0  0  0  0
    8.6184  -14.1005   20.7171 O   0  0  0  0  0  0  0  0  0  0  0  0
    7.3052  -15.9118   20.1579 N   0  0  0  0  0  0  0  0  0  0  0  0
    6.2443  -16.6318   19.4753 C   0  0  0  0  0  0  0  0  0  0  0  0
    6.6828  -18.0959   19.7079 C   0  0  0  0  0  0  0  0  0  0  0  0
    7.6897  -18.0432   20.8477 C   0  0  0  0  0  0  0  0  0  0  0  0
    7.3990  -16.6675   21.4074 C   0  0  1  0  0  0  0  0  0  0  0  0
    8.4388  -16.2620   22.3235 C   0  0  0  0  0  0  0  0  0  0  0  0
    9.2956  -15.3837   21.9578 O   0  0  0  0  0  0  0  0  0  0  0  0
    8.6380  -16.7531   23.6574 N   0  0  0  0  0  0  0  0  0  0  0  0
    9.6685  -16.1779   24.5210 C   0  0  1  0  0  0  0  0  0  0  0  0
    9.3945  -14.7558   24.8423 C   0  0  0  0  0  0  0  0  0  0  0  0
    8.1228  -14.5010   25.5418 C   0  0  0  0  0  0  0  0  0  0  0  0
    7.1637  -15.4944   25.7743 C   0  0  0  0  0  0  0  0  0  0  0  0
    6.1454  -14.9664   26.4678 N   0  0  0  0  0  0  0  0  0  0  0  0
    6.4069  -13.6604   26.6952 C   0  0  0  0  0  0  0  0  0  0  0  0
    5.6509  -12.7149   27.3538 C   0  0  0  0  0  0  0  0  0  0  0  0
    6.1275  -11.4254   27.4468 C   0  0  0  0  0  0  0  0  0  0  0  0
    7.3563  -11.0886   26.8809 C   0  0  0  0  0  0  0  0  0  0  0  0
    8.0879  -12.0656   26.2273 C   0  0  0  0  0  0  0  0  0  0  0  0
    7.6416  -13.3650   26.1173 C   0  0  0  0  0  0  0  0  0  0  0  0
    9.8421  -17.0538   25.6862 C   0  0  0  0  0  0  0  0  0  0  0  0
    9.0654  -18.1692   25.9729 O   0  0  0  0  0  0  0  0  0  0  0  0
   10.7639  -16.8114   26.5373 O   0  0  0  0  0  0  0  0  0  0  0  0
  2  1  1  6
  2  3  1  0
  4  5  1  1
  4  2  1  0
  6  4  1  0
  7  6  2  0
  8  9  1  0
  8  6  1  0
 10  9  1  0
 11 12  1  0
 11 10  1  0
 12  8  1  0
 12 13  1  1
 14 13  2  0
 15 13  1  0
 16 17  1  1
 16 15  1  0
 18 17  1  0
 19 18  2  0
 20 19  1  0
 21 20  1  0
 21 26  2  0
 22 21  1  0
 23 22  2  0
 23 24  1  0
 24 25  2  0
 25 26  1  0
 26 18  1  0
 27 16  1  0
 28 27  1  0
 29 27  2  0
M  END
$$$$
