TPW.pdb
     RDKit          3D

 29 31  0  0  1  0  0  0  0  0999 V2000
   11.0075  -14.7497   19.1760 C   0  0  0  0  0  0  0  0  0  0  0  0
   10.1461  -13.5466   18.8907 C   0  0  1  0  0  0  0  0  0  0  0  0
   10.5798  -12.9585   17.7253 O   0  0  0  0  0  0  0  0  0  0  0  0
    8.7047  -14.0762   18.7706 C   0  0  2  0  0  0  0  0  0  0  0  0
    7.8399  -13.0257   18.3084 N   0  0  0  0  0  0  0  0  0  0  0  0
    8.2845  -14.7368   20.0095 C   0  0  0  0  0  0  0  0  0  0  0  0
    8.4509  -14.0266   21.0679 O   0  0  0  0  0  0  0  0  0  0  0  0
    7.7384  -16.0195   20.1521 N   0  0  0  0  0  0  0  0  0  0  0  0
    6.9271  -16.8352   19.2654 C   0  0  0  0  0  0  0  0  0  0  0  0
    7.6446  -18.1998   19.3790 C   0  0  0  0  0  0  0  0  0  0  0  0
    8.5025  -18.1058   20.6324 C   0  0  0  0  0  0  0  0  0  0  0  0
    7.8714  -16.9074   21.3077 C   0  0  1  0  0  0  0  0  0  0  0  0
    8.7071  -16.4335   22.3856 C   0  0  0  0  0  0  0  0  0  0  0  0
    9.6044  -15.5515   22.1482 O   0  0  0  0  0  0  0  0  0  0  0  0
    8.6517  -16.8569   23.7558 N   0  0  0  0  0  0  0  0  0  0  0  0
    9.6392  -16.3854   24.7259 C   0  0  1  0  0  0  0  0  0  0  0  0
    9.4673  -14.9457   25.0394 C   0  0  0  0  0  0  0  0  0  0  0  0
    8.1274  -14.5596   25.5158 C   0  0  0  0  0  0  0  0  0  0  0  0
    7.0722  -15.4694   25.6555 C   0  0  0  0  0  0  0  0  0  0  0  0
    6.0035  -14.8284   26.1490 N   0  0  0  0  0  0  0  0  0  0  0  0
    6.3250  -13.5294   26.3352 C   0  0  0  0  0  0  0  0  0  0  0  0
    5.5516  -12.4922   26.8100 C   0  0  0  0  0  0  0  0  0  0  0  0
    6.1042  -11.2332   26.8982 C   0  0  0  0  0  0  0  0  0  0  0  0
    7.4262  -11.0181   26.5112 C   0  0  0  0  0  0  0  0  0  0  0  0
    8.1725  -12.0845   26.0395 C   0  0  0  0  0  0  0  0  0  0  0  0
    7.6515  -13.3567   25.9398 C   0  0  0  0  0  0  0  0  0  0  0  0
    9.6134  -17.2800   25.8895 C   0  0  0  0  0  0  0  0  0  0  0  0
   10.5070  -17.2383   26.9522 O   0  0  0  0  0  0  0  0  0  0  0  0
    8.7207  -18.1900   25.9774 O   0  0  0  0  0  0  0  0  0  0  0  0
  2  1  1  6
  2  3  1  0
  4  5  1  1
  4  2  1  0
  6  4  1  0
  7  6  2  0
  8  9  1  0
  8  6  1  0
 10  9  1  0
 11 12  1  0
 11 10  1  0
 12  8  1  0
 12 13  1  1
 14 13  2  0
 15 13  1  0
 16 17  1  1
 16 15  1  0
 18 17  1  0
 19 18  2  0
 20 19  1  0
 21 20  1  0
 21 26  2  0
 22 21  1  0
 23 22  2  0
 23 24  1  0
 24 25  2  0
 25 26  1  0
 26 18  1  0
 27 16  1  0
 28 27  1  0
 29 27  2  0
M  END
$$$$
