TPW.pdb
     RDKit          3D

 29 31  0  0  1  0  0  0  0  0999 V2000
    9.8944  -13.7962   16.4451 C   0  0  0  0  0  0  0  0  0  0  0  0
    9.7603  -14.3119   17.8547 C   0  0  1  0  0  0  0  0  0  0  0  0
   10.5513  -13.5488   18.6819 O   0  0  0  0  0  0  0  0  0  0  0  0
    8.2663  -14.1919   18.2097 C   0  0  2  0  0  0  0  0  0  0  0  0
    7.8303  -12.8362   18.0174 N   0  0  0  0  0  0  0  0  0  0  0  0
    7.9956  -14.7572   19.5345 C   0  0  0  0  0  0  0  0  0  0  0  0
    8.4737  -14.0685   20.5089 O   0  0  0  0  0  0  0  0  0  0  0  0
    7.2927  -15.9315   19.8360 N   0  0  0  0  0  0  0  0  0  0  0  0
    6.2985  -16.6874   19.0944 C   0  0  0  0  0  0  0  0  0  0  0  0
    6.8276  -18.1288   19.2741 C   0  0  0  0  0  0  0  0  0  0  0  0
    7.8015  -18.0625   20.4416 C   0  0  0  0  0  0  0  0  0  0  0  0
    7.4069  -16.7356   21.0532 C   0  0  1  0  0  0  0  0  0  0  0  0
    8.3953  -16.3053   22.0137 C   0  0  0  0  0  0  0  0  0  0  0  0
    9.1986  -15.3553   21.7109 O   0  0  0  0  0  0  0  0  0  0  0  0
    8.5969  -16.8445   23.3285 N   0  0  0  0  0  0  0  0  0  0  0  0
    9.6094  -16.2823   24.2213 C   0  0  1  0  0  0  0  0  0  0  0  0
    9.3896  -14.8366   24.4710 C   0  0  0  0  0  0  0  0  0  0  0  0
    8.1283  -14.4992   25.1542 C   0  0  0  0  0  0  0  0  0  0  0  0
    7.0894  -15.4188   25.3431 C   0  0  0  0  0  0  0  0  0  0  0  0
    6.1024  -14.8292   26.0321 N   0  0  0  0  0  0  0  0  0  0  0  0
    6.4614  -13.5542   26.2985 C   0  0  0  0  0  0  0  0  0  0  0  0
    5.7695  -12.5683   26.9684 C   0  0  0  0  0  0  0  0  0  0  0  0
    6.3443  -11.3235   27.1039 C   0  0  0  0  0  0  0  0  0  0  0  0
    7.6069  -11.0713   26.5691 C   0  0  0  0  0  0  0  0  0  0  0  0
    8.2720  -12.0866   25.9031 C   0  0  0  0  0  0  0  0  0  0  0  0
    7.7268  -13.3434   25.7508 C   0  0  0  0  0  0  0  0  0  0  0  0
    9.6810  -17.1153   25.4280 C   0  0  0  0  0  0  0  0  0  0  0  0
   10.7124  -17.0914   26.3581 O   0  0  0  0  0  0  0  0  0  0  0  0
    8.7474  -17.9487   25.6866 O   0  0  0  0  0  0  0  0  0  0  0  0
  2  1  1  6
  2  3  1  0
  4  5  1  1
  4  2  1  0
  6  4  1  0
  7  6  2  0
  8  9  1  0
  8  6  1  0
 10  9  1  0
 11 12  1  0
 11 10  1  0
 12  8  1  0
 12 13  1  1
 14 13  2  0
 15 13  1  0
 16 17  1  1
 16 15  1  0
 18 17  1  0
 19 18  2  0
 20 19  1  0
 21 20  1  0
 21 26  2  0
 22 21  1  0
 23 22  2  0
 23 24  1  0
 24 25  2  0
 25 26  1  0
 26 18  1  0
 27 16  1  0
 28 27  1  0
 29 27  2  0
M  END
$$$$
