TPW.pdb
     RDKit          3D

 29 31  0  0  1  0  0  0  0  0999 V2000
    5.4956  -19.5532   20.2541 C   0  0  0  0  0  0  0  0  0  0  0  0
    6.5723  -18.9079   21.0878 C   0  0  1  0  0  0  0  0  0  0  0  0
    7.2886  -19.8941   21.7254 O   0  0  0  0  0  0  0  0  0  0  0  0
    7.4434  -18.1024   20.1056 C   0  0  2  0  0  0  0  0  0  0  0  0
    8.1879  -19.0024   19.2685 N   0  0  0  0  0  0  0  0  0  0  0  0
    8.2416  -17.0987   20.8152 C   0  0  0  0  0  0  0  0  0  0  0  0
    8.9582  -17.5746   21.7703 O   0  0  0  0  0  0  0  0  0  0  0  0
    8.3008  -15.7209   20.5663 N   0  0  0  0  0  0  0  0  0  0  0  0
    8.1004  -14.9416   19.3570 C   0  0  0  0  0  0  0  0  0  0  0  0
    7.1875  -13.8097   19.8819 C   0  0  0  0  0  0  0  0  0  0  0  0
    7.3313  -13.8401   21.3966 C   0  0  0  0  0  0  0  0  0  0  0  0
    8.5926  -14.6648   21.5362 C   0  0  1  0  0  0  0  0  0  0  0  0
    8.7748  -15.0861   22.9051 C   0  0  0  0  0  0  0  0  0  0  0  0
    7.8636  -14.8369   23.7693 O   0  0  0  0  0  0  0  0  0  0  0  0
    9.9121  -15.7804   23.4385 N   0  0  0  0  0  0  0  0  0  0  0  0
   10.2352  -15.7050   24.8628 C   0  0  1  0  0  0  0  0  0  0  0  0
    9.1169  -16.1822   25.7126 C   0  0  0  0  0  0  0  0  0  0  0  0
    7.9238  -15.3177   25.7291 C   0  0  0  0  0  0  0  0  0  0  0  0
    6.6445  -15.7706   25.3839 C   0  0  0  0  0  0  0  0  0  0  0  0
    5.7680  -14.7687   25.5408 N   0  0  0  0  0  0  0  0  0  0  0  0
    6.4325  -13.6756   25.9759 C   0  0  0  0  0  0  0  0  0  0  0  0
    5.9561  -12.4150   26.2645 C   0  0  0  0  0  0  0  0  0  0  0  0
    6.8415  -11.4468   26.6851 C   0  0  0  0  0  0  0  0  0  0  0  0
    8.1975  -11.7439   26.8144 C   0  0  0  0  0  0  0  0  0  0  0  0
    8.6390  -13.0216   26.5158 C   0  0  0  0  0  0  0  0  0  0  0  0
    7.7805  -14.0141   26.0941 C   0  0  0  0  0  0  0  0  0  0  0  0
   11.5169  -16.3849   25.0865 C   0  0  0  0  0  0  0  0  0  0  0  0
   12.1369  -16.5403   26.3198 O   0  0  0  0  0  0  0  0  0  0  0  0
   12.1558  -16.8869   24.1002 O   0  0  0  0  0  0  0  0  0  0  0  0
  2  1  1  6
  2  3  1  0
  4  5  1  1
  4  2  1  0
  6  4  1  0
  7  6  2  0
  8  9  1  0
  8  6  1  0
 10  9  1  0
 11 12  1  0
 11 10  1  0
 12  8  1  0
 12 13  1  1
 14 13  2  0
 15 13  1  0
 16 17  1  1
 16 15  1  0
 18 17  1  0
 19 18  2  0
 20 19  1  0
 21 20  1  0
 21 26  2  0
 22 21  1  0
 23 22  2  0
 23 24  1  0
 24 25  2  0
 25 26  1  0
 26 18  1  0
 27 16  1  0
 28 27  1  0
 29 27  2  0
M  END
$$$$
