TPW.pdb
     RDKit          3D

 29 31  0  0  1  0  0  0  0  0999 V2000
   10.4025  -13.8317   19.1484 C   0  0  0  0  0  0  0  0  0  0  0  0
    9.0555  -13.1562   19.1388 C   0  0  1  0  0  0  0  0  0  0  0  0
    8.9924  -12.3109   18.0554 O   0  0  0  0  0  0  0  0  0  0  0  0
    8.0143  -14.2879   19.0518 C   0  0  2  0  0  0  0  0  0  0  0  0
    6.7296  -13.7390   18.7153 N   0  0  0  0  0  0  0  0  0  0  0  0
    8.0453  -15.1219   20.2566 C   0  0  0  0  0  0  0  0  0  0  0  0
    8.0747  -14.4576   21.3566 O   0  0  0  0  0  0  0  0  0  0  0  0
    8.0460  -16.5215   20.3282 N   0  0  0  0  0  0  0  0  0  0  0  0
    7.5808  -17.5426   19.4059 C   0  0  0  0  0  0  0  0  0  0  0  0
    8.7755  -18.5236   19.4227 C   0  0  0  0  0  0  0  0  0  0  0  0
    9.5781  -18.1664   20.6654 C   0  0  0  0  0  0  0  0  0  0  0  0
    8.5584  -17.3448   21.4240 C   0  0  1  0  0  0  0  0  0  0  0  0
    9.1862  -16.6381   22.5154 C   0  0  0  0  0  0  0  0  0  0  0  0
    9.9913  -15.6747   22.2641 O   0  0  0  0  0  0  0  0  0  0  0  0
    9.0100  -16.9026   23.9151 N   0  0  0  0  0  0  0  0  0  0  0  0
    9.9191  -16.3281   24.9060 C   0  0  1  0  0  0  0  0  0  0  0  0
    9.6525  -14.8869   25.1355 C   0  0  0  0  0  0  0  0  0  0  0  0
    8.2825  -14.5601   25.5686 C   0  0  0  0  0  0  0  0  0  0  0  0
    7.2566  -15.5099   25.6472 C   0  0  0  0  0  0  0  0  0  0  0  0
    6.1475  -14.9191   26.1135 N   0  0  0  0  0  0  0  0  0  0  0  0
    6.4144  -13.6143   26.3412 C   0  0  0  0  0  0  0  0  0  0  0  0
    5.5864  -12.6169   26.8091 C   0  0  0  0  0  0  0  0  0  0  0  0
    6.0892  -11.3415   26.9468 C   0  0  0  0  0  0  0  0  0  0  0  0
    7.4161  -11.0705   26.6158 C   0  0  0  0  0  0  0  0  0  0  0  0
    8.2179  -12.0982   26.1493 C   0  0  0  0  0  0  0  0  0  0  0  0
    7.7476  -13.3853   26.0011 C   0  0  0  0  0  0  0  0  0  0  0  0
    9.8827  -17.1644   26.1120 C   0  0  0  0  0  0  0  0  0  0  0  0
   10.7096  -17.0122   27.2177 O   0  0  0  0  0  0  0  0  0  0  0  0
    9.0450  -18.1254   26.1992 O   0  0  0  0  0  0  0  0  0  0  0  0
  2  1  1  6
  2  3  1  0
  4  5  1  1
  4  2  1  0
  6  4  1  0
  7  6  2  0
  8  9  1  0
  8  6  1  0
 10  9  1  0
 11 12  1  0
 11 10  1  0
 12  8  1  0
 12 13  1  1
 14 13  2  0
 15 13  1  0
 16 17  1  1
 16 15  1  0
 18 17  1  0
 19 18  2  0
 20 19  1  0
 21 20  1  0
 21 26  2  0
 22 21  1  0
 23 22  2  0
 23 24  1  0
 24 25  2  0
 25 26  1  0
 26 18  1  0
 27 16  1  0
 28 27  1  0
 29 27  2  0
M  END
$$$$
