LDN.pdb
     RDKit          3D

 25 24  0  0  1  0  0  0  0  0999 V2000
    7.5837  -12.0413   19.6407 C   0  0  0  0  0  0  0  0  0  0  0  0
    7.7410  -13.2274   18.7278 C   0  0  2  0  0  0  0  0  0  0  0  0
    6.4181  -13.9564   18.6566 C   0  0  0  0  0  0  0  0  0  0  0  0
    8.8117  -14.1933   19.1437 C   0  0  0  0  0  0  0  0  0  0  0  0
   10.1024  -13.4954   19.5278 C   0  0  2  0  0  0  0  0  0  0  0  0
   10.5719  -12.6861   18.4153 N   0  0  0  0  0  0  0  0  0  0  0  0
   11.1031  -14.5089   19.9268 C   0  0  0  0  0  0  0  0  0  0  0  0
   10.7366  -15.5329   20.6096 O   0  0  0  0  0  0  0  0  0  0  0  0
   12.4640  -14.4077   19.5885 N   0  0  0  0  0  0  0  0  0  0  0  0
   13.4994  -15.3540   19.8118 C   0  0  1  0  0  0  0  0  0  0  0  0
   14.7931  -15.0604   19.0427 C   0  0  0  0  0  0  0  0  0  0  0  0
   14.5947  -15.1854   17.5810 C   0  0  0  0  0  0  0  0  0  0  0  0
   14.1015  -16.2570   17.1353 O   0  0  0  0  0  0  0  0  0  0  0  0
   13.9304  -15.4394   21.2485 C   0  0  0  0  0  0  0  0  0  0  0  0
   14.0696  -14.3267   21.8100 O   0  0  0  0  0  0  0  0  0  0  0  0
   14.9209  -14.1901   16.6687 O   0  0  0  0  0  0  0  0  0  0  0  0
   17.9090  -15.4081   22.7927 N   0  0  0  0  0  0  0  0  0  0  0  0
   16.9255  -16.3167   23.2412 C   0  0  0  0  0  0  0  0  0  0  0  0
   17.1798  -17.5405   23.2444 O   0  0  0  0  0  0  0  0  0  0  0  0
   15.6157  -15.8321   23.7006 C   0  0  0  0  0  0  0  0  0  0  0  0
   14.5297  -16.7791   23.2710 C   0  0  2  0  0  0  0  0  0  0  0  0
   14.1514  -16.6511   21.8985 N   0  0  0  0  0  0  0  0  0  0  0  0
   13.3828  -16.7028   24.1984 C   0  0  0  0  0  0  0  0  0  0  0  0
   13.6208  -16.3700   25.5659 O   0  0  0  0  0  0  0  0  0  0  0  0
   12.1974  -16.8997   23.9253 O   0  0  0  0  0  0  0  0  0  0  0  0
  2  1  1  1
  2  3  1  0
  4  5  1  0
  4  2  1  0
  5  6  1  6
  5  7  1  0
  7  8  2  0
  9  7  1  0
  9 10  1  0
 10 14  1  0
 10 11  1  6
 12 11  1  0
 13 12  2  0
 14 15  2  0
 16 12  1  0
 17 18  1  0
 18 20  1  0
 19 18  2  0
 21 20  1  1
 21 23  1  0
 22 21  1  0
 22 14  1  0
 23 25  2  0
 23 24  1  0
M  END
$$$$
