LDN.pdb
     RDKit          3D

 25 24  0  0  1  0  0  0  0  0999 V2000
    7.9115  -13.1900   17.5034 C   0  0  0  0  0  0  0  0  0  0  0  0
    7.4735  -13.4295   18.9231 C   0  0  2  0  0  0  0  0  0  0  0  0
    6.5397  -12.3124   19.3316 C   0  0  0  0  0  0  0  0  0  0  0  0
    8.5976  -13.5161   19.9135 C   0  0  0  0  0  0  0  0  0  0  0  0
    9.5396  -14.6680   19.6195 C   0  0  2  0  0  0  0  0  0  0  0  0
    8.7736  -15.8839   19.4004 N   0  0  0  0  0  0  0  0  0  0  0  0
   10.4913  -14.8166   20.7421 C   0  0  0  0  0  0  0  0  0  0  0  0
   11.2141  -13.8180   21.1019 O   0  0  0  0  0  0  0  0  0  0  0  0
   10.6476  -16.0202   21.4518 N   0  0  0  0  0  0  0  0  0  0  0  0
   11.5728  -16.3176   22.4875 C   0  0  1  0  0  0  0  0  0  0  0  0
   11.3084  -17.6492   23.2006 C   0  0  0  0  0  0  0  0  0  0  0  0
   12.1921  -17.8192   24.3761 C   0  0  0  0  0  0  0  0  0  0  0  0
   13.3212  -18.3531   24.2013 O   0  0  0  0  0  0  0  0  0  0  0  0
   12.9921  -16.4269   22.0069 C   0  0  0  0  0  0  0  0  0  0  0  0
   13.2020  -17.3983   21.2421 O   0  0  0  0  0  0  0  0  0  0  0  0
   11.8505  -17.4252   25.6634 O   0  0  0  0  0  0  0  0  0  0  0  0
   14.8387  -15.3774   19.1971 N   0  0  0  0  0  0  0  0  0  0  0  0
   15.4462  -14.2493   19.7909 C   0  0  0  0  0  0  0  0  0  0  0  0
   15.7323  -13.2631   19.0784 O   0  0  0  0  0  0  0  0  0  0  0  0
   15.7400  -14.2314   21.2314 C   0  0  0  0  0  0  0  0  0  0  0  0
   15.3195  -15.5285   21.8650 C   0  0  2  0  0  0  0  0  0  0  0  0
   13.9851  -15.5235   22.3775 N   0  0  0  0  0  0  0  0  0  0  0  0
   16.3210  -15.9649   22.8590 C   0  0  0  0  0  0  0  0  0  0  0  0
   16.1421  -15.5985   24.2270 O   0  0  0  0  0  0  0  0  0  0  0  0
   17.3335  -16.6333   22.6433 O   0  0  0  0  0  0  0  0  0  0  0  0
  2  1  1  6
  2  3  1  0
  4  5  1  0
  4  2  1  0
  5  6  1  1
  5  7  1  0
  7  8  2  0
  9  7  1  0
  9 10  1  0
 10 14  1  0
 10 11  1  6
 12 11  1  0
 13 12  2  0
 14 15  2  0
 16 12  1  0
 17 18  1  0
 18 20  1  0
 19 18  2  0
 21 20  1  1
 21 23  1  0
 22 21  1  0
 22 14  1  0
 23 25  2  0
 23 24  1  0
M  END
$$$$
