LDN.pdb
     RDKit          3D

 25 24  0  0  1  0  0  0  0  0999 V2000
    8.4647  -12.0567   19.0296 C   0  0  0  0  0  0  0  0  0  0  0  0
    7.5617  -13.2546   18.9097 C   0  0  2  0  0  0  0  0  0  0  0  0
    6.2130  -12.8988   19.4938 C   0  0  0  0  0  0  0  0  0  0  0  0
    8.0780  -14.4913   19.5850 C   0  0  0  0  0  0  0  0  0  0  0  0
    9.5498  -14.7302   19.3071 C   0  0  2  0  0  0  0  0  0  0  0  0
    9.7464  -14.9810   17.8888 N   0  0  0  0  0  0  0  0  0  0  0  0
   10.0232  -15.8623   20.1330 C   0  0  0  0  0  0  0  0  0  0  0  0
    9.8471  -15.8414   21.4048 O   0  0  0  0  0  0  0  0  0  0  0  0
   10.6686  -16.9849   19.5854 N   0  0  0  0  0  0  0  0  0  0  0  0
   11.2098  -18.1081   20.2658 C   0  0  1  0  0  0  0  0  0  0  0  0
   11.3596  -19.3584   19.3907 C   0  0  0  0  0  0  0  0  0  0  0  0
   10.1351  -19.6159   18.5996 C   0  0  0  0  0  0  0  0  0  0  0  0
    9.0690  -19.8800   19.2194 O   0  0  0  0  0  0  0  0  0  0  0  0
   12.5885  -17.8676   20.8123 C   0  0  0  0  0  0  0  0  0  0  0  0
   13.2180  -18.9142   21.0967 O   0  0  0  0  0  0  0  0  0  0  0  0
   10.0905  -19.5844   17.2118 O   0  0  0  0  0  0  0  0  0  0  0  0
   14.1232  -14.2147   18.8205 N   0  0  0  0  0  0  0  0  0  0  0  0
   15.0016  -15.0827   19.5054 C   0  0  0  0  0  0  0  0  0  0  0  0
   15.7306  -15.8574   18.8492 O   0  0  0  0  0  0  0  0  0  0  0  0
   15.0613  -15.0775   20.9744 C   0  0  0  0  0  0  0  0  0  0  0  0
   14.4128  -16.3165   21.5267 C   0  0  2  0  0  0  0  0  0  0  0  0
   13.1197  -16.5916   20.9831 N   0  0  0  0  0  0  0  0  0  0  0  0
   14.4280  -16.2917   23.0033 C   0  0  0  0  0  0  0  0  0  0  0  0
   15.6796  -16.1738   23.6796 O   0  0  0  0  0  0  0  0  0  0  0  0
   13.4532  -16.3637   23.7536 O   0  0  0  0  0  0  0  0  0  0  0  0
  2  1  1  1
  2  3  1  0
  4  5  1  0
  4  2  1  0
  5  6  1  6
  5  7  1  0
  7  8  2  0
  9  7  1  0
  9 10  1  0
 10 14  1  0
 10 11  1  6
 12 11  1  0
 13 12  2  0
 14 15  2  0
 16 12  1  0
 17 18  1  0
 18 20  1  0
 19 18  2  0
 21 20  1  6
 21 23  1  0
 22 21  1  0
 22 14  1  0
 23 25  2  0
 23 24  1  0
M  END
$$$$
