LDN.pdb
     RDKit          3D

 25 24  0  0  1  0  0  0  0  0999 V2000
    9.1349  -11.8073   19.7800 C   0  0  0  0  0  0  0  0  0  0  0  0
    8.2972  -12.8627   19.1097 C   0  0  2  0  0  0  0  0  0  0  0  0
    6.8647  -12.3806   19.0643 C   0  0  0  0  0  0  0  0  0  0  0  0
    8.3418  -14.2065   19.7762 C   0  0  0  0  0  0  0  0  0  0  0  0
    9.7186  -14.5367   20.3204 C   0  0  2  0  0  0  0  0  0  0  0  0
   10.6955  -14.4867   19.2452 N   0  0  0  0  0  0  0  0  0  0  0  0
    9.6810  -15.8684   20.9631 C   0  0  0  0  0  0  0  0  0  0  0  0
    8.7825  -16.1266   21.8435 O   0  0  0  0  0  0  0  0  0  0  0  0
   10.5970  -16.8886   20.6519 N   0  0  0  0  0  0  0  0  0  0  0  0
   10.6701  -18.2006   21.1911 C   0  0  1  0  0  0  0  0  0  0  0  0
   11.1620  -19.2599   20.1975 C   0  0  0  0  0  0  0  0  0  0  0  0
   10.2035  -19.4455   19.0847 C   0  0  0  0  0  0  0  0  0  0  0  0
    9.7860  -18.4207   18.4798 O   0  0  0  0  0  0  0  0  0  0  0  0
   11.6118  -18.3155   22.3561 C   0  0  0  0  0  0  0  0  0  0  0  0
   11.8723  -19.4955   22.6915 O   0  0  0  0  0  0  0  0  0  0  0  0
    9.7350  -20.6843   18.6665 O   0  0  0  0  0  0  0  0  0  0  0  0
   12.4496  -15.7259   27.2640 N   0  0  0  0  0  0  0  0  0  0  0  0
   11.6246  -16.7023   26.6640 C   0  0  0  0  0  0  0  0  0  0  0  0
   11.1793  -17.6389   27.3618 O   0  0  0  0  0  0  0  0  0  0  0  0
   11.2904  -16.6211   25.2346 C   0  0  0  0  0  0  0  0  0  0  0  0
   12.4309  -17.1386   24.4026 C   0  0  2  0  0  0  0  0  0  0  0  0
   12.1501  -17.2057   23.0027 N   0  0  0  0  0  0  0  0  0  0  0  0
   12.9352  -18.4122   24.9548 C   0  0  0  0  0  0  0  0  0  0  0  0
   14.2825  -18.4777   25.4218 O   0  0  0  0  0  0  0  0  0  0  0  0
   12.3101  -19.4683   25.0660 O   0  0  0  0  0  0  0  0  0  0  0  0
  2  1  1  1
  2  3  1  0
  4  5  1  0
  4  2  1  0
  5  6  1  6
  5  7  1  0
  7  8  2  0
  9  7  1  0
  9 10  1  0
 10 14  1  0
 10 11  1  6
 12 11  1  0
 13 12  2  0
 14 15  2  0
 16 12  1  0
 17 18  1  0
 18 20  1  0
 19 18  2  0
 21 20  1  1
 21 23  1  0
 22 21  1  0
 22 14  1  0
 23 25  2  0
 23 24  1  0
M  END
$$$$
