LDN.pdb
     RDKit          3D

 25 24  0  0  1  0  0  0  0  0999 V2000
    8.1081  -12.1777   20.5064 C   0  0  0  0  0  0  0  0  0  0  0  0
    8.2285  -13.0720   19.3020 C   0  0  2  0  0  0  0  0  0  0  0  0
    6.9915  -12.8980   18.4499 C   0  0  0  0  0  0  0  0  0  0  0  0
    8.4015  -14.5274   19.6243 C   0  0  0  0  0  0  0  0  0  0  0  0
    9.4623  -14.7632   20.6825 C   0  0  2  0  0  0  0  0  0  0  0  0
   10.6024  -13.8960   20.4353 N   0  0  0  0  0  0  0  0  0  0  0  0
    9.8494  -16.1907   20.6735 C   0  0  0  0  0  0  0  0  0  0  0  0
    8.9587  -17.0944   20.8709 O   0  0  0  0  0  0  0  0  0  0  0  0
   11.1705  -16.6185   20.4535 N   0  0  0  0  0  0  0  0  0  0  0  0
   11.6659  -17.9481   20.3878 C   0  0  1  0  0  0  0  0  0  0  0  0
   12.6801  -18.1839   19.2621 C   0  0  0  0  0  0  0  0  0  0  0  0
   12.0861  -17.9166   17.9327 C   0  0  0  0  0  0  0  0  0  0  0  0
   12.3734  -16.8314   17.3582 O   0  0  0  0  0  0  0  0  0  0  0  0
   12.3848  -18.3796   21.6345 C   0  0  0  0  0  0  0  0  0  0  0  0
   12.8561  -19.5404   21.5798 O   0  0  0  0  0  0  0  0  0  0  0  0
   11.2283  -18.7919   17.2792 O   0  0  0  0  0  0  0  0  0  0  0  0
   15.3601  -15.5080   22.8283 N   0  0  0  0  0  0  0  0  0  0  0  0
   15.1856  -16.8033   23.3630 C   0  0  0  0  0  0  0  0  0  0  0  0
   15.8593  -17.7504   22.9032 O   0  0  0  0  0  0  0  0  0  0  0  0
   14.2232  -17.0389   24.4492 C   0  0  0  0  0  0  0  0  0  0  0  0
   13.1247  -17.9535   23.9829 C   0  0  2  0  0  0  0  0  0  0  0  0
   12.5177  -17.5576   22.7508 N   0  0  0  0  0  0  0  0  0  0  0  0
   12.1460  -18.1774   25.0661 C   0  0  0  0  0  0  0  0  0  0  0  0
   10.7647  -17.9209   24.8133 O   0  0  0  0  0  0  0  0  0  0  0  0
   12.3854  -18.5743   26.2078 O   0  0  0  0  0  0  0  0  0  0  0  0
  2  1  1  1
  2  3  1  0
  4  5  1  0
  4  2  1  0
  5  6  1  6
  5  7  1  0
  7  8  2  0
  9  7  1  0
  9 10  1  0
 10 14  1  0
 10 11  1  6
 12 11  1  0
 13 12  2  0
 14 15  2  0
 16 12  1  0
 17 18  1  0
 18 20  1  0
 19 18  2  0
 21 20  1  1
 21 23  1  0
 22 21  1  0
 22 14  1  0
 23 25  2  0
 23 24  1  0
M  END
$$$$
