LDN.pdb
     RDKit          3D

 25 24  0  0  1  0  0  0  0  0999 V2000
    8.0271  -12.9642   19.0925 C   0  0  0  0  0  0  0  0  0  0  0  0
    7.5930  -13.5611   20.4040 C   0  0  2  0  0  0  0  0  0  0  0  0
    7.4885  -12.4507   21.4251 C   0  0  0  0  0  0  0  0  0  0  0  0
    8.5054  -14.6291   20.9323 C   0  0  0  0  0  0  0  0  0  0  0  0
    8.6544  -15.7909   19.9687 C   0  0  2  0  0  0  0  0  0  0  0  0
    7.3515  -16.3789   19.7047 N   0  0  0  0  0  0  0  0  0  0  0  0
    9.5944  -16.7795   20.5405 C   0  0  0  0  0  0  0  0  0  0  0  0
    9.1497  -17.7242   21.2881 O   0  0  0  0  0  0  0  0  0  0  0  0
   10.9792  -16.7384   20.3013 N   0  0  0  0  0  0  0  0  0  0  0  0
   11.9786  -17.6384   20.7580 C   0  0  1  0  0  0  0  0  0  0  0  0
   13.3011  -17.5500   19.9870 C   0  0  0  0  0  0  0  0  0  0  0  0
   13.1627  -18.0788   18.6113 C   0  0  0  0  0  0  0  0  0  0  0  0
   12.4141  -19.0770   18.4284 O   0  0  0  0  0  0  0  0  0  0  0  0
   12.3676  -17.4205   22.1928 C   0  0  0  0  0  0  0  0  0  0  0  0
   12.7259  -16.2478   22.4553 O   0  0  0  0  0  0  0  0  0  0  0  0
   13.8104  -17.5399   17.5071 O   0  0  0  0  0  0  0  0  0  0  0  0
   11.9910  -19.8060   27.8910 N   0  0  0  0  0  0  0  0  0  0  0  0
   12.4561  -18.9891   26.8371 C   0  0  0  0  0  0  0  0  0  0  0  0
   13.1918  -18.0133   27.0991 O   0  0  0  0  0  0  0  0  0  0  0  0
   12.0814  -19.2807   25.4457 C   0  0  0  0  0  0  0  0  0  0  0  0
   12.7029  -18.2748   24.5170 C   0  0  2  0  0  0  0  0  0  0  0  0
   12.3285  -18.4344   23.1467 N   0  0  0  0  0  0  0  0  0  0  0  0
   14.1654  -18.2239   24.7165 C   0  0  0  0  0  0  0  0  0  0  0  0
   14.7539  -17.0217   25.2125 O   0  0  0  0  0  0  0  0  0  0  0  0
   14.9729  -19.1288   24.4981 O   0  0  0  0  0  0  0  0  0  0  0  0
  2  1  1  6
  2  3  1  0
  4  5  1  0
  4  2  1  0
  5  6  1  1
  5  7  1  0
  7  8  2  0
  9  7  1  0
  9 10  1  0
 10 14  1  0
 10 11  1  6
 12 11  1  0
 13 12  2  0
 14 15  2  0
 16 12  1  0
 17 18  1  0
 18 20  1  0
 19 18  2  0
 21 20  1  1
 21 23  1  0
 22 21  1  0
 22 14  1  0
 23 25  2  0
 23 24  1  0
M  END
$$$$
