PMW.pdb
     RDKit          3D

 30 32  0  0  1  0  0  0  0  0999 V2000
   14.6532  -18.9524    3.4784 N   0  0  0  0  0  0  0  0  0  0  0  0
   14.2789  -18.3424    2.2112 C   0  0  0  0  0  0  0  0  0  0  0  0
   14.4523  -16.8645    2.5708 C   0  0  0  0  0  0  0  0  0  0  0  0
   15.5442  -16.8454    3.6213 C   0  0  0  0  0  0  0  0  0  0  0  0
   15.9159  -18.2847    3.7332 C   0  0  1  0  0  0  0  0  0  0  0  0
   16.5098  -18.6674    5.0204 C   0  0  0  0  0  0  0  0  0  0  0  0
   15.8251  -18.9012    6.0433 O   0  0  0  0  0  0  0  0  0  0  0  0
   20.7132  -22.5915    4.3295 C   0  0  0  0  0  0  0  0  0  0  0  0
   20.0014  -22.8438    5.9754 S   0  0  0  0  0  0  0  0  0  0  0  0
   18.6961  -21.5671    6.1832 C   0  0  0  0  0  0  0  0  0  0  0  0
   19.3973  -20.2603    6.2825 C   0  0  0  0  0  0  0  0  0  0  0  0
   18.5104  -19.0580    6.4488 C   0  0  2  0  0  0  0  0  0  0  0  0
   17.9095  -18.7956    5.1813 N   0  0  0  0  0  0  0  0  0  0  0  0
   19.1725  -17.8980    7.0618 C   0  0  0  0  0  0  0  0  0  0  0  0
   20.1002  -17.3173    6.4435 O   0  0  0  0  0  0  0  0  0  0  0  0
   18.8466  -17.3553    8.3343 N   0  0  0  0  0  0  0  0  0  0  0  0
   19.5458  -16.1992    8.9085 C   0  0  1  0  0  0  0  0  0  0  0  0
   18.6243  -15.0207    8.9764 C   0  0  0  0  0  0  0  0  0  0  0  0
   18.4698  -14.3306    7.6940 C   0  0  0  0  0  0  0  0  0  0  0  0
   17.4037  -14.5053    6.7955 C   0  0  0  0  0  0  0  0  0  0  0  0
   17.6064  -13.7483    5.7064 N   0  0  0  0  0  0  0  0  0  0  0  0
   18.7588  -13.0742    5.8351 C   0  0  0  0  0  0  0  0  0  0  0  0
   19.4210  -12.1573    5.0312 C   0  0  0  0  0  0  0  0  0  0  0  0
   20.5993  -11.5927    5.4274 C   0  0  0  0  0  0  0  0  0  0  0  0
   21.1463  -11.9396    6.6534 C   0  0  0  0  0  0  0  0  0  0  0  0
   20.4844  -12.8400    7.4270 C   0  0  0  0  0  0  0  0  0  0  0  0
   19.3024  -13.4316    7.0710 C   0  0  0  0  0  0  0  0  0  0  0  0
   20.2031  -16.5199   10.1682 C   0  0  0  0  0  0  0  0  0  0  0  0
   21.0875  -15.6081   10.7802 O   0  0  0  0  0  0  0  0  0  0  0  0
   20.0403  -17.5949   10.7865 O   0  0  0  0  0  0  0  0  0  0  0  0
  1  2  1  0
  3  2  1  0
  4  3  1  0
  5  6  1  1
  5  4  1  0
  5  1  1  0
  6  7  2  0
  9  8  1  0
 10 11  1  0
 10  9  1  0
 12 11  1  6
 12 14  1  0
 13 12  1  0
 13  6  1  0
 14 15  2  0
 14 16  1  0
 16 17  1  0
 17 28  1  0
 17 18  1  1
 19 18  1  0
 20 19  2  0
 21 20  1  0
 22 21  1  0
 22 27  2  0
 23 22  1  0
 24 23  2  0
 24 25  1  0
 25 26  2  0
 26 27  1  0
 27 19  1  0
 28 30  2  0
 28 29  1  0
M  END
$$$$
