PMW.pdb
     RDKit          3D

 30 32  0  0  1  0  0  0  0  0999 V2000
   27.8076  -19.2264  -15.9499 N   0  0  0  0  0  0  0  0  0  0  0  0
   28.7530  -19.0766  -17.0461 C   0  0  0  0  0  0  0  0  0  0  0  0
   29.5494  -20.3740  -16.8840 C   0  0  0  0  0  0  0  0  0  0  0  0
   28.5661  -21.3623  -16.2905 C   0  0  0  0  0  0  0  0  0  0  0  0
   27.3095  -20.5645  -16.2081 C   0  0  1  0  0  0  0  0  0  0  0  0
   26.3577  -21.0216  -15.1878 C   0  0  0  0  0  0  0  0  0  0  0  0
   25.4328  -21.8305  -15.4332 O   0  0  0  0  0  0  0  0  0  0  0  0
   25.2892  -21.0193   -7.4069 C   0  0  0  0  0  0  0  0  0  0  0  0
   26.3569  -20.7960   -8.8524 S   0  0  0  0  0  0  0  0  0  0  0  0
   25.2913  -21.0270  -10.3316 C   0  0  0  0  0  0  0  0  0  0  0  0
   26.1578  -20.7900  -11.5159 C   0  0  0  0  0  0  0  0  0  0  0  0
   25.4967  -20.9782  -12.8527 C   0  0  2  0  0  0  0  0  0  0  0  0
   26.4316  -20.5679  -13.8498 N   0  0  0  0  0  0  0  0  0  0  0  0
   24.1713  -20.3535  -12.9655 C   0  0  0  0  0  0  0  0  0  0  0  0
   24.0809  -19.1011  -13.0243 O   0  0  0  0  0  0  0  0  0  0  0  0
   22.9406  -21.0627  -13.0159 N   0  0  0  0  0  0  0  0  0  0  0  0
   21.6361  -20.3902  -13.0488 C   0  0  1  0  0  0  0  0  0  0  0  0
   21.5513  -19.4869  -14.2402 C   0  0  0  0  0  0  0  0  0  0  0  0
   21.6904  -20.1939  -15.5151 C   0  0  0  0  0  0  0  0  0  0  0  0
   21.0666  -21.4079  -15.8484 C   0  0  0  0  0  0  0  0  0  0  0  0
   21.4497  -21.7865  -17.0773 N   0  0  0  0  0  0  0  0  0  0  0  0
   22.3007  -20.8810  -17.5822 C   0  0  0  0  0  0  0  0  0  0  0  0
   22.9682  -20.7730  -18.7939 C   0  0  0  0  0  0  0  0  0  0  0  0
   23.7766  -19.7057  -19.0617 C   0  0  0  0  0  0  0  0  0  0  0  0
   23.9354  -18.7113  -18.1085 C   0  0  0  0  0  0  0  0  0  0  0  0
   23.2747  -18.8344  -16.9271 C   0  0  0  0  0  0  0  0  0  0  0  0
   22.4555  -19.8856  -16.6148 C   0  0  0  0  0  0  0  0  0  0  0  0
   20.5275  -21.3272  -12.9264 C   0  0  0  0  0  0  0  0  0  0  0  0
   19.1996  -20.8706  -12.7996 O   0  0  0  0  0  0  0  0  0  0  0  0
   20.6617  -22.5707  -12.9242 O   0  0  0  0  0  0  0  0  0  0  0  0
  1  2  1  0
  3  2  1  0
  4  3  1  0
  5  6  1  1
  5  4  1  0
  5  1  1  0
  6  7  2  0
  9  8  1  0
 10 11  1  0
 10  9  1  0
 12 11  1  1
 12 14  1  0
 13 12  1  0
 13  6  1  0
 14 15  2  0
 14 16  1  0
 16 17  1  0
 17 28  1  0
 17 18  1  6
 19 18  1  0
 20 19  2  0
 21 20  1  0
 22 21  1  0
 22 27  2  0
 23 22  1  0
 24 23  2  0
 24 25  1  0
 25 26  2  0
 26 27  1  0
 27 19  1  0
 28 30  2  0
 28 29  1  0
M  END
$$$$
