PMW.pdb
     RDKit          3D

 30 32  0  0  1  0  0  0  0  0999 V2000
   27.3255  -19.1882  -14.8253 N   0  0  0  0  0  0  0  0  0  0  0  0
   28.2865  -18.9692  -15.8962 C   0  0  0  0  0  0  0  0  0  0  0  0
   29.3462  -20.0053  -15.5127 C   0  0  0  0  0  0  0  0  0  0  0  0
   28.5769  -21.1084  -14.8147 C   0  0  0  0  0  0  0  0  0  0  0  0
   27.1680  -20.6286  -14.8987 C   0  0  1  0  0  0  0  0  0  0  0  0
   26.2769  -21.1550  -13.8571 C   0  0  0  0  0  0  0  0  0  0  0  0
   25.6458  -22.2304  -13.9808 O   0  0  0  0  0  0  0  0  0  0  0  0
   27.3225  -19.5810   -8.2079 C   0  0  0  0  0  0  0  0  0  0  0  0
   25.8719  -20.5028   -7.6376 S   0  0  0  0  0  0  0  0  0  0  0  0
   24.8787  -20.8947   -9.1331 C   0  0  0  0  0  0  0  0  0  0  0  0
   25.7501  -20.6115  -10.3035 C   0  0  0  0  0  0  0  0  0  0  0  0
   25.1540  -20.9225  -11.6479 C   0  0  2  0  0  0  0  0  0  0  0  0
   26.0771  -20.4678  -12.6367 N   0  0  0  0  0  0  0  0  0  0  0  0
   23.7791  -20.4355  -11.8273 C   0  0  0  0  0  0  0  0  0  0  0  0
   23.5659  -19.1990  -11.9031 O   0  0  0  0  0  0  0  0  0  0  0  0
   22.6297  -21.2656  -11.9263 N   0  0  0  0  0  0  0  0  0  0  0  0
   21.2929  -20.7401  -12.2297 C   0  0  1  0  0  0  0  0  0  0  0  0
   21.3619  -19.7920  -13.3868 C   0  0  0  0  0  0  0  0  0  0  0  0
   21.8465  -20.4160  -14.6198 C   0  0  0  0  0  0  0  0  0  0  0  0
   21.5298  -21.7127  -15.0584 C   0  0  0  0  0  0  0  0  0  0  0  0
   22.1804  -21.9704  -16.2032 N   0  0  0  0  0  0  0  0  0  0  0  0
   22.9173  -20.9053  -16.5515 C   0  0  0  0  0  0  0  0  0  0  0  0
   23.7479  -20.6327  -17.6292 C   0  0  0  0  0  0  0  0  0  0  0  0
   24.3728  -19.4249  -17.7510 C   0  0  0  0  0  0  0  0  0  0  0  0
   24.1763  -18.4520  -16.7828 C   0  0  0  0  0  0  0  0  0  0  0  0
   23.3605  -18.7369  -15.7337 C   0  0  0  0  0  0  0  0  0  0  0  0
   22.7144  -19.9326  -15.5700 C   0  0  0  0  0  0  0  0  0  0  0  0
   20.3034  -21.7984  -12.3796 C   0  0  0  0  0  0  0  0  0  0  0  0
   18.9277  -21.5014  -12.4650 O   0  0  0  0  0  0  0  0  0  0  0  0
   20.5867  -23.0151  -12.4423 O   0  0  0  0  0  0  0  0  0  0  0  0
  1  2  1  0
  3  2  1  0
  4  3  1  0
  5  6  1  1
  5  4  1  0
  5  1  1  0
  6  7  2  0
  9  8  1  0
 10 11  1  0
 10  9  1  0
 12 11  1  1
 12 14  1  0
 13 12  1  0
 13  6  1  0
 14 15  2  0
 14 16  1  0
 16 17  1  0
 17 28  1  0
 17 18  1  6
 19 18  1  0
 20 19  2  0
 21 20  1  0
 22 21  1  0
 22 27  2  0
 23 22  1  0
 24 23  2  0
 24 25  1  0
 25 26  2  0
 26 27  1  0
 27 19  1  0
 28 30  2  0
 28 29  1  0
M  END
$$$$
