PMW.pdb
     RDKit          3D

 30 32  0  0  1  0  0  0  0  0999 V2000
   27.6618  -19.5244  -14.4800 N   0  0  0  0  0  0  0  0  0  0  0  0
   28.4708  -19.4194  -15.6853 C   0  0  0  0  0  0  0  0  0  0  0  0
   29.2941  -20.7041  -15.5605 C   0  0  0  0  0  0  0  0  0  0  0  0
   28.3973  -21.6696  -14.8126 C   0  0  0  0  0  0  0  0  0  0  0  0
   27.1508  -20.8752  -14.6186 C   0  0  1  0  0  0  0  0  0  0  0  0
   26.3297  -21.2906  -13.4743 C   0  0  0  0  0  0  0  0  0  0  0  0
   25.5801  -22.2942  -13.5029 O   0  0  0  0  0  0  0  0  0  0  0  0
   28.1228  -19.7113   -8.0143 C   0  0  0  0  0  0  0  0  0  0  0  0
   26.6239  -20.3984   -7.2657 S   0  0  0  0  0  0  0  0  0  0  0  0
   25.4512  -20.7218   -8.6431 C   0  0  0  0  0  0  0  0  0  0  0  0
   26.2412  -20.6309   -9.8989 C   0  0  0  0  0  0  0  0  0  0  0  0
   25.4811  -20.9067  -11.1661 C   0  0  2  0  0  0  0  0  0  0  0  0
   26.3382  -20.5706  -12.2565 N   0  0  0  0  0  0  0  0  0  0  0  0
   24.1511  -20.2840  -11.2215 C   0  0  0  0  0  0  0  0  0  0  0  0
   24.0504  -19.0331  -11.1495 O   0  0  0  0  0  0  0  0  0  0  0  0
   22.9268  -20.9937  -11.3538 N   0  0  0  0  0  0  0  0  0  0  0  0
   21.6315  -20.3218  -11.5150 C   0  0  1  0  0  0  0  0  0  0  0  0
   21.6966  -19.3405  -12.6443 C   0  0  0  0  0  0  0  0  0  0  0  0
   21.8947  -19.9719  -13.9507 C   0  0  0  0  0  0  0  0  0  0  0  0
   21.2237  -21.1156  -14.4155 C   0  0  0  0  0  0  0  0  0  0  0  0
   21.6818  -21.4401  -15.6341 N   0  0  0  0  0  0  0  0  0  0  0  0
   22.6280  -20.5655  -16.0067 C   0  0  0  0  0  0  0  0  0  0  0  0
   23.3988  -20.4265  -17.1522 C   0  0  0  0  0  0  0  0  0  0  0  0
   24.2933  -19.4030  -17.2811 C   0  0  0  0  0  0  0  0  0  0  0  0
   24.4365  -18.4855  -16.2514 C   0  0  0  0  0  0  0  0  0  0  0  0
   23.6741  -18.6381  -15.1366 C   0  0  0  0  0  0  0  0  0  0  0  0
   22.7661  -19.6476  -14.9632 C   0  0  0  0  0  0  0  0  0  0  0  0
   20.5258  -21.2659  -11.6037 C   0  0  0  0  0  0  0  0  0  0  0  0
   20.7596  -22.6526  -11.7061 O   0  0  0  0  0  0  0  0  0  0  0  0
   19.3205  -20.9319  -11.5963 O   0  0  0  0  0  0  0  0  0  0  0  0
  1  2  1  0
  3  2  1  0
  4  3  1  0
  5  6  1  1
  5  4  1  0
  5  1  1  0
  6  7  2  0
  9  8  1  0
 10 11  1  0
 10  9  1  0
 12 11  1  1
 12 14  1  0
 13 12  1  0
 13  6  1  0
 14 15  2  0
 14 16  1  0
 16 17  1  0
 17 28  1  0
 17 18  1  6
 19 18  1  0
 20 19  2  0
 21 20  1  0
 22 21  1  0
 22 27  2  0
 23 22  1  0
 24 23  2  0
 24 25  1  0
 25 26  2  0
 26 27  1  0
 27 19  1  0
 28 30  2  0
 28 29  1  0
M  END
$$$$
