PMW.pdb
     RDKit          3D

 30 32  0  0  1  0  0  0  0  0999 V2000
   27.0324  -22.4019  -18.7136 N   0  0  0  0  0  0  0  0  0  0  0  0
   27.3262  -23.2245  -19.8777 C   0  0  0  0  0  0  0  0  0  0  0  0
   28.8348  -22.9892  -19.9902 C   0  0  0  0  0  0  0  0  0  0  0  0
   29.2956  -22.7341  -18.5695 C   0  0  0  0  0  0  0  0  0  0  0  0
   28.0370  -22.8851  -17.7850 C   0  0  1  0  0  0  0  0  0  0  0  0
   28.0202  -22.1639  -16.5061 C   0  0  0  0  0  0  0  0  0  0  0  0
   28.6870  -22.5287  -15.5100 O   0  0  0  0  0  0  0  0  0  0  0  0
   25.2300  -16.0269  -15.6866 C   0  0  0  0  0  0  0  0  0  0  0  0
   26.9197  -16.1718  -15.0519 S   0  0  0  0  0  0  0  0  0  0  0  0
   27.0648  -17.8543  -14.3272 C   0  0  0  0  0  0  0  0  0  0  0  0
   27.1521  -18.7994  -15.4711 C   0  0  0  0  0  0  0  0  0  0  0  0
   27.2539  -20.2539  -15.1059 C   0  0  2  0  0  0  0  0  0  0  0  0
   27.2386  -20.9990  -16.3230 N   0  0  0  0  0  0  0  0  0  0  0  0
   26.2712  -20.6971  -14.1071 C   0  0  0  0  0  0  0  0  0  0  0  0
   25.0642  -20.8157  -14.4374 O   0  0  0  0  0  0  0  0  0  0  0  0
   26.5737  -21.0145  -12.7551 N   0  0  0  0  0  0  0  0  0  0  0  0
   25.5473  -21.4075  -11.7818 C   0  0  1  0  0  0  0  0  0  0  0  0
   26.1878  -22.0308  -10.5802 C   0  0  0  0  0  0  0  0  0  0  0  0
   26.3704  -21.0945   -9.4691 C   0  0  0  0  0  0  0  0  0  0  0  0
   25.4328  -20.1384   -9.0438 C   0  0  0  0  0  0  0  0  0  0  0  0
   25.9470  -19.4259   -8.0298 N   0  0  0  0  0  0  0  0  0  0  0  0
   27.1856  -19.8620   -7.7563 C   0  0  0  0  0  0  0  0  0  0  0  0
   28.1368  -19.4988   -6.8134 C   0  0  0  0  0  0  0  0  0  0  0  0
   29.3385  -20.1427   -6.7390 C   0  0  0  0  0  0  0  0  0  0  0  0
   29.6162  -21.1774   -7.6194 C   0  0  0  0  0  0  0  0  0  0  0  0
   28.6732  -21.5186   -8.5368 C   0  0  0  0  0  0  0  0  0  0  0  0
   27.4564  -20.9016   -8.6487 C   0  0  0  0  0  0  0  0  0  0  0  0
   24.6298  -20.3185  -11.4754 C   0  0  0  0  0  0  0  0  0  0  0  0
   23.3011  -20.5760  -11.0801 O   0  0  0  0  0  0  0  0  0  0  0  0
   24.9381  -19.1078  -11.5368 O   0  0  0  0  0  0  0  0  0  0  0  0
  1  2  1  0
  3  2  1  0
  4  3  1  0
  5  6  1  1
  5  4  1  0
  5  1  1  0
  6  7  2  0
  9  8  1  0
 10 11  1  0
 10  9  1  0
 12 11  1  6
 12 14  1  0
 13 12  1  0
 13  6  1  0
 14 15  2  0
 14 16  1  0
 16 17  1  0
 17 28  1  0
 17 18  1  1
 19 18  1  0
 20 19  2  0
 21 20  1  0
 22 21  1  0
 22 27  2  0
 23 22  1  0
 24 23  2  0
 24 25  1  0
 25 26  2  0
 26 27  1  0
 27 19  1  0
 28 30  2  0
 28 29  1  0
M  END
$$$$
