PMW.pdb
     RDKit          3D

 30 32  0  0  1  0  0  0  0  0999 V2000
   29.1447  -22.5849  -17.7921 N   0  0  0  0  0  0  0  0  0  0  0  0
   29.9312  -23.5019  -18.6036 C   0  0  0  0  0  0  0  0  0  0  0  0
   31.3044  -23.3150  -17.9532 C   0  0  0  0  0  0  0  0  0  0  0  0
   31.0063  -22.9633  -16.5098 C   0  0  0  0  0  0  0  0  0  0  0  0
   29.5176  -23.0210  -16.4595 C   0  0  1  0  0  0  0  0  0  0  0  0
   28.9066  -22.2034  -15.4039 C   0  0  0  0  0  0  0  0  0  0  0  0
   29.1442  -22.3757  -14.1858 O   0  0  0  0  0  0  0  0  0  0  0  0
   27.7282  -15.0283  -16.1292 C   0  0  0  0  0  0  0  0  0  0  0  0
   26.7439  -16.5461  -16.2094 S   0  0  0  0  0  0  0  0  0  0  0  0
   27.6870  -17.8312  -15.2952 C   0  0  0  0  0  0  0  0  0  0  0  0
   26.9048  -19.0899  -15.4112 C   0  0  0  0  0  0  0  0  0  0  0  0
   27.4853  -20.2831  -14.7051 C   0  0  2  0  0  0  0  0  0  0  0  0
   28.0014  -21.1590  -15.7066 N   0  0  0  0  0  0  0  0  0  0  0  0
   26.5725  -20.9225  -13.7472 C   0  0  0  0  0  0  0  0  0  0  0  0
   25.7849  -21.8172  -14.1463 O   0  0  0  0  0  0  0  0  0  0  0  0
   26.4981  -20.6094  -12.3628 N   0  0  0  0  0  0  0  0  0  0  0  0
   25.7631  -21.4373  -11.3986 C   0  0  1  0  0  0  0  0  0  0  0  0
   26.6693  -21.8564  -10.2825 C   0  0  0  0  0  0  0  0  0  0  0  0
   26.8109  -20.8400   -9.2377 C   0  0  0  0  0  0  0  0  0  0  0  0
   25.8463  -19.8758   -8.8997 C   0  0  0  0  0  0  0  0  0  0  0  0
   26.3257  -19.0827   -7.9295 N   0  0  0  0  0  0  0  0  0  0  0  0
   27.5666  -19.4724   -7.6019 C   0  0  0  0  0  0  0  0  0  0  0  0
   28.4911  -19.0236   -6.6693 C   0  0  0  0  0  0  0  0  0  0  0  0
   29.7032  -19.6355   -6.5262 C   0  0  0  0  0  0  0  0  0  0  0  0
   30.0190  -20.7240   -7.3250 C   0  0  0  0  0  0  0  0  0  0  0  0
   29.1018  -21.1489   -8.2336 C   0  0  0  0  0  0  0  0  0  0  0  0
   27.8758  -20.5669   -8.4125 C   0  0  0  0  0  0  0  0  0  0  0  0
   24.5239  -20.8088  -10.9614 C   0  0  0  0  0  0  0  0  0  0  0  0
   23.5217  -21.5540  -10.3069 O   0  0  0  0  0  0  0  0  0  0  0  0
   24.2595  -19.5976  -11.1267 O   0  0  0  0  0  0  0  0  0  0  0  0
  1  2  1  0
  3  2  1  0
  4  3  1  0
  5  6  1  1
  5  4  1  0
  5  1  1  0
  6  7  2  0
  9  8  1  0
 10 11  1  0
 10  9  1  0
 12 11  1  6
 12 14  1  0
 13 12  1  0
 13  6  1  0
 14 15  2  0
 14 16  1  0
 16 17  1  0
 17 28  1  0
 17 18  1  1
 19 18  1  0
 20 19  2  0
 21 20  1  0
 22 21  1  0
 22 27  2  0
 23 22  1  0
 24 23  2  0
 24 25  1  0
 25 26  2  0
 26 27  1  0
 27 19  1  0
 28 30  2  0
 28 29  1  0
M  END
$$$$
