PMW.pdb
     RDKit          3D

 30 32  0  0  1  0  0  0  0  0999 V2000
   27.7172  -17.8734  -13.8174 N   0  0  0  0  0  0  0  0  0  0  0  0
   27.4044  -16.8547  -14.8086 C   0  0  0  0  0  0  0  0  0  0  0  0
   28.0792  -17.4697  -16.0376 C   0  0  0  0  0  0  0  0  0  0  0  0
   28.0111  -18.9662  -15.8105 C   0  0  0  0  0  0  0  0  0  0  0  0
   27.2801  -19.0679  -14.5153 C   0  0  1  0  0  0  0  0  0  0  0  0
   27.5441  -20.2966  -13.7559 C   0  0  0  0  0  0  0  0  0  0  0  0
   27.1150  -21.4199  -14.1078 O   0  0  0  0  0  0  0  0  0  0  0  0
   33.2388  -22.5399  -11.1787 C   0  0  0  0  0  0  0  0  0  0  0  0
   32.1355  -22.0091   -9.8446 S   0  0  0  0  0  0  0  0  0  0  0  0
   30.4283  -22.4326  -10.3766 C   0  0  0  0  0  0  0  0  0  0  0  0
   29.9549  -21.2996  -11.2142 C   0  0  0  0  0  0  0  0  0  0  0  0
   28.5929  -21.4692  -11.8270 C   0  0  2  0  0  0  0  0  0  0  0  0
   28.3094  -20.2818  -12.5661 N   0  0  0  0  0  0  0  0  0  0  0  0
   27.5447  -21.8589  -10.8734 C   0  0  0  0  0  0  0  0  0  0  0  0
   27.4911  -23.0464  -10.4647 O   0  0  0  0  0  0  0  0  0  0  0  0
   26.5526  -20.9835  -10.3542 N   0  0  0  0  0  0  0  0  0  0  0  0
   25.6576  -21.3599   -9.2531 C   0  0  1  0  0  0  0  0  0  0  0  0
   26.4480  -21.5930   -8.0027 C   0  0  0  0  0  0  0  0  0  0  0  0
   26.8751  -20.3550   -7.3472 C   0  0  0  0  0  0  0  0  0  0  0  0
   26.6651  -19.0557   -7.8391 C   0  0  0  0  0  0  0  0  0  0  0  0
   27.2236  -18.1648   -7.0056 N   0  0  0  0  0  0  0  0  0  0  0  0
   27.7969  -18.8082   -5.9778 C   0  0  0  0  0  0  0  0  0  0  0  0
   28.4799  -18.3808   -4.8481 C   0  0  0  0  0  0  0  0  0  0  0  0
   28.9489  -19.2730   -3.9271 C   0  0  0  0  0  0  0  0  0  0  0  0
   28.7409  -20.6301   -4.1213 C   0  0  0  0  0  0  0  0  0  0  0  0
   28.0709  -21.0305   -5.2340 C   0  0  0  0  0  0  0  0  0  0  0  0
   27.5839  -20.1731   -6.1835 C   0  0  0  0  0  0  0  0  0  0  0  0
   24.5498  -20.4270   -9.0972 C   0  0  0  0  0  0  0  0  0  0  0  0
   24.3909  -19.3334   -9.9729 O   0  0  0  0  0  0  0  0  0  0  0  0
   23.6801  -20.5194   -8.2031 O   0  0  0  0  0  0  0  0  0  0  0  0
  1  2  1  0
  3  2  1  0
  4  3  1  0
  5  6  1  1
  5  4  1  0
  5  1  1  0
  6  7  2  0
  9  8  1  0
 10 11  1  0
 10  9  1  0
 12 11  1  1
 12 14  1  0
 13 12  1  0
 13  6  1  0
 14 15  2  0
 14 16  1  0
 16 17  1  0
 17 28  1  0
 17 18  1  1
 19 18  1  0
 20 19  2  0
 21 20  1  0
 22 21  1  0
 22 27  2  0
 23 22  1  0
 24 23  2  0
 24 25  1  0
 25 26  2  0
 26 27  1  0
 27 19  1  0
 28 30  2  0
 28 29  1  0
M  END
$$$$
