HEW.pdb
     RDKit          3D

 34 36  0  0  1  0  0  0  0  0999 V2000
   28.2797  -19.9437  -15.6879 N   0  0  0  0  0  0  0  0  0  0  0  0
   28.3271  -18.7370  -14.8579 C   0  0  1  0  0  0  0  0  0  0  0  0
   28.2572  -17.5443  -15.7014 C   0  0  0  0  0  0  0  0  0  0  0  0
   29.2828  -17.4224  -16.7780 C   0  0  0  0  0  0  0  0  0  0  0  0
   30.2522  -18.3260  -17.1186 C   0  0  0  0  0  0  0  0  0  0  0  0
   30.9484  -17.8578  -18.1511 N   0  0  0  0  0  0  0  0  0  0  0  0
   30.4149  -16.6623  -18.4566 C   0  0  0  0  0  0  0  0  0  0  0  0
   29.4009  -16.3897  -17.6260 N   0  0  0  0  0  0  0  0  0  0  0  0
   27.4828  -18.8405  -13.6577 C   0  0  0  0  0  0  0  0  0  0  0  0
   27.3472  -17.8114  -12.8829 O   0  0  0  0  0  0  0  0  0  0  0  0
   26.8184  -20.0506  -13.3558 N   0  0  0  0  0  0  0  0  0  0  0  0
   25.5920  -20.1805  -12.6469 C   0  0  1  0  0  0  0  0  0  0  0  0
   24.3321  -20.5241  -13.2665 C   0  0  0  0  0  0  0  0  0  0  0  0
   23.0667  -20.6627  -12.5362 C   0  0  0  0  0  0  0  0  0  0  0  0
   21.8456  -21.0200  -13.2646 C   0  0  0  0  0  0  0  0  0  0  0  0
   21.5876  -22.2529  -13.5472 O   0  0  0  0  0  0  0  0  0  0  0  0
   25.7959  -20.7825  -11.2720 C   0  0  0  0  0  0  0  0  0  0  0  0
   26.2155  -21.9596  -11.1770 O   0  0  0  0  0  0  0  0  0  0  0  0
   20.8986  -20.1210  -13.7020 O   0  0  0  0  0  0  0  0  0  0  0  0
   25.5395  -20.0919  -10.0655 N   0  0  0  0  0  0  0  0  0  0  0  0
   25.4909  -20.7930   -8.7790 C   0  0  1  0  0  0  0  0  0  0  0  0
   26.1916  -19.8911   -7.8042 C   0  0  0  0  0  0  0  0  0  0  0  0
   27.5391  -20.2808   -7.3959 C   0  0  0  0  0  0  0  0  0  0  0  0
   28.3714  -21.1381   -8.0883 C   0  0  0  0  0  0  0  0  0  0  0  0
   29.5092  -21.2808   -7.3947 N   0  0  0  0  0  0  0  0  0  0  0  0
   29.4470  -20.5329   -6.2548 C   0  0  0  0  0  0  0  0  0  0  0  0
   30.3173  -20.3083   -5.2213 C   0  0  0  0  0  0  0  0  0  0  0  0
   29.9863  -19.4663   -4.1800 C   0  0  0  0  0  0  0  0  0  0  0  0
   28.7587  -18.8397   -4.1785 C   0  0  0  0  0  0  0  0  0  0  0  0
   27.8864  -19.0546   -5.1972 C   0  0  0  0  0  0  0  0  0  0  0  0
   28.2117  -19.9056   -6.2555 C   0  0  0  0  0  0  0  0  0  0  0  0
   24.1670  -21.2395   -8.3964 C   0  0  0  0  0  0  0  0  0  0  0  0
   23.8967  -22.1301   -7.3591 O   0  0  0  0  0  0  0  0  0  0  0  0
   23.1758  -20.8013   -9.0363 O   0  0  0  0  0  0  0  0  0  0  0  0
  2  1  1  6
  2  9  1  0
  2  3  1  0
  3  4  1  0
  4  5  2  0
  5  6  1  0
  7  6  1  0
  8  4  1  0
  8  7  2  0
  9 10  2  0
 11 12  1  0
 11  9  1  0
 12 13  1  6
 13 14  1  0
 14 15  1  0
 15 16  2  0
 15 19  1  0
 17 12  1  0
 18 17  2  0
 20 17  1  0
 21 22  1  1
 21 20  1  0
 22 23  1  0
 23 31  1  0
 24 23  2  0
 24 25  1  0
 25 26  1  0
 26 27  1  0
 27 28  2  0
 29 28  1  0
 30 29  2  0
 31 26  2  0
 31 30  1  0
 32 33  1  0
 32 21  1  0
 34 32  2  0
M  END
$$$$
