HEW.pdb
     RDKit          3D

 34 36  0  0  1  0  0  0  0  0999 V2000
   16.3262  -12.3349  -15.8557 N   0  0  0  0  0  0  0  0  0  0  0  0
   16.2966  -10.8734  -15.7527 C   0  0  1  0  0  0  0  0  0  0  0  0
   15.4192  -10.4650  -14.6561 C   0  0  0  0  0  0  0  0  0  0  0  0
   14.0105  -10.9533  -14.7060 C   0  0  0  0  0  0  0  0  0  0  0  0
   13.0209  -10.5715  -15.5705 C   0  0  0  0  0  0  0  0  0  0  0  0
   11.9142  -11.2609  -15.3063 N   0  0  0  0  0  0  0  0  0  0  0  0
   12.2109  -12.0738  -14.2775 C   0  0  0  0  0  0  0  0  0  0  0  0
   13.4845  -11.8931  -13.9061 N   0  0  0  0  0  0  0  0  0  0  0  0
   17.6297  -10.2677  -15.8936 C   0  0  0  0  0  0  0  0  0  0  0  0
   18.5528  -10.5502  -15.0299 O   0  0  0  0  0  0  0  0  0  0  0  0
   17.9043   -9.3905  -16.9668 N   0  0  0  0  0  0  0  0  0  0  0  0
   19.1350   -8.7193  -17.2086 C   0  0  1  0  0  0  0  0  0  0  0  0
   19.6429   -8.4110  -18.5262 C   0  0  0  0  0  0  0  0  0  0  0  0
   20.8850   -7.6708  -18.7768 C   0  0  0  0  0  0  0  0  0  0  0  0
   21.7774   -8.0985  -19.8586 C   0  0  0  0  0  0  0  0  0  0  0  0
   21.3334   -8.8325  -20.8233 O   0  0  0  0  0  0  0  0  0  0  0  0
   19.4102   -7.6531  -16.1685 C   0  0  0  0  0  0  0  0  0  0  0  0
   18.4922   -6.8632  -15.8463 O   0  0  0  0  0  0  0  0  0  0  0  0
   23.1138   -7.7791  -19.9491 O   0  0  0  0  0  0  0  0  0  0  0  0
   20.6575   -7.4864  -15.5245 N   0  0  0  0  0  0  0  0  0  0  0  0
   20.8906   -6.3873  -14.5829 C   0  0  1  0  0  0  0  0  0  0  0  0
   22.1145   -6.7782  -13.8056 C   0  0  0  0  0  0  0  0  0  0  0  0
   23.3359   -7.0126  -14.5720 C   0  0  0  0  0  0  0  0  0  0  0  0
   24.0064   -6.0672  -15.3228 C   0  0  0  0  0  0  0  0  0  0  0  0
   25.0605   -6.6547  -15.9059 N   0  0  0  0  0  0  0  0  0  0  0  0
   25.1017   -7.9729  -15.5547 C   0  0  0  0  0  0  0  0  0  0  0  0
   25.9538   -9.0044  -15.8479 C   0  0  0  0  0  0  0  0  0  0  0  0
   25.7554  -10.2646  -15.3233 C   0  0  0  0  0  0  0  0  0  0  0  0
   24.6814  -10.4909  -14.4896 C   0  0  0  0  0  0  0  0  0  0  0  0
   23.8287   -9.4765  -14.1916 C   0  0  0  0  0  0  0  0  0  0  0  0
   24.0205   -8.1974  -14.7181 C   0  0  0  0  0  0  0  0  0  0  0  0
   20.9173   -5.0756  -15.1969 C   0  0  0  0  0  0  0  0  0  0  0  0
   20.9162   -4.8402  -16.5704 O   0  0  0  0  0  0  0  0  0  0  0  0
   20.9435   -4.0624  -14.4508 O   0  0  0  0  0  0  0  0  0  0  0  0
  2  1  1  1
  2  9  1  0
  2  3  1  0
  3  4  1  0
  4  5  2  0
  5  6  1  0
  7  6  1  0
  8  4  1  0
  8  7  2  0
  9 10  2  0
 11 12  1  0
 11  9  1  0
 12 13  1  6
 13 14  1  0
 14 15  1  0
 15 16  2  0
 15 19  1  0
 17 12  1  0
 18 17  2  0
 20 17  1  0
 21 22  1  6
 21 20  1  0
 22 23  1  0
 23 31  1  0
 24 23  2  0
 24 25  1  0
 25 26  1  0
 26 27  1  0
 27 28  2  0
 29 28  1  0
 30 29  2  0
 31 26  2  0
 31 30  1  0
 32 33  1  0
 32 21  1  0
 34 32  2  0
M  END
$$$$
