HEW.pdb
     RDKit          3D

 34 36  0  0  1  0  0  0  0  0999 V2000
   33.2006  -37.3572   -8.6008 N   0  0  0  0  0  0  0  0  0  0  0  0
   33.0974  -36.3689   -7.5238 C   0  0  1  0  0  0  0  0  0  0  0  0
   33.1484  -35.0160   -8.0772 C   0  0  0  0  0  0  0  0  0  0  0  0
   34.3313  -34.6804   -8.9219 C   0  0  0  0  0  0  0  0  0  0  0  0
   35.3820  -35.4917   -9.2534 C   0  0  0  0  0  0  0  0  0  0  0  0
   36.2182  -34.8283  -10.0475 N   0  0  0  0  0  0  0  0  0  0  0  0
   35.6910  -33.6027  -10.2131 C   0  0  0  0  0  0  0  0  0  0  0  0
   34.5428  -33.5043   -9.5315 N   0  0  0  0  0  0  0  0  0  0  0  0
   32.0721  -36.7192   -6.5288 C   0  0  0  0  0  0  0  0  0  0  0  0
   30.8901  -37.0686   -6.9272 O   0  0  0  0  0  0  0  0  0  0  0  0
   32.3757  -36.6825   -5.1492 N   0  0  0  0  0  0  0  0  0  0  0  0
   31.4544  -36.8704   -4.0817 C   0  0  1  0  0  0  0  0  0  0  0  0
   31.7794  -37.5360   -2.8405 C   0  0  0  0  0  0  0  0  0  0  0  0
   32.3371  -38.8907   -2.7549 C   0  0  0  0  0  0  0  0  0  0  0  0
   32.7231  -39.4338   -1.4490 C   0  0  0  0  0  0  0  0  0  0  0  0
   33.5516  -38.7954   -0.6922 O   0  0  0  0  0  0  0  0  0  0  0  0
   30.5181  -35.6893   -3.9299 C   0  0  0  0  0  0  0  0  0  0  0  0
   30.9606  -34.5317   -4.1155 O   0  0  0  0  0  0  0  0  0  0  0  0
   32.2662  -40.6223   -0.9246 O   0  0  0  0  0  0  0  0  0  0  0  0
   29.1521  -35.8082   -3.5862 N   0  0  0  0  0  0  0  0  0  0  0  0
   28.2582  -34.6463   -3.5937 C   0  0  1  0  0  0  0  0  0  0  0  0
   28.4175  -34.0268   -4.9522 C   0  0  0  0  0  0  0  0  0  0  0  0
   27.3619  -33.1170   -5.3905 C   0  0  0  0  0  0  0  0  0  0  0  0
   26.5379  -32.3838   -4.5595 C   0  0  0  0  0  0  0  0  0  0  0  0
   25.6759  -31.6911   -5.3167 N   0  0  0  0  0  0  0  0  0  0  0  0
   25.9138  -31.9511   -6.6352 C   0  0  0  0  0  0  0  0  0  0  0  0
   25.3505  -31.5107   -7.8035 C   0  0  0  0  0  0  0  0  0  0  0  0
   25.8187  -31.9408   -9.0277 C   0  0  0  0  0  0  0  0  0  0  0  0
   26.8714  -32.8291   -9.0773 C   0  0  0  0  0  0  0  0  0  0  0  0
   27.4382  -33.2739   -7.9259 C   0  0  0  0  0  0  0  0  0  0  0  0
   26.9712  -32.8450   -6.6816 C   0  0  0  0  0  0  0  0  0  0  0  0
   26.9007  -34.9395   -3.1820 C   0  0  0  0  0  0  0  0  0  0  0  0
   26.1293  -34.1298   -2.3504 O   0  0  0  0  0  0  0  0  0  0  0  0
   26.3618  -35.9989   -3.5958 O   0  0  0  0  0  0  0  0  0  0  0  0
  2  1  1  6
  2  9  1  0
  2  3  1  0
  3  4  1  0
  4  5  2  0
  5  6  1  0
  7  6  1  0
  8  4  1  0
  8  7  2  0
  9 10  2  0
 11 12  1  0
 11  9  1  0
 12 13  1  1
 13 14  1  0
 14 15  1  0
 15 16  2  0
 15 19  1  0
 17 12  1  0
 18 17  2  0
 20 17  1  0
 21 22  1  6
 21 20  1  0
 22 23  1  0
 23 31  1  0
 24 23  2  0
 24 25  1  0
 25 26  1  0
 26 27  1  0
 27 28  2  0
 29 28  1  0
 30 29  2  0
 31 26  2  0
 31 30  1  0
 32 33  1  0
 32 21  1  0
 34 32  2  0
M  END
$$$$
