HEW.pdb
     RDKit          3D

 34 36  0  0  1  0  0  0  0  0999 V2000
   28.6490  -25.0871  -17.9120 N   0  0  0  0  0  0  0  0  0  0  0  0
   27.4813  -24.2920  -17.5229 C   0  0  1  0  0  0  0  0  0  0  0  0
   26.2896  -25.1387  -17.4777 C   0  0  0  0  0  0  0  0  0  0  0  0
   25.9283  -25.8568  -18.7345 C   0  0  0  0  0  0  0  0  0  0  0  0
   25.2872  -25.3530  -19.8332 C   0  0  0  0  0  0  0  0  0  0  0  0
   25.1778  -26.3056  -20.7554 N   0  0  0  0  0  0  0  0  0  0  0  0
   25.7503  -27.4047  -20.2344 C   0  0  0  0  0  0  0  0  0  0  0  0
   26.2096  -27.1403  -19.0049 N   0  0  0  0  0  0  0  0  0  0  0  0
   27.7687  -23.3658  -16.4167 C   0  0  0  0  0  0  0  0  0  0  0  0
   28.5318  -23.7519  -15.4439 O   0  0  0  0  0  0  0  0  0  0  0  0
   27.2231  -22.0623  -16.4184 N   0  0  0  0  0  0  0  0  0  0  0  0
   27.4127  -21.0717  -15.4152 C   0  0  1  0  0  0  0  0  0  0  0  0
   27.7722  -19.6993  -15.6914 C   0  0  0  0  0  0  0  0  0  0  0  0
   27.5145  -18.5811  -14.7766 C   0  0  0  0  0  0  0  0  0  0  0  0
   26.4426  -17.6284  -15.0813 C   0  0  0  0  0  0  0  0  0  0  0  0
   26.2337  -17.2426  -16.2954 O   0  0  0  0  0  0  0  0  0  0  0  0
   26.4451  -21.2435  -14.2626 C   0  0  0  0  0  0  0  0  0  0  0  0
   25.2132  -21.2332  -14.4928 O   0  0  0  0  0  0  0  0  0  0  0  0
   25.5941  -17.0737  -14.1493 O   0  0  0  0  0  0  0  0  0  0  0  0
   26.8465  -21.4179  -12.9184 N   0  0  0  0  0  0  0  0  0  0  0  0
   25.8683  -21.6619  -11.8541 C   0  0  1  0  0  0  0  0  0  0  0  0
   26.6708  -22.1138  -10.6681 C   0  0  0  0  0  0  0  0  0  0  0  0
   26.6548  -21.2475   -9.4919 C   0  0  0  0  0  0  0  0  0  0  0  0
   25.6208  -20.4080   -9.1272 C   0  0  0  0  0  0  0  0  0  0  0  0
   25.9770  -19.7511   -8.0146 N   0  0  0  0  0  0  0  0  0  0  0  0
   27.2285  -20.1404   -7.6342 C   0  0  0  0  0  0  0  0  0  0  0  0
   28.0472  -19.8052   -6.5886 C   0  0  0  0  0  0  0  0  0  0  0  0
   29.2891  -20.3870   -6.4400 C   0  0  0  0  0  0  0  0  0  0  0  0
   29.7144  -21.3221   -7.3589 C   0  0  0  0  0  0  0  0  0  0  0  0
   28.9121  -21.6627   -8.4006 C   0  0  0  0  0  0  0  0  0  0  0  0
   27.6536  -21.0790   -8.5603 C   0  0  0  0  0  0  0  0  0  0  0  0
   24.9550  -20.5614  -11.6241 C   0  0  0  0  0  0  0  0  0  0  0  0
   25.2190  -19.2296  -11.9385 O   0  0  0  0  0  0  0  0  0  0  0  0
   23.8360  -20.8069  -11.1029 O   0  0  0  0  0  0  0  0  0  0  0  0
  2  1  1  1
  2  9  1  0
  2  3  1  0
  3  4  1  0
  4  5  2  0
  5  6  1  0
  7  6  1  0
  8  4  1  0
  8  7  2  0
  9 10  2  0
 11 12  1  0
 11  9  1  0
 12 13  1  6
 13 14  1  0
 14 15  1  0
 15 16  2  0
 15 19  1  0
 17 12  1  0
 18 17  2  0
 20 17  1  0
 21 22  1  1
 21 20  1  0
 22 23  1  0
 23 31  1  0
 24 23  2  0
 24 25  1  0
 25 26  1  0
 26 27  1  0
 27 28  2  0
 29 28  1  0
 30 29  2  0
 31 26  2  0
 31 30  1  0
 32 33  1  0
 32 21  1  0
 34 32  2  0
M  END
$$$$
