HEW.pdb
     RDKit          3D

 34 36  0  0  1  0  0  0  0  0999 V2000
   36.1935  -28.0601  -19.5689 N   0  0  0  0  0  0  0  0  0  0  0  0
   35.0626  -28.4886  -18.7416 C   0  0  1  0  0  0  0  0  0  0  0  0
   33.9040  -27.6320  -18.9923 C   0  0  0  0  0  0  0  0  0  0  0  0
   34.1111  -26.1621  -18.8431 C   0  0  0  0  0  0  0  0  0  0  0  0
   34.4398  -25.2587  -19.8168 C   0  0  0  0  0  0  0  0  0  0  0  0
   34.5039  -24.0409  -19.2850 N   0  0  0  0  0  0  0  0  0  0  0  0
   34.2153  -24.1820  -17.9796 C   0  0  0  0  0  0  0  0  0  0  0  0
   33.9749  -25.4696  -17.7023 N   0  0  0  0  0  0  0  0  0  0  0  0
   34.9042  -29.9508  -18.7107 C   0  0  0  0  0  0  0  0  0  0  0  0
   35.1044  -30.6367  -19.7911 O   0  0  0  0  0  0  0  0  0  0  0  0
   34.5438  -30.6036  -17.5103 N   0  0  0  0  0  0  0  0  0  0  0  0
   34.3569  -32.0034  -17.3395 C   0  0  1  0  0  0  0  0  0  0  0  0
   35.4169  -32.9252  -16.9992 C   0  0  0  0  0  0  0  0  0  0  0  0
   35.2552  -34.3830  -16.9498 C   0  0  0  0  0  0  0  0  0  0  0  0
   36.3589  -35.2182  -16.4664 C   0  0  0  0  0  0  0  0  0  0  0  0
   36.1243  -36.2573  -15.7372 O   0  0  0  0  0  0  0  0  0  0  0  0
   33.0234  -32.3201  -16.6947 C   0  0  0  0  0  0  0  0  0  0  0  0
   32.7284  -31.7777  -15.6042 O   0  0  0  0  0  0  0  0  0  0  0  0
   37.6917  -34.9886  -16.7260 O   0  0  0  0  0  0  0  0  0  0  0  0
   32.0711  -33.2039  -17.2518 N   0  0  0  0  0  0  0  0  0  0  0  0
   30.7774  -33.4406  -16.6041 C   0  0  1  0  0  0  0  0  0  0  0  0
   30.2110  -32.0773  -16.3300 C   0  0  0  0  0  0  0  0  0  0  0  0
   28.8739  -32.0239  -15.7438 C   0  0  0  0  0  0  0  0  0  0  0  0
   28.5591  -32.3267  -14.4337 C   0  0  0  0  0  0  0  0  0  0  0  0
   27.2353  -32.1948  -14.2718 N   0  0  0  0  0  0  0  0  0  0  0  0
   26.6663  -31.8091  -15.4508 C   0  0  0  0  0  0  0  0  0  0  0  0
   25.3824  -31.5245  -15.8338 C   0  0  0  0  0  0  0  0  0  0  0  0
   25.0935  -31.1308  -17.1239 C   0  0  0  0  0  0  0  0  0  0  0  0
   26.1137  -31.0217  -18.0443 C   0  0  0  0  0  0  0  0  0  0  0  0
   27.3910  -31.3017  -17.6771 C   0  0  0  0  0  0  0  0  0  0  0  0
   27.6937  -31.7017  -16.3739 C   0  0  0  0  0  0  0  0  0  0  0  0
   29.9144  -34.3574  -17.3202 C   0  0  0  0  0  0  0  0  0  0  0  0
   28.9045  -35.1198  -16.7361 O   0  0  0  0  0  0  0  0  0  0  0  0
   30.0734  -34.4881  -18.5618 O   0  0  0  0  0  0  0  0  0  0  0  0
  2  1  1  6
  2  9  1  0
  2  3  1  0
  3  4  1  0
  4  5  2  0
  5  6  1  0
  7  6  1  0
  8  4  1  0
  8  7  2  0
  9 10  2  0
 11 12  1  0
 11  9  1  0
 12 13  1  1
 13 14  1  0
 14 15  1  0
 15 16  2  0
 15 19  1  0
 17 12  1  0
 18 17  2  0
 20 17  1  0
 21 22  1  6
 21 20  1  0
 22 23  1  0
 23 31  1  0
 24 23  2  0
 24 25  1  0
 25 26  1  0
 26 27  1  0
 27 28  2  0
 29 28  1  0
 30 29  2  0
 31 26  2  0
 31 30  1  0
 32 33  1  0
 32 21  1  0
 34 32  2  0
M  END
$$$$
