HEW.pdb
     RDKit          3D

 34 36  0  0  1  0  0  0  0  0999 V2000
   23.6577  -18.3950  -14.6835 N   0  0  0  0  0  0  0  0  0  0  0  0
   23.5062  -19.8350  -14.9085 C   0  0  1  0  0  0  0  0  0  0  0  0
   22.9974  -20.0817  -16.2573 C   0  0  0  0  0  0  0  0  0  0  0  0
   21.8426  -19.2485  -16.7020 C   0  0  0  0  0  0  0  0  0  0  0  0
   21.8734  -18.1076  -17.4568 C   0  0  0  0  0  0  0  0  0  0  0  0
   20.6302  -17.6803  -17.6612 N   0  0  0  0  0  0  0  0  0  0  0  0
   19.8219  -18.5533  -17.0351 C   0  0  0  0  0  0  0  0  0  0  0  0
   20.5515  -19.5106  -16.4489 N   0  0  0  0  0  0  0  0  0  0  0  0
   24.6464  -20.6120  -14.3982 C   0  0  0  0  0  0  0  0  0  0  0  0
   24.6794  -21.8933  -14.5851 O   0  0  0  0  0  0  0  0  0  0  0  0
   25.7014  -19.9652  -13.7160 N   0  0  0  0  0  0  0  0  0  0  0  0
   26.8656  -20.5884  -13.1869 C   0  0  1  0  0  0  0  0  0  0  0  0
   28.2157  -20.2131  -13.5410 C   0  0  0  0  0  0  0  0  0  0  0  0
   28.6655  -19.9578  -14.9144 C   0  0  0  0  0  0  0  0  0  0  0  0
   28.6333  -21.0423  -15.9005 C   0  0  0  0  0  0  0  0  0  0  0  0
   28.2734  -20.8107  -17.1184 O   0  0  0  0  0  0  0  0  0  0  0  0
   26.6867  -20.9772  -11.7339 C   0  0  0  0  0  0  0  0  0  0  0  0
   27.6710  -21.4145  -11.0933 O   0  0  0  0  0  0  0  0  0  0  0  0
   28.9642  -22.3533  -15.6395 O   0  0  0  0  0  0  0  0  0  0  0  0
   25.4598  -20.8779  -11.0389 N   0  0  0  0  0  0  0  0  0  0  0  0
   25.4054  -20.9193   -9.5745 C   0  0  1  0  0  0  0  0  0  0  0  0
   26.3244  -19.8272   -9.1083 C   0  0  0  0  0  0  0  0  0  0  0  0
   27.6180  -20.2390   -8.5686 C   0  0  0  0  0  0  0  0  0  0  0  0
   28.5108  -21.0922   -9.1866 C   0  0  0  0  0  0  0  0  0  0  0  0
   29.5682  -21.2602   -8.3804 N   0  0  0  0  0  0  0  0  0  0  0  0
   29.3932  -20.5330   -7.2388 C   0  0  0  0  0  0  0  0  0  0  0  0
   30.1520  -20.3372   -6.1156 C   0  0  0  0  0  0  0  0  0  0  0  0
   29.7209  -19.5112   -5.0984 C   0  0  0  0  0  0  0  0  0  0  0  0
   28.5055  -18.8714   -5.2133 C   0  0  0  0  0  0  0  0  0  0  0  0
   27.7432  -19.0578   -6.3219 C   0  0  0  0  0  0  0  0  0  0  0  0
   28.1704  -19.8925   -7.3568 C   0  0  0  0  0  0  0  0  0  0  0  0
   24.0633  -20.8989   -9.0299 C   0  0  0  0  0  0  0  0  0  0  0  0
   23.7083  -21.3799   -7.7710 O   0  0  0  0  0  0  0  0  0  0  0  0
   23.1367  -20.4150   -9.7308 O   0  0  0  0  0  0  0  0  0  0  0  0
  2  1  1  6
  2  9  1  0
  2  3  1  0
  3  4  1  0
  4  5  2  0
  5  6  1  0
  7  6  1  0
  8  4  1  0
  8  7  2  0
  9 10  2  0
 11 12  1  0
 11  9  1  0
 12 13  1  1
 13 14  1  0
 14 15  1  0
 15 16  2  0
 15 19  1  0
 17 12  1  0
 18 17  2  0
 20 17  1  0
 21 22  1  1
 21 20  1  0
 22 23  1  0
 23 31  1  0
 24 23  2  0
 24 25  1  0
 25 26  1  0
 26 27  1  0
 27 28  2  0
 29 28  1  0
 30 29  2  0
 31 26  2  0
 31 30  1  0
 32 33  1  0
 32 21  1  0
 34 32  2  0
M  END
$$$$
