HEW.pdb
     RDKit          3D

 34 36  0  0  1  0  0  0  0  0999 V2000
   27.1018  -17.9513  -16.1118 N   0  0  0  0  0  0  0  0  0  0  0  0
   27.2033  -17.5586  -14.7037 C   0  0  1  0  0  0  0  0  0  0  0  0
   26.9268  -16.1297  -14.5597 C   0  0  0  0  0  0  0  0  0  0  0  0
   27.4926  -15.2278  -15.6048 C   0  0  0  0  0  0  0  0  0  0  0  0
   27.1115  -13.9480  -15.9034 C   0  0  0  0  0  0  0  0  0  0  0  0
   27.8812  -13.4751  -16.8801 N   0  0  0  0  0  0  0  0  0  0  0  0
   28.7436  -14.4581  -17.1922 C   0  0  0  0  0  0  0  0  0  0  0  0
   28.5140  -15.5281  -16.4209 N   0  0  0  0  0  0  0  0  0  0  0  0
   26.5666  -18.5267  -13.7975 C   0  0  0  0  0  0  0  0  0  0  0  0
   25.5577  -18.1554  -13.0748 O   0  0  0  0  0  0  0  0  0  0  0  0
   27.0463  -19.8537  -13.7209 N   0  0  0  0  0  0  0  0  0  0  0  0
   26.4324  -20.9291  -13.0208 C   0  0  1  0  0  0  0  0  0  0  0  0
   26.2597  -22.2560  -13.5671 C   0  0  0  0  0  0  0  0  0  0  0  0
   25.3794  -23.2768  -12.9866 C   0  0  0  0  0  0  0  0  0  0  0  0
   23.9502  -23.2711  -13.3130 C   0  0  0  0  0  0  0  0  0  0  0  0
   23.5570  -23.1282  -14.5343 O   0  0  0  0  0  0  0  0  0  0  0  0
   26.7611  -20.9007  -11.5424 C   0  0  0  0  0  0  0  0  0  0  0  0
   27.9555  -20.7733  -11.1849 O   0  0  0  0  0  0  0  0  0  0  0  0
   22.9327  -23.4079  -12.3951 O   0  0  0  0  0  0  0  0  0  0  0  0
   25.7919  -21.0105  -10.5193 N   0  0  0  0  0  0  0  0  0  0  0  0
   26.1723  -21.0162   -9.1035 C   0  0  1  0  0  0  0  0  0  0  0  0
   27.0543  -19.8148   -8.9207 C   0  0  0  0  0  0  0  0  0  0  0  0
   27.3855  -19.4423   -7.5475 C   0  0  0  0  0  0  0  0  0  0  0  0
   26.8130  -18.4060   -6.8365 C   0  0  0  0  0  0  0  0  0  0  0  0
   27.3889  -18.3488   -5.6277 N   0  0  0  0  0  0  0  0  0  0  0  0
   28.3327  -19.3291   -5.5237 C   0  0  0  0  0  0  0  0  0  0  0  0
   29.1857  -19.7198   -4.5258 C   0  0  0  0  0  0  0  0  0  0  0  0
   30.0433  -20.7866   -4.6974 C   0  0  0  0  0  0  0  0  0  0  0  0
   30.0426  -21.4719   -5.8933 C   0  0  0  0  0  0  0  0  0  0  0  0
   29.2020  -21.0939   -6.8909 C   0  0  0  0  0  0  0  0  0  0  0  0
   28.3306  -20.0150   -6.7274 C   0  0  0  0  0  0  0  0  0  0  0  0
   25.0545  -21.1316   -8.1894 C   0  0  0  0  0  0  0  0  0  0  0  0
   25.1557  -21.5164   -6.8538 O   0  0  0  0  0  0  0  0  0  0  0  0
   23.8996  -20.8687   -8.6148 O   0  0  0  0  0  0  0  0  0  0  0  0
  2  1  1  6
  2  9  1  0
  2  3  1  0
  3  4  1  0
  4  5  2  0
  5  6  1  0
  7  6  1  0
  8  4  1  0
  8  7  2  0
  9 10  2  0
 11 12  1  0
 11  9  1  0
 12 13  1  6
 13 14  1  0
 14 15  1  0
 15 16  2  0
 15 19  1  0
 17 12  1  0
 18 17  2  0
 20 17  1  0
 21 22  1  1
 21 20  1  0
 22 23  1  0
 23 31  1  0
 24 23  2  0
 24 25  1  0
 25 26  1  0
 26 27  1  0
 27 28  2  0
 29 28  1  0
 30 29  2  0
 31 26  2  0
 31 30  1  0
 32 33  1  0
 32 21  1  0
 34 32  2  0
M  END
$$$$
