HEW.pdb
     RDKit          3D

 34 36  0  0  1  0  0  0  0  0999 V2000
   28.2579  -21.4214  -16.9095 N   0  0  0  0  0  0  0  0  0  0  0  0
   27.4542  -20.5072  -16.0936 C   0  0  1  0  0  0  0  0  0  0  0  0
   27.0597  -19.3425  -16.8854 C   0  0  0  0  0  0  0  0  0  0  0  0
   28.1616  -18.5122  -17.4530 C   0  0  0  0  0  0  0  0  0  0  0  0
   29.0191  -18.8380  -18.4682 C   0  0  0  0  0  0  0  0  0  0  0  0
   29.8397  -17.8163  -18.6974 N   0  0  0  0  0  0  0  0  0  0  0  0
   29.4959  -16.8517  -17.8264 C   0  0  0  0  0  0  0  0  0  0  0  0
   28.4756  -17.2670  -17.0654 N   0  0  0  0  0  0  0  0  0  0  0  0
   26.4579  -21.2091  -15.2697 C   0  0  0  0  0  0  0  0  0  0  0  0
   25.9145  -22.2971  -15.7155 O   0  0  0  0  0  0  0  0  0  0  0  0
   26.1015  -20.7051  -13.9986 N   0  0  0  0  0  0  0  0  0  0  0  0
   25.1195  -21.2493  -13.1251 C   0  0  1  0  0  0  0  0  0  0  0  0
   25.4025  -21.7391  -11.7950 C   0  0  0  0  0  0  0  0  0  0  0  0
   26.2253  -21.0239  -10.8125 C   0  0  0  0  0  0  0  0  0  0  0  0
   25.6287  -20.5934   -9.5444 C   0  0  0  0  0  0  0  0  0  0  0  0
   26.2798  -19.8186   -8.7430 O   0  0  0  0  0  0  0  0  0  0  0  0
   23.7892  -20.5372  -13.2579 C   0  0  0  0  0  0  0  0  0  0  0  0
   23.6485  -19.4046  -12.7403 O   0  0  0  0  0  0  0  0  0  0  0  0
   24.3766  -20.9562   -9.1004 O   0  0  0  0  0  0  0  0  0  0  0  0
   22.6741  -21.0754  -13.9401 N   0  0  0  0  0  0  0  0  0  0  0  0
   21.3790  -20.3885  -13.9489 C   0  0  1  0  0  0  0  0  0  0  0  0
   21.1057  -20.0669  -15.3899 C   0  0  0  0  0  0  0  0  0  0  0  0
   21.9598  -19.0597  -16.0147 C   0  0  0  0  0  0  0  0  0  0  0  0
   23.1898  -19.2985  -16.5954 C   0  0  0  0  0  0  0  0  0  0  0  0
   23.6884  -18.1339  -17.0326 N   0  0  0  0  0  0  0  0  0  0  0  0
   22.8109  -17.1267  -16.7530 C   0  0  0  0  0  0  0  0  0  0  0  0
   22.8134  -15.7771  -16.9862 C   0  0  0  0  0  0  0  0  0  0  0  0
   21.7538  -14.9840  -16.5977 C   0  0  0  0  0  0  0  0  0  0  0  0
   20.6731  -15.5586  -15.9639 C   0  0  0  0  0  0  0  0  0  0  0  0
   20.6587  -16.8958  -15.7263 C   0  0  0  0  0  0  0  0  0  0  0  0
   21.7268  -17.7072  -16.1149 C   0  0  0  0  0  0  0  0  0  0  0  0
   20.3289  -21.0933  -13.2427 C   0  0  0  0  0  0  0  0  0  0  0  0
   19.0633  -20.5748  -12.9756 O   0  0  0  0  0  0  0  0  0  0  0  0
   20.5582  -22.2610  -12.8328 O   0  0  0  0  0  0  0  0  0  0  0  0
  2  1  1  6
  2  9  1  0
  2  3  1  0
  3  4  1  0
  4  5  2  0
  5  6  1  0
  7  6  1  0
  8  4  1  0
  8  7  2  0
  9 10  2  0
 11 12  1  0
 11  9  1  0
 12 13  1  1
 13 14  1  0
 14 15  1  0
 15 16  2  0
 15 19  1  0
 17 12  1  0
 18 17  2  0
 20 17  1  0
 21 22  1  6
 21 20  1  0
 22 23  1  0
 23 31  1  0
 24 23  2  0
 24 25  1  0
 25 26  1  0
 26 27  1  0
 27 28  2  0
 29 28  1  0
 30 29  2  0
 31 26  2  0
 31 30  1  0
 32 33  1  0
 32 21  1  0
 34 32  2  0
M  END
$$$$
