HEW.pdb
     RDKit          3D

 34 36  0  0  1  0  0  0  0  0999 V2000
   26.1442  -24.8156  -19.8013 N   0  0  0  0  0  0  0  0  0  0  0  0
   25.4780  -24.7223  -18.4994 C   0  0  1  0  0  0  0  0  0  0  0  0
   25.3628  -26.0504  -17.8980 C   0  0  0  0  0  0  0  0  0  0  0  0
   26.6358  -26.7234  -17.5077 C   0  0  0  0  0  0  0  0  0  0  0  0
   27.2351  -26.7349  -16.2777 C   0  0  0  0  0  0  0  0  0  0  0  0
   28.3419  -27.4709  -16.3333 N   0  0  0  0  0  0  0  0  0  0  0  0
   28.4351  -27.9199  -17.5970 C   0  0  0  0  0  0  0  0  0  0  0  0
   27.4009  -27.4697  -18.3183 N   0  0  0  0  0  0  0  0  0  0  0  0
   25.9608  -23.5891  -17.6951 C   0  0  0  0  0  0  0  0  0  0  0  0
   27.0402  -22.9683  -18.0517 O   0  0  0  0  0  0  0  0  0  0  0  0
   25.2490  -23.1757  -16.5465 N   0  0  0  0  0  0  0  0  0  0  0  0
   25.3975  -21.9339  -15.8687 C   0  0  1  0  0  0  0  0  0  0  0  0
   25.6461  -20.6746  -16.5330 C   0  0  0  0  0  0  0  0  0  0  0  0
   25.8344  -19.3983  -15.8335 C   0  0  0  0  0  0  0  0  0  0  0  0
   27.1915  -18.9148  -15.5615 C   0  0  0  0  0  0  0  0  0  0  0  0
   28.1082  -18.9899  -16.4673 O   0  0  0  0  0  0  0  0  0  0  0  0
   24.4828  -21.8348  -14.6655 C   0  0  0  0  0  0  0  0  0  0  0  0
   23.2467  -21.7330  -14.8449 O   0  0  0  0  0  0  0  0  0  0  0  0
   27.6059  -18.3617  -14.3704 O   0  0  0  0  0  0  0  0  0  0  0  0
   24.9392  -21.8498  -13.3276 N   0  0  0  0  0  0  0  0  0  0  0  0
   24.0230  -21.6282  -12.2049 C   0  0  1  0  0  0  0  0  0  0  0  0
   24.8054  -21.9822  -10.9732 C   0  0  0  0  0  0  0  0  0  0  0  0
   25.8462  -21.0438  -10.5603 C   0  0  0  0  0  0  0  0  0  0  0  0
   25.7004  -20.0486   -9.6141 C   0  0  0  0  0  0  0  0  0  0  0  0
   26.8539  -19.3721   -9.5253 N   0  0  0  0  0  0  0  0  0  0  0  0
   27.7627  -19.9012  -10.3952 C   0  0  0  0  0  0  0  0  0  0  0  0
   29.0672  -19.6101  -10.6946 C   0  0  0  0  0  0  0  0  0  0  0  0
   29.7650  -20.3439  -11.6312 C   0  0  0  0  0  0  0  0  0  0  0  0
   29.1398  -21.3884  -12.2776 C   0  0  0  0  0  0  0  0  0  0  0  0
   27.8463  -21.6869  -11.9901 C   0  0  0  0  0  0  0  0  0  0  0  0
   27.1310  -20.9497  -11.0441 C   0  0  0  0  0  0  0  0  0  0  0  0
   23.3886  -20.3260  -12.2050 C   0  0  0  0  0  0  0  0  0  0  0  0
   22.2775  -19.9824  -11.4372 O   0  0  0  0  0  0  0  0  0  0  0  0
   23.8620  -19.4261  -12.9467 O   0  0  0  0  0  0  0  0  0  0  0  0
  2  1  1  6
  2  9  1  0
  2  3  1  0
  3  4  1  0
  4  5  2  0
  5  6  1  0
  7  6  1  0
  8  4  1  0
  8  7  2  0
  9 10  2  0
 11 12  1  0
 11  9  1  0
 12 13  1  6
 13 14  1  0
 14 15  1  0
 15 16  2  0
 15 19  1  0
 17 12  1  0
 18 17  2  0
 20 17  1  0
 21 22  1  1
 21 20  1  0
 22 23  1  0
 23 31  1  0
 24 23  2  0
 24 25  1  0
 25 26  1  0
 26 27  1  0
 27 28  2  0
 29 28  1  0
 30 29  2  0
 31 26  2  0
 31 30  1  0
 32 33  1  0
 32 21  1  0
 34 32  2  0
M  END
$$$$
