HEW.pdb
     RDKit          3D

 34 36  0  0  1  0  0  0  0  0999 V2000
   45.9887   -7.9096  -14.2747 N   0  0  0  0  0  0  0  0  0  0  0  0
   45.6231   -7.0961  -13.1120 C   0  0  1  0  0  0  0  0  0  0  0  0
   45.2680   -5.7427  -13.5379 C   0  0  0  0  0  0  0  0  0  0  0  0
   46.3640   -4.9113  -14.1152 C   0  0  0  0  0  0  0  0  0  0  0  0
   46.4688   -4.4322  -15.3926 C   0  0  0  0  0  0  0  0  0  0  0  0
   47.5801   -3.7092  -15.5026 N   0  0  0  0  0  0  0  0  0  0  0  0
   48.1702   -3.7356  -14.2950 C   0  0  0  0  0  0  0  0  0  0  0  0
   47.4368   -4.4649  -13.4449 N   0  0  0  0  0  0  0  0  0  0  0  0
   44.7631   -7.8185  -12.1620 C   0  0  0  0  0  0  0  0  0  0  0  0
   43.7541   -8.4988  -12.6056 O   0  0  0  0  0  0  0  0  0  0  0  0
   45.0394   -7.7773  -10.7768 N   0  0  0  0  0  0  0  0  0  0  0  0
   44.2967   -8.4284   -9.7530 C   0  0  1  0  0  0  0  0  0  0  0  0
   44.8942   -9.1974   -8.6850 C   0  0  0  0  0  0  0  0  0  0  0  0
   44.1321   -9.8397   -7.6077 C   0  0  0  0  0  0  0  0  0  0  0  0
   44.8453  -10.5114   -6.5170 C   0  0  0  0  0  0  0  0  0  0  0  0
   46.1351  -10.4904   -6.4660 O   0  0  0  0  0  0  0  0  0  0  0  0
   43.0817   -7.6243   -9.3389 C   0  0  0  0  0  0  0  0  0  0  0  0
   43.2231   -6.4165   -9.0359 O   0  0  0  0  0  0  0  0  0  0  0  0
   44.2418  -11.2011   -5.4892 O   0  0  0  0  0  0  0  0  0  0  0  0
   41.7735   -8.1556   -9.2700 N   0  0  0  0  0  0  0  0  0  0  0  0
   40.6746   -7.4040   -8.6563 C   0  0  1  0  0  0  0  0  0  0  0  0
   39.4231   -8.1413   -9.0368 C   0  0  0  0  0  0  0  0  0  0  0  0
   38.2229   -7.8506   -8.2564 C   0  0  0  0  0  0  0  0  0  0  0  0
   37.4735   -6.6934   -8.3372 C   0  0  0  0  0  0  0  0  0  0  0  0
   36.4701   -6.7724   -7.4523 N   0  0  0  0  0  0  0  0  0  0  0  0
   36.5399   -7.9616   -6.7863 C   0  0  0  0  0  0  0  0  0  0  0  0
   35.7757   -8.5473   -5.8121 C   0  0  0  0  0  0  0  0  0  0  0  0
   36.0802   -9.8010   -5.3240 C   0  0  0  0  0  0  0  0  0  0  0  0
   37.1720  -10.4770   -5.8246 C   0  0  0  0  0  0  0  0  0  0  0  0
   37.9383   -9.9068   -6.7904 C   0  0  0  0  0  0  0  0  0  0  0  0
   37.6389   -8.6379   -7.2905 C   0  0  0  0  0  0  0  0  0  0  0  0
   40.8537   -7.1385   -7.2436 C   0  0  0  0  0  0  0  0  0  0  0  0
   40.4901   -5.9548   -6.6043 O   0  0  0  0  0  0  0  0  0  0  0  0
   41.3743   -8.0309   -6.5249 O   0  0  0  0  0  0  0  0  0  0  0  0
  2  1  1  6
  2  9  1  0
  2  3  1  0
  3  4  1  0
  4  5  2  0
  5  6  1  0
  7  6  1  0
  8  4  1  0
  8  7  2  0
  9 10  2  0
 11 12  1  0
 11  9  1  0
 12 13  1  1
 13 14  1  0
 14 15  1  0
 15 16  2  0
 15 19  1  0
 17 12  1  0
 18 17  2  0
 20 17  1  0
 21 22  1  1
 21 20  1  0
 22 23  1  0
 23 31  1  0
 24 23  2  0
 24 25  1  0
 25 26  1  0
 26 27  1  0
 27 28  2  0
 29 28  1  0
 30 29  2  0
 31 26  2  0
 31 30  1  0
 32 33  1  0
 32 21  1  0
 34 32  2  0
M  END
$$$$
