HEW.pdb
     RDKit          3D

 34 36  0  0  1  0  0  0  0  0999 V2000
   20.8735  -15.7896  -19.5327 N   0  0  0  0  0  0  0  0  0  0  0  0
   21.9361  -16.7211  -19.9204 C   0  0  1  0  0  0  0  0  0  0  0  0
   23.0752  -15.9842  -20.4667 C   0  0  0  0  0  0  0  0  0  0  0  0
   23.5940  -14.8485  -19.6503 C   0  0  0  0  0  0  0  0  0  0  0  0
   23.2444  -13.5282  -19.7330 C   0  0  0  0  0  0  0  0  0  0  0  0
   23.9110  -12.8370  -18.8123 N   0  0  0  0  0  0  0  0  0  0  0  0
   24.6770  -13.7240  -18.1537 C   0  0  0  0  0  0  0  0  0  0  0  0
   24.4901  -14.9503  -18.6573 N   0  0  0  0  0  0  0  0  0  0  0  0
   22.1543  -17.7799  -18.9227 C   0  0  0  0  0  0  0  0  0  0  0  0
   22.2531  -17.4649  -17.6701 O   0  0  0  0  0  0  0  0  0  0  0  0
   22.2477  -19.1310  -19.3259 N   0  0  0  0  0  0  0  0  0  0  0  0
   22.5399  -20.2399  -18.4841 C   0  0  1  0  0  0  0  0  0  0  0  0
   22.0583  -21.5823  -18.7186 C   0  0  0  0  0  0  0  0  0  0  0  0
   22.3445  -22.7241  -17.8421 C   0  0  0  0  0  0  0  0  0  0  0  0
   21.2528  -23.6106  -17.4278 C   0  0  0  0  0  0  0  0  0  0  0  0
   21.4763  -24.5932  -16.6209 O   0  0  0  0  0  0  0  0  0  0  0  0
   23.9465  -20.1700  -17.9264 C   0  0  0  0  0  0  0  0  0  0  0  0
   24.8787  -19.7814  -18.6683 O   0  0  0  0  0  0  0  0  0  0  0  0
   19.9440  -23.4927  -17.8393 O   0  0  0  0  0  0  0  0  0  0  0  0
   24.2843  -20.5206  -16.5993 N   0  0  0  0  0  0  0  0  0  0  0  0
   25.6660  -20.4407  -16.1159 C   0  0  1  0  0  0  0  0  0  0  0  0
   25.7442  -19.1602  -15.3356 C   0  0  0  0  0  0  0  0  0  0  0  0
   26.4861  -19.1983  -14.0777 C   0  0  0  0  0  0  0  0  0  0  0  0
   27.7939  -18.7900  -13.9044 C   0  0  0  0  0  0  0  0  0  0  0  0
   28.1414  -19.0024  -12.6276 N   0  0  0  0  0  0  0  0  0  0  0  0
   27.0873  -19.5437  -11.9505 C   0  0  0  0  0  0  0  0  0  0  0  0
   26.8962  -19.9332  -10.6514 C   0  0  0  0  0  0  0  0  0  0  0  0
   25.6863  -20.4451  -10.2307 C   0  0  0  0  0  0  0  0  0  0  0  0
   24.6511  -20.5671  -11.1324 C   0  0  0  0  0  0  0  0  0  0  0  0
   24.8281  -20.1850  -12.4237 C   0  0  0  0  0  0  0  0  0  0  0  0
   26.0492  -19.6663  -12.8596 C   0  0  0  0  0  0  0  0  0  0  0  0
   26.1253  -21.6327  -15.4327 C   0  0  0  0  0  0  0  0  0  0  0  0
   27.4627  -21.9679  -15.2302 O   0  0  0  0  0  0  0  0  0  0  0  0
   25.2678  -22.4362  -14.9821 O   0  0  0  0  0  0  0  0  0  0  0  0
  2  1  1  1
  2  9  1  0
  2  3  1  0
  3  4  1  0
  4  5  2  0
  5  6  1  0
  7  6  1  0
  8  4  1  0
  8  7  2  0
  9 10  2  0
 11 12  1  0
 11  9  1  0
 12 13  1  6
 13 14  1  0
 14 15  1  0
 15 16  2  0
 15 19  1  0
 17 12  1  0
 18 17  2  0
 20 17  1  0
 21 22  1  1
 21 20  1  0
 22 23  1  0
 23 31  1  0
 24 23  2  0
 24 25  1  0
 25 26  1  0
 26 27  1  0
 27 28  2  0
 29 28  1  0
 30 29  2  0
 31 26  2  0
 31 30  1  0
 32 33  1  0
 32 21  1  0
 34 32  2  0
M  END
$$$$
