HEW.pdb
     RDKit          3D

 34 36  0  0  1  0  0  0  0  0999 V2000
   22.3672  -18.9779  -17.7540 N   0  0  0  0  0  0  0  0  0  0  0  0
   23.5382  -18.7342  -16.9075 C   0  0  1  0  0  0  0  0  0  0  0  0
   24.3491  -17.6552  -17.4707 C   0  0  0  0  0  0  0  0  0  0  0  0
   24.8012  -17.8220  -18.8826 C   0  0  0  0  0  0  0  0  0  0  0  0
   24.4109  -17.1017  -19.9785 C   0  0  0  0  0  0  0  0  0  0  0  0
   25.0657  -17.5401  -21.0504 N   0  0  0  0  0  0  0  0  0  0  0  0
   25.8654  -18.5337  -20.6256 C   0  0  0  0  0  0  0  0  0  0  0  0
   25.7107  -18.7118  -19.3077 N   0  0  0  0  0  0  0  0  0  0  0  0
   23.2120  -18.7383  -15.4730 C   0  0  0  0  0  0  0  0  0  0  0  0
   22.8227  -17.6414  -14.9046 O   0  0  0  0  0  0  0  0  0  0  0  0
   23.3150  -19.9309  -14.7220 N   0  0  0  0  0  0  0  0  0  0  0  0
   22.9076  -20.1098  -13.3709 C   0  0  1  0  0  0  0  0  0  0  0  0
   21.6024  -20.5895  -12.9765 C   0  0  0  0  0  0  0  0  0  0  0  0
   20.3521  -20.2214  -13.6510 C   0  0  0  0  0  0  0  0  0  0  0  0
   19.4514  -21.2737  -14.1314 C   0  0  0  0  0  0  0  0  0  0  0  0
   19.6675  -22.5101  -13.8296 O   0  0  0  0  0  0  0  0  0  0  0  0
   24.0437  -20.6042  -12.4996 C   0  0  0  0  0  0  0  0  0  0  0  0
   25.1205  -20.9508  -13.0390 O   0  0  0  0  0  0  0  0  0  0  0  0
   18.3405  -21.0608  -14.9169 O   0  0  0  0  0  0  0  0  0  0  0  0
   23.9690  -20.7027  -11.0914 N   0  0  0  0  0  0  0  0  0  0  0  0
   25.0991  -21.1962  -10.2987 C   0  0  1  0  0  0  0  0  0  0  0  0
   26.2732  -20.3541  -10.7071 C   0  0  0  0  0  0  0  0  0  0  0  0
   27.5198  -20.5599   -9.9736 C   0  0  0  0  0  0  0  0  0  0  0  0
   28.5965  -21.3042  -10.4135 C   0  0  0  0  0  0  0  0  0  0  0  0
   29.5411  -21.2910   -9.4628 N   0  0  0  0  0  0  0  0  0  0  0  0
   29.1105  -20.5506   -8.4004 C   0  0  0  0  0  0  0  0  0  0  0  0
   29.6690  -20.2064   -7.1980 C   0  0  0  0  0  0  0  0  0  0  0  0
   28.9918  -19.4089   -6.2991 C   0  0  0  0  0  0  0  0  0  0  0  0
   27.7312  -18.9497   -6.6153 C   0  0  0  0  0  0  0  0  0  0  0  0
   27.1661  -19.2845   -7.8041 C   0  0  0  0  0  0  0  0  0  0  0  0
   27.8431  -20.0918   -8.7206 C   0  0  0  0  0  0  0  0  0  0  0  0
   24.8360  -21.2766   -8.8766 C   0  0  0  0  0  0  0  0  0  0  0  0
   25.4192  -22.1998   -8.0107 O   0  0  0  0  0  0  0  0  0  0  0  0
   24.0239  -20.4607   -8.3677 O   0  0  0  0  0  0  0  0  0  0  0  0
  2  1  1  6
  2  9  1  0
  2  3  1  0
  3  4  1  0
  4  5  2  0
  5  6  1  0
  7  6  1  0
  8  4  1  0
  8  7  2  0
  9 10  2  0
 11 12  1  0
 11  9  1  0
 12 13  1  6
 13 14  1  0
 14 15  1  0
 15 16  2  0
 15 19  1  0
 17 12  1  0
 18 17  2  0
 20 17  1  0
 21 22  1  1
 21 20  1  0
 22 23  1  0
 23 31  1  0
 24 23  2  0
 24 25  1  0
 25 26  1  0
 26 27  1  0
 27 28  2  0
 29 28  1  0
 30 29  2  0
 31 26  2  0
 31 30  1  0
 32 33  1  0
 32 21  1  0
 34 32  2  0
M  END
$$$$
