AEG.pdb
     RDKit          3D

 19 18  0  0  1  0  0  0  0  0999 V2000
   20.4550  -21.8587  -10.1039 C   0  0  0  0  0  0  0  0  0  0  0  0
   19.7640  -21.8762  -11.4575 C   0  0  2  0  0  0  0  0  0  0  0  0
   19.1013  -23.1457  -11.6800 N   0  0  0  0  0  0  0  0  0  0  0  0
   20.7712  -21.6614  -12.5099 C   0  0  0  0  0  0  0  0  0  0  0  0
   21.3958  -22.6456  -12.9696 O   0  0  0  0  0  0  0  0  0  0  0  0
   21.0630  -20.3490  -13.0302 N   0  0  0  0  0  0  0  0  0  0  0  0
   22.0372  -20.2407  -14.0780 C   0  0  1  0  0  0  0  0  0  0  0  0
   21.9150  -18.9918  -14.8846 C   0  0  0  0  0  0  0  0  0  0  0  0
   20.5806  -18.8478  -15.5721 C   0  0  0  0  0  0  0  0  0  0  0  0
   20.5776  -17.5249  -16.2521 C   0  0  0  0  0  0  0  0  0  0  0  0
   21.0653  -17.3378  -17.3996 O   0  0  0  0  0  0  0  0  0  0  0  0
   23.4366  -20.2628  -13.5183 C   0  0  0  0  0  0  0  0  0  0  0  0
   23.7101  -19.8394  -12.3723 O   0  0  0  0  0  0  0  0  0  0  0  0
   20.0214  -16.4166  -15.6307 O   0  0  0  0  0  0  0  0  0  0  0  0
   24.4964  -20.7807  -14.3069 N   0  0  0  0  0  0  0  0  0  0  0  0
   25.8353  -20.9329  -13.8156 C   0  0  0  0  0  0  0  0  0  0  0  0
   26.6546  -21.5669  -14.8616 C   0  0  0  0  0  0  0  0  0  0  0  0
   27.9783  -21.8409  -14.6315 O   0  0  0  0  0  0  0  0  0  0  0  0
   26.1365  -21.8526  -15.9572 O   0  0  0  0  0  0  0  0  0  0  0  0
  2  1  1  1
  2  4  1  0
  2  3  1  0
  4  5  2  0
  6  4  1  0
  7  6  1  0
  7  8  1  1
  9  8  1  0
 10  9  1  0
 11 10  2  0
 12  7  1  0
 13 12  2  0
 14 10  1  0
 15 12  1  0
 16 15  1  0
 17 16  1  0
 18 17  1  0
 19 17  2  0
M  END
$$$$
