AEG.pdb
     RDKit          3D

 19 18  0  0  1  0  0  0  0  0999 V2000
   21.3977  -13.2996  -16.3698 C   0  0  0  0  0  0  0  0  0  0  0  0
   20.2405  -12.6752  -17.1320 C   0  0  2  0  0  0  0  0  0  0  0  0
   20.2324  -13.1219  -18.5106 N   0  0  0  0  0  0  0  0  0  0  0  0
   20.3808  -11.2099  -17.0955 C   0  0  0  0  0  0  0  0  0  0  0  0
   21.3326  -10.6706  -17.7063 O   0  0  0  0  0  0  0  0  0  0  0  0
   19.4538  -10.3725  -16.3758 N   0  0  0  0  0  0  0  0  0  0  0  0
   19.6104   -8.9500  -16.4795 C   0  0  1  0  0  0  0  0  0  0  0  0
   18.3200   -8.2015  -16.4679 C   0  0  0  0  0  0  0  0  0  0  0  0
   18.4712   -6.7369  -16.7941 C   0  0  0  0  0  0  0  0  0  0  0  0
   17.1365   -6.1065  -16.6114 C   0  0  0  0  0  0  0  0  0  0  0  0
   16.1267   -6.7369  -16.1957 O   0  0  0  0  0  0  0  0  0  0  0  0
   20.4357   -8.4133  -15.3380 C   0  0  0  0  0  0  0  0  0  0  0  0
   20.3205   -8.8379  -14.1659 O   0  0  0  0  0  0  0  0  0  0  0  0
   16.9485   -4.7629  -16.8994 O   0  0  0  0  0  0  0  0  0  0  0  0
   21.3849   -7.3877  -15.5839 N   0  0  0  0  0  0  0  0  0  0  0  0
   22.3715   -6.9876  -14.6227 C   0  0  0  0  0  0  0  0  0  0  0  0
   21.8767   -5.8039  -13.9006 C   0  0  0  0  0  0  0  0  0  0  0  0
   22.6772   -5.1667  -12.9878 O   0  0  0  0  0  0  0  0  0  0  0  0
   20.7256   -5.3856  -14.1249 O   0  0  0  0  0  0  0  0  0  0  0  0
  2  1  1  1
  2  4  1  0
  2  3  1  0
  4  5  2  0
  6  4  1  0
  7  6  1  0
  7  8  1  1
  9  8  1  0
 10  9  1  0
 11 10  2  0
 12  7  1  0
 13 12  2  0
 14 10  1  0
 15 12  1  0
 16 15  1  0
 17 16  1  0
 18 17  1  0
 19 17  2  0
M  END
$$$$
