AEG.pdb
     RDKit          3D

 19 18  0  0  1  0  0  0  0  0999 V2000
   17.0958  -10.9422  -15.8308 C   0  0  0  0  0  0  0  0  0  0  0  0
   18.3260  -11.6775  -16.3368 C   0  0  2  0  0  0  0  0  0  0  0  0
   18.4737  -12.9540  -15.6666 N   0  0  0  0  0  0  0  0  0  0  0  0
   19.5162  -10.8505  -16.0774 C   0  0  0  0  0  0  0  0  0  0  0  0
   20.0318  -10.8605  -14.9355 O   0  0  0  0  0  0  0  0  0  0  0  0
   20.1096  -10.0256  -17.1001 N   0  0  0  0  0  0  0  0  0  0  0  0
   21.3334   -9.3437  -16.7900 C   0  0  1  0  0  0  0  0  0  0  0  0
   22.2837   -9.2641  -17.9372 C   0  0  0  0  0  0  0  0  0  0  0  0
   23.6451   -8.7399  -17.5552 C   0  0  0  0  0  0  0  0  0  0  0  0
   24.4621   -8.6939  -18.7973 C   0  0  0  0  0  0  0  0  0  0  0  0
   24.7053   -7.6272  -19.4240 O   0  0  0  0  0  0  0  0  0  0  0  0
   21.0651   -7.9280  -16.3474 C   0  0  0  0  0  0  0  0  0  0  0  0
   20.4730   -7.0966  -17.0725 O   0  0  0  0  0  0  0  0  0  0  0  0
   25.0024   -9.8564  -19.3266 O   0  0  0  0  0  0  0  0  0  0  0  0
   21.4927   -7.5048  -15.0623 N   0  0  0  0  0  0  0  0  0  0  0  0
   21.2847   -6.1749  -14.5670 C   0  0  0  0  0  0  0  0  0  0  0  0
   21.7873   -6.1000  -13.1852 C   0  0  0  0  0  0  0  0  0  0  0  0
   21.7375   -7.2022  -12.3711 O   0  0  0  0  0  0  0  0  0  0  0  0
   22.2580   -5.0281  -12.7612 O   0  0  0  0  0  0  0  0  0  0  0  0
  2  1  1  1
  2  4  1  0
  2  3  1  0
  4  5  2  0
  6  4  1  0
  7  6  1  0
  7  8  1  6
  9  8  1  0
 10  9  1  0
 11 10  2  0
 12  7  1  0
 13 12  2  0
 14 10  1  0
 15 12  1  0
 16 15  1  0
 17 16  1  0
 18 17  1  0
 19 17  2  0
M  END
$$$$
