AEG.pdb
     RDKit          3D

 19 18  0  0  1  0  0  0  0  0999 V2000
   15.1721  -10.0110  -14.6461 C   0  0  0  0  0  0  0  0  0  0  0  0
   16.1868  -10.9729  -15.2419 C   0  0  2  0  0  0  0  0  0  0  0  0
   16.1232  -12.2613  -14.5813 N   0  0  0  0  0  0  0  0  0  0  0  0
   17.5357  -10.4064  -15.0759 C   0  0  0  0  0  0  0  0  0  0  0  0
   18.1391  -10.5701  -13.9900 O   0  0  0  0  0  0  0  0  0  0  0  0
   18.1869   -9.6659  -16.1275 N   0  0  0  0  0  0  0  0  0  0  0  0
   19.5234   -9.1986  -15.8948 C   0  0  1  0  0  0  0  0  0  0  0  0
   20.4292   -9.3611  -17.0688 C   0  0  0  0  0  0  0  0  0  0  0  0
   21.8741   -9.0589  -16.7602 C   0  0  0  0  0  0  0  0  0  0  0  0
   22.6422   -9.2557  -18.0186 C   0  0  0  0  0  0  0  0  0  0  0  0
   23.4974  -10.1699  -18.1693 O   0  0  0  0  0  0  0  0  0  0  0  0
   19.5289   -7.7338  -15.5396 C   0  0  0  0  0  0  0  0  0  0  0  0
   18.7235   -6.9165  -16.0404 O   0  0  0  0  0  0  0  0  0  0  0  0
   22.4395   -8.4165  -19.1041 O   0  0  0  0  0  0  0  0  0  0  0  0
   20.4762   -7.2455  -14.6028 N   0  0  0  0  0  0  0  0  0  0  0  0
   20.5039   -5.8829  -14.1557 C   0  0  0  0  0  0  0  0  0  0  0  0
   21.5522   -5.7415  -13.1318 C   0  0  0  0  0  0  0  0  0  0  0  0
   21.7824   -6.7522  -12.2342 O   0  0  0  0  0  0  0  0  0  0  0  0
   22.2286   -4.6970  -13.0869 O   0  0  0  0  0  0  0  0  0  0  0  0
  2  1  1  1
  2  4  1  0
  2  3  1  0
  4  5  2  0
  6  4  1  0
  7  6  1  0
  7  8  1  6
  9  8  1  0
 10  9  1  0
 11 10  2  0
 12  7  1  0
 13 12  2  0
 14 10  1  0
 15 12  1  0
 16 15  1  0
 17 16  1  0
 18 17  1  0
 19 17  2  0
M  END
$$$$
