AEG.pdb
     RDKit          3D

 19 18  0  0  1  0  0  0  0  0999 V2000
   20.4181  -12.8664  -15.4953 C   0  0  0  0  0  0  0  0  0  0  0  0
   19.8094  -12.0676  -16.6361 C   0  0  2  0  0  0  0  0  0  0  0  0
   20.4411  -12.4069  -17.8955 N   0  0  0  0  0  0  0  0  0  0  0  0
   19.9986  -10.6323  -16.3673 C   0  0  0  0  0  0  0  0  0  0  0  0
   21.0817  -10.0877  -16.6836 O   0  0  0  0  0  0  0  0  0  0  0  0
   18.9726   -9.8304  -15.7488 N   0  0  0  0  0  0  0  0  0  0  0  0
   19.1614   -8.4086  -15.7083 C   0  0  1  0  0  0  0  0  0  0  0  0
   17.8884   -7.6323  -15.7538 C   0  0  0  0  0  0  0  0  0  0  0  0
   17.0083   -7.9883  -16.9255 C   0  0  0  0  0  0  0  0  0  0  0  0
   15.5993   -7.9127  -16.4550 C   0  0  0  0  0  0  0  0  0  0  0  0
   15.1391   -6.9322  -15.8095 O   0  0  0  0  0  0  0  0  0  0  0  0
   19.8791   -7.9951  -14.4489 C   0  0  0  0  0  0  0  0  0  0  0  0
   19.7587   -8.6184  -13.3698 O   0  0  0  0  0  0  0  0  0  0  0  0
   14.7143   -8.9478  -16.7173 O   0  0  0  0  0  0  0  0  0  0  0  0
   20.7283   -6.8585  -14.4696 N   0  0  0  0  0  0  0  0  0  0  0  0
   21.4763   -6.4195  -13.3273 C   0  0  0  0  0  0  0  0  0  0  0  0
   22.2771   -5.2444  -13.7084 C   0  0  0  0  0  0  0  0  0  0  0  0
   22.9826   -4.5514  -12.7586 O   0  0  0  0  0  0  0  0  0  0  0  0
   22.3092   -4.8845  -14.9000 O   0  0  0  0  0  0  0  0  0  0  0  0
  2  1  1  1
  2  4  1  0
  2  3  1  0
  4  5  2  0
  6  4  1  0
  7  6  1  0
  7  8  1  1
  9  8  1  0
 10  9  1  0
 11 10  2  0
 12  7  1  0
 13 12  2  0
 14 10  1  0
 15 12  1  0
 16 15  1  0
 17 16  1  0
 18 17  1  0
 19 17  2  0
M  END
$$$$
