AEG.pdb
     RDKit          3D

 19 18  0  0  1  0  0  0  0  0999 V2000
   18.9410  -11.2898  -14.6001 C   0  0  0  0  0  0  0  0  0  0  0  0
   18.7616  -10.2407  -15.6852 C   0  0  2  0  0  0  0  0  0  0  0  0
   19.4572  -10.6293  -16.8958 N   0  0  0  0  0  0  0  0  0  0  0  0
   19.3020   -8.9587  -15.2030 C   0  0  0  0  0  0  0  0  0  0  0  0
   18.8483   -8.4619  -14.1460 O   0  0  0  0  0  0  0  0  0  0  0  0
   20.3407   -8.2538  -15.9119 N   0  0  0  0  0  0  0  0  0  0  0  0
   20.6592   -6.9200  -15.4894 C   0  0  1  0  0  0  0  0  0  0  0  0
   22.1098   -6.7078  -15.2136 C   0  0  0  0  0  0  0  0  0  0  0  0
   22.4310   -5.3206  -14.7169 C   0  0  0  0  0  0  0  0  0  0  0  0
   22.1759   -5.3091  -13.2515 C   0  0  0  0  0  0  0  0  0  0  0  0
   22.0194   -4.2492  -12.5867 O   0  0  0  0  0  0  0  0  0  0  0  0
   20.2631   -5.9126  -16.5384 C   0  0  0  0  0  0  0  0  0  0  0  0
   20.5264   -6.0660  -17.7527 O   0  0  0  0  0  0  0  0  0  0  0  0
   22.0979   -6.4985  -12.5424 O   0  0  0  0  0  0  0  0  0  0  0  0
   19.5638   -4.7399  -16.1521 N   0  0  0  0  0  0  0  0  0  0  0  0
   19.1234   -3.7471  -17.0889 C   0  0  0  0  0  0  0  0  0  0  0  0
   18.5546   -2.6119  -16.3438 C   0  0  0  0  0  0  0  0  0  0  0  0
   18.4373   -2.6703  -14.9789 O   0  0  0  0  0  0  0  0  0  0  0  0
   18.1808   -1.5979  -16.9623 O   0  0  0  0  0  0  0  0  0  0  0  0
  2  1  1  1
  2  4  1  0
  2  3  1  0
  4  5  2  0
  6  4  1  0
  7  6  1  0
  7  8  1  6
  9  8  1  0
 10  9  1  0
 11 10  2  0
 12  7  1  0
 13 12  2  0
 14 10  1  0
 15 12  1  0
 16 15  1  0
 17 16  1  0
 18 17  1  0
 19 17  2  0
M  END
$$$$
