AEG.pdb
     RDKit          3D

 19 18  0  0  1  0  0  0  0  0999 V2000
   15.8725  -11.8909  -10.7331 C   0  0  0  0  0  0  0  0  0  0  0  0
   15.0932  -10.6384  -11.0993 C   0  0  2  0  0  0  0  0  0  0  0  0
   13.8975  -10.9766  -11.8450 N   0  0  0  0  0  0  0  0  0  0  0  0
   15.9498   -9.7671  -11.9210 C   0  0  0  0  0  0  0  0  0  0  0  0
   16.0890  -10.0193  -13.1404 O   0  0  0  0  0  0  0  0  0  0  0  0
   16.6365   -8.6282  -11.3645 N   0  0  0  0  0  0  0  0  0  0  0  0
   17.3471   -7.7645  -12.2632 C   0  0  1  0  0  0  0  0  0  0  0  0
   16.6263   -6.4954  -12.5720 C   0  0  0  0  0  0  0  0  0  0  0  0
   17.2861   -5.6765  -13.6529 C   0  0  0  0  0  0  0  0  0  0  0  0
   16.4989   -4.4227  -13.7959 C   0  0  0  0  0  0  0  0  0  0  0  0
   15.8042   -3.9340  -12.8641 O   0  0  0  0  0  0  0  0  0  0  0  0
   18.6873   -7.3766  -11.6927 C   0  0  0  0  0  0  0  0  0  0  0  0
   18.8281   -6.9820  -10.5129 O   0  0  0  0  0  0  0  0  0  0  0  0
   16.5007   -3.7246  -14.9944 O   0  0  0  0  0  0  0  0  0  0  0  0
   19.8443   -7.4566  -12.5101 N   0  0  0  0  0  0  0  0  0  0  0  0
   21.1601   -7.1366  -12.0374 C   0  0  0  0  0  0  0  0  0  0  0  0
   21.8635   -6.3683  -13.0778 C   0  0  0  0  0  0  0  0  0  0  0  0
   22.3826   -5.1319  -12.7916 O   0  0  0  0  0  0  0  0  0  0  0  0
   21.9835   -6.8497  -14.2198 O   0  0  0  0  0  0  0  0  0  0  0  0
  2  1  1  6
  2  4  1  0
  2  3  1  0
  4  5  2  0
  6  4  1  0
  7  6  1  0
  7  8  1  1
  9  8  1  0
 10  9  1  0
 11 10  2  0
 12  7  1  0
 13 12  2  0
 14 10  1  0
 15 12  1  0
 16 15  1  0
 17 16  1  0
 18 17  1  0
 19 17  2  0
M  END
$$$$
