MFP.pdb
     RDKit          3D

 27 28  0  0  1  0  0  0  0  0999 V2000
   12.0122  -23.1973   -1.3758 C   0  0  0  0  0  0  0  0  0  0  0  0
   11.3620  -23.9117    0.1743 S   0  0  0  0  0  0  0  0  0  0  0  0
   11.9024  -22.8798    1.5341 C   0  0  0  0  0  0  0  0  0  0  0  0
   13.0727  -21.9828    1.1842 C   0  0  0  0  0  0  0  0  0  0  0  0
   13.4821  -21.1501    2.3687 C   0  0  2  0  0  0  0  0  0  0  0  0
   13.3852  -19.7576    1.9734 N   0  0  0  0  0  0  0  0  0  0  0  0
   14.8266  -21.4033    2.8687 C   0  0  0  0  0  0  0  0  0  0  0  0
   15.8338  -20.8531    2.3313 O   0  0  0  0  0  0  0  0  0  0  0  0
   15.1287  -22.2618    3.9704 N   0  0  0  0  0  0  0  0  0  0  0  0
   16.4658  -22.5286    4.4464 C   0  0  1  0  0  0  0  0  0  0  0  0
   16.6447  -22.1422    5.8754 C   0  0  0  0  0  0  0  0  0  0  0  0
   16.4747  -20.6921    6.0549 C   0  0  0  0  0  0  0  0  0  0  0  0
   17.5476  -19.8736    5.6852 C   0  0  0  0  0  0  0  0  0  0  0  0
   17.5162  -18.5125    5.7684 C   0  0  0  0  0  0  0  0  0  0  0  0
   16.3686  -17.9144    6.2408 C   0  0  0  0  0  0  0  0  0  0  0  0
   15.2989  -18.7174    6.6101 C   0  0  0  0  0  0  0  0  0  0  0  0
   15.3254  -20.0901    6.5282 C   0  0  0  0  0  0  0  0  0  0  0  0
   17.0218  -23.8303    4.1005 C   0  0  0  0  0  0  0  0  0  0  0  0
   16.1810  -24.8051    3.9862 O   0  0  0  0  0  0  0  0  0  0  0  0
   18.3635  -24.1913    3.8694 N   0  0  0  0  0  0  0  0  0  0  0  0
   19.5053  -23.3271    3.8944 C   0  0  0  0  0  0  0  0  0  0  0  0
   20.7081  -24.1860    3.4522 C   0  0  0  0  0  0  0  0  0  0  0  0
   20.0083  -25.3110    2.6730 C   0  0  0  0  0  0  0  0  0  0  0  0
   18.8119  -25.5247    3.5666 C   0  0  1  0  0  0  0  0  0  0  0  0
   19.3075  -26.2374    4.7726 C   0  0  0  0  0  0  0  0  0  0  0  0
   19.4422  -25.7094    5.8992 O   0  0  0  0  0  0  0  0  0  0  0  0
   19.6375  -27.5780    4.6169 O   0  0  0  0  0  0  0  0  0  0  0  0
  2  1  1  0
  3  2  1  0
  3  4  1  0
  4  5  1  0
  5  6  1  6
  7  5  1  0
  7  8  2  0
  9  7  1  0
 10  9  1  0
 10 11  1  1
 12 13  2  0
 12 11  1  0
 14 13  1  0
 15 14  2  0
 16 15  1  0
 16 17  2  0
 17 12  1  0
 18 10  1  0
 19 18  2  0
 20 18  1  0
 20 24  1  0
 21 20  1  0
 22 21  1  0
 22 23  1  0
 23 24  1  0
 24 25  1  1
 25 27  1  0
 26 25  2  0
M  END
$$$$
