MFP.pdb
     RDKit          3D

 27 28  0  0  1  0  0  0  0  0999 V2000
   20.9410  -23.0973  -16.3653 C   0  0  0  0  0  0  0  0  0  0  0  0
   19.9334  -23.4572  -14.8851 S   0  0  0  0  0  0  0  0  0  0  0  0
   20.0653  -22.0641  -13.7680 C   0  0  0  0  0  0  0  0  0  0  0  0
   21.4868  -21.5745  -13.5775 C   0  0  0  0  0  0  0  0  0  0  0  0
   21.5490  -20.5104  -12.5156 C   0  0  2  0  0  0  0  0  0  0  0  0
   20.9648  -19.3059  -13.0746 N   0  0  0  0  0  0  0  0  0  0  0  0
   22.8857  -20.2002  -12.0270 C   0  0  0  0  0  0  0  0  0  0  0  0
   23.5991  -19.3229  -12.5992 O   0  0  0  0  0  0  0  0  0  0  0  0
   23.4982  -20.8294  -10.8996 N   0  0  0  0  0  0  0  0  0  0  0  0
   24.8941  -20.6933  -10.5554 C   0  0  1  0  0  0  0  0  0  0  0  0
   25.1865  -21.1811   -9.1770 C   0  0  0  0  0  0  0  0  0  0  0  0
   26.4475  -20.6149   -8.6737 C   0  0  0  0  0  0  0  0  0  0  0  0
   27.6219  -21.3202   -8.9586 C   0  0  0  0  0  0  0  0  0  0  0  0
   28.8621  -20.8958   -8.5812 C   0  0  0  0  0  0  0  0  0  0  0  0
   28.9619  -19.7119   -7.8838 C   0  0  0  0  0  0  0  0  0  0  0  0
   27.8031  -19.0050   -7.5963 C   0  0  0  0  0  0  0  0  0  0  0  0
   26.5503  -19.4283   -7.9745 C   0  0  0  0  0  0  0  0  0  0  0  0
   25.8492  -21.1321  -11.5645 C   0  0  0  0  0  0  0  0  0  0  0  0
   25.8981  -22.4021  -11.7993 O   0  0  0  0  0  0  0  0  0  0  0  0
   26.7442  -20.3647  -12.3353 N   0  0  0  0  0  0  0  0  0  0  0  0
   27.1310  -19.0047  -12.1073 C   0  0  0  0  0  0  0  0  0  0  0  0
   28.0223  -18.6024  -13.3005 C   0  0  0  0  0  0  0  0  0  0  0  0
   27.5746  -19.6127  -14.3689 C   0  0  0  0  0  0  0  0  0  0  0  0
   27.4339  -20.8413  -13.5049 C   0  0  1  0  0  0  0  0  0  0  0  0
   28.8129  -21.3000  -13.1952 C   0  0  0  0  0  0  0  0  0  0  0  0
   29.3625  -21.1800  -12.0773 O   0  0  0  0  0  0  0  0  0  0  0  0
   29.5211  -21.8991  -14.2295 O   0  0  0  0  0  0  0  0  0  0  0  0
  2  1  1  0
  3  2  1  0
  3  4  1  0
  4  5  1  0
  5  6  1  6
  7  5  1  0
  7  8  2  0
  9  7  1  0
 10  9  1  0
 10 11  1  1
 12 13  2  0
 12 11  1  0
 14 13  1  0
 15 14  2  0
 16 15  1  0
 16 17  2  0
 17 12  1  0
 18 10  1  0
 19 18  2  0
 20 18  1  0
 20 24  1  0
 21 20  1  0
 22 21  1  0
 22 23  1  0
 23 24  1  0
 24 25  1  1
 25 27  1  0
 26 25  2  0
M  END
$$$$
