MFP.pdb
     RDKit          3D

 27 28  0  0  1  0  0  0  0  0999 V2000
   25.8004  -19.0114  -22.0110 C   0  0  0  0  0  0  0  0  0  0  0  0
   26.2084  -17.2778  -21.6061 S   0  0  0  0  0  0  0  0  0  0  0  0
   26.0347  -17.0621  -19.8371 C   0  0  0  0  0  0  0  0  0  0  0  0
   25.8371  -18.3635  -19.0861 C   0  0  0  0  0  0  0  0  0  0  0  0
   27.0822  -18.7398  -18.3298 C   0  0  2  0  0  0  0  0  0  0  0  0
   27.9212  -19.5069  -19.2311 N   0  0  0  0  0  0  0  0  0  0  0  0
   26.8600  -19.5185  -17.1190 C   0  0  0  0  0  0  0  0  0  0  0  0
   26.5304  -20.7405  -17.1838 O   0  0  0  0  0  0  0  0  0  0  0  0
   26.9875  -19.0012  -15.7930 N   0  0  0  0  0  0  0  0  0  0  0  0
   26.5121  -19.6794  -14.6099 C   0  0  1  0  0  0  0  0  0  0  0  0
   27.2720  -19.2855  -13.3889 C   0  0  0  0  0  0  0  0  0  0  0  0
   26.7745  -20.0017  -12.2042 C   0  0  0  0  0  0  0  0  0  0  0  0
   25.8412  -19.3362  -11.4018 C   0  0  0  0  0  0  0  0  0  0  0  0
   25.2741  -19.8917  -10.2926 C   0  0  0  0  0  0  0  0  0  0  0  0
   25.6398  -21.1738   -9.9458 C   0  0  0  0  0  0  0  0  0  0  0  0
   26.5646  -21.8424  -10.7352 C   0  0  0  0  0  0  0  0  0  0  0  0
   27.1395  -21.2870  -11.8545 C   0  0  0  0  0  0  0  0  0  0  0  0
   25.0666  -19.7213  -14.4320 C   0  0  0  0  0  0  0  0  0  0  0  0
   24.4530  -18.5839  -14.4226 O   0  0  0  0  0  0  0  0  0  0  0  0
   24.2232  -20.8369  -14.2643 N   0  0  0  0  0  0  0  0  0  0  0  0
   24.6210  -22.2068  -14.1361 C   0  0  0  0  0  0  0  0  0  0  0  0
   23.3195  -23.0345  -14.1064 C   0  0  0  0  0  0  0  0  0  0  0  0
   22.3348  -22.0779  -14.7976 C   0  0  0  0  0  0  0  0  0  0  0  0
   22.7875  -20.7738  -14.1893 C   0  0  1  0  0  0  0  0  0  0  0  0
   22.2985  -20.7701  -12.7862 C   0  0  0  0  0  0  0  0  0  0  0  0
   23.0111  -21.0250  -11.7894 O   0  0  0  0  0  0  0  0  0  0  0  0
   20.9583  -20.4603  -12.5904 O   0  0  0  0  0  0  0  0  0  0  0  0
  2  1  1  0
  3  2  1  0
  3  4  1  0
  4  5  1  0
  5  6  1  6
  7  5  1  0
  7  8  2  0
  9  7  1  0
 10  9  1  0
 10 11  1  1
 12 13  2  0
 12 11  1  0
 14 13  1  0
 15 14  2  0
 16 15  1  0
 16 17  2  0
 17 12  1  0
 18 10  1  0
 19 18  2  0
 20 18  1  0
 20 24  1  0
 21 20  1  0
 22 21  1  0
 22 23  1  0
 23 24  1  0
 24 25  1  1
 25 27  1  0
 26 25  2  0
M  END
$$$$
