MFP.pdb
     RDKit          3D

 27 28  0  0  1  0  0  0  0  0999 V2000
   24.7671  -17.3168  -21.7619 C   0  0  0  0  0  0  0  0  0  0  0  0
   24.8786  -15.7241  -20.8749 S   0  0  0  0  0  0  0  0  0  0  0  0
   25.9815  -15.9378  -19.4807 C   0  0  0  0  0  0  0  0  0  0  0  0
   25.6815  -17.1737  -18.6565 C   0  0  0  0  0  0  0  0  0  0  0  0
   26.9421  -17.7389  -18.0604 C   0  0  2  0  0  0  0  0  0  0  0  0
   27.6628  -18.4090  -19.1264 N   0  0  0  0  0  0  0  0  0  0  0  0
   26.7424  -18.6793  -16.9661 C   0  0  0  0  0  0  0  0  0  0  0  0
   26.4139  -19.8817  -17.1946 O   0  0  0  0  0  0  0  0  0  0  0  0
   26.8920  -18.3508  -15.5834 N   0  0  0  0  0  0  0  0  0  0  0  0
   26.4657  -19.2026  -14.4979 C   0  0  1  0  0  0  0  0  0  0  0  0
   27.1928  -18.9085  -13.2297 C   0  0  0  0  0  0  0  0  0  0  0  0
   26.6721  -19.7244  -12.1219 C   0  0  0  0  0  0  0  0  0  0  0  0
   27.2834  -20.9633  -11.9001 C   0  0  0  0  0  0  0  0  0  0  0  0
   26.9237  -21.8072  -10.8906 C   0  0  0  0  0  0  0  0  0  0  0  0
   25.9063  -21.4185  -10.0470 C   0  0  0  0  0  0  0  0  0  0  0  0
   25.2937  -20.1916  -10.2586 C   0  0  0  0  0  0  0  0  0  0  0  0
   25.6524  -19.3370  -11.2748 C   0  0  0  0  0  0  0  0  0  0  0  0
   25.0269  -19.3710  -14.3418 C   0  0  0  0  0  0  0  0  0  0  0  0
   24.3271  -18.2893  -14.2386 O   0  0  0  0  0  0  0  0  0  0  0  0
   24.2715  -20.5584  -14.2842 N   0  0  0  0  0  0  0  0  0  0  0  0
   24.7737  -21.8995  -14.2661 C   0  0  0  0  0  0  0  0  0  0  0  0
   23.5405  -22.8244  -14.3294 C   0  0  0  0  0  0  0  0  0  0  0  0
   22.4916  -21.8903  -14.9538 C   0  0  0  0  0  0  0  0  0  0  0  0
   22.8346  -20.6126  -14.2291 C   0  0  1  0  0  0  0  0  0  0  0  0
   22.3318  -20.7672  -12.8394 C   0  0  0  0  0  0  0  0  0  0  0  0
   23.0504  -21.0572  -11.8567 O   0  0  0  0  0  0  0  0  0  0  0  0
   20.9706  -20.5726  -12.6401 O   0  0  0  0  0  0  0  0  0  0  0  0
  2  1  1  0
  3  2  1  0
  3  4  1  0
  4  5  1  0
  5  6  1  6
  7  5  1  0
  7  8  2  0
  9  7  1  0
 10  9  1  0
 10 11  1  1
 12 13  2  0
 12 11  1  0
 14 13  1  0
 15 14  2  0
 16 15  1  0
 16 17  2  0
 17 12  1  0
 18 10  1  0
 19 18  2  0
 20 18  1  0
 20 24  1  0
 21 20  1  0
 22 21  1  0
 22 23  1  0
 23 24  1  0
 24 25  1  1
 25 27  1  0
 26 25  2  0
M  END
$$$$
