MFP.pdb
     RDKit          3D

 27 28  0  0  1  0  0  0  0  0999 V2000
   23.0725  -17.7577  -20.3359 C   0  0  0  0  0  0  0  0  0  0  0  0
   24.6119  -17.6383  -21.3115 S   0  0  0  0  0  0  0  0  0  0  0  0
   25.6840  -18.9891  -20.8299 C   0  0  0  0  0  0  0  0  0  0  0  0
   25.3774  -19.5428  -19.4529 C   0  0  0  0  0  0  0  0  0  0  0  0
   26.6459  -19.8291  -18.6961 C   0  0  2  0  0  0  0  0  0  0  0  0
   27.4312  -20.7477  -19.4987 N   0  0  0  0  0  0  0  0  0  0  0  0
   26.4602  -20.4048  -17.3710 C   0  0  0  0  0  0  0  0  0  0  0  0
   26.2460  -21.6455  -17.2260 O   0  0  0  0  0  0  0  0  0  0  0  0
   26.5004  -19.6569  -16.1541 N   0  0  0  0  0  0  0  0  0  0  0  0
   26.0311  -20.1540  -14.8820 C   0  0  1  0  0  0  0  0  0  0  0  0
   26.7700  -19.5550  -13.7337 C   0  0  0  0  0  0  0  0  0  0  0  0
   26.3053  -20.1175  -12.4563 C   0  0  0  0  0  0  0  0  0  0  0  0
   25.2304  -19.4766  -11.8306 C   0  0  0  0  0  0  0  0  0  0  0  0
   24.6782  -19.9078  -10.6602 C   0  0  0  0  0  0  0  0  0  0  0  0
   25.2068  -21.0322  -10.0650 C   0  0  0  0  0  0  0  0  0  0  0  0
   26.2730  -21.6750  -10.6778 C   0  0  0  0  0  0  0  0  0  0  0  0
   26.8335  -21.2445  -11.8577 C   0  0  0  0  0  0  0  0  0  0  0  0
   24.5855  -20.2049  -14.7070 C   0  0  0  0  0  0  0  0  0  0  0  0
   23.9454  -19.0935  -14.8666 O   0  0  0  0  0  0  0  0  0  0  0  0
   23.7671  -21.3044  -14.3826 N   0  0  0  0  0  0  0  0  0  0  0  0
   24.1964  -22.6260  -14.0360 C   0  0  0  0  0  0  0  0  0  0  0  0
   22.9158  -23.4756  -13.9007 C   0  0  0  0  0  0  0  0  0  0  0  0
   21.9226  -22.6659  -14.7495 C   0  0  0  0  0  0  0  0  0  0  0  0
   22.3290  -21.2711  -14.3436 C   0  0  1  0  0  0  0  0  0  0  0  0
   21.8097  -21.0636  -12.9669 C   0  0  0  0  0  0  0  0  0  0  0  0
   22.5099  -21.1247  -11.9315 O   0  0  0  0  0  0  0  0  0  0  0  0
   20.4542  -20.7845  -12.8439 O   0  0  0  0  0  0  0  0  0  0  0  0
  2  1  1  0
  3  2  1  0
  3  4  1  0
  4  5  1  0
  5  6  1  6
  7  5  1  0
  7  8  2  0
  9  7  1  0
 10  9  1  0
 10 11  1  1
 12 13  2  0
 12 11  1  0
 14 13  1  0
 15 14  2  0
 16 15  1  0
 16 17  2  0
 17 12  1  0
 18 10  1  0
 19 18  2  0
 20 18  1  0
 20 24  1  0
 21 20  1  0
 22 21  1  0
 22 23  1  0
 23 24  1  0
 24 25  1  1
 25 27  1  0
 26 25  2  0
M  END
$$$$
