MFP.pdb
     RDKit          3D

 27 28  0  0  1  0  0  0  0  0999 V2000
   21.9146  -20.7254  -10.4821 C   0  0  0  0  0  0  0  0  0  0  0  0
   21.7445  -21.5767  -12.0889 S   0  0  0  0  0  0  0  0  0  0  0  0
   23.2294  -21.2718  -13.0420 C   0  0  0  0  0  0  0  0  0  0  0  0
   24.5004  -21.3416  -12.2197 C   0  0  0  0  0  0  0  0  0  0  0  0
   24.9521  -19.9650  -11.8140 C   0  0  2  0  0  0  0  0  0  0  0  0
   25.4100  -19.2885  -13.0129 N   0  0  0  0  0  0  0  0  0  0  0  0
   26.0166  -19.9301  -10.8203 C   0  0  0  0  0  0  0  0  0  0  0  0
   27.2325  -19.8710  -11.1726 O   0  0  0  0  0  0  0  0  0  0  0  0
   25.8022  -19.9574   -9.4077 N   0  0  0  0  0  0  0  0  0  0  0  0
   26.8625  -19.9996   -8.4282 C   0  0  1  0  0  0  0  0  0  0  0  0
   26.3610  -19.7734   -7.0423 C   0  0  0  0  0  0  0  0  0  0  0  0
   27.4737  -19.5245   -6.1128 C   0  0  0  0  0  0  0  0  0  0  0  0
   27.9022  -20.6009   -5.3282 C   0  0  0  0  0  0  0  0  0  0  0  0
   28.9414  -20.5210   -4.4483 C   0  0  0  0  0  0  0  0  0  0  0  0
   29.6020  -19.3182   -4.3269 C   0  0  0  0  0  0  0  0  0  0  0  0
   29.1848  -18.2447   -5.1007 C   0  0  0  0  0  0  0  0  0  0  0  0
   28.1377  -18.3198   -5.9894 C   0  0  0  0  0  0  0  0  0  0  0  0
   27.8084  -21.1007   -8.5539 C   0  0  0  0  0  0  0  0  0  0  0  0
   27.3043  -22.2875   -8.6411 O   0  0  0  0  0  0  0  0  0  0  0  0
   29.2159  -21.0639   -8.5940 N   0  0  0  0  0  0  0  0  0  0  0  0
   30.0563  -19.9334   -8.3353 C   0  0  0  0  0  0  0  0  0  0  0  0
   31.4992  -20.3888   -8.6367 C   0  0  0  0  0  0  0  0  0  0  0  0
   31.2526  -21.5723   -9.5859 C   0  0  0  0  0  0  0  0  0  0  0  0
   30.0557  -22.1898   -8.9065 C   0  0  1  0  0  0  0  0  0  0  0  0
   30.5653  -22.8658   -7.6853 C   0  0  0  0  0  0  0  0  0  0  0  0
   31.2966  -23.8814   -7.6935 O   0  0  0  0  0  0  0  0  0  0  0  0
   30.1933  -22.3176   -6.4641 O   0  0  0  0  0  0  0  0  0  0  0  0
  2  1  1  0
  3  2  1  0
  3  4  1  0
  4  5  1  0
  5  6  1  6
  7  5  1  0
  7  8  2  0
  9  7  1  0
 10  9  1  0
 10 11  1  1
 12 13  2  0
 12 11  1  0
 14 13  1  0
 15 14  2  0
 16 15  1  0
 16 17  2  0
 17 12  1  0
 18 10  1  0
 19 18  2  0
 20 18  1  0
 20 24  1  0
 21 20  1  0
 22 21  1  0
 22 23  1  0
 23 24  1  0
 24 25  1  1
 25 27  1  0
 26 25  2  0
M  END
$$$$
