MFP.pdb
     RDKit          3D

 27 28  0  0  1  0  0  0  0  0999 V2000
   22.9118  -16.5989  -17.9757 C   0  0  0  0  0  0  0  0  0  0  0  0
   23.0495  -14.9182  -17.2742 S   0  0  0  0  0  0  0  0  0  0  0  0
   24.0683  -15.0087  -15.8045 C   0  0  0  0  0  0  0  0  0  0  0  0
   24.8281  -16.3136  -15.6752 C   0  0  0  0  0  0  0  0  0  0  0  0
   25.5614  -16.3786  -14.3630 C   0  0  2  0  0  0  0  0  0  0  0  0
   26.6334  -15.4025  -14.4170 N   0  0  0  0  0  0  0  0  0  0  0  0
   26.1278  -17.6795  -14.0336 C   0  0  0  0  0  0  0  0  0  0  0  0
   27.2597  -18.0282  -14.4846 O   0  0  0  0  0  0  0  0  0  0  0  0
   25.4883  -18.6503  -13.2026 N   0  0  0  0  0  0  0  0  0  0  0  0
   25.9332  -20.0173  -13.0644 C   0  0  1  0  0  0  0  0  0  0  0  0
   25.2968  -20.7041  -11.9040 C   0  0  0  0  0  0  0  0  0  0  0  0
   26.0060  -20.3933  -10.6533 C   0  0  0  0  0  0  0  0  0  0  0  0
   27.0437  -21.2535  -10.2777 C   0  0  0  0  0  0  0  0  0  0  0  0
   27.8047  -21.0682   -9.1609 C   0  0  0  0  0  0  0  0  0  0  0  0
   27.5367  -19.9778   -8.3628 C   0  0  0  0  0  0  0  0  0  0  0  0
   26.5097  -19.1186   -8.7266 C   0  0  0  0  0  0  0  0  0  0  0  0
   25.7394  -19.3008   -9.8515 C   0  0  0  0  0  0  0  0  0  0  0  0
   25.9661  -20.8078  -14.2879 C   0  0  0  0  0  0  0  0  0  0  0  0
   24.8930  -20.8014  -15.0082 O   0  0  0  0  0  0  0  0  0  0  0  0
   27.0115  -21.5933  -14.8114 N   0  0  0  0  0  0  0  0  0  0  0  0
   28.2657  -21.8869  -14.1854 C   0  0  0  0  0  0  0  0  0  0  0  0
   29.0944  -22.6717  -15.2234 C   0  0  0  0  0  0  0  0  0  0  0  0
   28.4232  -22.2404  -16.5373 C   0  0  0  0  0  0  0  0  0  0  0  0
   26.9816  -22.2467  -16.0931 C   0  0  1  0  0  0  0  0  0  0  0  0
   26.5788  -23.6730  -15.9866 C   0  0  0  0  0  0  0  0  0  0  0  0
   26.4231  -24.2839  -14.9055 O   0  0  0  0  0  0  0  0  0  0  0  0
   26.3661  -24.3549  -17.1783 O   0  0  0  0  0  0  0  0  0  0  0  0
  2  1  1  0
  3  2  1  0
  3  4  1  0
  4  5  1  0
  5  6  1  6
  7  5  1  0
  7  8  2  0
  9  7  1  0
 10  9  1  0
 10 11  1  1
 12 13  2  0
 12 11  1  0
 14 13  1  0
 15 14  2  0
 16 15  1  0
 16 17  2  0
 17 12  1  0
 18 10  1  0
 19 18  2  0
 20 18  1  0
 20 24  1  0
 21 20  1  0
 22 21  1  0
 22 23  1  0
 23 24  1  0
 24 25  1  1
 25 27  1  0
 26 25  2  0
M  END
$$$$
