MFP.pdb
     RDKit          3D

 27 28  0  0  1  0  0  0  0  0999 V2000
   23.4661  -18.0812  -21.2463 C   0  0  0  0  0  0  0  0  0  0  0  0
   24.5474  -16.6319  -20.9886 S   0  0  0  0  0  0  0  0  0  0  0  0
   26.0149  -17.1780  -20.1202 C   0  0  0  0  0  0  0  0  0  0  0  0
   25.7310  -18.1970  -19.0349 C   0  0  0  0  0  0  0  0  0  0  0  0
   26.9833  -18.5263  -18.2687 C   0  0  2  0  0  0  0  0  0  0  0  0
   27.8577  -19.2613  -19.1630 N   0  0  0  0  0  0  0  0  0  0  0  0
   26.7808  -19.3127  -17.0594 C   0  0  0  0  0  0  0  0  0  0  0  0
   26.6222  -20.5686  -17.1203 O   0  0  0  0  0  0  0  0  0  0  0  0
   26.7435  -18.7668  -15.7394 N   0  0  0  0  0  0  0  0  0  0  0  0
   26.3181  -19.5011  -14.5709 C   0  0  1  0  0  0  0  0  0  0  0  0
   26.9771  -19.0129  -13.3256 C   0  0  0  0  0  0  0  0  0  0  0  0
   26.4980  -19.7553  -12.1495 C   0  0  0  0  0  0  0  0  0  0  0  0
   27.2122  -20.9019  -11.7847 C   0  0  0  0  0  0  0  0  0  0  0  0
   26.8990  -21.6672  -10.6999 C   0  0  0  0  0  0  0  0  0  0  0  0
   25.8243  -21.2907   -9.9246 C   0  0  0  0  0  0  0  0  0  0  0  0
   25.1096  -20.1551  -10.2780 C   0  0  0  0  0  0  0  0  0  0  0  0
   25.4211  -19.3799  -11.3706 C   0  0  0  0  0  0  0  0  0  0  0  0
   24.8847  -19.7294  -14.4437 C   0  0  0  0  0  0  0  0  0  0  0  0
   24.1257  -18.6855  -14.5121 O   0  0  0  0  0  0  0  0  0  0  0  0
   24.1904  -20.9399  -14.2524 N   0  0  0  0  0  0  0  0  0  0  0  0
   24.7604  -22.2333  -14.0213 C   0  0  0  0  0  0  0  0  0  0  0  0
   23.5825  -23.2295  -14.0085 C   0  0  0  0  0  0  0  0  0  0  0  0
   22.5208  -22.4553  -14.8061 C   0  0  0  0  0  0  0  0  0  0  0  0
   22.7574  -21.0710  -14.2552 C   0  0  1  0  0  0  0  0  0  0  0  0
   22.1902  -21.0603  -12.8819 C   0  0  0  0  0  0  0  0  0  0  0  0
   22.8737  -21.1185  -11.8352 O   0  0  0  0  0  0  0  0  0  0  0  0
   20.8072  -20.9799  -12.7756 O   0  0  0  0  0  0  0  0  0  0  0  0
  2  1  1  0
  3  2  1  0
  3  4  1  0
  4  5  1  0
  5  6  1  6
  7  5  1  0
  7  8  2  0
  9  7  1  0
 10  9  1  0
 10 11  1  1
 12 13  2  0
 12 11  1  0
 14 13  1  0
 15 14  2  0
 16 15  1  0
 16 17  2  0
 17 12  1  0
 18 10  1  0
 19 18  2  0
 20 18  1  0
 20 24  1  0
 21 20  1  0
 22 21  1  0
 22 23  1  0
 23 24  1  0
 24 25  1  1
 25 27  1  0
 26 25  2  0
M  END
$$$$
