MFP.pdb
     RDKit          3D

 27 28  0  0  1  0  0  0  0  0999 V2000
   21.9049  -22.4239  -10.8100 C   0  0  0  0  0  0  0  0  0  0  0  0
   21.2136  -21.9337  -12.4280 S   0  0  0  0  0  0  0  0  0  0  0  0
   22.5472  -21.2845  -13.4310 C   0  0  0  0  0  0  0  0  0  0  0  0
   23.8947  -21.3147  -12.7381 C   0  0  0  0  0  0  0  0  0  0  0  0
   24.2464  -19.9576  -12.1917 C   0  0  2  0  0  0  0  0  0  0  0  0
   24.5607  -19.1039  -13.3217 N   0  0  0  0  0  0  0  0  0  0  0  0
   25.3671  -19.9359  -11.2615 C   0  0  0  0  0  0  0  0  0  0  0  0
   26.5595  -19.8540  -11.6827 O   0  0  0  0  0  0  0  0  0  0  0  0
   25.2364  -20.0015   -9.8399 N   0  0  0  0  0  0  0  0  0  0  0  0
   26.3524  -20.0783   -8.9267 C   0  0  1  0  0  0  0  0  0  0  0  0
   25.9213  -20.0139   -7.5007 C   0  0  0  0  0  0  0  0  0  0  0  0
   27.0765  -19.8335   -6.6080 C   0  0  0  0  0  0  0  0  0  0  0  0
   27.5505  -18.5286   -6.4341 C   0  0  0  0  0  0  0  0  0  0  0  0
   28.5926  -18.2122   -5.6128 C   0  0  0  0  0  0  0  0  0  0  0  0
   29.2090  -19.2307   -4.9196 C   0  0  0  0  0  0  0  0  0  0  0  0
   28.7464  -20.5284   -5.0852 C   0  0  0  0  0  0  0  0  0  0  0  0
   27.6962  -20.8528   -5.9120 C   0  0  0  0  0  0  0  0  0  0  0  0
   27.3433  -21.1083   -9.2100 C   0  0  0  0  0  0  0  0  0  0  0  0
   26.8978  -22.3124   -9.3586 O   0  0  0  0  0  0  0  0  0  0  0  0
   28.7397  -20.9853   -9.3473 N   0  0  0  0  0  0  0  0  0  0  0  0
   29.5292  -19.8140   -9.1110 C   0  0  0  0  0  0  0  0  0  0  0  0
   30.9708  -20.1723   -9.5275 C   0  0  0  0  0  0  0  0  0  0  0  0
   30.7261  -21.3409  -10.4955 C   0  0  0  0  0  0  0  0  0  0  0  0
   29.6191  -22.0490   -9.7547 C   0  0  1  0  0  0  0  0  0  0  0  0
   30.2537  -22.7276   -8.5951 C   0  0  0  0  0  0  0  0  0  0  0  0
   30.1508  -22.3427   -7.4088 O   0  0  0  0  0  0  0  0  0  0  0  0
   31.0067  -23.8628   -8.8685 O   0  0  0  0  0  0  0  0  0  0  0  0
  2  1  1  0
  3  2  1  0
  3  4  1  0
  4  5  1  0
  5  6  1  6
  7  5  1  0
  7  8  2  0
  9  7  1  0
 10  9  1  0
 10 11  1  1
 12 13  2  0
 12 11  1  0
 14 13  1  0
 15 14  2  0
 16 15  1  0
 16 17  2  0
 17 12  1  0
 18 10  1  0
 19 18  2  0
 20 18  1  0
 20 24  1  0
 21 20  1  0
 22 21  1  0
 22 23  1  0
 23 24  1  0
 24 25  1  1
 25 27  1  0
 26 25  2  0
M  END
$$$$
