MFP.pdb
     RDKit          3D

 27 28  0  0  1  0  0  0  0  0999 V2000
   21.9055  -21.6889  -13.5134 C   0  0  0  0  0  0  0  0  0  0  0  0
   22.9245  -23.1753  -13.2167 S   0  0  0  0  0  0  0  0  0  0  0  0
   24.6115  -22.6475  -12.9313 C   0  0  0  0  0  0  0  0  0  0  0  0
   24.7941  -21.1446  -12.9977 C   0  0  0  0  0  0  0  0  0  0  0  0
   24.3184  -20.4906  -11.7289 C   0  0  2  0  0  0  0  0  0  0  0  0
   23.5856  -19.2965  -12.1054 N   0  0  0  0  0  0  0  0  0  0  0  0
   25.3698  -20.1197  -10.7914 C   0  0  0  0  0  0  0  0  0  0  0  0
   26.1457  -19.1481  -11.0367 O   0  0  0  0  0  0  0  0  0  0  0  0
   25.6184  -20.7879   -9.5530 N   0  0  0  0  0  0  0  0  0  0  0  0
   26.7073  -20.4631   -8.6617 C   0  0  1  0  0  0  0  0  0  0  0  0
   26.2334  -20.1350   -7.2866 C   0  0  0  0  0  0  0  0  0  0  0  0
   27.3666  -19.8601   -6.3898 C   0  0  0  0  0  0  0  0  0  0  0  0
   27.8105  -18.5355   -6.3107 C   0  0  0  0  0  0  0  0  0  0  0  0
   28.8293  -18.1331   -5.4979 C   0  0  0  0  0  0  0  0  0  0  0  0
   29.4521  -19.0804   -4.7152 C   0  0  0  0  0  0  0  0  0  0  0  0
   29.0191  -20.3967   -4.7863 C   0  0  0  0  0  0  0  0  0  0  0  0
   27.9925  -20.8079   -5.6041 C   0  0  0  0  0  0  0  0  0  0  0  0
   27.8591  -21.3545   -8.7049 C   0  0  0  0  0  0  0  0  0  0  0  0
   27.6229  -22.6119   -8.5222 O   0  0  0  0  0  0  0  0  0  0  0  0
   29.2162  -21.0442   -8.9186 N   0  0  0  0  0  0  0  0  0  0  0  0
   29.8079  -19.7403   -8.9490 C   0  0  0  0  0  0  0  0  0  0  0  0
   31.2854  -19.9444   -9.3432 C   0  0  0  0  0  0  0  0  0  0  0  0
   31.2256  -21.3072  -10.0516 C   0  0  0  0  0  0  0  0  0  0  0  0
   30.2529  -22.0167   -9.1428 C   0  0  1  0  0  0  0  0  0  0  0  0
   30.9971  -22.3406   -7.8981 C   0  0  0  0  0  0  0  0  0  0  0  0
   31.9552  -23.1434   -7.8370 O   0  0  0  0  0  0  0  0  0  0  0  0
   30.5855  -21.6986   -6.7368 O   0  0  0  0  0  0  0  0  0  0  0  0
  2  1  1  0
  3  2  1  0
  3  4  1  0
  4  5  1  0
  5  6  1  6
  7  5  1  0
  7  8  2  0
  9  7  1  0
 10  9  1  0
 10 11  1  1
 12 13  2  0
 12 11  1  0
 14 13  1  0
 15 14  2  0
 16 15  1  0
 16 17  2  0
 17 12  1  0
 18 10  1  0
 19 18  2  0
 20 18  1  0
 20 24  1  0
 21 20  1  0
 22 21  1  0
 22 23  1  0
 23 24  1  0
 24 25  1  1
 25 27  1  0
 26 25  2  0
M  END
$$$$
