MFP.pdb
     RDKit          3D

 27 28  0  0  1  0  0  0  0  0999 V2000
   17.2838   -5.4368  -20.0529 C   0  0  0  0  0  0  0  0  0  0  0  0
   16.5081   -6.5771  -18.8555 S   0  0  0  0  0  0  0  0  0  0  0  0
   17.0567   -6.1198  -17.2135 C   0  0  0  0  0  0  0  0  0  0  0  0
   18.4888   -5.6259  -17.1704 C   0  0  0  0  0  0  0  0  0  0  0  0
   19.1044   -5.8852  -15.8222 C   0  0  2  0  0  0  0  0  0  0  0  0
   19.0560   -4.6412  -15.0775 N   0  0  0  0  0  0  0  0  0  0  0  0
   20.4807   -6.3614  -15.8509 C   0  0  0  0  0  0  0  0  0  0  0  0
   21.4479   -5.5476  -15.9415 O   0  0  0  0  0  0  0  0  0  0  0  0
   20.8592   -7.7377  -15.7817 N   0  0  0  0  0  0  0  0  0  0  0  0
   22.2210   -8.2088  -15.8771 C   0  0  1  0  0  0  0  0  0  0  0  0
   22.6020   -9.0733  -14.7234 C   0  0  0  0  0  0  0  0  0  0  0  0
   23.9286   -9.6745  -14.9303 C   0  0  0  0  0  0  0  0  0  0  0  0
   23.9723  -11.0480  -15.1936 C   0  0  0  0  0  0  0  0  0  0  0  0
   25.1292  -11.7290  -15.4354 C   0  0  0  0  0  0  0  0  0  0  0  0
   26.3146  -11.0271  -15.4194 C   0  0  0  0  0  0  0  0  0  0  0  0
   26.2818   -9.6645  -15.1593 C   0  0  0  0  0  0  0  0  0  0  0  0
   25.1182   -8.9731  -14.9149 C   0  0  0  0  0  0  0  0  0  0  0  0
   22.6320   -8.7236  -17.1767 C   0  0  0  0  0  0  0  0  0  0  0  0
   21.8799   -9.6347  -17.7007 O   0  0  0  0  0  0  0  0  0  0  0  0
   23.7479   -8.3710  -17.9605 N   0  0  0  0  0  0  0  0  0  0  0  0
   24.8104   -7.4822  -17.5970 C   0  0  0  0  0  0  0  0  0  0  0  0
   25.7033   -7.3408  -18.8472 C   0  0  0  0  0  0  0  0  0  0  0  0
   24.7225   -7.7253  -19.9665 C   0  0  0  0  0  0  0  0  0  0  0  0
   24.0056   -8.8655  -19.2871 C   0  0  1  0  0  0  0  0  0  0  0  0
   24.9474  -10.0148  -19.2845 C   0  0  0  0  0  0  0  0  0  0  0  0
   25.6290  -10.3668  -18.2957 O   0  0  0  0  0  0  0  0  0  0  0  0
   25.0636  -10.7325  -20.4684 O   0  0  0  0  0  0  0  0  0  0  0  0
  2  1  1  0
  3  2  1  0
  3  4  1  0
  4  5  1  0
  5  6  1  1
  7  5  1  0
  7  8  2  0
  9  7  1  0
 10  9  1  0
 10 11  1  1
 12 13  2  0
 12 11  1  0
 14 13  1  0
 15 14  2  0
 16 15  1  0
 16 17  2  0
 17 12  1  0
 18 10  1  0
 19 18  2  0
 20 18  1  0
 20 24  1  0
 21 20  1  0
 22 21  1  0
 22 23  1  0
 23 24  1  0
 24 25  1  1
 25 27  1  0
 26 25  2  0
M  END
$$$$
