MFP.pdb
     RDKit          3D

 27 28  0  0  1  0  0  0  0  0999 V2000
   24.4685  -18.6739  -20.9477 C   0  0  0  0  0  0  0  0  0  0  0  0
   26.0641  -17.8550  -21.2930 S   0  0  0  0  0  0  0  0  0  0  0  0
   27.3122  -18.6018  -20.2487 C   0  0  0  0  0  0  0  0  0  0  0  0
   26.7411  -19.3134  -19.0386 C   0  0  0  0  0  0  0  0  0  0  0  0
   27.8416  -19.8394  -18.1578 C   0  0  2  0  0  0  0  0  0  0  0  0
   28.5565  -20.8499  -18.9144 N   0  0  0  0  0  0  0  0  0  0  0  0
   27.4013  -20.4215  -16.8972 C   0  0  0  0  0  0  0  0  0  0  0  0
   26.8721  -21.5725  -16.8629 O   0  0  0  0  0  0  0  0  0  0  0  0
   27.5191  -19.7774  -15.6270 N   0  0  0  0  0  0  0  0  0  0  0  0
   26.8554  -20.2276  -14.4260 C   0  0  1  0  0  0  0  0  0  0  0  0
   27.5513  -19.7686  -13.1898 C   0  0  0  0  0  0  0  0  0  0  0  0
   26.7971  -20.1524  -11.9865 C   0  0  0  0  0  0  0  0  0  0  0  0
   27.1348  -21.3689  -11.3833 C   0  0  0  0  0  0  0  0  0  0  0  0
   26.5401  -21.8333  -10.2469 C   0  0  0  0  0  0  0  0  0  0  0  0
   25.5567  -21.0641   -9.6644 C   0  0  0  0  0  0  0  0  0  0  0  0
   25.2147  -19.8560  -10.2550 C   0  0  0  0  0  0  0  0  0  0  0  0
   25.8111  -19.3831  -11.4006 C   0  0  0  0  0  0  0  0  0  0  0  0
   25.4073  -20.0693  -14.3957 C   0  0  0  0  0  0  0  0  0  0  0  0
   24.9542  -18.8700  -14.5592 O   0  0  0  0  0  0  0  0  0  0  0  0
   24.4096  -21.0461  -14.2101 N   0  0  0  0  0  0  0  0  0  0  0  0
   24.6062  -22.4359  -13.9256 C   0  0  0  0  0  0  0  0  0  0  0  0
   23.2063  -23.0839  -13.9448 C   0  0  0  0  0  0  0  0  0  0  0  0
   22.4196  -22.0831  -14.8063 C   0  0  0  0  0  0  0  0  0  0  0  0
   22.9944  -20.7934  -14.2753 C   0  0  1  0  0  0  0  0  0  0  0  0
   22.3986  -20.5879  -12.9296 C   0  0  0  0  0  0  0  0  0  0  0  0
   22.9821  -20.8438  -11.8525 O   0  0  0  0  0  0  0  0  0  0  0  0
   21.1073  -20.0770  -12.8874 O   0  0  0  0  0  0  0  0  0  0  0  0
  2  1  1  0
  3  2  1  0
  3  4  1  0
  4  5  1  0
  5  6  1  6
  7  5  1  0
  7  8  2  0
  9  7  1  0
 10  9  1  0
 10 11  1  1
 12 13  2  0
 12 11  1  0
 14 13  1  0
 15 14  2  0
 16 15  1  0
 16 17  2  0
 17 12  1  0
 18 10  1  0
 19 18  2  0
 20 18  1  0
 20 24  1  0
 21 20  1  0
 22 21  1  0
 22 23  1  0
 23 24  1  0
 24 25  1  1
 25 27  1  0
 26 25  2  0
M  END
$$$$
