QDT.pdb
     RDKit          3D

 25 24  0  0  1  0  0  0  0  0999 V2000
    9.1826  -12.0480   19.3379 N   0  0  0  0  0  0  0  0  0  0  0  0
    8.0602  -12.8976   19.1636 C   0  0  0  0  0  0  0  0  0  0  0  0
    6.9797  -12.3901   18.8199 O   0  0  0  0  0  0  0  0  0  0  0  0
    8.1943  -14.3337   19.3931 C   0  0  0  0  0  0  0  0  0  0  0  0
    9.5086  -14.8347   19.8784 C   0  0  0  0  0  0  0  0  0  0  0  0
    9.4541  -16.2726   20.2266 C   0  0  2  0  0  0  0  0  0  0  0  0
    8.4496  -16.9946   19.5041 N   0  0  0  0  0  0  0  0  0  0  0  0
    9.1886  -16.4817   21.7009 C   0  0  0  0  0  0  0  0  0  0  0  0
    8.0298  -16.7192   22.1281 O   0  0  0  0  0  0  0  0  0  0  0  0
   10.2497  -16.4156   22.6563 N   0  0  0  0  0  0  0  0  0  0  0  0
   10.0615  -16.6492   24.0589 C   0  0  1  0  0  0  0  0  0  0  0  0
   11.1215  -17.5283   24.6545 C   0  0  0  0  0  0  0  0  0  0  0  0
   10.6699  -18.8619   25.0132 C   0  0  0  0  0  0  0  0  0  0  0  0
    9.7915  -19.4421   24.3444 O   0  0  0  0  0  0  0  0  0  0  0  0
    9.8727  -15.3880   24.8215 C   0  0  0  0  0  0  0  0  0  0  0  0
   10.8051  -14.5473   24.8875 O   0  0  0  0  0  0  0  0  0  0  0  0
   11.2021  -19.5176   26.1018 O   0  0  0  0  0  0  0  0  0  0  0  0
    6.7997  -12.8267   24.7612 C   0  0  0  0  0  0  0  0  0  0  0  0
    7.0281  -13.4483   26.1027 C   0  0  1  0  0  0  0  0  0  0  0  0
    6.2108  -14.5464   26.3467 O   0  0  0  0  0  0  0  0  0  0  0  0
    8.4605  -13.9170   26.2999 C   0  0  2  0  0  0  0  0  0  0  0  0
    8.6516  -15.1066   25.4844 N   0  0  0  0  0  0  0  0  0  0  0  0
    8.6270  -14.2165   27.7342 C   0  0  0  0  0  0  0  0  0  0  0  0
    8.5330  -13.1968   28.6540 O   0  0  0  0  0  0  0  0  0  0  0  0
    8.8507  -15.3866   28.1009 O   0  0  0  0  0  0  0  0  0  0  0  0
  2  1  1  0
  2  3  2  0
  4  5  1  0
  4  2  1  0
  5  6  1  0
  6  7  1  6
  8  6  1  0
  8  9  2  0
 10  8  1  0
 11 10  1  0
 11 12  1  1
 13 12  1  0
 14 13  2  0
 15 11  1  0
 16 15  2  0
 17 13  1  0
 19 20  1  0
 19 18  1  6
 21 19  1  0
 21 22  1  6
 22 15  1  0
 23 24  1  0
 23 21  1  0
 25 23  2  0
M  END
$$$$
