QDT.pdb
     RDKit          3D

 25 24  0  0  1  0  0  0  0  0999 V2000
    7.7568  -12.2311   18.4140 N   0  0  0  0  0  0  0  0  0  0  0  0
    7.7187  -13.5652   18.8944 C   0  0  0  0  0  0  0  0  0  0  0  0
    6.8515  -13.8703   19.7299 O   0  0  0  0  0  0  0  0  0  0  0  0
    8.6906  -14.5403   18.4069 C   0  0  0  0  0  0  0  0  0  0  0  0
    9.7374  -14.0590   17.4653 C   0  0  0  0  0  0  0  0  0  0  0  0
   10.6328  -15.1555   17.0319 C   0  0  2  0  0  0  0  0  0  0  0  0
    9.9391  -16.2425   16.4077 N   0  0  0  0  0  0  0  0  0  0  0  0
   11.4193  -15.7270   18.1906 C   0  0  0  0  0  0  0  0  0  0  0  0
   11.1818  -16.8791   18.6354 O   0  0  0  0  0  0  0  0  0  0  0  0
   12.4593  -14.9728   18.8171 N   0  0  0  0  0  0  0  0  0  0  0  0
   13.2126  -15.4526   19.9395 C   0  0  1  0  0  0  0  0  0  0  0  0
   14.6026  -14.8906   19.9964 C   0  0  0  0  0  0  0  0  0  0  0  0
   15.3385  -14.9700   18.7461 C   0  0  0  0  0  0  0  0  0  0  0  0
   15.7461  -13.9381   18.1763 O   0  0  0  0  0  0  0  0  0  0  0  0
   12.4800  -15.2911   21.2222 C   0  0  0  0  0  0  0  0  0  0  0  0
   13.0954  -14.9284   22.2567 O   0  0  0  0  0  0  0  0  0  0  0  0
   15.6037  -16.1883   18.1600 O   0  0  0  0  0  0  0  0  0  0  0  0
    9.1331  -13.3489   22.0950 C   0  0  0  0  0  0  0  0  0  0  0  0
    9.0193  -14.8265   22.3006 C   0  0  1  0  0  0  0  0  0  0  0  0
    8.4529  -15.4905   21.2182 O   0  0  0  0  0  0  0  0  0  0  0  0
   10.3603  -15.4903   22.5677 C   0  0  2  0  0  0  0  0  0  0  0  0
   11.0870  -15.5394   21.3083 N   0  0  0  0  0  0  0  0  0  0  0  0
   10.0811  -16.8447   23.0801 C   0  0  0  0  0  0  0  0  0  0  0  0
   10.4615  -17.9405   22.3390 O   0  0  0  0  0  0  0  0  0  0  0  0
    9.5049  -16.9858   24.1763 O   0  0  0  0  0  0  0  0  0  0  0  0
  2  1  1  0
  2  3  2  0
  4  5  1  0
  4  2  1  0
  5  6  1  0
  6  7  1  1
  8  6  1  0
  8  9  2  0
 10  8  1  0
 11 10  1  0
 11 12  1  1
 13 12  1  0
 14 13  2  0
 15 11  1  0
 16 15  2  0
 17 13  1  0
 19 20  1  0
 19 18  1  6
 21 19  1  0
 21 22  1  6
 22 15  1  0
 23 24  1  0
 23 21  1  0
 25 23  2  0
M  END
$$$$
