QDT.pdb
     RDKit          3D

 25 24  0  0  1  0  0  0  0  0999 V2000
   10.2088  -12.9075   18.5389 N   0  0  0  0  0  0  0  0  0  0  0  0
    8.9357  -12.9999   17.9202 C   0  0  0  0  0  0  0  0  0  0  0  0
    8.6985  -12.2748   16.9399 O   0  0  0  0  0  0  0  0  0  0  0  0
    7.9398  -13.9308   18.4444 C   0  0  0  0  0  0  0  0  0  0  0  0
    8.3182  -14.7524   19.6258 C   0  0  0  0  0  0  0  0  0  0  0  0
    9.1845  -15.8920   19.2481 C   0  0  2  0  0  0  0  0  0  0  0  0
    8.5413  -16.8306   18.3777 N   0  0  0  0  0  0  0  0  0  0  0  0
    9.6647  -16.6564   20.4617 C   0  0  0  0  0  0  0  0  0  0  0  0
    8.8679  -17.3234   21.1701 O   0  0  0  0  0  0  0  0  0  0  0  0
   11.0425  -16.6438   20.8415 N   0  0  0  0  0  0  0  0  0  0  0  0
   11.5317  -17.2450   22.0484 C   0  0  1  0  0  0  0  0  0  0  0  0
   12.9856  -17.6084   21.9753 C   0  0  0  0  0  0  0  0  0  0  0  0
   13.5065  -18.2602   23.1647 C   0  0  0  0  0  0  0  0  0  0  0  0
   12.7961  -19.0389   23.8315 O   0  0  0  0  0  0  0  0  0  0  0  0
   11.2060  -16.4390   23.2535 C   0  0  0  0  0  0  0  0  0  0  0  0
   12.0598  -15.6503   23.7323 O   0  0  0  0  0  0  0  0  0  0  0  0
   14.7991  -18.0334   23.5844 O   0  0  0  0  0  0  0  0  0  0  0  0
    8.1180  -14.1119   24.1216 C   0  0  0  0  0  0  0  0  0  0  0  0
    8.2124  -15.3104   25.0120 C   0  0  1  0  0  0  0  0  0  0  0  0
    7.4131  -16.3693   24.5958 O   0  0  0  0  0  0  0  0  0  0  0  0
    9.6285  -15.8505   25.1267 C   0  0  2  0  0  0  0  0  0  0  0  0
    9.9401  -16.5393   23.8838 N   0  0  0  0  0  0  0  0  0  0  0  0
    9.6495  -16.7767   26.2741 C   0  0  0  0  0  0  0  0  0  0  0  0
    9.4001  -16.2936   27.5387 O   0  0  0  0  0  0  0  0  0  0  0  0
    9.8922  -17.9853   26.0903 O   0  0  0  0  0  0  0  0  0  0  0  0
  2  1  1  0
  2  3  2  0
  4  5  1  0
  4  2  1  0
  5  6  1  0
  6  7  1  6
  8  6  1  0
  8  9  2  0
 10  8  1  0
 11 10  1  0
 11 12  1  6
 13 12  1  0
 14 13  2  0
 15 11  1  0
 16 15  2  0
 17 13  1  0
 19 20  1  0
 19 18  1  6
 21 19  1  0
 21 22  1  6
 22 15  1  0
 23 24  1  0
 23 21  1  0
 25 23  2  0
M  END
$$$$
