QDT.pdb
     RDKit          3D

 25 24  0  0  1  0  0  0  0  0999 V2000
    8.8688  -15.3399   17.0798 N   0  0  0  0  0  0  0  0  0  0  0  0
    8.0142  -14.2562   16.7521 C   0  0  0  0  0  0  0  0  0  0  0  0
    8.0404  -13.8094   15.5933 O   0  0  0  0  0  0  0  0  0  0  0  0
    7.1348  -13.6912   17.7722 C   0  0  0  0  0  0  0  0  0  0  0  0
    7.0116  -14.4258   19.0603 C   0  0  0  0  0  0  0  0  0  0  0  0
    7.9307  -13.8888   20.0892 C   0  0  2  0  0  0  0  0  0  0  0  0
    9.1759  -13.4258   19.5530 N   0  0  0  0  0  0  0  0  0  0  0  0
    8.2502  -14.9209   21.1477 C   0  0  0  0  0  0  0  0  0  0  0  0
    7.3372  -15.5209   21.7707 O   0  0  0  0  0  0  0  0  0  0  0  0
    9.6033  -15.2467   21.4731 N   0  0  0  0  0  0  0  0  0  0  0  0
    9.9620  -16.2208   22.4630 C   0  0  1  0  0  0  0  0  0  0  0  0
   11.3110  -16.8321   22.2225 C   0  0  0  0  0  0  0  0  0  0  0  0
   11.4375  -17.5406   20.9604 C   0  0  0  0  0  0  0  0  0  0  0  0
   10.6578  -18.4686   20.6659 O   0  0  0  0  0  0  0  0  0  0  0  0
    9.8103  -15.7020   23.8472 C   0  0  0  0  0  0  0  0  0  0  0  0
   10.8138  -15.6134   24.5992 O   0  0  0  0  0  0  0  0  0  0  0  0
   12.4227  -17.2037   20.0582 O   0  0  0  0  0  0  0  0  0  0  0  0
    7.2082  -12.8077   25.2718 C   0  0  0  0  0  0  0  0  0  0  0  0
    7.0489  -14.1775   25.8519 C   0  0  1  0  0  0  0  0  0  0  0  0
    6.0364  -14.9158   25.2494 O   0  0  0  0  0  0  0  0  0  0  0  0
    8.3159  -15.0113   25.7533 C   0  0  2  0  0  0  0  0  0  0  0  0
    8.5457  -15.2998   24.3460 N   0  0  0  0  0  0  0  0  0  0  0  0
    8.0849  -16.2470   26.5243 C   0  0  0  0  0  0  0  0  0  0  0  0
    7.9953  -16.1821   27.8963 O   0  0  0  0  0  0  0  0  0  0  0  0
    7.9730  -17.3366   25.9295 O   0  0  0  0  0  0  0  0  0  0  0  0
  2  1  1  0
  2  3  2  0
  4  5  1  0
  4  2  1  0
  5  6  1  0
  6  7  1  6
  8  6  1  0
  8  9  2  0
 10  8  1  0
 11 10  1  0
 11 12  1  6
 13 12  1  0
 14 13  2  0
 15 11  1  0
 16 15  2  0
 17 13  1  0
 19 20  1  0
 19 18  1  6
 21 19  1  0
 21 22  1  6
 22 15  1  0
 23 24  1  0
 23 21  1  0
 25 23  2  0
M  END
$$$$
