QDT.pdb
     RDKit          3D

 25 24  0  0  1  0  0  0  0  0999 V2000
    8.1467  -12.0667   18.9015 N   0  0  0  0  0  0  0  0  0  0  0  0
    8.1696  -13.1910   18.0368 C   0  0  0  0  0  0  0  0  0  0  0  0
    8.2272  -12.9958   16.8114 O   0  0  0  0  0  0  0  0  0  0  0  0
    8.1208  -14.5388   18.5973 C   0  0  0  0  0  0  0  0  0  0  0  0
    8.0281  -14.6675   20.0768 C   0  0  0  0  0  0  0  0  0  0  0  0
    7.9896  -16.0846   20.5037 C   0  0  2  0  0  0  0  0  0  0  0  0
    6.8154  -16.7784   20.0653 N   0  0  0  0  0  0  0  0  0  0  0  0
    8.0578  -16.2176   22.0089 C   0  0  0  0  0  0  0  0  0  0  0  0
    7.0132  -16.2808   22.7064 O   0  0  0  0  0  0  0  0  0  0  0  0
    9.3150  -16.2758   22.6862 N   0  0  0  0  0  0  0  0  0  0  0  0
    9.4377  -16.3340   24.1141 C   0  0  1  0  0  0  0  0  0  0  0  0
   10.6641  -17.0695   24.5680 C   0  0  0  0  0  0  0  0  0  0  0  0
   10.7965  -18.4133   24.0315 C   0  0  0  0  0  0  0  0  0  0  0  0
    9.8767  -19.2464   24.1565 O   0  0  0  0  0  0  0  0  0  0  0  0
    9.3090  -14.9959   24.7473 C   0  0  0  0  0  0  0  0  0  0  0  0
   10.1208  -14.0814   24.4557 O   0  0  0  0  0  0  0  0  0  0  0  0
   11.9426  -18.7993   23.3713 O   0  0  0  0  0  0  0  0  0  0  0  0
    6.6567  -12.2867   24.8906 C   0  0  0  0  0  0  0  0  0  0  0  0
    6.8431  -12.8836   26.2497 C   0  0  1  0  0  0  0  0  0  0  0  0
    5.9257  -13.8871   26.5403 O   0  0  0  0  0  0  0  0  0  0  0  0
    8.2254  -13.4846   26.4458 C   0  0  2  0  0  0  0  0  0  0  0  0
    8.2804  -14.7226   25.6837 N   0  0  0  0  0  0  0  0  0  0  0  0
    8.3902  -13.7349   27.8898 C   0  0  0  0  0  0  0  0  0  0  0  0
    8.4565  -15.0309   28.3489 O   0  0  0  0  0  0  0  0  0  0  0  0
    8.4679  -12.7743   28.6802 O   0  0  0  0  0  0  0  0  0  0  0  0
  2  1  1  0
  2  3  2  0
  4  5  1  0
  4  2  1  0
  5  6  1  0
  6  7  1  1
  8  6  1  0
  8  9  2  0
 10  8  1  0
 11 10  1  0
 11 12  1  6
 13 12  1  0
 14 13  2  0
 15 11  1  0
 16 15  2  0
 17 13  1  0
 19 20  1  0
 19 18  1  6
 21 19  1  0
 21 22  1  6
 22 15  1  0
 23 24  1  0
 23 21  1  0
 25 23  2  0
M  END
$$$$
