SHI.pdb
     RDKit          3D

 25 25  0  0  1  0  0  0  0  0999 V2000
   12.7429  -14.5823   21.3613 O   0  0  0  0  0  0  0  0  0  0  0  0
   12.1710  -14.1599   20.1387 C   0  0  0  0  0  0  0  0  0  0  0  0
   11.2344  -15.2701   19.7107 C   0  0  2  0  0  0  0  0  0  0  0  0
   10.7290  -15.0512   18.3693 N   0  0  0  0  0  0  0  0  0  0  0  0
   10.1379  -15.4880   20.6843 C   0  0  0  0  0  0  0  0  0  0  0  0
    9.0773  -14.8201   20.5852 O   0  0  0  0  0  0  0  0  0  0  0  0
   10.2058  -16.4250   21.7500 N   0  0  0  0  0  0  0  0  0  0  0  0
    9.1825  -16.6198   22.7254 C   0  0  1  0  0  0  0  0  0  0  0  0
    8.9172  -18.0613   23.0633 C   0  0  0  0  0  0  0  0  0  0  0  0
    8.2194  -18.7846   21.9777 C   0  0  0  0  0  0  0  0  0  0  0  0
    7.7673  -18.2442   20.7977 C   0  0  0  0  0  0  0  0  0  0  0  0
    7.1809  -19.2336   20.0678 N   0  0  0  0  0  0  0  0  0  0  0  0
    7.2627  -20.3628   20.7699 C   0  0  0  0  0  0  0  0  0  0  0  0
    7.8853  -20.0907   21.9135 N   0  0  0  0  0  0  0  0  0  0  0  0
    9.4254  -15.8287   23.9712 C   0  0  0  0  0  0  0  0  0  0  0  0
   10.6105  -15.6738   24.3545 O   0  0  0  0  0  0  0  0  0  0  0  0
    6.0191  -11.8708   25.3544 C   0  0  0  0  0  0  0  0  0  0  0  0
    7.2757  -12.6619   25.0313 C   0  0  0  0  0  0  0  0  0  0  0  0
    7.6055  -13.5086   26.2301 C   0  0  2  0  0  0  0  0  0  0  0  0
    7.9473  -12.5711   27.3745 C   0  0  0  0  0  0  0  0  0  0  0  0
    8.6945  -14.4834   25.9402 C   0  0  2  0  0  0  0  0  0  0  0  0
    8.3970  -15.2538   24.7284 N   0  0  0  0  0  0  0  0  0  0  0  0
    9.0239  -15.4223   27.0177 C   0  0  0  0  0  0  0  0  0  0  0  0
    9.9995  -15.0876   27.9396 O   0  0  0  0  0  0  0  0  0  0  0  0
    8.4523  -16.5213   27.1354 O   0  0  0  0  0  0  0  0  0  0  0  0
  1  2  1  0
  3  2  1  0
  3  4  1  6
  5  6  2  0
  5  3  1  0
  7  5  1  0
  8  7  1  0
  8  9  1  1
 10  9  1  0
 11 10  2  0
 12 11  1  0
 12 13  1  0
 13 14  2  0
 14 10  1  0
 15  8  1  0
 16 15  2  0
 18 19  1  0
 18 17  1  0
 19 21  1  0
 19 20  1  1
 21 22  1  6
 22 15  1  0
 23 24  1  0
 23 21  1  0
 25 23  2  0
M  END
$$$$
