SHI.pdb
     RDKit          3D

 25 25  0  0  1  0  0  0  0  0999 V2000
    9.7800  -12.9232   18.3509 O   0  0  0  0  0  0  0  0  0  0  0  0
    9.1085  -13.0923   19.5840 C   0  0  0  0  0  0  0  0  0  0  0  0
    8.1186  -14.2180   19.3690 C   0  0  2  0  0  0  0  0  0  0  0  0
    7.0235  -13.8059   18.5124 N   0  0  0  0  0  0  0  0  0  0  0  0
    7.6334  -14.7922   20.6467 C   0  0  0  0  0  0  0  0  0  0  0  0
    6.5213  -14.4302   21.1078 O   0  0  0  0  0  0  0  0  0  0  0  0
    8.3589  -15.7494   21.4055 N   0  0  0  0  0  0  0  0  0  0  0  0
    7.8983  -16.3392   22.6207 C   0  0  1  0  0  0  0  0  0  0  0  0
    8.0843  -17.8300   22.6933 C   0  0  0  0  0  0  0  0  0  0  0  0
    7.5776  -18.4093   23.9567 C   0  0  0  0  0  0  0  0  0  0  0  0
    6.3717  -18.1315   24.5547 C   0  0  0  0  0  0  0  0  0  0  0  0
    6.2797  -18.8646   25.6991 N   0  0  0  0  0  0  0  0  0  0  0  0
    7.3962  -19.5819   25.8159 C   0  0  0  0  0  0  0  0  0  0  0  0
    8.1717  -19.3070   24.7707 N   0  0  0  0  0  0  0  0  0  0  0  0
    8.4830  -15.6815   23.8300 C   0  0  0  0  0  0  0  0  0  0  0  0
    9.7214  -15.4785   23.8552 O   0  0  0  0  0  0  0  0  0  0  0  0
    5.8331  -11.7320   26.2382 C   0  0  0  0  0  0  0  0  0  0  0  0
    6.8680  -12.6302   25.5813 C   0  0  0  0  0  0  0  0  0  0  0  0
    7.3936  -13.5693   26.6322 C   0  0  2  0  0  0  0  0  0  0  0  0
    8.0301  -12.7272   27.7237 C   0  0  0  0  0  0  0  0  0  0  0  0
    8.3326  -14.5750   26.0603 C   0  0  2  0  0  0  0  0  0  0  0  0
    7.7172  -15.2821   24.9325 N   0  0  0  0  0  0  0  0  0  0  0  0
    8.8623  -15.5701   26.9986 C   0  0  0  0  0  0  0  0  0  0  0  0
   10.1204  -15.3906   27.5449 O   0  0  0  0  0  0  0  0  0  0  0  0
    8.2153  -16.5814   27.3254 O   0  0  0  0  0  0  0  0  0  0  0  0
  1  2  1  0
  3  2  1  0
  3  4  1  1
  5  6  2  0
  5  3  1  0
  7  5  1  0
  8  7  1  0
  8  9  1  6
 10  9  1  0
 11 10  2  0
 12 11  1  0
 12 13  1  0
 13 14  2  0
 14 10  1  0
 15  8  1  0
 16 15  2  0
 18 19  1  0
 18 17  1  0
 19 21  1  0
 19 20  1  1
 21 22  1  6
 22 15  1  0
 23 24  1  0
 23 21  1  0
 25 23  2  0
M  END
$$$$
