SHI.pdb
     RDKit          3D

 25 25  0  0  1  0  0  0  0  0999 V2000
    6.7669  -19.6607   22.5721 O   0  0  0  0  0  0  0  0  0  0  0  0
    6.1900  -19.1777   21.3745 C   0  0  0  0  0  0  0  0  0  0  0  0
    7.2772  -18.3878   20.6767 C   0  0  2  0  0  0  0  0  0  0  0  0
    8.3156  -19.2569   20.1580 N   0  0  0  0  0  0  0  0  0  0  0  0
    7.8337  -17.3158   21.5362 C   0  0  0  0  0  0  0  0  0  0  0  0
    8.9339  -17.4943   22.1180 O   0  0  0  0  0  0  0  0  0  0  0  0
    7.1914  -16.0673   21.7530 N   0  0  0  0  0  0  0  0  0  0  0  0
    7.7500  -14.9862   22.4985 C   0  0  1  0  0  0  0  0  0  0  0  0
    7.5845  -13.6386   21.8512 C   0  0  0  0  0  0  0  0  0  0  0  0
    8.1525  -13.5855   20.4863 C   0  0  0  0  0  0  0  0  0  0  0  0
    7.4962  -13.1900   19.3453 C   0  0  0  0  0  0  0  0  0  0  0  0
    8.3610  -13.2833   18.2970 N   0  0  0  0  0  0  0  0  0  0  0  0
    9.5268  -13.7247   18.7669 C   0  0  0  0  0  0  0  0  0  0  0  0
    9.3988  -13.9048   20.0786 N   0  0  0  0  0  0  0  0  0  0  0  0
    7.2542  -14.9514   23.9091 C   0  0  0  0  0  0  0  0  0  0  0  0
    6.0788  -15.3295   24.1348 O   0  0  0  0  0  0  0  0  0  0  0  0
   10.2956  -13.2237   28.5627 C   0  0  0  0  0  0  0  0  0  0  0  0
    9.2771  -13.1430   27.4378 C   0  0  0  0  0  0  0  0  0  0  0  0
    8.5714  -14.4692   27.3618 C   0  0  2  0  0  0  0  0  0  0  0  0
    9.6207  -15.5329   27.0911 C   0  0  0  0  0  0  0  0  0  0  0  0
    7.4829  -14.4629   26.3443 C   0  0  2  0  0  0  0  0  0  0  0  0
    8.0362  -14.5185   24.9873 N   0  0  0  0  0  0  0  0  0  0  0  0
    6.5397  -13.3421   26.4153 C   0  0  0  0  0  0  0  0  0  0  0  0
    5.6658  -13.2527   27.4840 O   0  0  0  0  0  0  0  0  0  0  0  0
    6.4952  -12.4584   25.5405 O   0  0  0  0  0  0  0  0  0  0  0  0
  1  2  1  0
  3  2  1  0
  3  4  1  1
  5  6  2  0
  5  3  1  0
  7  5  1  0
  8  7  1  0
  8  9  1  6
 10  9  1  0
 11 10  2  0
 12 11  1  0
 12 13  1  0
 13 14  2  0
 14 10  1  0
 15  8  1  0
 16 15  2  0
 18 19  1  0
 18 17  1  0
 19 21  1  0
 19 20  1  6
 21 22  1  6
 22 15  1  0
 23 24  1  0
 23 21  1  0
 25 23  2  0
M  END
$$$$
