SHI.pdb
     RDKit          3D

 25 25  0  0  1  0  0  0  0  0999 V2000
    8.5531  -12.1292   18.8065 O   0  0  0  0  0  0  0  0  0  0  0  0
    9.4506  -13.1207   19.2665 C   0  0  0  0  0  0  0  0  0  0  0  0
    8.7372  -14.4444   19.0880 C   0  0  2  0  0  0  0  0  0  0  0  0
    7.6502  -14.3376   18.1342 N   0  0  0  0  0  0  0  0  0  0  0  0
    8.2847  -15.0180   20.3779 C   0  0  0  0  0  0  0  0  0  0  0  0
    7.0927  -14.8586   20.7446 O   0  0  0  0  0  0  0  0  0  0  0  0
    9.1287  -15.7553   21.2511 N   0  0  0  0  0  0  0  0  0  0  0  0
    8.6997  -16.3738   22.4635 C   0  0  1  0  0  0  0  0  0  0  0  0
    9.1776  -17.7893   22.6378 C   0  0  0  0  0  0  0  0  0  0  0  0
    8.5528  -18.7267   21.6790 C   0  0  0  0  0  0  0  0  0  0  0  0
    7.6786  -18.3984   20.6705 C   0  0  0  0  0  0  0  0  0  0  0  0
    7.3315  -19.5399   20.0132 N   0  0  0  0  0  0  0  0  0  0  0  0
    7.9698  -20.5555   20.5927 C   0  0  0  0  0  0  0  0  0  0  0  0
    8.7005  -20.0653   21.5902 N   0  0  0  0  0  0  0  0  0  0  0  0
    9.0380  -15.5571   23.6698 C   0  0  0  0  0  0  0  0  0  0  0  0
   10.1952  -15.0789   23.7577 O   0  0  0  0  0  0  0  0  0  0  0  0
    5.5543  -12.2175   26.0104 C   0  0  0  0  0  0  0  0  0  0  0  0
    6.7976  -12.8501   25.4075 C   0  0  0  0  0  0  0  0  0  0  0  0
    7.3959  -13.7628   26.4427 C   0  0  2  0  0  0  0  0  0  0  0  0
    7.7918  -12.9087   27.6341 C   0  0  0  0  0  0  0  0  0  0  0  0
    8.5356  -14.5521   25.8967 C   0  0  2  0  0  0  0  0  0  0  0  0
    8.1282  -15.3007   24.7033 N   0  0  0  0  0  0  0  0  0  0  0  0
    9.1823  -15.4814   26.8290 C   0  0  0  0  0  0  0  0  0  0  0  0
   10.2554  -15.0498   27.5879 O   0  0  0  0  0  0  0  0  0  0  0  0
    8.7978  -16.6570   26.9648 O   0  0  0  0  0  0  0  0  0  0  0  0
  1  2  1  0
  3  2  1  0
  3  4  1  6
  5  6  2  0
  5  3  1  0
  7  5  1  0
  8  7  1  0
  8  9  1  1
 10  9  1  0
 11 10  2  0
 12 11  1  0
 12 13  1  0
 13 14  2  0
 14 10  1  0
 15  8  1  0
 16 15  2  0
 18 19  1  0
 18 17  1  0
 19 21  1  0
 19 20  1  1
 21 22  1  6
 22 15  1  0
 23 24  1  0
 23 21  1  0
 25 23  2  0
M  END
$$$$
