SHI.pdb
     RDKit          3D

 25 25  0  0  1  0  0  0  0  0999 V2000
    9.9423  -12.6050   18.0354 O   0  0  0  0  0  0  0  0  0  0  0  0
    9.2814  -12.8095   19.2688 C   0  0  0  0  0  0  0  0  0  0  0  0
    8.4601  -14.0702   19.0980 C   0  0  2  0  0  0  0  0  0  0  0  0
    7.3293  -13.8522   18.2167 N   0  0  0  0  0  0  0  0  0  0  0  0
    8.0430  -14.6503   20.3969 C   0  0  0  0  0  0  0  0  0  0  0  0
    7.0232  -14.2012   20.9791 O   0  0  0  0  0  0  0  0  0  0  0  0
    8.7358  -15.7074   21.0458 N   0  0  0  0  0  0  0  0  0  0  0  0
    8.3454  -16.2908   22.2884 C   0  0  1  0  0  0  0  0  0  0  0  0
    8.8383  -17.6972   22.4926 C   0  0  0  0  0  0  0  0  0  0  0  0
    8.4140  -18.2699   23.7889 C   0  0  0  0  0  0  0  0  0  0  0  0
    9.2405  -18.7013   24.7988 C   0  0  0  0  0  0  0  0  0  0  0  0
    8.4668  -19.1598   25.8219 N   0  0  0  0  0  0  0  0  0  0  0  0
    7.1912  -19.0201   25.4641 C   0  0  0  0  0  0  0  0  0  0  0  0
    7.1628  -18.4868   24.2459 N   0  0  0  0  0  0  0  0  0  0  0  0
    8.7114  -15.4350   23.4590 C   0  0  0  0  0  0  0  0  0  0  0  0
    9.8372  -14.8800   23.4598 O   0  0  0  0  0  0  0  0  0  0  0  0
    6.6142  -11.1603   26.9232 C   0  0  0  0  0  0  0  0  0  0  0  0
    7.6082  -12.3096   26.9423 C   0  0  0  0  0  0  0  0  0  0  0  0
    7.2097  -13.2787   25.8631 C   0  0  2  0  0  0  0  0  0  0  0  0
    5.8606  -13.8618   26.2447 C   0  0  0  0  0  0  0  0  0  0  0  0
    8.2474  -14.3252   25.6440 C   0  0  2  0  0  0  0  0  0  0  0  0
    7.8608  -15.2235   24.5513 N   0  0  0  0  0  0  0  0  0  0  0  0
    8.5992  -15.1398   26.8119 C   0  0  0  0  0  0  0  0  0  0  0  0
    9.4199  -14.6095   27.7911 O   0  0  0  0  0  0  0  0  0  0  0  0
    8.1824  -16.3032   26.9568 O   0  0  0  0  0  0  0  0  0  0  0  0
  1  2  1  0
  3  2  1  0
  3  4  1  6
  5  6  2  0
  5  3  1  0
  7  5  1  0
  8  7  1  0
  8  9  1  1
 10  9  1  0
 11 10  2  0
 12 11  1  0
 12 13  1  0
 13 14  2  0
 14 10  1  0
 15  8  1  0
 16 15  2  0
 18 19  1  0
 18 17  1  0
 19 21  1  0
 19 20  1  1
 21 22  1  6
 22 15  1  0
 23 24  1  0
 23 21  1  0
 25 23  2  0
M  END
$$$$
