SHI.pdb
     RDKit          3D

 25 25  0  0  1  0  0  0  0  0999 V2000
   10.5692  -12.8209   19.0570 O   0  0  0  0  0  0  0  0  0  0  0  0
   10.1917  -14.1835   19.0854 C   0  0  0  0  0  0  0  0  0  0  0  0
    8.6775  -14.1973   19.0673 C   0  0  2  0  0  0  0  0  0  0  0  0
    8.1385  -12.8960   18.7225 N   0  0  0  0  0  0  0  0  0  0  0  0
    8.1044  -14.7138   20.3331 C   0  0  0  0  0  0  0  0  0  0  0  0
    7.3012  -14.0016   20.9875 O   0  0  0  0  0  0  0  0  0  0  0  0
    8.4091  -15.9928   20.8713 N   0  0  0  0  0  0  0  0  0  0  0  0
    7.9413  -16.4757   22.1302 C   0  0  1  0  0  0  0  0  0  0  0  0
    8.2198  -17.9334   22.3751 C   0  0  0  0  0  0  0  0  0  0  0  0
    7.6620  -18.4152   23.6577 C   0  0  0  0  0  0  0  0  0  0  0  0
    6.7469  -17.7592   24.4460 C   0  0  0  0  0  0  0  0  0  0  0  0
    6.4894  -18.5302   25.5391 N   0  0  0  0  0  0  0  0  0  0  0  0
    7.2219  -19.6384   25.4394 C   0  0  0  0  0  0  0  0  0  0  0  0
    7.9233  -19.5666   24.3115 N   0  0  0  0  0  0  0  0  0  0  0  0
    8.4358  -15.6509   23.2756 C   0  0  0  0  0  0  0  0  0  0  0  0
    9.6408  -15.2995   23.2776 O   0  0  0  0  0  0  0  0  0  0  0  0
    6.7969  -10.9902   26.5619 C   0  0  0  0  0  0  0  0  0  0  0  0
    7.7642  -12.1610   26.5093 C   0  0  0  0  0  0  0  0  0  0  0  0
    7.2411  -13.1431   25.4971 C   0  0  2  0  0  0  0  0  0  0  0  0
    5.8211  -13.5025   25.8972 C   0  0  0  0  0  0  0  0  0  0  0  0
    8.1234  -14.3373   25.3728 C   0  0  2  0  0  0  0  0  0  0  0  0
    7.6213  -15.2528   24.3431 N   0  0  0  0  0  0  0  0  0  0  0  0
    8.3508  -15.1026   26.6031 C   0  0  0  0  0  0  0  0  0  0  0  0
    9.2225  -14.6134   27.5594 O   0  0  0  0  0  0  0  0  0  0  0  0
    7.7827  -16.1878   26.8218 O   0  0  0  0  0  0  0  0  0  0  0  0
  1  2  1  0
  3  2  1  0
  3  4  1  1
  5  6  2  0
  5  3  1  0
  7  5  1  0
  8  7  1  0
  8  9  1  1
 10  9  1  0
 11 10  2  0
 12 11  1  0
 12 13  1  0
 13 14  2  0
 14 10  1  0
 15  8  1  0
 16 15  2  0
 18 19  1  0
 18 17  1  0
 19 21  1  0
 19 20  1  1
 21 22  1  6
 22 15  1  0
 23 24  1  0
 23 21  1  0
 25 23  2  0
M  END
$$$$
