DAQ.pdb
     RDKit          3D

 23 22  0  0  1  0  0  0  0  0999 V2000
    6.9904  -16.0276   15.3482 N   0  0  0  0  0  0  0  0  0  0  0  0
    8.2799  -15.5166   14.9538 C   0  0  1  0  0  0  0  0  0  0  0  0
    8.1565  -14.6384   13.7030 C   0  0  0  0  0  0  0  0  0  0  0  0
    7.7137  -15.4752   12.5660 C   0  0  0  0  0  0  0  0  0  0  0  0
    8.2116  -15.3457   11.4276 O   0  0  0  0  0  0  0  0  0  0  0  0
    8.9062  -14.7228   16.0399 C   0  0  0  0  0  0  0  0  0  0  0  0
   10.0923  -14.3398   15.8844 O   0  0  0  0  0  0  0  0  0  0  0  0
    6.7281  -16.4249   12.7539 O   0  0  0  0  0  0  0  0  0  0  0  0
    7.6993  -13.3063   19.3184 C   0  0  0  0  0  0  0  0  0  0  0  0
    8.7398  -13.7748   18.3084 C   0  0  2  0  0  0  0  0  0  0  0  0
    8.1505  -14.4353   17.1886 N   0  0  0  0  0  0  0  0  0  0  0  0
    9.7126  -14.6886   19.0102 C   0  0  0  0  0  0  0  0  0  0  0  0
    9.5520  -15.9402   18.9642 O   0  0  0  0  0  0  0  0  0  0  0  0
   16.6754  -14.5352   21.2958 N   0  0  0  0  0  0  0  0  0  0  0  0
   15.6184  -14.3898   20.3587 C   0  0  0  0  0  0  0  0  0  0  0  0
   15.8393  -13.6036   19.4021 O   0  0  0  0  0  0  0  0  0  0  0  0
   14.3487  -15.1024   20.4854 C   0  0  0  0  0  0  0  0  0  0  0  0
   13.1496  -14.3559   20.0579 C   0  0  0  0  0  0  0  0  0  0  0  0
   11.8449  -15.0877   20.1860 C   0  0  2  0  0  0  0  0  0  0  0  0
   10.8186  -14.1762   19.7308 N   0  0  0  0  0  0  0  0  0  0  0  0
   11.5848  -15.3746   21.6419 C   0  0  0  0  0  0  0  0  0  0  0  0
   12.2370  -16.3845   22.3320 O   0  0  0  0  0  0  0  0  0  0  0  0
   10.7474  -14.6952   22.3039 O   0  0  0  0  0  0  0  0  0  0  0  0
  2  1  1  1
  2  3  1  0
  3  4  1  0
  4  5  2  0
  6 11  1  0
  6  2  1  0
  7  6  2  0
  8  4  1  0
 10  9  1  1
 10 12  1  0
 10 11  1  0
 12 20  1  0
 13 12  2  0
 15 14  1  0
 15 17  1  0
 16 15  2  0
 18 17  1  0
 19 21  1  0
 19 18  1  1
 20 19  1  0
 21 22  1  0
 23 21  2  0
M  END
$$$$
