DAQ.pdb
     RDKit          3D

 23 22  0  0  1  0  0  0  0  0999 V2000
    9.0900  -16.9965   16.7642 N   0  0  0  0  0  0  0  0  0  0  0  0
    8.0447  -16.8528   17.7471 C   0  0  1  0  0  0  0  0  0  0  0  0
    7.4622  -18.2201   18.1242 C   0  0  0  0  0  0  0  0  0  0  0  0
    6.8574  -18.8365   16.9228 C   0  0  0  0  0  0  0  0  0  0  0  0
    6.1505  -18.1732   16.1347 O   0  0  0  0  0  0  0  0  0  0  0  0
    8.5410  -16.1852   18.9759 C   0  0  0  0  0  0  0  0  0  0  0  0
    9.6486  -16.5508   19.4418 O   0  0  0  0  0  0  0  0  0  0  0  0
    7.0715  -20.1748   16.6546 O   0  0  0  0  0  0  0  0  0  0  0  0
    7.2794  -13.3256   21.0962 C   0  0  0  0  0  0  0  0  0  0  0  0
    8.2133  -14.4667   20.7115 C   0  0  2  0  0  0  0  0  0  0  0  0
    7.7555  -15.1789   19.5622 N   0  0  0  0  0  0  0  0  0  0  0  0
    8.3472  -15.3960   21.8915 C   0  0  0  0  0  0  0  0  0  0  0  0
    7.6576  -16.4523   21.9474 O   0  0  0  0  0  0  0  0  0  0  0  0
   11.6673  -19.3260   22.1652 N   0  0  0  0  0  0  0  0  0  0  0  0
   12.2869  -18.0877   22.4803 C   0  0  0  0  0  0  0  0  0  0  0  0
   13.4942  -17.9787   22.1447 O   0  0  0  0  0  0  0  0  0  0  0  0
   11.5786  -16.9999   23.1519 C   0  0  0  0  0  0  0  0  0  0  0  0
   10.1489  -17.2403   23.4278 C   0  0  0  0  0  0  0  0  0  0  0  0
    9.3943  -16.0839   24.0172 C   0  0  2  0  0  0  0  0  0  0  0  0
    9.2377  -15.1144   22.9558 N   0  0  0  0  0  0  0  0  0  0  0  0
   10.2347  -15.4478   25.0936 C   0  0  0  0  0  0  0  0  0  0  0  0
   10.4222  -16.0312   26.3369 O   0  0  0  0  0  0  0  0  0  0  0  0
   10.8122  -14.3381   24.9036 O   0  0  0  0  0  0  0  0  0  0  0  0
  2  1  1  6
  2  3  1  0
  3  4  1  0
  4  5  2  0
  6 11  1  0
  6  2  1  0
  7  6  2  0
  8  4  1  0
 10  9  1  1
 10 12  1  0
 10 11  1  0
 12 20  1  0
 13 12  2  0
 15 14  1  0
 15 17  1  0
 16 15  2  0
 18 17  1  0
 19 21  1  0
 19 18  1  6
 20 19  1  0
 21 22  1  0
 23 21  2  0
M  END
$$$$
