DAQ.pdb
     RDKit          3D

 23 22  0  0  1  0  0  0  0  0999 V2000
    8.6917  -14.4200   14.3014 N   0  0  0  0  0  0  0  0  0  0  0  0
    8.6044  -15.4242   15.3324 C   0  0  1  0  0  0  0  0  0  0  0  0
    9.4100  -16.6704   14.9464 C   0  0  0  0  0  0  0  0  0  0  0  0
    8.8820  -17.2133   13.6753 C   0  0  0  0  0  0  0  0  0  0  0  0
    7.6585  -17.3977   13.5026 O   0  0  0  0  0  0  0  0  0  0  0  0
    9.1019  -14.9131   16.6337 C   0  0  0  0  0  0  0  0  0  0  0  0
   10.3409  -14.9245   16.8393 O   0  0  0  0  0  0  0  0  0  0  0  0
    9.7508  -17.5276   12.6481 O   0  0  0  0  0  0  0  0  0  0  0  0
    7.4416  -13.3140   19.6265 C   0  0  0  0  0  0  0  0  0  0  0  0
    8.6023  -13.8657   18.8076 C   0  0  2  0  0  0  0  0  0  0  0  0
    8.1715  -14.4411   17.5744 N   0  0  0  0  0  0  0  0  0  0  0  0
    9.3350  -14.8868   19.6409 C   0  0  0  0  0  0  0  0  0  0  0  0
    9.0198  -16.1073   19.5687 O   0  0  0  0  0  0  0  0  0  0  0  0
   15.2320  -14.4102   21.4526 N   0  0  0  0  0  0  0  0  0  0  0  0
   14.6092  -14.7876   20.2336 C   0  0  0  0  0  0  0  0  0  0  0  0
   15.3483  -14.7796   19.2159 O   0  0  0  0  0  0  0  0  0  0  0  0
   13.1993  -15.1639   20.1518 C   0  0  0  0  0  0  0  0  0  0  0  0
   12.4604  -15.1614   21.4293 C   0  0  0  0  0  0  0  0  0  0  0  0
   11.0053  -15.5212   21.3426 C   0  0  2  0  0  0  0  0  0  0  0  0
   10.3830  -14.5110   20.5159 N   0  0  0  0  0  0  0  0  0  0  0  0
   10.3939  -15.4246   22.7160 C   0  0  0  0  0  0  0  0  0  0  0  0
    9.4454  -14.4690   23.0455 O   0  0  0  0  0  0  0  0  0  0  0  0
   10.7266  -16.2239   23.6388 O   0  0  0  0  0  0  0  0  0  0  0  0
  2  1  1  6
  2  3  1  0
  3  4  1  0
  4  5  2  0
  6 11  1  0
  6  2  1  0
  7  6  2  0
  8  4  1  0
 10  9  1  1
 10 12  1  0
 10 11  1  0
 12 20  1  0
 13 12  2  0
 15 14  1  0
 15 17  1  0
 16 15  2  0
 18 17  1  0
 19 21  1  0
 19 18  1  1
 20 19  1  0
 21 22  1  0
 23 21  2  0
M  END
$$$$
