DAQ.pdb
     RDKit          3D

 23 22  0  0  1  0  0  0  0  0999 V2000
    8.3115  -15.7004   15.9777 N   0  0  0  0  0  0  0  0  0  0  0  0
    9.5030  -16.0840   16.6937 C   0  0  1  0  0  0  0  0  0  0  0  0
   10.7525  -15.8390   15.8395 C   0  0  0  0  0  0  0  0  0  0  0  0
   10.6424  -16.6182   14.5865 C   0  0  0  0  0  0  0  0  0  0  0  0
   11.2723  -17.6847   14.4238 O   0  0  0  0  0  0  0  0  0  0  0  0
    9.6366  -15.3359   17.9683 C   0  0  0  0  0  0  0  0  0  0  0  0
   10.6378  -15.5702   18.6898 O   0  0  0  0  0  0  0  0  0  0  0  0
    9.8281  -16.1673   13.5656 O   0  0  0  0  0  0  0  0  0  0  0  0
    7.5049  -12.7709   19.7442 C   0  0  0  0  0  0  0  0  0  0  0  0
    8.6121  -13.8093   19.6091 C   0  0  2  0  0  0  0  0  0  0  0  0
    8.6438  -14.4033   18.3115 N   0  0  0  0  0  0  0  0  0  0  0  0
    8.4137  -14.8632   20.6692 C   0  0  0  0  0  0  0  0  0  0  0  0
    7.8508  -15.9556   20.3789 O   0  0  0  0  0  0  0  0  0  0  0  0
   12.5657  -17.9720   21.4346 N   0  0  0  0  0  0  0  0  0  0  0  0
   11.8770  -18.3898   22.6040 C   0  0  0  0  0  0  0  0  0  0  0  0
   12.3665  -19.3819   23.2025 O   0  0  0  0  0  0  0  0  0  0  0  0
   10.6741  -17.7189   23.0928 C   0  0  0  0  0  0  0  0  0  0  0  0
   10.2329  -16.5462   22.3130 C   0  0  0  0  0  0  0  0  0  0  0  0
    9.0450  -15.8082   22.8593 C   0  0  2  0  0  0  0  0  0  0  0  0
    8.8470  -14.6606   22.0020 N   0  0  0  0  0  0  0  0  0  0  0  0
    9.3776  -15.2950   24.2361 C   0  0  0  0  0  0  0  0  0  0  0  0
    9.2173  -16.0638   25.3783 O   0  0  0  0  0  0  0  0  0  0  0  0
    9.8234  -14.1234   24.4083 O   0  0  0  0  0  0  0  0  0  0  0  0
  2  1  1  6
  2  3  1  0
  3  4  1  0
  4  5  2  0
  6 11  1  0
  6  2  1  0
  7  6  2  0
  8  4  1  0
 10  9  1  6
 10 12  1  0
 10 11  1  0
 12 20  1  0
 13 12  2  0
 15 14  1  0
 15 17  1  0
 16 15  2  0
 18 17  1  0
 19 21  1  0
 19 18  1  6
 20 19  1  0
 21 22  1  0
 23 21  2  0
M  END
$$$$
