DAQ.pdb
     RDKit          3D

 23 22  0  0  1  0  0  0  0  0999 V2000
   12.9239  -14.2094   18.1698 N   0  0  0  0  0  0  0  0  0  0  0  0
   13.1869  -15.2178   19.1664 C   0  0  1  0  0  0  0  0  0  0  0  0
   14.5995  -15.0583   19.7408 C   0  0  0  0  0  0  0  0  0  0  0  0
   15.5885  -15.2962   18.6664 C   0  0  0  0  0  0  0  0  0  0  0  0
   16.2921  -14.3702   18.2103 O   0  0  0  0  0  0  0  0  0  0  0  0
   12.2051  -15.1542   20.2774 C   0  0  0  0  0  0  0  0  0  0  0  0
   12.0340  -14.0513   20.8535 O   0  0  0  0  0  0  0  0  0  0  0  0
   15.7473  -16.5665   18.1469 O   0  0  0  0  0  0  0  0  0  0  0  0
    9.5934  -17.4945   21.6134 C   0  0  0  0  0  0  0  0  0  0  0  0
   10.5533  -16.3135   21.6916 C   0  0  2  0  0  0  0  0  0  0  0  0
   11.5132  -16.3232   20.6352 N   0  0  0  0  0  0  0  0  0  0  0  0
   11.2417  -16.3425   23.0329 C   0  0  0  0  0  0  0  0  0  0  0  0
   12.4388  -16.7342   23.1222 O   0  0  0  0  0  0  0  0  0  0  0  0
    9.2179  -13.3839   28.3185 N   0  0  0  0  0  0  0  0  0  0  0  0
   10.2588  -14.2503   28.7455 C   0  0  0  0  0  0  0  0  0  0  0  0
   10.5169  -14.2309   29.9763 O   0  0  0  0  0  0  0  0  0  0  0  0
   10.9924  -15.1154   27.8238 C   0  0  0  0  0  0  0  0  0  0  0  0
   10.4979  -15.1361   26.4336 C   0  0  0  0  0  0  0  0  0  0  0  0
   11.2844  -15.9809   25.4733 C   0  0  2  0  0  0  0  0  0  0  0  0
   10.5745  -15.9369   24.2142 N   0  0  0  0  0  0  0  0  0  0  0  0
   11.2715  -17.4090   25.9528 C   0  0  0  0  0  0  0  0  0  0  0  0
   10.2353  -18.2837   25.6653 O   0  0  0  0  0  0  0  0  0  0  0  0
   12.2203  -17.8750   26.6481 O   0  0  0  0  0  0  0  0  0  0  0  0
  2  1  1  6
  2  3  1  0
  3  4  1  0
  4  5  2  0
  6 11  1  0
  6  2  1  0
  7  6  2  0
  8  4  1  0
 10  9  1  6
 10 12  1  0
 10 11  1  0
 12 20  1  0
 13 12  2  0
 15 14  1  0
 15 17  1  0
 16 15  2  0
 18 17  1  0
 19 21  1  0
 19 18  1  1
 20 19  1  0
 21 22  1  0
 23 21  2  0
M  END
$$$$
