KVS.pdb
     RDKit          3D

 23 22  0  0  1  0  0  0  0  0999 V2000
   20.2642  -21.2668  -12.3744 N   0  0  0  0  0  0  0  0  0  0  0  0
   21.4891  -21.9495  -12.7395 C   0  0  1  0  0  0  0  0  0  0  0  0
   21.3718  -22.7024  -14.0510 C   0  0  0  0  0  0  0  0  0  0  0  0
   20.7784  -21.7903  -15.0673 C   0  0  0  0  0  0  0  0  0  0  0  0
   20.4457  -22.4583  -16.3708 C   0  0  0  0  0  0  0  0  0  0  0  0
   19.9115  -21.5021  -17.4021 C   0  0  0  0  0  0  0  0  0  0  0  0
   18.5999  -21.0254  -17.0111 N   0  0  0  0  0  0  0  0  0  0  0  0
   22.6107  -20.9660  -12.8045 C   0  0  0  0  0  0  0  0  0  0  0  0
   22.3660  -19.7427  -12.9553 O   0  0  0  0  0  0  0  0  0  0  0  0
   25.5658  -20.8229  -10.3253 C   0  0  0  0  0  0  0  0  0  0  0  0
   26.0998  -20.7722  -11.7085 C   0  0  1  0  0  0  0  0  0  0  0  0
   26.5093  -22.1898  -12.0972 C   0  0  0  0  0  0  0  0  0  0  0  0
   25.0498  -20.3334  -12.7001 C   0  0  2  0  0  0  0  0  0  0  0  0
   23.9704  -21.3509  -12.7026 N   0  0  0  0  0  0  0  0  0  0  0  0
   25.5338  -20.2483  -14.0887 C   0  0  0  0  0  0  0  0  0  0  0  0
   25.8635  -21.3084  -14.6924 O   0  0  0  0  0  0  0  0  0  0  0  0
   25.6673  -16.7425  -16.2168 O   0  0  0  0  0  0  0  0  0  0  0  0
   25.4811  -17.9321  -16.9505 C   0  0  0  0  0  0  0  0  0  0  0  0
   26.1489  -19.0937  -16.2073 C   0  0  2  0  0  0  0  0  0  0  0  0
   25.6695  -19.0560  -14.8421 N   0  0  0  0  0  0  0  0  0  0  0  0
   27.6256  -18.9658  -16.2750 C   0  0  0  0  0  0  0  0  0  0  0  0
   28.2939  -18.7119  -15.2427 O   0  0  0  0  0  0  0  0  0  0  0  0
   28.3141  -19.1200  -17.4662 O   0  0  0  0  0  0  0  0  0  0  0  0
  2  1  1  6
  3  2  1  0
  4  3  1  0
  5  4  1  0
  6  5  1  0
  7  6  1  0
  8  2  1  0
  8  9  2  0
 11 10  1  1
 11 12  1  0
 13 14  1  6
 13 11  1  0
 14  8  1  0
 15 13  1  0
 16 15  2  0
 18 17  1  0
 19 18  1  6
 19 20  1  0
 20 15  1  0
 21 19  1  0
 21 23  1  0
 22 21  2  0
M  END
$$$$
