KVS.pdb
     RDKit          3D

 23 22  0  0  1  0  0  0  0  0999 V2000
   19.9895  -13.2791  -16.5454 N   0  0  0  0  0  0  0  0  0  0  0  0
   19.9938  -11.8681  -16.8752 C   0  0  1  0  0  0  0  0  0  0  0  0
   18.5966  -11.2984  -17.0303 C   0  0  0  0  0  0  0  0  0  0  0  0
   18.0489  -11.7422  -18.3417 C   0  0  0  0  0  0  0  0  0  0  0  0
   17.2544  -13.0152  -18.2752 C   0  0  0  0  0  0  0  0  0  0  0  0
   16.5915  -13.3635  -19.5801 C   0  0  0  0  0  0  0  0  0  0  0  0
   15.8428  -14.5974  -19.4475 N   0  0  0  0  0  0  0  0  0  0  0  0
   20.7495  -11.1121  -15.8327 C   0  0  0  0  0  0  0  0  0  0  0  0
   20.4529  -11.2478  -14.6192 O   0  0  0  0  0  0  0  0  0  0  0  0
   24.2182  -11.2810  -14.9274 C   0  0  0  0  0  0  0  0  0  0  0  0
   23.9858   -9.8352  -15.1651 C   0  0  1  0  0  0  0  0  0  0  0  0
   24.4364   -9.5234  -16.5893 C   0  0  0  0  0  0  0  0  0  0  0  0
   22.5209   -9.4810  -15.0830 C   0  0  2  0  0  0  0  0  0  0  0  0
   21.8100  -10.2275  -16.1496 N   0  0  0  0  0  0  0  0  0  0  0  0
   22.2336   -8.0561  -15.3212 C   0  0  0  0  0  0  0  0  0  0  0  0
   22.0985   -7.6448  -16.5084 O   0  0  0  0  0  0  0  0  0  0  0  0
   19.5195   -6.0376  -13.9957 O   0  0  0  0  0  0  0  0  0  0  0  0
   20.3225   -5.6356  -15.0828 C   0  0  0  0  0  0  0  0  0  0  0  0
   21.7969   -5.6927  -14.6700 C   0  0  2  0  0  0  0  0  0  0  0  0
   22.0863   -7.0665  -14.3178 N   0  0  0  0  0  0  0  0  0  0  0  0
   22.0491   -4.7698  -13.5359 C   0  0  0  0  0  0  0  0  0  0  0  0
   22.3587   -5.2166  -12.4040 O   0  0  0  0  0  0  0  0  0  0  0  0
   21.9534   -3.3964  -13.6821 O   0  0  0  0  0  0  0  0  0  0  0  0
  2  1  1  1
  3  2  1  0
  4  3  1  0
  5  4  1  0
  6  5  1  0
  7  6  1  0
  8  2  1  0
  8  9  2  0
 11 10  1  6
 11 12  1  0
 13 14  1  6
 13 11  1  0
 14  8  1  0
 15 13  1  0
 16 15  2  0
 18 17  1  0
 19 18  1  1
 19 20  1  0
 20 15  1  0
 21 19  1  0
 21 23  1  0
 22 21  2  0
M  END
$$$$
