KVS.pdb
     RDKit          3D

 23 22  0  0  1  0  0  0  0  0999 V2000
   23.6047  -21.8723  -15.5880 N   0  0  0  0  0  0  0  0  0  0  0  0
   23.5546  -20.9235  -14.4940 C   0  0  1  0  0  0  0  0  0  0  0  0
   22.1598  -20.7645  -13.9196 C   0  0  0  0  0  0  0  0  0  0  0  0
   21.2470  -20.3267  -15.0113 C   0  0  0  0  0  0  0  0  0  0  0  0
   21.2721  -18.8482  -15.2754 C   0  0  0  0  0  0  0  0  0  0  0  0
   20.1365  -18.1137  -14.6161 C   0  0  0  0  0  0  0  0  0  0  0  0
   18.8810  -18.4578  -15.2531 N   0  0  0  0  0  0  0  0  0  0  0  0
   24.5113  -21.3395  -13.4257 C   0  0  0  0  0  0  0  0  0  0  0  0
   24.2778  -22.3646  -12.7374 O   0  0  0  0  0  0  0  0  0  0  0  0
   29.0237  -21.0425  -11.4511 C   0  0  0  0  0  0  0  0  0  0  0  0
   28.0323  -20.7514  -12.5157 C   0  0  1  0  0  0  0  0  0  0  0  0
   28.3448  -21.6628  -13.6989 C   0  0  0  0  0  0  0  0  0  0  0  0
   26.6249  -21.0738  -12.0758 C   0  0  2  0  0  0  0  0  0  0  0  0
   25.6981  -20.6198  -13.1411 N   0  0  0  0  0  0  0  0  0  0  0  0
   26.2060  -20.3786  -10.8466 C   0  0  0  0  0  0  0  0  0  0  0  0
   25.9903  -19.1341  -10.8857 O   0  0  0  0  0  0  0  0  0  0  0  0
   25.1325  -22.0666   -7.0444 O   0  0  0  0  0  0  0  0  0  0  0  0
   24.6112  -20.8991   -7.6389 C   0  0  0  0  0  0  0  0  0  0  0  0
   25.7252  -20.1849   -8.4112 C   0  0  2  0  0  0  0  0  0  0  0  0
   26.0119  -20.9867   -9.5816 N   0  0  0  0  0  0  0  0  0  0  0  0
   26.9229  -20.0205   -7.5509 C   0  0  0  0  0  0  0  0  0  0  0  0
   27.9349  -20.7448   -7.7176 O   0  0  0  0  0  0  0  0  0  0  0  0
   26.9685  -19.0724   -6.5430 O   0  0  0  0  0  0  0  0  0  0  0  0
  2  1  1  6
  3  2  1  0
  4  3  1  0
  5  4  1  0
  6  5  1  0
  7  6  1  0
  8  2  1  0
  8  9  2  0
 11 10  1  1
 11 12  1  0
 13 14  1  6
 13 11  1  0
 14  8  1  0
 15 13  1  0
 16 15  2  0
 18 17  1  0
 19 18  1  1
 19 20  1  0
 20 15  1  0
 21 19  1  0
 21 23  1  0
 22 21  2  0
M  END
$$$$
