KVS.pdb
     RDKit          3D

 23 22  0  0  1  0  0  0  0  0999 V2000
   22.5119  -18.2398  -16.4568 N   0  0  0  0  0  0  0  0  0  0  0  0
   22.7030  -17.1102  -17.3439 C   0  0  1  0  0  0  0  0  0  0  0  0
   21.5308  -16.8977  -18.2829 C   0  0  0  0  0  0  0  0  0  0  0  0
   21.5170  -18.0048  -19.2784 C   0  0  0  0  0  0  0  0  0  0  0  0
   20.8843  -19.2717  -18.7777 C   0  0  0  0  0  0  0  0  0  0  0  0
   20.8338  -20.3556  -19.8199 C   0  0  0  0  0  0  0  0  0  0  0  0
   20.0968  -21.4984  -19.3183 N   0  0  0  0  0  0  0  0  0  0  0  0
   22.9530  -15.8776  -16.5391 C   0  0  0  0  0  0  0  0  0  0  0  0
   22.3213  -15.6864  -15.4698 O   0  0  0  0  0  0  0  0  0  0  0  0
   26.0690  -14.7691  -14.9968 C   0  0  0  0  0  0  0  0  0  0  0  0
   25.6004  -13.6084  -15.7931 C   0  0  1  0  0  0  0  0  0  0  0  0
   26.3210  -13.6502  -17.1375 C   0  0  0  0  0  0  0  0  0  0  0  0
   24.1222  -13.6892  -16.0873 C   0  0  2  0  0  0  0  0  0  0  0  0
   23.8888  -14.8880  -16.9292 N   0  0  0  0  0  0  0  0  0  0  0  0
   23.5989  -12.5447  -16.8527 C   0  0  0  0  0  0  0  0  0  0  0  0
   23.4455  -12.6573  -18.1020 O   0  0  0  0  0  0  0  0  0  0  0  0
   21.3710  -11.0485  -19.0558 O   0  0  0  0  0  0  0  0  0  0  0  0
   21.2873  -10.9160  -17.6545 C   0  0  0  0  0  0  0  0  0  0  0  0
   22.5822  -10.2885  -17.1282 C   0  0  2  0  0  0  0  0  0  0  0  0
   23.2359  -11.2873  -16.3096 N   0  0  0  0  0  0  0  0  0  0  0  0
   22.2800   -9.0577  -16.3567 C   0  0  0  0  0  0  0  0  0  0  0  0
   22.4344   -9.0292  -15.1108 O   0  0  0  0  0  0  0  0  0  0  0  0
   21.8213   -7.9071  -16.9752 O   0  0  0  0  0  0  0  0  0  0  0  0
  2  1  1  1
  3  2  1  0
  4  3  1  0
  5  4  1  0
  6  5  1  0
  7  6  1  0
  8  2  1  0
  8  9  2  0
 11 10  1  1
 11 12  1  0
 13 14  1  6
 13 11  1  0
 14  8  1  0
 15 13  1  0
 16 15  2  0
 18 17  1  0
 19 18  1  1
 19 20  1  0
 20 15  1  0
 21 19  1  0
 21 23  1  0
 22 21  2  0
M  END
$$$$
