KVS.pdb
     RDKit          3D

 23 22  0  0  1  0  0  0  0  0999 V2000
   24.3519  -21.1540   -8.7748 N   0  0  0  0  0  0  0  0  0  0  0  0
   23.4522  -20.9400   -9.8903 C   0  0  1  0  0  0  0  0  0  0  0  0
   22.3437  -19.9558   -9.5687 C   0  0  0  0  0  0  0  0  0  0  0  0
   21.0641  -20.7081   -9.4520 C   0  0  0  0  0  0  0  0  0  0  0  0
   21.0323  -21.6914   -8.3170 C   0  0  0  0  0  0  0  0  0  0  0  0
   19.7474  -22.4711   -8.2503 C   0  0  0  0  0  0  0  0  0  0  0  0
   19.7892  -23.4118   -7.1485 N   0  0  0  0  0  0  0  0  0  0  0  0
   24.2287  -20.4765  -11.0785 C   0  0  0  0  0  0  0  0  0  0  0  0
   25.1865  -19.6767  -10.9304 O   0  0  0  0  0  0  0  0  0  0  0  0
   25.9728  -21.4365  -15.5002 C   0  0  0  0  0  0  0  0  0  0  0  0
   25.2734  -21.7439  -14.2285 C   0  0  1  0  0  0  0  0  0  0  0  0
   26.2842  -22.4014  -13.2933 C   0  0  0  0  0  0  0  0  0  0  0  0
   24.7888  -20.4925  -13.5375 C   0  0  2  0  0  0  0  0  0  0  0  0
   23.9334  -20.9026  -12.3971 N   0  0  0  0  0  0  0  0  0  0  0  0
   23.9520  -19.6250  -14.3841 C   0  0  0  0  0  0  0  0  0  0  0  0
   22.7690  -19.9804  -14.6511 O   0  0  0  0  0  0  0  0  0  0  0  0
   23.2512  -15.4875  -16.8458 O   0  0  0  0  0  0  0  0  0  0  0  0
   24.0774  -16.2510  -15.9956 C   0  0  0  0  0  0  0  0  0  0  0  0
   23.4585  -17.6392  -15.8030 C   0  0  2  0  0  0  0  0  0  0  0  0
   24.3536  -18.3882  -14.9469 N   0  0  0  0  0  0  0  0  0  0  0  0
   23.2692  -18.3041  -17.1159 C   0  0  0  0  0  0  0  0  0  0  0  0
   24.2011  -18.9626  -17.6400 O   0  0  0  0  0  0  0  0  0  0  0  0
   22.0709  -18.2238  -17.8046 O   0  0  0  0  0  0  0  0  0  0  0  0
  2  1  1  1
  3  2  1  0
  4  3  1  0
  5  4  1  0
  6  5  1  0
  7  6  1  0
  8  2  1  0
  8  9  2  0
 11 10  1  6
 11 12  1  0
 13 14  1  1
 13 11  1  0
 14  8  1  0
 15 13  1  0
 16 15  2  0
 18 17  1  0
 19 18  1  6
 19 20  1  0
 20 15  1  0
 21 19  1  0
 21 23  1  0
 22 21  2  0
M  END
$$$$
