KVS.pdb
     RDKit          3D

 23 22  0  0  1  0  0  0  0  0999 V2000
   14.2570  -11.6330  -11.9662 N   0  0  0  0  0  0  0  0  0  0  0  0
   15.2274  -10.5624  -11.8574 C   0  0  1  0  0  0  0  0  0  0  0  0
   15.9095  -10.2536  -13.1766 C   0  0  0  0  0  0  0  0  0  0  0  0
   16.6586  -11.4633  -13.6151 C   0  0  0  0  0  0  0  0  0  0  0  0
   17.4991  -11.2526  -14.8420 C   0  0  0  0  0  0  0  0  0  0  0  0
   18.2298  -12.4946  -15.2746 C   0  0  0  0  0  0  0  0  0  0  0  0
   19.0702  -12.2076  -16.4200 N   0  0  0  0  0  0  0  0  0  0  0  0
   14.5647   -9.3384  -11.3169 C   0  0  0  0  0  0  0  0  0  0  0  0
   13.3858   -9.0620  -11.6524 O   0  0  0  0  0  0  0  0  0  0  0  0
   12.9875   -8.7532   -8.6033 C   0  0  0  0  0  0  0  0  0  0  0  0
   13.9569   -7.6331   -8.5232 C   0  0  1  0  0  0  0  0  0  0  0  0
   15.1400   -8.1059   -7.6835 C   0  0  0  0  0  0  0  0  0  0  0  0
   14.5042   -7.2659   -9.8811 C   0  0  2  0  0  0  0  0  0  0  0  0
   15.2134   -8.4505  -10.4234 N   0  0  0  0  0  0  0  0  0  0  0  0
   15.4933   -6.1747   -9.8547 C   0  0  0  0  0  0  0  0  0  0  0  0
   16.7231   -6.4560   -9.9275 O   0  0  0  0  0  0  0  0  0  0  0  0
   17.5336   -3.0769  -11.9480 O   0  0  0  0  0  0  0  0  0  0  0  0
   16.5988   -4.0546  -11.5499 C   0  0  0  0  0  0  0  0  0  0  0  0
   16.1832   -3.7947  -10.0983 C   0  0  2  0  0  0  0  0  0  0  0  0
   15.1936   -4.7935   -9.7546 N   0  0  0  0  0  0  0  0  0  0  0  0
   15.6473   -2.4184   -9.9560 C   0  0  0  0  0  0  0  0  0  0  0  0
   14.4414   -2.1723  -10.2051 O   0  0  0  0  0  0  0  0  0  0  0  0
   16.4483   -1.3657   -9.5475 O   0  0  0  0  0  0  0  0  0  0  0  0
  2  1  1  6
  3  2  1  0
  4  3  1  0
  5  4  1  0
  6  5  1  0
  7  6  1  0
  8  2  1  0
  8  9  2  0
 11 10  1  6
 11 12  1  0
 13 14  1  1
 13 11  1  0
 14  8  1  0
 15 13  1  0
 16 15  2  0
 18 17  1  0
 19 18  1  6
 19 20  1  0
 20 15  1  0
 21 19  1  0
 21 23  1  0
 22 21  2  0
M  END
$$$$
