KVS.pdb
     RDKit          3D

 23 22  0  0  1  0  0  0  0  0999 V2000
   29.1871  -24.3760  -16.7828 N   0  0  0  0  0  0  0  0  0  0  0  0
   27.9665  -23.6204  -16.9795 C   0  0  1  0  0  0  0  0  0  0  0  0
   26.7492  -24.5086  -17.1535 C   0  0  0  0  0  0  0  0  0  0  0  0
   26.8912  -25.2587  -18.4318 C   0  0  0  0  0  0  0  0  0  0  0  0
   27.2542  -26.7056  -18.2565 C   0  0  0  0  0  0  0  0  0  0  0  0
   27.3204  -27.4572  -19.5581 C   0  0  0  0  0  0  0  0  0  0  0  0
   27.5972  -28.8587  -19.3134 N   0  0  0  0  0  0  0  0  0  0  0  0
   27.7662  -22.6845  -15.8334 C   0  0  0  0  0  0  0  0  0  0  0  0
   28.2666  -22.9488  -14.7115 O   0  0  0  0  0  0  0  0  0  0  0  0
   28.3238  -18.8474  -15.9251 C   0  0  0  0  0  0  0  0  0  0  0  0
   26.9899  -19.1406  -15.3460 C   0  0  1  0  0  0  0  0  0  0  0  0
   25.9658  -19.0421  -16.4729 C   0  0  0  0  0  0  0  0  0  0  0  0
   26.9096  -20.5473  -14.8046 C   0  0  2  0  0  0  0  0  0  0  0  0
   27.0223  -21.4843  -15.9490 N   0  0  0  0  0  0  0  0  0  0  0  0
   25.6325  -20.8636  -14.1423 C   0  0  0  0  0  0  0  0  0  0  0  0
   24.7074  -21.4030  -14.8133 O   0  0  0  0  0  0  0  0  0  0  0  0
   22.8215  -20.9506  -10.1647 O   0  0  0  0  0  0  0  0  0  0  0  0
   24.0703  -20.6387  -10.7403 C   0  0  0  0  0  0  0  0  0  0  0  0
   24.0400  -20.9869  -12.2321 C   0  0  2  0  0  0  0  0  0  0  0  0
   25.3274  -20.6172  -12.7807 N   0  0  0  0  0  0  0  0  0  0  0  0
   22.9293  -20.2689  -12.9048 C   0  0  0  0  0  0  0  0  0  0  0  0
   23.0950  -19.1062  -13.3489 O   0  0  0  0  0  0  0  0  0  0  0  0
   21.6822  -20.8482  -13.0659 O   0  0  0  0  0  0  0  0  0  0  0  0
  2  1  1  1
  3  2  1  0
  4  3  1  0
  5  4  1  0
  6  5  1  0
  7  6  1  0
  8  2  1  0
  8  9  2  0
 11 10  1  6
 11 12  1  0
 13 14  1  6
 13 11  1  0
 14  8  1  0
 15 13  1  0
 16 15  2  0
 18 17  1  0
 19 18  1  1
 19 20  1  0
 20 15  1  0
 21 19  1  0
 21 23  1  0
 22 21  2  0
M  END
$$$$
