KVS.pdb
     RDKit          3D

 23 22  0  0  1  0  0  0  0  0999 V2000
   25.3856  -29.5229  -18.0224 N   0  0  0  0  0  0  0  0  0  0  0  0
   26.5303  -28.9313  -17.3596 C   0  0  1  0  0  0  0  0  0  0  0  0
   27.7845  -29.7740  -17.4926 C   0  0  0  0  0  0  0  0  0  0  0  0
   27.5034  -31.1286  -16.9421 C   0  0  0  0  0  0  0  0  0  0  0  0
   27.4943  -31.1907  -15.4414 C   0  0  0  0  0  0  0  0  0  0  0  0
   27.2871  -32.5835  -14.9117 C   0  0  0  0  0  0  0  0  0  0  0  0
   27.3149  -32.5774  -13.4627 N   0  0  0  0  0  0  0  0  0  0  0  0
   26.7677  -27.5593  -17.8987 C   0  0  0  0  0  0  0  0  0  0  0  0
   26.5565  -27.3160  -19.1132 O   0  0  0  0  0  0  0  0  0  0  0  0
   25.0817  -24.4669  -17.3549 C   0  0  0  0  0  0  0  0  0  0  0  0
   26.4922  -24.1887  -16.9891 C   0  0  1  0  0  0  0  0  0  0  0  0
   26.6329  -24.4169  -15.4869 C   0  0  0  0  0  0  0  0  0  0  0  0
   27.4466  -25.1415  -17.6669 C   0  0  2  0  0  0  0  0  0  0  0  0
   27.2305  -26.4912  -17.0909 N   0  0  0  0  0  0  0  0  0  0  0  0
   28.8682  -24.8260  -17.4455 C   0  0  0  0  0  0  0  0  0  0  0  0
   29.3239  -24.8295  -16.2668 O   0  0  0  0  0  0  0  0  0  0  0  0
   31.9674  -26.3906  -17.8244 O   0  0  0  0  0  0  0  0  0  0  0  0
   32.0784  -25.2554  -18.6533 C   0  0  0  0  0  0  0  0  0  0  0  0
   31.1680  -24.1464  -18.1158 C   0  0  2  0  0  0  0  0  0  0  0  0
   29.8091  -24.5100  -18.4568 N   0  0  0  0  0  0  0  0  0  0  0  0
   31.5505  -22.8383  -18.7024 C   0  0  0  0  0  0  0  0  0  0  0  0
   30.7237  -22.1706  -19.3713 O   0  0  0  0  0  0  0  0  0  0  0  0
   32.8197  -22.3109  -18.5358 O   0  0  0  0  0  0  0  0  0  0  0  0
  2  1  1  6
  3  2  1  0
  4  3  1  0
  5  4  1  0
  6  5  1  0
  7  6  1  0
  8  2  1  0
  8  9  2  0
 11 10  1  6
 11 12  1  0
 13 14  1  1
 13 11  1  0
 14  8  1  0
 15 13  1  0
 16 15  2  0
 18 17  1  0
 19 18  1  6
 19 20  1  0
 20 15  1  0
 21 19  1  0
 21 23  1  0
 22 21  2  0
M  END
$$$$
