VVP.pdb
     RDKit          3D

 22 22  0  0  1  0  0  0  0  0999 V2000
   20.8896  -21.4786  -17.6541 C   0  0  0  0  0  0  0  0  0  0  0  0
   21.1854  -20.0951  -17.2086 C   0  0  2  0  0  0  0  0  0  0  0  0
   21.3785  -19.1869  -18.4075 C   0  0  0  0  0  0  0  0  0  0  0  0
   22.3863  -19.9633  -16.3189 C   0  0  2  0  0  0  0  0  0  0  0  0
   22.2026  -20.7824  -15.1364 N   0  0  0  0  0  0  0  0  0  0  0  0
   22.6924  -18.5913  -15.9183 C   0  0  0  0  0  0  0  0  0  0  0  0
   21.9230  -17.9760  -15.1601 O   0  0  0  0  0  0  0  0  0  0  0  0
   25.8700  -17.2891  -14.1853 C   0  0  0  0  0  0  0  0  0  0  0  0
   25.6692  -16.6416  -15.5076 C   0  0  1  0  0  0  0  0  0  0  0  0
   26.5364  -17.3614  -16.5189 C   0  0  0  0  0  0  0  0  0  0  0  0
   24.2378  -16.5660  -16.0145 C   0  0  2  0  0  0  0  0  0  0  0  0
   23.8517  -17.9480  -16.3783 N   0  0  0  0  0  0  0  0  0  0  0  0
   24.0910  -15.6759  -17.1672 C   0  0  0  0  0  0  0  0  0  0  0  0
   24.3809  -16.2066  -18.3014 O   0  0  0  0  0  0  0  0  0  0  0  0
   23.6778  -14.3377  -17.2141 N   0  0  0  0  0  0  0  0  0  0  0  0
   23.4812  -13.4441  -16.0471 C   0  0  0  0  0  0  0  0  0  0  0  0
   22.3904  -12.4975  -16.3907 C   0  0  0  0  0  0  0  0  0  0  0  0
   22.0952  -12.7627  -17.8449 C   0  0  0  0  0  0  0  0  0  0  0  0
   23.3273  -13.4939  -18.3319 C   0  0  1  0  0  0  0  0  0  0  0  0
   24.3861  -12.4201  -18.4880 C   0  0  0  0  0  0  0  0  0  0  0  0
   24.2160  -11.5240  -19.3528 O   0  0  0  0  0  0  0  0  0  0  0  0
   25.5026  -12.4395  -17.6943 O   0  0  0  0  0  0  0  0  0  0  0  0
  2  1  1  6
  2  3  1  0
  4  6  1  0
  4  2  1  0
  4  5  1  1
  6 12  1  0
  6  7  2  0
  9  8  1  1
  9 11  1  0
 10  9  1  0
 11 13  1  0
 11 12  1  6
 13 14  2  0
 13 15  1  0
 15 19  1  0
 15 16  1  0
 16 17  1  0
 18 17  1  0
 19 18  1  0
 19 20  1  1
 21 20  2  0
 22 20  1  0
M  END
$$$$
