VVP.pdb
     RDKit          3D

 22 22  0  0  1  0  0  0  0  0999 V2000
   18.1349  -20.8348  -19.4520 C   0  0  0  0  0  0  0  0  0  0  0  0
   19.3698  -20.2382  -18.8872 C   0  0  2  0  0  0  0  0  0  0  0  0
   20.5950  -20.8650  -19.5238 C   0  0  0  0  0  0  0  0  0  0  0  0
   19.5009  -20.3548  -17.3971 C   0  0  2  0  0  0  0  0  0  0  0  0
   18.3971  -19.6625  -16.7603 N   0  0  0  0  0  0  0  0  0  0  0  0
   20.7647  -19.8523  -16.8616 C   0  0  0  0  0  0  0  0  0  0  0  0
   21.0970  -18.6695  -17.0517 O   0  0  0  0  0  0  0  0  0  0  0  0
   21.8112  -19.4773  -13.3758 C   0  0  0  0  0  0  0  0  0  0  0  0
   22.7696  -20.3984  -14.0399 C   0  0  1  0  0  0  0  0  0  0  0  0
   22.3750  -21.8179  -13.6902 C   0  0  0  0  0  0  0  0  0  0  0  0
   22.9112  -20.2574  -15.5471 C   0  0  2  0  0  0  0  0  0  0  0  0
   21.6201  -20.6891  -16.1285 N   0  0  0  0  0  0  0  0  0  0  0  0
   24.0084  -21.0594  -16.0908 C   0  0  0  0  0  0  0  0  0  0  0  0
   23.6783  -22.2428  -16.4687 O   0  0  0  0  0  0  0  0  0  0  0  0
   25.3581  -20.7245  -16.2630 N   0  0  0  0  0  0  0  0  0  0  0  0
   26.0238  -19.4989  -15.7591 C   0  0  0  0  0  0  0  0  0  0  0  0
   27.0986  -19.1490  -16.7214 C   0  0  0  0  0  0  0  0  0  0  0  0
   27.1402  -20.3048  -17.6882 C   0  0  0  0  0  0  0  0  0  0  0  0
   26.4245  -21.4145  -16.9491 C   0  0  1  0  0  0  0  0  0  0  0  0
   27.4250  -21.9143  -15.9255 C   0  0  0  0  0  0  0  0  0  0  0  0
   27.2825  -21.5737  -14.7241 O   0  0  0  0  0  0  0  0  0  0  0  0
   28.4604  -22.7212  -16.3179 O   0  0  0  0  0  0  0  0  0  0  0  0
  2  1  1  6
  2  3  1  0
  4  6  1  0
  4  2  1  0
  4  5  1  1
  6 12  1  0
  6  7  2  0
  9  8  1  6
  9 11  1  0
 10  9  1  0
 11 13  1  0
 11 12  1  6
 13 14  2  0
 13 15  1  0
 15 19  1  0
 15 16  1  0
 16 17  1  0
 18 17  1  0
 19 18  1  0
 19 20  1  1
 21 20  2  0
 22 20  1  0
M  END
$$$$
