VVP.pdb
     RDKit          3D

 22 22  0  0  1  0  0  0  0  0999 V2000
   24.4889  -22.1894   -9.6637 C   0  0  0  0  0  0  0  0  0  0  0  0
   24.4413  -20.7447   -9.9962 C   0  0  2  0  0  0  0  0  0  0  0  0
   23.3012  -20.4636  -10.9558 C   0  0  0  0  0  0  0  0  0  0  0  0
   25.7041  -20.1933  -10.5899 C   0  0  2  0  0  0  0  0  0  0  0  0
   25.9769  -20.8608  -11.8481 N   0  0  0  0  0  0  0  0  0  0  0  0
   26.8744  -20.2962   -9.7204 C   0  0  0  0  0  0  0  0  0  0  0  0
   27.7134  -21.1945   -9.9064 O   0  0  0  0  0  0  0  0  0  0  0  0
   27.7515  -16.9864   -7.0650 C   0  0  0  0  0  0  0  0  0  0  0  0
   28.7115  -17.9404   -7.6784 C   0  0  1  0  0  0  0  0  0  0  0  0
   30.0103  -17.8619   -6.9040 C   0  0  0  0  0  0  0  0  0  0  0  0
   28.2569  -19.3876   -7.7805 C   0  0  2  0  0  0  0  0  0  0  0  0
   27.0715  -19.3897   -8.6672 N   0  0  0  0  0  0  0  0  0  0  0  0
   27.9212  -19.9694   -6.4799 C   0  0  0  0  0  0  0  0  0  0  0  0
   26.6660  -20.1609   -6.2802 O   0  0  0  0  0  0  0  0  0  0  0  0
   28.7655  -20.3506   -5.4285 N   0  0  0  0  0  0  0  0  0  0  0  0
   30.2353  -20.1602   -5.3772 C   0  0  0  0  0  0  0  0  0  0  0  0
   30.8022  -21.2848   -4.5914 C   0  0  0  0  0  0  0  0  0  0  0  0
   29.6021  -22.0192   -4.0505 C   0  0  0  0  0  0  0  0  0  0  0  0
   28.4799  -21.0120   -4.1774 C   0  0  1  0  0  0  0  0  0  0  0  0
   28.7006  -20.0320   -3.0419 C   0  0  0  0  0  0  0  0  0  0  0  0
   29.3188  -18.9632   -3.2768 O   0  0  0  0  0  0  0  0  0  0  0  0
   28.2297  -20.3202   -1.7880 O   0  0  0  0  0  0  0  0  0  0  0  0
  2  1  1  6
  2  3  1  0
  4  6  1  0
  4  2  1  0
  4  5  1  6
  6 12  1  0
  6  7  2  0
  9  8  1  1
  9 11  1  0
 10  9  1  0
 11 13  1  0
 11 12  1  6
 13 14  2  0
 13 15  1  0
 15 19  1  0
 15 16  1  0
 16 17  1  0
 18 17  1  0
 19 18  1  0
 19 20  1  1
 21 20  2  0
 22 20  1  0
M  END
$$$$
