VVP.pdb
     RDKit          3D

 22 22  0  0  1  0  0  0  0  0999 V2000
   16.5071  -27.1917   -7.0920 C   0  0  0  0  0  0  0  0  0  0  0  0
   16.4111  -26.7002   -5.6958 C   0  0  2  0  0  0  0  0  0  0  0  0
   15.0817  -27.1028   -5.0872 C   0  0  0  0  0  0  0  0  0  0  0  0
   16.5720  -25.2169   -5.5379 C   0  0  2  0  0  0  0  0  0  0  0  0
   17.8950  -24.8252   -5.9844 N   0  0  0  0  0  0  0  0  0  0  0  0
   16.3524  -24.7277   -4.1781 C   0  0  0  0  0  0  0  0  0  0  0  0
   17.2311  -24.8769   -3.3115 O   0  0  0  0  0  0  0  0  0  0  0  0
   12.6574  -22.7916   -3.5310 C   0  0  0  0  0  0  0  0  0  0  0  0
   13.8135  -22.4774   -2.6520 C   0  0  1  0  0  0  0  0  0  0  0  0
   13.2746  -22.0510   -1.3026 C   0  0  0  0  0  0  0  0  0  0  0  0
   14.8467  -23.5782   -2.4719 C   0  0  2  0  0  0  0  0  0  0  0  0
   15.1547  -24.0855   -3.8281 N   0  0  0  0  0  0  0  0  0  0  0  0
   14.3718  -24.6668   -1.6164 C   0  0  0  0  0  0  0  0  0  0  0  0
   13.7307  -25.5970   -2.2297 O   0  0  0  0  0  0  0  0  0  0  0  0
   14.5182  -24.8439   -0.2341 N   0  0  0  0  0  0  0  0  0  0  0  0
   15.1917  -23.9082    0.6986 C   0  0  0  0  0  0  0  0  0  0  0  0
   15.7952  -24.7205    1.7847 C   0  0  0  0  0  0  0  0  0  0  0  0
   15.2968  -26.1217    1.5390 C   0  0  0  0  0  0  0  0  0  0  0  0
   14.1026  -25.9221    0.6314 C   0  0  1  0  0  0  0  0  0  0  0  0
   12.9964  -25.4238    1.5406 C   0  0  0  0  0  0  0  0  0  0  0  0
   12.8221  -24.1847    1.6581 O   0  0  0  0  0  0  0  0  0  0  0  0
   12.2099  -26.3197    2.2157 O   0  0  0  0  0  0  0  0  0  0  0  0
  2  1  1  6
  2  3  1  0
  4  6  1  0
  4  2  1  0
  4  5  1  1
  6 12  1  0
  6  7  2  0
  9  8  1  6
  9 11  1  0
 10  9  1  0
 11 13  1  0
 11 12  1  6
 13 14  2  0
 13 15  1  0
 15 19  1  0
 15 16  1  0
 16 17  1  0
 18 17  1  0
 19 18  1  0
 19 20  1  1
 21 20  2  0
 22 20  1  0
M  END
$$$$
