VVP.pdb
     RDKit          3D

 22 22  0  0  1  0  0  0  0  0999 V2000
   21.2915  -18.1463  -15.4823 C   0  0  0  0  0  0  0  0  0  0  0  0
   21.4695  -18.9719  -16.7016 C   0  0  2  0  0  0  0  0  0  0  0  0
   20.9644  -20.3812  -16.4603 C   0  0  0  0  0  0  0  0  0  0  0  0
   22.8806  -19.0563  -17.2044 C   0  0  2  0  0  0  0  0  0  0  0  0
   22.8894  -19.6794  -18.5139 N   0  0  0  0  0  0  0  0  0  0  0  0
   23.7948  -19.7737  -16.3177 C   0  0  0  0  0  0  0  0  0  0  0  0
   23.7600  -21.0149  -16.2567 O   0  0  0  0  0  0  0  0  0  0  0  0
   27.5902  -19.3339  -16.2920 C   0  0  0  0  0  0  0  0  0  0  0  0
   27.0481  -19.1043  -14.9277 C   0  0  1  0  0  0  0  0  0  0  0  0
   26.9880  -17.6096  -14.6923 C   0  0  0  0  0  0  0  0  0  0  0  0
   25.6972  -19.7309  -14.6210 C   0  0  2  0  0  0  0  0  0  0  0  0
   24.7220  -19.0800  -15.5247 N   0  0  0  0  0  0  0  0  0  0  0  0
   25.2945  -19.5545  -13.2249 C   0  0  0  0  0  0  0  0  0  0  0  0
   24.4531  -18.6046  -13.0200 O   0  0  0  0  0  0  0  0  0  0  0  0
   25.6870  -20.2703  -12.0859 N   0  0  0  0  0  0  0  0  0  0  0  0
   26.7102  -21.3426  -12.0393 C   0  0  0  0  0  0  0  0  0  0  0  0
   26.3048  -22.2983  -10.9782 C   0  0  0  0  0  0  0  0  0  0  0  0
   25.1224  -21.6479  -10.3065 C   0  0  0  0  0  0  0  0  0  0  0  0
   25.2321  -20.1958  -10.7178 C   0  0  1  0  0  0  0  0  0  0  0  0
   26.3455  -19.6271   -9.8601 C   0  0  0  0  0  0  0  0  0  0  0  0
   26.0953  -19.3259   -8.6658 O   0  0  0  0  0  0  0  0  0  0  0  0
   27.5959  -19.4497  -10.3912 O   0  0  0  0  0  0  0  0  0  0  0  0
  2  1  1  1
  2  3  1  0
  4  6  1  0
  4  2  1  0
  4  5  1  6
  6 12  1  0
  6  7  2  0
  9  8  1  6
  9 11  1  0
 10  9  1  0
 11 13  1  0
 11 12  1  6
 13 14  2  0
 13 15  1  0
 15 19  1  0
 15 16  1  0
 16 17  1  0
 18 17  1  0
 19 18  1  0
 19 20  1  1
 21 20  2  0
 22 20  1  0
M  END
$$$$
