VVP.pdb
     RDKit          3D

 22 22  0  0  1  0  0  0  0  0999 V2000
   20.8181  -20.4258  -15.6496 C   0  0  0  0  0  0  0  0  0  0  0  0
   20.9560  -21.6270  -14.7905 C   0  0  2  0  0  0  0  0  0  0  0  0
   19.6767  -22.4408  -14.8158 C   0  0  0  0  0  0  0  0  0  0  0  0
   21.3048  -21.3411  -13.3595 C   0  0  2  0  0  0  0  0  0  0  0  0
   20.1788  -20.7007  -12.7075 N   0  0  0  0  0  0  0  0  0  0  0  0
   22.5011  -20.5202  -13.1827 C   0  0  0  0  0  0  0  0  0  0  0  0
   22.3949  -19.3012  -12.9628 O   0  0  0  0  0  0  0  0  0  0  0  0
   25.1267  -20.6167  -10.6278 C   0  0  0  0  0  0  0  0  0  0  0  0
   25.7781  -20.8453  -11.9436 C   0  0  1  0  0  0  0  0  0  0  0  0
   26.0236  -22.3320  -12.0935 C   0  0  0  0  0  0  0  0  0  0  0  0
   25.0424  -20.3169  -13.1648 C   0  0  2  0  0  0  0  0  0  0  0  0
   23.7823  -21.0882  -13.2573 N   0  0  0  0  0  0  0  0  0  0  0  0
   25.8176  -20.4577  -14.3984 C   0  0  0  0  0  0  0  0  0  0  0  0
   25.5533  -21.5106  -15.0867 O   0  0  0  0  0  0  0  0  0  0  0  0
   26.7973  -19.6133  -14.9377 N   0  0  0  0  0  0  0  0  0  0  0  0
   27.6406  -18.6590  -14.1780 C   0  0  0  0  0  0  0  0  0  0  0  0
   27.9267  -17.5090  -15.0721 C   0  0  0  0  0  0  0  0  0  0  0  0
   27.3727  -17.9176  -16.4130 C   0  0  0  0  0  0  0  0  0  0  0  0
   27.2350  -19.4203  -16.2998 C   0  0  1  0  0  0  0  0  0  0  0  0
   28.6459  -19.9565  -16.4432 C   0  0  0  0  0  0  0  0  0  0  0  0
   29.2153  -20.4390  -15.4319 O   0  0  0  0  0  0  0  0  0  0  0  0
   29.2760  -19.9084  -17.6588 O   0  0  0  0  0  0  0  0  0  0  0  0
  2  1  1  6
  2  3  1  0
  4  6  1  0
  4  2  1  0
  4  5  1  6
  6 12  1  0
  6  7  2  0
  9  8  1  1
  9 11  1  0
 10  9  1  0
 11 13  1  0
 11 12  1  6
 13 14  2  0
 13 15  1  0
 15 19  1  0
 15 16  1  0
 16 17  1  0
 18 17  1  0
 19 18  1  0
 19 20  1  1
 21 20  2  0
 22 20  1  0
M  END
$$$$
