VVP.pdb
     RDKit          3D

 22 22  0  0  1  0  0  0  0  0999 V2000
   27.7750  -12.7106  -15.5092 C   0  0  0  0  0  0  0  0  0  0  0  0
   26.9097  -11.6882  -16.1466 C   0  0  2  0  0  0  0  0  0  0  0  0
   26.9892  -10.3814  -15.3814 C   0  0  0  0  0  0  0  0  0  0  0  0
   25.4653  -12.0747  -16.2709 C   0  0  2  0  0  0  0  0  0  0  0  0
   25.3541  -13.2679  -17.0876 N   0  0  0  0  0  0  0  0  0  0  0  0
   24.6058  -11.0274  -16.8193 C   0  0  0  0  0  0  0  0  0  0  0  0
   24.7158  -10.6897  -18.0107 O   0  0  0  0  0  0  0  0  0  0  0  0
   21.2698  -11.0570  -17.6203 C   0  0  0  0  0  0  0  0  0  0  0  0
   21.3763   -9.9346  -16.6525 C   0  0  1  0  0  0  0  0  0  0  0  0
   20.8705  -10.4223  -15.3111 C   0  0  0  0  0  0  0  0  0  0  0  0
   22.7521   -9.3083  -16.4899 C   0  0  2  0  0  0  0  0  0  0  0  0
   23.6476  -10.3883  -16.0174 N   0  0  0  0  0  0  0  0  0  0  0  0
   22.7582   -8.1912  -15.5440 C   0  0  0  0  0  0  0  0  0  0  0  0
   22.9762   -8.5191  -14.3204 O   0  0  0  0  0  0  0  0  0  0  0  0
   22.5669   -6.8229  -15.7782 N   0  0  0  0  0  0  0  0  0  0  0  0
   22.1657   -6.2061  -17.0657 C   0  0  0  0  0  0  0  0  0  0  0  0
   22.7934   -4.8624  -17.1296 C   0  0  0  0  0  0  0  0  0  0  0  0
   23.4145   -4.6632  -15.7707 C   0  0  0  0  0  0  0  0  0  0  0  0
   22.7104   -5.6837  -14.9031 C   0  0  1  0  0  0  0  0  0  0  0  0
   21.3396   -5.0938  -14.6356 C   0  0  0  0  0  0  0  0  0  0  0  0
   21.2314   -4.1777  -13.7819 O   0  0  0  0  0  0  0  0  0  0  0  0
   20.2482   -5.5615  -15.3190 O   0  0  0  0  0  0  0  0  0  0  0  0
  2  1  1  1
  2  3  1  0
  4  6  1  0
  4  2  1  0
  4  5  1  6
  6 12  1  0
  6  7  2  0
  9  8  1  6
  9 11  1  0
 10  9  1  0
 11 13  1  0
 11 12  1  1
 13 14  2  0
 13 15  1  0
 15 19  1  0
 15 16  1  0
 16 17  1  0
 18 17  1  0
 19 18  1  0
 19 20  1  6
 21 20  2  0
 22 20  1  0
M  END
$$$$
