VVP.pdb
     RDKit          3D

 22 22  0  0  1  0  0  0  0  0999 V2000
   19.7428  -20.1081  -15.6174 C   0  0  0  0  0  0  0  0  0  0  0  0
   20.9546  -20.6715  -14.9739 C   0  0  2  0  0  0  0  0  0  0  0  0
   20.9500  -20.3678  -13.4882 C   0  0  0  0  0  0  0  0  0  0  0  0
   22.2543  -20.1911  -15.5493 C   0  0  2  0  0  0  0  0  0  0  0  0
   22.3252  -20.5560  -16.9510 N   0  0  0  0  0  0  0  0  0  0  0  0
   23.4412  -20.6882  -14.8561 C   0  0  0  0  0  0  0  0  0  0  0  0
   23.6688  -21.9094  -14.8050 O   0  0  0  0  0  0  0  0  0  0  0  0
   26.8844  -19.7019  -15.5081 C   0  0  0  0  0  0  0  0  0  0  0  0
   26.7200  -19.5589  -14.0382 C   0  0  1  0  0  0  0  0  0  0  0  0
   26.7184  -18.0811  -13.7079 C   0  0  0  0  0  0  0  0  0  0  0  0
   25.5000  -20.2273  -13.4247 C   0  0  2  0  0  0  0  0  0  0  0  0
   24.3394  -19.8032  -14.2399 N   0  0  0  0  0  0  0  0  0  0  0  0
   25.2983  -19.8610  -12.0220 C   0  0  0  0  0  0  0  0  0  0  0  0
   24.4128  -18.9511  -11.8219 O   0  0  0  0  0  0  0  0  0  0  0  0
   25.9236  -20.3593  -10.8711 N   0  0  0  0  0  0  0  0  0  0  0  0
   27.0747  -21.2936  -10.8390 C   0  0  0  0  0  0  0  0  0  0  0  0
   26.9366  -22.1275   -9.6186 C   0  0  0  0  0  0  0  0  0  0  0  0
   25.7762  -21.5236   -8.8697 C   0  0  0  0  0  0  0  0  0  0  0  0
   25.6427  -20.1418   -9.4718 C   0  0  1  0  0  0  0  0  0  0  0  0
   26.7739  -19.3365   -8.8630 C   0  0  0  0  0  0  0  0  0  0  0  0
   27.8285  -19.1764   -9.5277 O   0  0  0  0  0  0  0  0  0  0  0  0
   26.6347  -18.8000   -7.6100 O   0  0  0  0  0  0  0  0  0  0  0  0
  2  1  1  6
  2  3  1  0
  4  6  1  0
  4  2  1  0
  4  5  1  6
  6 12  1  0
  6  7  2  0
  9  8  1  6
  9 11  1  0
 10  9  1  0
 11 13  1  0
 11 12  1  6
 13 14  2  0
 13 15  1  0
 15 19  1  0
 15 16  1  0
 16 17  1  0
 18 17  1  0
 19 18  1  0
 19 20  1  1
 21 20  2  0
 22 20  1  0
M  END
$$$$
