WPW.pdb
     RDKit          3D

 36 40  0  0  1  0  0  0  0  0999 V2000
    6.1113  -17.2498   21.7940 N   0  0  0  0  0  0  0  0  0  0  0  0
    7.4669  -16.8059   22.0609 C   0  0  1  0  0  0  0  0  0  0  0  0
    7.4326  -15.3220   22.3261 C   0  0  0  0  0  0  0  0  0  0  0  0
    7.3510  -14.6163   21.0239 C   0  0  0  0  0  0  0  0  0  0  0  0
    6.1840  -14.4256   20.2704 C   0  0  0  0  0  0  0  0  0  0  0  0
    6.4929  -13.7079   19.1808 N   0  0  0  0  0  0  0  0  0  0  0  0
    7.7988  -13.4031   19.1525 C   0  0  0  0  0  0  0  0  0  0  0  0
    8.5800  -12.7007   18.2460 C   0  0  0  0  0  0  0  0  0  0  0  0
    9.9227  -12.5730   18.5077 C   0  0  0  0  0  0  0  0  0  0  0  0
   10.4854  -13.1265   19.6395 C   0  0  0  0  0  0  0  0  0  0  0  0
    9.6807  -13.8185   20.5211 C   0  0  0  0  0  0  0  0  0  0  0  0
    8.3364  -13.9748   20.3098 C   0  0  0  0  0  0  0  0  0  0  0  0
    8.1042  -17.6008   23.1195 C   0  0  0  0  0  0  0  0  0  0  0  0
    7.4435  -17.8090   24.1681 O   0  0  0  0  0  0  0  0  0  0  0  0
    9.3908  -18.1159   22.9878 N   0  0  0  0  0  0  0  0  0  0  0  0
   10.1589  -18.2648   21.7717 C   0  0  0  0  0  0  0  0  0  0  0  0
   10.9875  -19.5456   22.0339 C   0  0  0  0  0  0  0  0  0  0  0  0
   11.4146  -19.2770   23.4586 C   0  0  0  0  0  0  0  0  0  0  0  0
   10.2014  -18.6199   24.0786 C   0  0  1  0  0  0  0  0  0  0  0  0
   10.5699  -17.5806   25.0587 C   0  0  0  0  0  0  0  0  0  0  0  0
   11.2229  -16.5743   24.6564 O   0  0  0  0  0  0  0  0  0  0  0  0
   10.2538  -17.6047   26.4404 N   0  0  0  0  0  0  0  0  0  0  0  0
   10.7273  -16.6161   27.4057 C   0  0  1  0  0  0  0  0  0  0  0  0
   10.3755  -15.2390   27.0100 C   0  0  0  0  0  0  0  0  0  0  0  0
    8.9270  -15.0743   26.7980 C   0  0  0  0  0  0  0  0  0  0  0  0
    7.9722  -16.0912   26.6423 C   0  0  0  0  0  0  0  0  0  0  0  0
    6.7603  -15.5723   26.4250 N   0  0  0  0  0  0  0  0  0  0  0  0
    6.8821  -14.2173   26.4322 C   0  0  0  0  0  0  0  0  0  0  0  0
    5.9253  -13.2299   26.2742 C   0  0  0  0  0  0  0  0  0  0  0  0
    6.3139  -11.9149   26.3495 C   0  0  0  0  0  0  0  0  0  0  0  0
    7.6379  -11.5676   26.5795 C   0  0  0  0  0  0  0  0  0  0  0  0
    8.5756  -12.5597   26.7336 C   0  0  0  0  0  0  0  0  0  0  0  0
    8.2012  -13.8940   26.6595 C   0  0  0  0  0  0  0  0  0  0  0  0
   10.3897  -16.9552   28.7673 C   0  0  0  0  0  0  0  0  0  0  0  0
    9.6064  -18.0151   29.1900 O   0  0  0  0  0  0  0  0  0  0  0  0
   10.8463  -16.2072   29.7035 O   0  0  0  0  0  0  0  0  0  0  0  0
  2  1  1  1
  2  3  1  0
  3  4  1  0
  4  5  2  0
  5  6  1  0
  7  8  2  0
  7  6  1  0
  9  8  1  0
 10  9  2  0
 11 10  1  0
 11 12  2  0
 12  4  1  0
 12  7  1  0
 13  2  1  0
 13 14  2  0
 15 13  1  0
 16 15  1  0
 17 18  1  0
 17 16  1  0
 18 19  1  0
 19 15  1  0
 19 20  1  1
 20 22  1  0
 21 20  2  0
 22 23  1  0
 23 34  1  0
 23 24  1  6
 24 25  1  0
 25 26  2  0
 26 27  1  0
 28 29  2  0
 28 27  1  0
 30 29  1  0
 31 30  2  0
 32 31  1  0
 32 33  2  0
 33 25  1  0
 33 28  1  0
 34 36  2  0
 34 35  1  0
M  END
$$$$
