WPW.pdb
     RDKit          3D

 36 40  0  0  1  0  0  0  0  0999 V2000
    6.6058  -18.5114   21.8195 N   0  0  0  0  0  0  0  0  0  0  0  0
    7.3967  -17.3895   22.2902 C   0  0  1  0  0  0  0  0  0  0  0  0
    6.6410  -16.7170   23.4083 C   0  0  0  0  0  0  0  0  0  0  0  0
    6.9952  -15.2766   23.4116 C   0  0  0  0  0  0  0  0  0  0  0  0
    7.3343  -14.5167   22.2830 C   0  0  0  0  0  0  0  0  0  0  0  0
    7.5455  -13.2504   22.6697 N   0  0  0  0  0  0  0  0  0  0  0  0
    7.3704  -13.1094   23.9921 C   0  0  0  0  0  0  0  0  0  0  0  0
    7.4808  -12.0191   24.8433 C   0  0  0  0  0  0  0  0  0  0  0  0
    7.2420  -12.2135   26.1823 C   0  0  0  0  0  0  0  0  0  0  0  0
    6.9015  -13.4572   26.6737 C   0  0  0  0  0  0  0  0  0  0  0  0
    6.7997  -14.5205   25.8005 C   0  0  0  0  0  0  0  0  0  0  0  0
    7.0256  -14.3825   24.4566 C   0  0  0  0  0  0  0  0  0  0  0  0
    8.7667  -17.7927   22.6351 C   0  0  0  0  0  0  0  0  0  0  0  0
    8.9068  -18.7233   23.4680 O   0  0  0  0  0  0  0  0  0  0  0  0
    9.8838  -17.1820   22.0719 N   0  0  0  0  0  0  0  0  0  0  0  0
    9.9059  -16.0879   21.1267 C   0  0  0  0  0  0  0  0  0  0  0  0
   11.1520  -16.3956   20.2617 C   0  0  0  0  0  0  0  0  0  0  0  0
   12.1193  -16.7926   21.3531 C   0  0  0  0  0  0  0  0  0  0  0  0
   11.2589  -17.5587   22.3333 C   0  0  1  0  0  0  0  0  0  0  0  0
   11.6692  -17.3307   23.7320 C   0  0  0  0  0  0  0  0  0  0  0  0
   12.2550  -16.2472   24.0216 O   0  0  0  0  0  0  0  0  0  0  0  0
   11.4639  -18.2327   24.8062 N   0  0  0  0  0  0  0  0  0  0  0  0
   12.0955  -18.1021   26.1167 C   0  0  1  0  0  0  0  0  0  0  0  0
   11.9437  -16.7449   26.6748 C   0  0  0  0  0  0  0  0  0  0  0  0
   10.5564  -16.4633   27.0826 C   0  0  0  0  0  0  0  0  0  0  0  0
    9.4583  -17.3345   27.0102 C   0  0  0  0  0  0  0  0  0  0  0  0
    8.3441  -16.7263   27.4271 N   0  0  0  0  0  0  0  0  0  0  0  0
    8.6737  -15.4548   27.7815 C   0  0  0  0  0  0  0  0  0  0  0  0
    7.8902  -14.4338   28.2905 C   0  0  0  0  0  0  0  0  0  0  0  0
    8.4837  -13.2328   28.5925 C   0  0  0  0  0  0  0  0  0  0  0  0
    9.8431  -13.0323   28.3964 C   0  0  0  0  0  0  0  0  0  0  0  0
   10.6069  -14.0557   27.8897 C   0  0  0  0  0  0  0  0  0  0  0  0
   10.0238  -15.2758   27.5778 C   0  0  0  0  0  0  0  0  0  0  0  0
   11.7362  -19.1678   27.0212 C   0  0  0  0  0  0  0  0  0  0  0  0
   12.2703  -19.4093   28.2749 O   0  0  0  0  0  0  0  0  0  0  0  0
   10.8326  -19.9962   26.6446 O   0  0  0  0  0  0  0  0  0  0  0  0
  2  1  1  1
  2  3  1  0
  3  4  1  0
  4  5  2  0
  5  6  1  0
  7  8  2  0
  7  6  1  0
  9  8  1  0
 10  9  2  0
 11 10  1  0
 11 12  2  0
 12  4  1  0
 12  7  1  0
 13  2  1  0
 13 14  2  0
 15 13  1  0
 16 15  1  0
 17 18  1  0
 17 16  1  0
 18 19  1  0
 19 15  1  0
 19 20  1  1
 20 22  1  0
 21 20  2  0
 22 23  1  0
 23 34  1  0
 23 24  1  1
 24 25  1  0
 25 26  2  0
 26 27  1  0
 28 29  2  0
 28 27  1  0
 30 29  1  0
 31 30  2  0
 32 31  1  0
 32 33  2  0
 33 25  1  0
 33 28  1  0
 34 36  2  0
 34 35  1  0
M  END
$$$$
