WPW.pdb
     RDKit          3D

 36 40  0  0  1  0  0  0  0  0999 V2000
    6.9374  -17.3305   20.7448 N   0  0  0  0  0  0  0  0  0  0  0  0
    8.0915  -16.7957   21.4431 C   0  0  1  0  0  0  0  0  0  0  0  0
    7.7725  -15.3845   21.8678 C   0  0  0  0  0  0  0  0  0  0  0  0
    7.7005  -14.5359   20.6534 C   0  0  0  0  0  0  0  0  0  0  0  0
    6.5240  -14.1528   19.9936 C   0  0  0  0  0  0  0  0  0  0  0  0
    6.8515  -13.3530   18.9686 N   0  0  0  0  0  0  0  0  0  0  0  0
    8.1788  -13.1734   18.8956 C   0  0  0  0  0  0  0  0  0  0  0  0
    8.9828  -12.4541   18.0231 C   0  0  0  0  0  0  0  0  0  0  0  0
   10.3426  -12.4851   18.2174 C   0  0  0  0  0  0  0  0  0  0  0  0
   10.8998  -13.2105   19.2505 C   0  0  0  0  0  0  0  0  0  0  0  0
   10.0723  -13.9146   20.1007 C   0  0  0  0  0  0  0  0  0  0  0  0
    8.7105  -13.9173   19.9536 C   0  0  0  0  0  0  0  0  0  0  0  0
    8.5280  -17.6778   22.5340 C   0  0  0  0  0  0  0  0  0  0  0  0
    7.6841  -17.9705   23.4181 O   0  0  0  0  0  0  0  0  0  0  0  0
    9.8228  -18.1840   22.6058 N   0  0  0  0  0  0  0  0  0  0  0  0
   10.7699  -18.3352   21.5237 C   0  0  0  0  0  0  0  0  0  0  0  0
   11.5565  -19.6079   21.9201 C   0  0  0  0  0  0  0  0  0  0  0  0
   11.7574  -19.3267   23.3915 C   0  0  0  0  0  0  0  0  0  0  0  0
   10.4590  -18.6747   23.8123 C   0  0  1  0  0  0  0  0  0  0  0  0
   10.6656  -17.6261   24.8294 C   0  0  0  0  0  0  0  0  0  0  0  0
   11.2777  -16.5706   24.4942 O   0  0  0  0  0  0  0  0  0  0  0  0
   10.2327  -17.6921   26.1776 N   0  0  0  0  0  0  0  0  0  0  0  0
   10.4732  -16.6446   27.1667 C   0  0  1  0  0  0  0  0  0  0  0  0
   10.2316  -15.2961   26.6189 C   0  0  0  0  0  0  0  0  0  0  0  0
    8.7949  -14.9886   26.5118 C   0  0  0  0  0  0  0  0  0  0  0  0
    7.7453  -15.9001   26.3178 C   0  0  0  0  0  0  0  0  0  0  0  0
    6.5756  -15.2611   26.2248 N   0  0  0  0  0  0  0  0  0  0  0  0
    6.8195  -13.9289   26.3542 C   0  0  0  0  0  0  0  0  0  0  0  0
    5.9489  -12.8531   26.3496 C   0  0  0  0  0  0  0  0  0  0  0  0
    6.4580  -11.5900   26.5265 C   0  0  0  0  0  0  0  0  0  0  0  0
    7.8182  -11.3812   26.7081 C   0  0  0  0  0  0  0  0  0  0  0  0
    8.6692  -12.4596   26.7095 C   0  0  0  0  0  0  0  0  0  0  0  0
    8.1724  -13.7432   26.5310 C   0  0  0  0  0  0  0  0  0  0  0  0
    9.8247  -16.9057   28.4292 C   0  0  0  0  0  0  0  0  0  0  0  0
    9.9993  -16.2100   29.6129 O   0  0  0  0  0  0  0  0  0  0  0  0
    8.9986  -17.8848   28.4890 O   0  0  0  0  0  0  0  0  0  0  0  0
  2  1  1  1
  2  3  1  0
  3  4  1  0
  4  5  2  0
  5  6  1  0
  7  8  2  0
  7  6  1  0
  9  8  1  0
 10  9  2  0
 11 10  1  0
 11 12  2  0
 12  4  1  0
 12  7  1  0
 13  2  1  0
 13 14  2  0
 15 13  1  0
 16 15  1  0
 17 18  1  0
 17 16  1  0
 18 19  1  0
 19 15  1  0
 19 20  1  1
 20 22  1  0
 21 20  2  0
 22 23  1  0
 23 34  1  0
 23 24  1  6
 24 25  1  0
 25 26  2  0
 26 27  1  0
 28 29  2  0
 28 27  1  0
 30 29  1  0
 31 30  2  0
 32 31  1  0
 32 33  2  0
 33 25  1  0
 33 28  1  0
 34 36  2  0
 34 35  1  0
M  END
$$$$
