WPW.pdb
     RDKit          3D

 36 40  0  0  1  0  0  0  0  0999 V2000
    6.5328  -17.8232   25.3216 N   0  0  0  0  0  0  0  0  0  0  0  0
    7.1065  -16.6492   24.6904 C   0  0  1  0  0  0  0  0  0  0  0  0
    7.7950  -15.8319   25.7541 C   0  0  0  0  0  0  0  0  0  0  0  0
    6.9281  -14.6759   26.0896 C   0  0  0  0  0  0  0  0  0  0  0  0
    5.6085  -14.7537   26.5574 C   0  0  0  0  0  0  0  0  0  0  0  0
    5.1662  -13.5102   26.7932 N   0  0  0  0  0  0  0  0  0  0  0  0
    6.1074  -12.5968   26.5119 C   0  0  0  0  0  0  0  0  0  0  0  0
    6.1227  -11.2112   26.5830 C   0  0  0  0  0  0  0  0  0  0  0  0
    7.2674  -10.5537   26.2017 C   0  0  0  0  0  0  0  0  0  0  0  0
    8.3751  -11.2471   25.7587 C   0  0  0  0  0  0  0  0  0  0  0  0
    8.3272  -12.6247   25.7004 C   0  0  0  0  0  0  0  0  0  0  0  0
    7.2128  -13.3302   26.0695 C   0  0  0  0  0  0  0  0  0  0  0  0
    7.9575  -17.0040   23.5466 C   0  0  0  0  0  0  0  0  0  0  0  0
    8.5842  -18.0919   23.6034 O   0  0  0  0  0  0  0  0  0  0  0  0
    8.0798  -16.1821   22.4296 N   0  0  0  0  0  0  0  0  0  0  0  0
    7.1445  -15.1811   21.9670 C   0  0  0  0  0  0  0  0  0  0  0  0
    7.3012  -15.2378   20.4283 C   0  0  0  0  0  0  0  0  0  0  0  0
    8.8077  -15.3162   20.3353 C   0  0  0  0  0  0  0  0  0  0  0  0
    9.1933  -16.1988   21.5017 C   0  0  1  0  0  0  0  0  0  0  0  0
   10.4693  -15.7852   22.1160 C   0  0  0  0  0  0  0  0  0  0  0  0
   10.6669  -14.5537   22.3290 O   0  0  0  0  0  0  0  0  0  0  0  0
   11.5185  -16.6584   22.4984 N   0  0  0  0  0  0  0  0  0  0  0  0
   12.7024  -16.2383   23.2436 C   0  0  1  0  0  0  0  0  0  0  0  0
   12.3654  -15.3345   24.3601 C   0  0  0  0  0  0  0  0  0  0  0  0
   11.5689  -16.0086   25.4000 C   0  0  0  0  0  0  0  0  0  0  0  0
   11.3594  -17.3888   25.5456 C   0  0  0  0  0  0  0  0  0  0  0  0
   10.5466  -17.6373   26.5766 N   0  0  0  0  0  0  0  0  0  0  0  0
   10.2037  -16.4433   27.1313 C   0  0  0  0  0  0  0  0  0  0  0  0
    9.4048  -16.1588   28.2250 C   0  0  0  0  0  0  0  0  0  0  0  0
    9.2367  -14.8478   28.5978 C   0  0  0  0  0  0  0  0  0  0  0  0
    9.8507  -13.8169   27.9002 C   0  0  0  0  0  0  0  0  0  0  0  0
   10.6401  -14.1159   26.8164 C   0  0  0  0  0  0  0  0  0  0  0  0
   10.8204  -15.4350   26.4247 C   0  0  0  0  0  0  0  0  0  0  0  0
   13.5607  -17.3419   23.6016 C   0  0  0  0  0  0  0  0  0  0  0  0
   13.2748  -18.6906   23.4799 O   0  0  0  0  0  0  0  0  0  0  0  0
   14.7140  -17.0711   24.0925 O   0  0  0  0  0  0  0  0  0  0  0  0
  2  1  1  1
  2  3  1  0
  3  4  1  0
  4  5  2  0
  5  6  1  0
  7  8  2  0
  7  6  1  0
  9  8  1  0
 10  9  2  0
 11 10  1  0
 11 12  2  0
 12  4  1  0
 12  7  1  0
 13  2  1  0
 13 14  2  0
 15 13  1  0
 16 15  1  0
 17 18  1  0
 17 16  1  0
 18 19  1  0
 19 15  1  0
 19 20  1  1
 20 22  1  0
 21 20  2  0
 22 23  1  0
 23 34  1  0
 23 24  1  1
 24 25  1  0
 25 26  2  0
 26 27  1  0
 28 29  2  0
 28 27  1  0
 30 29  1  0
 31 30  2  0
 32 31  1  0
 32 33  2  0
 33 25  1  0
 33 28  1  0
 34 36  2  0
 34 35  1  0
M  END
$$$$
