WPW.pdb
     RDKit          3D

 36 40  0  0  1  0  0  0  0  0999 V2000
    6.0008  -18.2368   24.1423 N   0  0  0  0  0  0  0  0  0  0  0  0
    6.6710  -16.9518   24.0693 C   0  0  1  0  0  0  0  0  0  0  0  0
    7.0928  -16.5611   25.4631 C   0  0  0  0  0  0  0  0  0  0  0  0
    6.3039  -15.3743   25.8748 C   0  0  0  0  0  0  0  0  0  0  0  0
    5.0217  -15.4029   26.4417 C   0  0  0  0  0  0  0  0  0  0  0  0
    4.6517  -14.1451   26.7222 N   0  0  0  0  0  0  0  0  0  0  0  0
    5.6067  -13.2683   26.3781 C   0  0  0  0  0  0  0  0  0  0  0  0
    5.6862  -11.8855   26.4606 C   0  0  0  0  0  0  0  0  0  0  0  0
    6.8253  -11.2715   25.9988 C   0  0  0  0  0  0  0  0  0  0  0  0
    7.8656  -12.0048   25.4658 C   0  0  0  0  0  0  0  0  0  0  0  0
    7.7551  -13.3783   25.3985 C   0  0  0  0  0  0  0  0  0  0  0  0
    6.6430  -14.0414   25.8455 C   0  0  0  0  0  0  0  0  0  0  0  0
    7.7583  -16.9575   23.0812 C   0  0  0  0  0  0  0  0  0  0  0  0
    8.4867  -17.9800   23.0239 O   0  0  0  0  0  0  0  0  0  0  0  0
    7.9915  -15.8821   22.2285 N   0  0  0  0  0  0  0  0  0  0  0  0
    7.1792  -14.6972   22.0640 C   0  0  0  0  0  0  0  0  0  0  0  0
    7.3608  -14.3516   20.5662 C   0  0  0  0  0  0  0  0  0  0  0  0
    8.8517  -14.5658   20.4415 C   0  0  0  0  0  0  0  0  0  0  0  0
    9.1157  -15.7681   21.3206 C   0  0  1  0  0  0  0  0  0  0  0  0
   10.4158  -15.6784   22.0122 C   0  0  0  0  0  0  0  0  0  0  0  0
   11.0126  -14.5630   22.0358 O   0  0  0  0  0  0  0  0  0  0  0  0
   11.0738  -16.7495   22.6676 N   0  0  0  0  0  0  0  0  0  0  0  0
   12.3457  -16.6193   23.3737 C   0  0  1  0  0  0  0  0  0  0  0  0
   12.3122  -15.5482   24.3878 C   0  0  0  0  0  0  0  0  0  0  0  0
   11.6505  -15.9801   25.6311 C   0  0  0  0  0  0  0  0  0  0  0  0
   10.9606  -17.1826   25.8504 C   0  0  0  0  0  0  0  0  0  0  0  0
   10.4516  -17.2169   27.0853 N   0  0  0  0  0  0  0  0  0  0  0  0
   10.7886  -16.0537   27.7052 C   0  0  0  0  0  0  0  0  0  0  0  0
   10.5221  -15.6117   28.9893 C   0  0  0  0  0  0  0  0  0  0  0  0
   11.0053  -14.3873   29.3806 C   0  0  0  0  0  0  0  0  0  0  0  0
   11.7491  -13.5970   28.5151 C   0  0  0  0  0  0  0  0  0  0  0  0
   12.0044  -14.0499   27.2435 C   0  0  0  0  0  0  0  0  0  0  0  0
   11.5230  -15.2843   26.8305 C   0  0  0  0  0  0  0  0  0  0  0  0
   12.8543  -17.8829   23.8506 C   0  0  0  0  0  0  0  0  0  0  0  0
   12.1837  -19.0934   23.8738 O   0  0  0  0  0  0  0  0  0  0  0  0
   14.0502  -17.9132   24.3128 O   0  0  0  0  0  0  0  0  0  0  0  0
  2  1  1  1
  2  3  1  0
  3  4  1  0
  4  5  2  0
  5  6  1  0
  7  8  2  0
  7  6  1  0
  9  8  1  0
 10  9  2  0
 11 10  1  0
 11 12  2  0
 12  4  1  0
 12  7  1  0
 13  2  1  0
 13 14  2  0
 15 13  1  0
 16 15  1  0
 17 18  1  0
 17 16  1  0
 18 19  1  0
 19 15  1  0
 19 20  1  1
 20 22  1  0
 21 20  2  0
 22 23  1  0
 23 34  1  0
 23 24  1  1
 24 25  1  0
 25 26  2  0
 26 27  1  0
 28 29  2  0
 28 27  1  0
 30 29  1  0
 31 30  2  0
 32 31  1  0
 32 33  2  0
 33 25  1  0
 33 28  1  0
 34 36  2  0
 34 35  1  0
M  END
$$$$
