WPW.pdb
     RDKit          3D

 36 40  0  0  1  0  0  0  0  0999 V2000
   10.2530  -16.7215   16.5261 N   0  0  0  0  0  0  0  0  0  0  0  0
   10.1431  -17.6635   17.6244 C   0  0  1  0  0  0  0  0  0  0  0  0
   11.4850  -18.3246   17.8136 C   0  0  0  0  0  0  0  0  0  0  0  0
   11.3483  -19.3692   18.8578 C   0  0  0  0  0  0  0  0  0  0  0  0
   10.7044  -20.6045   18.6975 C   0  0  0  0  0  0  0  0  0  0  0  0
   10.8227  -21.2978   19.8390 N   0  0  0  0  0  0  0  0  0  0  0  0
   11.5071  -20.6047   20.7612 C   0  0  0  0  0  0  0  0  0  0  0  0
   11.8725  -20.8883   22.0694 C   0  0  0  0  0  0  0  0  0  0  0  0
   12.5782  -19.9382   22.7673 C   0  0  0  0  0  0  0  0  0  0  0  0
   12.9170  -18.7322   22.1885 C   0  0  0  0  0  0  0  0  0  0  0  0
   12.5387  -18.4817   20.8856 C   0  0  0  0  0  0  0  0  0  0  0  0
   11.8357  -19.3938   20.1440 C   0  0  0  0  0  0  0  0  0  0  0  0
    9.5974  -17.0325   18.8337 C   0  0  0  0  0  0  0  0  0  0  0  0
   10.1623  -15.9905   19.2514 O   0  0  0  0  0  0  0  0  0  0  0  0
    8.4953  -17.5507   19.5081 N   0  0  0  0  0  0  0  0  0  0  0  0
    7.7156  -18.7162   19.1550 C   0  0  0  0  0  0  0  0  0  0  0  0
    6.2886  -18.3389   19.6206 C   0  0  0  0  0  0  0  0  0  0  0  0
    6.6194  -17.7274   20.9626 C   0  0  0  0  0  0  0  0  0  0  0  0
    7.9131  -16.9857   20.7093 C   0  0  1  0  0  0  0  0  0  0  0  0
    8.8193  -17.0317   21.8727 C   0  0  0  0  0  0  0  0  0  0  0  0
    9.8263  -17.7963   21.8250 O   0  0  0  0  0  0  0  0  0  0  0  0
    8.6635  -16.2826   23.0660 N   0  0  0  0  0  0  0  0  0  0  0  0
    9.5771  -16.3554   24.2033 C   0  0  1  0  0  0  0  0  0  0  0  0
    9.6803  -15.0685   24.9174 C   0  0  0  0  0  0  0  0  0  0  0  0
    8.3654  -14.5675   25.3535 C   0  0  0  0  0  0  0  0  0  0  0  0
    7.1563  -15.2794   25.3886 C   0  0  0  0  0  0  0  0  0  0  0  0
    6.1567  -14.4933   25.7988 N   0  0  0  0  0  0  0  0  0  0  0  0
    6.6736  -13.2587   26.0425 C   0  0  0  0  0  0  0  0  0  0  0  0
    6.0621  -12.1048   26.5007 C   0  0  0  0  0  0  0  0  0  0  0  0
    6.8279  -10.9804   26.6878 C   0  0  0  0  0  0  0  0  0  0  0  0
    8.1911  -10.9864   26.4268 C   0  0  0  0  0  0  0  0  0  0  0  0
    8.7829  -12.1397   25.9718 C   0  0  0  0  0  0  0  0  0  0  0  0
    8.0243  -13.2852   25.7759 C   0  0  0  0  0  0  0  0  0  0  0  0
    9.3263  -17.4954   25.0520 C   0  0  0  0  0  0  0  0  0  0  0  0
    8.2144  -18.3192   25.0303 O   0  0  0  0  0  0  0  0  0  0  0  0
   10.2093  -17.7945   25.9326 O   0  0  0  0  0  0  0  0  0  0  0  0
  2  1  1  6
  2  3  1  0
  3  4  1  0
  4  5  2  0
  5  6  1  0
  7  8  2  0
  7  6  1  0
  9  8  1  0
 10  9  2  0
 11 10  1  0
 11 12  2  0
 12  4  1  0
 12  7  1  0
 13  2  1  0
 13 14  2  0
 15 13  1  0
 16 15  1  0
 17 18  1  0
 17 16  1  0
 18 19  1  0
 19 15  1  0
 19 20  1  1
 20 22  1  0
 21 20  2  0
 22 23  1  0
 23 34  1  0
 23 24  1  1
 24 25  1  0
 25 26  2  0
 26 27  1  0
 28 29  2  0
 28 27  1  0
 30 29  1  0
 31 30  2  0
 32 31  1  0
 32 33  2  0
 33 25  1  0
 33 28  1  0
 34 36  2  0
 34 35  1  0
M  END
$$$$
