WPW.pdb
     RDKit          3D

 36 40  0  0  1  0  0  0  0  0999 V2000
    6.6448  -18.2585   24.7636 N   0  0  0  0  0  0  0  0  0  0  0  0
    6.4134  -17.3343   23.6691 C   0  0  1  0  0  0  0  0  0  0  0  0
    5.8472  -16.0593   24.2412 C   0  0  0  0  0  0  0  0  0  0  0  0
    6.7588  -15.5811   25.3093 C   0  0  0  0  0  0  0  0  0  0  0  0
    7.4561  -16.3958   26.2128 C   0  0  0  0  0  0  0  0  0  0  0  0
    8.2116  -15.6131   26.9966 N   0  0  0  0  0  0  0  0  0  0  0  0
    8.0658  -14.3185   26.6775 C   0  0  0  0  0  0  0  0  0  0  0  0
    8.6180  -13.1555   27.1951 C   0  0  0  0  0  0  0  0  0  0  0  0
    8.2445  -11.9557   26.6394 C   0  0  0  0  0  0  0  0  0  0  0  0
    7.3446  -11.9021   25.5947 C   0  0  0  0  0  0  0  0  0  0  0  0
    6.8143  -13.0769   25.1029 C   0  0  0  0  0  0  0  0  0  0  0  0
    7.1528  -14.2999   25.6185 C   0  0  0  0  0  0  0  0  0  0  0  0
    7.6150  -17.1524   22.8436 C   0  0  0  0  0  0  0  0  0  0  0  0
    8.5187  -18.0213   22.9325 O   0  0  0  0  0  0  0  0  0  0  0  0
    7.7687  -16.0665   21.9862 N   0  0  0  0  0  0  0  0  0  0  0  0
    6.8188  -15.0072   21.7287 C   0  0  0  0  0  0  0  0  0  0  0  0
    7.0741  -14.6596   20.2422 C   0  0  0  0  0  0  0  0  0  0  0  0
    8.5855  -14.6679   20.2419 C   0  0  0  0  0  0  0  0  0  0  0  0
    8.9378  -15.8106   21.1683 C   0  0  1  0  0  0  0  0  0  0  0  0
   10.1521  -15.5334   21.9589 C   0  0  0  0  0  0  0  0  0  0  0  0
   10.5978  -14.3495   21.9879 O   0  0  0  0  0  0  0  0  0  0  0  0
   10.8830  -16.4911   22.7059 N   0  0  0  0  0  0  0  0  0  0  0  0
   11.9504  -16.1557   23.6448 C   0  0  1  0  0  0  0  0  0  0  0  0
   11.5124  -15.1777   24.6589 C   0  0  0  0  0  0  0  0  0  0  0  0
   10.7652  -15.8131   25.7581 C   0  0  0  0  0  0  0  0  0  0  0  0
   10.4617  -17.1762   25.8997 C   0  0  0  0  0  0  0  0  0  0  0  0
    9.7311  -17.3860   26.9986 N   0  0  0  0  0  0  0  0  0  0  0  0
    9.5368  -16.1828   27.6032 C   0  0  0  0  0  0  0  0  0  0  0  0
    8.8680  -15.8640   28.7721 C   0  0  0  0  0  0  0  0  0  0  0  0
    8.8395  -14.5534   29.1810 C   0  0  0  0  0  0  0  0  0  0  0  0
    9.4656  -13.5563   28.4458 C   0  0  0  0  0  0  0  0  0  0  0  0
   10.1247  -13.8891   27.2874 C   0  0  0  0  0  0  0  0  0  0  0  0
   10.1629  -15.2084   26.8584 C   0  0  0  0  0  0  0  0  0  0  0  0
   12.6131  -17.3207   24.1800 C   0  0  0  0  0  0  0  0  0  0  0  0
   12.2365  -18.6418   24.0120 O   0  0  0  0  0  0  0  0  0  0  0  0
   13.6615  -17.1394   24.8960 O   0  0  0  0  0  0  0  0  0  0  0  0
  2  1  1  1
  2  3  1  0
  3  4  1  0
  4  5  2  0
  5  6  1  0
  7  8  2  0
  7  6  1  0
  9  8  1  0
 10  9  2  0
 11 10  1  0
 11 12  2  0
 12  4  1  0
 12  7  1  0
 13  2  1  0
 13 14  2  0
 15 13  1  0
 16 15  1  0
 17 18  1  0
 17 16  1  0
 18 19  1  0
 19 15  1  0
 19 20  1  1
 20 22  1  0
 21 20  2  0
 22 23  1  0
 23 34  1  0
 23 24  1  1
 24 25  1  0
 25 26  2  0
 26 27  1  0
 28 29  2  0
 28 27  1  0
 30 29  1  0
 31 30  2  0
 32 31  1  0
 32 33  2  0
 33 25  1  0
 33 28  1  0
 34 36  2  0
 34 35  1  0
M  END
$$$$
