WPW.pdb
     RDKit          3D

 36 40  0  0  1  0  0  0  0  0999 V2000
    9.3449  -17.7169   17.5716 N   0  0  0  0  0  0  0  0  0  0  0  0
    8.3599  -17.4911   18.6130 C   0  0  1  0  0  0  0  0  0  0  0  0
    7.9040  -18.8327   19.1285 C   0  0  0  0  0  0  0  0  0  0  0  0
    6.4398  -18.7722   19.3582 C   0  0  0  0  0  0  0  0  0  0  0  0
    5.4520  -18.9257   18.3748 C   0  0  0  0  0  0  0  0  0  0  0  0
    4.2497  -18.8547   18.9639 N   0  0  0  0  0  0  0  0  0  0  0  0
    4.3658  -18.6616   20.2861 C   0  0  0  0  0  0  0  0  0  0  0  0
    3.4297  -18.5170   21.3001 C   0  0  0  0  0  0  0  0  0  0  0  0
    3.8850  -18.3153   22.5807 C   0  0  0  0  0  0  0  0  0  0  0  0
    5.2355  -18.2566   22.8573 C   0  0  0  0  0  0  0  0  0  0  0  0
    6.1403  -18.4046   21.8263 C   0  0  0  0  0  0  0  0  0  0  0  0
    5.7413  -18.6092   20.5321 C   0  0  0  0  0  0  0  0  0  0  0  0
    8.8590  -16.5765   19.6489 C   0  0  0  0  0  0  0  0  0  0  0  0
   10.0940  -16.5801   19.8818 O   0  0  0  0  0  0  0  0  0  0  0  0
    8.0144  -15.7272   20.3582 N   0  0  0  0  0  0  0  0  0  0  0  0
    6.6194  -15.4521   20.0949 C   0  0  0  0  0  0  0  0  0  0  0  0
    6.4654  -13.9733   20.5250 C   0  0  0  0  0  0  0  0  0  0  0  0
    7.2503  -14.0077   21.8161 C   0  0  0  0  0  0  0  0  0  0  0  0
    8.4035  -14.9374   21.5097 C   0  0  1  0  0  0  0  0  0  0  0  0
    8.7842  -15.7569   22.6760 C   0  0  0  0  0  0  0  0  0  0  0  0
    8.6134  -17.0092   22.6169 O   0  0  0  0  0  0  0  0  0  0  0  0
    9.3358  -15.2610   23.8840 N   0  0  0  0  0  0  0  0  0  0  0  0
    9.7093  -16.1013   25.0189 C   0  0  1  0  0  0  0  0  0  0  0  0
    9.6319  -15.3731   26.2997 C   0  0  0  0  0  0  0  0  0  0  0  0
    8.2742  -14.8707   26.5725 C   0  0  0  0  0  0  0  0  0  0  0  0
    7.1386  -15.6297   26.8955 C   0  0  0  0  0  0  0  0  0  0  0  0
    6.0676  -14.8427   27.0331 N   0  0  0  0  0  0  0  0  0  0  0  0
    6.4635  -13.5607   26.8083 C   0  0  0  0  0  0  0  0  0  0  0  0
    5.7435  -12.3795   26.8486 C   0  0  0  0  0  0  0  0  0  0  0  0
    6.3980  -11.1977   26.6018 C   0  0  0  0  0  0  0  0  0  0  0  0
    7.7561  -11.1731   26.3163 C   0  0  0  0  0  0  0  0  0  0  0  0
    8.4564  -12.3543   26.2795 C   0  0  0  0  0  0  0  0  0  0  0  0
    7.8112  -13.5582   26.5253 C   0  0  0  0  0  0  0  0  0  0  0  0
    9.0413  -17.3806   25.0134 C   0  0  0  0  0  0  0  0  0  0  0  0
    7.8096  -17.6727   24.4538 O   0  0  0  0  0  0  0  0  0  0  0  0
    9.6275  -18.3667   25.5866 O   0  0  0  0  0  0  0  0  0  0  0  0
  2  1  1  6
  2  3  1  0
  3  4  1  0
  4  5  2  0
  5  6  1  0
  7  8  2  0
  7  6  1  0
  9  8  1  0
 10  9  2  0
 11 10  1  0
 11 12  2  0
 12  4  1  0
 12  7  1  0
 13  2  1  0
 13 14  2  0
 15 13  1  0
 16 15  1  0
 17 18  1  0
 17 16  1  0
 18 19  1  0
 19 15  1  0
 19 20  1  1
 20 22  1  0
 21 20  2  0
 22 23  1  0
 23 34  1  0
 23 24  1  1
 24 25  1  0
 25 26  2  0
 26 27  1  0
 28 29  2  0
 28 27  1  0
 30 29  1  0
 31 30  2  0
 32 31  1  0
 32 33  2  0
 33 25  1  0
 33 28  1  0
 34 36  2  0
 34 35  1  0
M  END
$$$$
