HDS.pdb
     RDKit          3D

 25 25  0  0  1  0  0  0  0  0999 V2000
    8.0355  -17.5156   19.3755 N   0  0  0  0  0  0  0  0  0  0  0  0
    8.9529  -16.6930   20.1004 C   0  0  1  0  0  0  0  0  0  0  0  0
    8.1932  -15.6938   20.9441 C   0  0  0  0  0  0  0  0  0  0  0  0
    8.0590  -14.4454   20.1334 C   0  0  0  0  0  0  0  0  0  0  0  0
    8.4609  -14.2085   18.8357 C   0  0  0  0  0  0  0  0  0  0  0  0
    8.1487  -12.9632   18.5042 N   0  0  0  0  0  0  0  0  0  0  0  0
    7.5512  -12.3691   19.5466 C   0  0  0  0  0  0  0  0  0  0  0  0
    7.4979  -13.2695   20.5330 N   0  0  0  0  0  0  0  0  0  0  0  0
    9.8888  -17.5061   20.9127 C   0  0  0  0  0  0  0  0  0  0  0  0
    9.4246  -18.5070   21.5152 O   0  0  0  0  0  0  0  0  0  0  0  0
   11.2612  -17.2195   21.0450 N   0  0  0  0  0  0  0  0  0  0  0  0
   12.1836  -17.9892   21.8326 C   0  0  1  0  0  0  0  0  0  0  0  0
   13.6062  -17.7248   21.4467 C   0  0  0  0  0  0  0  0  0  0  0  0
   14.5931  -18.5366   22.1931 C   0  0  0  0  0  0  0  0  0  0  0  0
   14.3511  -19.6521   22.7126 O   0  0  0  0  0  0  0  0  0  0  0  0
   12.0518  -17.7182   23.2876 C   0  0  0  0  0  0  0  0  0  0  0  0
   12.2607  -16.5387   23.6718 O   0  0  0  0  0  0  0  0  0  0  0  0
   15.8760  -18.0301   22.3287 O   0  0  0  0  0  0  0  0  0  0  0  0
    9.6586  -18.3943   27.2694 O   0  0  0  0  0  0  0  0  0  0  0  0
    9.9362  -18.6811   25.9351 C   0  0  0  0  0  0  0  0  0  0  0  0
   11.3895  -18.4023   25.6213 C   0  0  2  0  0  0  0  0  0  0  0  0
   11.7082  -18.7111   24.2409 N   0  0  0  0  0  0  0  0  0  0  0  0
   12.2185  -19.2407   26.5038 C   0  0  0  0  0  0  0  0  0  0  0  0
   12.2312  -19.0372   27.8644 O   0  0  0  0  0  0  0  0  0  0  0  0
   12.9189  -20.1487   26.0056 O   0  0  0  0  0  0  0  0  0  0  0  0
  2  1  1  1
  3  2  1  0
  4  3  1  0
  5  4  2  0
  6  7  1  0
  6  5  1  0
  7  8  2  0
  8  4  1  0
  9 10  2  0
  9  2  1  0
 11  9  1  0
 12 16  1  0
 12 11  1  0
 12 13  1  6
 14 13  1  0
 14 15  2  0
 16 22  1  0
 17 16  2  0
 18 14  1  0
 20 19  1  0
 21 20  1  6
 21 23  1  0
 22 21  1  0
 23 25  2  0
 23 24  1  0
M  END
$$$$
