HDS.pdb
     RDKit          3D

 25 25  0  0  1  0  0  0  0  0999 V2000
    8.6868  -16.8940   18.7062 N   0  0  0  0  0  0  0  0  0  0  0  0
    9.3477  -16.0776   19.6759 C   0  0  1  0  0  0  0  0  0  0  0  0
    8.3562  -15.1304   20.3140 C   0  0  0  0  0  0  0  0  0  0  0  0
    7.8553  -14.2255   19.2351 C   0  0  0  0  0  0  0  0  0  0  0  0
    8.1788  -12.9073   18.9914 C   0  0  0  0  0  0  0  0  0  0  0  0
    7.5045  -12.4828   17.9315 N   0  0  0  0  0  0  0  0  0  0  0  0
    6.7436  -13.4837   17.4669 C   0  0  0  0  0  0  0  0  0  0  0  0
    6.9579  -14.5390   18.2587 N   0  0  0  0  0  0  0  0  0  0  0  0
   10.0586  -16.8981   20.6850 C   0  0  0  0  0  0  0  0  0  0  0  0
    9.3641  -17.5741   21.4857 O   0  0  0  0  0  0  0  0  0  0  0  0
   11.4612  -16.9608   20.7944 N   0  0  0  0  0  0  0  0  0  0  0  0
   12.1692  -17.7110   21.7940 C   0  0  1  0  0  0  0  0  0  0  0  0
   13.6244  -17.8460   21.4671 C   0  0  0  0  0  0  0  0  0  0  0  0
   14.3959  -18.6213   22.4641 C   0  0  0  0  0  0  0  0  0  0  0  0
   14.0381  -19.7248   22.9406 O   0  0  0  0  0  0  0  0  0  0  0  0
   12.0639  -17.0992   23.1440 C   0  0  0  0  0  0  0  0  0  0  0  0
   12.7409  -16.0604   23.3565 O   0  0  0  0  0  0  0  0  0  0  0  0
   15.5991  -18.0921   22.9036 O   0  0  0  0  0  0  0  0  0  0  0  0
    8.8061  -17.5448   25.4962 O   0  0  0  0  0  0  0  0  0  0  0  0
    9.7222  -16.5276   25.7528 C   0  0  0  0  0  0  0  0  0  0  0  0
   11.1335  -17.0015   25.4844 C   0  0  2  0  0  0  0  0  0  0  0  0
   11.2503  -17.6250   24.1806 N   0  0  0  0  0  0  0  0  0  0  0  0
   11.4919  -17.9854   26.5200 C   0  0  0  0  0  0  0  0  0  0  0  0
   11.8477  -19.2703   26.1809 O   0  0  0  0  0  0  0  0  0  0  0  0
   11.4713  -17.6442   27.7227 O   0  0  0  0  0  0  0  0  0  0  0  0
  2  1  1  6
  3  2  1  0
  4  3  1  0
  5  4  2  0
  6  7  1  0
  6  5  1  0
  7  8  2  0
  8  4  1  0
  9 10  2  0
  9  2  1  0
 11  9  1  0
 12 16  1  0
 12 11  1  0
 12 13  1  6
 14 13  1  0
 14 15  2  0
 16 22  1  0
 17 16  2  0
 18 14  1  0
 20 19  1  0
 21 20  1  1
 21 23  1  0
 22 21  1  0
 23 25  2  0
 23 24  1  0
M  END
$$$$
