HDS.pdb
     RDKit          3D

 25 25  0  0  1  0  0  0  0  0999 V2000
    9.1557  -16.6644   18.6095 N   0  0  0  0  0  0  0  0  0  0  0  0
   10.0828  -16.1573   19.5723 C   0  0  1  0  0  0  0  0  0  0  0  0
    9.3657  -15.2583   20.5545 C   0  0  0  0  0  0  0  0  0  0  0  0
    8.7645  -14.1385   19.7681 C   0  0  0  0  0  0  0  0  0  0  0  0
    9.3340  -12.9393   19.3950 C   0  0  0  0  0  0  0  0  0  0  0  0
    8.4492  -12.2340   18.7039 N   0  0  0  0  0  0  0  0  0  0  0  0
    7.3095  -12.9332   18.6091 C   0  0  0  0  0  0  0  0  0  0  0  0
    7.5031  -14.0873   19.2549 N   0  0  0  0  0  0  0  0  0  0  0  0
   10.8130  -17.2521   20.2544 C   0  0  0  0  0  0  0  0  0  0  0  0
   10.1417  -18.2200   20.6934 O   0  0  0  0  0  0  0  0  0  0  0  0
   12.2095  -17.2662   20.4359 N   0  0  0  0  0  0  0  0  0  0  0  0
   12.9385  -18.3244   21.0778 C   0  0  1  0  0  0  0  0  0  0  0  0
   14.4027  -18.2635   20.7692 C   0  0  0  0  0  0  0  0  0  0  0  0
   15.1681  -19.4359   21.2484 C   0  0  0  0  0  0  0  0  0  0  0  0
   14.6658  -20.5530   21.5181 O   0  0  0  0  0  0  0  0  0  0  0  0
   12.7866  -18.3035   22.5558 C   0  0  0  0  0  0  0  0  0  0  0  0
   13.1372  -17.2531   23.1528 O   0  0  0  0  0  0  0  0  0  0  0  0
   16.5368  -19.2913   21.4113 O   0  0  0  0  0  0  0  0  0  0  0  0
   10.1788  -20.7279   24.4284 O   0  0  0  0  0  0  0  0  0  0  0  0
   10.6788  -19.6466   25.1498 C   0  0  0  0  0  0  0  0  0  0  0  0
   12.1059  -19.3503   24.7452 C   0  0  2  0  0  0  0  0  0  0  0  0
   12.2745  -19.3935   23.3057 N   0  0  0  0  0  0  0  0  0  0  0  0
   12.9776  -20.3655   25.3605 C   0  0  0  0  0  0  0  0  0  0  0  0
   13.0474  -20.5019   26.7277 O   0  0  0  0  0  0  0  0  0  0  0  0
   13.6618  -21.1116   24.6267 O   0  0  0  0  0  0  0  0  0  0  0  0
  2  1  1  6
  3  2  1  0
  4  3  1  0
  5  4  2  0
  6  7  1  0
  6  5  1  0
  7  8  2  0
  8  4  1  0
  9 10  2  0
  9  2  1  0
 11  9  1  0
 12 16  1  0
 12 11  1  0
 12 13  1  1
 14 13  1  0
 14 15  2  0
 16 22  1  0
 17 16  2  0
 18 14  1  0
 20 19  1  0
 21 20  1  6
 21 23  1  0
 22 21  1  0
 23 25  2  0
 23 24  1  0
M  END
$$$$
