HDS.pdb
     RDKit          3D

 25 25  0  0  1  0  0  0  0  0999 V2000
   10.1211  -16.1075   17.2125 N   0  0  0  0  0  0  0  0  0  0  0  0
   10.7532  -15.0630   17.9562 C   0  0  1  0  0  0  0  0  0  0  0  0
    9.8210  -14.5633   19.0373 C   0  0  0  0  0  0  0  0  0  0  0  0
    8.6473  -13.9407   18.3529 C   0  0  0  0  0  0  0  0  0  0  0  0
    8.4339  -13.7475   17.0043 C   0  0  0  0  0  0  0  0  0  0  0  0
    7.2592  -13.1577   16.8299 N   0  0  0  0  0  0  0  0  0  0  0  0
    6.6891  -12.9550   18.0260 C   0  0  0  0  0  0  0  0  0  0  0  0
    7.5324  -13.4304   18.9476 N   0  0  0  0  0  0  0  0  0  0  0  0
   12.0577  -15.5000   18.5078 C   0  0  0  0  0  0  0  0  0  0  0  0
   12.1718  -16.7007   18.8622 O   0  0  0  0  0  0  0  0  0  0  0  0
   13.1691  -14.6479   18.6554 N   0  0  0  0  0  0  0  0  0  0  0  0
   14.3798  -14.9974   19.3448 C   0  0  1  0  0  0  0  0  0  0  0  0
   15.5275  -14.1251   18.9391 C   0  0  0  0  0  0  0  0  0  0  0  0
   16.0436  -14.4028   17.5802 C   0  0  0  0  0  0  0  0  0  0  0  0
   16.4832  -15.5135   17.1981 O   0  0  0  0  0  0  0  0  0  0  0  0
   14.2402  -14.9033   20.8212 C   0  0  0  0  0  0  0  0  0  0  0  0
   13.4698  -14.0148   21.2682 O   0  0  0  0  0  0  0  0  0  0  0  0
   16.0418  -13.3633   16.6635 O   0  0  0  0  0  0  0  0  0  0  0  0
   12.6129  -17.1679   24.2023 O   0  0  0  0  0  0  0  0  0  0  0  0
   13.0443  -16.7539   22.9445 C   0  0  0  0  0  0  0  0  0  0  0  0
   14.4013  -16.0922   23.0378 C   0  0  2  0  0  0  0  0  0  0  0  0
   14.9235  -15.7538   21.7281 N   0  0  0  0  0  0  0  0  0  0  0  0
   15.3260  -17.0319   23.6942 C   0  0  0  0  0  0  0  0  0  0  0  0
   15.4382  -17.0714   25.0649 O   0  0  0  0  0  0  0  0  0  0  0  0
   16.0165  -17.8027   22.9927 O   0  0  0  0  0  0  0  0  0  0  0  0
  2  1  1  1
  3  2  1  0
  4  3  1  0
  5  4  2  0
  6  7  1  0
  6  5  1  0
  7  8  2  0
  8  4  1  0
  9 10  2  0
  9  2  1  0
 11  9  1  0
 12 16  1  0
 12 11  1  0
 12 13  1  6
 14 13  1  0
 14 15  2  0
 16 22  1  0
 17 16  2  0
 18 14  1  0
 20 19  1  0
 21 20  1  6
 21 23  1  0
 22 21  1  0
 23 25  2  0
 23 24  1  0
M  END
$$$$
