HDS.pdb
     RDKit          3D

 25 25  0  0  1  0  0  0  0  0999 V2000
   10.7751  -14.9436   17.6614 N   0  0  0  0  0  0  0  0  0  0  0  0
    9.6398  -15.3808   18.4122 C   0  0  1  0  0  0  0  0  0  0  0  0
    8.6700  -16.1049   17.5054 C   0  0  0  0  0  0  0  0  0  0  0  0
    8.3016  -15.1579   16.4094 C   0  0  0  0  0  0  0  0  0  0  0  0
    8.8140  -13.9068   16.1378 C   0  0  0  0  0  0  0  0  0  0  0  0
    8.2036  -13.4090   15.0711 N   0  0  0  0  0  0  0  0  0  0  0  0
    7.3013  -14.2961   14.6291 C   0  0  0  0  0  0  0  0  0  0  0  0
    7.3624  -15.3554   15.4419 N   0  0  0  0  0  0  0  0  0  0  0  0
   10.0412  -16.2127   19.5714 C   0  0  0  0  0  0  0  0  0  0  0  0
    9.1299  -16.7455   20.2541 O   0  0  0  0  0  0  0  0  0  0  0  0
   11.3799  -16.4370   19.9467 N   0  0  0  0  0  0  0  0  0  0  0  0
   11.7903  -17.2332   21.0696 C   0  0  1  0  0  0  0  0  0  0  0  0
   13.2200  -17.6650   20.9576 C   0  0  0  0  0  0  0  0  0  0  0  0
   13.4754  -18.6214   19.8576 C   0  0  0  0  0  0  0  0  0  0  0  0
   12.8445  -19.6911   19.6825 O   0  0  0  0  0  0  0  0  0  0  0  0
   11.6345  -16.5160   22.3616 C   0  0  0  0  0  0  0  0  0  0  0  0
   12.2888  -15.4517   22.5085 O   0  0  0  0  0  0  0  0  0  0  0  0
   14.4826  -18.3153   18.9561 O   0  0  0  0  0  0  0  0  0  0  0  0
    8.2488  -15.9452   24.9800 O   0  0  0  0  0  0  0  0  0  0  0  0
    9.4042  -15.3005   24.5449 C   0  0  0  0  0  0  0  0  0  0  0  0
   10.5981  -16.2244   24.6406 C   0  0  2  0  0  0  0  0  0  0  0  0
   10.7977  -16.9704   23.4134 N   0  0  0  0  0  0  0  0  0  0  0  0
   10.3586  -17.1710   25.7432 C   0  0  0  0  0  0  0  0  0  0  0  0
   10.3114  -16.7381   27.0483 O   0  0  0  0  0  0  0  0  0  0  0  0
   10.1966  -18.3836   25.4855 O   0  0  0  0  0  0  0  0  0  0  0  0
  2  1  1  6
  3  2  1  0
  4  3  1  0
  5  4  2  0
  6  7  1  0
  6  5  1  0
  7  8  2  0
  8  4  1  0
  9 10  2  0
  9  2  1  0
 11  9  1  0
 12 16  1  0
 12 11  1  0
 12 13  1  6
 14 13  1  0
 14 15  2  0
 16 22  1  0
 17 16  2  0
 18 14  1  0
 20 19  1  0
 21 20  1  6
 21 23  1  0
 22 21  1  0
 23 25  2  0
 23 24  1  0
M  END
$$$$
