HDS.pdb
     RDKit          3D

 25 25  0  0  1  0  0  0  0  0999 V2000
    8.7113  -16.8843   19.2944 N   0  0  0  0  0  0  0  0  0  0  0  0
    9.4313  -16.1138   20.2596 C   0  0  1  0  0  0  0  0  0  0  0  0
    8.5259  -15.0602   20.8573 C   0  0  0  0  0  0  0  0  0  0  0  0
    8.0844  -14.1732   19.7383 C   0  0  0  0  0  0  0  0  0  0  0  0
    8.4908  -12.8899   19.4389 C   0  0  0  0  0  0  0  0  0  0  0  0
    7.8460  -12.4703   18.3590 N   0  0  0  0  0  0  0  0  0  0  0  0
    7.0239  -13.4404   17.9352 C   0  0  0  0  0  0  0  0  0  0  0  0
    7.1701  -14.4717   18.7728 N   0  0  0  0  0  0  0  0  0  0  0  0
   10.0404  -16.9760   21.3000 C   0  0  0  0  0  0  0  0  0  0  0  0
    9.2914  -17.7867   21.9018 O   0  0  0  0  0  0  0  0  0  0  0  0
   11.4043  -16.9362   21.6484 N   0  0  0  0  0  0  0  0  0  0  0  0
   12.0115  -17.7507   22.6639 C   0  0  1  0  0  0  0  0  0  0  0  0
   13.5027  -17.7918   22.5320 C   0  0  0  0  0  0  0  0  0  0  0  0
   13.9782  -18.3707   21.2557 C   0  0  0  0  0  0  0  0  0  0  0  0
   14.6670  -17.7557   20.4071 O   0  0  0  0  0  0  0  0  0  0  0  0
   11.6918  -17.2795   24.0364 C   0  0  0  0  0  0  0  0  0  0  0  0
   12.2983  -16.2565   24.4466 O   0  0  0  0  0  0  0  0  0  0  0  0
   13.6395  -19.6854   20.9767 O   0  0  0  0  0  0  0  0  0  0  0  0
    8.2581  -17.2970   25.5660 O   0  0  0  0  0  0  0  0  0  0  0  0
    9.0741  -17.6209   26.6471 C   0  0  0  0  0  0  0  0  0  0  0  0
   10.5335  -17.5211   26.2619 C   0  0  2  0  0  0  0  0  0  0  0  0
   10.7525  -17.9199   24.8852 N   0  0  0  0  0  0  0  0  0  0  0  0
   11.3036  -18.4112   27.1471 C   0  0  0  0  0  0  0  0  0  0  0  0
   12.0289  -19.4621   26.6348 O   0  0  0  0  0  0  0  0  0  0  0  0
   11.2956  -18.2056   28.3803 O   0  0  0  0  0  0  0  0  0  0  0  0
  2  1  1  6
  3  2  1  0
  4  3  1  0
  5  4  2  0
  6  7  1  0
  6  5  1  0
  7  8  2  0
  8  4  1  0
  9 10  2  0
  9  2  1  0
 11  9  1  0
 12 16  1  0
 12 11  1  0
 12 13  1  6
 14 13  1  0
 14 15  2  0
 16 22  1  0
 17 16  2  0
 18 14  1  0
 20 19  1  0
 21 20  1  1
 21 23  1  0
 22 21  1  0
 23 25  2  0
 23 24  1  0
M  END
$$$$
