HDS.pdb
     RDKit          3D

 25 25  0  0  1  0  0  0  0  0999 V2000
    8.9565  -17.0879   18.9782 N   0  0  0  0  0  0  0  0  0  0  0  0
    9.4784  -16.2542   20.0156 C   0  0  1  0  0  0  0  0  0  0  0  0
    8.3848  -15.3618   20.5587 C   0  0  0  0  0  0  0  0  0  0  0  0
    7.9921  -14.4284   19.4595 C   0  0  0  0  0  0  0  0  0  0  0  0
    8.4638  -14.3682   18.1651 C   0  0  0  0  0  0  0  0  0  0  0  0
    7.8442  -13.3883   17.5215 N   0  0  0  0  0  0  0  0  0  0  0  0
    6.9753  -12.7982   18.3542 C   0  0  0  0  0  0  0  0  0  0  0  0
    7.0667  -13.4303   19.5284 N   0  0  0  0  0  0  0  0  0  0  0  0
   10.1230  -17.0537   21.0843 C   0  0  0  0  0  0  0  0  0  0  0  0
    9.3929  -17.8145   21.7686 O   0  0  0  0  0  0  0  0  0  0  0  0
   11.5007  -17.0072   21.3724 N   0  0  0  0  0  0  0  0  0  0  0  0
   12.1421  -17.7572   22.4162 C   0  0  1  0  0  0  0  0  0  0  0  0
   13.6034  -17.9495   22.1512 C   0  0  0  0  0  0  0  0  0  0  0  0
   13.8956  -18.7401   20.9347 C   0  0  0  0  0  0  0  0  0  0  0  0
   14.7033  -18.3969   20.0388 O   0  0  0  0  0  0  0  0  0  0  0  0
   12.0051  -17.1102   23.7469 C   0  0  0  0  0  0  0  0  0  0  0  0
   12.5709  -15.9976   23.9037 O   0  0  0  0  0  0  0  0  0  0  0  0
   13.2306  -19.9452   20.7723 O   0  0  0  0  0  0  0  0  0  0  0  0
    8.7913  -17.5193   25.9483 O   0  0  0  0  0  0  0  0  0  0  0  0
    9.7069  -16.5366   26.3166 C   0  0  0  0  0  0  0  0  0  0  0  0
   11.1238  -17.0229   26.1066 C   0  0  2  0  0  0  0  0  0  0  0  0
   11.2796  -17.6811   24.8241 N   0  0  0  0  0  0  0  0  0  0  0  0
   11.4440  -17.9804   27.1788 C   0  0  0  0  0  0  0  0  0  0  0  0
   11.4476  -17.5890   28.4977 O   0  0  0  0  0  0  0  0  0  0  0  0
   11.7157  -19.1642   26.8821 O   0  0  0  0  0  0  0  0  0  0  0  0
  2  1  1  6
  3  2  1  0
  4  3  1  0
  5  4  2  0
  6  7  1  0
  6  5  1  0
  7  8  2  0
  8  4  1  0
  9 10  2  0
  9  2  1  0
 11  9  1  0
 12 16  1  0
 12 11  1  0
 12 13  1  6
 14 13  1  0
 14 15  2  0
 16 22  1  0
 17 16  2  0
 18 14  1  0
 20 19  1  0
 21 20  1  1
 21 23  1  0
 22 21  1  0
 23 25  2  0
 23 24  1  0
M  END
$$$$
