HDS.pdb
     RDKit          3D

 25 25  0  0  1  0  0  0  0  0999 V2000
   11.8638  -14.8193   18.5809 N   0  0  0  0  0  0  0  0  0  0  0  0
   10.9408  -15.0606   19.6455 C   0  0  1  0  0  0  0  0  0  0  0  0
    9.5671  -15.3475   19.0816 C   0  0  0  0  0  0  0  0  0  0  0  0
    8.8483  -14.0405   18.9878 C   0  0  0  0  0  0  0  0  0  0  0  0
    9.3023  -12.7780   19.3067 C   0  0  0  0  0  0  0  0  0  0  0  0
    8.3390  -11.8974   19.0727 N   0  0  0  0  0  0  0  0  0  0  0  0
    7.2598  -12.5421   18.6077 C   0  0  0  0  0  0  0  0  0  0  0  0
    7.5708  -13.8410   18.5571 N   0  0  0  0  0  0  0  0  0  0  0  0
   11.4110  -16.1463   20.5383 C   0  0  0  0  0  0  0  0  0  0  0  0
   10.5433  -16.8756   21.0818 O   0  0  0  0  0  0  0  0  0  0  0  0
   12.7690  -16.4032   20.8086 N   0  0  0  0  0  0  0  0  0  0  0  0
   13.2438  -17.3912   21.7370 C   0  0  1  0  0  0  0  0  0  0  0  0
   14.7259  -17.5835   21.6414 C   0  0  0  0  0  0  0  0  0  0  0  0
   15.1542  -18.3908   20.4773 C   0  0  0  0  0  0  0  0  0  0  0  0
   14.4968  -19.3400   19.9878 O   0  0  0  0  0  0  0  0  0  0  0  0
   12.9225  -17.0471   23.1463 C   0  0  0  0  0  0  0  0  0  0  0  0
   13.5102  -16.0509   23.6410 O   0  0  0  0  0  0  0  0  0  0  0  0
   16.3673  -18.0773   19.8850 O   0  0  0  0  0  0  0  0  0  0  0  0
    9.5876  -16.5636   24.4162 O   0  0  0  0  0  0  0  0  0  0  0  0
   10.1514  -17.2790   25.4698 C   0  0  0  0  0  0  0  0  0  0  0  0
   11.6493  -17.3949   25.2937 C   0  0  2  0  0  0  0  0  0  0  0  0
   12.0014  -17.7780   23.9403 N   0  0  0  0  0  0  0  0  0  0  0  0
   12.1429  -18.4224   26.2263 C   0  0  0  0  0  0  0  0  0  0  0  0
   12.0229  -18.2577   27.5869 O   0  0  0  0  0  0  0  0  0  0  0  0
   12.6775  -19.4569   25.7712 O   0  0  0  0  0  0  0  0  0  0  0  0
  2  1  1  6
  3  2  1  0
  4  3  1  0
  5  4  2  0
  6  7  1  0
  6  5  1  0
  7  8  2  0
  8  4  1  0
  9 10  2  0
  9  2  1  0
 11  9  1  0
 12 16  1  0
 12 11  1  0
 12 13  1  1
 14 13  1  0
 14 15  2  0
 16 22  1  0
 17 16  2  0
 18 14  1  0
 20 19  1  0
 21 20  1  6
 21 23  1  0
 22 21  1  0
 23 25  2  0
 23 24  1  0
M  END
$$$$
