HDS.pdb
     RDKit          3D

 25 25  0  0  1  0  0  0  0  0999 V2000
   13.7271  -16.7723   13.0331 N   0  0  0  0  0  0  0  0  0  0  0  0
   14.4026  -16.6333   14.2853 C   0  0  1  0  0  0  0  0  0  0  0  0
   14.1895  -15.2402   14.8340 C   0  0  0  0  0  0  0  0  0  0  0  0
   14.9346  -14.2983   13.9443 C   0  0  0  0  0  0  0  0  0  0  0  0
   16.2934  -14.2018   13.7301 C   0  0  0  0  0  0  0  0  0  0  0  0
   16.5288  -13.2279   12.8616 N   0  0  0  0  0  0  0  0  0  0  0  0
   15.3631  -12.6770   12.4949 C   0  0  0  0  0  0  0  0  0  0  0  0
   14.3982  -13.3274   13.1525 N   0  0  0  0  0  0  0  0  0  0  0  0
   13.9835  -17.6785   15.2491 C   0  0  0  0  0  0  0  0  0  0  0  0
   12.7514  -17.8786   15.3979 O   0  0  0  0  0  0  0  0  0  0  0  0
   14.8856  -18.4546   16.0022 N   0  0  0  0  0  0  0  0  0  0  0  0
   14.5034  -19.5092   16.8996 C   0  0  1  0  0  0  0  0  0  0  0  0
   15.3085  -20.7524   16.6783 C   0  0  0  0  0  0  0  0  0  0  0  0
   15.0827  -21.3893   15.3617 C   0  0  0  0  0  0  0  0  0  0  0  0
   13.9942  -21.8882   14.9887 O   0  0  0  0  0  0  0  0  0  0  0  0
   14.6518  -19.1223   18.3265 C   0  0  0  0  0  0  0  0  0  0  0  0
   15.6272  -18.3846   18.6216 O   0  0  0  0  0  0  0  0  0  0  0  0
   16.1483  -21.4391   14.4769 O   0  0  0  0  0  0  0  0  0  0  0  0
   12.1177  -20.6464   21.2320 O   0  0  0  0  0  0  0  0  0  0  0  0
   12.6402  -19.3888   21.5236 C   0  0  0  0  0  0  0  0  0  0  0  0
   13.9068  -19.1420   20.7343 C   0  0  2  0  0  0  0  0  0  0  0  0
   13.7601  -19.5402   19.3478 N   0  0  0  0  0  0  0  0  0  0  0  0
   14.9901  -19.9296   21.3470 C   0  0  0  0  0  0  0  0  0  0  0  0
   15.4446  -19.6407   22.6131 O   0  0  0  0  0  0  0  0  0  0  0  0
   15.5009  -20.8726   20.7045 O   0  0  0  0  0  0  0  0  0  0  0  0
  2  1  1  6
  3  2  1  0
  4  3  1  0
  5  4  2  0
  6  7  1  0
  6  5  1  0
  7  8  2  0
  8  4  1  0
  9 10  2  0
  9  2  1  0
 11  9  1  0
 12 16  1  0
 12 11  1  0
 12 13  1  6
 14 13  1  0
 14 15  2  0
 16 22  1  0
 17 16  2  0
 18 14  1  0
 20 19  1  0
 21 20  1  1
 21 23  1  0
 22 21  1  0
 23 25  2  0
 23 24  1  0
M  END
$$$$
