HDS.pdb
     RDKit          3D

 25 25  0  0  1  0  0  0  0  0999 V2000
    9.9623  -15.7410   19.0575 N   0  0  0  0  0  0  0  0  0  0  0  0
    9.3419  -15.5427   20.3300 C   0  0  1  0  0  0  0  0  0  0  0  0
    7.8434  -15.4280   20.1605 C   0  0  0  0  0  0  0  0  0  0  0  0
    7.5971  -14.3871   19.1167 C   0  0  0  0  0  0  0  0  0  0  0  0
    7.9035  -13.0428   19.1455 C   0  0  0  0  0  0  0  0  0  0  0  0
    7.5106  -12.4828   18.0097 N   0  0  0  0  0  0  0  0  0  0  0  0
    6.9525  -13.4192   17.2297 C   0  0  0  0  0  0  0  0  0  0  0  0
    7.0061  -14.5727   17.9029 N   0  0  0  0  0  0  0  0  0  0  0  0
    9.7109  -16.6116   21.2883 C   0  0  0  0  0  0  0  0  0  0  0  0
    8.9469  -16.8115   22.2664 O   0  0  0  0  0  0  0  0  0  0  0  0
   10.8640  -17.4102   21.1627 N   0  0  0  0  0  0  0  0  0  0  0  0
   11.1979  -18.5041   22.0318 C   0  0  1  0  0  0  0  0  0  0  0  0
   12.3120  -19.3387   21.4794 C   0  0  0  0  0  0  0  0  0  0  0  0
   11.9886  -20.0011   20.1961 C   0  0  0  0  0  0  0  0  0  0  0  0
   10.9819  -20.7230   20.0007 O   0  0  0  0  0  0  0  0  0  0  0  0
   11.6027  -18.0494   23.3873 C   0  0  0  0  0  0  0  0  0  0  0  0
   12.5436  -17.2172   23.4550 O   0  0  0  0  0  0  0  0  0  0  0  0
   12.8585  -19.8114   19.1340 O   0  0  0  0  0  0  0  0  0  0  0  0
    9.1072  -18.0143   26.5210 O   0  0  0  0  0  0  0  0  0  0  0  0
   10.3178  -17.3345   26.6302 C   0  0  0  0  0  0  0  0  0  0  0  0
   11.4143  -18.0785   25.9005 C   0  0  2  0  0  0  0  0  0  0  0  0
   10.9870  -18.5039   24.5819 N   0  0  0  0  0  0  0  0  0  0  0  0
   11.7704  -19.2662   26.6953 C   0  0  0  0  0  0  0  0  0  0  0  0
   12.3422  -19.1379   27.9400 O   0  0  0  0  0  0  0  0  0  0  0  0
   11.5485  -20.4047   26.2287 O   0  0  0  0  0  0  0  0  0  0  0  0
  2  1  1  6
  3  2  1  0
  4  3  1  0
  5  4  2  0
  6  7  1  0
  6  5  1  0
  7  8  2  0
  8  4  1  0
  9 10  2  0
  9  2  1  0
 11  9  1  0
 12 16  1  0
 12 11  1  0
 12 13  1  6
 14 13  1  0
 14 15  2  0
 16 22  1  0
 17 16  2  0
 18 14  1  0
 20 19  1  0
 21 20  1  1
 21 23  1  0
 22 21  1  0
 23 25  2  0
 23 24  1  0
M  END
$$$$
