HDS.pdb
     RDKit          3D

 25 25  0  0  1  0  0  0  0  0999 V2000
   10.3774  -16.1324   16.6444 N   0  0  0  0  0  0  0  0  0  0  0  0
   10.6020  -15.1361   17.6448 C   0  0  1  0  0  0  0  0  0  0  0  0
    9.2878  -14.7347   18.2766 C   0  0  0  0  0  0  0  0  0  0  0  0
    8.4374  -14.1553   17.1927 C   0  0  0  0  0  0  0  0  0  0  0  0
    8.3010  -12.8373   16.8106 C   0  0  0  0  0  0  0  0  0  0  0  0
    7.4422  -12.7633   15.8030 N   0  0  0  0  0  0  0  0  0  0  0  0
    7.0064  -13.9960   15.5076 C   0  0  0  0  0  0  0  0  0  0  0  0
    7.6110  -14.8381   16.3512 N   0  0  0  0  0  0  0  0  0  0  0  0
   11.5865  -15.5911   18.6551 C   0  0  0  0  0  0  0  0  0  0  0  0
   11.3449  -16.6614   19.2685 O   0  0  0  0  0  0  0  0  0  0  0  0
   12.7704  -14.8933   18.9628 N   0  0  0  0  0  0  0  0  0  0  0  0
   13.7553  -15.3350   19.9105 C   0  0  1  0  0  0  0  0  0  0  0  0
   15.0331  -14.5630   19.7916 C   0  0  0  0  0  0  0  0  0  0  0  0
   15.7180  -14.7295   18.4904 C   0  0  0  0  0  0  0  0  0  0  0  0
   15.9151  -13.8056   17.6655 O   0  0  0  0  0  0  0  0  0  0  0  0
   13.2849  -15.2172   21.3151 C   0  0  0  0  0  0  0  0  0  0  0  0
   13.3241  -14.0739   21.8384 O   0  0  0  0  0  0  0  0  0  0  0  0
   16.1746  -15.9951   18.1579 O   0  0  0  0  0  0  0  0  0  0  0  0
   10.5021  -17.5950   22.8102 O   0  0  0  0  0  0  0  0  0  0  0  0
   10.8408  -16.4558   23.5362 C   0  0  0  0  0  0  0  0  0  0  0  0
   12.3252  -16.1823   23.4365 C   0  0  2  0  0  0  0  0  0  0  0  0
   12.8040  -16.3150   22.0744 N   0  0  0  0  0  0  0  0  0  0  0  0
   13.0294  -17.1552   24.2890 C   0  0  0  0  0  0  0  0  0  0  0  0
   12.8401  -17.1678   25.6516 O   0  0  0  0  0  0  0  0  0  0  0  0
   13.8089  -17.9792   23.7631 O   0  0  0  0  0  0  0  0  0  0  0  0
  2  1  1  6
  3  2  1  0
  4  3  1  0
  5  4  2  0
  6  7  1  0
  6  5  1  0
  7  8  2  0
  8  4  1  0
  9 10  2  0
  9  2  1  0
 11  9  1  0
 12 16  1  0
 12 11  1  0
 12 13  1  1
 14 13  1  0
 14 15  2  0
 16 22  1  0
 17 16  2  0
 18 14  1  0
 20 19  1  0
 21 20  1  6
 21 23  1  0
 22 21  1  0
 23 25  2  0
 23 24  1  0
M  END
$$$$
