HRS.pdb
     RDKit          3D

 28 28  0  0  1  0  0  0  0  0999 V2000
    7.0188  -16.0123   26.1905 N   0  0  0  0  0  0  0  0  0  0  0  0
    7.2372  -14.9753   25.2324 C   0  0  1  0  0  0  0  0  0  0  0  0
    8.2123  -13.9651   25.7174 C   0  0  0  0  0  0  0  0  0  0  0  0
    7.5498  -13.0691   26.6989 C   0  0  0  0  0  0  0  0  0  0  0  0
    6.4242  -12.2919   26.4565 C   0  0  0  0  0  0  0  0  0  0  0  0
    6.1323  -11.6291   27.5695 N   0  0  0  0  0  0  0  0  0  0  0  0
    7.0164  -11.9428   28.5163 C   0  0  0  0  0  0  0  0  0  0  0  0
    7.8806  -12.8220   27.9826 N   0  0  0  0  0  0  0  0  0  0  0  0
    7.5204  -15.5174   23.8968 C   0  0  0  0  0  0  0  0  0  0  0  0
    7.7965  -16.7394   23.6939 O   0  0  0  0  0  0  0  0  0  0  0  0
    9.8829  -15.1235   16.8592 N   0  0  0  0  0  0  0  0  0  0  0  0
    8.7061  -14.6178   16.1949 C   0  0  0  0  0  0  0  0  0  0  0  0
    8.4742  -14.9826   14.9827 N   0  0  0  0  0  0  0  0  0  0  0  0
    7.8014  -13.7367   16.8271 N   0  0  0  0  0  0  0  0  0  0  0  0
    7.9748  -13.2549   18.1836 C   0  0  0  0  0  0  0  0  0  0  0  0
    8.1487  -14.4697   19.0723 C   0  0  0  0  0  0  0  0  0  0  0  0
    7.7042  -14.0465   20.4625 C   0  0  0  0  0  0  0  0  0  0  0  0
    7.8589  -15.1944   21.4133 C   0  0  2  0  0  0  0  0  0  0  0  0
    7.5014  -14.6937   22.7515 N   0  0  0  0  0  0  0  0  0  0  0  0
    9.3161  -15.5432   21.4213 C   0  0  0  0  0  0  0  0  0  0  0  0
   10.1273  -14.7551   21.9643 O   0  0  0  0  0  0  0  0  0  0  0  0
    7.6450  -14.6451   14.4799 O   0  0  0  0  0  0  0  0  0  0  0  0
   10.5733  -19.1075   21.5974 C   0  0  0  0  0  0  0  0  0  0  0  0
   11.4968  -18.0890   21.8270 C   0  0  1  0  0  0  0  0  0  0  0  0
   11.2142  -16.9895   20.8228 N   0  0  0  0  0  0  0  0  0  0  0  0
    9.7943  -16.7378   20.8314 C   0  0  0  0  0  0  0  0  0  0  0  0
   11.6069  -17.3971   19.4497 O   0  0  0  0  0  0  0  0  0  0  0  0
   12.9379  -17.7030   19.1686 O   0  0  0  0  0  0  0  0  0  0  0  0
  2  9  1  0
  2  1  1  1
  3  2  1  0
  4  3  1  0
  5  4  2  0
  6  7  1  0
  6  5  1  0
  7  8  2  0
  8  4  1  0
  9 10  2  0
 12 14  1  0
 12 11  1  0
 13 12  2  0
 15 14  1  0
 16 15  1  0
 17 16  1  0
 18 17  1  6
 19  9  1  0
 19 18  1  0
 20 25  1  0
 20 18  1  0
 21 20  2  0
 23 22  1  0
 24 23  1  1
 24 25  1  0
 26 24  1  0
 26 27  1  0
 28 26  2  0
M  END
$$$$
