HRS.pdb
     RDKit          3D

 28 28  0  0  1  0  0  0  0  0999 V2000
    9.3353  -15.9899   19.5720 N   0  0  0  0  0  0  0  0  0  0  0  0
   10.3913  -15.0402   19.4162 C   0  0  1  0  0  0  0  0  0  0  0  0
   10.0811  -13.7482   20.0804 C   0  0  0  0  0  0  0  0  0  0  0  0
    8.7932  -13.2217   19.5615 C   0  0  0  0  0  0  0  0  0  0  0  0
    8.6436  -12.3788   18.4674 C   0  0  0  0  0  0  0  0  0  0  0  0
    7.3490  -12.1261   18.3147 N   0  0  0  0  0  0  0  0  0  0  0  0
    6.6586  -12.7660   19.2583 C   0  0  0  0  0  0  0  0  0  0  0  0
    7.5423  -13.4342   20.0181 N   0  0  0  0  0  0  0  0  0  0  0  0
   11.6979  -15.6157   19.7618 C   0  0  0  0  0  0  0  0  0  0  0  0
   11.9001  -16.2745   20.8275 O   0  0  0  0  0  0  0  0  0  0  0  0
   19.3060  -17.9338   18.0936 N   0  0  0  0  0  0  0  0  0  0  0  0
   18.5082  -18.3664   16.9719 C   0  0  0  0  0  0  0  0  0  0  0  0
   18.7264  -19.5309   16.4692 N   0  0  0  0  0  0  0  0  0  0  0  0
   17.4983  -17.5574   16.4062 N   0  0  0  0  0  0  0  0  0  0  0  0
   17.1286  -16.2587   16.9344 C   0  0  0  0  0  0  0  0  0  0  0  0
   16.3401  -16.4994   18.2056 C   0  0  0  0  0  0  0  0  0  0  0  0
   14.9538  -15.9268   17.9607 C   0  0  0  0  0  0  0  0  0  0  0  0
   14.1049  -16.1205   19.1803 C   0  0  2  0  0  0  0  0  0  0  0  0
   12.8148  -15.4620   18.9136 N   0  0  0  0  0  0  0  0  0  0  0  0
   14.7848  -15.3789   20.2907 C   0  0  0  0  0  0  0  0  0  0  0  0
   14.8224  -14.1254   20.2514 O   0  0  0  0  0  0  0  0  0  0  0  0
   18.1752  -19.8734   15.6735 O   0  0  0  0  0  0  0  0  0  0  0  0
   16.2210  -15.1710   24.7535 C   0  0  0  0  0  0  0  0  0  0  0  0
   15.4589  -15.7657   23.7493 C   0  0  1  0  0  0  0  0  0  0  0  0
   16.0116  -15.2880   22.4213 N   0  0  0  0  0  0  0  0  0  0  0  0
   15.3828  -16.0599   21.3780 C   0  0  0  0  0  0  0  0  0  0  0  0
   17.4792  -15.5006   22.3383 O   0  0  0  0  0  0  0  0  0  0  0  0
   18.3414  -14.7017   23.0883 O   0  0  0  0  0  0  0  0  0  0  0  0
  2  9  1  0
  2  1  1  1
  3  2  1  0
  4  3  1  0
  5  4  2  0
  6  7  1  0
  6  5  1  0
  7  8  2  0
  8  4  1  0
  9 10  2  0
 12 14  1  0
 12 11  1  0
 13 12  2  0
 15 14  1  0
 16 15  1  0
 17 16  1  0
 18 17  1  6
 19  9  1  0
 19 18  1  0
 20 25  1  0
 20 18  1  0
 21 20  2  0
 23 22  1  0
 24 23  1  6
 24 25  1  0
 26 24  1  0
 26 27  1  0
 28 26  2  0
M  END
$$$$
