HRS.pdb
     RDKit          3D

 28 28  0  0  1  0  0  0  0  0999 V2000
    6.7484  -17.3910   19.6754 N   0  0  0  0  0  0  0  0  0  0  0  0
    7.7472  -16.4208   19.9949 C   0  0  1  0  0  0  0  0  0  0  0  0
    7.1660  -15.0685   20.1958 C   0  0  0  0  0  0  0  0  0  0  0  0
    7.4679  -14.2197   19.0153 C   0  0  0  0  0  0  0  0  0  0  0  0
    6.6396  -14.0366   17.9151 C   0  0  0  0  0  0  0  0  0  0  0  0
    7.2510  -13.2148   17.0701 N   0  0  0  0  0  0  0  0  0  0  0  0
    8.4330  -12.8606   17.5740 C   0  0  0  0  0  0  0  0  0  0  0  0
    8.5631  -13.4751   18.7614 N   0  0  0  0  0  0  0  0  0  0  0  0
    8.6298  -16.8817   21.0748 C   0  0  0  0  0  0  0  0  0  0  0  0
    8.3501  -17.8720   21.8175 O   0  0  0  0  0  0  0  0  0  0  0  0
   17.1745  -17.9910   22.8662 N   0  0  0  0  0  0  0  0  0  0  0  0
   16.6468  -16.7876   23.4622 C   0  0  0  0  0  0  0  0  0  0  0  0
   17.2530  -16.2829   24.4791 N   0  0  0  0  0  0  0  0  0  0  0  0
   15.4891  -16.1456   22.9703 N   0  0  0  0  0  0  0  0  0  0  0  0
   14.3868  -16.8552   22.3509 C   0  0  0  0  0  0  0  0  0  0  0  0
   13.1348  -16.5073   23.1302 C   0  0  0  0  0  0  0  0  0  0  0  0
   12.1102  -16.0490   22.1058 C   0  0  0  0  0  0  0  0  0  0  0  0
   10.8025  -16.7363   22.3574 C   0  0  2  0  0  0  0  0  0  0  0  0
    9.8540  -16.2356   21.3480 N   0  0  0  0  0  0  0  0  0  0  0  0
   10.3348  -16.2752   23.7042 C   0  0  0  0  0  0  0  0  0  0  0  0
   10.1785  -15.0469   23.9061 O   0  0  0  0  0  0  0  0  0  0  0  0
   16.8972  -15.4363   24.9383 O   0  0  0  0  0  0  0  0  0  0  0  0
    7.7450  -17.6093   25.1307 C   0  0  0  0  0  0  0  0  0  0  0  0
    8.2717  -17.1216   26.3255 C   0  0  2  0  0  0  0  0  0  0  0  0
    9.6945  -16.6815   26.0446 N   0  0  0  0  0  0  0  0  0  0  0  0
   10.0671  -17.1924   24.7485 C   0  0  0  0  0  0  0  0  0  0  0  0
   10.6391  -17.2303   27.0509 O   0  0  0  0  0  0  0  0  0  0  0  0
   10.4798  -16.9143   28.3996 O   0  0  0  0  0  0  0  0  0  0  0  0
  2  9  1  0
  2  1  1  1
  3  2  1  0
  4  3  1  0
  5  4  2  0
  6  7  1  0
  6  5  1  0
  7  8  2  0
  8  4  1  0
  9 10  2  0
 12 14  1  0
 12 11  1  0
 13 12  2  0
 15 14  1  0
 16 15  1  0
 17 16  1  0
 18 17  1  6
 19  9  1  0
 19 18  1  0
 20 25  1  0
 20 18  1  0
 21 20  2  0
 23 22  1  0
 24 23  1  6
 24 25  1  0
 26 24  1  0
 26 27  1  0
 28 26  2  0
M  END
$$$$
