HRS.pdb
     RDKit          3D

 28 28  0  0  1  0  0  0  0  0999 V2000
    9.2510  -16.0051   17.1076 N   0  0  0  0  0  0  0  0  0  0  0  0
    9.8018  -15.5423   18.3419 C   0  0  1  0  0  0  0  0  0  0  0  0
    8.7498  -15.2769   19.3566 C   0  0  0  0  0  0  0  0  0  0  0  0
    7.8458  -14.2067   18.8640 C   0  0  0  0  0  0  0  0  0  0  0  0
    6.5297  -14.3814   18.4551 C   0  0  0  0  0  0  0  0  0  0  0  0
    6.0524  -13.1994   18.0832 N   0  0  0  0  0  0  0  0  0  0  0  0
    6.9985  -12.2727   18.2332 C   0  0  0  0  0  0  0  0  0  0  0  0
    8.0923  -12.8899   18.7100 N   0  0  0  0  0  0  0  0  0  0  0  0
   10.9038  -16.3976   18.8023 C   0  0  0  0  0  0  0  0  0  0  0  0
   10.8631  -17.6646   18.7433 O   0  0  0  0  0  0  0  0  0  0  0  0
   19.0891  -16.7587   17.1954 N   0  0  0  0  0  0  0  0  0  0  0  0
   18.1304  -17.8348   17.2634 C   0  0  0  0  0  0  0  0  0  0  0  0
   18.2722  -18.8415   16.4742 N   0  0  0  0  0  0  0  0  0  0  0  0
   17.0424  -17.8217   18.1637 N   0  0  0  0  0  0  0  0  0  0  0  0
   16.8019  -16.7474   19.1072 C   0  0  0  0  0  0  0  0  0  0  0  0
   15.5620  -17.1137   19.8974 C   0  0  0  0  0  0  0  0  0  0  0  0
   14.4343  -16.2626   19.3376 C   0  0  0  0  0  0  0  0  0  0  0  0
   13.1342  -16.6761   19.9575 C   0  0  2  0  0  0  0  0  0  0  0  0
   12.0837  -15.8456   19.3443 N   0  0  0  0  0  0  0  0  0  0  0  0
   13.2242  -16.3151   21.4090 C   0  0  0  0  0  0  0  0  0  0  0  0
   13.4301  -15.1190   21.7267 O   0  0  0  0  0  0  0  0  0  0  0  0
   17.6303  -19.6415   16.5195 O   0  0  0  0  0  0  0  0  0  0  0  0
   11.5733  -18.6040   24.0573 C   0  0  0  0  0  0  0  0  0  0  0  0
   11.8383  -17.2980   24.4657 C   0  0  1  0  0  0  0  0  0  0  0  0
   13.1336  -16.8726   23.8035 N   0  0  0  0  0  0  0  0  0  0  0  0
   13.0827  -17.2911   22.4244 C   0  0  0  0  0  0  0  0  0  0  0  0
   14.3066  -17.5203   24.4441 O   0  0  0  0  0  0  0  0  0  0  0  0
   14.6425  -17.2059   25.7603 O   0  0  0  0  0  0  0  0  0  0  0  0
  2  9  1  0
  2  1  1  6
  3  2  1  0
  4  3  1  0
  5  4  2  0
  6  7  1  0
  6  5  1  0
  7  8  2  0
  8  4  1  0
  9 10  2  0
 12 14  1  0
 12 11  1  0
 13 12  2  0
 15 14  1  0
 16 15  1  0
 17 16  1  0
 18 17  1  6
 19  9  1  0
 19 18  1  0
 20 25  1  0
 20 18  1  0
 21 20  2  0
 23 22  1  0
 24 23  1  6
 24 25  1  0
 26 24  1  0
 26 27  1  0
 28 26  2  0
M  END
$$$$
