HRS.pdb
     RDKit          3D

 28 28  0  0  1  0  0  0  0  0999 V2000
    9.2692  -16.2588   17.4778 N   0  0  0  0  0  0  0  0  0  0  0  0
    9.9695  -15.2450   18.2010 C   0  0  1  0  0  0  0  0  0  0  0  0
    9.0512  -14.4019   19.0088 C   0  0  0  0  0  0  0  0  0  0  0  0
    7.9926  -13.8418   18.1309 C   0  0  0  0  0  0  0  0  0  0  0  0
    6.6851  -13.5665   18.5115 C   0  0  0  0  0  0  0  0  0  0  0  0
    6.0417  -13.0799   17.4568 N   0  0  0  0  0  0  0  0  0  0  0  0
    6.8727  -13.0289   16.4160 C   0  0  0  0  0  0  0  0  0  0  0  0
    8.0629  -13.4943   16.8299 N   0  0  0  0  0  0  0  0  0  0  0  0
   11.1154  -15.7937   18.9383 C   0  0  0  0  0  0  0  0  0  0  0  0
   11.1450  -16.9835   19.3789 O   0  0  0  0  0  0  0  0  0  0  0  0
   16.8315  -14.4080   15.3920 N   0  0  0  0  0  0  0  0  0  0  0  0
   17.5117  -14.6505   16.6413 C   0  0  0  0  0  0  0  0  0  0  0  0
   18.6072  -15.3258   16.6291 N   0  0  0  0  0  0  0  0  0  0  0  0
   17.0174  -14.1743   17.8755 N   0  0  0  0  0  0  0  0  0  0  0  0
   15.8165  -13.3709   17.9964 C   0  0  0  0  0  0  0  0  0  0  0  0
   14.6544  -14.3260   18.1782 C   0  0  0  0  0  0  0  0  0  0  0  0
   14.5672  -14.6106   19.6685 C   0  0  0  0  0  0  0  0  0  0  0  0
   13.4220  -15.5384   19.9391 C   0  0  2  0  0  0  0  0  0  0  0  0
   12.2610  -15.0130   19.2006 N   0  0  0  0  0  0  0  0  0  0  0  0
   13.1283  -15.4313   21.4045 C   0  0  0  0  0  0  0  0  0  0  0  0
   12.8693  -14.3047   21.8922 O   0  0  0  0  0  0  0  0  0  0  0  0
   19.0843  -15.5724   17.5041 O   0  0  0  0  0  0  0  0  0  0  0  0
   11.3489  -18.2059   23.3188 C   0  0  0  0  0  0  0  0  0  0  0  0
   11.4060  -16.9214   23.8570 C   0  0  1  0  0  0  0  0  0  0  0  0
   12.8146  -16.4048   23.6420 N   0  0  0  0  0  0  0  0  0  0  0  0
   13.1372  -16.5693   22.2461 C   0  0  0  0  0  0  0  0  0  0  0  0
   13.8010  -17.1748   24.4421 O   0  0  0  0  0  0  0  0  0  0  0  0
   13.7571  -17.1258   25.8349 O   0  0  0  0  0  0  0  0  0  0  0  0
  2  9  1  0
  2  1  1  1
  3  2  1  0
  4  3  1  0
  5  4  2  0
  6  7  1  0
  6  5  1  0
  7  8  2  0
  8  4  1  0
  9 10  2  0
 12 14  1  0
 12 11  1  0
 13 12  2  0
 15 14  1  0
 16 15  1  0
 17 16  1  0
 18 17  1  1
 19  9  1  0
 19 18  1  0
 20 25  1  0
 20 18  1  0
 21 20  2  0
 23 22  1  0
 24 23  1  6
 24 25  1  0
 26 24  1  0
 26 27  1  0
 28 26  2  0
M  END
$$$$
