HRS.pdb
     RDKit          3D

 28 28  0  0  1  0  0  0  0  0999 V2000
    8.9247  -16.4335   20.0161 N   0  0  0  0  0  0  0  0  0  0  0  0
    8.9414  -15.4806   21.0804 C   0  0  1  0  0  0  0  0  0  0  0  0
    7.7753  -14.5621   21.0242 C   0  0  0  0  0  0  0  0  0  0  0  0
    7.7113  -13.9249   19.6844 C   0  0  0  0  0  0  0  0  0  0  0  0
    8.4041  -12.7858   19.2943 C   0  0  0  0  0  0  0  0  0  0  0  0
    8.0893  -12.5230   18.0313 N   0  0  0  0  0  0  0  0  0  0  0  0
    7.2270  -13.4387   17.5903 C   0  0  0  0  0  0  0  0  0  0  0  0
    6.9979  -14.2934   18.6010 N   0  0  0  0  0  0  0  0  0  0  0  0
    9.1617  -16.1219   22.3835 C   0  0  0  0  0  0  0  0  0  0  0  0
    8.2961  -16.8638   22.9411 O   0  0  0  0  0  0  0  0  0  0  0  0
   14.5126  -21.7826   24.5278 N   0  0  0  0  0  0  0  0  0  0  0  0
   13.1053  -21.5279   24.3363 C   0  0  0  0  0  0  0  0  0  0  0  0
   12.3591  -22.4771   23.8908 N   0  0  0  0  0  0  0  0  0  0  0  0
   12.5189  -20.2747   24.6191 N   0  0  0  0  0  0  0  0  0  0  0  0
   13.2569  -19.1566   25.1736 C   0  0  0  0  0  0  0  0  0  0  0  0
   12.2474  -18.0822   25.5237 C   0  0  0  0  0  0  0  0  0  0  0  0
   11.9056  -17.3792   24.2205 C   0  0  0  0  0  0  0  0  0  0  0  0
   10.6302  -16.6092   24.3818 C   0  0  2  0  0  0  0  0  0  0  0  0
   10.3666  -15.9423   23.0952 N   0  0  0  0  0  0  0  0  0  0  0  0
   10.9020  -15.5509   25.4071 C   0  0  0  0  0  0  0  0  0  0  0  0
   11.8225  -14.7243   25.1988 O   0  0  0  0  0  0  0  0  0  0  0  0
   11.3560  -22.3281   23.7301 O   0  0  0  0  0  0  0  0  0  0  0  0
    8.1925  -14.1132   27.3643 C   0  0  0  0  0  0  0  0  0  0  0  0
    9.3861  -13.4399   27.6190 C   0  0  1  0  0  0  0  0  0  0  0  0
   10.5003  -14.4666   27.5786 N   0  0  0  0  0  0  0  0  0  0  0  0
   10.1456  -15.4650   26.6004 C   0  0  0  0  0  0  0  0  0  0  0  0
   10.6639  -15.1392   28.8927 O   0  0  0  0  0  0  0  0  0  0  0  0
   10.9783  -14.3879   30.0245 O   0  0  0  0  0  0  0  0  0  0  0  0
  2  9  1  0
  2  1  1  6
  3  2  1  0
  4  3  1  0
  5  4  2  0
  6  7  1  0
  6  5  1  0
  7  8  2  0
  8  4  1  0
  9 10  2  0
 12 14  1  0
 12 11  1  0
 13 12  2  0
 15 14  1  0
 16 15  1  0
 17 16  1  0
 18 17  1  6
 19  9  1  0
 19 18  1  0
 20 25  1  0
 20 18  1  0
 21 20  2  0
 23 22  1  0
 24 23  1  6
 24 25  1  0
 26 24  1  0
 26 27  1  0
 28 26  2  0
M  END
$$$$
