WMP.pdb
     RDKit          3D

 30 32  0  0  1  0  0  0  0  0999 V2000
    7.6095  -20.2928   26.3261 N   0  0  0  0  0  0  0  0  0  0  0  0
    8.1483  -18.9785   26.6635 C   0  0  1  0  0  0  0  0  0  0  0  0
    9.6485  -19.1087   26.7027 C   0  0  0  0  0  0  0  0  0  0  0  0
   10.0734  -18.2955   27.9050 C   0  0  0  0  0  0  0  0  0  0  0  0
   10.3501  -18.7542   29.1649 C   0  0  0  0  0  0  0  0  0  0  0  0
   10.6865  -17.7045   29.9264 N   0  0  0  0  0  0  0  0  0  0  0  0
   10.6417  -16.5571   29.2071 C   0  0  0  0  0  0  0  0  0  0  0  0
   10.9014  -15.2307   29.5496 C   0  0  0  0  0  0  0  0  0  0  0  0
   10.7752  -14.2364   28.6008 C   0  0  0  0  0  0  0  0  0  0  0  0
   10.3888  -14.6193   27.3335 C   0  0  0  0  0  0  0  0  0  0  0  0
   10.1306  -15.9288   26.9886 C   0  0  0  0  0  0  0  0  0  0  0  0
   10.2565  -16.9308   27.9384 C   0  0  0  0  0  0  0  0  0  0  0  0
    7.6671  -17.9680   25.6748 C   0  0  0  0  0  0  0  0  0  0  0  0
    7.5915  -18.2355   24.4409 O   0  0  0  0  0  0  0  0  0  0  0  0
    5.2706  -11.2682   26.7418 C   0  0  0  0  0  0  0  0  0  0  0  0
    6.6337  -11.5124   25.6616 S   0  0  0  0  0  0  0  0  0  0  0  0
    6.8332  -13.0927   24.8627 C   0  0  0  0  0  0  0  0  0  0  0  0
    7.0827  -14.2702   25.7117 C   0  0  0  0  0  0  0  0  0  0  0  0
    7.0952  -15.6068   25.0438 C   0  0  2  0  0  0  0  0  0  0  0  0
    7.2674  -16.6626   26.0474 N   0  0  0  0  0  0  0  0  0  0  0  0
    8.0200  -15.7193   23.9096 C   0  0  0  0  0  0  0  0  0  0  0  0
    9.2185  -16.1012   24.1941 O   0  0  0  0  0  0  0  0  0  0  0  0
    7.8110  -15.4702   22.5326 N   0  0  0  0  0  0  0  0  0  0  0  0
    6.5424  -15.1172   21.9472 C   0  0  0  0  0  0  0  0  0  0  0  0
    6.7638  -15.0721   20.4388 C   0  0  0  0  0  0  0  0  0  0  0  0
    8.2031  -14.6487   20.3834 C   0  0  0  0  0  0  0  0  0  0  0  0
    8.7990  -15.5162   21.5011 C   0  0  1  0  0  0  0  0  0  0  0  0
   10.1247  -14.9635   21.8593 C   0  0  0  0  0  0  0  0  0  0  0  0
   11.1388  -15.0234   20.9288 O   0  0  0  0  0  0  0  0  0  0  0  0
   10.3253  -14.4576   22.9667 O   0  0  0  0  0  0  0  0  0  0  0  0
  2  1  1  6
  2 13  1  0
  2  3  1  0
  3  4  1  0
  4 12  1  0
  4  5  2  0
  5  6  1  0
  7  6  1  0
  7  8  2  0
  9  8  1  0
 10  9  2  0
 11 12  2  0
 11 10  1  0
 12  7  1  0
 13 14  2  0
 16 15  1  0
 17 16  1  0
 18 17  1  0
 19 18  1  1
 20 19  1  0
 20 13  1  0
 21 19  1  0
 21 23  1  0
 22 21  2  0
 23 24  1  0
 25 24  1  0
 26 27  1  0
 26 25  1  0
 27 23  1  0
 27 28  1  1
 29 28  1  0
 30 28  2  0
M  END
$$$$
