WMP.pdb
     RDKit          3D

 30 32  0  0  1  0  0  0  0  0999 V2000
    7.7717  -19.4484   25.9681 N   0  0  0  0  0  0  0  0  0  0  0  0
    7.7905  -18.0061   25.7418 C   0  0  1  0  0  0  0  0  0  0  0  0
    9.2316  -17.5690   25.7741 C   0  0  0  0  0  0  0  0  0  0  0  0
    9.5109  -17.2734   27.2308 C   0  0  0  0  0  0  0  0  0  0  0  0
    9.6073  -18.1718   28.2592 C   0  0  0  0  0  0  0  0  0  0  0  0
    9.8626  -17.4916   29.3848 N   0  0  0  0  0  0  0  0  0  0  0  0
    9.9394  -16.1623   29.1341 C   0  0  0  0  0  0  0  0  0  0  0  0
   10.1806  -15.0687   29.9647 C   0  0  0  0  0  0  0  0  0  0  0  0
   10.2038  -13.7938   29.4366 C   0  0  0  0  0  0  0  0  0  0  0  0
    9.9810  -13.6684   28.0815 C   0  0  0  0  0  0  0  0  0  0  0  0
    9.7420  -14.7455   27.2549 C   0  0  0  0  0  0  0  0  0  0  0  0
    9.7181  -16.0279   27.7811 C   0  0  0  0  0  0  0  0  0  0  0  0
    7.1042  -17.6895   24.4538 C   0  0  0  0  0  0  0  0  0  0  0  0
    7.2413  -18.4255   23.4343 O   0  0  0  0  0  0  0  0  0  0  0  0
    6.4297  -12.0419   27.2627 C   0  0  0  0  0  0  0  0  0  0  0  0
    7.1906  -11.8177   25.6958 S   0  0  0  0  0  0  0  0  0  0  0  0
    7.9408  -13.2184   24.8891 C   0  0  0  0  0  0  0  0  0  0  0  0
    7.3351  -14.5443   25.1004 C   0  0  0  0  0  0  0  0  0  0  0  0
    6.8132  -15.2594   23.8967 C   0  0  2  0  0  0  0  0  0  0  0  0
    6.2651  -16.5617   24.2908 N   0  0  0  0  0  0  0  0  0  0  0  0
    7.7517  -15.3345   22.7706 C   0  0  0  0  0  0  0  0  0  0  0  0
    8.8522  -15.9686   22.9942 O   0  0  0  0  0  0  0  0  0  0  0  0
    7.6479  -14.8141   21.4590 N   0  0  0  0  0  0  0  0  0  0  0  0
    6.5313  -14.0469   20.9680 C   0  0  0  0  0  0  0  0  0  0  0  0
    6.7919  -13.8121   19.4836 C   0  0  0  0  0  0  0  0  0  0  0  0
    8.2927  -13.7802   19.4683 C   0  0  0  0  0  0  0  0  0  0  0  0
    8.6126  -14.9473   20.4132 C   0  0  1  0  0  0  0  0  0  0  0  0
   10.0284  -14.8313   20.8295 C   0  0  0  0  0  0  0  0  0  0  0  0
   10.3074  -14.4362   22.1193 O   0  0  0  0  0  0  0  0  0  0  0  0
   10.9457  -15.0817   20.0431 O   0  0  0  0  0  0  0  0  0  0  0  0
  2  1  1  6
  2 13  1  0
  2  3  1  0
  3  4  1  0
  4 12  1  0
  4  5  2  0
  5  6  1  0
  7  6  1  0
  7  8  2  0
  9  8  1  0
 10  9  2  0
 11 12  2  0
 11 10  1  0
 12  7  1  0
 13 14  2  0
 16 15  1  0
 17 16  1  0
 18 17  1  0
 19 18  1  1
 20 19  1  0
 20 13  1  0
 21 19  1  0
 21 23  1  0
 22 21  2  0
 23 24  1  0
 25 24  1  0
 26 27  1  0
 26 25  1  0
 27 23  1  0
 27 28  1  1
 29 28  1  0
 30 28  2  0
M  END
$$$$
