WMP.pdb
     RDKit          3D

 30 32  0  0  1  0  0  0  0  0999 V2000
    6.5330  -18.7005   26.1721 N   0  0  0  0  0  0  0  0  0  0  0  0
    7.4790  -17.6000   26.0115 C   0  0  1  0  0  0  0  0  0  0  0  0
    8.8325  -18.1115   26.4303 C   0  0  0  0  0  0  0  0  0  0  0  0
    9.1382  -17.3795   27.7179 C   0  0  0  0  0  0  0  0  0  0  0  0
    9.2490  -17.9138   28.9735 C   0  0  0  0  0  0  0  0  0  0  0  0
    9.5266  -16.9192   29.8271 N   0  0  0  0  0  0  0  0  0  0  0  0
    9.6043  -15.7349   29.1735 C   0  0  0  0  0  0  0  0  0  0  0  0
    9.8644  -14.4393   29.6183 C   0  0  0  0  0  0  0  0  0  0  0  0
    9.8835  -13.3925   28.7190 C   0  0  0  0  0  0  0  0  0  0  0  0
    9.6376  -13.6934   27.3958 C   0  0  0  0  0  0  0  0  0  0  0  0
    9.3798  -14.9720   26.9497 C   0  0  0  0  0  0  0  0  0  0  0  0
    9.3600  -16.0265   27.8495 C   0  0  0  0  0  0  0  0  0  0  0  0
    7.4424  -17.1061   24.6026 C   0  0  0  0  0  0  0  0  0  0  0  0
    7.1141  -17.8647   23.6453 O   0  0  0  0  0  0  0  0  0  0  0  0
    6.1988  -12.0489   20.4396 C   0  0  0  0  0  0  0  0  0  0  0  0
    7.5264  -13.1676   20.1746 S   0  0  0  0  0  0  0  0  0  0  0  0
    8.7322  -13.4020   21.4655 C   0  0  0  0  0  0  0  0  0  0  0  0
    8.2667  -13.9313   22.7588 C   0  0  0  0  0  0  0  0  0  0  0  0
    8.0543  -15.4070   22.8593 C   0  0  2  0  0  0  0  0  0  0  0  0
    7.7662  -15.7743   24.2499 N   0  0  0  0  0  0  0  0  0  0  0  0
    9.1069  -16.2234   22.2430 C   0  0  0  0  0  0  0  0  0  0  0  0
   10.2189  -16.2950   22.8923 O   0  0  0  0  0  0  0  0  0  0  0  0
    9.1041  -16.9546   21.0317 N   0  0  0  0  0  0  0  0  0  0  0  0
    7.9299  -17.2268   20.2418 C   0  0  0  0  0  0  0  0  0  0  0  0
    8.3787  -18.1427   19.1078 C   0  0  0  0  0  0  0  0  0  0  0  0
    9.7954  -17.6810   18.9240 C   0  0  0  0  0  0  0  0  0  0  0  0
   10.2397  -17.5343   20.3863 C   0  0  1  0  0  0  0  0  0  0  0  0
   11.4766  -16.7216   20.4151 C   0  0  0  0  0  0  0  0  0  0  0  0
   12.6207  -17.2394   19.8489 O   0  0  0  0  0  0  0  0  0  0  0  0
   11.4907  -15.6020   20.9337 O   0  0  0  0  0  0  0  0  0  0  0  0
  2  1  1  6
  2 13  1  0
  2  3  1  0
  3  4  1  0
  4 12  1  0
  4  5  2  0
  5  6  1  0
  7  6  1  0
  7  8  2  0
  9  8  1  0
 10  9  2  0
 11 12  2  0
 11 10  1  0
 12  7  1  0
 13 14  2  0
 16 15  1  0
 17 16  1  0
 18 17  1  0
 19 18  1  1
 20 19  1  0
 20 13  1  0
 21 19  1  0
 21 23  1  0
 22 21  2  0
 23 24  1  0
 25 24  1  0
 26 27  1  0
 26 25  1  0
 27 23  1  0
 27 28  1  6
 29 28  1  0
 30 28  2  0
M  END
$$$$
