WMP.pdb
     RDKit          3D

 30 32  0  0  1  0  0  0  0  0999 V2000
    7.7588  -20.3376   25.9381 N   0  0  0  0  0  0  0  0  0  0  0  0
    8.0791  -19.0337   26.5118 C   0  0  1  0  0  0  0  0  0  0  0  0
    9.5519  -19.0358   26.8278 C   0  0  0  0  0  0  0  0  0  0  0  0
    9.6671  -18.2706   28.1272 C   0  0  0  0  0  0  0  0  0  0  0  0
    9.6550  -18.7803   29.3977 C   0  0  0  0  0  0  0  0  0  0  0  0
    9.7807  -17.7606   30.2575 N   0  0  0  0  0  0  0  0  0  0  0  0
    9.8767  -16.5834   29.5935 C   0  0  0  0  0  0  0  0  0  0  0  0
   10.0184  -15.2699   30.0392 C   0  0  0  0  0  0  0  0  0  0  0  0
   10.0921  -14.2366   29.1272 C   0  0  0  0  0  0  0  0  0  0  0  0
   10.0193  -14.5688   27.7907 C   0  0  0  0  0  0  0  0  0  0  0  0
    9.8792  -15.8653   27.3437 C   0  0  0  0  0  0  0  0  0  0  0  0
    9.8051  -16.9062   28.2563 C   0  0  0  0  0  0  0  0  0  0  0  0
    7.6787  -17.9534   25.5617 C   0  0  0  0  0  0  0  0  0  0  0  0
    7.5811  -18.1694   24.3193 O   0  0  0  0  0  0  0  0  0  0  0  0
    6.2355  -11.3622   27.2806 C   0  0  0  0  0  0  0  0  0  0  0  0
    7.0176  -11.4453   25.7103 S   0  0  0  0  0  0  0  0  0  0  0  0
    7.1344  -13.0193   24.8832 C   0  0  0  0  0  0  0  0  0  0  0  0
    7.2393  -14.2310   25.7141 C   0  0  0  0  0  0  0  0  0  0  0  0
    7.2134  -15.5491   25.0107 C   0  0  2  0  0  0  0  0  0  0  0  0
    7.3841  -16.6347   25.9824 N   0  0  0  0  0  0  0  0  0  0  0  0
    8.1143  -15.6482   23.8563 C   0  0  0  0  0  0  0  0  0  0  0  0
    9.3223  -16.0198   24.1130 O   0  0  0  0  0  0  0  0  0  0  0  0
    7.8730  -15.3958   22.4851 N   0  0  0  0  0  0  0  0  0  0  0  0
    6.6335  -14.8911   21.9508 C   0  0  0  0  0  0  0  0  0  0  0  0
    6.7861  -14.8985   20.4332 C   0  0  0  0  0  0  0  0  0  0  0  0
    8.2634  -14.6653   20.3030 C   0  0  0  0  0  0  0  0  0  0  0  0
    8.7963  -15.5851   21.4109 C   0  0  1  0  0  0  0  0  0  0  0  0
   10.1975  -15.2026   21.6961 C   0  0  0  0  0  0  0  0  0  0  0  0
   11.1530  -15.4252   20.7290 O   0  0  0  0  0  0  0  0  0  0  0  0
   10.5114  -14.6941   22.7756 O   0  0  0  0  0  0  0  0  0  0  0  0
  2  1  1  6
  2 13  1  0
  2  3  1  0
  3  4  1  0
  4 12  1  0
  4  5  2  0
  5  6  1  0
  7  6  1  0
  7  8  2  0
  9  8  1  0
 10  9  2  0
 11 12  2  0
 11 10  1  0
 12  7  1  0
 13 14  2  0
 16 15  1  0
 17 16  1  0
 18 17  1  0
 19 18  1  1
 20 19  1  0
 20 13  1  0
 21 19  1  0
 21 23  1  0
 22 21  2  0
 23 24  1  0
 25 24  1  0
 26 27  1  0
 26 25  1  0
 27 23  1  0
 27 28  1  1
 29 28  1  0
 30 28  2  0
M  END
$$$$
