WMP.pdb
     RDKit          3D

 30 32  0  0  1  0  0  0  0  0999 V2000
    6.2959  -18.8900   25.3942 N   0  0  0  0  0  0  0  0  0  0  0  0
    6.7012  -17.4997   25.2090 C   0  0  1  0  0  0  0  0  0  0  0  0
    7.6860  -17.1736   26.3011 C   0  0  0  0  0  0  0  0  0  0  0  0
    7.4436  -15.7139   26.6138 C   0  0  0  0  0  0  0  0  0  0  0  0
    6.2773  -15.0128   26.4640 C   0  0  0  0  0  0  0  0  0  0  0  0
    6.4964  -13.7503   26.8554 N   0  0  0  0  0  0  0  0  0  0  0  0
    7.7787  -13.5909   27.2627 C   0  0  0  0  0  0  0  0  0  0  0  0
    8.4724  -12.4832   27.7484 C   0  0  0  0  0  0  0  0  0  0  0  0
    9.8027  -12.6011   28.0964 C   0  0  0  0  0  0  0  0  0  0  0  0
   10.3881  -13.8400   27.9400 C   0  0  0  0  0  0  0  0  0  0  0  0
    9.7079  -14.9389   27.4604 C   0  0  0  0  0  0  0  0  0  0  0  0
    8.3713  -14.8250   27.1100 C   0  0  0  0  0  0  0  0  0  0  0  0
    7.2578  -17.3161   23.8354 C   0  0  0  0  0  0  0  0  0  0  0  0
    7.7000  -18.2940   23.1660 O   0  0  0  0  0  0  0  0  0  0  0  0
    8.1400  -11.2081   20.4483 C   0  0  0  0  0  0  0  0  0  0  0  0
    7.8523  -12.5628   19.3684 S   0  0  0  0  0  0  0  0  0  0  0  0
    8.0932  -14.2207   19.9755 C   0  0  0  0  0  0  0  0  0  0  0  0
    7.6327  -14.5313   21.3398 C   0  0  0  0  0  0  0  0  0  0  0  0
    7.8820  -15.9135   21.8495 C   0  0  2  0  0  0  0  0  0  0  0  0
    7.3248  -16.0538   23.1992 N   0  0  0  0  0  0  0  0  0  0  0  0
    9.2731  -16.3685   21.7391 C   0  0  0  0  0  0  0  0  0  0  0  0
   10.0915  -15.9014   22.6196 O   0  0  0  0  0  0  0  0  0  0  0  0
    9.8754  -17.2473   20.8080 N   0  0  0  0  0  0  0  0  0  0  0  0
    9.1527  -18.0593   19.8620 C   0  0  0  0  0  0  0  0  0  0  0  0
   10.1915  -18.9297   19.1622 C   0  0  0  0  0  0  0  0  0  0  0  0
   11.3876  -18.0235   19.2085 C   0  0  0  0  0  0  0  0  0  0  0  0
   11.2758  -17.4762   20.6385 C   0  0  1  0  0  0  0  0  0  0  0  0
   12.1378  -16.2775   20.7442 C   0  0  0  0  0  0  0  0  0  0  0  0
   13.5033  -16.4489   20.8049 O   0  0  0  0  0  0  0  0  0  0  0  0
   11.6509  -15.1442   20.7776 O   0  0  0  0  0  0  0  0  0  0  0  0
  2  1  1  1
  2 13  1  0
  2  3  1  0
  3  4  1  0
  4 12  1  0
  4  5  2  0
  5  6  1  0
  7  6  1  0
  7  8  2  0
  9  8  1  0
 10  9  2  0
 11 12  2  0
 11 10  1  0
 12  7  1  0
 13 14  2  0
 16 15  1  0
 17 16  1  0
 18 17  1  0
 19 18  1  1
 20 19  1  0
 20 13  1  0
 21 19  1  0
 21 23  1  0
 22 21  2  0
 23 24  1  0
 25 24  1  0
 26 27  1  0
 26 25  1  0
 27 23  1  0
 27 28  1  6
 29 28  1  0
 30 28  2  0
M  END
$$$$
