WMP.pdb
     RDKit          3D

 30 32  0  0  1  0  0  0  0  0999 V2000
    5.5196  -17.0619   24.8325 N   0  0  0  0  0  0  0  0  0  0  0  0
    6.6449  -17.5116   24.0181 C   0  0  1  0  0  0  0  0  0  0  0  0
    6.3181  -17.1809   22.5854 C   0  0  0  0  0  0  0  0  0  0  0  0
    6.6067  -15.7018   22.4571 C   0  0  0  0  0  0  0  0  0  0  0  0
    6.3637  -14.7227   23.3825 C   0  0  0  0  0  0  0  0  0  0  0  0
    6.7675  -13.5533   22.8683 N   0  0  0  0  0  0  0  0  0  0  0  0
    7.2740  -13.7268   21.6237 C   0  0  0  0  0  0  0  0  0  0  0  0
    7.8096  -12.8292   20.7010 C   0  0  0  0  0  0  0  0  0  0  0  0
    8.2615  -13.2842   19.4788 C   0  0  0  0  0  0  0  0  0  0  0  0
    8.1551  -14.6366   19.2309 C   0  0  0  0  0  0  0  0  0  0  0  0
    7.6265  -15.5292   20.1388 C   0  0  0  0  0  0  0  0  0  0  0  0
    7.1718  -15.0765   21.3678 C   0  0  0  0  0  0  0  0  0  0  0  0
    7.9042  -16.8709   24.5015 C   0  0  0  0  0  0  0  0  0  0  0  0
    7.9702  -15.6269   24.7207 O   0  0  0  0  0  0  0  0  0  0  0  0
   10.1918  -13.0462   28.5352 C   0  0  0  0  0  0  0  0  0  0  0  0
    9.6521  -14.5152   27.7384 S   0  0  0  0  0  0  0  0  0  0  0  0
   10.8260  -15.8239   27.4472 C   0  0  0  0  0  0  0  0  0  0  0  0
   10.3628  -17.0199   26.7229 C   0  0  0  0  0  0  0  0  0  0  0  0
   10.3047  -16.9389   25.2320 C   0  0  2  0  0  0  0  0  0  0  0  0
    9.0908  -17.6028   24.7449 N   0  0  0  0  0  0  0  0  0  0  0  0
   11.5267  -17.3726   24.5442 C   0  0  0  0  0  0  0  0  0  0  0  0
   11.9316  -18.5674   24.8122 O   0  0  0  0  0  0  0  0  0  0  0  0
   12.3496  -16.6833   23.6225 N   0  0  0  0  0  0  0  0  0  0  0  0
   12.0764  -15.3659   23.1063 C   0  0  0  0  0  0  0  0  0  0  0  0
   13.1508  -15.0836   22.0610 C   0  0  0  0  0  0  0  0  0  0  0  0
   14.2971  -15.8737   22.6228 C   0  0  0  0  0  0  0  0  0  0  0  0
   13.5739  -17.1564   23.0572 C   0  0  1  0  0  0  0  0  0  0  0  0
   14.4613  -17.8979   23.9813 C   0  0  0  0  0  0  0  0  0  0  0  0
   15.6254  -18.4422   23.4850 O   0  0  0  0  0  0  0  0  0  0  0  0
   14.1713  -18.0302   25.1734 O   0  0  0  0  0  0  0  0  0  0  0  0
  2  1  1  1
  2 13  1  0
  2  3  1  0
  3  4  1  0
  4 12  1  0
  4  5  2  0
  5  6  1  0
  7  6  1  0
  7  8  2  0
  9  8  1  0
 10  9  2  0
 11 12  2  0
 11 10  1  0
 12  7  1  0
 13 14  2  0
 16 15  1  0
 17 16  1  0
 18 17  1  0
 19 18  1  1
 20 19  1  0
 20 13  1  0
 21 19  1  0
 21 23  1  0
 22 21  2  0
 23 24  1  0
 25 24  1  0
 26 27  1  0
 26 25  1  0
 27 23  1  0
 27 28  1  1
 29 28  1  0
 30 28  2  0
M  END
$$$$
