WMP.pdb
     RDKit          3D

 30 32  0  0  1  0  0  0  0  0999 V2000
    8.4006  -18.8571   22.0036 N   0  0  0  0  0  0  0  0  0  0  0  0
    8.7620  -17.5572   21.4458 C   0  0  1  0  0  0  0  0  0  0  0  0
    7.7329  -17.2202   20.3987 C   0  0  0  0  0  0  0  0  0  0  0  0
    8.2798  -15.9935   19.7034 C   0  0  0  0  0  0  0  0  0  0  0  0
    9.0541  -15.9516   18.5751 C   0  0  0  0  0  0  0  0  0  0  0  0
    9.3195  -14.6678   18.2988 N   0  0  0  0  0  0  0  0  0  0  0  0
    8.7420  -13.8518   19.2134 C   0  0  0  0  0  0  0  0  0  0  0  0
    8.7312  -12.4643   19.3507 C   0  0  0  0  0  0  0  0  0  0  0  0
    8.0494  -11.8806   20.3991 C   0  0  0  0  0  0  0  0  0  0  0  0
    7.3998  -12.7236   21.2761 C   0  0  0  0  0  0  0  0  0  0  0  0
    7.4066  -14.0959   21.1460 C   0  0  0  0  0  0  0  0  0  0  0  0
    8.0900  -14.6865   20.0942 C   0  0  0  0  0  0  0  0  0  0  0  0
    8.8463  -16.5452   22.5407 C   0  0  0  0  0  0  0  0  0  0  0  0
    9.5838  -15.5225   22.4394 O   0  0  0  0  0  0  0  0  0  0  0  0
    6.3463  -11.2609   26.9383 C   0  0  0  0  0  0  0  0  0  0  0  0
    6.3108  -12.5754   25.7742 S   0  0  0  0  0  0  0  0  0  0  0  0
    6.7668  -14.2144   26.3044 C   0  0  0  0  0  0  0  0  0  0  0  0
    6.8569  -15.2716   25.2827 C   0  0  0  0  0  0  0  0  0  0  0  0
    8.2208  -15.6417   24.7976 C   0  0  2  0  0  0  0  0  0  0  0  0
    8.1156  -16.6602   23.7472 N   0  0  0  0  0  0  0  0  0  0  0  0
    9.1775  -15.9872   25.8557 C   0  0  0  0  0  0  0  0  0  0  0  0
    9.3737  -17.2469   26.0503 O   0  0  0  0  0  0  0  0  0  0  0  0
    9.9304  -15.1519   26.7145 N   0  0  0  0  0  0  0  0  0  0  0  0
    9.9145  -13.7115   26.6772 C   0  0  0  0  0  0  0  0  0  0  0  0
   10.9616  -13.2448   27.6833 C   0  0  0  0  0  0  0  0  0  0  0  0
   10.8983  -14.3608   28.6855 C   0  0  0  0  0  0  0  0  0  0  0  0
   10.8152  -15.5776   27.7529 C   0  0  1  0  0  0  0  0  0  0  0  0
   10.3576  -16.7396   28.5476 C   0  0  0  0  0  0  0  0  0  0  0  0
    9.0858  -17.2248   28.3363 O   0  0  0  0  0  0  0  0  0  0  0  0
   11.0944  -17.2686   29.3841 O   0  0  0  0  0  0  0  0  0  0  0  0
  2  1  1  1
  2 13  1  0
  2  3  1  0
  3  4  1  0
  4 12  1  0
  4  5  2  0
  5  6  1  0
  7  6  1  0
  7  8  2  0
  9  8  1  0
 10  9  2  0
 11 12  2  0
 11 10  1  0
 12  7  1  0
 13 14  2  0
 16 15  1  0
 17 16  1  0
 18 17  1  0
 19 18  1  1
 20 19  1  0
 20 13  1  0
 21 19  1  0
 21 23  1  0
 22 21  2  0
 23 24  1  0
 25 24  1  0
 26 27  1  0
 26 25  1  0
 27 23  1  0
 27 28  1  1
 29 28  1  0
 30 28  2  0
M  END
$$$$
