WMP.pdb
     RDKit          3D

 30 32  0  0  1  0  0  0  0  0999 V2000
   11.3133  -16.4540   21.2587 N   0  0  0  0  0  0  0  0  0  0  0  0
    9.9747  -15.9734   21.5886 C   0  0  1  0  0  0  0  0  0  0  0  0
    9.0044  -17.0598   21.2049 C   0  0  0  0  0  0  0  0  0  0  0  0
    8.2898  -16.5233   19.9847 C   0  0  0  0  0  0  0  0  0  0  0  0
    7.6863  -17.2438   18.9892 C   0  0  0  0  0  0  0  0  0  0  0  0
    7.1760  -16.3809   18.1005 N   0  0  0  0  0  0  0  0  0  0  0  0
    7.4230  -15.1031   18.4773 C   0  0  0  0  0  0  0  0  0  0  0  0
    7.1002  -13.8792   17.8927 C   0  0  0  0  0  0  0  0  0  0  0  0
    7.4839  -12.7016   18.5018 C   0  0  0  0  0  0  0  0  0  0  0  0
    8.1840  -12.8031   19.6857 C   0  0  0  0  0  0  0  0  0  0  0  0
    8.5062  -14.0100   20.2688 C   0  0  0  0  0  0  0  0  0  0  0  0
    8.1224  -15.1952   19.6605 C   0  0  0  0  0  0  0  0  0  0  0  0
    9.9131  -15.6080   23.0353 C   0  0  0  0  0  0  0  0  0  0  0  0
   10.9488  -15.6095   23.7614 O   0  0  0  0  0  0  0  0  0  0  0  0
    5.6743  -11.2403   28.2033 C   0  0  0  0  0  0  0  0  0  0  0  0
    5.7452  -12.3415   26.8370 S   0  0  0  0  0  0  0  0  0  0  0  0
    7.2223  -13.3033   26.5756 C   0  0  0  0  0  0  0  0  0  0  0  0
    7.4203  -13.9209   25.2531 C   0  0  0  0  0  0  0  0  0  0  0  0
    8.7207  -14.6149   25.0082 C   0  0  2  0  0  0  0  0  0  0  0  0
    8.7090  -15.2391   23.6809 N   0  0  0  0  0  0  0  0  0  0  0  0
    9.1444  -15.5238   26.0800 C   0  0  0  0  0  0  0  0  0  0  0  0
    8.7686  -16.7517   25.9606 O   0  0  0  0  0  0  0  0  0  0  0  0
    9.9074  -15.2700   27.2443 N   0  0  0  0  0  0  0  0  0  0  0  0
   10.3709  -13.9680   27.6524 C   0  0  0  0  0  0  0  0  0  0  0  0
   11.2492  -14.1906   28.8794 C   0  0  0  0  0  0  0  0  0  0  0  0
   10.5949  -15.4056   29.4707 C   0  0  0  0  0  0  0  0  0  0  0  0
   10.3385  -16.2361   28.2051 C   0  0  1  0  0  0  0  0  0  0  0  0
    9.3560  -17.2927   28.5358 C   0  0  0  0  0  0  0  0  0  0  0  0
    8.1134  -17.2484   27.9429 O   0  0  0  0  0  0  0  0  0  0  0  0
    9.6367  -18.1983   29.3255 O   0  0  0  0  0  0  0  0  0  0  0  0
  2  1  1  1
  2 13  1  0
  2  3  1  0
  3  4  1  0
  4 12  1  0
  4  5  2  0
  5  6  1  0
  7  6  1  0
  7  8  2  0
  9  8  1  0
 10  9  2  0
 11 12  2  0
 11 10  1  0
 12  7  1  0
 13 14  2  0
 16 15  1  0
 17 16  1  0
 18 17  1  0
 19 18  1  1
 20 19  1  0
 20 13  1  0
 21 19  1  0
 21 23  1  0
 22 21  2  0
 23 24  1  0
 25 24  1  0
 26 27  1  0
 26 25  1  0
 27 23  1  0
 27 28  1  1
 29 28  1  0
 30 28  2  0
M  END
$$$$
