KTQ.pdb
     RDKit          3D

 26 25  0  0  1  0  0  0  0  0999 V2000
    8.7974  -15.3441   17.6571 N   0  0  0  0  0  0  0  0  0  0  0  0
    9.2749  -13.9927   17.8029 C   0  0  1  0  0  0  0  0  0  0  0  0
    8.2651  -13.0310   17.2659 C   0  0  0  0  0  0  0  0  0  0  0  0
    8.1000  -12.9881   15.7948 C   0  0  0  0  0  0  0  0  0  0  0  0
    7.5137  -14.1692   15.1247 C   0  0  0  0  0  0  0  0  0  0  0  0
    7.3726  -14.0661   13.6341 C   0  0  0  0  0  0  0  0  0  0  0  0
    6.7858  -15.2418   13.0387 N   0  0  0  0  0  0  0  0  0  0  0  0
    9.4399  -13.7381   19.2799 C   0  0  0  0  0  0  0  0  0  0  0  0
    9.8164  -12.6187   19.7099 O   0  0  0  0  0  0  0  0  0  0  0  0
    7.1794  -13.9658   22.2394 C   0  0  0  0  0  0  0  0  0  0  0  0
    8.2732  -14.9875   22.4698 C   0  0  1  0  0  0  0  0  0  0  0  0
    7.7357  -16.2314   22.1678 O   0  0  0  0  0  0  0  0  0  0  0  0
    9.4989  -14.6802   21.6258 C   0  0  2  0  0  0  0  0  0  0  0  0
    9.1678  -14.7725   20.2045 N   0  0  0  0  0  0  0  0  0  0  0  0
   10.5864  -15.6543   21.8947 C   0  0  0  0  0  0  0  0  0  0  0  0
   10.9076  -16.5434   21.0327 O   0  0  0  0  0  0  0  0  0  0  0  0
   14.2439  -14.5085   19.4566 N   0  0  0  0  0  0  0  0  0  0  0  0
   14.8382  -14.7519   20.7156 C   0  0  0  0  0  0  0  0  0  0  0  0
   16.0876  -14.8049   20.8294 O   0  0  0  0  0  0  0  0  0  0  0  0
   13.9973  -14.9398   21.9088 C   0  0  0  0  0  0  0  0  0  0  0  0
   13.3858  -16.2751   22.0677 C   0  0  0  0  0  0  0  0  0  0  0  0
   12.5377  -16.5421   23.2498 C   0  0  2  0  0  0  0  0  0  0  0  0
   11.3395  -15.6807   23.0945 N   0  0  0  0  0  0  0  0  0  0  0  0
   13.0948  -16.4682   24.5775 C   0  0  0  0  0  0  0  0  0  0  0  0
   14.1661  -17.2077   25.0692 O   0  0  0  0  0  0  0  0  0  0  0  0
   12.5938  -15.6626   25.4442 O   0  0  0  0  0  0  0  0  0  0  0  0
  2  1  1  1
  3  2  1  0
  4  3  1  0
  4  5  1  0
  5  6  1  0
  6  7  1  0
  8  2  1  0
  8  9  2  0
 11 10  1  6
 11 13  1  0
 12 11  1  0
 13 14  1  6
 14  8  1  0
 15 23  1  0
 15 13  1  0
 16 15  2  0
 17 18  1  0
 18 19  2  0
 18 20  1  0
 20 21  1  0
 22 21  1  6
 22 23  1  0
 22 24  1  0
 24 25  1  0
 26 24  2  0
M  END
$$$$
