KTQ.pdb
     RDKit          3D

 26 25  0  0  1  0  0  0  0  0999 V2000
   10.3110  -21.8249   13.6436 N   0  0  0  0  0  0  0  0  0  0  0  0
   10.0020  -22.6454   14.7867 C   0  0  1  0  0  0  0  0  0  0  0  0
   10.9163  -23.8264   14.8327 C   0  0  0  0  0  0  0  0  0  0  0  0
   10.9066  -24.7246   13.6553 C   0  0  0  0  0  0  0  0  0  0  0  0
   11.9538  -24.5378   12.6276 C   0  0  0  0  0  0  0  0  0  0  0  0
   12.0656  -25.6337   11.6083 C   0  0  0  0  0  0  0  0  0  0  0  0
   13.1379  -25.4232   10.6665 N   0  0  0  0  0  0  0  0  0  0  0  0
   10.2450  -21.8042   16.0143 C   0  0  0  0  0  0  0  0  0  0  0  0
   10.9527  -20.7668   15.9634 O   0  0  0  0  0  0  0  0  0  0  0  0
    7.8524  -19.8939   17.8383 C   0  0  0  0  0  0  0  0  0  0  0  0
    8.4042  -20.8575   18.8681 C   0  0  1  0  0  0  0  0  0  0  0  0
    7.4820  -21.8876   18.9940 O   0  0  0  0  0  0  0  0  0  0  0  0
    9.7751  -21.3713   18.4609 C   0  0  2  0  0  0  0  0  0  0  0  0
    9.6694  -22.1826   17.2490 N   0  0  0  0  0  0  0  0  0  0  0  0
   10.3572  -22.2297   19.5230 C   0  0  0  0  0  0  0  0  0  0  0  0
   10.2356  -23.5027   19.4869 O   0  0  0  0  0  0  0  0  0  0  0  0
   14.5429  -20.3914   24.0341 N   0  0  0  0  0  0  0  0  0  0  0  0
   14.7177  -21.7808   23.8431 C   0  0  0  0  0  0  0  0  0  0  0  0
   15.7918  -22.3385   24.1779 O   0  0  0  0  0  0  0  0  0  0  0  0
   13.6384  -22.5900   23.2545 C   0  0  0  0  0  0  0  0  0  0  0  0
   12.8390  -21.9358   22.1985 C   0  0  0  0  0  0  0  0  0  0  0  0
   11.6359  -22.6210   21.6780 C   0  0  2  0  0  0  0  0  0  0  0  0
   11.0767  -21.7261   20.6348 N   0  0  0  0  0  0  0  0  0  0  0  0
   10.6232  -23.1030   22.5839 C   0  0  0  0  0  0  0  0  0  0  0  0
    9.4937  -22.4102   23.0091 O   0  0  0  0  0  0  0  0  0  0  0  0
   10.7168  -24.2804   23.0900 O   0  0  0  0  0  0  0  0  0  0  0  0
  2  1  1  6
  3  2  1  0
  4  3  1  0
  4  5  1  0
  5  6  1  0
  6  7  1  0
  8  2  1  0
  8  9  2  0
 11 10  1  6
 11 13  1  0
 12 11  1  0
 13 14  1  6
 14  8  1  0
 15 23  1  0
 15 13  1  0
 16 15  2  0
 17 18  1  0
 18 19  2  0
 18 20  1  0
 20 21  1  0
 22 21  1  1
 22 23  1  0
 22 24  1  0
 24 25  1  0
 26 24  2  0
M  END
$$$$
