KTQ.pdb
     RDKit          3D

 26 25  0  0  1  0  0  0  0  0999 V2000
    9.5544  -15.6403   18.4876 N   0  0  0  0  0  0  0  0  0  0  0  0
    9.4999  -14.2013   18.5325 C   0  0  1  0  0  0  0  0  0  0  0  0
    8.5931  -13.6886   17.4612 C   0  0  0  0  0  0  0  0  0  0  0  0
    8.0436  -14.6881   16.5166 C   0  0  0  0  0  0  0  0  0  0  0  0
    8.5061  -14.6477   15.1123 C   0  0  0  0  0  0  0  0  0  0  0  0
    7.9039  -15.6768   14.2008 C   0  0  0  0  0  0  0  0  0  0  0  0
    8.4588  -15.6475   12.8695 N   0  0  0  0  0  0  0  0  0  0  0  0
    8.9205  -13.8217   19.8719 C   0  0  0  0  0  0  0  0  0  0  0  0
    8.6055  -12.6331   20.1320 O   0  0  0  0  0  0  0  0  0  0  0  0
    5.8672  -14.2319   21.6945 C   0  0  0  0  0  0  0  0  0  0  0  0
    6.8931  -15.0390   22.4625 C   0  0  1  0  0  0  0  0  0  0  0  0
    6.7593  -16.3587   22.0530 O   0  0  0  0  0  0  0  0  0  0  0  0
    8.2981  -14.5116   22.2236 C   0  0  2  0  0  0  0  0  0  0  0  0
    8.7247  -14.8153   20.8584 N   0  0  0  0  0  0  0  0  0  0  0  0
    9.2690  -15.1506   23.1470 C   0  0  0  0  0  0  0  0  0  0  0  0
   10.1167  -16.0111   22.7255 O   0  0  0  0  0  0  0  0  0  0  0  0
   10.4217  -13.3706   29.0939 N   0  0  0  0  0  0  0  0  0  0  0  0
   10.9879  -14.6654   29.0950 C   0  0  0  0  0  0  0  0  0  0  0  0
   11.5266  -15.1230   30.1329 O   0  0  0  0  0  0  0  0  0  0  0  0
   10.9464  -15.4941   27.8793 C   0  0  0  0  0  0  0  0  0  0  0  0
   10.2065  -14.9277   26.7331 C   0  0  0  0  0  0  0  0  0  0  0  0
   10.1720  -15.6765   25.4579 C   0  0  2  0  0  0  0  0  0  0  0  0
    9.3375  -14.8693   24.5339 N   0  0  0  0  0  0  0  0  0  0  0  0
    9.8102  -17.0720   25.4424 C   0  0  0  0  0  0  0  0  0  0  0  0
   10.5771  -18.1217   24.9459 O   0  0  0  0  0  0  0  0  0  0  0  0
    8.6764  -17.4505   25.9139 O   0  0  0  0  0  0  0  0  0  0  0  0
  2  1  1  1
  3  2  1  0
  4  3  1  0
  4  5  1  0
  5  6  1  0
  6  7  1  0
  8  2  1  0
  8  9  2  0
 11 10  1  6
 11 13  1  0
 12 11  1  0
 13 14  1  6
 14  8  1  0
 15 23  1  0
 15 13  1  0
 16 15  2  0
 17 18  1  0
 18 19  2  0
 18 20  1  0
 20 21  1  0
 22 21  1  1
 22 23  1  0
 22 24  1  0
 24 25  1  0
 26 24  2  0
M  END
$$$$
