KTQ.pdb
     RDKit          3D

 26 25  0  0  1  0  0  0  0  0999 V2000
   10.2509  -16.6648   17.4790 N   0  0  0  0  0  0  0  0  0  0  0  0
   10.4694  -17.3069   18.7500 C   0  0  1  0  0  0  0  0  0  0  0  0
   11.8703  -17.8205   18.8312 C   0  0  0  0  0  0  0  0  0  0  0  0
   12.5265  -18.1755   17.5520 C   0  0  0  0  0  0  0  0  0  0  0  0
   13.9115  -18.6925   17.5993 C   0  0  0  0  0  0  0  0  0  0  0  0
   14.4794  -19.1477   16.2867 C   0  0  0  0  0  0  0  0  0  0  0  0
   15.8926  -19.4309   16.3495 N   0  0  0  0  0  0  0  0  0  0  0  0
   10.2827  -16.2559   19.8150 C   0  0  0  0  0  0  0  0  0  0  0  0
   10.9478  -15.1896   19.8015 O   0  0  0  0  0  0  0  0  0  0  0  0
    7.1361  -14.4678   20.4978 C   0  0  0  0  0  0  0  0  0  0  0  0
    7.5188  -15.1434   21.7979 C   0  0  1  0  0  0  0  0  0  0  0  0
    6.7533  -16.2975   21.8953 O   0  0  0  0  0  0  0  0  0  0  0  0
    9.0074  -15.4458   21.8427 C   0  0  2  0  0  0  0  0  0  0  0  0
    9.3441  -16.4665   20.8512 N   0  0  0  0  0  0  0  0  0  0  0  0
    9.4028  -15.9698   23.1742 C   0  0  0  0  0  0  0  0  0  0  0  0
    9.9224  -17.1319   23.3013 O   0  0  0  0  0  0  0  0  0  0  0  0
   11.5286  -13.2806   28.8270 N   0  0  0  0  0  0  0  0  0  0  0  0
   10.2239  -13.8177   28.9086 C   0  0  0  0  0  0  0  0  0  0  0  0
    9.3726  -13.3059   29.6768 O   0  0  0  0  0  0  0  0  0  0  0  0
    9.8477  -14.9801   28.0881 C   0  0  0  0  0  0  0  0  0  0  0  0
    9.5842  -14.7083   26.6602 C   0  0  0  0  0  0  0  0  0  0  0  0
    9.5988  -15.8325   25.6990 C   0  0  2  0  0  0  0  0  0  0  0  0
    9.2430  -15.2476   24.3826 N   0  0  0  0  0  0  0  0  0  0  0  0
    8.8600  -17.0388   25.9780 C   0  0  0  0  0  0  0  0  0  0  0  0
    7.5796  -17.3490   25.5300 O   0  0  0  0  0  0  0  0  0  0  0  0
    9.3769  -17.9573   26.7130 O   0  0  0  0  0  0  0  0  0  0  0  0
  2  1  1  6
  3  2  1  0
  4  3  1  0
  4  5  1  0
  5  6  1  0
  6  7  1  0
  8  2  1  0
  8  9  2  0
 11 10  1  6
 11 13  1  0
 12 11  1  0
 13 14  1  6
 14  8  1  0
 15 23  1  0
 15 13  1  0
 16 15  2  0
 17 18  1  0
 18 19  2  0
 18 20  1  0
 20 21  1  0
 22 21  1  1
 22 23  1  0
 22 24  1  0
 24 25  1  0
 26 24  2  0
M  END
$$$$
