KTQ.pdb
     RDKit          3D

 26 25  0  0  1  0  0  0  0  0999 V2000
    6.1707  -17.1416   20.3207 N   0  0  0  0  0  0  0  0  0  0  0  0
    7.3227  -16.4899   20.8897 C   0  0  1  0  0  0  0  0  0  0  0  0
    7.0318  -15.0423   21.1195 C   0  0  0  0  0  0  0  0  0  0  0  0
    7.2523  -14.1271   19.9762 C   0  0  0  0  0  0  0  0  0  0  0  0
    8.4845  -13.3091   19.9661 C   0  0  0  0  0  0  0  0  0  0  0  0
    8.6090  -12.3373   18.8292 C   0  0  0  0  0  0  0  0  0  0  0  0
    9.7915  -11.5153   18.9142 N   0  0  0  0  0  0  0  0  0  0  0  0
    7.5871  -17.1423   22.2231 C   0  0  0  0  0  0  0  0  0  0  0  0
    6.6459  -17.4364   23.0024 O   0  0  0  0  0  0  0  0  0  0  0  0
    8.5807  -20.3223   22.7303 C   0  0  0  0  0  0  0  0  0  0  0  0
    9.6755  -19.5887   23.4764 C   0  0  1  0  0  0  0  0  0  0  0  0
   10.8002  -19.6034   22.6626 O   0  0  0  0  0  0  0  0  0  0  0  0
    9.2484  -18.1731   23.8268 C   0  0  2  0  0  0  0  0  0  0  0  0
    8.9155  -17.4320   22.6110 N   0  0  0  0  0  0  0  0  0  0  0  0
   10.3451  -17.4413   24.5090 C   0  0  0  0  0  0  0  0  0  0  0  0
   10.9268  -16.4480   23.9505 O   0  0  0  0  0  0  0  0  0  0  0  0
    8.1221  -13.5196   27.6849 N   0  0  0  0  0  0  0  0  0  0  0  0
    9.2187  -14.0758   28.3817 C   0  0  0  0  0  0  0  0  0  0  0  0
    9.1803  -14.2028   29.6304 O   0  0  0  0  0  0  0  0  0  0  0  0
   10.4161  -14.5178   27.6489 C   0  0  0  0  0  0  0  0  0  0  0  0
   10.2438  -15.6968   26.7757 C   0  0  0  0  0  0  0  0  0  0  0  0
   11.2984  -16.7337   26.7502 C   0  0  2  0  0  0  0  0  0  0  0  0
   10.8266  -17.7712   25.8000 N   0  0  0  0  0  0  0  0  0  0  0  0
   11.7899  -17.3030   27.9803 C   0  0  0  0  0  0  0  0  0  0  0  0
   12.8974  -16.8762   28.7068 O   0  0  0  0  0  0  0  0  0  0  0  0
   11.1942  -18.3114   28.5086 O   0  0  0  0  0  0  0  0  0  0  0  0
  2  1  1  1
  3  2  1  0
  4  3  1  0
  4  5  1  0
  5  6  1  0
  6  7  1  0
  8  2  1  0
  8  9  2  0
 11 10  1  6
 11 13  1  0
 12 11  1  0
 13 14  1  6
 14  8  1  0
 15 23  1  0
 15 13  1  0
 16 15  2  0
 17 18  1  0
 18 19  2  0
 18 20  1  0
 20 21  1  0
 22 21  1  1
 22 23  1  0
 22 24  1  0
 24 25  1  0
 26 24  2  0
M  END
$$$$
