KTQ.pdb
     RDKit          3D

 26 25  0  0  1  0  0  0  0  0999 V2000
    9.3385  -15.3870   14.9278 N   0  0  0  0  0  0  0  0  0  0  0  0
    9.2860  -16.2474   16.0821 C   0  0  1  0  0  0  0  0  0  0  0  0
   10.3177  -17.3223   15.9681 C   0  0  0  0  0  0  0  0  0  0  0  0
   10.8892  -17.5594   14.6226 C   0  0  0  0  0  0  0  0  0  0  0  0
   11.8363  -18.6831   14.4559 C   0  0  0  0  0  0  0  0  0  0  0  0
   12.4168  -18.8441   13.0812 C   0  0  0  0  0  0  0  0  0  0  0  0
   13.2712  -20.0001   12.9597 N   0  0  0  0  0  0  0  0  0  0  0  0
    9.6121  -15.3968   17.2837 C   0  0  0  0  0  0  0  0  0  0  0  0
   10.6338  -14.6652   17.3059 O   0  0  0  0  0  0  0  0  0  0  0  0
    7.0814  -13.0342   19.0862 C   0  0  0  0  0  0  0  0  0  0  0  0
    7.6584  -14.0155   20.0850 C   0  0  1  0  0  0  0  0  0  0  0  0
    6.7047  -15.0059   20.2771 O   0  0  0  0  0  0  0  0  0  0  0  0
    8.9778  -14.5876   19.5939 C   0  0  2  0  0  0  0  0  0  0  0  0
    8.7577  -15.4171   18.4100 N   0  0  0  0  0  0  0  0  0  0  0  0
    9.6025  -15.4469   20.6308 C   0  0  0  0  0  0  0  0  0  0  0  0
   10.1123  -16.5816   20.3319 O   0  0  0  0  0  0  0  0  0  0  0  0
   14.2440  -18.5064   22.1904 N   0  0  0  0  0  0  0  0  0  0  0  0
   13.2326  -17.9584   21.3693 C   0  0  0  0  0  0  0  0  0  0  0  0
   13.4625  -17.7047   20.1612 O   0  0  0  0  0  0  0  0  0  0  0  0
   11.8961  -17.6849   21.9215 C   0  0  0  0  0  0  0  0  0  0  0  0
   11.6679  -16.3127   22.4187 C   0  0  0  0  0  0  0  0  0  0  0  0
   10.3514  -15.9666   22.9974 C   0  0  2  0  0  0  0  0  0  0  0  0
    9.6850  -15.0930   22.0002 N   0  0  0  0  0  0  0  0  0  0  0  0
   10.2606  -15.4363   24.3350 C   0  0  0  0  0  0  0  0  0  0  0  0
    9.6277  -14.2577   24.7182 O   0  0  0  0  0  0  0  0  0  0  0  0
   10.8028  -16.0635   25.3167 O   0  0  0  0  0  0  0  0  0  0  0  0
  2  1  1  6
  3  2  1  0
  4  3  1  0
  4  5  1  0
  5  6  1  0
  6  7  1  0
  8  2  1  0
  8  9  2  0
 11 10  1  6
 11 13  1  0
 12 11  1  0
 13 14  1  6
 14  8  1  0
 15 23  1  0
 15 13  1  0
 16 15  2  0
 17 18  1  0
 18 19  2  0
 18 20  1  0
 20 21  1  0
 22 21  1  6
 22 23  1  0
 22 24  1  0
 24 25  1  0
 26 24  2  0
M  END
$$$$
