KTQ.pdb
     RDKit          3D

 26 25  0  0  1  0  0  0  0  0999 V2000
    8.5347  -14.4546   13.6188 N   0  0  0  0  0  0  0  0  0  0  0  0
    8.6247  -15.4285   14.6767 C   0  0  1  0  0  0  0  0  0  0  0  0
    9.4483  -16.5936   14.2327 C   0  0  0  0  0  0  0  0  0  0  0  0
    9.7791  -16.6668   12.7910 C   0  0  0  0  0  0  0  0  0  0  0  0
   10.5316  -17.8448   12.3077 C   0  0  0  0  0  0  0  0  0  0  0  0
   10.8746  -17.8411   10.8466 C   0  0  0  0  0  0  0  0  0  0  0  0
   11.5517  -19.0419   10.4213 N   0  0  0  0  0  0  0  0  0  0  0  0
    9.3240  -14.7616   15.8342 C   0  0  0  0  0  0  0  0  0  0  0  0
   10.2626  -13.9472   15.6464 O   0  0  0  0  0  0  0  0  0  0  0  0
    7.4499  -12.9260   18.5346 C   0  0  0  0  0  0  0  0  0  0  0  0
    8.3617  -13.9056   19.2434 C   0  0  1  0  0  0  0  0  0  0  0  0
    7.5672  -14.9596   19.6740 O   0  0  0  0  0  0  0  0  0  0  0  0
    9.4800  -14.3763   18.3285 C   0  0  2  0  0  0  0  0  0  0  0  0
    8.9222  -15.0526   17.1581 N   0  0  0  0  0  0  0  0  0  0  0  0
   10.3631  -15.3452   19.0248 C   0  0  0  0  0  0  0  0  0  0  0  0
   10.8929  -16.3273   18.3991 O   0  0  0  0  0  0  0  0  0  0  0  0
   14.8960  -13.8041   18.2858 N   0  0  0  0  0  0  0  0  0  0  0  0
   15.3698  -14.4482   19.4511 C   0  0  0  0  0  0  0  0  0  0  0  0
   16.5793  -14.3628   19.7777 O   0  0  0  0  0  0  0  0  0  0  0  0
   14.4476  -15.2217   20.2981 C   0  0  0  0  0  0  0  0  0  0  0  0
   13.0083  -15.0564   20.0092 C   0  0  0  0  0  0  0  0  0  0  0  0
   12.0165  -15.6674   20.9208 C   0  0  2  0  0  0  0  0  0  0  0  0
   10.6853  -15.2663   20.4023 N   0  0  0  0  0  0  0  0  0  0  0  0
   12.1259  -15.4812   22.3463 C   0  0  0  0  0  0  0  0  0  0  0  0
   12.9396  -16.2007   23.2162 O   0  0  0  0  0  0  0  0  0  0  0  0
   11.4239  -14.5809   22.9358 O   0  0  0  0  0  0  0  0  0  0  0  0
  2  1  1  6
  3  2  1  0
  4  3  1  0
  4  5  1  0
  5  6  1  0
  6  7  1  0
  8  2  1  0
  8  9  2  0
 11 10  1  6
 11 13  1  0
 12 11  1  0
 13 14  1  6
 14  8  1  0
 15 23  1  0
 15 13  1  0
 16 15  2  0
 17 18  1  0
 18 19  2  0
 18 20  1  0
 20 21  1  0
 22 21  1  6
 22 23  1  0
 22 24  1  0
 24 25  1  0
 26 24  2  0
M  END
$$$$
