KTQ.pdb
     RDKit          3D

 26 25  0  0  1  0  0  0  0  0999 V2000
    8.1944  -15.4947   16.7314 N   0  0  0  0  0  0  0  0  0  0  0  0
    8.8435  -14.2104   16.6631 C   0  0  1  0  0  0  0  0  0  0  0  0
    7.9150  -13.1969   16.0768 C   0  0  0  0  0  0  0  0  0  0  0  0
    7.4991  -13.4066   14.6710 C   0  0  0  0  0  0  0  0  0  0  0  0
    6.8486  -14.6878   14.3205 C   0  0  0  0  0  0  0  0  0  0  0  0
    6.4419  -14.8374   12.8836 C   0  0  0  0  0  0  0  0  0  0  0  0
    5.8537  -16.1222   12.5929 N   0  0  0  0  0  0  0  0  0  0  0  0
    9.1662  -13.8015   18.0781 C   0  0  0  0  0  0  0  0  0  0  0  0
    9.6786  -12.6822   18.3319 O   0  0  0  0  0  0  0  0  0  0  0  0
    7.1492  -13.4946   21.1911 C   0  0  0  0  0  0  0  0  0  0  0  0
    8.1919  -14.5532   21.4838 C   0  0  1  0  0  0  0  0  0  0  0  0
    7.5523  -15.7831   21.4099 O   0  0  0  0  0  0  0  0  0  0  0  0
    9.3563  -14.4611   20.5119 C   0  0  2  0  0  0  0  0  0  0  0  0
    8.8903  -14.6878   19.1445 N   0  0  0  0  0  0  0  0  0  0  0  0
   10.3804  -15.4933   20.8110 C   0  0  0  0  0  0  0  0  0  0  0  0
   10.7026  -16.3777   19.9446 O   0  0  0  0  0  0  0  0  0  0  0  0
   16.7274  -15.1609   19.6360 N   0  0  0  0  0  0  0  0  0  0  0  0
   15.4169  -14.8103   20.0324 C   0  0  0  0  0  0  0  0  0  0  0  0
   14.8670  -13.7803   19.5703 O   0  0  0  0  0  0  0  0  0  0  0  0
   14.6803  -15.6537   20.9875 C   0  0  0  0  0  0  0  0  0  0  0  0
   13.2414  -15.3561   21.1402 C   0  0  0  0  0  0  0  0  0  0  0  0
   12.4520  -16.1121   22.1368 C   0  0  2  0  0  0  0  0  0  0  0  0
   11.0684  -15.5837   22.0463 N   0  0  0  0  0  0  0  0  0  0  0  0
   12.9086  -16.2161   23.5004 C   0  0  0  0  0  0  0  0  0  0  0  0
   13.9236  -17.0419   23.9740 O   0  0  0  0  0  0  0  0  0  0  0  0
   12.3608  -15.5063   24.4208 O   0  0  0  0  0  0  0  0  0  0  0  0
  2  1  1  1
  3  2  1  0
  4  3  1  0
  4  5  1  0
  5  6  1  0
  6  7  1  0
  8  2  1  0
  8  9  2  0
 11 10  1  6
 11 13  1  0
 12 11  1  0
 13 14  1  6
 14  8  1  0
 15 23  1  0
 15 13  1  0
 16 15  2  0
 17 18  1  0
 18 19  2  0
 18 20  1  0
 20 21  1  0
 22 21  1  6
 22 23  1  0
 22 24  1  0
 24 25  1  0
 26 24  2  0
M  END
$$$$
