KTQ.pdb
     RDKit          3D

 26 25  0  0  1  0  0  0  0  0999 V2000
    7.0118  -20.2864   20.3951 N   0  0  0  0  0  0  0  0  0  0  0  0
    6.3057  -19.2568   21.1140 C   0  0  1  0  0  0  0  0  0  0  0  0
    5.5841  -19.8487   22.2810 C   0  0  0  0  0  0  0  0  0  0  0  0
    5.2146  -21.2793   22.1819 C   0  0  0  0  0  0  0  0  0  0  0  0
    5.9079  -22.2410   23.0663 C   0  0  0  0  0  0  0  0  0  0  0  0
    5.4007  -23.6526   23.0143 C   0  0  0  0  0  0  0  0  0  0  0  0
    3.9626  -23.7402   23.0870 N   0  0  0  0  0  0  0  0  0  0  0  0
    7.3400  -18.2893   21.6316 C   0  0  0  0  0  0  0  0  0  0  0  0
    8.5435  -18.6286   21.7586 O   0  0  0  0  0  0  0  0  0  0  0  0
    8.3570  -15.2824   20.0129 C   0  0  0  0  0  0  0  0  0  0  0  0
    7.9124  -14.8061   21.3800 C   0  0  1  0  0  0  0  0  0  0  0  0
    6.6480  -14.2540   21.2250 O   0  0  0  0  0  0  0  0  0  0  0  0
    7.9136  -15.9450   22.3860 C   0  0  2  0  0  0  0  0  0  0  0  0
    6.9567  -16.9745   21.9826 N   0  0  0  0  0  0  0  0  0  0  0  0
    7.5113  -15.4648   23.7319 C   0  0  0  0  0  0  0  0  0  0  0  0
    6.3061  -15.5826   24.1445 O   0  0  0  0  0  0  0  0  0  0  0  0
   11.2820  -15.3042   28.6131 N   0  0  0  0  0  0  0  0  0  0  0  0
   10.1613  -14.6457   29.1677 C   0  0  0  0  0  0  0  0  0  0  0  0
   10.1592  -14.3020   30.3755 O   0  0  0  0  0  0  0  0  0  0  0  0
    8.9861  -14.3504   28.3324 C   0  0  0  0  0  0  0  0  0  0  0  0
    9.1050  -14.6939   26.9006 C   0  0  0  0  0  0  0  0  0  0  0  0
    7.9657  -14.4202   25.9978 C   0  0  2  0  0  0  0  0  0  0  0  0
    8.4028  -14.8531   24.6475 N   0  0  0  0  0  0  0  0  0  0  0  0
    7.3471  -13.1180   25.9801 C   0  0  0  0  0  0  0  0  0  0  0  0
    6.4229  -12.6267   26.8971 O   0  0  0  0  0  0  0  0  0  0  0  0
    7.6301  -12.2813   25.0469 O   0  0  0  0  0  0  0  0  0  0  0  0
  2  1  1  1
  3  2  1  0
  4  3  1  0
  4  5  1  0
  5  6  1  0
  6  7  1  0
  8  2  1  0
  8  9  2  0
 11 10  1  6
 11 13  1  0
 12 11  1  0
 13 14  1  6
 14  8  1  0
 15 23  1  0
 15 13  1  0
 16 15  2  0
 17 18  1  0
 18 19  2  0
 18 20  1  0
 20 21  1  0
 22 21  1  1
 22 23  1  0
 22 24  1  0
 24 25  1  0
 26 24  2  0
M  END
$$$$
