MRN.pdb
     RDKit          3D

 28 27  0  0  1  0  0  0  0  0999 V2000
    7.1988   -5.2408   41.6885 C   0  0  0  0  0  0  0  0  0  0  0  0
    7.9928   -6.8302   41.4478 S   0  0  0  0  0  0  0  0  0  0  0  0
    8.3735   -7.6735   43.0051 C   0  0  0  0  0  0  0  0  0  0  0  0
    9.1632   -8.9416   42.7595 C   0  0  0  0  0  0  0  0  0  0  0  0
    8.2676  -10.1599   42.7622 C   0  0  2  0  0  0  0  0  0  0  0  0
    7.8841  -10.4094   44.1278 N   0  0  0  0  0  0  0  0  0  0  0  0
    8.9272  -11.3438   42.1750 C   0  0  0  0  0  0  0  0  0  0  0  0
    9.5787  -12.0959   42.9314 O   0  0  0  0  0  0  0  0  0  0  0  0
   11.1866  -15.0632   35.4141 N   0  0  0  0  0  0  0  0  0  0  0  0
   10.5534  -16.2510   35.9248 C   0  0  0  0  0  0  0  0  0  0  0  0
   11.1781  -17.3582   35.7514 N   0  0  0  0  0  0  0  0  0  0  0  0
    9.3145  -16.1786   36.5756 N   0  0  0  0  0  0  0  0  0  0  0  0
    8.8025  -14.9185   37.0653 C   0  0  0  0  0  0  0  0  0  0  0  0
    9.5016  -14.4771   38.3479 C   0  0  0  0  0  0  0  0  0  0  0  0
    8.8726  -13.1925   38.8742 C   0  0  0  0  0  0  0  0  0  0  0  0
    9.5240  -12.7518   40.1586 C   0  0  2  0  0  0  0  0  0  0  0  0
    8.8598  -11.6691   40.8067 N   0  0  0  0  0  0  0  0  0  0  0  0
   10.9396  -12.3877   39.8746 C   0  0  0  0  0  0  0  0  0  0  0  0
   11.1851  -11.2763   39.3469 O   0  0  0  0  0  0  0  0  0  0  0  0
   10.8476  -18.2180   36.1900 N   0  0  0  0  0  0  0  0  0  0  0  0
   15.1941  -12.1152   43.0500 C   0  0  0  0  0  0  0  0  0  0  0  0
   14.7112  -11.9576   41.6846 O   0  0  0  0  0  0  0  0  0  0  0  0
   14.6616  -10.7589   41.3171 C   0  0  0  0  0  0  0  0  0  0  0  0
   14.3444  -13.1400   40.8974 C   0  0  2  0  0  0  0  0  0  0  0  0
   13.3712  -12.7776   39.8082 N   0  0  0  0  0  0  0  0  0  0  0  0
   12.0245  -13.2410   40.1739 C   0  0  0  0  0  0  0  0  0  0  0  0
   13.6613  -13.3737   38.5042 O   0  0  0  0  0  0  0  0  0  0  0  0
   12.9066  -14.2249   37.9914 O   0  0  0  0  0  0  0  0  0  0  0  0
  1  2  1  0
  2  3  1  0
  3  4  1  0
  4  5  1  0
  5  6  1  1
  7  5  1  0
  8  7  2  0
 10  9  1  0
 11 10  2  0
 12 10  1  0
 13 12  1  0
 14 13  1  0
 15 14  1  0
 16 15  1  6
 16 17  1  0
 17  7  1  0
 18 16  1  0
 19 18  2  0
 21 20  1  0
 22 21  2  0
 23 21  1  0
 24 23  1  1
 24 25  1  0
 25 18  1  0
 26 24  1  0
 26 28  1  0
 27 26  2  0
M  END
$$$$
