MRN.pdb
     RDKit          3D

 28 27  0  0  1  0  0  0  0  0999 V2000
    7.3000  -12.4622   28.4409 C   0  0  0  0  0  0  0  0  0  0  0  0
    6.2504  -12.2341   27.0053 S   0  0  0  0  0  0  0  0  0  0  0  0
    7.0017  -12.8476   25.4755 C   0  0  0  0  0  0  0  0  0  0  0  0
    7.0521  -14.3606   25.4615 C   0  0  0  0  0  0  0  0  0  0  0  0
    8.4460  -14.8646   25.1622 C   0  0  2  0  0  0  0  0  0  0  0  0
    9.1840  -13.7716   24.5833 N   0  0  0  0  0  0  0  0  0  0  0  0
    8.4393  -16.0333   24.2591 C   0  0  0  0  0  0  0  0  0  0  0  0
    7.9226  -17.0955   24.6675 O   0  0  0  0  0  0  0  0  0  0  0  0
    7.7254  -14.0399   16.5956 N   0  0  0  0  0  0  0  0  0  0  0  0
    8.5789  -13.4717   17.6062 C   0  0  0  0  0  0  0  0  0  0  0  0
    8.4093  -12.2281   17.8726 N   0  0  0  0  0  0  0  0  0  0  0  0
    9.5419  -14.2567   18.2543 N   0  0  0  0  0  0  0  0  0  0  0  0
    9.2077  -15.5593   18.7844 C   0  0  0  0  0  0  0  0  0  0  0  0
    8.6590  -15.4745   20.2058 C   0  0  0  0  0  0  0  0  0  0  0  0
    8.3647  -16.8711   20.7401 C   0  0  0  0  0  0  0  0  0  0  0  0
    9.0595  -17.1106   22.0547 C   0  0  2  0  0  0  0  0  0  0  0  0
    8.9850  -16.0124   22.9612 N   0  0  0  0  0  0  0  0  0  0  0  0
   10.4824  -17.4569   21.7856 C   0  0  0  0  0  0  0  0  0  0  0  0
   10.7465  -18.2471   20.8476 O   0  0  0  0  0  0  0  0  0  0  0  0
    8.9439  -11.7757   18.6143 N   0  0  0  0  0  0  0  0  0  0  0  0
   12.6984  -14.9305   19.7088 C   0  0  0  0  0  0  0  0  0  0  0  0
   13.5469  -15.7517   20.5620 O   0  0  0  0  0  0  0  0  0  0  0  0
   14.5203  -15.1201   21.0395 C   0  0  0  0  0  0  0  0  0  0  0  0
   13.2158  -17.1640   20.7809 C   0  0  1  0  0  0  0  0  0  0  0  0
   12.9052  -17.4230   22.2305 N   0  0  0  0  0  0  0  0  0  0  0  0
   11.5541  -16.9335   22.5420 C   0  0  0  0  0  0  0  0  0  0  0  0
   13.8015  -16.7593   23.1772 O   0  0  0  0  0  0  0  0  0  0  0  0
   13.3989  -15.8520   23.9334 O   0  0  0  0  0  0  0  0  0  0  0  0
  1  2  1  0
  2  3  1  0
  3  4  1  0
  4  5  1  0
  5  6  1  6
  7  5  1  0
  8  7  2  0
 10  9  1  0
 11 10  2  0
 12 10  1  0
 13 12  1  0
 14 13  1  0
 15 14  1  0
 16 15  1  6
 16 17  1  0
 17  7  1  0
 18 16  1  0
 19 18  2  0
 21 20  1  0
 22 21  2  0
 23 21  1  0
 24 23  1  6
 24 25  1  0
 25 18  1  0
 26 24  1  0
 26 28  1  0
 27 26  2  0
M  END
$$$$
