MRN.pdb
     RDKit          3D

 28 27  0  0  1  0  0  0  0  0999 V2000
    8.2616  -11.8958   22.0864 C   0  0  0  0  0  0  0  0  0  0  0  0
    7.1679  -11.5993   20.6969 S   0  0  0  0  0  0  0  0  0  0  0  0
    7.7283  -12.4012   19.1723 C   0  0  0  0  0  0  0  0  0  0  0  0
    7.9806  -13.8774   19.3938 C   0  0  0  0  0  0  0  0  0  0  0  0
    8.5251  -14.5383   18.1474 C   0  0  2  0  0  0  0  0  0  0  0  0
    7.5448  -14.3674   17.1063 N   0  0  0  0  0  0  0  0  0  0  0  0
    8.8285  -15.9685   18.3564 C   0  0  0  0  0  0  0  0  0  0  0  0
    8.3755  -16.7968   17.5373 O   0  0  0  0  0  0  0  0  0  0  0  0
   10.0476  -16.4146   14.3618 N   0  0  0  0  0  0  0  0  0  0  0  0
   10.8879  -17.4800   13.8806 C   0  0  0  0  0  0  0  0  0  0  0  0
   10.5594  -18.0135   12.7610 N   0  0  0  0  0  0  0  0  0  0  0  0
   12.0050  -17.8985   14.6160 N   0  0  0  0  0  0  0  0  0  0  0  0
   12.3080  -17.3196   15.9054 C   0  0  0  0  0  0  0  0  0  0  0  0
   11.2687  -17.6935   16.9584 C   0  0  0  0  0  0  0  0  0  0  0  0
   11.6826  -17.1515   18.3213 C   0  0  0  0  0  0  0  0  0  0  0  0
   10.6314  -17.4319   19.3628 C   0  0  2  0  0  0  0  0  0  0  0  0
    9.6022  -16.4473   19.4311 N   0  0  0  0  0  0  0  0  0  0  0  0
   11.2976  -17.5691   20.6874 C   0  0  0  0  0  0  0  0  0  0  0  0
   11.5608  -16.5326   21.3433 O   0  0  0  0  0  0  0  0  0  0  0  0
   11.0980  -18.7889   12.3745 N   0  0  0  0  0  0  0  0  0  0  0  0
   16.2584  -17.4549   22.4566 C   0  0  0  0  0  0  0  0  0  0  0  0
   15.0342  -18.2089   22.6913 O   0  0  0  0  0  0  0  0  0  0  0  0
   15.0782  -18.9033   23.7354 C   0  0  0  0  0  0  0  0  0  0  0  0
   13.9170  -18.1023   21.7463 C   0  0  2  0  0  0  0  0  0  0  0  0
   12.7076  -18.8348   22.2618 N   0  0  0  0  0  0  0  0  0  0  0  0
   11.6483  -18.8197   21.2421 C   0  0  0  0  0  0  0  0  0  0  0  0
   12.1123  -18.2612   23.4687 O   0  0  0  0  0  0  0  0  0  0  0  0
   11.0074  -17.6818   23.4413 O   0  0  0  0  0  0  0  0  0  0  0  0
  1  2  1  0
  2  3  1  0
  3  4  1  0
  4  5  1  0
  5  6  1  6
  7  5  1  0
  8  7  2  0
 10  9  1  0
 11 10  2  0
 12 10  1  0
 13 12  1  0
 14 13  1  0
 15 14  1  0
 16 15  1  6
 16 17  1  0
 17  7  1  0
 18 16  1  0
 19 18  2  0
 21 20  1  0
 22 21  2  0
 23 21  1  0
 24 23  1  6
 24 25  1  0
 25 18  1  0
 26 24  1  0
 26 28  1  0
 27 26  2  0
M  END
$$$$
