MRN.pdb
     RDKit          3D

 28 27  0  0  1  0  0  0  0  0999 V2000
    7.4262  -10.9631   26.7018 C   0  0  0  0  0  0  0  0  0  0  0  0
    5.8109  -11.7380   26.7721 S   0  0  0  0  0  0  0  0  0  0  0  0
    5.8854  -13.4873   27.2366 C   0  0  0  0  0  0  0  0  0  0  0  0
    6.9045  -14.2307   26.3994 C   0  0  0  0  0  0  0  0  0  0  0  0
    6.2421  -15.2436   25.4929 C   0  0  2  0  0  0  0  0  0  0  0  0
    5.6809  -16.2706   26.3323 N   0  0  0  0  0  0  0  0  0  0  0  0
    7.1836  -15.8204   24.5119 C   0  0  0  0  0  0  0  0  0  0  0  0
    7.7369  -16.9065   24.7885 O   0  0  0  0  0  0  0  0  0  0  0  0
    7.8164  -12.2684   18.5630 N   0  0  0  0  0  0  0  0  0  0  0  0
    7.7736  -13.4838   17.7923 C   0  0  0  0  0  0  0  0  0  0  0  0
    6.8836  -13.5517   16.8707 N   0  0  0  0  0  0  0  0  0  0  0  0
    8.6692  -14.5293   18.0537 N   0  0  0  0  0  0  0  0  0  0  0  0
    9.7775  -14.3510   18.9645 C   0  0  0  0  0  0  0  0  0  0  0  0
    9.6723  -15.2684   20.1795 C   0  0  0  0  0  0  0  0  0  0  0  0
    8.6491  -14.7188   21.1662 C   0  0  0  0  0  0  0  0  0  0  0  0
    8.4562  -15.6542   22.3308 C   0  0  2  0  0  0  0  0  0  0  0  0
    7.4899  -15.2098   23.2806 N   0  0  0  0  0  0  0  0  0  0  0  0
    9.7712  -15.8627   22.9974 C   0  0  0  0  0  0  0  0  0  0  0  0
   10.2655  -14.9252   23.6687 O   0  0  0  0  0  0  0  0  0  0  0  0
    6.9076  -14.2986   16.1762 N   0  0  0  0  0  0  0  0  0  0  0  0
   12.6725  -20.1689   25.8035 C   0  0  0  0  0  0  0  0  0  0  0  0
   12.2722  -18.7712   25.7120 O   0  0  0  0  0  0  0  0  0  0  0  0
   12.9723  -18.0126   26.4253 C   0  0  0  0  0  0  0  0  0  0  0  0
   11.1517  -18.3864   24.8467 C   0  0  2  0  0  0  0  0  0  0  0  0
   11.5622  -17.2994   23.8902 N   0  0  0  0  0  0  0  0  0  0  0  0
   10.4913  -17.0744   22.9080 C   0  0  0  0  0  0  0  0  0  0  0  0
   12.7666  -17.5904   23.1125 O   0  0  0  0  0  0  0  0  0  0  0  0
   13.8630  -17.8157   23.6641 O   0  0  0  0  0  0  0  0  0  0  0  0
  1  2  1  0
  2  3  1  0
  3  4  1  0
  4  5  1  0
  5  6  1  1
  7  5  1  0
  8  7  2  0
 10  9  1  0
 11 10  2  0
 12 10  1  0
 13 12  1  0
 14 13  1  0
 15 14  1  0
 16 15  1  6
 16 17  1  0
 17  7  1  0
 18 16  1  0
 19 18  2  0
 21 20  1  0
 22 21  2  0
 23 21  1  0
 24 23  1  1
 24 25  1  0
 25 18  1  0
 26 24  1  0
 26 28  1  0
 27 26  2  0
M  END
$$$$
