MRN.pdb
     RDKit          3D

 28 27  0  0  1  0  0  0  0  0999 V2000
    7.3689  -11.1852   27.0362 C   0  0  0  0  0  0  0  0  0  0  0  0
    6.9325  -12.4774   28.2000 S   0  0  0  0  0  0  0  0  0  0  0  0
    6.3086  -13.9744   27.3932 C   0  0  0  0  0  0  0  0  0  0  0  0
    6.9821  -14.1936   26.0552 C   0  0  0  0  0  0  0  0  0  0  0  0
    6.5105  -15.4731   25.4018 C   0  0  2  0  0  0  0  0  0  0  0  0
    6.8306  -16.5562   26.2955 N   0  0  0  0  0  0  0  0  0  0  0  0
    7.1232  -15.6857   24.0749 C   0  0  0  0  0  0  0  0  0  0  0  0
    7.7225  -16.7620   23.8638 O   0  0  0  0  0  0  0  0  0  0  0  0
    9.4544  -13.5863   16.8569 N   0  0  0  0  0  0  0  0  0  0  0  0
    8.3506  -14.4780   16.6137 C   0  0  0  0  0  0  0  0  0  0  0  0
    7.9702  -14.6067   15.3951 N   0  0  0  0  0  0  0  0  0  0  0  0
    7.7358  -15.1615   17.6713 N   0  0  0  0  0  0  0  0  0  0  0  0
    8.2994  -15.1368   19.0022 C   0  0  0  0  0  0  0  0  0  0  0  0
    8.3017  -13.7311   19.5962 C   0  0  0  0  0  0  0  0  0  0  0  0
    7.4218  -13.6842   20.8396 C   0  0  0  0  0  0  0  0  0  0  0  0
    7.7589  -14.8031   21.7898 C   0  0  2  0  0  0  0  0  0  0  0  0
    7.0668  -14.7381   23.0348 N   0  0  0  0  0  0  0  0  0  0  0  0
    9.2298  -14.8049   22.0211 C   0  0  0  0  0  0  0  0  0  0  0  0
    9.7097  -14.0215   22.8755 O   0  0  0  0  0  0  0  0  0  0  0  0
    7.2320  -15.2652   15.1457 N   0  0  0  0  0  0  0  0  0  0  0  0
   13.9834  -16.1228   22.8850 C   0  0  0  0  0  0  0  0  0  0  0  0
   12.8466  -16.4345   23.7410 O   0  0  0  0  0  0  0  0  0  0  0  0
   13.1859  -16.8687   24.8683 C   0  0  0  0  0  0  0  0  0  0  0  0
   11.4807  -16.2284   23.2470 C   0  0  1  0  0  0  0  0  0  0  0  0
   11.4934  -15.7556   21.8183 N   0  0  0  0  0  0  0  0  0  0  0  0
   10.1143  -15.6531   21.3189 C   0  0  0  0  0  0  0  0  0  0  0  0
   12.1939  -16.6396   20.8867 O   0  0  0  0  0  0  0  0  0  0  0  0
   11.5876  -17.2499   19.9826 O   0  0  0  0  0  0  0  0  0  0  0  0
  1  2  1  0
  2  3  1  0
  3  4  1  0
  4  5  1  0
  5  6  1  1
  7  5  1  0
  8  7  2  0
 10  9  1  0
 11 10  2  0
 12 10  1  0
 13 12  1  0
 14 13  1  0
 15 14  1  0
 16 15  1  6
 16 17  1  0
 17  7  1  0
 18 16  1  0
 19 18  2  0
 21 20  1  0
 22 21  2  0
 23 21  1  0
 24 23  1  1
 24 25  1  0
 25 18  1  0
 26 24  1  0
 26 28  1  0
 27 26  2  0
M  END
$$$$
