MRN.pdb
     RDKit          3D

 28 27  0  0  1  0  0  0  0  0999 V2000
   14.1761  -15.3572   17.1779 C   0  0  0  0  0  0  0  0  0  0  0  0
   13.7971  -16.9702   16.4927 S   0  0  0  0  0  0  0  0  0  0  0  0
   12.7433  -17.9687   17.5761 C   0  0  0  0  0  0  0  0  0  0  0  0
   12.5109  -17.2746   18.9013 C   0  0  0  0  0  0  0  0  0  0  0  0
   11.6749  -18.1246   19.8315 C   0  0  2  0  0  0  0  0  0  0  0  0
   10.4243  -18.3876   19.1671 N   0  0  0  0  0  0  0  0  0  0  0  0
   11.4510  -17.4741   21.1384 C   0  0  0  0  0  0  0  0  0  0  0  0
   12.4420  -17.2480   21.8659 O   0  0  0  0  0  0  0  0  0  0  0  0
    8.4298  -12.3121   18.1284 N   0  0  0  0  0  0  0  0  0  0  0  0
    8.1968  -13.4755   18.9439 C   0  0  0  0  0  0  0  0  0  0  0  0
    8.6870  -14.5836   18.5221 N   0  0  0  0  0  0  0  0  0  0  0  0
    7.4668  -13.3797   20.1362 N   0  0  0  0  0  0  0  0  0  0  0  0
    7.4166  -14.4820   21.0700 C   0  0  0  0  0  0  0  0  0  0  0  0
    8.6374  -14.5120   21.9851 C   0  0  0  0  0  0  0  0  0  0  0  0
    8.5830  -15.7338   22.8944 C   0  0  0  0  0  0  0  0  0  0  0  0
    9.8828  -16.4941   22.8661 C   0  0  2  0  0  0  0  0  0  0  0  0
   10.1785  -17.0953   21.6073 N   0  0  0  0  0  0  0  0  0  0  0  0
    9.8517  -17.5311   23.9341 C   0  0  0  0  0  0  0  0  0  0  0  0
    8.7409  -17.9190   24.3696 O   0  0  0  0  0  0  0  0  0  0  0  0
    8.5177  -15.4544   19.0259 N   0  0  0  0  0  0  0  0  0  0  0  0
   10.5718  -22.0331   23.5641 C   0  0  0  0  0  0  0  0  0  0  0  0
   11.2756  -20.7785   23.7940 O   0  0  0  0  0  0  0  0  0  0  0  0
   11.5371  -20.1612   22.7333 C   0  0  0  0  0  0  0  0  0  0  0  0
   11.6021  -20.3631   25.1626 C   0  0  2  0  0  0  0  0  0  0  0  0
   10.8527  -19.1125   25.5360 N   0  0  0  0  0  0  0  0  0  0  0  0
   11.0219  -18.1011   24.4821 C   0  0  0  0  0  0  0  0  0  0  0  0
   11.2984  -18.4787   26.7769 O   0  0  0  0  0  0  0  0  0  0  0  0
   11.2080  -19.0599   27.8775 O   0  0  0  0  0  0  0  0  0  0  0  0
  1  2  1  0
  2  3  1  0
  3  4  1  0
  4  5  1  0
  5  6  1  6
  7  5  1  0
  8  7  2  0
 10  9  1  0
 11 10  2  0
 12 10  1  0
 13 12  1  0
 14 13  1  0
 15 14  1  0
 16 15  1  6
 16 17  1  0
 17  7  1  0
 18 16  1  0
 19 18  2  0
 21 20  1  0
 22 21  2  0
 23 21  1  0
 24 23  1  6
 24 25  1  0
 25 18  1  0
 26 24  1  0
 26 28  1  0
 27 26  2  0
M  END
$$$$
