MRN.pdb
     RDKit          3D

 28 27  0  0  1  0  0  0  0  0999 V2000
    6.4411  -11.0047   27.6250 C   0  0  0  0  0  0  0  0  0  0  0  0
    6.9573  -12.6647   27.1862 S   0  0  0  0  0  0  0  0  0  0  0  0
    5.5840  -13.7099   26.6358 C   0  0  0  0  0  0  0  0  0  0  0  0
    6.0851  -14.8856   25.8241 C   0  0  0  0  0  0  0  0  0  0  0  0
    7.5303  -14.7019   25.4191 C   0  0  2  0  0  0  0  0  0  0  0  0
    7.8032  -13.2877   25.4267 N   0  0  0  0  0  0  0  0  0  0  0  0
    7.8218  -15.2880   24.0951 C   0  0  0  0  0  0  0  0  0  0  0  0
    7.6449  -16.5153   23.9378 O   0  0  0  0  0  0  0  0  0  0  0  0
    8.7617  -15.2555   14.8966 N   0  0  0  0  0  0  0  0  0  0  0  0
    8.1847  -14.6272   16.0564 C   0  0  0  0  0  0  0  0  0  0  0  0
    7.9330  -13.3722   15.9677 N   0  0  0  0  0  0  0  0  0  0  0  0
    7.9198  -15.3689   17.2154 N   0  0  0  0  0  0  0  0  0  0  0  0
    7.7333  -14.7161   18.4916 C   0  0  0  0  0  0  0  0  0  0  0  0
    9.0330  -14.6337   19.2869 C   0  0  0  0  0  0  0  0  0  0  0  0
    8.7767  -13.9996   20.6488 C   0  0  0  0  0  0  0  0  0  0  0  0
    8.6888  -15.0444   21.7300 C   0  0  2  0  0  0  0  0  0  0  0  0
    8.2888  -14.5353   23.0005 N   0  0  0  0  0  0  0  0  0  0  0  0
   10.0083  -15.7249   21.8435 C   0  0  0  0  0  0  0  0  0  0  0  0
   10.9535  -15.1237   22.4084 O   0  0  0  0  0  0  0  0  0  0  0  0
    8.1683  -12.8512   15.1228 N   0  0  0  0  0  0  0  0  0  0  0  0
   11.5987  -18.5640   24.0683 C   0  0  0  0  0  0  0  0  0  0  0  0
   11.4596  -19.5308   22.9874 O   0  0  0  0  0  0  0  0  0  0  0  0
   11.2965  -20.7052   23.3977 C   0  0  0  0  0  0  0  0  0  0  0  0
   11.5179  -19.0813   21.5921 C   0  0  2  0  0  0  0  0  0  0  0  0
   11.5954  -17.5804   21.5155 N   0  0  0  0  0  0  0  0  0  0  0  0
   10.2456  -17.0236   21.3416 C   0  0  0  0  0  0  0  0  0  0  0  0
   12.3901  -17.0640   20.4012 O   0  0  0  0  0  0  0  0  0  0  0  0
   13.6159  -16.8582   20.5118 O   0  0  0  0  0  0  0  0  0  0  0  0
  1  2  1  0
  2  3  1  0
  3  4  1  0
  4  5  1  0
  5  6  1  6
  7  5  1  0
  8  7  2  0
 10  9  1  0
 11 10  2  0
 12 10  1  0
 13 12  1  0
 14 13  1  0
 15 14  1  0
 16 15  1  6
 16 17  1  0
 17  7  1  0
 18 16  1  0
 19 18  2  0
 21 20  1  0
 22 21  2  0
 23 21  1  0
 24 23  1  1
 24 25  1  0
 25 18  1  0
 26 24  1  0
 26 28  1  0
 27 26  2  0
M  END
$$$$
