MRN.pdb
     RDKit          3D

 28 27  0  0  1  0  0  0  0  0999 V2000
    5.7717  -11.9730   26.6759 C   0  0  0  0  0  0  0  0  0  0  0  0
    7.2277  -12.5659   27.5380 S   0  0  0  0  0  0  0  0  0  0  0  0
    7.4573  -14.3565   27.3891 C   0  0  0  0  0  0  0  0  0  0  0  0
    6.8732  -14.8751   26.0923 C   0  0  0  0  0  0  0  0  0  0  0  0
    7.0171  -16.3764   25.9824 C   0  0  2  0  0  0  0  0  0  0  0  0
    7.3757  -16.8711   27.2866 N   0  0  0  0  0  0  0  0  0  0  0  0
    8.0208  -16.7725   24.9739 C   0  0  0  0  0  0  0  0  0  0  0  0
    8.6592  -17.8314   25.1565 O   0  0  0  0  0  0  0  0  0  0  0  0
    7.9079  -13.4731   17.1679 N   0  0  0  0  0  0  0  0  0  0  0  0
    8.1490  -12.9404   18.4836 C   0  0  0  0  0  0  0  0  0  0  0  0
    8.4062  -11.6858   18.5601 N   0  0  0  0  0  0  0  0  0  0  0  0
    8.1010  -13.7701   19.6118 N   0  0  0  0  0  0  0  0  0  0  0  0
    7.4893  -15.0784   19.5493 C   0  0  0  0  0  0  0  0  0  0  0  0
    7.6125  -15.8308   20.8712 C   0  0  0  0  0  0  0  0  0  0  0  0
    8.9801  -15.5784   21.4945 C   0  0  0  0  0  0  0  0  0  0  0  0
    9.1663  -16.3890   22.7500 C   0  0  2  0  0  0  0  0  0  0  0  0
    8.2955  -16.0186   23.8167 N   0  0  0  0  0  0  0  0  0  0  0  0
   10.5858  -16.2752   23.1847 C   0  0  0  0  0  0  0  0  0  0  0  0
   10.9162  -15.3224   23.9311 O   0  0  0  0  0  0  0  0  0  0  0  0
    8.6458  -11.2558   19.4537 N   0  0  0  0  0  0  0  0  0  0  0  0
   12.5339  -20.3205   24.1807 C   0  0  0  0  0  0  0  0  0  0  0  0
   13.1734  -19.0423   24.4625 O   0  0  0  0  0  0  0  0  0  0  0  0
   13.1949  -18.7636   25.6857 C   0  0  0  0  0  0  0  0  0  0  0  0
   13.7079  -18.2333   23.3615 C   0  0  2  0  0  0  0  0  0  0  0  0
   12.9591  -16.9337   23.2391 N   0  0  0  0  0  0  0  0  0  0  0  0
   11.5826  -17.1959   22.7932 C   0  0  0  0  0  0  0  0  0  0  0  0
   13.5221  -15.9909   22.2725 O   0  0  0  0  0  0  0  0  0  0  0  0
   12.9260  -15.7044   21.2144 O   0  0  0  0  0  0  0  0  0  0  0  0
  1  2  1  0
  2  3  1  0
  3  4  1  0
  4  5  1  0
  5  6  1  1
  7  5  1  0
  8  7  2  0
 10  9  1  0
 11 10  2  0
 12 10  1  0
 13 12  1  0
 14 13  1  0
 15 14  1  0
 16 15  1  6
 16 17  1  0
 17  7  1  0
 18 16  1  0
 19 18  2  0
 21 20  1  0
 22 21  2  0
 23 21  1  0
 24 23  1  1
 24 25  1  0
 25 18  1  0
 26 24  1  0
 26 28  1  0
 27 26  2  0
M  END
$$$$
