VQR.pdb
     RDKit          3D

 28 27  0  0  1  0  0  0  0  0999 V2000
   27.7377  -28.4913  -17.7259 C   0  0  0  0  0  0  0  0  0  0  0  0
   29.0767  -28.5413  -17.0468 C   0  0  2  0  0  0  0  0  0  0  0  0
   29.8963  -27.3045  -17.2588 C   0  0  0  0  0  0  0  0  0  0  0  0
   29.8478  -29.7159  -17.6154 C   0  0  2  0  0  0  0  0  0  0  0  0
   30.2167  -29.5189  -18.9763 N   0  0  0  0  0  0  0  0  0  0  0  0
   29.0347  -30.9488  -17.3935 C   0  0  0  0  0  0  0  0  0  0  0  0
   28.2676  -31.3081  -18.2959 O   0  0  0  0  0  0  0  0  0  0  0  0
   30.0277  -36.2373  -15.2401 N   0  0  0  0  0  0  0  0  0  0  0  0
   28.7018  -36.1583  -14.6901 C   0  0  0  0  0  0  0  0  0  0  0  0
   28.1022  -37.1892  -14.3881 O   0  0  0  0  0  0  0  0  0  0  0  0
   28.0554  -34.8122  -14.4828 C   0  0  0  0  0  0  0  0  0  0  0  0
   29.0086  -33.7448  -14.8759 C   0  0  0  0  0  0  0  0  0  0  0  0
   28.3323  -32.6989  -15.7321 C   0  0  2  0  0  0  0  0  0  0  0  0
   29.1703  -31.6396  -16.1906 N   0  0  0  0  0  0  0  0  0  0  0  0
   27.0092  -32.2755  -15.2543 C   0  0  0  0  0  0  0  0  0  0  0  0
   26.9599  -31.2296  -14.5576 O   0  0  0  0  0  0  0  0  0  0  0  0
   22.2030  -26.8685  -17.9888 N   0  0  0  0  0  0  0  0  0  0  0  0
   21.2690  -27.3997  -17.0554 C   0  0  0  0  0  0  0  0  0  0  0  0
   20.1653  -26.8210  -16.7776 N   0  0  0  0  0  0  0  0  0  0  0  0
   21.5844  -28.6220  -16.4125 N   0  0  0  0  0  0  0  0  0  0  0  0
   22.8980  -29.2501  -16.6316 C   0  0  0  0  0  0  0  0  0  0  0  0
   23.0201  -30.5112  -15.8739 C   0  0  0  0  0  0  0  0  0  0  0  0
   24.3022  -31.1886  -15.8460 C   0  0  0  0  0  0  0  0  0  0  0  0
   24.5118  -32.4204  -15.0687 C   0  0  2  0  0  0  0  0  0  0  0  0
   25.8255  -32.9640  -15.5303 N   0  0  0  0  0  0  0  0  0  0  0  0
   23.6078  -33.5481  -15.1705 C   0  0  0  0  0  0  0  0  0  0  0  0
   23.8256  -34.5135  -15.9216 O   0  0  0  0  0  0  0  0  0  0  0  0
   22.4322  -33.5961  -14.4125 O   0  0  0  0  0  0  0  0  0  0  0  0
  2  1  1  6
  3  2  1  0
  4  2  1  0
  4  5  1  6
  6  4  1  0
  7  6  2  0
  9  8  1  0
  9 11  1  0
 10  9  2  0
 12 11  1  0
 13 12  1  1
 13 14  1  0
 14  6  1  0
 15 25  1  0
 15 13  1  0
 16 15  2  0
 17 18  1  0
 18 19  2  0
 20 18  1  0
 21 20  1  0
 22 21  1  0
 23 22  1  0
 24 23  1  6
 24 25  1  0
 26 28  1  0
 26 24  1  0
 27 26  2  0
M  END
$$$$
