VQR.pdb
     RDKit          3D

 28 27  0  0  1  0  0  0  0  0999 V2000
   19.5205  -11.7681  -15.1116 C   0  0  0  0  0  0  0  0  0  0  0  0
   18.0302  -11.9521  -15.1514 C   0  0  2  0  0  0  0  0  0  0  0  0
   17.5866  -12.9916  -16.1359 C   0  0  0  0  0  0  0  0  0  0  0  0
   17.4046  -10.6311  -15.5531 C   0  0  2  0  0  0  0  0  0  0  0  0
   17.7477  -10.2463  -16.8802 N   0  0  0  0  0  0  0  0  0  0  0  0
   17.7794   -9.6149  -14.5249 C   0  0  0  0  0  0  0  0  0  0  0  0
   17.4620   -9.8350  -13.3490 O   0  0  0  0  0  0  0  0  0  0  0  0
   22.7683   -5.8594  -14.8997 N   0  0  0  0  0  0  0  0  0  0  0  0
   22.1202   -5.4061  -13.6991 C   0  0  0  0  0  0  0  0  0  0  0  0
   22.7009   -4.6232  -12.9486 O   0  0  0  0  0  0  0  0  0  0  0  0
   20.7309   -5.8897  -13.3691 C   0  0  0  0  0  0  0  0  0  0  0  0
   20.3048   -6.8860  -14.3831 C   0  0  0  0  0  0  0  0  0  0  0  0
   18.9281   -7.4261  -14.0709 C   0  0  2  0  0  0  0  0  0  0  0  0
   18.4654   -8.4699  -14.9259 N   0  0  0  0  0  0  0  0  0  0  0  0
   17.9248   -6.4022  -13.7496 C   0  0  0  0  0  0  0  0  0  0  0  0
   17.2870   -5.9038  -14.7122 O   0  0  0  0  0  0  0  0  0  0  0  0
   13.4254   -4.8001   -6.3657 N   0  0  0  0  0  0  0  0  0  0  0  0
   12.9388   -3.7868   -7.2387 C   0  0  0  0  0  0  0  0  0  0  0  0
   12.0236   -2.9639   -6.8991 N   0  0  0  0  0  0  0  0  0  0  0  0
   13.4989   -3.6938   -8.5367 N   0  0  0  0  0  0  0  0  0  0  0  0
   14.5265   -4.6577   -8.9645 C   0  0  0  0  0  0  0  0  0  0  0  0
   15.0944   -4.2862  -10.2756 C   0  0  0  0  0  0  0  0  0  0  0  0
   16.0677   -5.1679  -10.8909 C   0  0  0  0  0  0  0  0  0  0  0  0
   16.6363   -4.8890  -12.2192 C   0  0  2  0  0  0  0  0  0  0  0  0
   17.6493   -5.9632  -12.4525 N   0  0  0  0  0  0  0  0  0  0  0  0
   17.3533   -3.6612  -12.4981 C   0  0  0  0  0  0  0  0  0  0  0  0
   18.5847   -3.5619  -12.3666 O   0  0  0  0  0  0  0  0  0  0  0  0
   16.6750   -2.5176  -12.9352 O   0  0  0  0  0  0  0  0  0  0  0  0
  2  1  1  6
  3  2  1  0
  4  2  1  0
  4  5  1  6
  6  4  1  0
  7  6  2  0
  9  8  1  0
  9 11  1  0
 10  9  2  0
 12 11  1  0
 13 12  1  6
 13 14  1  0
 14  6  1  0
 15 25  1  0
 15 13  1  0
 16 15  2  0
 17 18  1  0
 18 19  2  0
 20 18  1  0
 21 20  1  0
 22 21  1  0
 23 22  1  0
 24 23  1  1
 24 25  1  0
 26 28  1  0
 26 24  1  0
 27 26  2  0
M  END
$$$$
