VQR.pdb
     RDKit          3D

 28 27  0  0  1  0  0  0  0  0999 V2000
   15.8978   -9.9171  -11.7458 C   0  0  0  0  0  0  0  0  0  0  0  0
   15.9480  -10.6302  -10.4248 C   0  0  2  0  0  0  0  0  0  0  0  0
   15.8231  -12.1187  -10.5486 C   0  0  0  0  0  0  0  0  0  0  0  0
   14.7925  -10.1333   -9.5789 C   0  0  2  0  0  0  0  0  0  0  0  0
   13.5717  -10.8031   -9.8756 N   0  0  0  0  0  0  0  0  0  0  0  0
   14.7104   -8.6509   -9.7403 C   0  0  0  0  0  0  0  0  0  0  0  0
   14.0033   -8.2049  -10.6531 O   0  0  0  0  0  0  0  0  0  0  0  0
   14.3250   -4.2779   -5.5153 N   0  0  0  0  0  0  0  0  0  0  0  0
   13.2961   -4.6968   -6.4279 C   0  0  0  0  0  0  0  0  0  0  0  0
   12.1171   -4.4545   -6.1737 O   0  0  0  0  0  0  0  0  0  0  0  0
   13.6686   -5.4270   -7.6932 C   0  0  0  0  0  0  0  0  0  0  0  0
   15.1359   -5.6480   -7.7179 C   0  0  0  0  0  0  0  0  0  0  0  0
   15.5501   -6.4173   -8.9513 C   0  0  2  0  0  0  0  0  0  0  0  0
   15.4262   -7.8357   -8.8653 N   0  0  0  0  0  0  0  0  0  0  0  0
   16.7888   -5.9439   -9.5834 C   0  0  0  0  0  0  0  0  0  0  0  0
   17.8693   -6.2147   -8.9993 O   0  0  0  0  0  0  0  0  0  0  0  0
   21.9867   -7.7119  -14.6928 N   0  0  0  0  0  0  0  0  0  0  0  0
   21.8249   -8.5612  -13.5622 C   0  0  0  0  0  0  0  0  0  0  0  0
   22.2600   -9.7612  -13.5322 N   0  0  0  0  0  0  0  0  0  0  0  0
   21.1525   -8.0460  -12.4267 N   0  0  0  0  0  0  0  0  0  0  0  0
   20.9568   -6.5935  -12.2847 C   0  0  0  0  0  0  0  0  0  0  0  0
   19.7268   -6.1507  -12.9704 C   0  0  0  0  0  0  0  0  0  0  0  0
   18.4915   -6.0801  -12.2138 C   0  0  0  0  0  0  0  0  0  0  0  0
   18.1344   -4.8928  -11.4210 C   0  0  2  0  0  0  0  0  0  0  0  0
   16.8254   -5.2217  -10.7786 N   0  0  0  0  0  0  0  0  0  0  0  0
   17.9091   -3.6028  -12.0410 C   0  0  0  0  0  0  0  0  0  0  0  0
   16.7879   -3.2351  -12.4300 O   0  0  0  0  0  0  0  0  0  0  0  0
   18.9644   -2.7028  -12.2290 O   0  0  0  0  0  0  0  0  0  0  0  0
  2  1  1  6
  3  2  1  0
  4  2  1  0
  4  5  1  6
  6  4  1  0
  7  6  2  0
  9  8  1  0
  9 11  1  0
 10  9  2  0
 12 11  1  0
 13 12  1  1
 13 14  1  0
 14  6  1  0
 15 25  1  0
 15 13  1  0
 16 15  2  0
 17 18  1  0
 18 19  2  0
 20 18  1  0
 21 20  1  0
 22 21  1  0
 23 22  1  0
 24 23  1  6
 24 25  1  0
 26 28  1  0
 26 24  1  0
 27 26  2  0
M  END
$$$$
