VQR.pdb
     RDKit          3D

 28 27  0  0  1  0  0  0  0  0999 V2000
   17.7920  -10.8836  -16.3563 C   0  0  0  0  0  0  0  0  0  0  0  0
   19.1021  -10.8582  -17.0906 C   0  0  2  0  0  0  0  0  0  0  0  0
   19.2180  -11.9267  -18.1353 C   0  0  0  0  0  0  0  0  0  0  0  0
   20.2112  -11.0713  -16.0794 C   0  0  2  0  0  0  0  0  0  0  0  0
   20.1962  -12.3811  -15.5214 N   0  0  0  0  0  0  0  0  0  0  0  0
   20.1121   -9.9888  -15.0553 C   0  0  0  0  0  0  0  0  0  0  0  0
   19.4861  -10.2298  -14.0151 O   0  0  0  0  0  0  0  0  0  0  0  0
   23.7948   -4.8031  -14.9281 N   0  0  0  0  0  0  0  0  0  0  0  0
   22.7861   -4.5031  -13.9486 C   0  0  0  0  0  0  0  0  0  0  0  0
   22.8615   -3.4666  -13.2903 O   0  0  0  0  0  0  0  0  0  0  0  0
   21.6394   -5.4587  -13.7369 C   0  0  0  0  0  0  0  0  0  0  0  0
   21.7479   -6.5771  -14.7064 C   0  0  0  0  0  0  0  0  0  0  0  0
   20.6686   -7.6087  -14.4707 C   0  0  2  0  0  0  0  0  0  0  0  0
   20.7225   -8.7618  -15.3087 N   0  0  0  0  0  0  0  0  0  0  0  0
   19.3227   -7.0549  -14.2702 C   0  0  0  0  0  0  0  0  0  0  0  0
   18.5720   -6.9958  -15.2775 O   0  0  0  0  0  0  0  0  0  0  0  0
   13.3881   -9.1304   -8.3146 N   0  0  0  0  0  0  0  0  0  0  0  0
   12.7329   -8.5424   -9.4329 C   0  0  0  0  0  0  0  0  0  0  0  0
   11.5112   -8.7777   -9.7196 N   0  0  0  0  0  0  0  0  0  0  0  0
   13.4741   -7.6601  -10.2571 N   0  0  0  0  0  0  0  0  0  0  0  0
   14.8647   -7.9842  -10.6169 C   0  0  0  0  0  0  0  0  0  0  0  0
   15.4510   -6.9386  -11.4783 C   0  0  0  0  0  0  0  0  0  0  0  0
   16.8064   -7.1123  -11.9644 C   0  0  0  0  0  0  0  0  0  0  0  0
   17.4234   -6.1577  -12.8991 C   0  0  2  0  0  0  0  0  0  0  0  0
   18.8446   -6.5994  -13.0392 N   0  0  0  0  0  0  0  0  0  0  0  0
   17.5216   -4.7454  -12.5907 C   0  0  0  0  0  0  0  0  0  0  0  0
   18.5042   -4.2550  -12.0097 O   0  0  0  0  0  0  0  0  0  0  0  0
   16.4952   -3.8611  -12.9421 O   0  0  0  0  0  0  0  0  0  0  0  0
  2  1  1  1
  3  2  1  0
  4  2  1  0
  4  5  1  1
  6  4  1  0
  7  6  2  0
  9  8  1  0
  9 11  1  0
 10  9  2  0
 12 11  1  0
 13 12  1  6
 13 14  1  0
 14  6  1  0
 15 25  1  0
 15 13  1  0
 16 15  2  0
 17 18  1  0
 18 19  2  0
 20 18  1  0
 21 20  1  0
 22 21  1  0
 23 22  1  0
 24 23  1  1
 24 25  1  0
 26 28  1  0
 26 24  1  0
 27 26  2  0
M  END
$$$$
