VQR.pdb
     RDKit          3D

 28 27  0  0  1  0  0  0  0  0999 V2000
   20.7308  -20.6297  -13.3520 C   0  0  0  0  0  0  0  0  0  0  0  0
   21.7693  -19.5445  -13.3537 C   0  0  2  0  0  0  0  0  0  0  0  0
   21.9190  -18.8681  -14.6829 C   0  0  0  0  0  0  0  0  0  0  0  0
   23.1027  -20.1701  -12.9951 C   0  0  2  0  0  0  0  0  0  0  0  0
   23.6663  -20.9088  -14.0738 N   0  0  0  0  0  0  0  0  0  0  0  0
   22.9098  -20.9820  -11.7566 C   0  0  0  0  0  0  0  0  0  0  0  0
   22.4797  -22.1360  -11.8805 O   0  0  0  0  0  0  0  0  0  0  0  0
   25.9016  -20.1411   -6.2307 N   0  0  0  0  0  0  0  0  0  0  0  0
   26.3342  -20.0876   -7.6007 C   0  0  0  0  0  0  0  0  0  0  0  0
   27.4617  -19.6763   -7.8707 O   0  0  0  0  0  0  0  0  0  0  0  0
   25.4048  -20.5400   -8.6982 C   0  0  0  0  0  0  0  0  0  0  0  0
   24.0177  -20.5973   -8.1736 C   0  0  0  0  0  0  0  0  0  0  0  0
   23.0468  -21.0313   -9.2475 C   0  0  2  0  0  0  0  0  0  0  0  0
   23.2187  -20.4140  -10.5219 N   0  0  0  0  0  0  0  0  0  0  0  0
   21.6515  -21.1493   -8.8030 C   0  0  0  0  0  0  0  0  0  0  0  0
   20.8239  -20.3395   -9.2939 O   0  0  0  0  0  0  0  0  0  0  0  0
   16.9030  -26.5953   -9.2650 N   0  0  0  0  0  0  0  0  0  0  0  0
   15.9981  -25.8428  -10.0653 C   0  0  0  0  0  0  0  0  0  0  0  0
   14.7518  -26.1110  -10.1361 N   0  0  0  0  0  0  0  0  0  0  0  0
   16.5092  -24.7520  -10.8108 N   0  0  0  0  0  0  0  0  0  0  0  0
   17.9174  -24.3509  -10.6550 C   0  0  0  0  0  0  0  0  0  0  0  0
   18.1344  -23.6493   -9.3744 C   0  0  0  0  0  0  0  0  0  0  0  0
   19.4461  -23.0984   -9.0927 C   0  0  0  0  0  0  0  0  0  0  0  0
   19.7579  -22.4573   -7.8053 C   0  0  2  0  0  0  0  0  0  0  0  0
   21.2071  -22.0986   -7.8796 N   0  0  0  0  0  0  0  0  0  0  0  0
   19.6346  -23.1702   -6.5500 C   0  0  0  0  0  0  0  0  0  0  0  0
   20.5918  -23.7571   -6.0181 O   0  0  0  0  0  0  0  0  0  0  0  0
   18.4104  -23.2267   -5.8740 O   0  0  0  0  0  0  0  0  0  0  0  0
  2  1  1  6
  3  2  1  0
  4  2  1  0
  4  5  1  6
  6  4  1  0
  7  6  2  0
  9  8  1  0
  9 11  1  0
 10  9  2  0
 12 11  1  0
 13 12  1  1
 13 14  1  0
 14  6  1  0
 15 25  1  0
 15 13  1  0
 16 15  2  0
 17 18  1  0
 18 19  2  0
 20 18  1  0
 21 20  1  0
 22 21  1  0
 23 22  1  0
 24 23  1  6
 24 25  1  0
 26 28  1  0
 26 24  1  0
 27 26  2  0
M  END
$$$$
