AEQ.pdb
     RDKit          3D

 24 23  0  0  1  0  0  0  0  0999 V2000
   25.7299  -31.7865   -8.2220 C   0  0  0  0  0  0  0  0  0  0  0  0
   26.3542  -33.1419   -8.3641 C   0  0  2  0  0  0  0  0  0  0  0  0
   25.8353  -33.8424   -9.5179 N   0  0  0  0  0  0  0  0  0  0  0  0
   26.0923  -33.9301   -7.1155 C   0  0  0  0  0  0  0  0  0  0  0  0
   24.9891  -34.5102   -6.9551 O   0  0  0  0  0  0  0  0  0  0  0  0
   27.0712  -34.0385   -6.0984 N   0  0  0  0  0  0  0  0  0  0  0  0
   26.8296  -34.8636   -4.9205 C   0  0  1  0  0  0  0  0  0  0  0  0
   28.1646  -35.1336   -4.2630 C   0  0  0  0  0  0  0  0  0  0  0  0
   28.8046  -36.3893   -4.7982 C   0  0  0  0  0  0  0  0  0  0  0  0
   30.0679  -36.6602   -4.0772 C   0  0  0  0  0  0  0  0  0  0  0  0
   30.9656  -35.7925   -4.0526 O   0  0  0  0  0  0  0  0  0  0  0  0
   25.9979  -34.0893   -3.9430 C   0  0  0  0  0  0  0  0  0  0  0  0
   26.2499  -32.8871   -3.6734 O   0  0  0  0  0  0  0  0  0  0  0  0
   30.2570  -37.8576   -3.4371 O   0  0  0  0  0  0  0  0  0  0  0  0
   20.0433  -33.1151   -3.9435 N   0  0  0  0  0  0  0  0  0  0  0  0
   20.3829  -32.7893   -2.6131 C   0  0  0  0  0  0  0  0  0  0  0  0
   19.4994  -32.2595   -1.8564 O   0  0  0  0  0  0  0  0  0  0  0  0
   21.7126  -33.0267   -2.0162 C   0  0  0  0  0  0  0  0  0  0  0  0
   22.6988  -33.7208   -2.8860 C   0  0  0  0  0  0  0  0  0  0  0  0
   24.0571  -33.9680   -2.3072 C   0  0  2  0  0  0  0  0  0  0  0  0
   24.8919  -34.6755   -3.2793 N   0  0  0  0  0  0  0  0  0  0  0  0
   24.1837  -34.4678   -0.9585 C   0  0  0  0  0  0  0  0  0  0  0  0
   23.9243  -33.6719    0.1859 O   0  0  0  0  0  0  0  0  0  0  0  0
   24.5304  -35.6383   -0.6529 O   0  0  0  0  0  0  0  0  0  0  0  0
  2  1  1  1
  2  3  1  0
  4  5  2  0
  4  2  1  0
  6  4  1  0
  7  6  1  0
  7  8  1  1
  9  8  1  0
  9 10  1  0
 10 11  2  0
 10 14  1  0
 12  7  1  0
 12 21  1  0
 13 12  2  0
 16 17  2  0
 16 15  1  0
 18 16  1  0
 20 19  1  6
 19 18  1  0
 20 21  1  0
 20 22  1  0
 22 23  1  0
 24 22  2  0
M  END
$$$$
