AEQ.pdb
     RDKit          3D

 24 23  0  0  1  0  0  0  0  0999 V2000
   18.6862  -11.2296  -17.5762 C   0  0  0  0  0  0  0  0  0  0  0  0
   20.1080  -11.1352  -17.1110 C   0  0  2  0  0  0  0  0  0  0  0  0
   20.6326  -12.4345  -16.7536 N   0  0  0  0  0  0  0  0  0  0  0  0
   20.1735  -10.2062  -15.9356 C   0  0  0  0  0  0  0  0  0  0  0  0
   19.7044  -10.5599  -14.8248 O   0  0  0  0  0  0  0  0  0  0  0  0
   20.7591   -8.9222  -16.0482 N   0  0  0  0  0  0  0  0  0  0  0  0
   20.7531   -8.0018  -14.9170 C   0  0  1  0  0  0  0  0  0  0  0  0
   21.9049   -7.0385  -15.0981 C   0  0  0  0  0  0  0  0  0  0  0  0
   21.9869   -6.0496  -13.9632 C   0  0  0  0  0  0  0  0  0  0  0  0
   23.0935   -5.0966  -14.2014 C   0  0  0  0  0  0  0  0  0  0  0  0
   24.2065   -5.5208  -14.5762 O   0  0  0  0  0  0  0  0  0  0  0  0
   19.4885   -7.1978  -14.9471 C   0  0  0  0  0  0  0  0  0  0  0  0
   19.1893   -6.4085  -14.0149 O   0  0  0  0  0  0  0  0  0  0  0  0
   22.9025   -3.7523  -14.0128 O   0  0  0  0  0  0  0  0  0  0  0  0
   16.2814   -6.3019  -20.4292 N   0  0  0  0  0  0  0  0  0  0  0  0
   17.5301   -5.8321  -19.9694 C   0  0  0  0  0  0  0  0  0  0  0  0
   18.3501   -5.3211  -20.8063 O   0  0  0  0  0  0  0  0  0  0  0  0
   17.9658   -5.8832  -18.5594 C   0  0  0  0  0  0  0  0  0  0  0  0
   16.9576   -6.3830  -17.5873 C   0  0  0  0  0  0  0  0  0  0  0  0
   17.3779   -6.4561  -16.1524 C   0  0  2  0  0  0  0  0  0  0  0  0
   18.5739   -7.2902  -16.0253 N   0  0  0  0  0  0  0  0  0  0  0  0
   16.3911   -6.6935  -15.1255 C   0  0  0  0  0  0  0  0  0  0  0  0
   16.1637   -7.9719  -14.5559 O   0  0  0  0  0  0  0  0  0  0  0  0
   15.6388   -5.8140  -14.6314 O   0  0  0  0  0  0  0  0  0  0  0  0
  2  1  1  1
  2  3  1  0
  4  5  2  0
  4  2  1  0
  6  4  1  0
  7  6  1  0
  7  8  1  6
  9  8  1  0
  9 10  1  0
 10 11  2  0
 10 14  1  0
 12  7  1  0
 12 21  1  0
 13 12  2  0
 16 17  2  0
 16 15  1  0
 18 16  1  0
 20 19  1  6
 19 18  1  0
 20 21  1  0
 20 22  1  0
 22 23  1  0
 24 22  2  0
M  END
$$$$
