AEQ.pdb
     RDKit          3D

 24 23  0  0  1  0  0  0  0  0999 V2000
   15.4717  -10.7568  -16.8206 C   0  0  0  0  0  0  0  0  0  0  0  0
   16.4501  -10.3790  -15.7497 C   0  0  2  0  0  0  0  0  0  0  0  0
   15.9435  -10.7042  -14.4349 N   0  0  0  0  0  0  0  0  0  0  0  0
   16.7350   -8.9100  -15.8490 C   0  0  0  0  0  0  0  0  0  0  0  0
   17.3494   -8.4522  -16.8450 O   0  0  0  0  0  0  0  0  0  0  0  0
   16.3229   -8.0134  -14.8338 N   0  0  0  0  0  0  0  0  0  0  0  0
   16.6422   -6.5933  -14.9232 C   0  0  1  0  0  0  0  0  0  0  0  0
   15.5545   -5.8283  -14.2026 C   0  0  0  0  0  0  0  0  0  0  0  0
   14.3143   -5.6942  -15.0492 C   0  0  0  0  0  0  0  0  0  0  0  0
   13.2835   -4.9246  -14.3182 C   0  0  0  0  0  0  0  0  0  0  0  0
   12.7397   -3.9425  -14.8651 O   0  0  0  0  0  0  0  0  0  0  0  0
   17.9276   -6.3342  -14.1970 C   0  0  0  0  0  0  0  0  0  0  0  0
   18.3563   -7.1245  -13.3176 O   0  0  0  0  0  0  0  0  0  0  0  0
   12.9233   -5.2844  -13.0454 O   0  0  0  0  0  0  0  0  0  0  0  0
   22.0065   -8.6601  -13.0238 N   0  0  0  0  0  0  0  0  0  0  0  0
   22.7853   -7.5127  -13.2853 C   0  0  0  0  0  0  0  0  0  0  0  0
   23.9819   -7.4570  -12.8393 O   0  0  0  0  0  0  0  0  0  0  0  0
   22.3101   -6.3482  -14.0590 C   0  0  0  0  0  0  0  0  0  0  0  0
   20.8558   -6.3253  -14.3682 C   0  0  0  0  0  0  0  0  0  0  0  0
   20.1200   -5.0555  -14.0728 C   0  0  2  0  0  0  0  0  0  0  0  0
   18.7169   -5.1891  -14.4675 N   0  0  0  0  0  0  0  0  0  0  0  0
   20.7065   -3.7853  -14.4296 C   0  0  0  0  0  0  0  0  0  0  0  0
   21.7747   -3.1988  -13.7047 O   0  0  0  0  0  0  0  0  0  0  0  0
   20.3448   -3.0715  -15.4009 O   0  0  0  0  0  0  0  0  0  0  0  0
  2  1  1  6
  2  3  1  0
  4  5  2  0
  4  2  1  0
  6  4  1  0
  7  6  1  0
  7  8  1  1
  9  8  1  0
  9 10  1  0
 10 11  2  0
 10 14  1  0
 12  7  1  0
 12 21  1  0
 13 12  2  0
 16 17  2  0
 16 15  1  0
 18 16  1  0
 20 19  1  6
 19 18  1  0
 20 21  1  0
 20 22  1  0
 22 23  1  0
 24 22  2  0
M  END
$$$$
