AEQ.pdb
     RDKit          3D

 24 23  0  0  1  0  0  0  0  0999 V2000
   18.5370  -12.6972  -15.8307 C   0  0  0  0  0  0  0  0  0  0  0  0
   18.7207  -11.3438  -16.4483 C   0  0  2  0  0  0  0  0  0  0  0  0
   19.0259  -11.4453  -17.8582 N   0  0  0  0  0  0  0  0  0  0  0  0
   19.8232  -10.6270  -15.7275 C   0  0  0  0  0  0  0  0  0  0  0  0
   19.6936  -10.3278  -14.5139 O   0  0  0  0  0  0  0  0  0  0  0  0
   21.0236  -10.2739  -16.3900 N   0  0  0  0  0  0  0  0  0  0  0  0
   22.1131   -9.6345  -15.6614 C   0  0  1  0  0  0  0  0  0  0  0  0
   23.4152  -10.1005  -16.2736 C   0  0  0  0  0  0  0  0  0  0  0  0
   23.7062  -11.5401  -15.9334 C   0  0  0  0  0  0  0  0  0  0  0  0
   24.9068  -12.0003  -16.6655 C   0  0  0  0  0  0  0  0  0  0  0  0
   24.8346  -12.2319  -17.8904 O   0  0  0  0  0  0  0  0  0  0  0  0
   22.0306   -8.1512  -15.8607 C   0  0  0  0  0  0  0  0  0  0  0  0
   21.8136   -7.6515  -16.9942 O   0  0  0  0  0  0  0  0  0  0  0  0
   26.0961  -12.1733  -16.0061 O   0  0  0  0  0  0  0  0  0  0  0  0
   18.0470   -5.1370  -16.9598 N   0  0  0  0  0  0  0  0  0  0  0  0
   18.7728   -4.0728  -16.3835 C   0  0  0  0  0  0  0  0  0  0  0  0
   18.3133   -2.8836  -16.4752 O   0  0  0  0  0  0  0  0  0  0  0  0
   20.0499   -4.2374  -15.6607 C   0  0  0  0  0  0  0  0  0  0  0  0
   20.5678   -5.6282  -15.5685 C   0  0  0  0  0  0  0  0  0  0  0  0
   21.8739   -5.8196  -14.8624 C   0  0  2  0  0  0  0  0  0  0  0  0
   22.1932   -7.2458  -14.7830 N   0  0  0  0  0  0  0  0  0  0  0  0
   22.1456   -5.0937  -13.6443 C   0  0  0  0  0  0  0  0  0  0  0  0
   22.3911   -3.6974  -13.6176 O   0  0  0  0  0  0  0  0  0  0  0  0
   22.1947   -5.6055  -12.4957 O   0  0  0  0  0  0  0  0  0  0  0  0
  2  1  1  1
  2  3  1  0
  4  5  2  0
  4  2  1  0
  6  4  1  0
  7  6  1  0
  7  8  1  6
  9  8  1  0
  9 10  1  0
 10 11  2  0
 10 14  1  0
 12  7  1  0
 12 21  1  0
 13 12  2  0
 16 17  2  0
 16 15  1  0
 18 16  1  0
 20 19  1  1
 19 18  1  0
 20 21  1  0
 20 22  1  0
 22 23  1  0
 24 22  2  0
M  END
$$$$
