AEQ.pdb
     RDKit          3D

 24 23  0  0  1  0  0  0  0  0999 V2000
   29.4948  -27.6306  -21.7192 C   0  0  0  0  0  0  0  0  0  0  0  0
   29.8557  -27.8940  -20.2883 C   0  0  2  0  0  0  0  0  0  0  0  0
   30.7168  -26.8578  -19.7630 N   0  0  0  0  0  0  0  0  0  0  0  0
   30.5322  -29.2292  -20.1964 C   0  0  0  0  0  0  0  0  0  0  0  0
   29.9279  -30.2692  -20.5599 O   0  0  0  0  0  0  0  0  0  0  0  0
   31.8539  -29.3485  -19.7030 N   0  0  0  0  0  0  0  0  0  0  0  0
   32.4747  -30.6595  -19.5531 C   0  0  1  0  0  0  0  0  0  0  0  0
   33.9694  -30.4834  -19.7029 C   0  0  0  0  0  0  0  0  0  0  0  0
   34.4142  -30.6924  -21.1281 C   0  0  0  0  0  0  0  0  0  0  0  0
   35.8728  -30.4704  -21.2407 C   0  0  0  0  0  0  0  0  0  0  0  0
   36.6633  -31.3989  -20.9719 O   0  0  0  0  0  0  0  0  0  0  0  0
   32.2207  -31.1654  -18.1653 C   0  0  0  0  0  0  0  0  0  0  0  0
   32.2072  -30.3898  -17.1754 O   0  0  0  0  0  0  0  0  0  0  0  0
   36.3593  -29.2520  -21.6382 O   0  0  0  0  0  0  0  0  0  0  0  0
   27.2866  -32.6088  -16.7650 N   0  0  0  0  0  0  0  0  0  0  0  0
   27.8725  -32.7509  -15.4891 C   0  0  0  0  0  0  0  0  0  0  0  0
   27.1345  -33.0759  -14.4973 O   0  0  0  0  0  0  0  0  0  0  0  0
   29.3092  -32.5532  -15.2111 C   0  0  0  0  0  0  0  0  0  0  0  0
   30.1454  -32.1542  -16.3741 C   0  0  0  0  0  0  0  0  0  0  0  0
   31.3091  -33.0355  -16.7062 C   0  0  2  0  0  0  0  0  0  0  0  0
   31.9846  -32.5381  -17.9056 N   0  0  0  0  0  0  0  0  0  0  0  0
   31.1548  -34.4708  -16.6781 C   0  0  0  0  0  0  0  0  0  0  0  0
   31.4478  -35.2993  -17.7910 O   0  0  0  0  0  0  0  0  0  0  0  0
   30.7524  -35.1335  -15.6870 O   0  0  0  0  0  0  0  0  0  0  0  0
  2  1  1  6
  2  3  1  0
  4  5  2  0
  4  2  1  0
  6  4  1  0
  7  6  1  0
  7  8  1  1
  9  8  1  0
  9 10  1  0
 10 11  2  0
 10 14  1  0
 12  7  1  0
 12 21  1  0
 13 12  2  0
 16 17  2  0
 16 15  1  0
 18 16  1  0
 20 19  1  6
 19 18  1  0
 20 21  1  0
 20 22  1  0
 22 23  1  0
 24 22  2  0
M  END
$$$$
