AEQ.pdb
     RDKit          3D

 24 23  0  0  1  0  0  0  0  0999 V2000
   20.4671  -12.3542  -15.8352 C   0  0  0  0  0  0  0  0  0  0  0  0
   19.0294  -12.5996  -16.1812 C   0  0  2  0  0  0  0  0  0  0  0  0
   18.9022  -13.2853  -17.4480 N   0  0  0  0  0  0  0  0  0  0  0  0
   18.3098  -11.2847  -16.2265 C   0  0  0  0  0  0  0  0  0  0  0  0
   18.5597  -10.4599  -17.1410 O   0  0  0  0  0  0  0  0  0  0  0  0
   17.3423  -10.9448  -15.2505 N   0  0  0  0  0  0  0  0  0  0  0  0
   16.6092   -9.6872  -15.3385 C   0  0  1  0  0  0  0  0  0  0  0  0
   15.2979   -9.8638  -14.6059 C   0  0  0  0  0  0  0  0  0  0  0  0
   14.2914  -10.6149  -15.4400 C   0  0  0  0  0  0  0  0  0  0  0  0
   13.0294  -10.7779  -14.6849 C   0  0  0  0  0  0  0  0  0  0  0  0
   12.7568  -11.8797  -14.1644 O   0  0  0  0  0  0  0  0  0  0  0  0
   17.3810   -8.6199  -14.6231 C   0  0  0  0  0  0  0  0  0  0  0  0
   18.2570   -8.9045  -13.7668 O   0  0  0  0  0  0  0  0  0  0  0  0
   12.1596   -9.7264  -14.5544 O   0  0  0  0  0  0  0  0  0  0  0  0
   22.2761   -7.0944  -14.4658 N   0  0  0  0  0  0  0  0  0  0  0  0
   21.8045   -5.8693  -13.9481 C   0  0  0  0  0  0  0  0  0  0  0  0
   22.6456   -5.0160  -13.5028 O   0  0  0  0  0  0  0  0  0  0  0  0
   20.3786   -5.4902  -13.8874 C   0  0  0  0  0  0  0  0  0  0  0  0
   19.4170   -6.5002  -14.4036 C   0  0  0  0  0  0  0  0  0  0  0  0
   17.9615   -6.1678  -14.2945 C   0  0  2  0  0  0  0  0  0  0  0  0
   17.1595   -7.2439  -14.8785 N   0  0  0  0  0  0  0  0  0  0  0  0
   17.4985   -4.8443  -14.6389 C   0  0  0  0  0  0  0  0  0  0  0  0
   17.6840   -3.7193  -13.7960 O   0  0  0  0  0  0  0  0  0  0  0  0
   16.8921   -4.5462  -15.7005 O   0  0  0  0  0  0  0  0  0  0  0  0
  2  1  1  6
  2  3  1  0
  4  5  2  0
  4  2  1  0
  6  4  1  0
  7  6  1  0
  7  8  1  1
  9  8  1  0
  9 10  1  0
 10 11  2  0
 10 14  1  0
 12  7  1  0
 12 21  1  0
 13 12  2  0
 16 17  2  0
 16 15  1  0
 18 16  1  0
 20 19  1  6
 19 18  1  0
 20 21  1  0
 20 22  1  0
 22 23  1  0
 24 22  2  0
M  END
$$$$
