AEQ.pdb
     RDKit          3D

 24 23  0  0  1  0  0  0  0  0999 V2000
   17.6079  -14.7007  -16.0980 C   0  0  0  0  0  0  0  0  0  0  0  0
   17.2832  -13.2978  -15.6814 C   0  0  2  0  0  0  0  0  0  0  0  0
   15.9834  -12.8915  -16.1679 N   0  0  0  0  0  0  0  0  0  0  0  0
   18.3456  -12.3779  -16.2048 C   0  0  0  0  0  0  0  0  0  0  0  0
   19.5331  -12.4969  -15.8114 O   0  0  0  0  0  0  0  0  0  0  0  0
   18.0394  -11.3643  -17.1445 N   0  0  0  0  0  0  0  0  0  0  0  0
   19.0569  -10.4062  -17.5610 C   0  0  1  0  0  0  0  0  0  0  0  0
   18.7085   -9.9385  -18.9564 C   0  0  0  0  0  0  0  0  0  0  0  0
   18.9869  -11.0039  -19.9861 C   0  0  0  0  0  0  0  0  0  0  0  0
   18.2024  -10.7397  -21.2125 C   0  0  0  0  0  0  0  0  0  0  0  0
   17.4034  -11.6016  -21.6344 O   0  0  0  0  0  0  0  0  0  0  0  0
   18.9996   -9.2093  -16.6606 C   0  0  0  0  0  0  0  0  0  0  0  0
   18.0846   -9.0708  -15.8091 O   0  0  0  0  0  0  0  0  0  0  0  0
   18.3485   -9.5549  -21.8864 O   0  0  0  0  0  0  0  0  0  0  0  0
   20.5176   -7.7905  -11.4356 N   0  0  0  0  0  0  0  0  0  0  0  0
   21.6449   -7.9623  -12.2668 C   0  0  0  0  0  0  0  0  0  0  0  0
   22.7979   -8.1001  -11.7324 O   0  0  0  0  0  0  0  0  0  0  0  0
   21.5878   -8.0015  -13.7419 C   0  0  0  0  0  0  0  0  0  0  0  0
   20.2373   -7.8393  -14.3426 C   0  0  0  0  0  0  0  0  0  0  0  0
   20.1669   -7.1751  -15.6823 C   0  0  2  0  0  0  0  0  0  0  0  0
   19.9721   -8.1810  -16.7276 N   0  0  0  0  0  0  0  0  0  0  0  0
   21.1262   -6.1534  -16.0295 C   0  0  0  0  0  0  0  0  0  0  0  0
   21.1872   -4.8983  -15.3725 O   0  0  0  0  0  0  0  0  0  0  0  0
   21.9960   -6.2581  -16.9328 O   0  0  0  0  0  0  0  0  0  0  0  0
  2  1  1  6
  2  3  1  0
  4  5  2  0
  4  2  1  0
  6  4  1  0
  7  6  1  0
  7  8  1  6
  9  8  1  0
  9 10  1  0
 10 11  2  0
 10 14  1  0
 12  7  1  0
 12 21  1  0
 13 12  2  0
 16 17  2  0
 16 15  1  0
 18 16  1  0
 20 19  1  1
 19 18  1  0
 20 21  1  0
 20 22  1  0
 22 23  1  0
 24 22  2  0
M  END
$$$$
