AEQ.pdb
     RDKit          3D

 24 23  0  0  1  0  0  0  0  0999 V2000
   19.1474  -12.0248  -18.5471 C   0  0  0  0  0  0  0  0  0  0  0  0
   19.2192  -11.3740  -17.1987 C   0  0  2  0  0  0  0  0  0  0  0  0
   18.3392  -12.0237  -16.2528 N   0  0  0  0  0  0  0  0  0  0  0  0
   18.8549   -9.9260  -17.3387 C   0  0  0  0  0  0  0  0  0  0  0  0
   19.6242   -9.1373  -17.9429 O   0  0  0  0  0  0  0  0  0  0  0  0
   17.6484   -9.4185  -16.7991 N   0  0  0  0  0  0  0  0  0  0  0  0
   17.2618   -8.0301  -17.0219 C   0  0  1  0  0  0  0  0  0  0  0  0
   15.8508   -7.8543  -16.5063 C   0  0  0  0  0  0  0  0  0  0  0  0
   15.3349   -6.4609  -16.7611 C   0  0  0  0  0  0  0  0  0  0  0  0
   13.9372   -6.3448  -16.2896 C   0  0  0  0  0  0  0  0  0  0  0  0
   13.0074   -6.7948  -16.9910 O   0  0  0  0  0  0  0  0  0  0  0  0
   18.1499   -7.1384  -16.2078 C   0  0  0  0  0  0  0  0  0  0  0  0
   18.5949   -7.4991  -15.0883 O   0  0  0  0  0  0  0  0  0  0  0  0
   13.6590   -5.7463  -15.0881 O   0  0  0  0  0  0  0  0  0  0  0  0
   22.0914   -6.3434  -13.5807 N   0  0  0  0  0  0  0  0  0  0  0  0
   22.3990   -5.0666  -14.0970 C   0  0  0  0  0  0  0  0  0  0  0  0
   23.2206   -4.3198  -13.4637 O   0  0  0  0  0  0  0  0  0  0  0  0
   21.8328   -4.5205  -15.3468 C   0  0  0  0  0  0  0  0  0  0  0  0
   20.8161   -5.3693  -16.0227 C   0  0  0  0  0  0  0  0  0  0  0  0
   19.3870   -4.9396  -15.9036 C   0  0  2  0  0  0  0  0  0  0  0  0
   18.5279   -5.8505  -16.6617 N   0  0  0  0  0  0  0  0  0  0  0  0
   19.0397   -3.5469  -16.0598 C   0  0  0  0  0  0  0  0  0  0  0  0
   19.0263   -2.6300  -14.9783 O   0  0  0  0  0  0  0  0  0  0  0  0
   18.7171   -3.0019  -17.1472 O   0  0  0  0  0  0  0  0  0  0  0  0
  2  1  1  6
  2  3  1  0
  4  5  2  0
  4  2  1  0
  6  4  1  0
  7  6  1  0
  7  8  1  1
  9  8  1  0
  9 10  1  0
 10 11  2  0
 10 14  1  0
 12  7  1  0
 12 21  1  0
 13 12  2  0
 16 17  2  0
 16 15  1  0
 18 16  1  0
 20 19  1  6
 19 18  1  0
 20 21  1  0
 20 22  1  0
 22 23  1  0
 24 22  2  0
M  END
$$$$
