AEQ.pdb
     RDKit          3D

 24 23  0  0  1  0  0  0  0  0999 V2000
   20.8411  -12.8991  -19.0630 C   0  0  0  0  0  0  0  0  0  0  0  0
   21.6819  -11.9992  -18.2085 C   0  0  2  0  0  0  0  0  0  0  0  0
   22.0277  -12.6342  -16.9561 N   0  0  0  0  0  0  0  0  0  0  0  0
   20.9293  -10.7268  -17.9565 C   0  0  0  0  0  0  0  0  0  0  0  0
   20.6019   -9.9864  -18.9176 O   0  0  0  0  0  0  0  0  0  0  0  0
   20.5734  -10.3337  -16.6438 N   0  0  0  0  0  0  0  0  0  0  0  0
   19.8771   -9.0740  -16.4093 C   0  0  1  0  0  0  0  0  0  0  0  0
   18.7587   -9.3395  -15.4264 C   0  0  0  0  0  0  0  0  0  0  0  0
   17.9810  -10.5788  -15.7899 C   0  0  0  0  0  0  0  0  0  0  0  0
   16.8370  -10.7472  -14.8668 C   0  0  0  0  0  0  0  0  0  0  0  0
   15.6709  -10.7058  -15.3114 O   0  0  0  0  0  0  0  0  0  0  0  0
   20.8212   -8.1063  -15.7621 C   0  0  0  0  0  0  0  0  0  0  0  0
   21.6269   -8.4723  -14.8684 O   0  0  0  0  0  0  0  0  0  0  0  0
   17.0512  -10.9481  -13.5278 O   0  0  0  0  0  0  0  0  0  0  0  0
   22.2402   -2.2358  -18.1739 N   0  0  0  0  0  0  0  0  0  0  0  0
   22.8918   -2.3192  -16.9250 C   0  0  0  0  0  0  0  0  0  0  0  0
   23.5980   -1.3323  -16.5235 O   0  0  0  0  0  0  0  0  0  0  0  0
   22.8107   -3.4872  -16.0251 C   0  0  0  0  0  0  0  0  0  0  0  0
   21.9020   -4.5801  -16.4623 C   0  0  0  0  0  0  0  0  0  0  0  0
   21.7724   -5.7595  -15.5494 C   0  0  2  0  0  0  0  0  0  0  0  0
   20.8491   -6.7375  -16.1268 N   0  0  0  0  0  0  0  0  0  0  0  0
   21.5914   -5.5547  -14.1317 C   0  0  0  0  0  0  0  0  0  0  0  0
   20.3164   -5.3907  -13.5332 O   0  0  0  0  0  0  0  0  0  0  0  0
   22.5221   -5.4995  -13.2865 O   0  0  0  0  0  0  0  0  0  0  0  0
  2  1  1  6
  2  3  1  0
  4  5  2  0
  4  2  1  0
  6  4  1  0
  7  6  1  0
  7  8  1  1
  9  8  1  0
  9 10  1  0
 10 11  2  0
 10 14  1  0
 12  7  1  0
 12 21  1  0
 13 12  2  0
 16 17  2  0
 16 15  1  0
 18 16  1  0
 20 19  1  6
 19 18  1  0
 20 21  1  0
 20 22  1  0
 22 23  1  0
 24 22  2  0
M  END
$$$$
