AEQ.pdb
     RDKit          3D

 24 23  0  0  1  0  0  0  0  0999 V2000
   25.3475  -11.4320  -15.3065 C   0  0  0  0  0  0  0  0  0  0  0  0
   24.4980  -12.1566  -16.3066 C   0  0  2  0  0  0  0  0  0  0  0  0
   25.2633  -12.5298  -17.4756 N   0  0  0  0  0  0  0  0  0  0  0  0
   23.3489  -11.2754  -16.6964 C   0  0  0  0  0  0  0  0  0  0  0  0
   23.5490  -10.2485  -17.3925 O   0  0  0  0  0  0  0  0  0  0  0  0
   22.0254  -11.5761  -16.2937 N   0  0  0  0  0  0  0  0  0  0  0  0
   20.9038  -10.7771  -16.7736 C   0  0  1  0  0  0  0  0  0  0  0  0
   19.6675  -11.6476  -16.7396 C   0  0  0  0  0  0  0  0  0  0  0  0
   19.7506  -12.7715  -17.7410 C   0  0  0  0  0  0  0  0  0  0  0  0
   18.9317  -13.9166  -17.2857 C   0  0  0  0  0  0  0  0  0  0  0  0
   17.9085  -14.2393  -17.9244 O   0  0  0  0  0  0  0  0  0  0  0  0
   20.6747   -9.6375  -15.8274 C   0  0  0  0  0  0  0  0  0  0  0  0
   21.3447   -9.5165  -14.7700 O   0  0  0  0  0  0  0  0  0  0  0  0
   19.2907  -14.6237  -16.1675 O   0  0  0  0  0  0  0  0  0  0  0  0
   23.6040   -5.4913  -15.0155 N   0  0  0  0  0  0  0  0  0  0  0  0
   22.4443   -4.8619  -14.5153 C   0  0  0  0  0  0  0  0  0  0  0  0
   22.5521   -3.7295  -13.9323 O   0  0  0  0  0  0  0  0  0  0  0  0
   21.0839   -5.4259  -14.6240 C   0  0  0  0  0  0  0  0  0  0  0  0
   20.9821   -6.7471  -15.2988 C   0  0  0  0  0  0  0  0  0  0  0  0
   19.6228   -7.3707  -15.3660 C   0  0  2  0  0  0  0  0  0  0  0  0
   19.6945   -8.6462  -16.0805 N   0  0  0  0  0  0  0  0  0  0  0  0
   18.4795   -6.5656  -15.7258 C   0  0  0  0  0  0  0  0  0  0  0  0
   18.0092   -6.4468  -17.0582 O   0  0  0  0  0  0  0  0  0  0  0  0
   17.7875   -5.8940  -14.9173 O   0  0  0  0  0  0  0  0  0  0  0  0
  2  1  1  1
  2  3  1  0
  4  5  2  0
  4  2  1  0
  6  4  1  0
  7  6  1  0
  7  8  1  1
  9  8  1  0
  9 10  1  0
 10 11  2  0
 10 14  1  0
 12  7  1  0
 12 21  1  0
 13 12  2  0
 16 17  2  0
 16 15  1  0
 18 16  1  0
 20 19  1  6
 19 18  1  0
 20 21  1  0
 20 22  1  0
 22 23  1  0
 24 22  2  0
M  END
$$$$
