YHN.pdb
     RDKit          3D

 31 32  0  0  1  0  0  0  0  0999 V2000
    5.5727  -10.4979   28.2319 O   0  0  0  0  0  0  0  0  0  0  0  0
    6.2529  -11.4888   27.5054 C   0  0  0  0  0  0  0  0  0  0  0  0
    6.8404  -12.5351   28.1994 C   0  0  0  0  0  0  0  0  0  0  0  0
    7.5244  -13.5416   27.5388 C   0  0  0  0  0  0  0  0  0  0  0  0
    7.6362  -13.5237   26.1527 C   0  0  0  0  0  0  0  0  0  0  0  0
    8.3748  -14.6231   25.5037 C   0  0  0  0  0  0  0  0  0  0  0  0
    7.5200  -15.1782   24.4122 C   0  0  2  0  0  0  0  0  0  0  0  0
    6.4969  -16.0274   24.9854 N   0  0  0  0  0  0  0  0  0  0  0  0
    8.2924  -15.8937   23.3560 C   0  0  0  0  0  0  0  0  0  0  0  0
    8.2886  -17.1454   23.2854 O   0  0  0  0  0  0  0  0  0  0  0  0
    7.0495  -12.4826   25.4843 C   0  0  0  0  0  0  0  0  0  0  0  0
    6.3628  -11.4696   26.1363 C   0  0  0  0  0  0  0  0  0  0  0  0
    9.0717  -15.1912   22.3757 N   0  0  0  0  0  0  0  0  0  0  0  0
    9.9111  -15.9031   21.4324 C   0  0  1  0  0  0  0  0  0  0  0  0
   10.3034  -14.9665   20.3352 C   0  0  0  0  0  0  0  0  0  0  0  0
    9.1678  -14.5739   19.4839 C   0  0  0  0  0  0  0  0  0  0  0  0
    7.8953  -15.0827   19.5811 C   0  0  0  0  0  0  0  0  0  0  0  0
    7.1186  -14.5080   18.6614 N   0  0  0  0  0  0  0  0  0  0  0  0
    7.8968  -13.6458   17.9920 C   0  0  0  0  0  0  0  0  0  0  0  0
    9.1443  -13.6716   18.4771 N   0  0  0  0  0  0  0  0  0  0  0  0
   11.1046  -16.5119   22.0737 C   0  0  0  0  0  0  0  0  0  0  0  0
   11.6939  -15.9675   23.0143 O   0  0  0  0  0  0  0  0  0  0  0  0
   13.5170  -21.6016   23.7939 N   0  0  0  0  0  0  0  0  0  0  0  0
   13.6753  -20.6378   22.7654 C   0  0  0  0  0  0  0  0  0  0  0  0
   14.8360  -20.4273   22.3332 O   0  0  0  0  0  0  0  0  0  0  0  0
   12.4710  -19.9344   22.2592 C   0  0  0  0  0  0  0  0  0  0  0  0
   12.6705  -18.4354   22.2189 C   0  0  2  0  0  0  0  0  0  0  0  0
   11.5788  -17.7507   21.5928 N   0  0  0  0  0  0  0  0  0  0  0  0
   13.9826  -18.0626   21.6451 C   0  0  0  0  0  0  0  0  0  0  0  0
   15.1384  -17.9301   22.3945 O   0  0  0  0  0  0  0  0  0  0  0  0
   14.0589  -17.8535   20.4107 O   0  0  0  0  0  0  0  0  0  0  0  0
  2  1  1  0
  3  2  2  0
  4  3  1  0
  5  4  2  0
  5 11  1  0
  6  5  1  0
  7  6  1  0
  7  8  1  1
  9  7  1  0
  9 13  1  0
 10  9  2  0
 11 12  2  0
 12  2  1  0
 14 13  1  0
 14 21  1  0
 14 15  1  6
 16 15  1  0
 17 16  2  0
 18 19  1  0
 18 17  1  0
 19 20  2  0
 20 16  1  0
 21 28  1  0
 22 21  2  0
 23 24  1  0
 24 26  1  0
 25 24  2  0
 27 26  1  6
 27 29  1  0
 28 27  1  0
 29 31  2  0
 29 30  1  0
M  END
$$$$
