YHN.pdb
     RDKit          3D

 31 32  0  0  1  0  0  0  0  0999 V2000
   10.3299  -13.0382    6.3698 O   0  0  0  0  0  0  0  0  0  0  0  0
   10.4024  -13.1469    7.7680 C   0  0  0  0  0  0  0  0  0  0  0  0
   10.7574  -14.3673    8.3214 C   0  0  0  0  0  0  0  0  0  0  0  0
   10.8458  -14.5362    9.6929 C   0  0  0  0  0  0  0  0  0  0  0  0
   10.5785  -13.4751   10.5511 C   0  0  0  0  0  0  0  0  0  0  0  0
   10.6904  -13.7137   12.0023 C   0  0  0  0  0  0  0  0  0  0  0  0
    9.4127  -14.3262   12.4738 C   0  0  2  0  0  0  0  0  0  0  0  0
    8.3391  -13.3636   12.3424 N   0  0  0  0  0  0  0  0  0  0  0  0
    9.4889  -14.8707   13.8601 C   0  0  0  0  0  0  0  0  0  0  0  0
    9.5031  -14.1094   14.8561 O   0  0  0  0  0  0  0  0  0  0  0  0
   10.2296  -12.2775    9.9865 C   0  0  0  0  0  0  0  0  0  0  0  0
   10.1378  -12.0980    8.6145 C   0  0  0  0  0  0  0  0  0  0  0  0
    9.5488  -16.2814   14.1212 N   0  0  0  0  0  0  0  0  0  0  0  0
    9.7390  -16.7892   15.4655 C   0  0  1  0  0  0  0  0  0  0  0  0
    9.3763  -18.2393   15.4880 C   0  0  0  0  0  0  0  0  0  0  0  0
    9.5236  -18.8460   16.8216 C   0  0  0  0  0  0  0  0  0  0  0  0
    8.8114  -18.4805   17.9382 C   0  0  0  0  0  0  0  0  0  0  0  0
    9.1937  -19.2327   18.9714 N   0  0  0  0  0  0  0  0  0  0  0  0
   10.1383  -20.0633   18.5077 C   0  0  0  0  0  0  0  0  0  0  0  0
   10.3522  -19.8436   17.2045 N   0  0  0  0  0  0  0  0  0  0  0  0
   11.1188  -16.5709   15.9703 C   0  0  0  0  0  0  0  0  0  0  0  0
   12.0115  -16.0985   15.2575 O   0  0  0  0  0  0  0  0  0  0  0  0
   14.0035  -14.2985   19.9066 N   0  0  0  0  0  0  0  0  0  0  0  0
   14.0339  -14.4944   18.5022 C   0  0  0  0  0  0  0  0  0  0  0  0
   15.1132  -14.2648   17.9017 O   0  0  0  0  0  0  0  0  0  0  0  0
   12.7985  -14.9556   17.8222 C   0  0  0  0  0  0  0  0  0  0  0  0
   12.6072  -16.4502   17.9561 C   0  0  2  0  0  0  0  0  0  0  0  0
   11.4178  -16.9140   17.3059 N   0  0  0  0  0  0  0  0  0  0  0  0
   12.7020  -16.9009   19.3624 C   0  0  0  0  0  0  0  0  0  0  0  0
   11.6698  -17.5267   20.0391 O   0  0  0  0  0  0  0  0  0  0  0  0
   13.7753  -16.7079   19.9821 O   0  0  0  0  0  0  0  0  0  0  0  0
  2  1  1  0
  3  2  2  0
  4  3  1  0
  5  4  2  0
  5 11  1  0
  6  5  1  0
  7  6  1  0
  7  8  1  1
  9  7  1  0
  9 13  1  0
 10  9  2  0
 11 12  2  0
 12  2  1  0
 14 13  1  0
 14 21  1  0
 14 15  1  6
 16 15  1  0
 17 16  2  0
 18 19  1  0
 18 17  1  0
 19 20  2  0
 20 16  1  0
 21 28  1  0
 22 21  2  0
 23 24  1  0
 24 26  1  0
 25 24  2  0
 27 26  1  1
 27 29  1  0
 28 27  1  0
 29 31  2  0
 29 30  1  0
M  END
$$$$
