YHN.pdb
     RDKit          3D

 31 32  0  0  1  0  0  0  0  0999 V2000
    6.0645  -10.6505   27.8607 O   0  0  0  0  0  0  0  0  0  0  0  0
    6.5286  -11.8564   27.3106 C   0  0  0  0  0  0  0  0  0  0  0  0
    6.9888  -11.8558   26.0030 C   0  0  0  0  0  0  0  0  0  0  0  0
    7.4587  -13.0134   25.4058 C   0  0  0  0  0  0  0  0  0  0  0  0
    7.4794  -14.2110   26.1123 C   0  0  0  0  0  0  0  0  0  0  0  0
    7.9924  -15.4111   25.4252 C   0  0  0  0  0  0  0  0  0  0  0  0
    6.9048  -15.9511   24.5560 C   0  0  2  0  0  0  0  0  0  0  0  0
    6.4306  -17.2062   25.1004 N   0  0  0  0  0  0  0  0  0  0  0  0
    7.3007  -16.0934   23.1253 C   0  0  0  0  0  0  0  0  0  0  0  0
    7.5353  -17.2193   22.6261 O   0  0  0  0  0  0  0  0  0  0  0  0
    7.0212  -14.1923   27.4025 C   0  0  0  0  0  0  0  0  0  0  0  0
    6.5482  -13.0387   28.0096 C   0  0  0  0  0  0  0  0  0  0  0  0
    7.4315  -14.9584   22.2555 N   0  0  0  0  0  0  0  0  0  0  0  0
    7.8375  -15.1143   20.8727 C   0  0  1  0  0  0  0  0  0  0  0  0
    7.6520  -13.8097   20.1667 C   0  0  0  0  0  0  0  0  0  0  0  0
    8.0520  -13.8628   18.7505 C   0  0  0  0  0  0  0  0  0  0  0  0
    8.9203  -12.9890   18.1422 C   0  0  0  0  0  0  0  0  0  0  0  0
    9.0596  -13.3265   16.8591 N   0  0  0  0  0  0  0  0  0  0  0  0
    8.2849  -14.4029   16.6633 C   0  0  0  0  0  0  0  0  0  0  0  0
    7.6653  -14.7435   17.8001 N   0  0  0  0  0  0  0  0  0  0  0  0
    9.2322  -15.6069   20.7373 C   0  0  0  0  0  0  0  0  0  0  0  0
    9.6321  -16.1726   19.7133 O   0  0  0  0  0  0  0  0  0  0  0  0
   12.4741  -12.8688   20.0923 N   0  0  0  0  0  0  0  0  0  0  0  0
   12.7199  -14.2391   20.3629 C   0  0  0  0  0  0  0  0  0  0  0  0
   13.1287  -14.9590   19.4179 O   0  0  0  0  0  0  0  0  0  0  0  0
   12.4822  -14.7458   21.7370 C   0  0  0  0  0  0  0  0  0  0  0  0
   11.4831  -15.8815   21.7528 C   0  0  2  0  0  0  0  0  0  0  0  0
   10.1273  -15.4221   21.8122 N   0  0  0  0  0  0  0  0  0  0  0  0
   11.7930  -16.8825   22.7978 C   0  0  0  0  0  0  0  0  0  0  0  0
   13.0168  -17.5181   22.9131 O   0  0  0  0  0  0  0  0  0  0  0  0
   10.9009  -17.1762   23.6292 O   0  0  0  0  0  0  0  0  0  0  0  0
  2  1  1  0
  3  2  2  0
  4  3  1  0
  5  4  2  0
  5 11  1  0
  6  5  1  0
  7  6  1  0
  7  8  1  1
  9  7  1  0
  9 13  1  0
 10  9  2  0
 11 12  2  0
 12  2  1  0
 14 13  1  0
 14 21  1  0
 14 15  1  6
 16 15  1  0
 17 16  2  0
 18 19  1  0
 18 17  1  0
 19 20  2  0
 20 16  1  0
 21 28  1  0
 22 21  2  0
 23 24  1  0
 24 26  1  0
 25 24  2  0
 27 26  1  1
 27 29  1  0
 28 27  1  0
 29 31  2  0
 29 30  1  0
M  END
$$$$
