YHN.pdb
     RDKit          3D

 31 32  0  0  1  0  0  0  0  0999 V2000
    7.1217  -11.1845   27.2358 O   0  0  0  0  0  0  0  0  0  0  0  0
    6.8514  -12.3008   26.4277 C   0  0  0  0  0  0  0  0  0  0  0  0
    6.7105  -12.1127   25.0616 C   0  0  0  0  0  0  0  0  0  0  0  0
    6.4436  -13.1743   24.2135 C   0  0  0  0  0  0  0  0  0  0  0  0
    6.3109  -14.4629   24.7196 C   0  0  0  0  0  0  0  0  0  0  0  0
    6.0284  -15.5542   23.7685 C   0  0  0  0  0  0  0  0  0  0  0  0
    7.2271  -16.4428   23.7093 C   0  0  2  0  0  0  0  0  0  0  0  0
    8.0676  -16.1963   24.8623 N   0  0  0  0  0  0  0  0  0  0  0  0
    7.9973  -16.3205   22.4382 C   0  0  0  0  0  0  0  0  0  0  0  0
    7.5127  -16.7026   21.3469 O   0  0  0  0  0  0  0  0  0  0  0  0
    6.4534  -14.6293   26.0712 C   0  0  0  0  0  0  0  0  0  0  0  0
    6.7203  -13.5729   26.9290 C   0  0  0  0  0  0  0  0  0  0  0  0
    9.3203  -15.7637   22.4006 N   0  0  0  0  0  0  0  0  0  0  0  0
   10.0243  -15.5833   21.1464 C   0  0  1  0  0  0  0  0  0  0  0  0
    9.9563  -14.1408   20.7596 C   0  0  0  0  0  0  0  0  0  0  0  0
    8.8352  -13.8432   19.8524 C   0  0  0  0  0  0  0  0  0  0  0  0
    8.0033  -14.7816   19.2913 C   0  0  0  0  0  0  0  0  0  0  0  0
    7.0994  -14.1686   18.5253 N   0  0  0  0  0  0  0  0  0  0  0  0
    7.3618  -12.8563   18.6044 C   0  0  0  0  0  0  0  0  0  0  0  0
    8.4121  -12.6392   19.4056 N   0  0  0  0  0  0  0  0  0  0  0  0
   11.4299  -16.0599   21.2047 C   0  0  0  0  0  0  0  0  0  0  0  0
   12.3799  -15.3455   20.8651 O   0  0  0  0  0  0  0  0  0  0  0  0
   12.9279  -16.1695   26.2907 N   0  0  0  0  0  0  0  0  0  0  0  0
   13.1755  -16.8433   25.0675 C   0  0  0  0  0  0  0  0  0  0  0  0
   14.2325  -17.5156   24.9722 O   0  0  0  0  0  0  0  0  0  0  0  0
   12.1810  -16.7184   23.9735 C   0  0  0  0  0  0  0  0  0  0  0  0
   12.5130  -17.6209   22.8057 C   0  0  2  0  0  0  0  0  0  0  0  0
   11.6866  -17.3696   21.6627 N   0  0  0  0  0  0  0  0  0  0  0  0
   12.5333  -19.0490   23.1928 C   0  0  0  0  0  0  0  0  0  0  0  0
   11.4119  -19.7498   23.6006 O   0  0  0  0  0  0  0  0  0  0  0  0
   13.6250  -19.6654   23.1512 O   0  0  0  0  0  0  0  0  0  0  0  0
  2  1  1  0
  3  2  2  0
  4  3  1  0
  5  4  2  0
  5 11  1  0
  6  5  1  0
  7  6  1  0
  7  8  1  1
  9  7  1  0
  9 13  1  0
 10  9  2  0
 11 12  2  0
 12  2  1  0
 14 13  1  0
 14 21  1  0
 14 15  1  1
 16 15  1  0
 17 16  2  0
 18 19  1  0
 18 17  1  0
 19 20  2  0
 20 16  1  0
 21 28  1  0
 22 21  2  0
 23 24  1  0
 24 26  1  0
 25 24  2  0
 27 26  1  1
 27 29  1  0
 28 27  1  0
 29 31  2  0
 29 30  1  0
M  END
$$$$
