YHN.pdb
     RDKit          3D

 31 32  0  0  1  0  0  0  0  0999 V2000
    8.1669  -12.5477   16.7518 O   0  0  0  0  0  0  0  0  0  0  0  0
    7.8785  -12.9886   18.0535 C   0  0  0  0  0  0  0  0  0  0  0  0
    6.9914  -14.0413   18.2165 C   0  0  0  0  0  0  0  0  0  0  0  0
    6.6676  -14.5204   19.4747 C   0  0  0  0  0  0  0  0  0  0  0  0
    7.2314  -13.9504   20.6110 C   0  0  0  0  0  0  0  0  0  0  0  0
    6.8505  -14.5033   21.9242 C   0  0  0  0  0  0  0  0  0  0  0  0
    7.9454  -15.4088   22.3840 C   0  0  2  0  0  0  0  0  0  0  0  0
    8.1916  -16.4184   21.3758 N   0  0  0  0  0  0  0  0  0  0  0  0
    7.6896  -16.0232   23.7185 C   0  0  0  0  0  0  0  0  0  0  0  0
    7.3779  -15.3189   24.7078 O   0  0  0  0  0  0  0  0  0  0  0  0
    8.1053  -12.9119   20.4305 C   0  0  0  0  0  0  0  0  0  0  0  0
    8.4359  -12.4245   19.1750 C   0  0  0  0  0  0  0  0  0  0  0  0
    7.7862  -17.4394   23.9353 N   0  0  0  0  0  0  0  0  0  0  0  0
    7.6023  -18.0118   25.2543 C   0  0  1  0  0  0  0  0  0  0  0  0
    7.3290  -19.4745   25.1102 C   0  0  0  0  0  0  0  0  0  0  0  0
    7.1233  -20.1489   26.4030 C   0  0  0  0  0  0  0  0  0  0  0  0
    6.9467  -19.5109   27.6069 C   0  0  0  0  0  0  0  0  0  0  0  0
    6.7875  -20.4206   28.5695 N   0  0  0  0  0  0  0  0  0  0  0  0
    6.8638  -21.6198   27.9751 C   0  0  0  0  0  0  0  0  0  0  0  0
    7.0673  -21.4752   26.6598 N   0  0  0  0  0  0  0  0  0  0  0  0
    8.7599  -17.7657   26.1520 C   0  0  0  0  0  0  0  0  0  0  0  0
    9.9158  -18.0618   25.8288 O   0  0  0  0  0  0  0  0  0  0  0  0
    9.7388  -14.6350   26.7617 N   0  0  0  0  0  0  0  0  0  0  0  0
    9.4807  -14.4051   28.1373 C   0  0  0  0  0  0  0  0  0  0  0  0
    9.3322  -13.2161   28.5150 O   0  0  0  0  0  0  0  0  0  0  0  0
    9.4013  -15.5721   29.0500 C   0  0  0  0  0  0  0  0  0  0  0  0
    9.6046  -16.8775   28.3131 C   0  0  2  0  0  0  0  0  0  0  0  0
    8.5307  -17.1751   27.4127 N   0  0  0  0  0  0  0  0  0  0  0  0
    9.9046  -17.9967   29.2336 C   0  0  0  0  0  0  0  0  0  0  0  0
    9.1346  -19.1428   29.3252 O   0  0  0  0  0  0  0  0  0  0  0  0
   10.9121  -17.9082   29.9757 O   0  0  0  0  0  0  0  0  0  0  0  0
  2  1  1  0
  3  2  2  0
  4  3  1  0
  5  4  2  0
  5 11  1  0
  6  5  1  0
  7  6  1  0
  7  8  1  6
  9  7  1  0
  9 13  1  0
 10  9  2  0
 11 12  2  0
 12  2  1  0
 14 13  1  0
 14 21  1  0
 14 15  1  6
 16 15  1  0
 17 16  2  0
 18 19  1  0
 18 17  1  0
 19 20  2  0
 20 16  1  0
 21 28  1  0
 22 21  2  0
 23 24  1  0
 24 26  1  0
 25 24  2  0
 27 26  1  1
 27 29  1  0
 28 27  1  0
 29 31  2  0
 29 30  1  0
M  END
$$$$
