YHN.pdb
     RDKit          3D

 31 32  0  0  1  0  0  0  0  0999 V2000
    7.6754  -13.4660   14.2153 O   0  0  0  0  0  0  0  0  0  0  0  0
    8.1658  -14.0590   15.3900 C   0  0  0  0  0  0  0  0  0  0  0  0
    7.6765  -13.6187   16.6100 C   0  0  0  0  0  0  0  0  0  0  0  0
    8.1214  -14.1646   17.8023 C   0  0  0  0  0  0  0  0  0  0  0  0
    9.0764  -15.1755   17.8001 C   0  0  0  0  0  0  0  0  0  0  0  0
    9.5109  -15.7198   19.1003 C   0  0  0  0  0  0  0  0  0  0  0  0
    9.8143  -14.5732   20.0076 C   0  0  2  0  0  0  0  0  0  0  0  0
   10.9835  -13.8704   19.5224 N   0  0  0  0  0  0  0  0  0  0  0  0
    9.9716  -14.9696   21.4366 C   0  0  0  0  0  0  0  0  0  0  0  0
   11.0919  -14.9395   21.9985 O   0  0  0  0  0  0  0  0  0  0  0  0
    9.5479  -15.5975   16.5859 C   0  0  0  0  0  0  0  0  0  0  0  0
    9.1094  -15.0572   15.3864 C   0  0  0  0  0  0  0  0  0  0  0  0
    8.8578  -15.4013   22.2335 N   0  0  0  0  0  0  0  0  0  0  0  0
    9.0460  -15.8926   23.5842 C   0  0  1  0  0  0  0  0  0  0  0  0
    7.7430  -15.8096   24.3124 C   0  0  0  0  0  0  0  0  0  0  0  0
    7.3018  -14.4235   24.5409 C   0  0  0  0  0  0  0  0  0  0  0  0
    8.0119  -13.3010   24.1897 C   0  0  0  0  0  0  0  0  0  0  0  0
    7.3220  -12.2144   24.5404 N   0  0  0  0  0  0  0  0  0  0  0  0
    6.1884  -12.6509   25.1075 C   0  0  0  0  0  0  0  0  0  0  0  0
    6.1580  -13.9893   25.1168 N   0  0  0  0  0  0  0  0  0  0  0  0
    9.5968  -17.2716   23.6206 C   0  0  0  0  0  0  0  0  0  0  0  0
    9.7293  -17.9527   22.5974 O   0  0  0  0  0  0  0  0  0  0  0  0
   13.6460  -17.6002   22.2864 N   0  0  0  0  0  0  0  0  0  0  0  0
   12.9912  -18.3714   23.2804 C   0  0  0  0  0  0  0  0  0  0  0  0
   12.9523  -19.6174   23.1244 O   0  0  0  0  0  0  0  0  0  0  0  0
   12.3909  -17.6708   24.4423 C   0  0  0  0  0  0  0  0  0  0  0  0
   11.2495  -18.4589   25.0462 C   0  0  2  0  0  0  0  0  0  0  0  0
    9.9806  -17.8193   24.8630 N   0  0  0  0  0  0  0  0  0  0  0  0
   11.5075  -18.8218   26.4573 C   0  0  0  0  0  0  0  0  0  0  0  0
   11.1862  -18.0089   27.5301 O   0  0  0  0  0  0  0  0  0  0  0  0
   12.0476  -19.9271   26.7024 O   0  0  0  0  0  0  0  0  0  0  0  0
  2  1  1  0
  3  2  2  0
  4  3  1  0
  5  4  2  0
  5 11  1  0
  6  5  1  0
  7  6  1  0
  7  8  1  6
  9  7  1  0
  9 13  1  0
 10  9  2  0
 11 12  2  0
 12  2  1  0
 14 13  1  0
 14 21  1  0
 14 15  1  6
 16 15  1  0
 17 16  2  0
 18 19  1  0
 18 17  1  0
 19 20  2  0
 20 16  1  0
 21 28  1  0
 22 21  2  0
 23 24  1  0
 24 26  1  0
 25 24  2  0
 27 26  1  1
 27 29  1  0
 28 27  1  0
 29 31  2  0
 29 30  1  0
M  END
$$$$
