YHN.pdb
     RDKit          3D

 31 32  0  0  1  0  0  0  0  0999 V2000
    8.4222  -12.9314   16.7598 O   0  0  0  0  0  0  0  0  0  0  0  0
    8.2527  -13.4741   18.0439 C   0  0  0  0  0  0  0  0  0  0  0  0
    7.3958  -12.8353   18.9267 C   0  0  0  0  0  0  0  0  0  0  0  0
    7.1877  -13.3224   20.2061 C   0  0  0  0  0  0  0  0  0  0  0  0
    7.8395  -14.4734   20.6352 C   0  0  0  0  0  0  0  0  0  0  0  0
    7.5776  -14.9462   22.0076 C   0  0  0  0  0  0  0  0  0  0  0  0
    6.6656  -16.1260   21.9280 C   0  0  2  0  0  0  0  0  0  0  0  0
    5.3557  -15.6941   21.4876 N   0  0  0  0  0  0  0  0  0  0  0  0
    6.5840  -16.9028   23.1984 C   0  0  0  0  0  0  0  0  0  0  0  0
    5.9893  -16.4438   24.2022 O   0  0  0  0  0  0  0  0  0  0  0  0
    8.6818  -15.0908   19.7496 C   0  0  0  0  0  0  0  0  0  0  0  0
    8.8974  -14.6109   18.4665 C   0  0  0  0  0  0  0  0  0  0  0  0
    7.1767  -18.2035   23.3344 N   0  0  0  0  0  0  0  0  0  0  0  0
    7.4211  -18.7852   24.6394 C   0  0  1  0  0  0  0  0  0  0  0  0
    6.6997  -20.0916   24.7268 C   0  0  0  0  0  0  0  0  0  0  0  0
    6.9147  -20.7800   26.0106 C   0  0  0  0  0  0  0  0  0  0  0  0
    7.6515  -20.2838   27.0587 C   0  0  0  0  0  0  0  0  0  0  0  0
    7.6379  -21.1620   28.0628 N   0  0  0  0  0  0  0  0  0  0  0  0
    6.8991  -22.2010   27.6486 C   0  0  0  0  0  0  0  0  0  0  0  0
    6.4513  -21.9874   26.4051 N   0  0  0  0  0  0  0  0  0  0  0  0
    8.8683  -18.9480   24.9320 C   0  0  0  0  0  0  0  0  0  0  0  0
    9.7002  -19.1462   24.0394 O   0  0  0  0  0  0  0  0  0  0  0  0
   13.6629  -19.0688   25.8424 N   0  0  0  0  0  0  0  0  0  0  0  0
   12.9362  -17.9055   26.2033 C   0  0  0  0  0  0  0  0  0  0  0  0
   13.5579  -16.9843   26.7892 O   0  0  0  0  0  0  0  0  0  0  0  0
   11.4913  -17.8393   25.8729 C   0  0  0  0  0  0  0  0  0  0  0  0
   10.6960  -18.8913   26.6140 C   0  0  2  0  0  0  0  0  0  0  0  0
    9.3050  -18.8734   26.2716 N   0  0  0  0  0  0  0  0  0  0  0  0
   10.9252  -18.8374   28.0749 C   0  0  0  0  0  0  0  0  0  0  0  0
   12.0896  -19.2689   28.6857 O   0  0  0  0  0  0  0  0  0  0  0  0
   10.0173  -18.3759   28.8070 O   0  0  0  0  0  0  0  0  0  0  0  0
  2  1  1  0
  3  2  2  0
  4  3  1  0
  5  4  2  0
  5 11  1  0
  6  5  1  0
  7  6  1  0
  7  8  1  1
  9  7  1  0
  9 13  1  0
 10  9  2  0
 11 12  2  0
 12  2  1  0
 14 13  1  0
 14 21  1  0
 14 15  1  6
 16 15  1  0
 17 16  2  0
 18 19  1  0
 18 17  1  0
 19 20  2  0
 20 16  1  0
 21 28  1  0
 22 21  2  0
 23 24  1  0
 24 26  1  0
 25 24  2  0
 27 26  1  6
 27 29  1  0
 28 27  1  0
 29 31  2  0
 29 30  1  0
M  END
$$$$
