YHN.pdb
     RDKit          3D

 31 32  0  0  1  0  0  0  0  0999 V2000
   22.2398  -16.0915   11.4855 O   0  0  0  0  0  0  0  0  0  0  0  0
   21.1508  -16.4366   12.3023 C   0  0  0  0  0  0  0  0  0  0  0  0
   21.0124  -17.7570   12.7011 C   0  0  0  0  0  0  0  0  0  0  0  0
   19.9597  -18.1582   13.5063 C   0  0  0  0  0  0  0  0  0  0  0  0
   19.0115  -17.2360   13.9359 C   0  0  0  0  0  0  0  0  0  0  0  0
   17.9135  -17.7207   14.7932 C   0  0  0  0  0  0  0  0  0  0  0  0
   16.8382  -18.2639   13.9107 C   0  0  2  0  0  0  0  0  0  0  0  0
   16.2801  -17.1912   13.1143 N   0  0  0  0  0  0  0  0  0  0  0  0
   15.7749  -19.0015   14.6520 C   0  0  0  0  0  0  0  0  0  0  0  0
   14.5701  -18.9127   14.3169 O   0  0  0  0  0  0  0  0  0  0  0  0
   19.1646  -15.9366   13.5322 C   0  0  0  0  0  0  0  0  0  0  0  0
   20.2148  -15.5247   12.7256 C   0  0  0  0  0  0  0  0  0  0  0  0
   16.0751  -19.8429   15.7761 N   0  0  0  0  0  0  0  0  0  0  0  0
   15.0376  -20.6051   16.4423 C   0  0  1  0  0  0  0  0  0  0  0  0
   14.3431  -21.4591   15.4308 C   0  0  0  0  0  0  0  0  0  0  0  0
   13.2607  -22.2705   16.0123 C   0  0  0  0  0  0  0  0  0  0  0  0
   12.5127  -21.9187   17.1097 C   0  0  0  0  0  0  0  0  0  0  0  0
   11.6220  -22.8789   17.3632 N   0  0  0  0  0  0  0  0  0  0  0  0
   11.8094  -23.8260   16.4331 C   0  0  0  0  0  0  0  0  0  0  0  0
   12.7999  -23.4744   15.6040 N   0  0  0  0  0  0  0  0  0  0  0  0
   15.5597  -21.4205   17.5688 C   0  0  0  0  0  0  0  0  0  0  0  0
   16.4131  -22.2994   17.4026 O   0  0  0  0  0  0  0  0  0  0  0  0
   17.4922  -21.7110   22.1738 N   0  0  0  0  0  0  0  0  0  0  0  0
   16.2971  -20.9804   22.3965 C   0  0  0  0  0  0  0  0  0  0  0  0
   16.1224  -20.4750   23.5333 O   0  0  0  0  0  0  0  0  0  0  0  0
   15.3240  -20.8536   21.2837 C   0  0  0  0  0  0  0  0  0  0  0  0
   15.7983  -21.5679   20.0374 C   0  0  2  0  0  0  0  0  0  0  0  0
   15.0649  -21.1827   18.8686 N   0  0  0  0  0  0  0  0  0  0  0  0
   15.8500  -23.0353   20.2212 C   0  0  0  0  0  0  0  0  0  0  0  0
   15.0921  -23.9284   19.4843 O   0  0  0  0  0  0  0  0  0  0  0  0
   16.6220  -23.5031   21.0922 O   0  0  0  0  0  0  0  0  0  0  0  0
  2  1  1  0
  3  2  2  0
  4  3  1  0
  5  4  2  0
  5 11  1  0
  6  5  1  0
  7  6  1  0
  7  8  1  1
  9  7  1  0
  9 13  1  0
 10  9  2  0
 11 12  2  0
 12  2  1  0
 14 13  1  0
 14 21  1  0
 14 15  1  6
 16 15  1  0
 17 16  2  0
 18 19  1  0
 18 17  1  0
 19 20  2  0
 20 16  1  0
 21 28  1  0
 22 21  2  0
 23 24  1  0
 24 26  1  0
 25 24  2  0
 27 26  1  1
 27 29  1  0
 28 27  1  0
 29 31  2  0
 29 30  1  0
M  END
$$$$
