YHN.pdb
     RDKit          3D

 31 32  0  0  1  0  0  0  0  0999 V2000
    6.0410  -12.3186   19.7565 O   0  0  0  0  0  0  0  0  0  0  0  0
    7.3137  -12.9121   19.7459 C   0  0  0  0  0  0  0  0  0  0  0  0
    8.4015  -12.1431   19.3627 C   0  0  0  0  0  0  0  0  0  0  0  0
    9.6809  -12.6721   19.3322 C   0  0  0  0  0  0  0  0  0  0  0  0
    9.9027  -13.9977   19.6894 C   0  0  0  0  0  0  0  0  0  0  0  0
   11.2865  -14.5056   19.6393 C   0  0  0  0  0  0  0  0  0  0  0  0
   11.5886  -14.8972   18.2303 C   0  0  2  0  0  0  0  0  0  0  0  0
   10.6173  -15.8730   17.7821 N   0  0  0  0  0  0  0  0  0  0  0  0
   12.9832  -15.3876   18.0341 C   0  0  0  0  0  0  0  0  0  0  0  0
   13.2505  -16.6121   18.0649 O   0  0  0  0  0  0  0  0  0  0  0  0
    8.8164  -14.7417   20.0651 C   0  0  0  0  0  0  0  0  0  0  0  0
    7.5312  -14.2217   20.0986 C   0  0  0  0  0  0  0  0  0  0  0  0
   14.0797  -14.4901   17.8018 N   0  0  0  0  0  0  0  0  0  0  0  0
   15.4453  -14.9724   17.7398 C   0  0  1  0  0  0  0  0  0  0  0  0
   16.3385  -13.8394   17.3483 C   0  0  0  0  0  0  0  0  0  0  0  0
   16.3922  -13.6292   15.8919 C   0  0  0  0  0  0  0  0  0  0  0  0
   15.8927  -14.4961   14.9502 C   0  0  0  0  0  0  0  0  0  0  0  0
   16.1085  -13.9969   13.7321 N   0  0  0  0  0  0  0  0  0  0  0  0
   16.7384  -12.8266   13.9073 C   0  0  0  0  0  0  0  0  0  0  0  0
   16.9194  -12.5862   15.2118 N   0  0  0  0  0  0  0  0  0  0  0  0
   15.8910  -15.5952   19.0126 C   0  0  0  0  0  0  0  0  0  0  0  0
   15.5002  -15.1907   20.1134 O   0  0  0  0  0  0  0  0  0  0  0  0
   17.9333  -20.4923   21.1656 N   0  0  0  0  0  0  0  0  0  0  0  0
   16.8981  -19.5485   21.3875 C   0  0  0  0  0  0  0  0  0  0  0  0
   16.4386  -19.4455   22.5522 O   0  0  0  0  0  0  0  0  0  0  0  0
   16.4160  -18.7399   20.2407 C   0  0  0  0  0  0  0  0  0  0  0  0
   17.1483  -17.4204   20.1354 C   0  0  2  0  0  0  0  0  0  0  0  0
   16.7886  -16.6826   18.9611 N   0  0  0  0  0  0  0  0  0  0  0  0
   18.6120  -17.5817   20.2823 C   0  0  0  0  0  0  0  0  0  0  0  0
   19.2431  -17.7923   21.4956 O   0  0  0  0  0  0  0  0  0  0  0  0
   19.3270  -17.5255   19.2532 O   0  0  0  0  0  0  0  0  0  0  0  0
  2  1  1  0
  3  2  2  0
  4  3  1  0
  5  4  2  0
  5 11  1  0
  6  5  1  0
  7  6  1  0
  7  8  1  1
  9  7  1  0
  9 13  1  0
 10  9  2  0
 11 12  2  0
 12  2  1  0
 14 13  1  0
 14 21  1  0
 14 15  1  1
 16 15  1  0
 17 16  2  0
 18 19  1  0
 18 17  1  0
 19 20  2  0
 20 16  1  0
 21 28  1  0
 22 21  2  0
 23 24  1  0
 24 26  1  0
 25 24  2  0
 27 26  1  6
 27 29  1  0
 28 27  1  0
 29 31  2  0
 29 30  1  0
M  END
$$$$
