YHN.pdb
     RDKit          3D

 31 32  0  0  1  0  0  0  0  0999 V2000
    8.3356  -11.2374   18.1057 O   0  0  0  0  0  0  0  0  0  0  0  0
    8.4771  -12.3297   18.9770 C   0  0  0  0  0  0  0  0  0  0  0  0
    7.3385  -13.0122   19.3761 C   0  0  0  0  0  0  0  0  0  0  0  0
    7.4141  -14.0969   20.2335 C   0  0  0  0  0  0  0  0  0  0  0  0
    8.6452  -14.5281   20.7157 C   0  0  0  0  0  0  0  0  0  0  0  0
    8.6642  -15.6896   21.6244 C   0  0  0  0  0  0  0  0  0  0  0  0
    9.3273  -16.8248   20.9161 C   0  0  2  0  0  0  0  0  0  0  0  0
    8.5976  -17.1286   19.7030 N   0  0  0  0  0  0  0  0  0  0  0  0
    9.5000  -18.0381   21.7658 C   0  0  0  0  0  0  0  0  0  0  0  0
    8.5096  -18.6819   22.1860 O   0  0  0  0  0  0  0  0  0  0  0  0
    9.7586  -13.8418   20.3106 C   0  0  0  0  0  0  0  0  0  0  0  0
    9.6938  -12.7542   19.4526 C   0  0  0  0  0  0  0  0  0  0  0  0
   10.7973  -18.5256   22.1415 N   0  0  0  0  0  0  0  0  0  0  0  0
   10.9453  -19.6317   23.0666 C   0  0  1  0  0  0  0  0  0  0  0  0
   11.0234  -20.9045   22.2863 C   0  0  0  0  0  0  0  0  0  0  0  0
   11.2150  -20.6810   20.8435 C   0  0  0  0  0  0  0  0  0  0  0  0
   11.3107  -19.4498   20.2413 C   0  0  0  0  0  0  0  0  0  0  0  0
   11.4812  -19.6127   18.9282 N   0  0  0  0  0  0  0  0  0  0  0  0
   11.4921  -20.9350   18.7078 C   0  0  0  0  0  0  0  0  0  0  0  0
   11.3319  -21.6000   19.8586 N   0  0  0  0  0  0  0  0  0  0  0  0
   12.1198  -19.4759   23.9625 C   0  0  0  0  0  0  0  0  0  0  0  0
   12.9161  -18.5378   23.8437 O   0  0  0  0  0  0  0  0  0  0  0  0
   10.6837  -19.3653   29.2592 N   0  0  0  0  0  0  0  0  0  0  0  0
   11.5142  -18.7905   28.2634 C   0  0  0  0  0  0  0  0  0  0  0  0
   12.3737  -17.9509   28.6301 O   0  0  0  0  0  0  0  0  0  0  0  0
   11.3243  -19.2077   26.8523 C   0  0  0  0  0  0  0  0  0  0  0  0
   12.4797  -20.0473   26.3535 C   0  0  2  0  0  0  0  0  0  0  0  0
   12.3310  -20.4295   24.9808 N   0  0  0  0  0  0  0  0  0  0  0  0
   12.7555  -21.1994   27.2404 C   0  0  0  0  0  0  0  0  0  0  0  0
   13.6221  -21.1484   28.3180 O   0  0  0  0  0  0  0  0  0  0  0  0
   12.1745  -22.2866   27.0081 O   0  0  0  0  0  0  0  0  0  0  0  0
  2  1  1  0
  3  2  2  0
  4  3  1  0
  5  4  2  0
  5 11  1  0
  6  5  1  0
  7  6  1  0
  7  8  1  6
  9  7  1  0
  9 13  1  0
 10  9  2  0
 11 12  2  0
 12  2  1  0
 14 13  1  0
 14 21  1  0
 14 15  1  6
 16 15  1  0
 17 16  2  0
 18 19  1  0
 18 17  1  0
 19 20  2  0
 20 16  1  0
 21 28  1  0
 22 21  2  0
 23 24  1  0
 24 26  1  0
 25 24  2  0
 27 26  1  1
 27 29  1  0
 28 27  1  0
 29 31  2  0
 29 30  1  0
M  END
$$$$
