FVI.pdb
     RDKit          3D

 27 27  0  0  1  0  0  0  0  0999 V2000
   28.9801  -23.1738  -18.1175 N   0  0  0  0  0  0  0  0  0  0  0  0
   27.6441  -22.7036  -17.7887 C   0  0  1  0  0  0  0  0  0  0  0  0
   26.7721  -23.9609  -17.6829 C   0  0  0  0  0  0  0  0  0  0  0  0
   26.0800  -24.1109  -18.9826 C   0  0  0  0  0  0  0  0  0  0  0  0
   26.5702  -24.9111  -19.9853 C   0  0  0  0  0  0  0  0  0  0  0  0
   25.9389  -25.0614  -21.1995 C   0  0  0  0  0  0  0  0  0  0  0  0
   24.7676  -24.3694  -21.3926 C   0  0  0  0  0  0  0  0  0  0  0  0
   24.2556  -23.5600  -20.4015 C   0  0  0  0  0  0  0  0  0  0  0  0
   24.9077  -23.4234  -19.1869 C   0  0  0  0  0  0  0  0  0  0  0  0
   27.6958  -22.0329  -16.4566 C   0  0  0  0  0  0  0  0  0  0  0  0
   28.6865  -22.1773  -15.6987 O   0  0  0  0  0  0  0  0  0  0  0  0
   25.5225  -18.3613  -15.4716 C   0  0  0  0  0  0  0  0  0  0  0  0
   26.8010  -18.9334  -14.9564 C   0  0  2  0  0  0  0  0  0  0  0  0
   28.0161  -18.4367  -15.7372 C   0  0  0  0  0  0  0  0  0  0  0  0
   26.8146  -20.4080  -14.7869 C   0  0  2  0  0  0  0  0  0  0  0  0
   26.6838  -21.2127  -15.9479 N   0  0  0  0  0  0  0  0  0  0  0  0
   25.7113  -20.7849  -13.8474 C   0  0  0  0  0  0  0  0  0  0  0  0
   24.6421  -21.3476  -14.2691 O   0  0  0  0  0  0  0  0  0  0  0  0
   26.6282  -20.7476   -8.2591 C   0  0  0  0  0  0  0  0  0  0  0  0
   26.1078  -21.2547   -9.5942 C   0  0  0  0  0  0  0  0  0  0  0  0
   24.9731  -20.4541  -10.1333 C   0  0  2  0  0  0  0  0  0  0  0  0
   23.7703  -20.7054   -9.2486 C   0  0  0  0  0  0  0  0  0  0  0  0
   24.6227  -20.7284  -11.5655 C   0  0  2  0  0  0  0  0  0  0  0  0
   25.7565  -20.5575  -12.4533 N   0  0  0  0  0  0  0  0  0  0  0  0
   23.4170  -20.0539  -12.0508 C   0  0  0  0  0  0  0  0  0  0  0  0
   23.3585  -18.8689  -12.4272 O   0  0  0  0  0  0  0  0  0  0  0  0
   22.2099  -20.7775  -12.1081 O   0  0  0  0  0  0  0  0  0  0  0  0
  2  1  1  1
  3  2  1  0
  4  3  1  0
  4  9  2  0
  5  4  1  0
  6  5  2  0
  6  7  1  0
  7  8  2  0
  8  9  1  0
 10  2  1  0
 11 10  2  0
 13 15  1  0
 13 12  1  6
 14 13  1  0
 15 16  1  6
 16 10  1  0
 17 18  2  0
 17 15  1  0
 19 20  1  0
 20 21  1  0
 21 23  1  0
 21 22  1  1
 23 24  1  6
 24 17  1  0
 25 27  1  0
 25 23  1  0
 26 25  2  0
M  END
$$$$
