FVI.pdb
     RDKit          3D

 27 27  0  0  1  0  0  0  0  0999 V2000
   25.4651  -18.8316  -14.5658 N   0  0  0  0  0  0  0  0  0  0  0  0
   26.5393  -18.9933  -13.5995 C   0  0  1  0  0  0  0  0  0  0  0  0
   27.4408  -17.7636  -13.7660 C   0  0  0  0  0  0  0  0  0  0  0  0
   28.2666  -17.9999  -14.9714 C   0  0  0  0  0  0  0  0  0  0  0  0
   29.2513  -18.9565  -15.0086 C   0  0  0  0  0  0  0  0  0  0  0  0
   30.0278  -19.1887  -16.1213 C   0  0  0  0  0  0  0  0  0  0  0  0
   29.7879  -18.4160  -17.2319 C   0  0  0  0  0  0  0  0  0  0  0  0
   28.8052  -17.4496  -17.2191 C   0  0  0  0  0  0  0  0  0  0  0  0
   28.0353  -17.2328  -16.0880 C   0  0  0  0  0  0  0  0  0  0  0  0
   25.9464  -18.9809  -12.2301 C   0  0  0  0  0  0  0  0  0  0  0  0
   24.9905  -18.2173  -11.9471 O   0  0  0  0  0  0  0  0  0  0  0  0
   24.7835  -22.0829   -9.6805 C   0  0  0  0  0  0  0  0  0  0  0  0
   24.5808  -20.6044   -9.6667 C   0  0  2  0  0  0  0  0  0  0  0  0
   23.4388  -20.1659  -10.5811 C   0  0  0  0  0  0  0  0  0  0  0  0
   25.8056  -19.7930   -9.8795 C   0  0  2  0  0  0  0  0  0  0  0  0
   26.3837  -19.7879  -11.1751 N   0  0  0  0  0  0  0  0  0  0  0  0
   26.8535  -20.2596   -8.9173 C   0  0  0  0  0  0  0  0  0  0  0  0
   27.5923  -21.2716   -9.1779 O   0  0  0  0  0  0  0  0  0  0  0  0
   29.4301  -17.1358   -5.0740 C   0  0  0  0  0  0  0  0  0  0  0  0
   29.1836  -18.2703   -6.0553 C   0  0  0  0  0  0  0  0  0  0  0  0
   28.2608  -19.3173   -5.5346 C   0  0  2  0  0  0  0  0  0  0  0  0
   28.9787  -20.0530   -4.4227 C   0  0  0  0  0  0  0  0  0  0  0  0
   27.7623  -20.2942   -6.5576 C   0  0  2  0  0  0  0  0  0  0  0  0
   27.1086  -19.6385   -7.6737 N   0  0  0  0  0  0  0  0  0  0  0  0
   26.9825  -21.4118   -6.0219 C   0  0  0  0  0  0  0  0  0  0  0  0
   25.7507  -21.4086   -5.8433 O   0  0  0  0  0  0  0  0  0  0  0  0
   27.6515  -22.6006   -5.6708 O   0  0  0  0  0  0  0  0  0  0  0  0
  2  1  1  6
  3  2  1  0
  4  3  1  0
  4  9  2  0
  5  4  1  0
  6  5  2  0
  6  7  1  0
  7  8  2  0
  8  9  1  0
 10  2  1  0
 11 10  2  0
 13 15  1  0
 13 12  1  6
 14 13  1  0
 15 16  1  6
 16 10  1  0
 17 18  2  0
 17 15  1  0
 19 20  1  0
 20 21  1  0
 21 23  1  0
 21 22  1  1
 23 24  1  6
 24 17  1  0
 25 27  1  0
 25 23  1  0
 26 25  2  0
M  END
$$$$
