FVI.pdb
     RDKit          3D

 27 27  0  0  1  0  0  0  0  0999 V2000
   24.0896  -20.9415  -18.1460 N   0  0  0  0  0  0  0  0  0  0  0  0
   24.2565  -19.8990  -17.1465 C   0  0  1  0  0  0  0  0  0  0  0  0
   22.8537  -19.6233  -16.5908 C   0  0  0  0  0  0  0  0  0  0  0  0
   22.1465  -18.8074  -17.6031 C   0  0  0  0  0  0  0  0  0  0  0  0
   22.5348  -17.5271  -17.9132 C   0  0  0  0  0  0  0  0  0  0  0  0
   21.8880  -16.7551  -18.8518 C   0  0  0  0  0  0  0  0  0  0  0  0
   20.8085  -17.3129  -19.4936 C   0  0  0  0  0  0  0  0  0  0  0  0
   20.3996  -18.5959  -19.1997 C   0  0  0  0  0  0  0  0  0  0  0  0
   21.0654  -19.3550  -18.2512 C   0  0  0  0  0  0  0  0  0  0  0  0
   25.1187  -20.4311  -16.0508 C   0  0  0  0  0  0  0  0  0  0  0  0
   24.8766  -21.5434  -15.5208 O   0  0  0  0  0  0  0  0  0  0  0  0
   29.1913  -20.3645  -13.2010 C   0  0  0  0  0  0  0  0  0  0  0  0
   28.4142  -19.7802  -14.3332 C   0  0  2  0  0  0  0  0  0  0  0  0
   28.5353  -18.2590  -14.3971 C   0  0  0  0  0  0  0  0  0  0  0  0
   27.0032  -20.2298  -14.4344 C   0  0  2  0  0  0  0  0  0  0  0  0
   26.2338  -19.7655  -15.5322 N   0  0  0  0  0  0  0  0  0  0  0  0
   26.2899  -19.8307  -13.1799 C   0  0  0  0  0  0  0  0  0  0  0  0
   25.6645  -18.7174  -13.0960 O   0  0  0  0  0  0  0  0  0  0  0  0
   21.5183  -19.9691  -10.6474 C   0  0  0  0  0  0  0  0  0  0  0  0
   22.9739  -19.9582  -10.2094 C   0  0  0  0  0  0  0  0  0  0  0  0
   23.9242  -20.3325  -11.2937 C   0  0  2  0  0  0  0  0  0  0  0  0
   23.4967  -21.6798  -11.8366 C   0  0  0  0  0  0  0  0  0  0  0  0
   25.3677  -20.3771  -10.8894 C   0  0  2  0  0  0  0  0  0  0  0  0
   26.2480  -20.6285  -12.0140 N   0  0  0  0  0  0  0  0  0  0  0  0
   25.6645  -21.2298   -9.7365 C   0  0  0  0  0  0  0  0  0  0  0  0
   26.2188  -22.3430   -9.7895 O   0  0  0  0  0  0  0  0  0  0  0  0
   25.3060  -20.7821   -8.4500 O   0  0  0  0  0  0  0  0  0  0  0  0
  2  1  1  6
  3  2  1  0
  4  3  1  0
  4  9  2  0
  5  4  1  0
  6  5  2  0
  6  7  1  0
  7  8  2  0
  8  9  1  0
 10  2  1  0
 11 10  2  0
 13 15  1  0
 13 12  1  1
 14 13  1  0
 15 16  1  6
 16 10  1  0
 17 18  2  0
 17 15  1  0
 19 20  1  0
 20 21  1  0
 21 23  1  0
 21 22  1  1
 23 24  1  6
 24 17  1  0
 25 27  1  0
 25 23  1  0
 26 25  2  0
M  END
$$$$
