FVI.pdb
     RDKit          3D

 27 27  0  0  1  0  0  0  0  0999 V2000
   23.6014  -21.4838  -14.4714 N   0  0  0  0  0  0  0  0  0  0  0  0
   23.3997  -20.8484  -13.1793 C   0  0  1  0  0  0  0  0  0  0  0  0
   21.9898  -21.2522  -12.7299 C   0  0  0  0  0  0  0  0  0  0  0  0
   21.0426  -20.3864  -13.4673 C   0  0  0  0  0  0  0  0  0  0  0  0
   20.7702  -19.0987  -13.0753 C   0  0  0  0  0  0  0  0  0  0  0  0
   19.8921  -18.2806  -13.7499 C   0  0  0  0  0  0  0  0  0  0  0  0
   19.2730  -18.7986  -14.8619 C   0  0  0  0  0  0  0  0  0  0  0  0
   19.5300  -20.0882  -15.2751 C   0  0  0  0  0  0  0  0  0  0  0  0
   20.4176  -20.8940  -14.5810 C   0  0  0  0  0  0  0  0  0  0  0  0
   24.3959  -21.4076  -12.2191 C   0  0  0  0  0  0  0  0  0  0  0  0
   24.5465  -22.6479  -12.0938 O   0  0  0  0  0  0  0  0  0  0  0  0
   28.1658  -19.8288  -11.9147 C   0  0  0  0  0  0  0  0  0  0  0  0
   27.6543  -21.1566  -11.4645 C   0  0  2  0  0  0  0  0  0  0  0  0
   27.6386  -22.1861  -12.5926 C   0  0  0  0  0  0  0  0  0  0  0  0
   26.3681  -21.1244  -10.7241 C   0  0  2  0  0  0  0  0  0  0  0  0
   25.2228  -20.6315  -11.4009 N   0  0  0  0  0  0  0  0  0  0  0  0
   26.5553  -20.2987   -9.4892 C   0  0  0  0  0  0  0  0  0  0  0  0
   25.6791  -19.4405   -9.1240 O   0  0  0  0  0  0  0  0  0  0  0  0
   25.5072  -19.6860   -4.2374 C   0  0  0  0  0  0  0  0  0  0  0  0
   26.6760  -19.3282   -5.1411 C   0  0  0  0  0  0  0  0  0  0  0  0
   26.6573  -20.0419   -6.4485 C   0  0  2  0  0  0  0  0  0  0  0  0
   26.6205  -21.5282   -6.1618 C   0  0  0  0  0  0  0  0  0  0  0  0
   27.8013  -19.7244   -7.3648 C   0  0  2  0  0  0  0  0  0  0  0  0
   27.6848  -20.3951   -8.6452 N   0  0  0  0  0  0  0  0  0  0  0  0
   29.1320  -19.8663   -6.7704 C   0  0  0  0  0  0  0  0  0  0  0  0
   29.5645  -19.2038   -5.8096 O   0  0  0  0  0  0  0  0  0  0  0  0
   30.0176  -20.8212   -7.3071 O   0  0  0  0  0  0  0  0  0  0  0  0
  2  1  1  6
  3  2  1  0
  4  3  1  0
  4  9  2  0
  5  4  1  0
  6  5  2  0
  6  7  1  0
  7  8  2  0
  8  9  1  0
 10  2  1  0
 11 10  2  0
 13 15  1  0
 13 12  1  6
 14 13  1  0
 15 16  1  6
 16 10  1  0
 17 18  2  0
 17 15  1  0
 19 20  1  0
 20 21  1  0
 21 23  1  0
 21 22  1  1
 23 24  1  6
 24 17  1  0
 25 27  1  0
 25 23  1  0
 26 25  2  0
M  END
$$$$
