FVI.pdb
     RDKit          3D

 27 27  0  0  1  0  0  0  0  0999 V2000
   29.6456  -22.1721  -18.0916 N   0  0  0  0  0  0  0  0  0  0  0  0
   28.3069  -22.2911  -17.5369 C   0  0  1  0  0  0  0  0  0  0  0  0
   28.1632  -23.7545  -17.1005 C   0  0  0  0  0  0  0  0  0  0  0  0
   27.5377  -24.4773  -18.2305 C   0  0  0  0  0  0  0  0  0  0  0  0
   26.1968  -24.3786  -18.5106 C   0  0  0  0  0  0  0  0  0  0  0  0
   25.5997  -25.0440  -19.5575 C   0  0  0  0  0  0  0  0  0  0  0  0
   26.4021  -25.8363  -20.3427 C   0  0  0  0  0  0  0  0  0  0  0  0
   27.7506  -25.9515  -20.0816 C   0  0  0  0  0  0  0  0  0  0  0  0
   28.3307  -25.2726  -19.0226 C   0  0  0  0  0  0  0  0  0  0  0  0
   28.2162  -21.4128  -16.3338 C   0  0  0  0  0  0  0  0  0  0  0  0
   29.2516  -20.9825  -15.7687 O   0  0  0  0  0  0  0  0  0  0  0  0
   27.0717  -17.9882  -16.2675 C   0  0  0  0  0  0  0  0  0  0  0  0
   26.3518  -18.6782  -15.1571 C   0  0  2  0  0  0  0  0  0  0  0  0
   26.1238  -17.7635  -13.9555 C   0  0  0  0  0  0  0  0  0  0  0  0
   26.9131  -19.9926  -14.7560 C   0  0  2  0  0  0  0  0  0  0  0  0
   27.0150  -21.0030  -15.7465 N   0  0  0  0  0  0  0  0  0  0  0  0
   26.0827  -20.5380  -13.6357 C   0  0  0  0  0  0  0  0  0  0  0  0
   25.0640  -21.2785  -13.8627 O   0  0  0  0  0  0  0  0  0  0  0  0
   25.9202  -20.5792   -7.3296 C   0  0  0  0  0  0  0  0  0  0  0  0
   25.2889  -20.9064   -8.6731 C   0  0  0  0  0  0  0  0  0  0  0  0
   26.0875  -20.4310   -9.8372 C   0  0  2  0  0  0  0  0  0  0  0  0
   26.2648  -18.9340   -9.6940 C   0  0  0  0  0  0  0  0  0  0  0  0
   25.5076  -20.7524  -11.1825 C   0  0  2  0  0  0  0  0  0  0  0  0
   26.3469  -20.2879  -12.2701 N   0  0  0  0  0  0  0  0  0  0  0  0
   24.1007  -20.3858  -11.3568 C   0  0  0  0  0  0  0  0  0  0  0  0
   23.1288  -21.0618  -10.9725 O   0  0  0  0  0  0  0  0  0  0  0  0
   23.7893  -19.1765  -12.0085 O   0  0  0  0  0  0  0  0  0  0  0  0
  2  1  1  1
  3  2  1  0
  4  3  1  0
  4  9  2  0
  5  4  1  0
  6  5  2  0
  6  7  1  0
  7  8  2  0
  8  9  1  0
 10  2  1  0
 11 10  2  0
 13 15  1  0
 13 12  1  6
 14 13  1  0
 15 16  1  6
 16 10  1  0
 17 18  2  0
 17 15  1  0
 19 20  1  0
 20 21  1  0
 21 23  1  0
 21 22  1  1
 23 24  1  6
 24 17  1  0
 25 27  1  0
 25 23  1  0
 26 25  2  0
M  END
$$$$
