FVI.pdb
     RDKit          3D

 27 27  0  0  1  0  0  0  0  0999 V2000
   23.6946  -22.1000  -13.9772 N   0  0  0  0  0  0  0  0  0  0  0  0
   23.9567  -21.0153  -13.0452 C   0  0  1  0  0  0  0  0  0  0  0  0
   22.6414  -20.7849  -12.2906 C   0  0  0  0  0  0  0  0  0  0  0  0
   21.7732  -19.9826  -13.1813 C   0  0  0  0  0  0  0  0  0  0  0  0
   22.1429  -18.7427  -13.6417 C   0  0  0  0  0  0  0  0  0  0  0  0
   21.3473  -17.9841  -14.4705 C   0  0  0  0  0  0  0  0  0  0  0  0
   20.1338  -18.5128  -14.8394 C   0  0  0  0  0  0  0  0  0  0  0  0
   19.7406  -19.7551  -14.3903 C   0  0  0  0  0  0  0  0  0  0  0  0
   20.5573  -20.5015  -13.5567 C   0  0  0  0  0  0  0  0  0  0  0  0
   25.0003  -21.4670  -12.0788 C   0  0  0  0  0  0  0  0  0  0  0  0
   25.0528  -22.6620  -11.6967 O   0  0  0  0  0  0  0  0  0  0  0  0
   29.4845  -21.4448  -10.2664 C   0  0  0  0  0  0  0  0  0  0  0  0
   28.4266  -20.8950  -11.1642 C   0  0  2  0  0  0  0  0  0  0  0  0
   28.7043  -19.4496  -11.5722 C   0  0  0  0  0  0  0  0  0  0  0  0
   27.0320  -21.0803  -10.6907 C   0  0  2  0  0  0  0  0  0  0  0  0
   25.9793  -20.6329  -11.5298 N   0  0  0  0  0  0  0  0  0  0  0  0
   26.8858  -20.3874   -9.3714 C   0  0  0  0  0  0  0  0  0  0  0  0
   26.1907  -19.3193   -9.2548 O   0  0  0  0  0  0  0  0  0  0  0  0
   28.5511  -21.0475   -3.3276 C   0  0  0  0  0  0  0  0  0  0  0  0
   27.8250  -20.3023   -4.4358 C   0  0  0  0  0  0  0  0  0  0  0  0
   28.0113  -20.9103   -5.7828 C   0  0  2  0  0  0  0  0  0  0  0  0
   29.4932  -21.1511   -5.9789 C   0  0  0  0  0  0  0  0  0  0  0  0
   27.4664  -20.1070   -6.9261 C   0  0  2  0  0  0  0  0  0  0  0  0
   27.4868  -20.8423   -8.1759 N   0  0  0  0  0  0  0  0  0  0  0  0
   28.0168  -18.7562   -7.0550 C   0  0  0  0  0  0  0  0  0  0  0  0
   29.0518  -18.4582   -7.6789 O   0  0  0  0  0  0  0  0  0  0  0  0
   27.3437  -17.6861   -6.4338 O   0  0  0  0  0  0  0  0  0  0  0  0
  2  1  1  6
  3  2  1  0
  4  3  1  0
  4  9  2  0
  5  4  1  0
  6  5  2  0
  6  7  1  0
  7  8  2  0
  8  9  1  0
 10  2  1  0
 11 10  2  0
 13 15  1  0
 13 12  1  1
 14 13  1  0
 15 16  1  6
 16 10  1  0
 17 18  2  0
 17 15  1  0
 19 20  1  0
 20 21  1  0
 21 23  1  0
 21 22  1  6
 23 24  1  6
 24 17  1  0
 25 27  1  0
 25 23  1  0
 26 25  2  0
M  END
$$$$
