FVI.pdb
     RDKit          3D

 27 27  0  0  1  0  0  0  0  0999 V2000
   25.9601  -18.9706  -14.9221 N   0  0  0  0  0  0  0  0  0  0  0  0
   26.8985  -18.8829  -13.8151 C   0  0  1  0  0  0  0  0  0  0  0  0
   27.5415  -17.4943  -13.9205 C   0  0  0  0  0  0  0  0  0  0  0  0
   28.3592  -17.4952  -15.1542 C   0  0  0  0  0  0  0  0  0  0  0  0
   29.4467  -18.3190  -15.3114 C   0  0  0  0  0  0  0  0  0  0  0  0
   30.2174  -18.3320  -16.4521 C   0  0  0  0  0  0  0  0  0  0  0  0
   29.8624  -17.4734  -17.4645 C   0  0  0  0  0  0  0  0  0  0  0  0
   28.7751  -16.6370  -17.3304 C   0  0  0  0  0  0  0  0  0  0  0  0
   28.0134  -16.6405  -16.1733 C   0  0  0  0  0  0  0  0  0  0  0  0
   26.1301  -18.9684  -12.5387 C   0  0  0  0  0  0  0  0  0  0  0  0
   24.9636  -18.5110  -12.4552 O   0  0  0  0  0  0  0  0  0  0  0  0
   23.9023  -21.1272   -9.2052 C   0  0  0  0  0  0  0  0  0  0  0  0
   24.7624  -20.8943  -10.4024 C   0  0  2  0  0  0  0  0  0  0  0  0
   25.3182  -22.1942  -10.9804 C   0  0  0  0  0  0  0  0  0  0  0  0
   25.8184  -19.8644  -10.2356 C   0  0  2  0  0  0  0  0  0  0  0  0
   26.6193  -19.5439  -11.3618 N   0  0  0  0  0  0  0  0  0  0  0  0
   26.7360  -20.3035   -9.1369 C   0  0  0  0  0  0  0  0  0  0  0  0
   27.6522  -21.1729   -9.3433 O   0  0  0  0  0  0  0  0  0  0  0  0
   29.3105  -17.1180   -5.6751 C   0  0  0  0  0  0  0  0  0  0  0  0
   28.8920  -18.2936   -6.5432 C   0  0  0  0  0  0  0  0  0  0  0  0
   28.0164  -19.2714   -5.8388 C   0  0  2  0  0  0  0  0  0  0  0  0
   28.8253  -19.8909   -4.7187 C   0  0  0  0  0  0  0  0  0  0  0  0
   27.4343  -20.3470   -6.7067 C   0  0  2  0  0  0  0  0  0  0  0  0
   26.6698  -19.8082   -7.8149 N   0  0  0  0  0  0  0  0  0  0  0  0
   26.7220  -21.4068   -5.9900 C   0  0  0  0  0  0  0  0  0  0  0  0
   27.2579  -22.3745   -5.4195 O   0  0  0  0  0  0  0  0  0  0  0  0
   25.3159  -21.3553   -5.9230 O   0  0  0  0  0  0  0  0  0  0  0  0
  2  1  1  6
  3  2  1  0
  4  3  1  0
  4  9  2  0
  5  4  1  0
  6  5  2  0
  6  7  1  0
  7  8  2  0
  8  9  1  0
 10  2  1  0
 11 10  2  0
 13 15  1  0
 13 12  1  1
 14 13  1  0
 15 16  1  6
 16 10  1  0
 17 18  2  0
 17 15  1  0
 19 20  1  0
 20 21  1  0
 21 23  1  0
 21 22  1  1
 23 24  1  6
 24 17  1  0
 25 27  1  0
 25 23  1  0
 26 25  2  0
M  END
$$$$
