KHP.pdb
     RDKit          3D

 27 28  0  0  1  0  0  0  0  0999 V2000
    7.4034  -16.9817   19.8093 N   0  0  0  0  0  0  0  0  0  0  0  0
    7.9147  -15.8883   20.5378 C   0  0  1  0  0  0  0  0  0  0  0  0
    7.7417  -14.5759   19.9145 C   0  0  0  0  0  0  0  0  0  0  0  0
    8.2611  -14.2176   18.6182 C   0  0  0  0  0  0  0  0  0  0  0  0
    8.1317  -12.9473   17.9085 C   0  0  0  0  0  0  0  0  0  0  0  0
    8.7845  -12.7610   16.5972 C   0  0  0  0  0  0  0  0  0  0  0  0
    8.6453  -13.9518   15.7715 N   0  0  0  0  0  0  0  0  0  0  0  0
    7.3161  -15.8721   21.9401 C   0  0  0  0  0  0  0  0  0  0  0  0
    6.0817  -15.7314   22.1107 O   0  0  0  0  0  0  0  0  0  0  0  0
    8.1534  -16.0162   23.0476 N   0  0  0  0  0  0  0  0  0  0  0  0
    7.6701  -16.0603   24.4260 C   0  0  1  0  0  0  0  0  0  0  0  0
    7.9638  -17.4996   24.8810 C   0  0  0  0  0  0  0  0  0  0  0  0
    6.9666  -18.3651   24.2311 C   0  0  0  0  0  0  0  0  0  0  0  0
    5.9993  -18.0362   23.3091 C   0  0  0  0  0  0  0  0  0  0  0  0
    5.2997  -19.1289   22.9750 N   0  0  0  0  0  0  0  0  0  0  0  0
    5.8081  -20.1515   23.6720 C   0  0  0  0  0  0  0  0  0  0  0  0
    6.8297  -19.6825   24.4417 N   0  0  0  0  0  0  0  0  0  0  0  0
    8.4834  -15.1040   25.2097 C   0  0  0  0  0  0  0  0  0  0  0  0
    9.6524  -14.8078   24.8677 O   0  0  0  0  0  0  0  0  0  0  0  0
    7.9964  -14.4550   26.4035 N   0  0  0  0  0  0  0  0  0  0  0  0
    6.6987  -14.6256   27.0213 C   0  0  0  0  0  0  0  0  0  0  0  0
    6.3116  -13.1781   27.3011 C   0  0  0  0  0  0  0  0  0  0  0  0
    7.6293  -12.4981   27.5831 C   0  0  0  0  0  0  0  0  0  0  0  0
    8.6999  -13.4963   27.2240 C   0  0  1  0  0  0  0  0  0  0  0  0
    9.1762  -14.1298   28.4756 C   0  0  0  0  0  0  0  0  0  0  0  0
    9.8690  -13.4948   29.3087 O   0  0  0  0  0  0  0  0  0  0  0  0
    8.8883  -15.4497   28.7992 O   0  0  0  0  0  0  0  0  0  0  0  0
  2  1  1  6
  3  2  1  0
  4  5  1  0
  4  3  1  0
  5  6  1  0
  7  6  1  0
  8  9  2  0
  8  2  1  0
 10  8  1  0
 11 10  1  0
 11 12  1  1
 12 13  1  0
 13 17  1  0
 13 14  2  0
 14 15  1  0
 16 15  1  0
 17 16  2  0
 18 11  1  0
 19 18  2  0
 20 24  1  0
 20 18  1  0
 21 22  1  0
 21 20  1  0
 22 23  1  0
 23 24  1  0
 25 27  1  0
 24 25  1  1
 26 25  2  0
M  END
$$$$
