KHP.pdb
     RDKit          3D

 27 28  0  0  1  0  0  0  0  0999 V2000
    9.3976  -14.9504   19.8240 N   0  0  0  0  0  0  0  0  0  0  0  0
    8.5837  -13.8789   20.2450 C   0  0  1  0  0  0  0  0  0  0  0  0
    7.5954  -13.4142   19.2714 C   0  0  0  0  0  0  0  0  0  0  0  0
    7.8599  -13.2415   17.8648 C   0  0  0  0  0  0  0  0  0  0  0  0
    7.5893  -14.1702   16.7700 C   0  0  0  0  0  0  0  0  0  0  0  0
    7.9675  -13.8164   15.3873 C   0  0  0  0  0  0  0  0  0  0  0  0
    7.7565  -14.9394   14.4853 N   0  0  0  0  0  0  0  0  0  0  0  0
    7.8852  -14.2387   21.5519 C   0  0  0  0  0  0  0  0  0  0  0  0
    7.0030  -13.4908   22.0365 O   0  0  0  0  0  0  0  0  0  0  0  0
    8.2324  -15.4160   22.2164 N   0  0  0  0  0  0  0  0  0  0  0  0
    7.7124  -15.7857   23.5311 C   0  0  1  0  0  0  0  0  0  0  0  0
    7.8828  -17.3130   23.5865 C   0  0  0  0  0  0  0  0  0  0  0  0
    7.6214  -17.7221   24.9758 C   0  0  0  0  0  0  0  0  0  0  0  0
    8.5139  -17.9380   26.0008 C   0  0  0  0  0  0  0  0  0  0  0  0
    7.8541  -18.3005   27.1091 N   0  0  0  0  0  0  0  0  0  0  0  0
    6.5513  -18.3187   26.8047 C   0  0  0  0  0  0  0  0  0  0  0  0
    6.4097  -17.9641   25.4969 N   0  0  0  0  0  0  0  0  0  0  0  0
    8.5767  -15.1411   24.5449 C   0  0  0  0  0  0  0  0  0  0  0  0
    9.8220  -15.0982   24.4088 O   0  0  0  0  0  0  0  0  0  0  0  0
    8.0558  -14.5260   25.7424 N   0  0  0  0  0  0  0  0  0  0  0  0
    6.6715  -14.4668   26.1610 C   0  0  0  0  0  0  0  0  0  0  0  0
    6.5511  -13.0060   26.5791 C   0  0  0  0  0  0  0  0  0  0  0  0
    7.9210  -12.6679   27.1152 C   0  0  0  0  0  0  0  0  0  0  0  0
    8.8064  -13.8366   26.7662 C   0  0  1  0  0  0  0  0  0  0  0  0
    8.9449  -14.6848   27.9729 C   0  0  0  0  0  0  0  0  0  0  0  0
    8.2790  -15.7407   28.1113 O   0  0  0  0  0  0  0  0  0  0  0  0
    9.8101  -14.3667   29.0121 O   0  0  0  0  0  0  0  0  0  0  0  0
  2  1  1  6
  3  2  1  0
  4  5  1  0
  4  3  1  0
  5  6  1  0
  7  6  1  0
  8  9  2  0
  8  2  1  0
 10  8  1  0
 11 10  1  0
 11 12  1  1
 12 13  1  0
 13 17  1  0
 13 14  2  0
 14 15  1  0
 16 15  1  0
 17 16  2  0
 18 11  1  0
 19 18  2  0
 20 24  1  0
 20 18  1  0
 21 22  1  0
 21 20  1  0
 22 23  1  0
 23 24  1  0
 25 27  1  0
 24 25  1  1
 26 25  2  0
M  END
$$$$
