KHP.pdb
     RDKit          3D

 27 28  0  0  1  0  0  0  0  0999 V2000
   11.3131  -16.5694   20.4030 N   0  0  0  0  0  0  0  0  0  0  0  0
   10.2585  -16.9491   21.2581 C   0  0  1  0  0  0  0  0  0  0  0  0
   10.2954  -18.3325   21.7331 C   0  0  0  0  0  0  0  0  0  0  0  0
   11.0732  -19.3808   21.1212 C   0  0  0  0  0  0  0  0  0  0  0  0
   10.6174  -20.6770   20.6249 C   0  0  0  0  0  0  0  0  0  0  0  0
   10.5090  -21.8267   21.5450 C   0  0  0  0  0  0  0  0  0  0  0  0
   11.7941  -22.4925   21.7013 N   0  0  0  0  0  0  0  0  0  0  0  0
   10.1879  -16.0003   22.4497 C   0  0  0  0  0  0  0  0  0  0  0  0
   11.2256  -15.4673   22.9097 O   0  0  0  0  0  0  0  0  0  0  0  0
    8.9518  -15.7215   23.0352 N   0  0  0  0  0  0  0  0  0  0  0  0
    8.7921  -14.9036   24.2356 C   0  0  1  0  0  0  0  0  0  0  0  0
    7.2896  -14.5782   24.2710 C   0  0  0  0  0  0  0  0  0  0  0  0
    7.0412  -13.8417   25.5207 C   0  0  0  0  0  0  0  0  0  0  0  0
    6.4724  -12.6015   25.7004 C   0  0  0  0  0  0  0  0  0  0  0  0
    6.4348  -12.3035   27.0061 N   0  0  0  0  0  0  0  0  0  0  0  0
    6.9725  -13.3380   27.6626 C   0  0  0  0  0  0  0  0  0  0  0  0
    7.3439  -14.2803   26.7514 N   0  0  0  0  0  0  0  0  0  0  0  0
    9.1565  -15.7469   25.3960 C   0  0  0  0  0  0  0  0  0  0  0  0
    9.1770  -16.9974   25.3132 O   0  0  0  0  0  0  0  0  0  0  0  0
    9.5087  -15.1984   26.6839 N   0  0  0  0  0  0  0  0  0  0  0  0
    9.1390  -13.9017   27.2101 C   0  0  0  0  0  0  0  0  0  0  0  0
   10.4702  -13.4220   27.7770 C   0  0  0  0  0  0  0  0  0  0  0  0
   11.1463  -14.6903   28.2380 C   0  0  0  0  0  0  0  0  0  0  0  0
   10.3082  -15.8263   27.7104 C   0  0  1  0  0  0  0  0  0  0  0  0
    9.4501  -16.3159   28.8143 C   0  0  0  0  0  0  0  0  0  0  0  0
    8.2073  -16.1348   28.8077 O   0  0  0  0  0  0  0  0  0  0  0  0
    9.9631  -16.9972   29.9109 O   0  0  0  0  0  0  0  0  0  0  0  0
  2  1  1  1
  3  2  1  0
  4  5  1  0
  4  3  1  0
  5  6  1  0
  7  6  1  0
  8  9  2  0
  8  2  1  0
 10  8  1  0
 11 10  1  0
 11 12  1  1
 12 13  1  0
 13 17  1  0
 13 14  2  0
 14 15  1  0
 16 15  1  0
 17 16  2  0
 18 11  1  0
 19 18  2  0
 20 24  1  0
 20 18  1  0
 21 22  1  0
 21 20  1  0
 22 23  1  0
 23 24  1  0
 25 27  1  0
 24 25  1  1
 26 25  2  0
M  END
$$$$
