KHP.pdb
     RDKit          3D

 27 28  0  0  1  0  0  0  0  0999 V2000
    4.9079  -17.2908   22.9891 N   0  0  0  0  0  0  0  0  0  0  0  0
    5.8717  -16.3190   23.3274 C   0  0  1  0  0  0  0  0  0  0  0  0
    6.1471  -16.1714   24.7568 C   0  0  0  0  0  0  0  0  0  0  0  0
    7.0950  -15.2360   25.3089 C   0  0  0  0  0  0  0  0  0  0  0  0
    7.4642  -15.0379   26.7084 C   0  0  0  0  0  0  0  0  0  0  0  0
    8.3393  -13.9121   27.0920 C   0  0  0  0  0  0  0  0  0  0  0  0
    7.5563  -12.7846   27.5765 N   0  0  0  0  0  0  0  0  0  0  0  0
    7.1725  -16.5948   22.5811 C   0  0  0  0  0  0  0  0  0  0  0  0
    7.5191  -17.7679   22.3047 O   0  0  0  0  0  0  0  0  0  0  0  0
    7.9872  -15.5273   22.2004 N   0  0  0  0  0  0  0  0  0  0  0  0
    9.2234  -15.6858   21.4374 C   0  0  1  0  0  0  0  0  0  0  0  0
    9.4403  -14.3109   20.7839 C   0  0  0  0  0  0  0  0  0  0  0  0
    8.5899  -14.2694   19.5835 C   0  0  0  0  0  0  0  0  0  0  0  0
    7.4881  -13.4863   19.3255 C   0  0  0  0  0  0  0  0  0  0  0  0
    7.0067  -13.7664   18.1069 N   0  0  0  0  0  0  0  0  0  0  0  0
    7.7874  -14.7185   17.5834 C   0  0  0  0  0  0  0  0  0  0  0  0
    8.7575  -15.0262   18.4891 N   0  0  0  0  0  0  0  0  0  0  0  0
   10.3073  -15.9645   22.4059 C   0  0  0  0  0  0  0  0  0  0  0  0
   10.2972  -15.4688   23.5571 O   0  0  0  0  0  0  0  0  0  0  0  0
   11.4340  -16.8129   22.0989 N   0  0  0  0  0  0  0  0  0  0  0  0
   11.7063  -17.4809   20.8440 C   0  0  0  0  0  0  0  0  0  0  0  0
   12.0852  -18.8758   21.3276 C   0  0  0  0  0  0  0  0  0  0  0  0
   12.7542  -18.6294   22.6580 C   0  0  0  0  0  0  0  0  0  0  0  0
   12.5183  -17.1765   22.9816 C   0  0  1  0  0  0  0  0  0  0  0  0
   13.7468  -16.4235   22.6376 C   0  0  0  0  0  0  0  0  0  0  0  0
   13.8840  -15.8697   21.5187 O   0  0  0  0  0  0  0  0  0  0  0  0
   14.8090  -16.2862   23.5223 O   0  0  0  0  0  0  0  0  0  0  0  0
  2  1  1  1
  3  2  1  0
  4  5  1  0
  4  3  1  0
  5  6  1  0
  7  6  1  0
  8  9  2  0
  8  2  1  0
 10  8  1  0
 11 10  1  0
 11 12  1  1
 12 13  1  0
 13 17  1  0
 13 14  2  0
 14 15  1  0
 16 15  1  0
 17 16  2  0
 18 11  1  0
 19 18  2  0
 20 24  1  0
 20 18  1  0
 21 22  1  0
 21 20  1  0
 22 23  1  0
 23 24  1  0
 25 27  1  0
 24 25  1  6
 26 25  2  0
M  END
$$$$
