KHP.pdb
     RDKit          3D

 27 28  0  0  1  0  0  0  0  0999 V2000
    7.3763  -16.3869   19.6690 N   0  0  0  0  0  0  0  0  0  0  0  0
    7.7020  -15.2071   20.3688 C   0  0  1  0  0  0  0  0  0  0  0  0
    7.1891  -13.9654   19.7893 C   0  0  0  0  0  0  0  0  0  0  0  0
    7.7028  -13.3570   18.5875 C   0  0  0  0  0  0  0  0  0  0  0  0
    8.5346  -13.9605   17.5492 C   0  0  0  0  0  0  0  0  0  0  0  0
    9.0177  -13.1433   16.4183 C   0  0  0  0  0  0  0  0  0  0  0  0
    9.8706  -13.9264   15.5358 N   0  0  0  0  0  0  0  0  0  0  0  0
    7.2477  -15.3209   21.8199 C   0  0  0  0  0  0  0  0  0  0  0  0
    6.0607  -15.0779   22.1431 O   0  0  0  0  0  0  0  0  0  0  0  0
    8.1653  -15.7012   22.8006 N   0  0  0  0  0  0  0  0  0  0  0  0
    7.8152  -15.8852   24.2074 C   0  0  1  0  0  0  0  0  0  0  0  0
    8.1833  -17.3498   24.4975 C   0  0  0  0  0  0  0  0  0  0  0  0
    7.1392  -18.1831   23.8799 C   0  0  0  0  0  0  0  0  0  0  0  0
    5.7810  -18.1807   24.1017 C   0  0  0  0  0  0  0  0  0  0  0  0
    5.1925  -19.1025   23.3276 N   0  0  0  0  0  0  0  0  0  0  0  0
    6.1578  -19.6935   22.6143 C   0  0  0  0  0  0  0  0  0  0  0  0
    7.3507  -19.1293   22.9534 N   0  0  0  0  0  0  0  0  0  0  0  0
    8.6767  -14.9787   24.9989 C   0  0  0  0  0  0  0  0  0  0  0  0
    9.8649  -14.7540   24.6688 O   0  0  0  0  0  0  0  0  0  0  0  0
    8.2176  -14.3000   26.1872 N   0  0  0  0  0  0  0  0  0  0  0  0
    6.8774  -14.3085   26.7336 C   0  0  0  0  0  0  0  0  0  0  0  0
    6.6735  -12.8294   27.0402 C   0  0  0  0  0  0  0  0  0  0  0  0
    8.0533  -12.3418   27.4095 C   0  0  0  0  0  0  0  0  0  0  0  0
    8.9981  -13.4666   27.0723 C   0  0  1  0  0  0  0  0  0  0  0  0
    9.3171  -14.1903   28.3250 C   0  0  0  0  0  0  0  0  0  0  0  0
    8.7559  -15.2757   28.6155 O   0  0  0  0  0  0  0  0  0  0  0  0
   10.2457  -13.7170   29.2433 O   0  0  0  0  0  0  0  0  0  0  0  0
  2  1  1  6
  3  2  1  0
  4  5  1  0
  4  3  1  0
  5  6  1  0
  7  6  1  0
  8  9  2  0
  8  2  1  0
 10  8  1  0
 11 10  1  0
 11 12  1  1
 12 13  1  0
 13 17  1  0
 13 14  2  0
 14 15  1  0
 16 15  1  0
 17 16  2  0
 18 11  1  0
 19 18  2  0
 20 24  1  0
 20 18  1  0
 21 22  1  0
 21 20  1  0
 22 23  1  0
 23 24  1  0
 25 27  1  0
 24 25  1  1
 26 25  2  0
M  END
$$$$
