KHP.pdb
     RDKit          3D

 27 28  0  0  1  0  0  0  0  0999 V2000
    8.3805  -16.3818   19.4310 N   0  0  0  0  0  0  0  0  0  0  0  0
    8.4639  -15.1358   20.0854 C   0  0  1  0  0  0  0  0  0  0  0  0
    8.0075  -13.9819   19.3103 C   0  0  0  0  0  0  0  0  0  0  0  0
    8.4981  -13.6390   17.9988 C   0  0  0  0  0  0  0  0  0  0  0  0
    7.8749  -13.8923   16.7020 C   0  0  0  0  0  0  0  0  0  0  0  0
    8.5373  -13.4438   15.4610 C   0  0  0  0  0  0  0  0  0  0  0  0
    7.7264  -13.7587   14.2938 N   0  0  0  0  0  0  0  0  0  0  0  0
    7.7112  -15.1928   21.4104 C   0  0  0  0  0  0  0  0  0  0  0  0
    6.5086  -14.8447   21.4822 O   0  0  0  0  0  0  0  0  0  0  0  0
    8.3698  -15.6387   22.5574 N   0  0  0  0  0  0  0  0  0  0  0  0
    7.7289  -15.7492   23.8661 C   0  0  1  0  0  0  0  0  0  0  0  0
    7.6414  -17.2642   24.1145 C   0  0  0  0  0  0  0  0  0  0  0  0
    6.5250  -17.7673   23.2980 C   0  0  0  0  0  0  0  0  0  0  0  0
    6.5477  -18.3035   22.0308 C   0  0  0  0  0  0  0  0  0  0  0  0
    5.3051  -18.6359   21.6557 N   0  0  0  0  0  0  0  0  0  0  0  0
    4.4892  -18.3188   22.6676 C   0  0  0  0  0  0  0  0  0  0  0  0
    5.2378  -17.7865   23.6738 N   0  0  0  0  0  0  0  0  0  0  0  0
    8.6347  -15.1238   24.8554 C   0  0  0  0  0  0  0  0  0  0  0  0
    9.8783  -15.1328   24.6989 O   0  0  0  0  0  0  0  0  0  0  0  0
    8.1584  -14.4698   26.0508 N   0  0  0  0  0  0  0  0  0  0  0  0
    6.7867  -14.3674   26.5012 C   0  0  0  0  0  0  0  0  0  0  0  0
    6.7117  -12.8951   26.8888 C   0  0  0  0  0  0  0  0  0  0  0  0
    8.1021  -12.5790   27.3839 C   0  0  0  0  0  0  0  0  0  0  0  0
    8.9503  -13.7765   27.0403 C   0  0  1  0  0  0  0  0  0  0  0  0
    9.0982  -14.6010   28.2623 C   0  0  0  0  0  0  0  0  0  0  0  0
    8.4087  -15.6353   28.4419 O   0  0  0  0  0  0  0  0  0  0  0  0
    9.9983  -14.2830   29.2714 O   0  0  0  0  0  0  0  0  0  0  0  0
  2  1  1  6
  3  2  1  0
  4  5  1  0
  4  3  1  0
  5  6  1  0
  7  6  1  0
  8  9  2  0
  8  2  1  0
 10  8  1  0
 11 10  1  0
 11 12  1  1
 12 13  1  0
 13 17  1  0
 13 14  2  0
 14 15  1  0
 16 15  1  0
 17 16  2  0
 18 11  1  0
 19 18  2  0
 20 24  1  0
 20 18  1  0
 21 22  1  0
 21 20  1  0
 22 23  1  0
 23 24  1  0
 25 27  1  0
 24 25  1  1
 26 25  2  0
M  END
$$$$
