KHP.pdb
     RDKit          3D

 27 28  0  0  1  0  0  0  0  0999 V2000
    6.7335  -16.3213   19.7936 N   0  0  0  0  0  0  0  0  0  0  0  0
    7.5025  -15.4597   20.6022 C   0  0  1  0  0  0  0  0  0  0  0  0
    7.4369  -14.0398   20.2554 C   0  0  0  0  0  0  0  0  0  0  0  0
    7.9504  -13.4781   19.0310 C   0  0  0  0  0  0  0  0  0  0  0  0
    9.0556  -13.9591   18.2056 C   0  0  0  0  0  0  0  0  0  0  0  0
    9.4731  -13.1997   17.0101 C   0  0  0  0  0  0  0  0  0  0  0  0
   10.6179  -13.8280   16.3667 N   0  0  0  0  0  0  0  0  0  0  0  0
    7.1248  -15.6469   22.0677 C   0  0  0  0  0  0  0  0  0  0  0  0
    5.9430  -15.4821   22.4532 O   0  0  0  0  0  0  0  0  0  0  0  0
    8.1077  -16.0069   22.9911 N   0  0  0  0  0  0  0  0  0  0  0  0
    7.8552  -16.1587   24.4225 C   0  0  1  0  0  0  0  0  0  0  0  0
    8.3421  -17.5822   24.7406 C   0  0  0  0  0  0  0  0  0  0  0  0
    7.2382  -18.4962   24.4060 C   0  0  0  0  0  0  0  0  0  0  0  0
    5.9944  -18.2059   23.8937 C   0  0  0  0  0  0  0  0  0  0  0  0
    5.2921  -19.3362   23.7374 N   0  0  0  0  0  0  0  0  0  0  0  0
    6.0719  -20.3447   24.1435 C   0  0  0  0  0  0  0  0  0  0  0  0
    7.2645  -19.8290   24.5531 N   0  0  0  0  0  0  0  0  0  0  0  0
    8.6959  -15.1651   25.1269 C   0  0  0  0  0  0  0  0  0  0  0  0
    9.8747  -14.9357   24.7677 O   0  0  0  0  0  0  0  0  0  0  0  0
    8.2260  -14.4020   26.2584 N   0  0  0  0  0  0  0  0  0  0  0  0
    6.8614  -14.2880   26.7272 C   0  0  0  0  0  0  0  0  0  0  0  0
    6.7535  -12.7856   26.9613 C   0  0  0  0  0  0  0  0  0  0  0  0
    8.1444  -12.3842   27.3886 C   0  0  0  0  0  0  0  0  0  0  0  0
    9.0183  -13.5891   27.1520 C   0  0  1  0  0  0  0  0  0  0  0  0
    9.2137  -14.2772   28.4493 C   0  0  0  0  0  0  0  0  0  0  0  0
    8.5703  -15.3150   28.7437 O   0  0  0  0  0  0  0  0  0  0  0  0
   10.1102  -13.8210   29.4073 O   0  0  0  0  0  0  0  0  0  0  0  0
  2  1  1  6
  3  2  1  0
  4  5  1  0
  4  3  1  0
  5  6  1  0
  7  6  1  0
  8  9  2  0
  8  2  1  0
 10  8  1  0
 11 10  1  0
 11 12  1  1
 12 13  1  0
 13 17  1  0
 13 14  2  0
 14 15  1  0
 16 15  1  0
 17 16  2  0
 18 11  1  0
 19 18  2  0
 20 24  1  0
 20 18  1  0
 21 22  1  0
 21 20  1  0
 22 23  1  0
 23 24  1  0
 25 27  1  0
 24 25  1  1
 26 25  2  0
M  END
$$$$
