KHP.pdb
     RDKit          3D

 27 28  0  0  1  0  0  0  0  0999 V2000
   12.2871  -17.0682   20.2180 N   0  0  0  0  0  0  0  0  0  0  0  0
   11.0567  -17.3613   20.8407 C   0  0  1  0  0  0  0  0  0  0  0  0
   11.0095  -18.6174   21.5895 C   0  0  0  0  0  0  0  0  0  0  0  0
   12.1737  -19.3383   22.0405 C   0  0  0  0  0  0  0  0  0  0  0  0
   12.6486  -19.5298   23.4087 C   0  0  0  0  0  0  0  0  0  0  0  0
   13.8791  -20.3049   23.6646 C   0  0  0  0  0  0  0  0  0  0  0  0
   14.1659  -20.3724   25.0902 N   0  0  0  0  0  0  0  0  0  0  0  0
   10.6457  -16.2078   21.7493 C   0  0  0  0  0  0  0  0  0  0  0  0
   11.5079  -15.5274   22.3546 O   0  0  0  0  0  0  0  0  0  0  0  0
    9.2924  -15.9054   21.9084 N   0  0  0  0  0  0  0  0  0  0  0  0
    8.8005  -14.8211   22.7557 C   0  0  1  0  0  0  0  0  0  0  0  0
    7.3526  -14.6043   22.2853 C   0  0  0  0  0  0  0  0  0  0  0  0
    7.4185  -14.2016   20.8713 C   0  0  0  0  0  0  0  0  0  0  0  0
    7.7815  -12.9901   20.3287 C   0  0  0  0  0  0  0  0  0  0  0  0
    7.7028  -13.0488   18.9924 N   0  0  0  0  0  0  0  0  0  0  0  0
    7.2942  -14.2826   18.6749 C   0  0  0  0  0  0  0  0  0  0  0  0
    7.1201  -14.9885   19.8271 N   0  0  0  0  0  0  0  0  0  0  0  0
    8.8129  -15.3116   24.1520 C   0  0  0  0  0  0  0  0  0  0  0  0
    9.1470  -16.4878   24.4276 O   0  0  0  0  0  0  0  0  0  0  0  0
    8.4475  -14.4841   25.2768 N   0  0  0  0  0  0  0  0  0  0  0  0
    7.5198  -13.3731   25.2772 C   0  0  0  0  0  0  0  0  0  0  0  0
    8.3053  -12.3320   26.0662 C   0  0  0  0  0  0  0  0  0  0  0  0
    9.1063  -13.1504   27.0496 C   0  0  0  0  0  0  0  0  0  0  0  0
    8.9369  -14.5886   26.6320 C   0  0  1  0  0  0  0  0  0  0  0  0
    7.9154  -15.2050   27.5102 C   0  0  0  0  0  0  0  0  0  0  0  0
    6.7188  -15.3166   27.1450 O   0  0  0  0  0  0  0  0  0  0  0  0
    8.2163  -15.6912   28.7762 O   0  0  0  0  0  0  0  0  0  0  0  0
  2  1  1  1
  3  2  1  0
  4  5  1  0
  4  3  1  0
  5  6  1  0
  7  6  1  0
  8  9  2  0
  8  2  1  0
 10  8  1  0
 11 10  1  0
 11 12  1  6
 12 13  1  0
 13 17  1  0
 13 14  2  0
 14 15  1  0
 16 15  1  0
 17 16  2  0
 18 11  1  0
 19 18  2  0
 20 24  1  0
 20 18  1  0
 21 22  1  0
 21 20  1  0
 22 23  1  0
 23 24  1  0
 25 27  1  0
 24 25  1  1
 26 25  2  0
M  END
$$$$
