KHP.pdb
     RDKit          3D

 27 28  0  0  1  0  0  0  0  0999 V2000
   11.6652  -16.9096   19.9410 N   0  0  0  0  0  0  0  0  0  0  0  0
   11.4792  -17.3410   21.2702 C   0  0  1  0  0  0  0  0  0  0  0  0
   12.6347  -17.9866   21.8938 C   0  0  0  0  0  0  0  0  0  0  0  0
   12.9347  -19.3928   21.7879 C   0  0  0  0  0  0  0  0  0  0  0  0
   13.4149  -20.1329   20.6235 C   0  0  0  0  0  0  0  0  0  0  0  0
   13.6606  -21.5858   20.7184 C   0  0  0  0  0  0  0  0  0  0  0  0
   14.0806  -22.1286   19.4346 N   0  0  0  0  0  0  0  0  0  0  0  0
   11.0157  -16.1743   22.1357 C   0  0  0  0  0  0  0  0  0  0  0  0
   11.8301  -15.3116   22.5418 O   0  0  0  0  0  0  0  0  0  0  0  0
    9.6672  -16.0655   22.4794 N   0  0  0  0  0  0  0  0  0  0  0  0
    9.1270  -14.9840   23.3003 C   0  0  1  0  0  0  0  0  0  0  0  0
    7.6623  -14.8645   22.8473 C   0  0  0  0  0  0  0  0  0  0  0  0
    7.6837  -14.4173   21.4454 C   0  0  0  0  0  0  0  0  0  0  0  0
    7.8982  -13.1559   20.9387 C   0  0  0  0  0  0  0  0  0  0  0  0
    7.8323  -13.1862   19.6008 N   0  0  0  0  0  0  0  0  0  0  0  0
    7.5783  -14.4512   19.2468 C   0  0  0  0  0  0  0  0  0  0  0  0
    7.4874  -15.2051   20.3780 N   0  0  0  0  0  0  0  0  0  0  0  0
    9.1878  -15.4278   24.7109 C   0  0  0  0  0  0  0  0  0  0  0  0
    9.6072  -16.5681   25.0188 O   0  0  0  0  0  0  0  0  0  0  0  0
    8.7756  -14.5928   25.8138 N   0  0  0  0  0  0  0  0  0  0  0  0
    7.8202  -13.5063   25.7756 C   0  0  0  0  0  0  0  0  0  0  0  0
    8.5606  -12.4333   26.5655 C   0  0  0  0  0  0  0  0  0  0  0  0
    9.3593  -13.2155   27.5796 C   0  0  0  0  0  0  0  0  0  0  0  0
    9.2362  -14.6638   27.1813 C   0  0  1  0  0  0  0  0  0  0  0  0
    8.2108  -15.2929   28.0458 C   0  0  0  0  0  0  0  0  0  0  0  0
    7.0291  -15.4520   27.6510 O   0  0  0  0  0  0  0  0  0  0  0  0
    8.4916  -15.7396   29.3309 O   0  0  0  0  0  0  0  0  0  0  0  0
  2  1  1  6
  3  2  1  0
  4  5  1  0
  4  3  1  0
  5  6  1  0
  7  6  1  0
  8  9  2  0
  8  2  1  0
 10  8  1  0
 11 10  1  0
 11 12  1  6
 12 13  1  0
 13 17  1  0
 13 14  2  0
 14 15  1  0
 16 15  1  0
 17 16  2  0
 18 11  1  0
 19 18  2  0
 20 24  1  0
 20 18  1  0
 21 22  1  0
 21 20  1  0
 22 23  1  0
 23 24  1  0
 25 27  1  0
 24 25  1  1
 26 25  2  0
M  END
$$$$
