VRF.pdb
     RDKit          3D

 30 30  0  0  1  0  0  0  0  0999 V2000
    5.4904  -22.6340   23.9702 C   0  0  0  0  0  0  0  0  0  0  0  0
    6.7234  -21.8812   23.4552 C   0  0  1  0  0  0  0  0  0  0  0  0
    6.6127  -21.9386   21.9310 C   0  0  0  0  0  0  0  0  0  0  0  0
    6.5838  -20.4522   23.8825 C   0  0  2  0  0  0  0  0  0  0  0  0
    5.2543  -19.9503   23.7100 N   0  0  0  0  0  0  0  0  0  0  0  0
    7.5330  -19.5671   23.1764 C   0  0  0  0  0  0  0  0  0  0  0  0
    8.7325  -19.9286   23.0602 O   0  0  0  0  0  0  0  0  0  0  0  0
    8.3931  -13.5694   16.8556 N   0  0  0  0  0  0  0  0  0  0  0  0
    7.9454  -13.0416   18.1417 C   0  0  0  0  0  0  0  0  0  0  0  0
    8.5043  -12.0018   18.6180 N   0  0  0  0  0  0  0  0  0  0  0  0
    6.9126  -13.6694   18.8513 N   0  0  0  0  0  0  0  0  0  0  0  0
    6.9990  -14.2074   20.1592 C   0  0  0  0  0  0  0  0  0  0  0  0
    7.8589  -15.3794   20.3999 C   0  0  0  0  0  0  0  0  0  0  0  0
    7.3532  -16.5855   21.0500 C   0  0  0  0  0  0  0  0  0  0  0  0
    8.0785  -17.3236   22.0934 C   0  0  2  0  0  0  0  0  0  0  0  0
    7.1201  -18.3475   22.6420 N   0  0  0  0  0  0  0  0  0  0  0  0
    8.5434  -16.6041   23.2761 C   0  0  0  0  0  0  0  0  0  0  0  0
    7.8652  -15.5899   23.7095 O   0  0  0  0  0  0  0  0  0  0  0  0
    8.3111  -11.6408   19.5471 N   0  0  0  0  0  0  0  0  0  0  0  0
    9.6855  -16.8857   24.0599 C   0  0  1  0  0  0  0  0  0  0  0  0
   10.0699  -16.0772   25.2240 C   0  0  0  0  0  0  0  0  0  0  0  0
    8.9976  -16.0477   26.2511 C   0  0  0  0  0  0  0  0  0  0  0  0
    9.3815  -15.3456   27.4951 C   0  0  0  0  0  0  0  0  0  0  0  0
    9.9625  -15.9978   28.5671 C   0  0  0  0  0  0  0  0  0  0  0  0
   10.3281  -15.3579   29.7345 C   0  0  0  0  0  0  0  0  0  0  0  0
   10.0999  -14.0129   29.8254 C   0  0  0  0  0  0  0  0  0  0  0  0
    9.5259  -13.3526   28.7743 C   0  0  0  0  0  0  0  0  0  0  0  0
    9.1637  -13.9881   27.6166 C   0  0  0  0  0  0  0  0  0  0  0  0
   11.3710  -16.5275   25.7566 O   0  0  0  0  0  0  0  0  0  0  0  0
   12.2694  -15.7061   25.9714 O   0  0  0  0  0  0  0  0  0  0  0  0
  2  3  1  6
  2  1  1  0
  4  5  1  6
  4  2  1  0
  6  4  1  0
  7  6  2  0
  9  8  1  0
  9 11  1  0
 10  9  2  0
 11 12  1  0
 12 13  1  0
 13 14  1  0
 15 14  1  6
 15 17  1  0
 15 16  1  0
 16  6  1  0
 17 19  1  0
 18 17  2  0
 19 20  1  0
 20 28  1  0
 20 21  1  6
 22 21  1  0
 23 22  2  0
 24 23  1  0
 25 26  1  0
 25 24  2  0
 26 27  2  0
 27 22  1  0
 28 29  2  0
 28 30  1  0
M  END
$$$$
