VRF.pdb
     RDKit          3D

 30 30  0  0  1  0  0  0  0  0999 V2000
    5.8762  -20.3016   27.6180 C   0  0  0  0  0  0  0  0  0  0  0  0
    6.6373  -19.2571   26.7921 C   0  0  1  0  0  0  0  0  0  0  0  0
    8.0613  -19.2745   27.3495 C   0  0  0  0  0  0  0  0  0  0  0  0
    6.6804  -19.7516   25.3788 C   0  0  2  0  0  0  0  0  0  0  0  0
    7.2021  -21.0805   25.2731 N   0  0  0  0  0  0  0  0  0  0  0  0
    7.4575  -18.8530   24.5003 C   0  0  0  0  0  0  0  0  0  0  0  0
    8.6727  -19.1047   24.2926 O   0  0  0  0  0  0  0  0  0  0  0  0
    7.8573  -14.5015   17.5623 N   0  0  0  0  0  0  0  0  0  0  0  0
    8.1177  -13.4941   18.5872 C   0  0  0  0  0  0  0  0  0  0  0  0
    7.8031  -12.2810   18.3638 N   0  0  0  0  0  0  0  0  0  0  0  0
    8.7095  -13.8514   19.8064 N   0  0  0  0  0  0  0  0  0  0  0  0
    8.3454  -14.9475   20.6270 C   0  0  0  0  0  0  0  0  0  0  0  0
    7.1221  -14.8599   21.4436 C   0  0  0  0  0  0  0  0  0  0  0  0
    6.7265  -15.9298   22.3558 C   0  0  0  0  0  0  0  0  0  0  0  0
    7.6592  -16.6476   23.2358 C   0  0  2  0  0  0  0  0  0  0  0  0
    6.8668  -17.7401   23.9038 N   0  0  0  0  0  0  0  0  0  0  0  0
    8.2789  -15.9298   24.3463 C   0  0  0  0  0  0  0  0  0  0  0  0
    7.7784  -14.7988   24.7294 O   0  0  0  0  0  0  0  0  0  0  0  0
    7.9510  -11.5338   19.0350 N   0  0  0  0  0  0  0  0  0  0  0  0
    9.4017  -16.3277   25.1073 C   0  0  1  0  0  0  0  0  0  0  0  0
    9.8882  -15.5657   26.2646 C   0  0  0  0  0  0  0  0  0  0  0  0
    8.8572  -15.4638   27.3286 C   0  0  0  0  0  0  0  0  0  0  0  0
    7.9318  -14.3229   27.1558 C   0  0  0  0  0  0  0  0  0  0  0  0
    8.3686  -13.0114   27.1166 C   0  0  0  0  0  0  0  0  0  0  0  0
    7.5190  -11.9353   26.9547 C   0  0  0  0  0  0  0  0  0  0  0  0
    6.1816  -12.1894   26.8282 C   0  0  0  0  0  0  0  0  0  0  0  0
    5.7328  -13.4807   26.8651 C   0  0  0  0  0  0  0  0  0  0  0  0
    6.5762  -14.5476   27.0255 C   0  0  0  0  0  0  0  0  0  0  0  0
   11.1669  -16.1234   26.7475 O   0  0  0  0  0  0  0  0  0  0  0  0
   11.6340  -17.1420   26.2257 O   0  0  0  0  0  0  0  0  0  0  0  0
  2  3  1  1
  2  1  1  0
  4  5  1  1
  4  2  1  0
  6  4  1  0
  7  6  2  0
  9  8  1  0
  9 11  1  0
 10  9  2  0
 11 12  1  0
 12 13  1  0
 13 14  1  0
 15 14  1  1
 15 17  1  0
 15 16  1  0
 16  6  1  0
 17 19  1  0
 18 17  2  0
 19 20  1  0
 20 28  1  0
 20 21  1  1
 22 21  1  0
 23 22  2  0
 24 23  1  0
 25 26  1  0
 25 24  2  0
 26 27  2  0
 27 22  1  0
 28 29  2  0
 28 30  1  0
M  END
$$$$
