VRF.pdb
     RDKit          3D

 30 30  0  0  1  0  0  0  0  0999 V2000
    7.9150  -12.1203   18.7665 C   0  0  0  0  0  0  0  0  0  0  0  0
    7.3871  -13.1022   19.8197 C   0  0  1  0  0  0  0  0  0  0  0  0
    6.8156  -14.2720   19.0173 C   0  0  0  0  0  0  0  0  0  0  0  0
    8.5673  -13.5987   20.5973 C   0  0  2  0  0  0  0  0  0  0  0  0
    9.6067  -14.1128   19.7579 N   0  0  0  0  0  0  0  0  0  0  0  0
    8.1866  -14.6286   21.5859 C   0  0  0  0  0  0  0  0  0  0  0  0
    7.1385  -14.4659   22.2628 O   0  0  0  0  0  0  0  0  0  0  0  0
    8.2565  -22.9543   20.3332 N   0  0  0  0  0  0  0  0  0  0  0  0
    8.5828  -23.0253   21.7550 C   0  0  0  0  0  0  0  0  0  0  0  0
    8.2719  -24.0684   22.4151 N   0  0  0  0  0  0  0  0  0  0  0  0
    9.2299  -21.9587   22.3938 N   0  0  0  0  0  0  0  0  0  0  0  0
    9.4634  -20.6715   21.8499 C   0  0  0  0  0  0  0  0  0  0  0  0
    8.8991  -19.4908   22.5272 C   0  0  0  0  0  0  0  0  0  0  0  0
    9.1088  -18.1377   22.0191 C   0  0  0  0  0  0  0  0  0  0  0  0
    8.5288  -16.9317   22.6263 C   0  0  2  0  0  0  0  0  0  0  0  0
    8.9665  -15.7683   21.7762 N   0  0  0  0  0  0  0  0  0  0  0  0
    8.9337  -16.5551   23.9778 C   0  0  0  0  0  0  0  0  0  0  0  0
   10.0809  -15.9832   24.1607 O   0  0  0  0  0  0  0  0  0  0  0  0
    8.4804  -24.1868   23.4016 N   0  0  0  0  0  0  0  0  0  0  0  0
    8.2011  -16.7278   25.1743 C   0  0  2  0  0  0  0  0  0  0  0  0
    8.7619  -16.4341   26.4995 C   0  0  0  0  0  0  0  0  0  0  0  0
    7.8457  -15.5919   27.3098 C   0  0  0  0  0  0  0  0  0  0  0  0
    7.7151  -14.2044   26.8142 C   0  0  0  0  0  0  0  0  0  0  0  0
    8.7175  -13.2640   26.9659 C   0  0  0  0  0  0  0  0  0  0  0  0
    8.6127  -11.9657   26.5083 C   0  0  0  0  0  0  0  0  0  0  0  0
    7.4566  -11.6016   25.8757 C   0  0  0  0  0  0  0  0  0  0  0  0
    6.4551  -12.5194   25.7177 C   0  0  0  0  0  0  0  0  0  0  0  0
    6.5600  -13.8071   26.1716 C   0  0  0  0  0  0  0  0  0  0  0  0
    9.1558  -17.6834   27.1801 O   0  0  0  0  0  0  0  0  0  0  0  0
    8.8979  -18.7769   26.6644 O   0  0  0  0  0  0  0  0  0  0  0  0
  2  3  1  6
  2  1  1  0
  4  5  1  6
  4  2  1  0
  6  4  1  0
  7  6  2  0
  9  8  1  0
  9 11  1  0
 10  9  2  0
 11 12  1  0
 12 13  1  0
 13 14  1  0
 15 14  1  6
 15 17  1  0
 15 16  1  0
 16  6  1  0
 17 19  1  0
 18 17  2  0
 19 20  1  0
 20 28  1  0
 20 21  1  6
 22 21  1  0
 23 22  2  0
 24 23  1  0
 25 26  1  0
 25 24  2  0
 26 27  2  0
 27 22  1  0
 28 29  2  0
 28 30  1  0
M  END
$$$$
