VRF.pdb
     RDKit          3D

 30 30  0  0  1  0  0  0  0  0999 V2000
    7.7864  -11.8664   18.8997 C   0  0  0  0  0  0  0  0  0  0  0  0
    7.2553  -13.1586   19.5323 C   0  0  1  0  0  0  0  0  0  0  0  0
    7.2373  -14.1778   18.3922 C   0  0  0  0  0  0  0  0  0  0  0  0
    8.2639  -13.6059   20.5456 C   0  0  2  0  0  0  0  0  0  0  0  0
    9.5669  -13.7946   19.9837 N   0  0  0  0  0  0  0  0  0  0  0  0
    7.8469  -14.8453   21.2333 C   0  0  0  0  0  0  0  0  0  0  0  0
    6.7147  -14.8875   21.7805 O   0  0  0  0  0  0  0  0  0  0  0  0
    9.8765  -17.9506   16.1785 N   0  0  0  0  0  0  0  0  0  0  0  0
   10.4295  -18.8849   17.1555 C   0  0  0  0  0  0  0  0  0  0  0  0
   11.6886  -19.0666   17.2017 N   0  0  0  0  0  0  0  0  0  0  0  0
    9.5884  -19.5798   18.0353 N   0  0  0  0  0  0  0  0  0  0  0  0
    8.3222  -19.1488   18.5025 C   0  0  0  0  0  0  0  0  0  0  0  0
    8.2527  -18.0552   19.4877 C   0  0  0  0  0  0  0  0  0  0  0  0
    8.3939  -18.2992   20.9207 C   0  0  0  0  0  0  0  0  0  0  0  0
    8.2935  -17.2525   21.9474 C   0  0  2  0  0  0  0  0  0  0  0  0
    8.6843  -15.9587   21.2831 N   0  0  0  0  0  0  0  0  0  0  0  0
    9.1615  -17.3253   23.1194 C   0  0  0  0  0  0  0  0  0  0  0  0
   10.4391  -17.1743   22.9736 O   0  0  0  0  0  0  0  0  0  0  0  0
   12.1311  -19.7536   17.8041 N   0  0  0  0  0  0  0  0  0  0  0  0
    8.7759  -17.5372   24.4628 C   0  0  1  0  0  0  0  0  0  0  0  0
    8.5951  -16.4388   25.4207 C   0  0  0  0  0  0  0  0  0  0  0  0
    7.7624  -15.3472   24.8546 C   0  0  0  0  0  0  0  0  0  0  0  0
    7.4982  -14.2441   25.8039 C   0  0  0  0  0  0  0  0  0  0  0  0
    8.4883  -13.6931   26.5966 C   0  0  0  0  0  0  0  0  0  0  0  0
    8.2594  -12.6626   27.4864 C   0  0  0  0  0  0  0  0  0  0  0  0
    6.9875  -12.1700   27.5814 C   0  0  0  0  0  0  0  0  0  0  0  0
    5.9965  -12.7038   26.8047 C   0  0  0  0  0  0  0  0  0  0  0  0
    6.2245  -13.7257   25.9222 C   0  0  0  0  0  0  0  0  0  0  0  0
    8.0804  -16.9548   26.7045 O   0  0  0  0  0  0  0  0  0  0  0  0
    7.1789  -17.8005   26.7145 O   0  0  0  0  0  0  0  0  0  0  0  0
  2  3  1  6
  2  1  1  0
  4  5  1  6
  4  2  1  0
  6  4  1  0
  7  6  2  0
  9  8  1  0
  9 11  1  0
 10  9  2  0
 11 12  1  0
 12 13  1  0
 13 14  1  0
 15 14  1  6
 15 17  1  0
 15 16  1  0
 16  6  1  0
 17 19  1  0
 18 17  2  0
 19 20  1  0
 20 28  1  0
 20 21  1  1
 22 21  1  0
 23 22  2  0
 24 23  1  0
 25 26  1  0
 25 24  2  0
 26 27  2  0
 27 22  1  0
 28 29  2  0
 28 30  1  0
M  END
$$$$
