VRF.pdb
     RDKit          3D

 30 30  0  0  1  0  0  0  0  0999 V2000
    8.4568  -12.8421   20.4747 C   0  0  0  0  0  0  0  0  0  0  0  0
    8.1921  -13.1962   19.0061 C   0  0  1  0  0  0  0  0  0  0  0  0
    8.9335  -12.1269   18.2024 C   0  0  0  0  0  0  0  0  0  0  0  0
    8.8448  -14.5184   18.7419 C   0  0  2  0  0  0  0  0  0  0  0  0
    8.8012  -14.8910   17.3604 N   0  0  0  0  0  0  0  0  0  0  0  0
    8.2546  -15.6007   19.5562 C   0  0  0  0  0  0  0  0  0  0  0  0
    7.3145  -16.2835   19.0734 O   0  0  0  0  0  0  0  0  0  0  0  0
    7.6081  -21.9819   19.5848 N   0  0  0  0  0  0  0  0  0  0  0  0
    7.9955  -22.5051   20.8922 C   0  0  0  0  0  0  0  0  0  0  0  0
    7.3175  -23.4486   21.4124 N   0  0  0  0  0  0  0  0  0  0  0  0
    9.1002  -21.9774   21.5744 N   0  0  0  0  0  0  0  0  0  0  0  0
    9.4704  -20.6115   21.6429 C   0  0  0  0  0  0  0  0  0  0  0  0
    8.7653  -19.6315   20.7983 C   0  0  0  0  0  0  0  0  0  0  0  0
    9.1426  -18.2207   20.7762 C   0  0  0  0  0  0  0  0  0  0  0  0
    8.4619  -17.1747   21.5521 C   0  0  2  0  0  0  0  0  0  0  0  0
    8.7220  -15.8729   20.8411 N   0  0  0  0  0  0  0  0  0  0  0  0
    8.8899  -16.9202   22.9249 C   0  0  0  0  0  0  0  0  0  0  0  0
   10.1287  -16.6252   23.1593 O   0  0  0  0  0  0  0  0  0  0  0  0
    7.5556  -23.8836   22.2983 N   0  0  0  0  0  0  0  0  0  0  0  0
    8.0925  -16.9414   24.0918 C   0  0  2  0  0  0  0  0  0  0  0  0
    8.1246  -15.8704   25.0962 C   0  0  0  0  0  0  0  0  0  0  0  0
    7.0528  -14.8686   24.8661 C   0  0  0  0  0  0  0  0  0  0  0  0
    6.9755  -13.8259   25.9123 C   0  0  0  0  0  0  0  0  0  0  0  0
    8.0719  -13.0754   26.2956 C   0  0  0  0  0  0  0  0  0  0  0  0
    8.0170  -12.0978   27.2688 C   0  0  0  0  0  0  0  0  0  0  0  0
    6.8147  -11.8682   27.8780 C   0  0  0  0  0  0  0  0  0  0  0  0
    5.7204  -12.6018   27.5110 C   0  0  0  0  0  0  0  0  0  0  0  0
    5.7757  -13.5712   26.5453 C   0  0  0  0  0  0  0  0  0  0  0  0
    8.1029  -16.4407   26.4577 O   0  0  0  0  0  0  0  0  0  0  0  0
    8.4133  -15.7395   27.4272 O   0  0  0  0  0  0  0  0  0  0  0  0
  2  3  1  6
  2  1  1  0
  4  5  1  6
  4  2  1  0
  6  4  1  0
  7  6  2  0
  9  8  1  0
  9 11  1  0
 10  9  2  0
 11 12  1  0
 12 13  1  0
 13 14  1  0
 15 14  1  6
 15 17  1  0
 15 16  1  0
 16  6  1  0
 17 19  1  0
 18 17  2  0
 19 20  1  0
 20 28  1  0
 20 21  1  6
 22 21  1  0
 23 22  2  0
 24 23  1  0
 25 26  1  0
 25 24  2  0
 26 27  2  0
 27 22  1  0
 28 29  2  0
 28 30  1  0
M  END
$$$$
