VRF.pdb
     RDKit          3D

 30 30  0  0  1  0  0  0  0  0999 V2000
    8.9476  -12.2180   18.5544 C   0  0  0  0  0  0  0  0  0  0  0  0
    8.7947  -13.1295   19.7783 C   0  0  1  0  0  0  0  0  0  0  0  0
    7.5421  -12.6223   20.4942 C   0  0  0  0  0  0  0  0  0  0  0  0
    8.5187  -14.5122   19.2725 C   0  0  2  0  0  0  0  0  0  0  0  0
    7.4909  -14.5423   18.2765 N   0  0  0  0  0  0  0  0  0  0  0  0
    8.1645  -15.4419   20.3648 C   0  0  0  0  0  0  0  0  0  0  0  0
    6.9667  -15.5086   20.7441 O   0  0  0  0  0  0  0  0  0  0  0  0
    8.6459  -21.4669   18.2957 N   0  0  0  0  0  0  0  0  0  0  0  0
    7.8211  -22.1117   19.3142 C   0  0  0  0  0  0  0  0  0  0  0  0
    7.4523  -23.3184   19.1463 N   0  0  0  0  0  0  0  0  0  0  0  0
    7.4340  -21.4145   20.4668 N   0  0  0  0  0  0  0  0  0  0  0  0
    7.3465  -20.0074   20.6071 C   0  0  0  0  0  0  0  0  0  0  0  0
    8.5669  -19.1932   20.4702 C   0  0  0  0  0  0  0  0  0  0  0  0
    9.1875  -18.5364   21.6176 C   0  0  0  0  0  0  0  0  0  0  0  0
    8.8214  -17.1959   22.0957 C   0  0  2  0  0  0  0  0  0  0  0  0
    9.1317  -16.2392   20.9748 N   0  0  0  0  0  0  0  0  0  0  0  0
    9.5282  -16.6367   23.2446 C   0  0  0  0  0  0  0  0  0  0  0  0
   10.7779  -16.3189   23.1280 O   0  0  0  0  0  0  0  0  0  0  0  0
    6.8818  -23.8254   19.8156 N   0  0  0  0  0  0  0  0  0  0  0  0
    9.0038  -16.3702   24.5300 C   0  0  2  0  0  0  0  0  0  0  0  0
    9.8183  -15.8245   25.6235 C   0  0  0  0  0  0  0  0  0  0  0  0
    9.7904  -14.3398   25.6417 C   0  0  0  0  0  0  0  0  0  0  0  0
    8.4651  -13.7716   25.9709 C   0  0  0  0  0  0  0  0  0  0  0  0
    7.4274  -13.7291   25.0578 C   0  0  0  0  0  0  0  0  0  0  0  0
    6.1843  -13.2038   25.3488 C   0  0  0  0  0  0  0  0  0  0  0  0
    5.9793  -12.7030   26.6044 C   0  0  0  0  0  0  0  0  0  0  0  0
    6.9951  -12.7370   27.5194 C   0  0  0  0  0  0  0  0  0  0  0  0
    8.2278  -13.2585   27.2300 C   0  0  0  0  0  0  0  0  0  0  0  0
    9.4221  -16.4280   26.9111 O   0  0  0  0  0  0  0  0  0  0  0  0
    8.3964  -17.1141   26.9833 O   0  0  0  0  0  0  0  0  0  0  0  0
  2  3  1  1
  2  1  1  0
  4  5  1  6
  4  2  1  0
  6  4  1  0
  7  6  2  0
  9  8  1  0
  9 11  1  0
 10  9  2  0
 11 12  1  0
 12 13  1  0
 13 14  1  0
 15 14  1  6
 15 17  1  0
 15 16  1  0
 16  6  1  0
 17 19  1  0
 18 17  2  0
 19 20  1  0
 20 28  1  0
 20 21  1  6
 22 21  1  0
 23 22  2  0
 24 23  1  0
 25 26  1  0
 25 24  2  0
 26 27  2  0
 27 22  1  0
 28 29  2  0
 28 30  1  0
M  END
$$$$
