VRF.pdb
     RDKit          3D

 30 30  0  0  1  0  0  0  0  0999 V2000
    8.3760  -11.9079   19.4387 C   0  0  0  0  0  0  0  0  0  0  0  0
    8.4716  -12.9469   20.5628 C   0  0  1  0  0  0  0  0  0  0  0  0
    7.1357  -12.8535   21.3013 C   0  0  0  0  0  0  0  0  0  0  0  0
    8.5574  -14.2957   19.9167 C   0  0  2  0  0  0  0  0  0  0  0  0
    7.5586  -14.4917   18.9100 N   0  0  0  0  0  0  0  0  0  0  0  0
    8.4727  -15.3905   20.9052 C   0  0  0  0  0  0  0  0  0  0  0  0
    7.3990  -16.0387   21.0065 O   0  0  0  0  0  0  0  0  0  0  0  0
   14.8562  -20.0407   19.8515 N   0  0  0  0  0  0  0  0  0  0  0  0
   13.7079  -19.1552   20.0265 C   0  0  0  0  0  0  0  0  0  0  0  0
   13.6124  -18.1082   19.3087 N   0  0  0  0  0  0  0  0  0  0  0  0
   12.7181  -19.4476   20.9746 N   0  0  0  0  0  0  0  0  0  0  0  0
   11.3554  -19.7279   20.7064 C   0  0  0  0  0  0  0  0  0  0  0  0
   10.3263  -18.7576   21.1194 C   0  0  0  0  0  0  0  0  0  0  0  0
   10.5449  -17.8251   22.2220 C   0  0  0  0  0  0  0  0  0  0  0  0
    9.5425  -16.8598   22.6942 C   0  0  2  0  0  0  0  0  0  0  0  0
    9.5575  -15.7118   21.7197 N   0  0  0  0  0  0  0  0  0  0  0  0
    9.7310  -16.2229   23.9947 C   0  0  0  0  0  0  0  0  0  0  0  0
   10.6664  -15.3395   24.1395 O   0  0  0  0  0  0  0  0  0  0  0  0
   12.8562  -17.4369   19.3996 N   0  0  0  0  0  0  0  0  0  0  0  0
    8.9851  -16.4421   25.1753 C   0  0  1  0  0  0  0  0  0  0  0  0
    9.3284  -15.8185   26.4599 C   0  0  0  0  0  0  0  0  0  0  0  0
    8.1187  -15.3589   27.1885 C   0  0  0  0  0  0  0  0  0  0  0  0
    7.4852  -14.1601   26.5974 C   0  0  0  0  0  0  0  0  0  0  0  0
    8.1383  -12.9449   26.5031 C   0  0  0  0  0  0  0  0  0  0  0  0
    7.5625  -11.8170   25.9533 C   0  0  0  0  0  0  0  0  0  0  0  0
    6.2830  -11.9167   25.4820 C   0  0  0  0  0  0  0  0  0  0  0  0
    5.6226  -13.1112   25.5678 C   0  0  0  0  0  0  0  0  0  0  0  0
    6.1945  -14.2296   26.1131 C   0  0  0  0  0  0  0  0  0  0  0  0
   10.1790  -16.7219   27.2597 O   0  0  0  0  0  0  0  0  0  0  0  0
   10.3485  -17.8922   26.8995 O   0  0  0  0  0  0  0  0  0  0  0  0
  2  3  1  1
  2  1  1  0
  4  5  1  6
  4  2  1  0
  6  4  1  0
  7  6  2  0
  9  8  1  0
  9 11  1  0
 10  9  2  0
 11 12  1  0
 12 13  1  0
 13 14  1  0
 15 14  1  6
 15 17  1  0
 15 16  1  0
 16  6  1  0
 17 19  1  0
 18 17  2  0
 19 20  1  0
 20 28  1  0
 20 21  1  1
 22 21  1  0
 23 22  2  0
 24 23  1  0
 25 26  1  0
 25 24  2  0
 26 27  2  0
 27 22  1  0
 28 29  2  0
 28 30  1  0
M  END
$$$$
