VRF.pdb
     RDKit          3D

 30 30  0  0  1  0  0  0  0  0999 V2000
    8.7197  -12.0558   18.4881 C   0  0  0  0  0  0  0  0  0  0  0  0
    8.7886  -13.0540   19.6505 C   0  0  1  0  0  0  0  0  0  0  0  0
    7.7200  -12.5838   20.6384 C   0  0  0  0  0  0  0  0  0  0  0  0
    8.3767  -14.3909   19.1148 C   0  0  2  0  0  0  0  0  0  0  0  0
    7.1213  -14.3492   18.4281 N   0  0  0  0  0  0  0  0  0  0  0  0
    8.3172  -15.4186   20.1746 C   0  0  0  0  0  0  0  0  0  0  0  0
    7.1980  -15.7358   20.6540 O   0  0  0  0  0  0  0  0  0  0  0  0
   12.3903  -20.5950   18.4660 N   0  0  0  0  0  0  0  0  0  0  0  0
   13.1638  -20.6692   19.7027 C   0  0  0  0  0  0  0  0  0  0  0  0
   14.4193  -20.8708   19.6421 N   0  0  0  0  0  0  0  0  0  0  0  0
   12.5368  -20.5230   20.9476 N   0  0  0  0  0  0  0  0  0  0  0  0
   11.1487  -20.6377   21.2070 C   0  0  0  0  0  0  0  0  0  0  0  0
   10.4387  -19.5105   21.8367 C   0  0  0  0  0  0  0  0  0  0  0  0
   10.1626  -18.2727   21.1123 C   0  0  0  0  0  0  0  0  0  0  0  0
    9.4617  -17.1187   21.6925 C   0  0  2  0  0  0  0  0  0  0  0  0
    9.4749  -16.0360   20.6458 N   0  0  0  0  0  0  0  0  0  0  0  0
   10.0210  -16.4732   22.8769 C   0  0  0  0  0  0  0  0  0  0  0  0
   10.8786  -15.5141   22.7320 O   0  0  0  0  0  0  0  0  0  0  0  0
   15.0149  -20.9290   20.4622 N   0  0  0  0  0  0  0  0  0  0  0  0
    9.7297  -16.7594   24.2302 C   0  0  1  0  0  0  0  0  0  0  0  0
    9.3320  -15.7250   25.1939 C   0  0  0  0  0  0  0  0  0  0  0  0
    8.3317  -14.7914   24.6165 C   0  0  0  0  0  0  0  0  0  0  0  0
    7.8555  -13.7636   25.5677 C   0  0  0  0  0  0  0  0  0  0  0  0
    8.6480  -13.2726   26.5891 C   0  0  0  0  0  0  0  0  0  0  0  0
    8.2201  -12.3127   27.4843 C   0  0  0  0  0  0  0  0  0  0  0  0
    6.9481  -11.8306   27.3461 C   0  0  0  0  0  0  0  0  0  0  0  0
    6.1511  -12.3058   26.3415 C   0  0  0  0  0  0  0  0  0  0  0  0
    6.5764  -13.2577   25.4537 C   0  0  0  0  0  0  0  0  0  0  0  0
    8.8864  -16.3432   26.4582 O   0  0  0  0  0  0  0  0  0  0  0  0
    9.4498  -16.0550   27.5200 O   0  0  0  0  0  0  0  0  0  0  0  0
  2  3  1  1
  2  1  1  0
  4  5  1  1
  4  2  1  0
  6  4  1  0
  7  6  2  0
  9  8  1  0
  9 11  1  0
 10  9  2  0
 11 12  1  0
 12 13  1  0
 13 14  1  0
 15 14  1  6
 15 17  1  0
 15 16  1  0
 16  6  1  0
 17 19  1  0
 18 17  2  0
 19 20  1  0
 20 28  1  0
 20 21  1  1
 22 21  1  0
 23 22  2  0
 24 23  1  0
 25 26  1  0
 25 24  2  0
 26 27  2  0
 27 22  1  0
 28 29  2  0
 28 30  1  0
M  END
$$$$
