KHV.pdb
     RDKit          3D

 27 27  0  0  1  0  0  0  0  0999 V2000
    8.1725  -16.6936   15.8662 N   0  0  0  0  0  0  0  0  0  0  0  0
    8.7578  -15.7923   16.7934 C   0  0  1  0  0  0  0  0  0  0  0  0
    8.1834  -14.4195   16.8320 C   0  0  0  0  0  0  0  0  0  0  0  0
    8.4637  -13.5843   15.6234 C   0  0  0  0  0  0  0  0  0  0  0  0
    7.5540  -13.7962   14.4670 C   0  0  0  0  0  0  0  0  0  0  0  0
    7.9232  -12.9438   13.2687 C   0  0  0  0  0  0  0  0  0  0  0  0
    6.9890  -13.1204   12.1823 N   0  0  0  0  0  0  0  0  0  0  0  0
    8.8117  -16.3181   18.1914 C   0  0  0  0  0  0  0  0  0  0  0  0
    7.7346  -16.5407   18.8147 O   0  0  0  0  0  0  0  0  0  0  0  0
   10.0048  -16.5974   18.8995 N   0  0  0  0  0  0  0  0  0  0  0  0
   10.0320  -17.2364   20.2075 C   0  0  1  0  0  0  0  0  0  0  0  0
   11.2546  -18.1377   20.3189 C   0  0  0  0  0  0  0  0  0  0  0  0
   11.4003  -18.7734   21.6137 C   0  0  0  0  0  0  0  0  0  0  0  0
   11.2136  -18.2400   22.8708 C   0  0  0  0  0  0  0  0  0  0  0  0
   11.4856  -19.2087   23.7716 N   0  0  0  0  0  0  0  0  0  0  0  0
   11.8368  -20.3312   23.1202 C   0  0  0  0  0  0  0  0  0  0  0  0
   11.7863  -20.0702   21.8030 N   0  0  0  0  0  0  0  0  0  0  0  0
   10.0681  -16.2630   21.3003 C   0  0  0  0  0  0  0  0  0  0  0  0
   10.9653  -15.3879   21.2923 O   0  0  0  0  0  0  0  0  0  0  0  0
    8.0118  -13.5367   22.2286 C   0  0  0  0  0  0  0  0  0  0  0  0
    8.0907  -14.3447   23.4993 C   0  0  1  0  0  0  0  0  0  0  0  0
    6.7937  -15.0378   23.7448 C   0  0  0  0  0  0  0  0  0  0  0  0
    9.2683  -15.2972   23.4135 C   0  0  2  0  0  0  0  0  0  0  0  0
    9.1249  -16.2618   22.3792 N   0  0  0  0  0  0  0  0  0  0  0  0
    9.5134  -15.9168   24.7393 C   0  0  0  0  0  0  0  0  0  0  0  0
    9.9723  -15.2133   25.8377 O   0  0  0  0  0  0  0  0  0  0  0  0
    9.2950  -17.1460   24.8788 O   0  0  0  0  0  0  0  0  0  0  0  0
  2  1  1  6
  2  8  1  0
  2  3  1  0
  4  3  1  0
  5  4  1  0
  6  5  1  0
  7  6  1  0
  8  9  2  0
 10 11  1  0
 10  8  1  0
 11 12  1  6
 12 13  1  0
 13 14  2  0
 15 14  1  0
 16 15  1  0
 17 16  2  0
 17 13  1  0
 18 11  1  0
 19 18  2  0
 21 20  1  6
 21 23  1  0
 22 21  1  0
 23 25  1  0
 23 24  1  6
 24 18  1  0
 25 26  1  0
 27 25  2  0
M  END
$$$$
