KHV.pdb
     RDKit          3D

 27 27  0  0  1  0  0  0  0  0999 V2000
    8.6041  -16.5045   20.0075 N   0  0  0  0  0  0  0  0  0  0  0  0
    9.1186  -15.1943   20.1900 C   0  0  1  0  0  0  0  0  0  0  0  0
    8.4928  -14.1195   19.3720 C   0  0  0  0  0  0  0  0  0  0  0  0
    8.0970  -14.5288   17.9890 C   0  0  0  0  0  0  0  0  0  0  0  0
    8.8438  -13.8737   16.8832 C   0  0  0  0  0  0  0  0  0  0  0  0
    8.4215  -14.3740   15.5156 C   0  0  0  0  0  0  0  0  0  0  0  0
    9.1276  -13.6907   14.4579 N   0  0  0  0  0  0  0  0  0  0  0  0
    9.1368  -14.7484   21.6164 C   0  0  0  0  0  0  0  0  0  0  0  0
    9.6346  -13.6242   21.9108 O   0  0  0  0  0  0  0  0  0  0  0  0
    8.6273  -15.5019   22.7006 N   0  0  0  0  0  0  0  0  0  0  0  0
    8.5179  -14.9850   24.0573 C   0  0  1  0  0  0  0  0  0  0  0  0
    7.1466  -15.3179   24.6299 C   0  0  0  0  0  0  0  0  0  0  0  0
    6.6112  -14.2944   25.5062 C   0  0  0  0  0  0  0  0  0  0  0  0
    7.1308  -13.0562   25.8170 C   0  0  0  0  0  0  0  0  0  0  0  0
    6.2877  -12.4656   26.6911 N   0  0  0  0  0  0  0  0  0  0  0  0
    5.2572  -13.2931   26.9383 C   0  0  0  0  0  0  0  0  0  0  0  0
    5.4506  -14.4105   26.2174 N   0  0  0  0  0  0  0  0  0  0  0  0
    9.5418  -15.5372   24.9460 C   0  0  0  0  0  0  0  0  0  0  0  0
   10.1983  -16.5314   24.5570 O   0  0  0  0  0  0  0  0  0  0  0  0
   11.5175  -13.4569   27.9948 C   0  0  0  0  0  0  0  0  0  0  0  0
   11.1074  -14.8695   28.3269 C   0  0  1  0  0  0  0  0  0  0  0  0
    9.9501  -14.8574   29.2668 C   0  0  0  0  0  0  0  0  0  0  0  0
   10.8229  -15.6226   27.0412 C   0  0  2  0  0  0  0  0  0  0  0  0
    9.8309  -14.9940   26.2402 N   0  0  0  0  0  0  0  0  0  0  0  0
   10.4949  -17.0370   27.3472 C   0  0  0  0  0  0  0  0  0  0  0  0
    9.2339  -17.5807   27.1845 O   0  0  0  0  0  0  0  0  0  0  0  0
   11.4063  -17.7866   27.7778 O   0  0  0  0  0  0  0  0  0  0  0  0
  2  1  1  1
  2  8  1  0
  2  3  1  0
  4  3  1  0
  5  4  1  0
  6  5  1  0
  7  6  1  0
  8  9  2  0
 10 11  1  0
 10  8  1  0
 11 12  1  1
 12 13  1  0
 13 14  2  0
 15 14  1  0
 16 15  1  0
 17 16  2  0
 17 13  1  0
 18 11  1  0
 19 18  2  0
 21 20  1  6
 21 23  1  0
 22 21  1  0
 23 25  1  0
 23 24  1  1
 24 18  1  0
 25 26  1  0
 27 25  2  0
M  END
$$$$
