KHV.pdb
     RDKit          3D

 27 27  0  0  1  0  0  0  0  0999 V2000
    6.0377  -16.3881   19.5975 N   0  0  0  0  0  0  0  0  0  0  0  0
    6.8634  -15.5570   20.3990 C   0  0  1  0  0  0  0  0  0  0  0  0
    6.7030  -14.0891   20.2110 C   0  0  0  0  0  0  0  0  0  0  0  0
    7.7630  -13.4401   19.3791 C   0  0  0  0  0  0  0  0  0  0  0  0
    8.0368  -14.0819   18.0666 C   0  0  0  0  0  0  0  0  0  0  0  0
    9.1410  -13.3864   17.2946 C   0  0  0  0  0  0  0  0  0  0  0  0
    9.5079  -14.1249   16.1095 N   0  0  0  0  0  0  0  0  0  0  0  0
    6.7786  -15.8552   21.8611 C   0  0  0  0  0  0  0  0  0  0  0  0
    5.6479  -15.8842   22.4258 O   0  0  0  0  0  0  0  0  0  0  0  0
    7.8925  -16.1166   22.6939 N   0  0  0  0  0  0  0  0  0  0  0  0
    7.7784  -16.4577   24.1048 C   0  0  1  0  0  0  0  0  0  0  0  0
    8.4196  -17.8146   24.3636 C   0  0  0  0  0  0  0  0  0  0  0  0
    8.3453  -18.2459   25.7458 C   0  0  0  0  0  0  0  0  0  0  0  0
    7.2403  -18.3708   26.5601 C   0  0  0  0  0  0  0  0  0  0  0  0
    7.6685  -18.7877   27.7711 N   0  0  0  0  0  0  0  0  0  0  0  0
    9.0054  -18.9278   27.7423 C   0  0  0  0  0  0  0  0  0  0  0  0
    9.4227  -18.5980   26.5084 N   0  0  0  0  0  0  0  0  0  0  0  0
    8.4195  -15.4655   24.9694 C   0  0  0  0  0  0  0  0  0  0  0  0
    9.5909  -15.1080   24.7031 O   0  0  0  0  0  0  0  0  0  0  0  0
    7.4549  -11.9519   25.8860 C   0  0  0  0  0  0  0  0  0  0  0  0
    7.7015  -12.6823   27.1820 C   0  0  1  0  0  0  0  0  0  0  0  0
    6.4076  -12.9410   27.8762 C   0  0  0  0  0  0  0  0  0  0  0  0
    8.4899  -13.9474   26.9004 C   0  0  2  0  0  0  0  0  0  0  0  0
    7.7708  -14.8816   26.1060 N   0  0  0  0  0  0  0  0  0  0  0  0
    8.9714  -14.5357   28.1746 C   0  0  0  0  0  0  0  0  0  0  0  0
    8.7025  -15.8345   28.5656 O   0  0  0  0  0  0  0  0  0  0  0  0
    9.6606  -13.8216   28.9447 O   0  0  0  0  0  0  0  0  0  0  0  0
  2  1  1  6
  2  8  1  0
  2  3  1  0
  4  3  1  0
  5  4  1  0
  6  5  1  0
  7  6  1  0
  8  9  2  0
 10 11  1  0
 10  8  1  0
 11 12  1  6
 12 13  1  0
 13 14  2  0
 15 14  1  0
 16 15  1  0
 17 16  2  0
 17 13  1  0
 18 11  1  0
 19 18  2  0
 21 20  1  6
 21 23  1  0
 22 21  1  0
 23 25  1  0
 23 24  1  1
 24 18  1  0
 25 26  1  0
 27 25  2  0
M  END
$$$$
