KHV.pdb
     RDKit          3D

 27 27  0  0  1  0  0  0  0  0999 V2000
    9.0221  -15.9310   19.4812 N   0  0  0  0  0  0  0  0  0  0  0  0
    8.3471  -14.8472   20.1012 C   0  0  1  0  0  0  0  0  0  0  0  0
    7.1820  -14.2865   19.3636 C   0  0  0  0  0  0  0  0  0  0  0  0
    7.2849  -14.3582   17.8733 C   0  0  0  0  0  0  0  0  0  0  0  0
    8.2148  -13.3848   17.2427 C   0  0  0  0  0  0  0  0  0  0  0  0
    8.5160  -13.7176   15.7945 C   0  0  0  0  0  0  0  0  0  0  0  0
    7.3161  -13.7337   14.9919 N   0  0  0  0  0  0  0  0  0  0  0  0
    7.9224  -15.1275   21.5065 C   0  0  0  0  0  0  0  0  0  0  0  0
    7.2084  -14.2844   22.1210 O   0  0  0  0  0  0  0  0  0  0  0  0
    8.2623  -16.2947   22.2311 N   0  0  0  0  0  0  0  0  0  0  0  0
    7.8253  -16.5486   23.5965 C   0  0  1  0  0  0  0  0  0  0  0  0
    8.2285  -17.9558   24.0167 C   0  0  0  0  0  0  0  0  0  0  0  0
    7.8431  -18.2978   25.3719 C   0  0  0  0  0  0  0  0  0  0  0  0
    6.7617  -17.8598   26.1057 C   0  0  0  0  0  0  0  0  0  0  0  0
    6.8314  -18.4385   27.3238 N   0  0  0  0  0  0  0  0  0  0  0  0
    7.9211  -19.2244   27.3774 C   0  0  0  0  0  0  0  0  0  0  0  0
    8.5416  -19.1414   26.1884 N   0  0  0  0  0  0  0  0  0  0  0  0
    8.3967  -15.5949   24.5487 C   0  0  0  0  0  0  0  0  0  0  0  0
    9.6381  -15.4226   24.5506 O   0  0  0  0  0  0  0  0  0  0  0  0
    7.2931  -11.9414   25.2921 C   0  0  0  0  0  0  0  0  0  0  0  0
    7.4598  -12.6736   26.5997 C   0  0  1  0  0  0  0  0  0  0  0  0
    6.1264  -12.9238   27.2182 C   0  0  0  0  0  0  0  0  0  0  0  0
    8.2546  -13.9440   26.3633 C   0  0  2  0  0  0  0  0  0  0  0  0
    7.6038  -14.8468   25.4789 N   0  0  0  0  0  0  0  0  0  0  0  0
    8.6016  -14.5709   27.6626 C   0  0  0  0  0  0  0  0  0  0  0  0
    9.3464  -13.9382   28.6408 O   0  0  0  0  0  0  0  0  0  0  0  0
    8.2011  -15.7390   27.8932 O   0  0  0  0  0  0  0  0  0  0  0  0
  2  1  1  6
  2  8  1  0
  2  3  1  0
  4  3  1  0
  5  4  1  0
  6  5  1  0
  7  6  1  0
  8  9  2  0
 10 11  1  0
 10  8  1  0
 11 12  1  1
 12 13  1  0
 13 14  2  0
 15 14  1  0
 16 15  1  0
 17 16  2  0
 17 13  1  0
 18 11  1  0
 19 18  2  0
 21 20  1  6
 21 23  1  0
 22 21  1  0
 23 25  1  0
 23 24  1  6
 24 18  1  0
 25 26  1  0
 27 25  2  0
M  END
$$$$
