KHV.pdb
     RDKit          3D

 27 27  0  0  1  0  0  0  0  0999 V2000
    5.7357  -17.0226   19.6514 N   0  0  0  0  0  0  0  0  0  0  0  0
    6.6230  -16.2806   20.4743 C   0  0  1  0  0  0  0  0  0  0  0  0
    6.6083  -14.8028   20.2961 C   0  0  0  0  0  0  0  0  0  0  0  0
    7.1745  -14.3180   18.9995 C   0  0  0  0  0  0  0  0  0  0  0  0
    8.4450  -13.5524   19.0957 C   0  0  0  0  0  0  0  0  0  0  0  0
    8.9150  -13.0282   17.7529 C   0  0  0  0  0  0  0  0  0  0  0  0
   10.0331  -12.1262   17.8958 N   0  0  0  0  0  0  0  0  0  0  0  0
    6.4833  -16.5793   21.9320 C   0  0  0  0  0  0  0  0  0  0  0  0
    5.3880  -16.3367   22.5149 O   0  0  0  0  0  0  0  0  0  0  0  0
    7.5059  -17.1287   22.7415 N   0  0  0  0  0  0  0  0  0  0  0  0
    7.4116  -17.2397   24.1901 C   0  0  1  0  0  0  0  0  0  0  0  0
    8.0960  -18.5172   24.6579 C   0  0  0  0  0  0  0  0  0  0  0  0
    8.1046  -18.6863   26.0978 C   0  0  0  0  0  0  0  0  0  0  0  0
    7.5669  -17.8735   27.0724 C   0  0  0  0  0  0  0  0  0  0  0  0
    7.8423  -18.4327   28.2704 N   0  0  0  0  0  0  0  0  0  0  0  0
    8.5351  -19.5689   28.0783 C   0  0  0  0  0  0  0  0  0  0  0  0
    8.6976  -19.7275   26.7539 N   0  0  0  0  0  0  0  0  0  0  0  0
    8.0274  -16.1020   24.8753 C   0  0  0  0  0  0  0  0  0  0  0  0
    9.1798  -15.7492   24.5315 O   0  0  0  0  0  0  0  0  0  0  0  0
    7.8521  -11.9912   27.4714 C   0  0  0  0  0  0  0  0  0  0  0  0
    7.0816  -13.1102   26.8172 C   0  0  1  0  0  0  0  0  0  0  0  0
    6.3438  -12.5950   25.6285 C   0  0  0  0  0  0  0  0  0  0  0  0
    8.0332  -14.2433   26.4826 C   0  0  2  0  0  0  0  0  0  0  0  0
    7.3745  -15.3707   25.9206 N   0  0  0  0  0  0  0  0  0  0  0  0
    8.8407  -14.5932   27.6773 C   0  0  0  0  0  0  0  0  0  0  0  0
    9.8424  -13.7863   28.1847 O   0  0  0  0  0  0  0  0  0  0  0  0
    8.6078  -15.6791   28.2642 O   0  0  0  0  0  0  0  0  0  0  0  0
  2  1  1  6
  2  8  1  0
  2  3  1  0
  4  3  1  0
  5  4  1  0
  6  5  1  0
  7  6  1  0
  8  9  2  0
 10 11  1  0
 10  8  1  0
 11 12  1  1
 12 13  1  0
 13 14  2  0
 15 14  1  0
 16 15  1  0
 17 16  2  0
 17 13  1  0
 18 11  1  0
 19 18  2  0
 21 20  1  6
 21 23  1  0
 22 21  1  0
 23 25  1  0
 23 24  1  1
 24 18  1  0
 25 26  1  0
 27 25  2  0
M  END
$$$$
