KHV.pdb
     RDKit          3D

 27 27  0  0  1  0  0  0  0  0999 V2000
    7.0087  -16.1486   18.9829 N   0  0  0  0  0  0  0  0  0  0  0  0
    7.9672  -15.6684   19.9132 C   0  0  1  0  0  0  0  0  0  0  0  0
    8.4002  -14.2543   19.7443 C   0  0  0  0  0  0  0  0  0  0  0  0
    7.5479  -13.4392   18.8244 C   0  0  0  0  0  0  0  0  0  0  0  0
    8.1686  -13.0726   17.5244 C   0  0  0  0  0  0  0  0  0  0  0  0
    7.9723  -14.1365   16.4620 C   0  0  0  0  0  0  0  0  0  0  0  0
    8.5977  -13.7647   15.2151 N   0  0  0  0  0  0  0  0  0  0  0  0
    7.5743  -15.8718   21.3409 C   0  0  0  0  0  0  0  0  0  0  0  0
    6.4562  -15.4428   21.7459 O   0  0  0  0  0  0  0  0  0  0  0  0
    8.3733  -16.5253   22.3090 N   0  0  0  0  0  0  0  0  0  0  0  0
    7.9539  -16.7362   23.6873 C   0  0  1  0  0  0  0  0  0  0  0  0
    8.5583  -18.0281   24.2212 C   0  0  0  0  0  0  0  0  0  0  0  0
    8.1472  -18.3550   25.5725 C   0  0  0  0  0  0  0  0  0  0  0  0
    7.1165  -17.8272   26.3201 C   0  0  0  0  0  0  0  0  0  0  0  0
    7.1348  -18.4313   27.5277 N   0  0  0  0  0  0  0  0  0  0  0  0
    8.1432  -19.3200   27.5614 C   0  0  0  0  0  0  0  0  0  0  0  0
    8.7639  -19.2767   26.3703 N   0  0  0  0  0  0  0  0  0  0  0  0
    8.3555  -15.6351   24.5644 C   0  0  0  0  0  0  0  0  0  0  0  0
    9.5204  -15.1840   24.4629 O   0  0  0  0  0  0  0  0  0  0  0  0
    7.3789  -11.7576   27.3300 C   0  0  0  0  0  0  0  0  0  0  0  0
    6.8050  -12.9557   26.6166 C   0  0  1  0  0  0  0  0  0  0  0  0
    6.0176  -12.5144   25.4299 C   0  0  0  0  0  0  0  0  0  0  0  0
    7.9280  -13.9128   26.2641 C   0  0  2  0  0  0  0  0  0  0  0  0
    7.4792  -15.0467   25.5336 N   0  0  0  0  0  0  0  0  0  0  0  0
    8.6766  -14.2853   27.4898 C   0  0  0  0  0  0  0  0  0  0  0  0
    8.8038  -15.5862   27.9409 O   0  0  0  0  0  0  0  0  0  0  0  0
    9.2268  -13.3756   28.1589 O   0  0  0  0  0  0  0  0  0  0  0  0
  2  1  1  6
  2  8  1  0
  2  3  1  0
  4  3  1  0
  5  4  1  0
  6  5  1  0
  7  6  1  0
  8  9  2  0
 10 11  1  0
 10  8  1  0
 11 12  1  1
 12 13  1  0
 13 14  2  0
 15 14  1  0
 16 15  1  0
 17 16  2  0
 17 13  1  0
 18 11  1  0
 19 18  2  0
 21 20  1  6
 21 23  1  0
 22 21  1  0
 23 25  1  0
 23 24  1  1
 24 18  1  0
 25 26  1  0
 27 25  2  0
M  END
$$$$
