KHV.pdb
     RDKit          3D

 27 27  0  0  1  0  0  0  0  0999 V2000
    5.7361  -17.2260   20.4289 N   0  0  0  0  0  0  0  0  0  0  0  0
    6.7551  -16.5076   21.1074 C   0  0  1  0  0  0  0  0  0  0  0  0
    6.7658  -15.0322   20.9101 C   0  0  0  0  0  0  0  0  0  0  0  0
    7.1447  -14.5824   19.5349 C   0  0  0  0  0  0  0  0  0  0  0  0
    8.0621  -13.4147   19.4674 C   0  0  0  0  0  0  0  0  0  0  0  0
    8.3728  -12.9967   18.0435 C   0  0  0  0  0  0  0  0  0  0  0  0
    9.2599  -11.8584   18.0049 N   0  0  0  0  0  0  0  0  0  0  0  0
    6.8120  -16.7855   22.5748 C   0  0  0  0  0  0  0  0  0  0  0  0
    5.7880  -16.5803   23.2874 O   0  0  0  0  0  0  0  0  0  0  0  0
    7.9514  -17.2752   23.2565 N   0  0  0  0  0  0  0  0  0  0  0  0
    7.9747  -17.5544   24.6853 C   0  0  1  0  0  0  0  0  0  0  0  0
    8.3216  -19.0182   24.9220 C   0  0  0  0  0  0  0  0  0  0  0  0
    7.2722  -19.9410   24.5359 C   0  0  0  0  0  0  0  0  0  0  0  0
    6.2237  -20.4293   25.2856 C   0  0  0  0  0  0  0  0  0  0  0  0
    5.5189  -21.2746   24.5030 N   0  0  0  0  0  0  0  0  0  0  0  0
    6.0914  -21.3321   23.2878 C   0  0  0  0  0  0  0  0  0  0  0  0
    7.1619  -20.5200   23.3034 N   0  0  0  0  0  0  0  0  0  0  0  0
    8.9464  -16.7229   25.3976 C   0  0  0  0  0  0  0  0  0  0  0  0
   10.1108  -16.6398   24.9414 O   0  0  0  0  0  0  0  0  0  0  0  0
    7.7566  -14.0184   28.3449 C   0  0  0  0  0  0  0  0  0  0  0  0
    9.0258  -13.7846   27.5649 C   0  0  1  0  0  0  0  0  0  0  0  0
    9.9754  -12.9637   28.3694 C   0  0  0  0  0  0  0  0  0  0  0  0
    9.6050  -15.1210   27.1407 C   0  0  2  0  0  0  0  0  0  0  0  0
    8.6294  -15.9973   26.5921 N   0  0  0  0  0  0  0  0  0  0  0  0
   10.3462  -15.7313   28.2720 C   0  0  0  0  0  0  0  0  0  0  0  0
   10.0034  -16.9424   28.8445 O   0  0  0  0  0  0  0  0  0  0  0  0
   11.3391  -15.1208   28.7403 O   0  0  0  0  0  0  0  0  0  0  0  0
  2  1  1  1
  2  8  1  0
  2  3  1  0
  4  3  1  0
  5  4  1  0
  6  5  1  0
  7  6  1  0
  8  9  2  0
 10 11  1  0
 10  8  1  0
 11 12  1  6
 12 13  1  0
 13 14  2  0
 15 14  1  0
 16 15  1  0
 17 16  2  0
 17 13  1  0
 18 11  1  0
 19 18  2  0
 21 20  1  1
 21 23  1  0
 22 21  1  0
 23 25  1  0
 23 24  1  1
 24 18  1  0
 25 26  1  0
 27 25  2  0
M  END
$$$$
