KHV.pdb
     RDKit          3D

 27 27  0  0  1  0  0  0  0  0999 V2000
    5.7393  -17.5676   19.4233 N   0  0  0  0  0  0  0  0  0  0  0  0
    6.7001  -16.8439   20.1770 C   0  0  1  0  0  0  0  0  0  0  0  0
    6.8390  -15.3975   19.8540 C   0  0  0  0  0  0  0  0  0  0  0  0
    7.4735  -15.1045   18.5317 C   0  0  0  0  0  0  0  0  0  0  0  0
    7.5750  -13.6665   18.1688 C   0  0  0  0  0  0  0  0  0  0  0  0
    8.1407  -13.4529   16.7783 C   0  0  0  0  0  0  0  0  0  0  0  0
    8.2041  -12.0510   16.4395 N   0  0  0  0  0  0  0  0  0  0  0  0
    6.5320  -16.9808   21.6558 C   0  0  0  0  0  0  0  0  0  0  0  0
    5.3829  -16.8500   22.1664 O   0  0  0  0  0  0  0  0  0  0  0  0
    7.5839  -17.2537   22.5624 N   0  0  0  0  0  0  0  0  0  0  0  0
    7.4129  -17.2770   24.0081 C   0  0  1  0  0  0  0  0  0  0  0  0
    8.0467  -18.5360   24.5849 C   0  0  0  0  0  0  0  0  0  0  0  0
    8.0769  -18.5680   26.0340 C   0  0  0  0  0  0  0  0  0  0  0  0
    9.1528  -18.7394   26.8783 C   0  0  0  0  0  0  0  0  0  0  0  0
    8.6870  -18.7165   28.1456 N   0  0  0  0  0  0  0  0  0  0  0  0
    7.3548  -18.5366   28.1231 C   0  0  0  0  0  0  0  0  0  0  0  0
    6.9780  -18.4457   26.8365 N   0  0  0  0  0  0  0  0  0  0  0  0
    8.0151  -16.1113   24.6572 C   0  0  0  0  0  0  0  0  0  0  0  0
    9.1896  -15.7973   24.3525 O   0  0  0  0  0  0  0  0  0  0  0  0
    5.9056  -13.2322   27.0626 C   0  0  0  0  0  0  0  0  0  0  0  0
    7.1554  -12.9526   26.2666 C   0  0  1  0  0  0  0  0  0  0  0  0
    7.8770  -11.7825   26.8439 C   0  0  0  0  0  0  0  0  0  0  0  0
    8.0046  -14.2084   26.2120 C   0  0  2  0  0  0  0  0  0  0  0  0
    7.3250  -15.3101   25.6244 N   0  0  0  0  0  0  0  0  0  0  0  0
    8.5316  -14.5201   27.5635 C   0  0  0  0  0  0  0  0  0  0  0  0
    9.4377  -13.7185   28.2332 O   0  0  0  0  0  0  0  0  0  0  0  0
    8.1383  -15.5667   28.1362 O   0  0  0  0  0  0  0  0  0  0  0  0
  2  1  1  6
  2  8  1  0
  2  3  1  0
  4  3  1  0
  5  4  1  0
  6  5  1  0
  7  6  1  0
  8  9  2  0
 10 11  1  0
 10  8  1  0
 11 12  1  1
 12 13  1  0
 13 14  2  0
 15 14  1  0
 16 15  1  0
 17 16  2  0
 17 13  1  0
 18 11  1  0
 19 18  2  0
 21 20  1  1
 21 23  1  0
 22 21  1  0
 23 25  1  0
 23 24  1  1
 24 18  1  0
 25 26  1  0
 27 25  2  0
M  END
$$$$
