EDN.pdb
     RDKit          3D

 26 25  0  0  1  0  0  0  0  0999 V2000
   17.7461  -11.0317  -18.6774 N   0  0  0  0  0  0  0  0  0  0  0  0
   17.9958  -10.8804  -17.2236 C   0  0  1  0  0  0  0  0  0  0  0  0
   19.1470  -11.7778  -16.9068 C   0  0  0  0  0  0  0  0  0  0  0  0
   18.7847  -13.2211  -17.0196 C   0  0  0  0  0  0  0  0  0  0  0  0
   18.1507  -13.6781  -15.7595 C   0  0  0  0  0  0  0  0  0  0  0  0
   16.9237  -13.7604  -15.5483 O   0  0  0  0  0  0  0  0  0  0  0  0
   18.3305   -9.4803  -16.9249 C   0  0  0  0  0  0  0  0  0  0  0  0
   18.8049   -8.7351  -17.7939 O   0  0  0  0  0  0  0  0  0  0  0  0
   18.9816  -14.0573  -14.6885 O   0  0  0  0  0  0  0  0  0  0  0  0
   18.1110   -8.9535  -15.6193 N   0  0  0  0  0  0  0  0  0  0  0  0
   18.3129   -7.5737  -15.2736 C   0  0  1  0  0  0  0  0  0  0  0  0
   17.2518   -7.0959  -14.3187 C   0  0  0  0  0  0  0  0  0  0  0  0
   15.8895   -7.1682  -14.8538 C   0  0  0  0  0  0  0  0  0  0  0  0
   15.0466   -7.8870  -14.2368 O   0  0  0  0  0  0  0  0  0  0  0  0
   19.6854   -7.3686  -14.7964 C   0  0  0  0  0  0  0  0  0  0  0  0
   20.2212   -8.1736  -14.0006 O   0  0  0  0  0  0  0  0  0  0  0  0
   15.4279   -6.5125  -15.9913 O   0  0  0  0  0  0  0  0  0  0  0  0
   24.7195   -4.6074  -16.9514 N   0  0  0  0  0  0  0  0  0  0  0  0
   23.9327   -5.2875  -15.9804 C   0  0  0  0  0  0  0  0  0  0  0  0
   24.4824   -5.6275  -14.9071 O   0  0  0  0  0  0  0  0  0  0  0  0
   22.5140   -5.6166  -16.1582 C   0  0  0  0  0  0  0  0  0  0  0  0
   21.7947   -5.9815  -14.8804 C   0  0  2  0  0  0  0  0  0  0  0  0
   20.4164   -6.2496  -15.2346 N   0  0  0  0  0  0  0  0  0  0  0  0
   21.8193   -4.8772  -13.9026 C   0  0  0  0  0  0  0  0  0  0  0  0
   20.9387   -3.9679  -13.8974 O   0  0  0  0  0  0  0  0  0  0  0  0
   22.8238   -4.8216  -12.9607 O   0  0  0  0  0  0  0  0  0  0  0  0
  2  1  1  6
  2  7  1  0
  3  4  1  0
  3  2  1  0
  5  4  1  0
  5  9  1  0
  6  5  2  0
  7  8  2  0
 10 11  1  0
 10  7  1  0
 11 15  1  0
 12 13  1  0
 11 12  1  1
 13 17  1  0
 14 13  2  0
 15 16  2  0
 18 19  1  0
 19 21  1  0
 19 20  2  0
 22 21  1  6
 22 24  1  0
 23 15  1  0
 23 22  1  0
 24 25  2  0
 24 26  1  0
M  END
$$$$
