EDN.pdb
     RDKit          3D

 26 25  0  0  1  0  0  0  0  0999 V2000
   17.8594   -9.2828  -16.7674 N   0  0  0  0  0  0  0  0  0  0  0  0
   17.9925   -9.3213  -15.2911 C   0  0  1  0  0  0  0  0  0  0  0  0
   17.9398  -10.7644  -14.9093 C   0  0  0  0  0  0  0  0  0  0  0  0
   16.6330  -11.3935  -15.2612 C   0  0  0  0  0  0  0  0  0  0  0  0
   16.6012  -12.7913  -14.7677 C   0  0  0  0  0  0  0  0  0  0  0  0
   16.4419  -13.1425  -13.5811 O   0  0  0  0  0  0  0  0  0  0  0  0
   19.2777   -8.7259  -14.8971 C   0  0  0  0  0  0  0  0  0  0  0  0
   19.6005   -8.6286  -13.7046 O   0  0  0  0  0  0  0  0  0  0  0  0
   16.7646  -13.8357  -15.6972 O   0  0  0  0  0  0  0  0  0  0  0  0
   20.1811   -8.2484  -15.8901 N   0  0  0  0  0  0  0  0  0  0  0  0
   21.4428   -7.6316  -15.5875 C   0  0  1  0  0  0  0  0  0  0  0  0
   22.5656   -8.3085  -16.3273 C   0  0  0  0  0  0  0  0  0  0  0  0
   22.7155   -9.7320  -16.0138 C   0  0  0  0  0  0  0  0  0  0  0  0
   22.7902  -10.0665  -14.7929 O   0  0  0  0  0  0  0  0  0  0  0  0
   21.3636   -6.1836  -15.8125 C   0  0  0  0  0  0  0  0  0  0  0  0
   22.3418   -5.4375  -15.5780 O   0  0  0  0  0  0  0  0  0  0  0  0
   22.7844  -10.7655  -16.9433 O   0  0  0  0  0  0  0  0  0  0  0  0
   19.5384   -1.4369  -17.1978 N   0  0  0  0  0  0  0  0  0  0  0  0
   19.8056   -2.4293  -18.1817 C   0  0  0  0  0  0  0  0  0  0  0  0
   19.8254   -2.0791  -19.3844 O   0  0  0  0  0  0  0  0  0  0  0  0
   20.0599   -3.8414  -17.8749 C   0  0  0  0  0  0  0  0  0  0  0  0
   19.9268   -4.1944  -16.4116 C   0  0  2  0  0  0  0  0  0  0  0  0
   20.1710   -5.6172  -16.2977 N   0  0  0  0  0  0  0  0  0  0  0  0
   18.5727   -3.9104  -15.8999 C   0  0  0  0  0  0  0  0  0  0  0  0
   17.5360   -4.3836  -16.4510 O   0  0  0  0  0  0  0  0  0  0  0  0
   18.4166   -3.1088  -14.7898 O   0  0  0  0  0  0  0  0  0  0  0  0
  2  1  1  6
  2  7  1  0
  3  4  1  0
  3  2  1  0
  5  4  1  0
  5  9  1  0
  6  5  2  0
  7  8  2  0
 10 11  1  0
 10  7  1  0
 11 15  1  0
 12 13  1  0
 11 12  1  6
 13 17  1  0
 14 13  2  0
 15 16  2  0
 18 19  1  0
 19 21  1  0
 19 20  2  0
 22 21  1  6
 22 24  1  0
 23 15  1  0
 23 22  1  0
 24 25  2  0
 24 26  1  0
M  END
$$$$
