EDN.pdb
     RDKit          3D

 26 25  0  0  1  0  0  0  0  0999 V2000
   26.8818  -19.4131  -14.4471 N   0  0  0  0  0  0  0  0  0  0  0  0
   26.0962  -20.3999  -15.2267 C   0  0  1  0  0  0  0  0  0  0  0  0
   27.0562  -21.4753  -15.6179 C   0  0  0  0  0  0  0  0  0  0  0  0
   28.2379  -20.9364  -16.3529 C   0  0  0  0  0  0  0  0  0  0  0  0
   29.1484  -22.0474  -16.7203 C   0  0  0  0  0  0  0  0  0  0  0  0
   28.9999  -23.2461  -16.4074 O   0  0  0  0  0  0  0  0  0  0  0  0
   25.0189  -20.9448  -14.3875 C   0  0  0  0  0  0  0  0  0  0  0  0
   24.2830  -21.8530  -14.7987 O   0  0  0  0  0  0  0  0  0  0  0  0
   30.2910  -21.7537  -17.4881 O   0  0  0  0  0  0  0  0  0  0  0  0
   24.8035  -20.4327  -13.0754 N   0  0  0  0  0  0  0  0  0  0  0  0
   23.7442  -20.8761  -12.2122 C   0  0  1  0  0  0  0  0  0  0  0  0
   24.0800  -20.6151  -10.7681 C   0  0  0  0  0  0  0  0  0  0  0  0
   25.2546  -21.3466  -10.2859 C   0  0  0  0  0  0  0  0  0  0  0  0
   25.8251  -20.9265   -9.2342 O   0  0  0  0  0  0  0  0  0  0  0  0
   22.4660  -20.2989  -12.6443 C   0  0  0  0  0  0  0  0  0  0  0  0
   22.2161  -19.0829  -12.4795 O   0  0  0  0  0  0  0  0  0  0  0  0
   25.8101  -22.4747  -10.8821 O   0  0  0  0  0  0  0  0  0  0  0  0
   18.7358  -20.6054  -17.2564 N   0  0  0  0  0  0  0  0  0  0  0  0
   19.1066  -20.1918  -15.9466 C   0  0  0  0  0  0  0  0  0  0  0  0
   18.3449  -19.4055  -15.3373 O   0  0  0  0  0  0  0  0  0  0  0  0
   20.3289  -20.6294  -15.2630 C   0  0  0  0  0  0  0  0  0  0  0  0
   20.2253  -20.6516  -13.7557 C   0  0  2  0  0  0  0  0  0  0  0  0
   21.4998  -21.1204  -13.2528 N   0  0  0  0  0  0  0  0  0  0  0  0
   19.1721  -21.5745  -13.2919 C   0  0  0  0  0  0  0  0  0  0  0  0
   19.3237  -22.8310  -13.3187 O   0  0  0  0  0  0  0  0  0  0  0  0
   17.9836  -21.0683  -12.8118 O   0  0  0  0  0  0  0  0  0  0  0  0
  2  1  1  1
  2  7  1  0
  3  4  1  0
  3  2  1  0
  5  4  1  0
  5  9  1  0
  6  5  2  0
  7  8  2  0
 10 11  1  0
 10  7  1  0
 11 15  1  0
 12 13  1  0
 11 12  1  1
 13 17  1  0
 14 13  2  0
 15 16  2  0
 18 19  1  0
 19 21  1  0
 19 20  2  0
 22 21  1  6
 22 24  1  0
 23 15  1  0
 23 22  1  0
 24 25  2  0
 24 26  1  0
M  END
$$$$
