EDN.pdb
     RDKit          3D

 26 25  0  0  1  0  0  0  0  0999 V2000
   14.6904  -10.6695  -12.8360 N   0  0  0  0  0  0  0  0  0  0  0  0
   15.8023  -10.8115  -11.8654 C   0  0  1  0  0  0  0  0  0  0  0  0
   16.7612  -11.7810  -12.4750 C   0  0  0  0  0  0  0  0  0  0  0  0
   16.8586  -11.6224  -13.9557 C   0  0  0  0  0  0  0  0  0  0  0  0
   17.7697  -12.6523  -14.5106 C   0  0  0  0  0  0  0  0  0  0  0  0
   18.9502  -12.4652  -14.8687 O   0  0  0  0  0  0  0  0  0  0  0  0
   16.4447   -9.5054  -11.6583 C   0  0  0  0  0  0  0  0  0  0  0  0
   17.3111   -9.3481  -10.7864 O   0  0  0  0  0  0  0  0  0  0  0  0
   17.2869  -13.9659  -14.6602 O   0  0  0  0  0  0  0  0  0  0  0  0
   16.0782   -8.3901  -12.4658 N   0  0  0  0  0  0  0  0  0  0  0  0
   16.6492   -7.0799  -12.3195 C   0  0  1  0  0  0  0  0  0  0  0  0
   17.0269   -6.5035  -13.6579 C   0  0  0  0  0  0  0  0  0  0  0  0
   18.2755   -7.0379  -14.2081 C   0  0  0  0  0  0  0  0  0  0  0  0
   18.2873   -7.3816  -15.4287 O   0  0  0  0  0  0  0  0  0  0  0  0
   15.7555   -6.2253  -11.5292 C   0  0  0  0  0  0  0  0  0  0  0  0
   14.5814   -5.9978  -11.9007 O   0  0  0  0  0  0  0  0  0  0  0  0
   19.4659   -7.2056  -13.5070 O   0  0  0  0  0  0  0  0  0  0  0  0
   15.7873   -7.9907   -7.7180 N   0  0  0  0  0  0  0  0  0  0  0  0
   15.0437   -6.7808   -7.8037 C   0  0  0  0  0  0  0  0  0  0  0  0
   13.7989   -6.8416   -7.6752 O   0  0  0  0  0  0  0  0  0  0  0  0
   15.6452   -5.4625   -8.0343 C   0  0  0  0  0  0  0  0  0  0  0  0
   15.3936   -4.8957   -9.4123 C   0  0  2  0  0  0  0  0  0  0  0  0
   16.2200   -5.6470  -10.3341 N   0  0  0  0  0  0  0  0  0  0  0  0
   15.7733   -3.4728   -9.4977 C   0  0  0  0  0  0  0  0  0  0  0  0
   16.7468   -3.0811  -10.2057 O   0  0  0  0  0  0  0  0  0  0  0  0
   15.0556   -2.5311   -8.7924 O   0  0  0  0  0  0  0  0  0  0  0  0
  2  1  1  6
  2  7  1  0
  3  4  1  0
  3  2  1  0
  5  4  1  0
  5  9  1  0
  6  5  2  0
  7  8  2  0
 10 11  1  0
 10  7  1  0
 11 15  1  0
 12 13  1  0
 11 12  1  6
 13 17  1  0
 14 13  2  0
 15 16  2  0
 18 19  1  0
 19 21  1  0
 19 20  2  0
 22 21  1  1
 22 24  1  0
 23 15  1  0
 23 22  1  0
 24 25  2  0
 24 26  1  0
M  END
$$$$
