EDN.pdb
     RDKit          3D

 26 25  0  0  1  0  0  0  0  0999 V2000
   17.9320  -10.1242  -17.9424 N   0  0  0  0  0  0  0  0  0  0  0  0
   16.9825   -9.8292  -16.8424 C   0  0  1  0  0  0  0  0  0  0  0  0
   16.7967  -11.1131  -16.1019 C   0  0  0  0  0  0  0  0  0  0  0  0
   18.0959  -11.7811  -15.7967 C   0  0  0  0  0  0  0  0  0  0  0  0
   17.8595  -12.9678  -14.9397 C   0  0  0  0  0  0  0  0  0  0  0  0
   17.6973  -12.9535  -13.7026 O   0  0  0  0  0  0  0  0  0  0  0  0
   17.5536   -8.7994  -15.9621 C   0  0  0  0  0  0  0  0  0  0  0  0
   16.9596   -8.4285  -14.9398 O   0  0  0  0  0  0  0  0  0  0  0  0
   17.8108  -14.2364  -15.5476 O   0  0  0  0  0  0  0  0  0  0  0  0
   18.8117   -8.2073  -16.2735 N   0  0  0  0  0  0  0  0  0  0  0  0
   19.3896   -7.1262  -15.5245 C   0  0  1  0  0  0  0  0  0  0  0  0
   20.8575   -7.3594  -15.2855 C   0  0  0  0  0  0  0  0  0  0  0  0
   21.5174   -6.2910  -14.5304 C   0  0  0  0  0  0  0  0  0  0  0  0
   21.0162   -5.9553  -13.4150 O   0  0  0  0  0  0  0  0  0  0  0  0
   19.0834   -5.8445  -16.1702 C   0  0  0  0  0  0  0  0  0  0  0  0
   19.2881   -5.6706  -17.3934 O   0  0  0  0  0  0  0  0  0  0  0  0
   22.6586   -5.6008  -14.9282 O   0  0  0  0  0  0  0  0  0  0  0  0
   15.6290   -1.0863  -15.3601 N   0  0  0  0  0  0  0  0  0  0  0  0
   16.2038   -2.0313  -16.2551 C   0  0  0  0  0  0  0  0  0  0  0  0
   16.2786   -1.7269  -17.4681 O   0  0  0  0  0  0  0  0  0  0  0  0
   16.7156   -3.3438  -15.8450 C   0  0  0  0  0  0  0  0  0  0  0  0
   18.2174   -3.4831  -15.9375 C   0  0  2  0  0  0  0  0  0  0  0  0
   18.5528   -4.7883  -15.4075 N   0  0  0  0  0  0  0  0  0  0  0  0
   18.9135   -2.4599  -15.1346 C   0  0  0  0  0  0  0  0  0  0  0  0
   19.1376   -2.6172  -13.8987 O   0  0  0  0  0  0  0  0  0  0  0  0
   19.3389   -1.2944  -15.7343 O   0  0  0  0  0  0  0  0  0  0  0  0
  2  1  1  6
  2  7  1  0
  3  4  1  0
  3  2  1  0
  5  4  1  0
  5  9  1  0
  6  5  2  0
  7  8  2  0
 10 11  1  0
 10  7  1  0
 11 15  1  0
 12 13  1  0
 11 12  1  6
 13 17  1  0
 14 13  2  0
 15 16  2  0
 18 19  1  0
 19 21  1  0
 19 20  2  0
 22 21  1  1
 22 24  1  0
 23 15  1  0
 23 22  1  0
 24 25  2  0
 24 26  1  0
M  END
$$$$
