EDN.pdb
     RDKit          3D

 26 25  0  0  1  0  0  0  0  0999 V2000
   16.2467   -9.8021  -16.4791 N   0  0  0  0  0  0  0  0  0  0  0  0
   16.4370  -10.2162  -15.0681 C   0  0  1  0  0  0  0  0  0  0  0  0
   16.2086  -11.6920  -15.0365 C   0  0  0  0  0  0  0  0  0  0  0  0
   16.6443  -12.3572  -16.2993 C   0  0  0  0  0  0  0  0  0  0  0  0
   16.4714  -13.8248  -16.1776 C   0  0  0  0  0  0  0  0  0  0  0  0
   15.6240  -14.5122  -16.7827 O   0  0  0  0  0  0  0  0  0  0  0  0
   17.8061   -9.8928  -14.6407 C   0  0  0  0  0  0  0  0  0  0  0  0
   18.1860  -10.1170  -13.4827 O   0  0  0  0  0  0  0  0  0  0  0  0
   17.3232  -14.5317  -15.3081 O   0  0  0  0  0  0  0  0  0  0  0  0
   18.7262   -9.3122  -15.5608 N   0  0  0  0  0  0  0  0  0  0  0  0
   20.0834   -8.9806  -15.2266 C   0  0  1  0  0  0  0  0  0  0  0  0
   21.0443   -9.9739  -15.8236 C   0  0  0  0  0  0  0  0  0  0  0  0
   22.4554   -9.6560  -15.5889 C   0  0  0  0  0  0  0  0  0  0  0  0
   22.8249   -9.4405  -14.3951 O   0  0  0  0  0  0  0  0  0  0  0  0
   20.3647   -7.5853  -15.5837 C   0  0  0  0  0  0  0  0  0  0  0  0
   20.2727   -7.1890  -16.7681 O   0  0  0  0  0  0  0  0  0  0  0  0
   23.4415   -9.5676  -16.5669 O   0  0  0  0  0  0  0  0  0  0  0  0
   21.2725   -2.4023  -14.9535 N   0  0  0  0  0  0  0  0  0  0  0  0
   20.0305   -3.0239  -14.6449 C   0  0  0  0  0  0  0  0  0  0  0  0
   19.0407   -2.2887  -14.4224 O   0  0  0  0  0  0  0  0  0  0  0  0
   19.8358   -4.4763  -14.5705 C   0  0  0  0  0  0  0  0  0  0  0  0
   21.0857   -5.2859  -14.8265 C   0  0  2  0  0  0  0  0  0  0  0  0
   20.7464   -6.6726  -14.5837 N   0  0  0  0  0  0  0  0  0  0  0  0
   22.1813   -4.9065  -13.9144 C   0  0  0  0  0  0  0  0  0  0  0  0
   22.5438   -5.6514  -12.9573 O   0  0  0  0  0  0  0  0  0  0  0  0
   22.8391   -3.7095  -14.0983 O   0  0  0  0  0  0  0  0  0  0  0  0
  2  1  1  6
  2  7  1  0
  3  4  1  0
  3  2  1  0
  5  4  1  0
  5  9  1  0
  6  5  2  0
  7  8  2  0
 10 11  1  0
 10  7  1  0
 11 15  1  0
 12 13  1  0
 11 12  1  6
 13 17  1  0
 14 13  2  0
 15 16  2  0
 18 19  1  0
 19 21  1  0
 19 20  2  0
 22 21  1  1
 22 24  1  0
 23 15  1  0
 23 22  1  0
 24 25  2  0
 24 26  1  0
M  END
$$$$
