DAL.pdb
     RDKit          3D

 22 21  0  0  1  0  0  0  0  0999 V2000
    5.0357  -18.2962   23.2380 N   0  0  0  0  0  0  0  0  0  0  0  0
    6.3547  -18.8162   22.8771 C   0  0  1  0  0  0  0  0  0  0  0  0
    6.2241  -19.8901   21.8064 C   0  0  0  0  0  0  0  0  0  0  0  0
    5.2936  -19.4952   20.7310 C   0  0  0  0  0  0  0  0  0  0  0  0
    4.7351  -18.3875   20.7840 O   0  0  0  0  0  0  0  0  0  0  0  0
    7.2096  -17.7004   22.4147 C   0  0  0  0  0  0  0  0  0  0  0  0
    8.4195  -17.9688   22.1385 O   0  0  0  0  0  0  0  0  0  0  0  0
    5.0522  -20.3557   19.6869 O   0  0  0  0  0  0  0  0  0  0  0  0
    7.1689  -14.1387   21.3725 C   0  0  0  0  0  0  0  0  0  0  0  0
    7.7590  -15.3225   22.1079 C   0  0  2  0  0  0  0  0  0  0  0  0
    6.7833  -16.3660   22.2589 N   0  0  0  0  0  0  0  0  0  0  0  0
    8.4542  -14.9649   23.3525 C   0  0  0  0  0  0  0  0  0  0  0  0
    9.6039  -14.4118   23.2805 O   0  0  0  0  0  0  0  0  0  0  0  0
    5.9230  -12.2687   26.7789 C   0  0  0  0  0  0  0  0  0  0  0  0
    7.1169  -12.8322   26.0743 C   0  0  1  0  0  0  0  0  0  0  0  0
    8.1930  -11.7400   26.1541 C   0  0  0  0  0  0  0  0  0  0  0  0
    7.6624  -14.0659   26.7360 C   0  0  0  0  0  0  0  0  0  0  0  0
    8.6198  -14.8513   25.8770 C   0  0  2  0  0  0  0  0  0  0  0  0
    7.9474  -15.1857   24.6510 N   0  0  0  0  0  0  0  0  0  0  0  0
    9.2869  -15.9641   26.5555 C   0  0  0  0  0  0  0  0  0  0  0  0
   10.0244  -15.8640   27.7006 O   0  0  0  0  0  0  0  0  0  0  0  0
    9.1729  -17.1174   26.0428 O   0  0  0  0  0  0  0  0  0  0  0  0
  2  1  1  6
  3  4  1  0
  3  2  1  0
  4  5  2  0
  6  2  1  0
  6 11  1  0
  7  6  2  0
  8  4  1  0
 10 12  1  0
 10  9  1  1
 11 10  1  0
 12 19  1  0
 12 13  2  0
 15 14  1  1
 15 16  1  0
 17 15  1  0
 18 17  1  1
 19 18  1  0
 20 18  1  0
 21 20  1  0
 22 20  2  0
M  END
$$$$
