DAL.pdb
     RDKit          3D

 22 21  0  0  1  0  0  0  0  0999 V2000
    9.8566  -18.0649   19.8293 N   0  0  0  0  0  0  0  0  0  0  0  0
   10.6305  -17.6108   20.9848 C   0  0  1  0  0  0  0  0  0  0  0  0
   11.5811  -16.4939   20.5777 C   0  0  0  0  0  0  0  0  0  0  0  0
   12.8915  -17.0099   20.1367 C   0  0  0  0  0  0  0  0  0  0  0  0
   13.4128  -17.9550   20.7504 O   0  0  0  0  0  0  0  0  0  0  0  0
    9.7035  -17.1639   22.0481 C   0  0  0  0  0  0  0  0  0  0  0  0
    8.9215  -16.2020   21.7731 O   0  0  0  0  0  0  0  0  0  0  0  0
   13.5218  -16.4392   19.0569 O   0  0  0  0  0  0  0  0  0  0  0  0
    7.9137  -18.3878   24.9294 C   0  0  0  0  0  0  0  0  0  0  0  0
    8.6375  -17.2375   24.2636 C   0  0  2  0  0  0  0  0  0  0  0  0
    9.6240  -17.7233   23.3393 N   0  0  0  0  0  0  0  0  0  0  0  0
    9.1407  -16.2259   25.2034 C   0  0  0  0  0  0  0  0  0  0  0  0
   10.3955  -16.1721   25.4393 O   0  0  0  0  0  0  0  0  0  0  0  0
    5.9234  -11.8799   26.1938 C   0  0  0  0  0  0  0  0  0  0  0  0
    7.0825  -12.7816   25.9058 C   0  0  1  0  0  0  0  0  0  0  0  0
    8.1395  -11.8897   25.2391 C   0  0  0  0  0  0  0  0  0  0  0  0
    7.6922  -13.3702   27.1465 C   0  0  0  0  0  0  0  0  0  0  0  0
    8.7991  -14.3571   26.8781 C   0  0  2  0  0  0  0  0  0  0  0  0
    8.3365  -15.2865   25.8835 N   0  0  0  0  0  0  0  0  0  0  0  0
    9.3950  -14.9561   28.0739 C   0  0  0  0  0  0  0  0  0  0  0  0
   10.2343  -14.3192   28.9427 O   0  0  0  0  0  0  0  0  0  0  0  0
    9.1109  -16.1645   28.3288 O   0  0  0  0  0  0  0  0  0  0  0  0
  2  1  1  6
  3  4  1  0
  3  2  1  0
  4  5  2  0
  6  2  1  0
  6 11  1  0
  7  6  2  0
  8  4  1  0
 10 12  1  0
 10  9  1  1
 11 10  1  0
 12 19  1  0
 12 13  2  0
 15 14  1  1
 15 16  1  0
 17 15  1  0
 18 17  1  1
 19 18  1  0
 20 18  1  0
 21 20  1  0
 22 20  2  0
M  END
$$$$
