DAL.pdb
     RDKit          3D

 22 21  0  0  1  0  0  0  0  0999 V2000
    5.9307  -18.2358   20.9540 N   0  0  0  0  0  0  0  0  0  0  0  0
    7.3839  -18.3897   20.8861 C   0  0  1  0  0  0  0  0  0  0  0  0
    7.7828  -19.0682   19.5834 C   0  0  0  0  0  0  0  0  0  0  0  0
    7.1109  -20.3700   19.4041 C   0  0  0  0  0  0  0  0  0  0  0  0
    6.7810  -21.0288   20.4035 O   0  0  0  0  0  0  0  0  0  0  0  0
    8.0221  -17.0608   21.0148 C   0  0  0  0  0  0  0  0  0  0  0  0
    9.2842  -17.0055   20.8870 O   0  0  0  0  0  0  0  0  0  0  0  0
    6.8608  -20.8405   18.1372 O   0  0  0  0  0  0  0  0  0  0  0  0
    7.3058  -13.4427   21.0000 C   0  0  0  0  0  0  0  0  0  0  0  0
    8.0823  -14.6474   21.4860 C   0  0  2  0  0  0  0  0  0  0  0  0
    7.3366  -15.8556   21.2683 N   0  0  0  0  0  0  0  0  0  0  0  0
    8.6115  -14.5050   22.8497 C   0  0  0  0  0  0  0  0  0  0  0  0
    9.8104  -14.0916   23.0069 O   0  0  0  0  0  0  0  0  0  0  0  0
    5.5861  -12.3865   26.5981 C   0  0  0  0  0  0  0  0  0  0  0  0
    6.8094  -12.8058   25.8451 C   0  0  1  0  0  0  0  0  0  0  0  0
    7.8860  -11.7719   26.2042 C   0  0  0  0  0  0  0  0  0  0  0  0
    7.3162  -14.1600   26.2536 C   0  0  0  0  0  0  0  0  0  0  0  0
    8.4080  -14.7004   25.3665 C   0  0  2  0  0  0  0  0  0  0  0  0
    7.8906  -14.7929   24.0283 N   0  0  0  0  0  0  0  0  0  0  0  0
    9.0741  -15.9028   25.8707 C   0  0  0  0  0  0  0  0  0  0  0  0
    9.7939  -15.9812   27.0287 O   0  0  0  0  0  0  0  0  0  0  0  0
    8.9770  -16.9610   25.1801 O   0  0  0  0  0  0  0  0  0  0  0  0
  2  1  1  6
  3  4  1  0
  3  2  1  0
  4  5  2  0
  6  2  1  0
  6 11  1  0
  7  6  2  0
  8  4  1  0
 10 12  1  0
 10  9  1  1
 11 10  1  0
 12 19  1  0
 12 13  2  0
 15 14  1  1
 15 16  1  0
 17 15  1  0
 18 17  1  1
 19 18  1  0
 20 18  1  0
 21 20  1  0
 22 20  2  0
M  END
$$$$
