DAL.pdb
     RDKit          3D

 22 21  0  0  1  0  0  0  0  0999 V2000
    8.7889  -18.9397   19.6802 N   0  0  0  0  0  0  0  0  0  0  0  0
    8.2210  -17.5929   19.6175 C   0  0  1  0  0  0  0  0  0  0  0  0
    7.2609  -17.4789   18.4420 C   0  0  0  0  0  0  0  0  0  0  0  0
    7.9673  -17.4395   17.1468 C   0  0  0  0  0  0  0  0  0  0  0  0
    9.2077  -17.4922   17.1267 O   0  0  0  0  0  0  0  0  0  0  0  0
    7.5401  -17.2902   20.8960 C   0  0  0  0  0  0  0  0  0  0  0  0
    6.3011  -17.5568   20.9739 O   0  0  0  0  0  0  0  0  0  0  0  0
    7.2483  -17.3416   15.9796 O   0  0  0  0  0  0  0  0  0  0  0  0
    6.7205  -17.9152   23.5832 C   0  0  0  0  0  0  0  0  0  0  0  0
    7.4261  -16.6163   23.2589 C   0  0  2  0  0  0  0  0  0  0  0  0
    8.1614  -16.7292   22.0300 N   0  0  0  0  0  0  0  0  0  0  0  0
    8.2050  -16.0656   24.3770 C   0  0  0  0  0  0  0  0  0  0  0  0
    9.4220  -16.4283   24.5195 O   0  0  0  0  0  0  0  0  0  0  0  0
    5.9348  -11.6588   26.6144 C   0  0  0  0  0  0  0  0  0  0  0  0
    6.8431  -12.6661   25.9820 C   0  0  1  0  0  0  0  0  0  0  0  0
    7.8108  -11.8543   25.1094 C   0  0  0  0  0  0  0  0  0  0  0  0
    7.6588  -13.4333   26.9838 C   0  0  0  0  0  0  0  0  0  0  0  0
    8.4794  -14.5462   26.3844 C   0  0  2  0  0  0  0  0  0  0  0  0
    7.7109  -15.1485   25.3291 N   0  0  0  0  0  0  0  0  0  0  0  0
    9.0585  -15.4772   27.3547 C   0  0  0  0  0  0  0  0  0  0  0  0
   10.1095  -15.2038   28.1828 O   0  0  0  0  0  0  0  0  0  0  0  0
    8.5452  -16.6329   27.4379 O   0  0  0  0  0  0  0  0  0  0  0  0
  2  1  1  1
  3  4  1  0
  3  2  1  0
  4  5  2  0
  6  2  1  0
  6 11  1  0
  7  6  2  0
  8  4  1  0
 10 12  1  0
 10  9  1  1
 11 10  1  0
 12 19  1  0
 12 13  2  0
 15 14  1  1
 15 16  1  0
 17 15  1  0
 18 17  1  1
 19 18  1  0
 20 18  1  0
 21 20  1  0
 22 20  2  0
M  END
$$$$
