DAL.pdb
     RDKit          3D

 22 21  0  0  1  0  0  0  0  0999 V2000
    7.4196  -19.1473   21.2924 N   0  0  0  0  0  0  0  0  0  0  0  0
    8.8004  -18.8028   20.9532 C   0  0  1  0  0  0  0  0  0  0  0  0
    9.1307  -19.2723   19.5436 C   0  0  0  0  0  0  0  0  0  0  0  0
    8.4722  -20.5511   19.2130 C   0  0  0  0  0  0  0  0  0  0  0  0
    7.8105  -20.6436   18.1665 O   0  0  0  0  0  0  0  0  0  0  0  0
    8.9859  -17.3409   21.0877 C   0  0  0  0  0  0  0  0  0  0  0  0
   10.1162  -16.8641   20.7598 O   0  0  0  0  0  0  0  0  0  0  0  0
    8.5943  -21.6223   20.0653 O   0  0  0  0  0  0  0  0  0  0  0  0
    7.2543  -14.1606   21.1879 C   0  0  0  0  0  0  0  0  0  0  0  0
    8.3436  -15.0568   21.7363 C   0  0  2  0  0  0  0  0  0  0  0  0
    8.0056  -16.4406   21.5517 N   0  0  0  0  0  0  0  0  0  0  0  0
    8.7626  -14.7175   23.1036 C   0  0  0  0  0  0  0  0  0  0  0  0
    9.9574  -14.3091   23.3000 O   0  0  0  0  0  0  0  0  0  0  0  0
    7.4864  -11.7227   25.2448 C   0  0  0  0  0  0  0  0  0  0  0  0
    7.1947  -12.4622   26.5126 C   0  0  1  0  0  0  0  0  0  0  0  0
    5.7946  -12.0017   26.9425 C   0  0  0  0  0  0  0  0  0  0  0  0
    7.1532  -13.9527   26.3279 C   0  0  0  0  0  0  0  0  0  0  0  0
    8.3432  -14.5138   25.5928 C   0  0  2  0  0  0  0  0  0  0  0  0
    7.9374  -14.8066   24.2451 N   0  0  0  0  0  0  0  0  0  0  0  0
    9.0461  -15.5928   26.2895 C   0  0  0  0  0  0  0  0  0  0  0  0
    9.2328  -16.8563   25.8058 O   0  0  0  0  0  0  0  0  0  0  0  0
    9.5235  -15.3384   27.4355 O   0  0  0  0  0  0  0  0  0  0  0  0
  2  1  1  6
  3  4  1  0
  3  2  1  0
  4  5  2  0
  6  2  1  0
  6 11  1  0
  7  6  2  0
  8  4  1  0
 10 12  1  0
 10  9  1  1
 11 10  1  0
 12 19  1  0
 12 13  2  0
 15 14  1  6
 15 16  1  0
 17 15  1  0
 18 17  1  1
 19 18  1  0
 20 18  1  0
 21 20  1  0
 22 20  2  0
M  END
$$$$
