DAL.pdb
     RDKit          3D

 22 21  0  0  1  0  0  0  0  0999 V2000
    5.2323  -18.4453   23.7726 N   0  0  0  0  0  0  0  0  0  0  0  0
    6.2931  -19.1533   23.0559 C   0  0  1  0  0  0  0  0  0  0  0  0
    5.7053  -19.9667   21.9116 C   0  0  0  0  0  0  0  0  0  0  0  0
    6.6985  -20.8740   21.3046 C   0  0  0  0  0  0  0  0  0  0  0  0
    7.3631  -21.6271   22.0346 O   0  0  0  0  0  0  0  0  0  0  0  0
    7.2861  -18.1738   22.5616 C   0  0  0  0  0  0  0  0  0  0  0  0
    8.2518  -18.6216   21.8694 O   0  0  0  0  0  0  0  0  0  0  0  0
    6.8801  -20.8743   19.9422 O   0  0  0  0  0  0  0  0  0  0  0  0
    8.1480  -15.0911   21.3173 C   0  0  0  0  0  0  0  0  0  0  0  0
    8.3954  -15.9789   22.5178 C   0  0  2  0  0  0  0  0  0  0  0  0
    7.2411  -16.7856   22.8011 N   0  0  0  0  0  0  0  0  0  0  0  0
    8.9320  -15.2661   23.6858 C   0  0  0  0  0  0  0  0  0  0  0  0
   10.0990  -14.7507   23.6122 O   0  0  0  0  0  0  0  0  0  0  0  0
    5.9286  -12.1091   26.4801 C   0  0  0  0  0  0  0  0  0  0  0  0
    7.1220  -12.7680   25.8626 C   0  0  1  0  0  0  0  0  0  0  0  0
    8.0917  -11.6263   25.5257 C   0  0  0  0  0  0  0  0  0  0  0  0
    7.8252  -13.7086   26.7997 C   0  0  0  0  0  0  0  0  0  0  0  0
    8.8343  -14.6041   26.1283 C   0  0  2  0  0  0  0  0  0  0  0  0
    8.2514  -15.0987   24.9107 N   0  0  0  0  0  0  0  0  0  0  0  0
    9.4354  -15.6170   26.9979 C   0  0  0  0  0  0  0  0  0  0  0  0
   10.2075  -15.3600   28.0948 O   0  0  0  0  0  0  0  0  0  0  0  0
    9.2242  -16.8340   26.7147 O   0  0  0  0  0  0  0  0  0  0  0  0
  2  1  1  6
  3  4  1  0
  3  2  1  0
  4  5  2  0
  6  2  1  0
  6 11  1  0
  7  6  2  0
  8  4  1  0
 10 12  1  0
 10  9  1  6
 11 10  1  0
 12 19  1  0
 12 13  2  0
 15 14  1  1
 15 16  1  0
 17 15  1  0
 18 17  1  1
 19 18  1  0
 20 18  1  0
 21 20  1  0
 22 20  2  0
M  END
$$$$
