DAL.pdb
     RDKit          3D

 22 21  0  0  1  0  0  0  0  0999 V2000
    7.4416  -18.9568   21.8174 N   0  0  0  0  0  0  0  0  0  0  0  0
    8.5548  -18.5581   20.9560 C   0  0  1  0  0  0  0  0  0  0  0  0
    8.2503  -18.9046   19.5055 C   0  0  0  0  0  0  0  0  0  0  0  0
    9.2335  -19.8485   18.9393 C   0  0  0  0  0  0  0  0  0  0  0  0
   10.1016  -20.3409   19.6779 O   0  0  0  0  0  0  0  0  0  0  0  0
    8.8035  -17.1086   21.1192 C   0  0  0  0  0  0  0  0  0  0  0  0
    9.9967  -16.7014   20.9687 O   0  0  0  0  0  0  0  0  0  0  0  0
    9.1812  -20.1695   17.6040 O   0  0  0  0  0  0  0  0  0  0  0  0
    7.1247  -13.8291   21.2518 C   0  0  0  0  0  0  0  0  0  0  0  0
    8.2083  -14.7909   21.6888 C   0  0  2  0  0  0  0  0  0  0  0  0
    7.8187  -16.1490   21.4290 N   0  0  0  0  0  0  0  0  0  0  0  0
    8.6978  -14.5567   23.0546 C   0  0  0  0  0  0  0  0  0  0  0  0
    9.8329  -13.9921   23.2155 O   0  0  0  0  0  0  0  0  0  0  0  0
    5.5909  -12.3041   26.3402 C   0  0  0  0  0  0  0  0  0  0  0  0
    6.8923  -12.7609   25.7597 C   0  0  1  0  0  0  0  0  0  0  0  0
    7.9031  -11.6570   26.1013 C   0  0  0  0  0  0  0  0  0  0  0  0
    7.3884  -14.0435   26.3647 C   0  0  0  0  0  0  0  0  0  0  0  0
    8.4818  -14.7135   25.5730 C   0  0  2  0  0  0  0  0  0  0  0  0
    8.0041  -14.9110   24.2315 N   0  0  0  0  0  0  0  0  0  0  0  0
    9.0741  -15.8901   26.2123 C   0  0  0  0  0  0  0  0  0  0  0  0
    9.2213  -17.1164   25.6296 O   0  0  0  0  0  0  0  0  0  0  0  0
    9.4867  -15.7653   27.4040 O   0  0  0  0  0  0  0  0  0  0  0  0
  2  1  1  1
  3  4  1  0
  3  2  1  0
  4  5  2  0
  6  2  1  0
  6 11  1  0
  7  6  2  0
  8  4  1  0
 10 12  1  0
 10  9  1  1
 11 10  1  0
 12 19  1  0
 12 13  2  0
 15 14  1  1
 15 16  1  0
 17 15  1  0
 18 17  1  1
 19 18  1  0
 20 18  1  0
 21 20  1  0
 22 20  2  0
M  END
$$$$
