NKF.pdb
     RDKit          3D

 29 29  0  0  1  0  0  0  0  0999 V2000
    9.4076  -16.2942   -1.2858 N   0  0  0  0  0  0  0  0  0  0  0  0
   10.2333  -17.3789   -1.6561 C   0  0  0  0  0  0  0  0  0  0  0  0
   10.3903  -17.6489   -2.8739 O   0  0  0  0  0  0  0  0  0  0  0  0
   10.9289  -18.2246   -0.6577 C   0  0  0  0  0  0  0  0  0  0  0  0
   10.3748  -19.6206   -0.8095 C   0  0  2  0  0  0  0  0  0  0  0  0
    9.0424  -19.6332   -0.2409 N   0  0  0  0  0  0  0  0  0  0  0  0
   11.2191  -20.6780   -0.2457 C   0  0  0  0  0  0  0  0  0  0  0  0
   11.2722  -20.9406    0.9911 O   0  0  0  0  0  0  0  0  0  0  0  0
   12.0301  -21.4658   -1.0878 N   0  0  0  0  0  0  0  0  0  0  0  0
   12.8638  -22.5355   -0.5411 C   0  0  1  0  0  0  0  0  0  0  0  0
   13.2915  -23.5202   -1.6075 C   0  0  0  0  0  0  0  0  0  0  0  0
   13.9610  -24.7279   -0.9937 C   0  0  0  0  0  0  0  0  0  0  0  0
   14.4544  -25.6877   -2.0459 C   0  0  0  0  0  0  0  0  0  0  0  0
   14.9887  -26.9692   -1.4452 C   0  0  0  0  0  0  0  0  0  0  0  0
   16.2572  -27.2613   -2.1155 N   0  0  0  0  0  0  0  0  0  0  0  0
   14.0855  -22.0013    0.1043 C   0  0  0  0  0  0  0  0  0  0  0  0
   14.9292  -21.4388   -0.6312 O   0  0  0  0  0  0  0  0  0  0  0  0
   14.3224  -22.0990    1.4866 N   0  0  0  0  0  0  0  0  0  0  0  0
   15.5038  -21.4886    2.1197 C   0  0  1  0  0  0  0  0  0  0  0  0
   15.0021  -20.7247    3.2968 C   0  0  0  0  0  0  0  0  0  0  0  0
   14.4775  -19.4209    2.9037 C   0  0  0  0  0  0  0  0  0  0  0  0
   15.3668  -18.3583    2.8190 C   0  0  0  0  0  0  0  0  0  0  0  0
   14.9588  -17.1104    2.4387 C   0  0  0  0  0  0  0  0  0  0  0  0
   13.6495  -16.8906    2.1325 C   0  0  0  0  0  0  0  0  0  0  0  0
   12.7414  -17.9083    2.2043 C   0  0  0  0  0  0  0  0  0  0  0  0
   13.1615  -19.1834    2.5934 C   0  0  0  0  0  0  0  0  0  0  0  0
   16.4636  -22.5114    2.5186 C   0  0  0  0  0  0  0  0  0  0  0  0
   17.5361  -22.1447    3.1055 O   0  0  0  0  0  0  0  0  0  0  0  0
   16.3366  -23.8678    2.3284 O   0  0  0  0  0  0  0  0  0  0  0  0
  1  2  1  0
  2  4  1  0
  3  2  2  0
  4  5  1  0
  5  6  1  1
  7  8  2  0
  7  5  1  0
  9  7  1  0
 10  9  1  0
 10 11  1  6
 11 12  1  0
 12 13  1  0
 13 14  1  0
 14 15  1  0
 16 18  1  0
 16 10  1  0
 17 16  2  0
 19 27  1  0
 19 18  1  0
 19 20  1  1
 21 22  2  0
 21 20  1  0
 23 22  1  0
 24 23  2  0
 25 24  1  0
 25 26  2  0
 26 21  1  0
 27 29  1  0
 28 27  2  0
M  END
$$$$
