NKF.pdb
     RDKit          3D

 29 29  0  0  1  0  0  0  0  0999 V2000
   27.8190  -22.0139  -19.1722 N   0  0  0  0  0  0  0  0  0  0  0  0
   28.7331  -21.6244  -18.1682 C   0  0  0  0  0  0  0  0  0  0  0  0
   29.9448  -21.9409  -18.2788 O   0  0  0  0  0  0  0  0  0  0  0  0
   28.3192  -20.8512  -16.9737 C   0  0  0  0  0  0  0  0  0  0  0  0
   26.8151  -20.7360  -17.0306 C   0  0  2  0  0  0  0  0  0  0  0  0
   26.4831  -19.7616  -18.0499 N   0  0  0  0  0  0  0  0  0  0  0  0
   26.1771  -20.4240  -15.7483 C   0  0  0  0  0  0  0  0  0  0  0  0
   26.4610  -19.4002  -15.0609 O   0  0  0  0  0  0  0  0  0  0  0  0
   25.1926  -21.2815  -15.2161 N   0  0  0  0  0  0  0  0  0  0  0  0
   24.4746  -20.9314  -13.9913 C   0  0  1  0  0  0  0  0  0  0  0  0
   23.1552  -21.6637  -13.8803 C   0  0  0  0  0  0  0  0  0  0  0  0
   22.0973  -21.0088  -14.7380 C   0  0  0  0  0  0  0  0  0  0  0  0
   21.2928  -22.0260  -15.5061 C   0  0  0  0  0  0  0  0  0  0  0  0
   20.2929  -21.3783  -16.4384 C   0  0  0  0  0  0  0  0  0  0  0  0
   19.5320  -22.4583  -17.0693 N   0  0  0  0  0  0  0  0  0  0  0  0
   25.2725  -21.2409  -12.7820 C   0  0  0  0  0  0  0  0  0  0  0  0
   25.7797  -22.3834  -12.7008 O   0  0  0  0  0  0  0  0  0  0  0  0
   25.4782  -20.3129  -11.7463 N   0  0  0  0  0  0  0  0  0  0  0  0
   26.1625  -20.6808  -10.4951 C   0  0  1  0  0  0  0  0  0  0  0  0
   27.1717  -19.6146  -10.2390 C   0  0  0  0  0  0  0  0  0  0  0  0
   27.8233  -19.7950   -8.9456 C   0  0  0  0  0  0  0  0  0  0  0  0
   27.3989  -19.0056   -7.8855 C   0  0  0  0  0  0  0  0  0  0  0  0
   27.9440  -19.1270   -6.6380 C   0  0  0  0  0  0  0  0  0  0  0  0
   28.9290  -20.0417   -6.4160 C   0  0  0  0  0  0  0  0  0  0  0  0
   29.3767  -20.8373   -7.4318 C   0  0  0  0  0  0  0  0  0  0  0  0
   28.8174  -20.7110   -8.7066 C   0  0  0  0  0  0  0  0  0  0  0  0
   25.2099  -20.7870   -9.3961 C   0  0  0  0  0  0  0  0  0  0  0  0
   25.5789  -21.3740   -8.3245 O   0  0  0  0  0  0  0  0  0  0  0  0
   23.9201  -20.3089   -9.3855 O   0  0  0  0  0  0  0  0  0  0  0  0
  1  2  1  0
  2  4  1  0
  3  2  2  0
  4  5  1  0
  5  6  1  6
  7  8  2  0
  7  5  1  0
  9  7  1  0
 10  9  1  0
 10 11  1  1
 11 12  1  0
 12 13  1  0
 13 14  1  0
 14 15  1  0
 16 18  1  0
 16 10  1  0
 17 16  2  0
 19 27  1  0
 19 18  1  0
 19 20  1  1
 21 22  2  0
 21 20  1  0
 23 22  1  0
 24 23  2  0
 25 24  1  0
 25 26  2  0
 26 21  1  0
 27 29  1  0
 28 27  2  0
M  END
$$$$
