NKF.pdb
     RDKit          3D

 29 29  0  0  1  0  0  0  0  0999 V2000
   17.9540  -20.1245  -11.7469 N   0  0  0  0  0  0  0  0  0  0  0  0
   19.1427  -20.8273  -12.0444 C   0  0  0  0  0  0  0  0  0  0  0  0
   19.3492  -21.2235  -13.2195 O   0  0  0  0  0  0  0  0  0  0  0  0
   20.1685  -21.1238  -11.0168 C   0  0  0  0  0  0  0  0  0  0  0  0
   21.2223  -20.0490  -11.1323 C   0  0  2  0  0  0  0  0  0  0  0  0
   20.9338  -19.2709  -12.3197 N   0  0  0  0  0  0  0  0  0  0  0  0
   22.6024  -20.5429  -11.1250 C   0  0  0  0  0  0  0  0  0  0  0  0
   23.0513  -21.3404  -10.2510 O   0  0  0  0  0  0  0  0  0  0  0  0
   23.5099  -20.1335  -12.1232 N   0  0  0  0  0  0  0  0  0  0  0  0
   24.9235  -20.5005  -12.0490 C   0  0  1  0  0  0  0  0  0  0  0  0
   25.7306  -19.8702  -13.1630 C   0  0  0  0  0  0  0  0  0  0  0  0
   27.1240  -20.4521  -13.2197 C   0  0  0  0  0  0  0  0  0  0  0  0
   27.2964  -21.3743  -14.3994 C   0  0  0  0  0  0  0  0  0  0  0  0
   28.7111  -21.8981  -14.5135 C   0  0  0  0  0  0  0  0  0  0  0  0
   28.7722  -22.7072  -15.7322 N   0  0  0  0  0  0  0  0  0  0  0  0
   25.5276  -20.0924  -10.7594 C   0  0  0  0  0  0  0  0  0  0  0  0
   25.2141  -18.9683  -10.3040 O   0  0  0  0  0  0  0  0  0  0  0  0
   26.4193  -20.9095  -10.0428 N   0  0  0  0  0  0  0  0  0  0  0  0
   27.3508  -20.3578   -9.0443 C   0  0  1  0  0  0  0  0  0  0  0  0
   26.6779  -20.4939   -7.7217 C   0  0  0  0  0  0  0  0  0  0  0  0
   27.5557  -20.0828   -6.6306 C   0  0  0  0  0  0  0  0  0  0  0  0
   27.8993  -18.7409   -6.5400 C   0  0  0  0  0  0  0  0  0  0  0  0
   28.7002  -18.2720   -5.5365 C   0  0  0  0  0  0  0  0  0  0  0  0
   29.1800  -19.1326   -4.5956 C   0  0  0  0  0  0  0  0  0  0  0  0
   28.8673  -20.4611   -4.6488 C   0  0  0  0  0  0  0  0  0  0  0  0
   28.0480  -20.9378   -5.6761 C   0  0  0  0  0  0  0  0  0  0  0  0
   28.6214  -21.0729   -9.0712 C   0  0  0  0  0  0  0  0  0  0  0  0
   29.6997  -20.4048   -8.9300 O   0  0  0  0  0  0  0  0  0  0  0  0
   28.7914  -22.4281   -9.2348 O   0  0  0  0  0  0  0  0  0  0  0  0
  1  2  1  0
  2  4  1  0
  3  2  2  0
  4  5  1  0
  5  6  1  6
  7  8  2  0
  7  5  1  0
  9  7  1  0
 10  9  1  0
 10 11  1  6
 11 12  1  0
 12 13  1  0
 13 14  1  0
 14 15  1  0
 16 18  1  0
 16 10  1  0
 17 16  2  0
 19 27  1  0
 19 18  1  0
 19 20  1  1
 21 22  2  0
 21 20  1  0
 23 22  1  0
 24 23  2  0
 25 24  1  0
 25 26  2  0
 26 21  1  0
 27 29  1  0
 28 27  2  0
M  END
$$$$
