NKF.pdb
     RDKit          3D

 29 29  0  0  1  0  0  0  0  0999 V2000
   28.4001  -14.4046  -20.0636 N   0  0  0  0  0  0  0  0  0  0  0  0
   27.9427  -15.6088  -20.6435 C   0  0  0  0  0  0  0  0  0  0  0  0
   28.3068  -15.9116  -21.8081 O   0  0  0  0  0  0  0  0  0  0  0  0
   27.0383  -16.5408  -19.9298 C   0  0  0  0  0  0  0  0  0  0  0  0
   27.8967  -17.3303  -18.9713 C   0  0  2  0  0  0  0  0  0  0  0  0
   28.7797  -18.1697  -19.7550 N   0  0  0  0  0  0  0  0  0  0  0  0
   27.1485  -18.1041  -17.9761 C   0  0  0  0  0  0  0  0  0  0  0  0
   26.3582  -19.0454  -18.2774 O   0  0  0  0  0  0  0  0  0  0  0  0
   27.2857  -17.8180  -16.6025 N   0  0  0  0  0  0  0  0  0  0  0  0
   26.4266  -18.4646  -15.6115 C   0  0  1  0  0  0  0  0  0  0  0  0
   26.9736  -18.3194  -14.2081 C   0  0  0  0  0  0  0  0  0  0  0  0
   25.9898  -18.8394  -13.1858 C   0  0  0  0  0  0  0  0  0  0  0  0
   26.0927  -20.3342  -13.0217 C   0  0  0  0  0  0  0  0  0  0  0  0
   25.1197  -20.8645  -11.9919 C   0  0  0  0  0  0  0  0  0  0  0  0
   25.2935  -22.3175  -11.9453 N   0  0  0  0  0  0  0  0  0  0  0  0
   25.0552  -17.9047  -15.6278 C   0  0  0  0  0  0  0  0  0  0  0  0
   24.9005  -16.7409  -15.1910 O   0  0  0  0  0  0  0  0  0  0  0  0
   23.9455  -18.6198  -16.1111 N   0  0  0  0  0  0  0  0  0  0  0  0
   22.5820  -18.0645  -16.0684 C   0  0  1  0  0  0  0  0  0  0  0  0
   22.2966  -17.5459  -17.4360 C   0  0  0  0  0  0  0  0  0  0  0  0
   20.9312  -17.0416  -17.5420 C   0  0  0  0  0  0  0  0  0  0  0  0
   20.6778  -15.7480  -17.1065 C   0  0  0  0  0  0  0  0  0  0  0  0
   19.4308  -15.1947  -17.1901 C   0  0  0  0  0  0  0  0  0  0  0  0
   18.4022  -15.9200  -17.7118 C   0  0  0  0  0  0  0  0  0  0  0  0
   18.6082  -17.1969  -18.1507 C   0  0  0  0  0  0  0  0  0  0  0  0
   19.8845  -17.7602  -18.0639 C   0  0  0  0  0  0  0  0  0  0  0  0
   21.6191  -19.0865  -15.6749 C   0  0  0  0  0  0  0  0  0  0  0  0
   21.8716  -20.3043  -15.9619 O   0  0  0  0  0  0  0  0  0  0  0  0
   20.4347  -18.8775  -15.0074 O   0  0  0  0  0  0  0  0  0  0  0  0
  1  2  1  0
  2  4  1  0
  3  2  2  0
  4  5  1  0
  5  6  1  6
  7  8  2  0
  7  5  1  0
  9  7  1  0
 10  9  1  0
 10 11  1  1
 11 12  1  0
 12 13  1  0
 13 14  1  0
 14 15  1  0
 16 18  1  0
 16 10  1  0
 17 16  2  0
 19 27  1  0
 19 18  1  0
 19 20  1  6
 21 22  2  0
 21 20  1  0
 23 22  1  0
 24 23  2  0
 25 24  1  0
 25 26  2  0
 26 21  1  0
 27 29  1  0
 28 27  2  0
M  END
$$$$
