NKF.pdb
     RDKit          3D

 29 29  0  0  1  0  0  0  0  0999 V2000
   16.3947  -14.8033  -15.7040 N   0  0  0  0  0  0  0  0  0  0  0  0
   17.7441  -15.2212  -15.6981 C   0  0  0  0  0  0  0  0  0  0  0  0
   18.0257  -16.3972  -15.3544 O   0  0  0  0  0  0  0  0  0  0  0  0
   18.8563  -14.3202  -16.0819 C   0  0  0  0  0  0  0  0  0  0  0  0
   18.2552  -12.9504  -16.2851 C   0  0  2  0  0  0  0  0  0  0  0  0
   17.5355  -12.9639  -17.5423 N   0  0  0  0  0  0  0  0  0  0  0  0
   19.2159  -11.8453  -16.2177 C   0  0  0  0  0  0  0  0  0  0  0  0
   20.0577  -11.7113  -15.2824 O   0  0  0  0  0  0  0  0  0  0  0  0
   19.2372  -10.8586  -17.2245 N   0  0  0  0  0  0  0  0  0  0  0  0
   20.0988   -9.6831  -17.1056 C   0  0  1  0  0  0  0  0  0  0  0  0
   20.0129   -8.7933  -18.3265 C   0  0  0  0  0  0  0  0  0  0  0  0
   21.1348   -9.0901  -19.2943 C   0  0  0  0  0  0  0  0  0  0  0  0
   20.6184   -9.6666  -20.5877 C   0  0  0  0  0  0  0  0  0  0  0  0
   21.7300   -9.9342  -21.5783 C   0  0  0  0  0  0  0  0  0  0  0  0
   21.1061  -10.4720  -22.7888 N   0  0  0  0  0  0  0  0  0  0  0  0
   19.7500   -8.8670  -15.9195 C   0  0  0  0  0  0  0  0  0  0  0  0
   18.5349   -8.6567  -15.6993 O   0  0  0  0  0  0  0  0  0  0  0  0
   20.7173   -8.3353  -15.0488 N   0  0  0  0  0  0  0  0  0  0  0  0
   20.3582   -7.4263  -13.9470 C   0  0  1  0  0  0  0  0  0  0  0  0
   21.3060   -7.7190  -12.8350 C   0  0  0  0  0  0  0  0  0  0  0  0
   21.0389   -6.8808  -11.6706 C   0  0  0  0  0  0  0  0  0  0  0  0
   21.5440   -5.5877  -11.6677 C   0  0  0  0  0  0  0  0  0  0  0  0
   21.3214   -4.7332  -10.6244 C   0  0  0  0  0  0  0  0  0  0  0  0
   20.5871   -5.1485   -9.5545 C   0  0  0  0  0  0  0  0  0  0  0  0
   20.0730   -6.4133   -9.5166 C   0  0  0  0  0  0  0  0  0  0  0  0
   20.3023   -7.2850  -10.5849 C   0  0  0  0  0  0  0  0  0  0  0  0
   20.4507   -6.0348  -14.3731 C   0  0  0  0  0  0  0  0  0  0  0  0
   21.3205   -5.7238  -15.2540 O   0  0  0  0  0  0  0  0  0  0  0  0
   19.6805   -4.9895  -13.9186 O   0  0  0  0  0  0  0  0  0  0  0  0
  1  2  1  0
  2  4  1  0
  3  2  2  0
  4  5  1  0
  5  6  1  6
  7  8  2  0
  7  5  1  0
  9  7  1  0
 10  9  1  0
 10 11  1  6
 11 12  1  0
 12 13  1  0
 13 14  1  0
 14 15  1  0
 16 18  1  0
 16 10  1  0
 17 16  2  0
 19 27  1  0
 19 18  1  0
 19 20  1  1
 21 22  2  0
 21 20  1  0
 23 22  1  0
 24 23  2  0
 25 24  1  0
 25 26  2  0
 26 21  1  0
 27 29  1  0
 28 27  2  0
M  END
$$$$
