NKF.pdb
     RDKit          3D

 29 29  0  0  1  0  0  0  0  0999 V2000
   25.4577  -15.7621  -19.0509 N   0  0  0  0  0  0  0  0  0  0  0  0
   26.1223  -14.7775  -18.2865 C   0  0  0  0  0  0  0  0  0  0  0  0
   27.2412  -15.0409  -17.7775 O   0  0  0  0  0  0  0  0  0  0  0  0
   25.5483  -13.4313  -18.0537 C   0  0  0  0  0  0  0  0  0  0  0  0
   24.2351  -13.3845  -18.7970 C   0  0  2  0  0  0  0  0  0  0  0  0
   24.5297  -13.3096  -20.2134 N   0  0  0  0  0  0  0  0  0  0  0  0
   23.3291  -12.3140  -18.3703 C   0  0  0  0  0  0  0  0  0  0  0  0
   23.4283  -11.1178  -18.7709 O   0  0  0  0  0  0  0  0  0  0  0  0
   22.2808  -12.5867  -17.4679 N   0  0  0  0  0  0  0  0  0  0  0  0
   21.3527  -11.5347  -17.0554 C   0  0  1  0  0  0  0  0  0  0  0  0
   20.0588  -12.1026  -16.5139 C   0  0  0  0  0  0  0  0  0  0  0  0
   19.1879  -12.6292  -17.6309 C   0  0  0  0  0  0  0  0  0  0  0  0
   17.8682  -13.1431  -17.1149 C   0  0  0  0  0  0  0  0  0  0  0  0
   17.0438  -13.7951  -18.2030 C   0  0  0  0  0  0  0  0  0  0  0  0
   15.8345  -14.3222  -17.5678 N   0  0  0  0  0  0  0  0  0  0  0  0
   21.9418  -10.6637  -16.0120 C   0  0  0  0  0  0  0  0  0  0  0  0
   22.2833  -11.2026  -14.9339 O   0  0  0  0  0  0  0  0  0  0  0  0
   22.1301   -9.2818  -16.1894 N   0  0  0  0  0  0  0  0  0  0  0  0
   22.7776   -8.4458  -15.1644 C   0  0  1  0  0  0  0  0  0  0  0  0
   23.9546   -7.8110  -15.8219 C   0  0  0  0  0  0  0  0  0  0  0  0
   24.9104   -8.8109  -16.2874 C   0  0  0  0  0  0  0  0  0  0  0  0
   25.3512   -9.7644  -15.3798 C   0  0  0  0  0  0  0  0  0  0  0  0
   26.2302  -10.7465  -15.7418 C   0  0  0  0  0  0  0  0  0  0  0  0
   26.6929  -10.8022  -17.0220 C   0  0  0  0  0  0  0  0  0  0  0  0
   26.2856   -9.8826  -17.9460 C   0  0  0  0  0  0  0  0  0  0  0  0
   25.3866   -8.8794  -17.5730 C   0  0  0  0  0  0  0  0  0  0  0  0
   21.8499   -7.4442  -14.6518 C   0  0  0  0  0  0  0  0  0  0  0  0
   22.2322   -6.6937  -13.6928 O   0  0  0  0  0  0  0  0  0  0  0  0
   20.5712   -7.2104  -15.1020 O   0  0  0  0  0  0  0  0  0  0  0  0
  1  2  1  0
  2  4  1  0
  3  2  2  0
  4  5  1  0
  5  6  1  6
  7  8  2  0
  7  5  1  0
  9  7  1  0
 10  9  1  0
 10 11  1  1
 11 12  1  0
 12 13  1  0
 13 14  1  0
 14 15  1  0
 16 18  1  0
 16 10  1  0
 17 16  2  0
 19 27  1  0
 19 18  1  0
 19 20  1  6
 21 22  2  0
 21 20  1  0
 23 22  1  0
 24 23  2  0
 25 24  1  0
 25 26  2  0
 26 21  1  0
 27 29  1  0
 28 27  2  0
M  END
$$$$
