NKF.pdb
     RDKit          3D

 29 29  0  0  1  0  0  0  0  0999 V2000
   26.0724  -26.1955  -19.0460 N   0  0  0  0  0  0  0  0  0  0  0  0
   26.6538  -26.5017  -17.7955 C   0  0  0  0  0  0  0  0  0  0  0  0
   27.0831  -27.6637  -17.5812 O   0  0  0  0  0  0  0  0  0  0  0  0
   26.7783  -25.4998  -16.7108 C   0  0  0  0  0  0  0  0  0  0  0  0
   27.3677  -24.2570  -17.3330 C   0  0  2  0  0  0  0  0  0  0  0  0
   28.7661  -24.5184  -17.6065 N   0  0  0  0  0  0  0  0  0  0  0  0
   27.1845  -23.0338  -16.5463 C   0  0  0  0  0  0  0  0  0  0  0  0
   27.9134  -22.7261  -15.5586 O   0  0  0  0  0  0  0  0  0  0  0  0
   26.1555  -22.1265  -16.8710 N   0  0  0  0  0  0  0  0  0  0  0  0
   25.9567  -20.9060  -16.0904 C   0  0  1  0  0  0  0  0  0  0  0  0
   25.0058  -19.9470  -16.7727 C   0  0  0  0  0  0  0  0  0  0  0  0
   24.7877  -18.7097  -15.9330 C   0  0  0  0  0  0  0  0  0  0  0  0
   23.8305  -17.7495  -16.5917 C   0  0  0  0  0  0  0  0  0  0  0  0
   23.7058  -16.4510  -15.8256 C   0  0  0  0  0  0  0  0  0  0  0  0
   22.7669  -15.6050  -16.5647 N   0  0  0  0  0  0  0  0  0  0  0  0
   25.4193  -21.2007  -14.7417 C   0  0  0  0  0  0  0  0  0  0  0  0
   24.2980  -21.7551  -14.6745 O   0  0  0  0  0  0  0  0  0  0  0  0
   26.1136  -20.8889  -13.5596 N   0  0  0  0  0  0  0  0  0  0  0  0
   25.5896  -21.2476  -12.2308 C   0  0  1  0  0  0  0  0  0  0  0  0
   26.7557  -21.2388  -11.3030 C   0  0  0  0  0  0  0  0  0  0  0  0
   26.4178  -20.6187  -10.0258 C   0  0  0  0  0  0  0  0  0  0  0  0
   25.7063  -21.3727   -9.1025 C   0  0  0  0  0  0  0  0  0  0  0  0
   25.3683  -20.8722   -7.8763 C   0  0  0  0  0  0  0  0  0  0  0  0
   25.7328  -19.6034   -7.5394 C   0  0  0  0  0  0  0  0  0  0  0  0
   26.4324  -18.8274   -8.4190 C   0  0  0  0  0  0  0  0  0  0  0  0
   26.7766  -19.3417   -9.6723 C   0  0  0  0  0  0  0  0  0  0  0  0
   24.5644  -20.3016  -11.8061 C   0  0  0  0  0  0  0  0  0  0  0  0
   24.6873  -19.0771  -12.1447 O   0  0  0  0  0  0  0  0  0  0  0  0
   23.4454  -20.5916  -11.0604 O   0  0  0  0  0  0  0  0  0  0  0  0
  1  2  1  0
  2  4  1  0
  3  2  2  0
  4  5  1  0
  5  6  1  1
  7  8  2  0
  7  5  1  0
  9  7  1  0
 10  9  1  0
 10 11  1  6
 11 12  1  0
 12 13  1  0
 13 14  1  0
 14 15  1  0
 16 18  1  0
 16 10  1  0
 17 16  2  0
 19 27  1  0
 19 18  1  0
 19 20  1  1
 21 22  2  0
 21 20  1  0
 23 22  1  0
 24 23  2  0
 25 24  1  0
 25 26  2  0
 26 21  1  0
 27 29  1  0
 28 27  2  0
M  END
$$$$
