NKF.pdb
     RDKit          3D

 29 29  0  0  1  0  0  0  0  0999 V2000
   29.3505  -19.8633  -17.0257 N   0  0  0  0  0  0  0  0  0  0  0  0
   29.1945  -18.5353  -16.5704 C   0  0  0  0  0  0  0  0  0  0  0  0
   29.5116  -17.5814  -17.3256 O   0  0  0  0  0  0  0  0  0  0  0  0
   28.6689  -18.2142  -15.2226 C   0  0  0  0  0  0  0  0  0  0  0  0
   27.2435  -18.7100  -15.1828 C   0  0  2  0  0  0  0  0  0  0  0  0
   26.4549  -17.8631  -16.0542 N   0  0  0  0  0  0  0  0  0  0  0  0
   26.6651  -18.8000  -13.8389 C   0  0  0  0  0  0  0  0  0  0  0  0
   26.7245  -17.8619  -12.9916 O   0  0  0  0  0  0  0  0  0  0  0  0
   26.0009  -19.9735  -13.4273 N   0  0  0  0  0  0  0  0  0  0  0  0
   25.2384  -20.0064  -12.1800 C   0  0  1  0  0  0  0  0  0  0  0  0
   23.8808  -20.6488  -12.3639 C   0  0  0  0  0  0  0  0  0  0  0  0
   23.0875  -20.6185  -11.0781 C   0  0  0  0  0  0  0  0  0  0  0  0
   21.7779  -21.3525  -11.2126 C   0  0  0  0  0  0  0  0  0  0  0  0
   20.9212  -21.2252   -9.9722 C   0  0  0  0  0  0  0  0  0  0  0  0
   19.6996  -21.9953  -10.2134 N   0  0  0  0  0  0  0  0  0  0  0  0
   25.9565  -20.7507  -11.1194 C   0  0  0  0  0  0  0  0  0  0  0  0
   26.4762  -21.8466  -11.4327 O   0  0  0  0  0  0  0  0  0  0  0  0
   26.0751  -20.2758   -9.8015 N   0  0  0  0  0  0  0  0  0  0  0  0
   26.6486  -21.1008   -8.7246 C   0  0  1  0  0  0  0  0  0  0  0  0
   27.9745  -20.5038   -8.3988 C   0  0  0  0  0  0  0  0  0  0  0  0
   28.0240  -20.0334   -7.0181 C   0  0  0  0  0  0  0  0  0  0  0  0
   28.6524  -20.8376   -6.0770 C   0  0  0  0  0  0  0  0  0  0  0  0
   28.7587  -20.4599   -4.7677 C   0  0  0  0  0  0  0  0  0  0  0  0
   28.2393  -19.2672   -4.3631 C   0  0  0  0  0  0  0  0  0  0  0  0
   27.6117  -18.4466   -5.2566 C   0  0  0  0  0  0  0  0  0  0  0  0
   27.5045  -18.8353   -6.5950 C   0  0  0  0  0  0  0  0  0  0  0  0
   25.7707  -21.1151   -7.5604 C   0  0  0  0  0  0  0  0  0  0  0  0
   24.8496  -20.2351   -7.4808 O   0  0  0  0  0  0  0  0  0  0  0  0
   25.8256  -21.9994   -6.5081 O   0  0  0  0  0  0  0  0  0  0  0  0
  1  2  1  0
  2  4  1  0
  3  2  2  0
  4  5  1  0
  5  6  1  6
  7  8  2  0
  7  5  1  0
  9  7  1  0
 10  9  1  0
 10 11  1  6
 11 12  1  0
 12 13  1  0
 13 14  1  0
 14 15  1  0
 16 18  1  0
 16 10  1  0
 17 16  2  0
 19 27  1  0
 19 18  1  0
 19 20  1  1
 21 22  2  0
 21 20  1  0
 23 22  1  0
 24 23  2  0
 25 24  1  0
 25 26  2  0
 26 21  1  0
 27 29  1  0
 28 27  2  0
M  END
$$$$
