FLI.pdb
     RDKit          3D

 28 28  0  0  1  0  0  0  0  0999 V2000
    6.7726  -15.4417   26.4966 N   0  0  0  0  0  0  0  0  0  0  0  0
    6.0161  -15.9260   25.3613 C   0  0  1  0  0  0  0  0  0  0  0  0
    4.8803  -14.9561   25.1347 C   0  0  0  0  0  0  0  0  0  0  0  0
    5.2308  -13.7000   25.8513 C   0  0  0  0  0  0  0  0  0  0  0  0
    4.5174  -13.2421   26.9419 C   0  0  0  0  0  0  0  0  0  0  0  0
    4.8688  -12.0614   27.5938 C   0  0  0  0  0  0  0  0  0  0  0  0
    5.9533  -11.3174   27.1538 C   0  0  0  0  0  0  0  0  0  0  0  0
    6.6621  -11.7584   26.0822 C   0  0  0  0  0  0  0  0  0  0  0  0
    6.3035  -12.9234   25.4506 C   0  0  0  0  0  0  0  0  0  0  0  0
    6.8839  -16.0888   24.1966 C   0  0  0  0  0  0  0  0  0  0  0  0
    6.9747  -17.2360   23.6832 O   0  0  0  0  0  0  0  0  0  0  0  0
    9.3316  -12.7875   19.7573 C   0  0  0  0  0  0  0  0  0  0  0  0
    9.2506  -14.2356   20.3083 C   0  0  2  0  0  0  0  0  0  0  0  0
    8.4032  -14.9694   19.3157 C   0  0  0  0  0  0  0  0  0  0  0  0
    8.6620  -14.1013   21.6524 C   0  0  0  0  0  0  0  0  0  0  0  0
    8.4667  -15.3364   22.4655 C   0  0  2  0  0  0  0  0  0  0  0  0
    7.6336  -15.0592   23.5960 N   0  0  0  0  0  0  0  0  0  0  0  0
    9.7884  -15.7874   23.0290 C   0  0  0  0  0  0  0  0  0  0  0  0
   10.7778  -16.0767   22.3016 O   0  0  0  0  0  0  0  0  0  0  0  0
   10.6455  -13.9773   28.1923 C   0  0  0  0  0  0  0  0  0  0  0  0
   10.8637  -14.2111   26.7128 C   0  0  0  0  0  0  0  0  0  0  0  0
   11.3735  -15.6133   26.4562 C   0  0  2  0  0  0  0  0  0  0  0  0
   12.7267  -15.8225   27.0745 C   0  0  0  0  0  0  0  0  0  0  0  0
   11.3365  -15.9291   24.9918 C   0  0  2  0  0  0  0  0  0  0  0  0
   10.0019  -15.9152   24.4298 N   0  0  0  0  0  0  0  0  0  0  0  0
   11.8769  -17.2978   24.7769 C   0  0  0  0  0  0  0  0  0  0  0  0
   13.0828  -17.4813   24.4195 O   0  0  0  0  0  0  0  0  0  0  0  0
   11.1153  -18.4476   24.9489 O   0  0  0  0  0  0  0  0  0  0  0  0
  2  1  1  1
  3  4  1  0
  3  2  1  0
  4  9  2  0
  5  4  1  0
  5  6  2  0
  6  7  1  0
  7  8  2  0
  9  8  1  0
 10 17  1  0
 10  2  1  0
 11 10  2  0
 13 12  1  6
 13 15  1  0
 14 13  1  0
 16 15  1  1
 16 17  1  0
 18 16  1  0
 19 18  2  0
 20 21  1  0
 21 22  1  0
 22 24  1  0
 22 23  1  6
 24 26  1  0
 24 25  1  1
 25 18  1  0
 26 28  1  0
 27 26  2  0
M  END
$$$$
