FLI.pdb
     RDKit          3D

 28 28  0  0  1  0  0  0  0  0999 V2000
    7.2679  -20.1431   23.9841 N   0  0  0  0  0  0  0  0  0  0  0  0
    6.5710  -19.0334   23.3688 C   0  0  1  0  0  0  0  0  0  0  0  0
    5.5218  -18.5656   24.3498 C   0  0  0  0  0  0  0  0  0  0  0  0
    6.2429  -17.9830   25.5138 C   0  0  0  0  0  0  0  0  0  0  0  0
    7.0728  -18.7318   26.3252 C   0  0  0  0  0  0  0  0  0  0  0  0
    7.7357  -18.1592   27.4092 C   0  0  0  0  0  0  0  0  0  0  0  0
    7.5717  -16.8121   27.6951 C   0  0  0  0  0  0  0  0  0  0  0  0
    6.7578  -16.0661   26.9037 C   0  0  0  0  0  0  0  0  0  0  0  0
    6.1117  -16.6447   25.8396 C   0  0  0  0  0  0  0  0  0  0  0  0
    7.5134  -17.9858   22.9805 C   0  0  0  0  0  0  0  0  0  0  0  0
    8.7288  -18.2978   22.8647 O   0  0  0  0  0  0  0  0  0  0  0  0
    7.1848  -12.4346   20.4597 C   0  0  0  0  0  0  0  0  0  0  0  0
    8.1335  -13.6447   20.6669 C   0  0  2  0  0  0  0  0  0  0  0  0
    8.4053  -14.1513   19.2844 C   0  0  0  0  0  0  0  0  0  0  0  0
    7.3871  -14.5718   21.5355 C   0  0  0  0  0  0  0  0  0  0  0  0
    8.0942  -15.7781   22.0550 C   0  0  2  0  0  0  0  0  0  0  0  0
    7.1710  -16.6445   22.7230 N   0  0  0  0  0  0  0  0  0  0  0  0
    9.1007  -15.3671   23.0970 C   0  0  0  0  0  0  0  0  0  0  0  0
   10.2217  -14.8678   22.8040 O   0  0  0  0  0  0  0  0  0  0  0  0
    6.7096  -12.9481   27.1502 C   0  0  0  0  0  0  0  0  0  0  0  0
    7.6382  -13.3973   26.0425 C   0  0  0  0  0  0  0  0  0  0  0  0
    8.7704  -14.2379   26.5933 C   0  0  2  0  0  0  0  0  0  0  0  0
    9.5677  -13.4762   27.6137 C   0  0  0  0  0  0  0  0  0  0  0  0
    9.6077  -14.7909   25.4802 C   0  0  2  0  0  0  0  0  0  0  0  0
    8.8444  -15.5192   24.4881 N   0  0  0  0  0  0  0  0  0  0  0  0
   10.5963  -15.7469   26.0459 C   0  0  0  0  0  0  0  0  0  0  0  0
   11.5456  -15.3488   26.7915 O   0  0  0  0  0  0  0  0  0  0  0  0
   10.5510  -17.1146   25.8029 O   0  0  0  0  0  0  0  0  0  0  0  0
  2  1  1  1
  3  4  1  0
  3  2  1  0
  4  9  2  0
  5  4  1  0
  5  6  2  0
  6  7  1  0
  7  8  2  0
  9  8  1  0
 10 17  1  0
 10  2  1  0
 11 10  2  0
 13 12  1  6
 13 15  1  0
 14 13  1  0
 16 15  1  1
 16 17  1  0
 18 16  1  0
 19 18  2  0
 20 21  1  0
 21 22  1  0
 22 24  1  0
 22 23  1  1
 24 26  1  0
 24 25  1  6
 25 18  1  0
 26 28  1  0
 27 26  2  0
M  END
$$$$
