FLI.pdb
     RDKit          3D

 28 28  0  0  1  0  0  0  0  0999 V2000
    5.1627  -18.1353   23.9769 N   0  0  0  0  0  0  0  0  0  0  0  0
    5.8483  -16.9183   24.3572 C   0  0  1  0  0  0  0  0  0  0  0  0
    5.9712  -16.9267   25.8629 C   0  0  0  0  0  0  0  0  0  0  0  0
    6.5027  -15.5959   26.2639 C   0  0  0  0  0  0  0  0  0  0  0  0
    7.6423  -15.4504   27.0307 C   0  0  0  0  0  0  0  0  0  0  0  0
    8.1171  -14.1907   27.3914 C   0  0  0  0  0  0  0  0  0  0  0  0
    7.4459  -13.0483   26.9818 C   0  0  0  0  0  0  0  0  0  0  0  0
    6.3240  -13.1796   26.2272 C   0  0  0  0  0  0  0  0  0  0  0  0
    5.8689  -14.4274   25.8801 C   0  0  0  0  0  0  0  0  0  0  0  0
    7.1333  -16.8151   23.6687 C   0  0  0  0  0  0  0  0  0  0  0  0
    7.7981  -17.8718   23.4971 O   0  0  0  0  0  0  0  0  0  0  0  0
    7.9472  -14.9596   19.6660 C   0  0  0  0  0  0  0  0  0  0  0  0
    7.9952  -13.9452   20.8390 C   0  0  2  0  0  0  0  0  0  0  0  0
    8.1906  -12.6154   20.1793 C   0  0  0  0  0  0  0  0  0  0  0  0
    9.1152  -14.3920   21.6858 C   0  0  0  0  0  0  0  0  0  0  0  0
    8.9451  -15.6422   22.4815 C   0  0  2  0  0  0  0  0  0  0  0  0
    7.6941  -15.6208   23.1769 N   0  0  0  0  0  0  0  0  0  0  0  0
   10.0071  -15.7141   23.5468 C   0  0  0  0  0  0  0  0  0  0  0  0
   11.2406  -15.7201   23.2821 O   0  0  0  0  0  0  0  0  0  0  0  0
    9.5114  -12.7709   28.0772 C   0  0  0  0  0  0  0  0  0  0  0  0
   10.0848  -13.4995   26.8808 C   0  0  0  0  0  0  0  0  0  0  0  0
   10.2711  -14.9714   27.1820 C   0  0  2  0  0  0  0  0  0  0  0  0
   11.1924  -15.1757   28.3510 C   0  0  0  0  0  0  0  0  0  0  0  0
   10.7016  -15.7119   25.9524 C   0  0  2  0  0  0  0  0  0  0  0  0
    9.6786  -15.7804   24.9296 N   0  0  0  0  0  0  0  0  0  0  0  0
   11.0321  -17.1141   26.3215 C   0  0  0  0  0  0  0  0  0  0  0  0
   12.0705  -17.3892   27.0008 O   0  0  0  0  0  0  0  0  0  0  0  0
   10.2434  -18.1986   25.9560 O   0  0  0  0  0  0  0  0  0  0  0  0
  2  1  1  6
  3  4  1  0
  3  2  1  0
  4  9  2  0
  5  4  1  0
  5  6  2  0
  6  7  1  0
  7  8  2  0
  9  8  1  0
 10 17  1  0
 10  2  1  0
 11 10  2  0
 13 12  1  6
 13 15  1  0
 14 13  1  0
 16 15  1  1
 16 17  1  0
 18 16  1  0
 19 18  2  0
 20 21  1  0
 21 22  1  0
 22 24  1  0
 22 23  1  1
 24 26  1  0
 24 25  1  6
 25 18  1  0
 26 28  1  0
 27 26  2  0
M  END
$$$$
