FLI.pdb
     RDKit          3D

 28 28  0  0  1  0  0  0  0  0999 V2000
    7.4401  -17.4690   21.0302 N   0  0  0  0  0  0  0  0  0  0  0  0
    6.9227  -17.4754   22.3822 C   0  0  1  0  0  0  0  0  0  0  0  0
    7.1072  -18.8733   22.9244 C   0  0  0  0  0  0  0  0  0  0  0  0
    6.0511  -19.7220   22.3090 C   0  0  0  0  0  0  0  0  0  0  0  0
    6.2632  -20.4550   21.1576 C   0  0  0  0  0  0  0  0  0  0  0  0
    5.2550  -21.2417   20.6034 C   0  0  0  0  0  0  0  0  0  0  0  0
    4.0070  -21.3027   21.2052 C   0  0  0  0  0  0  0  0  0  0  0  0
    3.7874  -20.5858   22.3379 C   0  0  0  0  0  0  0  0  0  0  0  0
    4.7906  -19.8156   22.8717 C   0  0  0  0  0  0  0  0  0  0  0  0
    7.5774  -16.4471   23.1885 C   0  0  0  0  0  0  0  0  0  0  0  0
    8.8105  -16.2553   23.0135 O   0  0  0  0  0  0  0  0  0  0  0  0
    6.1168  -12.1098   27.2420 C   0  0  0  0  0  0  0  0  0  0  0  0
    7.3381  -12.8415   26.6253 C   0  0  2  0  0  0  0  0  0  0  0  0
    8.1950  -11.7447   26.0735 C   0  0  0  0  0  0  0  0  0  0  0  0
    6.7689  -13.7547   25.6188 C   0  0  0  0  0  0  0  0  0  0  0  0
    7.6881  -14.7002   24.9217 C   0  0  2  0  0  0  0  0  0  0  0  0
    6.9370  -15.6461   24.1534 N   0  0  0  0  0  0  0  0  0  0  0  0
    8.4509  -15.5085   25.9379 C   0  0  0  0  0  0  0  0  0  0  0  0
    7.8978  -16.3568   26.6903 O   0  0  0  0  0  0  0  0  0  0  0  0
   13.3633  -17.0111   24.2984 C   0  0  0  0  0  0  0  0  0  0  0  0
   11.9705  -16.9621   24.8889 C   0  0  0  0  0  0  0  0  0  0  0  0
   12.0130  -16.5330   26.3401 C   0  0  2  0  0  0  0  0  0  0  0  0
   12.8270  -17.4875   27.1667 C   0  0  0  0  0  0  0  0  0  0  0  0
   10.6268  -16.3243   26.8700 C   0  0  2  0  0  0  0  0  0  0  0  0
    9.8554  -15.3618   26.1113 N   0  0  0  0  0  0  0  0  0  0  0  0
   10.7124  -15.8036   28.2603 C   0  0  0  0  0  0  0  0  0  0  0  0
   10.6763  -14.5559   28.4999 O   0  0  0  0  0  0  0  0  0  0  0  0
   10.8354  -16.6296   29.3714 O   0  0  0  0  0  0  0  0  0  0  0  0
  2  1  1  6
  3  4  1  0
  3  2  1  0
  4  9  2  0
  5  4  1  0
  5  6  2  0
  6  7  1  0
  7  8  2  0
  9  8  1  0
 10 17  1  0
 10  2  1  0
 11 10  2  0
 13 12  1  6
 13 15  1  0
 14 13  1  0
 16 15  1  1
 16 17  1  0
 18 16  1  0
 19 18  2  0
 20 21  1  0
 21 22  1  0
 22 24  1  0
 22 23  1  1
 24 26  1  0
 24 25  1  6
 25 18  1  0
 26 28  1  0
 27 26  2  0
M  END
$$$$
