FLI.pdb
     RDKit          3D

 28 28  0  0  1  0  0  0  0  0999 V2000
    8.0401  -14.3161   20.2197 N   0  0  0  0  0  0  0  0  0  0  0  0
    7.4386  -15.2139   21.1829 C   0  0  1  0  0  0  0  0  0  0  0  0
    7.5810  -16.6153   20.6371 C   0  0  0  0  0  0  0  0  0  0  0  0
    6.8801  -17.5247   21.5836 C   0  0  0  0  0  0  0  0  0  0  0  0
    7.5303  -18.1612   22.6228 C   0  0  0  0  0  0  0  0  0  0  0  0
    6.8478  -19.0080   23.4943 C   0  0  0  0  0  0  0  0  0  0  0  0
    5.4884  -19.2286   23.3314 C   0  0  0  0  0  0  0  0  0  0  0  0
    4.8388  -18.6076   22.3127 C   0  0  0  0  0  0  0  0  0  0  0  0
    5.5249  -17.7765   21.4626 C   0  0  0  0  0  0  0  0  0  0  0  0
    8.0467  -15.0375   22.5002 C   0  0  0  0  0  0  0  0  0  0  0  0
    9.3002  -14.9243   22.5618 O   0  0  0  0  0  0  0  0  0  0  0  0
    7.6749  -11.7100   25.7419 C   0  0  0  0  0  0  0  0  0  0  0  0
    6.5200  -12.7276   25.5475 C   0  0  2  0  0  0  0  0  0  0  0  0
    5.4338  -12.2429   26.4570 C   0  0  0  0  0  0  0  0  0  0  0  0
    7.0972  -14.0349   25.9065 C   0  0  0  0  0  0  0  0  0  0  0  0
    8.0252  -14.6880   24.9385 C   0  0  2  0  0  0  0  0  0  0  0  0
    7.3400  -14.9832   23.7169 N   0  0  0  0  0  0  0  0  0  0  0  0
    8.4791  -16.0150   25.4868 C   0  0  0  0  0  0  0  0  0  0  0  0
    7.6886  -16.9776   25.6870 O   0  0  0  0  0  0  0  0  0  0  0  0
   12.7822  -18.3795   23.4726 C   0  0  0  0  0  0  0  0  0  0  0  0
   11.4926  -17.9142   24.1141 C   0  0  0  0  0  0  0  0  0  0  0  0
   11.5751  -18.0063   25.6230 C   0  0  2  0  0  0  0  0  0  0  0  0
   12.0181  -19.3732   26.0618 C   0  0  0  0  0  0  0  0  0  0  0  0
   10.2851  -17.5723   26.2501 C   0  0  2  0  0  0  0  0  0  0  0  0
    9.8409  -16.2643   25.8152 N   0  0  0  0  0  0  0  0  0  0  0  0
   10.4643  -17.4950   27.7243 C   0  0  0  0  0  0  0  0  0  0  0  0
   10.6092  -16.3776   28.3126 O   0  0  0  0  0  0  0  0  0  0  0  0
   10.4851  -18.6173   28.5438 O   0  0  0  0  0  0  0  0  0  0  0  0
  2  1  1  6
  3  4  1  0
  3  2  1  0
  4  9  2  0
  5  4  1  0
  5  6  2  0
  6  7  1  0
  7  8  2  0
  9  8  1  0
 10 17  1  0
 10  2  1  0
 11 10  2  0
 13 12  1  1
 13 15  1  0
 14 13  1  0
 16 15  1  1
 16 17  1  0
 18 16  1  0
 19 18  2  0
 20 21  1  0
 21 22  1  0
 22 24  1  0
 22 23  1  6
 24 26  1  0
 24 25  1  6
 25 18  1  0
 26 28  1  0
 27 26  2  0
M  END
$$$$
