FLI.pdb
     RDKit          3D

 28 28  0  0  1  0  0  0  0  0999 V2000
    6.4140  -19.2330   21.3741 N   0  0  0  0  0  0  0  0  0  0  0  0
    6.5126  -18.3470   22.5147 C   0  0  1  0  0  0  0  0  0  0  0  0
    6.4947  -19.2106   23.7540 C   0  0  0  0  0  0  0  0  0  0  0  0
    6.5111  -18.2924   24.9249 C   0  0  0  0  0  0  0  0  0  0  0  0
    5.5612  -17.3070   25.1107 C   0  0  0  0  0  0  0  0  0  0  0  0
    5.6015  -16.4610   26.2175 C   0  0  0  0  0  0  0  0  0  0  0  0
    6.6077  -16.5955   27.1624 C   0  0  0  0  0  0  0  0  0  0  0  0
    7.5472  -17.5613   26.9897 C   0  0  0  0  0  0  0  0  0  0  0  0
    7.4939  -18.3869   25.8942 C   0  0  0  0  0  0  0  0  0  0  0  0
    7.7017  -17.5037   22.4097 C   0  0  0  0  0  0  0  0  0  0  0  0
    8.8134  -18.0696   22.2312 O   0  0  0  0  0  0  0  0  0  0  0  0
    7.9385  -14.5432   19.2209 C   0  0  0  0  0  0  0  0  0  0  0  0
    7.3423  -14.0246   20.5561 C   0  0  2  0  0  0  0  0  0  0  0  0
    6.8138  -12.6625   20.2288 C   0  0  0  0  0  0  0  0  0  0  0  0
    8.4649  -14.0455   21.5102 C   0  0  0  0  0  0  0  0  0  0  0  0
    8.8658  -15.3548   22.1019 C   0  0  2  0  0  0  0  0  0  0  0  0
    7.7065  -16.0980   22.4925 N   0  0  0  0  0  0  0  0  0  0  0  0
    9.6504  -15.1215   23.3659 C   0  0  0  0  0  0  0  0  0  0  0  0
   10.8276  -14.6677   23.3650 O   0  0  0  0  0  0  0  0  0  0  0  0
    7.9172  -11.7910   26.6596 C   0  0  0  0  0  0  0  0  0  0  0  0
    8.7109  -12.7944   25.8507 C   0  0  0  0  0  0  0  0  0  0  0  0
    9.0544  -14.0107   26.6843 C   0  0  2  0  0  0  0  0  0  0  0  0
    9.7770  -13.6219   27.9428 C   0  0  0  0  0  0  0  0  0  0  0  0
    9.7966  -15.0211   25.8634 C   0  0  2  0  0  0  0  0  0  0  0  0
    9.1048  -15.4022   24.6496 N   0  0  0  0  0  0  0  0  0  0  0  0
    9.9714  -16.2622   26.6638 C   0  0  0  0  0  0  0  0  0  0  0  0
    9.2418  -17.2835   26.4637 O   0  0  0  0  0  0  0  0  0  0  0  0
   10.9261  -16.3878   27.6661 O   0  0  0  0  0  0  0  0  0  0  0  0
  2  1  1  6
  3  4  1  0
  3  2  1  0
  4  9  2  0
  5  4  1  0
  5  6  2  0
  6  7  1  0
  7  8  2  0
  9  8  1  0
 10 17  1  0
 10  2  1  0
 11 10  2  0
 13 12  1  6
 13 15  1  0
 14 13  1  0
 16 15  1  1
 16 17  1  0
 18 16  1  0
 19 18  2  0
 20 21  1  0
 21 22  1  0
 22 24  1  0
 22 23  1  1
 24 26  1  0
 24 25  1  6
 25 18  1  0
 26 28  1  0
 27 26  2  0
M  END
$$$$
