FLI.pdb
     RDKit          3D

 28 28  0  0  1  0  0  0  0  0999 V2000
    8.6696  -17.5495   20.8105 N   0  0  0  0  0  0  0  0  0  0  0  0
    8.5755  -16.1212   21.0271 C   0  0  1  0  0  0  0  0  0  0  0  0
    7.1956  -15.6925   20.5865 C   0  0  0  0  0  0  0  0  0  0  0  0
    7.3738  -14.5630   19.6342 C   0  0  0  0  0  0  0  0  0  0  0  0
    7.5546  -14.7549   18.2783 C   0  0  0  0  0  0  0  0  0  0  0  0
    7.7191  -13.6776   17.4096 C   0  0  0  0  0  0  0  0  0  0  0  0
    7.7039  -12.3793   17.8971 C   0  0  0  0  0  0  0  0  0  0  0  0
    7.5268  -12.1790   19.2289 C   0  0  0  0  0  0  0  0  0  0  0  0
    7.3661  -13.2505   20.0719 C   0  0  0  0  0  0  0  0  0  0  0  0
    8.8706  -15.7916   22.4201 C   0  0  0  0  0  0  0  0  0  0  0  0
   10.0660  -15.5366   22.7264 O   0  0  0  0  0  0  0  0  0  0  0  0
    5.5626  -13.0737   26.6482 C   0  0  0  0  0  0  0  0  0  0  0  0
    7.0256  -13.4943   26.3489 C   0  0  2  0  0  0  0  0  0  0  0  0
    7.7606  -12.2019   26.1720 C   0  0  0  0  0  0  0  0  0  0  0  0
    6.9428  -14.3351   25.1417 C   0  0  0  0  0  0  0  0  0  0  0  0
    8.1902  -14.9859   24.6463 C   0  0  2  0  0  0  0  0  0  0  0  0
    7.9196  -15.7354   23.4571 N   0  0  0  0  0  0  0  0  0  0  0  0
    8.6784  -15.9859   25.6609 C   0  0  0  0  0  0  0  0  0  0  0  0
    8.6318  -17.2319   25.4687 O   0  0  0  0  0  0  0  0  0  0  0  0
   11.1399  -13.1470   29.5227 C   0  0  0  0  0  0  0  0  0  0  0  0
   11.2436  -14.0134   28.2859 C   0  0  0  0  0  0  0  0  0  0  0  0
   10.9965  -15.4686   28.6226 C   0  0  2  0  0  0  0  0  0  0  0  0
   12.2334  -16.1170   29.1764 C   0  0  0  0  0  0  0  0  0  0  0  0
   10.4254  -16.1943   27.4424 C   0  0  2  0  0  0  0  0  0  0  0  0
    9.2269  -15.5804   26.9094 N   0  0  0  0  0  0  0  0  0  0  0  0
   10.0525  -17.5734   27.8550 C   0  0  0  0  0  0  0  0  0  0  0  0
   10.8091  -18.5634   27.6041 O   0  0  0  0  0  0  0  0  0  0  0  0
    8.8740  -17.8685   28.5302 O   0  0  0  0  0  0  0  0  0  0  0  0
  2  1  1  1
  3  4  1  0
  3  2  1  0
  4  9  2  0
  5  4  1  0
  5  6  2  0
  6  7  1  0
  7  8  2  0
  9  8  1  0
 10 17  1  0
 10  2  1  0
 11 10  2  0
 13 12  1  6
 13 15  1  0
 14 13  1  0
 16 15  1  1
 16 17  1  0
 18 16  1  0
 19 18  2  0
 20 21  1  0
 21 22  1  0
 22 24  1  0
 22 23  1  6
 24 26  1  0
 24 25  1  1
 25 18  1  0
 26 28  1  0
 27 26  2  0
M  END
$$$$
