FLI.pdb
     RDKit          3D

 28 28  0  0  1  0  0  0  0  0999 V2000
    7.1102  -20.0405   24.5524 N   0  0  0  0  0  0  0  0  0  0  0  0
    6.7998  -18.9391   23.6656 C   0  0  1  0  0  0  0  0  0  0  0  0
    5.6535  -18.1755   24.2860 C   0  0  0  0  0  0  0  0  0  0  0  0
    6.1763  -17.5338   25.5227 C   0  0  0  0  0  0  0  0  0  0  0  0
    6.7893  -18.2517   26.5310 C   0  0  0  0  0  0  0  0  0  0  0  0
    7.2696  -17.6238   27.6787 C   0  0  0  0  0  0  0  0  0  0  0  0
    7.1389  -16.2514   27.8300 C   0  0  0  0  0  0  0  0  0  0  0  0
    6.5376  -15.5355   26.8445 C   0  0  0  0  0  0  0  0  0  0  0  0
    6.0696  -16.1685   25.7199 C   0  0  0  0  0  0  0  0  0  0  0  0
    7.9861  -18.1186   23.4299 C   0  0  0  0  0  0  0  0  0  0  0  0
    9.1152  -18.6673   23.5392 O   0  0  0  0  0  0  0  0  0  0  0  0
    6.7197  -13.7307   21.1336 C   0  0  0  0  0  0  0  0  0  0  0  0
    7.7402  -14.0154   22.2670 C   0  0  2  0  0  0  0  0  0  0  0  0
    8.2957  -12.6707   22.6204 C   0  0  0  0  0  0  0  0  0  0  0  0
    8.7104  -14.9567   21.6808 C   0  0  0  0  0  0  0  0  0  0  0  0
    9.1177  -16.1449   22.4853 C   0  0  2  0  0  0  0  0  0  0  0  0
    7.9701  -16.7528   23.0875 N   0  0  0  0  0  0  0  0  0  0  0  0
    9.9983  -15.7079   23.6261 C   0  0  0  0  0  0  0  0  0  0  0  0
   11.1434  -15.2080   23.4520 O   0  0  0  0  0  0  0  0  0  0  0  0
    8.2785  -12.5578   27.5063 C   0  0  0  0  0  0  0  0  0  0  0  0
    9.0336  -13.3647   26.4719 C   0  0  0  0  0  0  0  0  0  0  0  0
    9.6835  -14.5784   27.1016 C   0  0  2  0  0  0  0  0  0  0  0  0
   10.5351  -14.1917   28.2773 C   0  0  0  0  0  0  0  0  0  0  0  0
   10.4238  -15.3756   26.0710 C   0  0  2  0  0  0  0  0  0  0  0  0
    9.5865  -15.8342   24.9821 N   0  0  0  0  0  0  0  0  0  0  0  0
   10.9930  -16.5897   26.7138 C   0  0  0  0  0  0  0  0  0  0  0  0
   10.4677  -17.7342   26.5413 O   0  0  0  0  0  0  0  0  0  0  0  0
   12.1165  -16.5569   27.5313 O   0  0  0  0  0  0  0  0  0  0  0  0
  2  1  1  1
  3  4  1  0
  3  2  1  0
  4  9  2  0
  5  4  1  0
  5  6  2  0
  6  7  1  0
  7  8  2  0
  9  8  1  0
 10 17  1  0
 10  2  1  0
 11 10  2  0
 13 12  1  6
 13 15  1  0
 14 13  1  0
 16 15  1  1
 16 17  1  0
 18 16  1  0
 19 18  2  0
 20 21  1  0
 21 22  1  0
 22 24  1  0
 22 23  1  1
 24 26  1  0
 24 25  1  6
 25 18  1  0
 26 28  1  0
 27 26  2  0
M  END
$$$$
