IGI.pdb
     RDKit          3D

 21 20  0  0  1  0  0  0  0  0999 V2000
   24.6458  -17.1172  -19.9333 C   0  0  0  0  0  0  0  0  0  0  0  0
   25.4293  -18.3810  -20.0592 C   0  0  0  0  0  0  0  0  0  0  0  0
   26.0191  -18.8764  -18.7511 C   0  0  2  0  0  0  0  0  0  0  0  0
   24.8359  -19.1843  -17.8574 C   0  0  0  0  0  0  0  0  0  0  0  0
   26.9349  -17.8267  -18.1316 C   0  0  2  0  0  0  0  0  0  0  0  0
   28.1098  -17.7997  -19.0090 N   0  0  0  0  0  0  0  0  0  0  0  0
   27.3632  -18.3215  -16.8015 C   0  0  0  0  0  0  0  0  0  0  0  0
   28.1547  -19.3248  -16.7689 O   0  0  0  0  0  0  0  0  0  0  0  0
   26.9630  -17.7660  -15.5692 N   0  0  0  0  0  0  0  0  0  0  0  0
   27.3717  -18.4130  -14.3392 C   0  0  0  0  0  0  0  0  0  0  0  0
   26.2872  -19.3210  -13.8458 C   0  0  0  0  0  0  0  0  0  0  0  0
   25.6585  -20.0151  -14.6763 O   0  0  0  0  0  0  0  0  0  0  0  0
   26.8011  -21.1655   -8.7751 C   0  0  0  0  0  0  0  0  0  0  0  0
   26.4739  -21.1332  -10.2270 C   0  0  0  0  0  0  0  0  0  0  0  0
   25.1318  -20.6222  -10.5993 C   0  0  2  0  0  0  0  0  0  0  0  0
   23.9918  -21.2875   -9.8563 C   0  0  0  0  0  0  0  0  0  0  0  0
   24.8773  -20.3522  -12.0355 C   0  0  2  0  0  0  0  0  0  0  0  0
   25.9445  -19.4271  -12.4867 N   0  0  0  0  0  0  0  0  0  0  0  0
   23.5647  -19.8659  -12.4275 C   0  0  0  0  0  0  0  0  0  0  0  0
   23.2361  -18.6282  -12.3789 O   0  0  0  0  0  0  0  0  0  0  0  0
   22.5607  -20.6977  -12.8890 O   0  0  0  0  0  0  0  0  0  0  0  0
  1  2  1  0
  2  3  1  0
  3  5  1  0
  3  4  1  1
  5  6  1  6
  7  8  2  0
  7  5  1  0
  9  7  1  0
 10 11  1  0
 10  9  1  0
 11 18  1  0
 12 11  2  0
 14 13  1  0
 15 14  1  0
 15 16  1  6
 17 15  1  0
 17 18  1  1
 19 17  1  0
 19 21  1  0
 20 19  2  0
M  END
$$$$
