IGI.pdb
     RDKit          3D

 21 20  0  0  1  0  0  0  0  0999 V2000
   21.0687  -21.0830  -14.7913 C   0  0  0  0  0  0  0  0  0  0  0  0
   21.5694  -19.7480  -14.3507 C   0  0  0  0  0  0  0  0  0  0  0  0
   22.9929  -19.7642  -13.8237 C   0  0  2  0  0  0  0  0  0  0  0  0
   23.8586  -20.1888  -14.9915 C   0  0  0  0  0  0  0  0  0  0  0  0
   23.1289  -20.7208  -12.6444 C   0  0  2  0  0  0  0  0  0  0  0  0
   22.3266  -20.1089  -11.5800 N   0  0  0  0  0  0  0  0  0  0  0  0
   24.5473  -20.7168  -12.2138 C   0  0  0  0  0  0  0  0  0  0  0  0
   25.3374  -21.5553  -12.7679 O   0  0  0  0  0  0  0  0  0  0  0  0
   25.0899  -19.8552  -11.2389 N   0  0  0  0  0  0  0  0  0  0  0  0
   26.4865  -19.9902  -10.8785 C   0  0  0  0  0  0  0  0  0  0  0  0
   26.6152  -20.6521   -9.5409 C   0  0  0  0  0  0  0  0  0  0  0  0
   26.3139  -21.8625   -9.4364 O   0  0  0  0  0  0  0  0  0  0  0  0
   29.4605  -19.5825   -4.1427 C   0  0  0  0  0  0  0  0  0  0  0  0
   28.5064  -20.3961   -4.9450 C   0  0  0  0  0  0  0  0  0  0  0  0
   28.0952  -19.8427   -6.2587 C   0  0  2  0  0  0  0  0  0  0  0  0
   27.7889  -18.3595   -6.2334 C   0  0  0  0  0  0  0  0  0  0  0  0
   27.1798  -20.6626   -7.0895 C   0  0  2  0  0  0  0  0  0  0  0  0
   27.0609  -19.9704   -8.3953 N   0  0  0  0  0  0  0  0  0  0  0  0
   25.8700  -20.9966   -6.5545 C   0  0  0  0  0  0  0  0  0  0  0  0
   25.6937  -21.8776   -5.6406 O   0  0  0  0  0  0  0  0  0  0  0  0
   24.7041  -20.3897   -6.9846 O   0  0  0  0  0  0  0  0  0  0  0  0
  1  2  1  0
  2  3  1  0
  3  5  1  0
  3  4  1  6
  5  6  1  1
  7  8  2  0
  7  5  1  0
  9  7  1  0
 10 11  1  0
 10  9  1  0
 11 18  1  0
 12 11  2  0
 14 13  1  0
 15 14  1  0
 15 16  1  1
 17 15  1  0
 17 18  1  6
 19 17  1  0
 19 21  1  0
 20 19  2  0
M  END
$$$$
