IGI.pdb
     RDKit          3D

 21 20  0  0  1  0  0  0  0  0999 V2000
   21.3648  -18.2569  -16.7253 C   0  0  0  0  0  0  0  0  0  0  0  0
   22.6831  -17.5578  -16.7435 C   0  0  0  0  0  0  0  0  0  0  0  0
   23.8585  -18.4436  -16.3716 C   0  0  2  0  0  0  0  0  0  0  0  0
   23.5593  -18.9604  -14.9800 C   0  0  0  0  0  0  0  0  0  0  0  0
   25.1669  -17.6622  -16.4132 C   0  0  2  0  0  0  0  0  0  0  0  0
   25.2739  -17.1974  -17.8002 N   0  0  0  0  0  0  0  0  0  0  0  0
   26.2754  -18.6129  -16.1581 C   0  0  0  0  0  0  0  0  0  0  0  0
   26.3452  -19.6540  -16.8966 O   0  0  0  0  0  0  0  0  0  0  0  0
   27.2595  -18.4528  -15.1615 N   0  0  0  0  0  0  0  0  0  0  0  0
   28.2493  -19.4940  -14.9755 C   0  0  0  0  0  0  0  0  0  0  0  0
   27.8030  -20.4498  -13.9120 C   0  0  0  0  0  0  0  0  0  0  0  0
   28.4627  -21.4976  -13.7283 O   0  0  0  0  0  0  0  0  0  0  0  0
   25.8557  -21.0259   -8.3432 C   0  0  0  0  0  0  0  0  0  0  0  0
   25.7402  -21.5784   -9.7206 C   0  0  0  0  0  0  0  0  0  0  0  0
   26.2498  -20.7308  -10.8265 C   0  0  2  0  0  0  0  0  0  0  0  0
   25.9101  -19.2617  -10.6830 C   0  0  0  0  0  0  0  0  0  0  0  0
   26.1483  -21.2709  -12.2043 C   0  0  2  0  0  0  0  0  0  0  0  0
   26.6721  -20.2199  -13.1094 N   0  0  0  0  0  0  0  0  0  0  0  0
   24.8589  -21.7605  -12.6638 C   0  0  0  0  0  0  0  0  0  0  0  0
   24.3758  -22.8930  -12.3083 O   0  0  0  0  0  0  0  0  0  0  0  0
   24.0436  -21.0439  -13.5208 O   0  0  0  0  0  0  0  0  0  0  0  0
  1  2  1  0
  2  3  1  0
  3  5  1  0
  3  4  1  1
  5  6  1  6
  7  8  2  0
  7  5  1  0
  9  7  1  0
 10 11  1  0
 10  9  1  0
 11 18  1  0
 12 11  2  0
 14 13  1  0
 15 14  1  0
 15 16  1  6
 17 15  1  0
 17 18  1  6
 19 17  1  0
 19 21  1  0
 20 19  2  0
M  END
$$$$
