IGI.pdb
     RDKit          3D

 21 20  0  0  1  0  0  0  0  0999 V2000
   24.8239  -20.7036   -8.2488 C   0  0  0  0  0  0  0  0  0  0  0  0
   25.7153  -20.7940   -9.4422 C   0  0  0  0  0  0  0  0  0  0  0  0
   24.9808  -20.7315  -10.7693 C   0  0  2  0  0  0  0  0  0  0  0  0
   23.9889  -21.8755  -10.7443 C   0  0  0  0  0  0  0  0  0  0  0  0
   25.9520  -20.8533  -11.9383 C   0  0  2  0  0  0  0  0  0  0  0  0
   26.8847  -19.7356  -11.7596 N   0  0  0  0  0  0  0  0  0  0  0  0
   25.1915  -20.6245  -13.1900 C   0  0  0  0  0  0  0  0  0  0  0  0
   25.3544  -21.4600  -14.1438 O   0  0  0  0  0  0  0  0  0  0  0  0
   24.3004  -19.5537  -13.4059 N   0  0  0  0  0  0  0  0  0  0  0  0
   23.6804  -19.4048  -14.7067 C   0  0  0  0  0  0  0  0  0  0  0  0
   24.2511  -18.2177  -15.4202 C   0  0  0  0  0  0  0  0  0  0  0  0
   24.2065  -17.0993  -14.8597 O   0  0  0  0  0  0  0  0  0  0  0  0
   28.9809  -18.0114  -16.3251 C   0  0  0  0  0  0  0  0  0  0  0  0
   27.5609  -17.5831  -16.1990 C   0  0  0  0  0  0  0  0  0  0  0  0
   26.8392  -17.2791  -17.4590 C   0  0  2  0  0  0  0  0  0  0  0  0
   27.5585  -16.2952  -18.3585 C   0  0  0  0  0  0  0  0  0  0  0  0
   25.3685  -17.1032  -17.3791 C   0  0  2  0  0  0  0  0  0  0  0  0
   24.8360  -18.3062  -16.6952 N   0  0  0  0  0  0  0  0  0  0  0  0
   24.6352  -16.8318  -18.6046 C   0  0  0  0  0  0  0  0  0  0  0  0
   24.1857  -17.7577  -19.3682 O   0  0  0  0  0  0  0  0  0  0  0  0
   24.3581  -15.5515  -19.0482 O   0  0  0  0  0  0  0  0  0  0  0  0
  1  2  1  0
  2  3  1  0
  3  5  1  0
  3  4  1  1
  5  6  1  1
  7  8  2  0
  7  5  1  0
  9  7  1  0
 10 11  1  0
 10  9  1  0
 11 18  1  0
 12 11  2  0
 14 13  1  0
 15 14  1  0
 15 16  1  1
 17 15  1  0
 17 18  1  6
 19 17  1  0
 19 21  1  0
 20 19  2  0
M  END
$$$$
