IGI.pdb
     RDKit          3D

 21 20  0  0  1  0  0  0  0  0999 V2000
   13.8789  -20.8325   -2.2833 C   0  0  0  0  0  0  0  0  0  0  0  0
   12.9538  -21.9938   -2.4330 C   0  0  0  0  0  0  0  0  0  0  0  0
   13.6503  -23.3009   -2.7660 C   0  0  2  0  0  0  0  0  0  0  0  0
   14.6233  -23.5484   -1.6324 C   0  0  0  0  0  0  0  0  0  0  0  0
   14.3627  -23.2139   -4.1111 C   0  0  2  0  0  0  0  0  0  0  0  0
   13.2857  -23.0089   -5.0853 N   0  0  0  0  0  0  0  0  0  0  0  0
   14.9873  -24.5304   -4.3836 C   0  0  0  0  0  0  0  0  0  0  0  0
   14.2786  -25.5755   -4.1837 O   0  0  0  0  0  0  0  0  0  0  0  0
   16.3053  -24.7151   -4.8484 N   0  0  0  0  0  0  0  0  0  0  0  0
   16.8108  -26.0623   -5.0154 C   0  0  0  0  0  0  0  0  0  0  0  0
   17.6329  -26.4586   -3.8276 C   0  0  0  0  0  0  0  0  0  0  0  0
   18.3880  -25.6070   -3.3065 O   0  0  0  0  0  0  0  0  0  0  0  0
   16.0990  -27.2507    0.7822 C   0  0  0  0  0  0  0  0  0  0  0  0
   16.9495  -27.0757   -0.4268 C   0  0  0  0  0  0  0  0  0  0  0  0
   17.6169  -28.2901   -0.9569 C   0  0  2  0  0  0  0  0  0  0  0  0
   18.1602  -29.2117    0.1153 C   0  0  0  0  0  0  0  0  0  0  0  0
   18.4843  -28.1280   -2.1493 C   0  0  2  0  0  0  0  0  0  0  0  0
   17.5926  -27.7489   -3.2716 N   0  0  0  0  0  0  0  0  0  0  0  0
   19.3583  -29.2271   -2.5253 C   0  0  0  0  0  0  0  0  0  0  0  0
   18.9759  -30.2007   -3.2657 O   0  0  0  0  0  0  0  0  0  0  0  0
   20.6773  -29.3131   -2.1181 O   0  0  0  0  0  0  0  0  0  0  0  0
  1  2  1  0
  2  3  1  0
  3  5  1  0
  3  4  1  1
  5  6  1  6
  7  8  2  0
  7  5  1  0
  9  7  1  0
 10 11  1  0
 10  9  1  0
 11 18  1  0
 12 11  2  0
 14 13  1  0
 15 14  1  0
 15 16  1  1
 17 15  1  0
 17 18  1  6
 19 17  1  0
 19 21  1  0
 20 19  2  0
M  END
$$$$
