FIS.pdb
     RDKit          3D

 26 26  0  0  1  0  0  0  0  0999 V2000
   22.8400  -13.3693  -17.4593 N   0  0  0  0  0  0  0  0  0  0  0  0
   23.2220  -12.3788  -16.4887 C   0  0  1  0  0  0  0  0  0  0  0  0
   24.6569  -11.9575  -16.7188 C   0  0  0  0  0  0  0  0  0  0  0  0
   25.6179  -13.0491  -16.5621 C   0  0  0  0  0  0  0  0  0  0  0  0
   26.2427  -13.5436  -17.7028 C   0  0  0  0  0  0  0  0  0  0  0  0
   27.1589  -14.5645  -17.6687 C   0  0  0  0  0  0  0  0  0  0  0  0
   27.4732  -15.1262  -16.4359 C   0  0  0  0  0  0  0  0  0  0  0  0
   26.8786  -14.6649  -15.2968 C   0  0  0  0  0  0  0  0  0  0  0  0
   25.9497  -13.6233  -15.3692 C   0  0  0  0  0  0  0  0  0  0  0  0
   22.3828  -11.1623  -16.6693 C   0  0  0  0  0  0  0  0  0  0  0  0
   21.5798  -11.0835  -17.6432 O   0  0  0  0  0  0  0  0  0  0  0  0
   17.6507   -8.7115  -15.6247 C   0  0  0  0  0  0  0  0  0  0  0  0
   19.0818   -8.2764  -15.8053 C   0  0  0  0  0  0  0  0  0  0  0  0
   20.0889   -9.3592  -15.7312 C   0  0  2  0  0  0  0  0  0  0  0  0
   19.9171  -10.1656  -14.4463 C   0  0  0  0  0  0  0  0  0  0  0  0
   21.5178   -8.9672  -15.8797 C   0  0  2  0  0  0  0  0  0  0  0  0
   22.4369  -10.0573  -15.7838 N   0  0  0  0  0  0  0  0  0  0  0  0
   21.9004   -7.8319  -14.9895 C   0  0  0  0  0  0  0  0  0  0  0  0
   22.0120   -7.9853  -13.7634 O   0  0  0  0  0  0  0  0  0  0  0  0
   22.6056   -4.0848  -16.6524 O   0  0  0  0  0  0  0  0  0  0  0  0
   23.3535   -4.3771  -15.5157 C   0  0  0  0  0  0  0  0  0  0  0  0
   22.6705   -5.4387  -14.6829 C   0  0  2  0  0  0  0  0  0  0  0  0
   22.1552   -6.5167  -15.5040 N   0  0  0  0  0  0  0  0  0  0  0  0
   21.5421   -4.7771  -13.9844 C   0  0  0  0  0  0  0  0  0  0  0  0
   21.7852   -3.9089  -13.1126 O   0  0  0  0  0  0  0  0  0  0  0  0
   20.2199   -5.0664  -14.2430 O   0  0  0  0  0  0  0  0  0  0  0  0
  2  1  1  6
  3  2  1  0
  4  5  2  0
  4  3  1  0
  6  5  1  0
  7  6  2  0
  8  7  1  0
  8  9  2  0
  9  4  1  0
 10 17  1  0
 10  2  1  0
 11 10  2  0
 13 12  1  0
 14 16  1  0
 14 13  1  0
 14 15  1  1
 16 17  1  1
 18 16  1  0
 19 18  2  0
 21 20  1  0
 22 21  1  6
 22 23  1  0
 23 18  1  0
 24 22  1  0
 25 24  2  0
 26 24  1  0
M  END
$$$$
