FIS.pdb
     RDKit          3D

 26 26  0  0  1  0  0  0  0  0999 V2000
   18.4949   -9.3650  -14.1108 N   0  0  0  0  0  0  0  0  0  0  0  0
   18.8261   -8.6456  -12.9101 C   0  0  1  0  0  0  0  0  0  0  0  0
   20.0372   -7.7710  -13.1502 C   0  0  0  0  0  0  0  0  0  0  0  0
   21.2332   -8.5221  -13.5313 C   0  0  0  0  0  0  0  0  0  0  0  0
   21.7494   -9.4410  -12.6228 C   0  0  0  0  0  0  0  0  0  0  0  0
   22.8654  -10.1971  -12.8788 C   0  0  0  0  0  0  0  0  0  0  0  0
   23.5051  -10.0335  -14.1027 C   0  0  0  0  0  0  0  0  0  0  0  0
   23.0251   -9.1405  -15.0171 C   0  0  0  0  0  0  0  0  0  0  0  0
   21.8856   -8.3870  -14.7224 C   0  0  0  0  0  0  0  0  0  0  0  0
   17.7025   -7.7357  -12.5549 C   0  0  0  0  0  0  0  0  0  0  0  0
   16.8732   -7.3752  -13.4391 O   0  0  0  0  0  0  0  0  0  0  0  0
   14.6793   -8.2320   -7.9449 C   0  0  0  0  0  0  0  0  0  0  0  0
   15.1541   -7.9675   -9.3501 C   0  0  0  0  0  0  0  0  0  0  0  0
   15.8215   -6.6627   -9.5598 C   0  0  2  0  0  0  0  0  0  0  0  0
   14.8893   -5.5152   -9.1788 C   0  0  0  0  0  0  0  0  0  0  0  0
   16.3955   -6.4039  -10.9092 C   0  0  2  0  0  0  0  0  0  0  0  0
   17.5070   -7.2380  -11.2425 N   0  0  0  0  0  0  0  0  0  0  0  0
   16.6885   -4.9595  -11.1446 C   0  0  0  0  0  0  0  0  0  0  0  0
   17.7403   -4.4420  -10.7378 O   0  0  0  0  0  0  0  0  0  0  0  0
   16.2330   -1.1880  -14.0283 O   0  0  0  0  0  0  0  0  0  0  0  0
   15.8586   -2.4838  -13.6855 C   0  0  0  0  0  0  0  0  0  0  0  0
   16.1010   -2.7406  -12.2150 C   0  0  2  0  0  0  0  0  0  0  0  0
   15.7747   -4.1044  -11.8468 N   0  0  0  0  0  0  0  0  0  0  0  0
   15.2221   -1.8107  -11.4656 C   0  0  0  0  0  0  0  0  0  0  0  0
   14.0624   -2.1765  -11.1587 O   0  0  0  0  0  0  0  0  0  0  0  0
   15.6133   -0.5466  -11.0809 O   0  0  0  0  0  0  0  0  0  0  0  0
  2  1  1  6
  3  2  1  0
  4  5  2  0
  4  3  1  0
  6  5  1  0
  7  6  2  0
  8  7  1  0
  8  9  2  0
  9  4  1  0
 10 17  1  0
 10  2  1  0
 11 10  2  0
 13 12  1  0
 14 16  1  0
 14 13  1  0
 14 15  1  6
 16 17  1  1
 18 16  1  0
 19 18  2  0
 21 20  1  0
 22 21  1  6
 22 23  1  0
 23 18  1  0
 24 22  1  0
 25 24  2  0
 26 24  1  0
M  END
$$$$
