FIS.pdb
     RDKit          3D

 26 26  0  0  1  0  0  0  0  0999 V2000
   18.5127  -12.1361  -18.0507 N   0  0  0  0  0  0  0  0  0  0  0  0
   19.4205  -11.0648  -18.3624 C   0  0  1  0  0  0  0  0  0  0  0  0
   18.6998   -9.9892  -19.1454 C   0  0  0  0  0  0  0  0  0  0  0  0
   18.3242  -10.4039  -20.4969 C   0  0  0  0  0  0  0  0  0  0  0  0
   19.2930  -10.3495  -21.4941 C   0  0  0  0  0  0  0  0  0  0  0  0
   19.0474  -10.7148  -22.7938 C   0  0  0  0  0  0  0  0  0  0  0  0
   17.7713  -11.1586  -23.1232 C   0  0  0  0  0  0  0  0  0  0  0  0
   16.7971  -11.2243  -22.1690 C   0  0  0  0  0  0  0  0  0  0  0  0
   17.0829  -10.8441  -20.8549 C   0  0  0  0  0  0  0  0  0  0  0  0
   19.8908  -10.4340  -17.0984 C   0  0  0  0  0  0  0  0  0  0  0  0
   19.1477  -10.4311  -16.0751 O   0  0  0  0  0  0  0  0  0  0  0  0
   24.0751  -12.0353  -14.5759 C   0  0  0  0  0  0  0  0  0  0  0  0
   22.7955  -11.3984  -15.0525 C   0  0  0  0  0  0  0  0  0  0  0  0
   22.8316   -9.9244  -15.1868 C   0  0  2  0  0  0  0  0  0  0  0  0
   23.1973   -9.2725  -13.8556 C   0  0  0  0  0  0  0  0  0  0  0  0
   21.6174   -9.2644  -15.7416 C   0  0  2  0  0  0  0  0  0  0  0  0
   21.1620   -9.8196  -16.9772 N   0  0  0  0  0  0  0  0  0  0  0  0
   21.7477   -7.7790  -15.8091 C   0  0  0  0  0  0  0  0  0  0  0  0
   22.3694   -7.2292  -16.7313 O   0  0  0  0  0  0  0  0  0  0  0  0
   20.0415   -3.4323  -14.6195 O   0  0  0  0  0  0  0  0  0  0  0  0
   19.9151   -4.8180  -14.6433 C   0  0  0  0  0  0  0  0  0  0  0  0
   21.2567   -5.4748  -14.8798 C   0  0  2  0  0  0  0  0  0  0  0  0
   21.1656   -6.9204  -14.8176 N   0  0  0  0  0  0  0  0  0  0  0  0
   22.1637   -4.9977  -13.8082 C   0  0  0  0  0  0  0  0  0  0  0  0
   22.2134   -5.6244  -12.7230 O   0  0  0  0  0  0  0  0  0  0  0  0
   22.9685   -3.8868  -13.9388 O   0  0  0  0  0  0  0  0  0  0  0  0
  2  1  1  1
  3  2  1  0
  4  5  2  0
  4  3  1  0
  6  5  1  0
  7  6  2  0
  8  7  1  0
  8  9  2  0
  9  4  1  0
 10 17  1  0
 10  2  1  0
 11 10  2  0
 13 12  1  0
 14 16  1  0
 14 13  1  0
 14 15  1  1
 16 17  1  6
 18 16  1  0
 19 18  2  0
 21 20  1  0
 22 21  1  1
 22 23  1  0
 23 18  1  0
 24 22  1  0
 25 24  2  0
 26 24  1  0
M  END
$$$$
