FIS.pdb
     RDKit          3D

 26 26  0  0  1  0  0  0  0  0999 V2000
   23.0212   -8.1919  -15.3696 N   0  0  0  0  0  0  0  0  0  0  0  0
   21.8625   -8.2643  -14.5203 C   0  0  1  0  0  0  0  0  0  0  0  0
   21.8758   -7.1197  -13.5309 C   0  0  0  0  0  0  0  0  0  0  0  0
   22.0396   -5.8083  -14.1579 C   0  0  0  0  0  0  0  0  0  0  0  0
   23.3003   -5.4595  -14.6323 C   0  0  0  0  0  0  0  0  0  0  0  0
   23.5636   -4.2558  -15.2363 C   0  0  0  0  0  0  0  0  0  0  0  0
   22.5198   -3.3479  -15.3778 C   0  0  0  0  0  0  0  0  0  0  0  0
   21.2703   -3.6581  -14.9234 C   0  0  0  0  0  0  0  0  0  0  0  0
   21.0385   -4.8937  -14.3131 C   0  0  0  0  0  0  0  0  0  0  0  0
   20.6347   -8.1035  -15.3470 C   0  0  0  0  0  0  0  0  0  0  0  0
   20.7209   -7.6868  -16.5380 O   0  0  0  0  0  0  0  0  0  0  0  0
   18.2738  -11.0678  -17.6644 C   0  0  0  0  0  0  0  0  0  0  0  0
   18.1745  -10.8960  -16.1709 C   0  0  0  0  0  0  0  0  0  0  0  0
   17.4422   -9.6918  -15.7176 C   0  0  2  0  0  0  0  0  0  0  0  0
   16.1496   -9.5186  -16.5114 C   0  0  0  0  0  0  0  0  0  0  0  0
   18.1919   -8.4052  -15.7101 C   0  0  2  0  0  0  0  0  0  0  0  0
   19.3386   -8.4006  -14.8572 N   0  0  0  0  0  0  0  0  0  0  0  0
   17.3105   -7.2248  -15.4701 C   0  0  0  0  0  0  0  0  0  0  0  0
   16.3629   -6.9651  -16.2277 O   0  0  0  0  0  0  0  0  0  0  0  0
   16.3513   -3.2683  -12.7197 O   0  0  0  0  0  0  0  0  0  0  0  0
   17.2206   -4.3177  -13.0023 C   0  0  0  0  0  0  0  0  0  0  0  0
   16.6659   -5.1912  -14.1052 C   0  0  2  0  0  0  0  0  0  0  0  0
   17.5148   -6.3384  -14.3602 N   0  0  0  0  0  0  0  0  0  0  0  0
   16.6014   -4.3525  -15.3263 C   0  0  0  0  0  0  0  0  0  0  0  0
   17.6614   -4.0764  -15.9371 O   0  0  0  0  0  0  0  0  0  0  0  0
   15.4238   -3.8509  -15.8368 O   0  0  0  0  0  0  0  0  0  0  0  0
  2  1  1  6
  3  2  1  0
  4  5  2  0
  4  3  1  0
  6  5  1  0
  7  6  2  0
  8  7  1  0
  8  9  2  0
  9  4  1  0
 10 17  1  0
 10  2  1  0
 11 10  2  0
 13 12  1  0
 14 16  1  0
 14 13  1  0
 14 15  1  6
 16 17  1  1
 18 16  1  0
 19 18  2  0
 21 20  1  0
 22 21  1  1
 22 23  1  0
 23 18  1  0
 24 22  1  0
 25 24  2  0
 26 24  1  0
M  END
$$$$
