FIS.pdb
     RDKit          3D

 26 26  0  0  1  0  0  0  0  0999 V2000
   28.3256  -19.9077  -15.8753 N   0  0  0  0  0  0  0  0  0  0  0  0
   27.4855  -19.1288  -15.0053 C   0  0  1  0  0  0  0  0  0  0  0  0
   26.6636  -18.1534  -15.8192 C   0  0  0  0  0  0  0  0  0  0  0  0
   27.4165  -16.9773  -16.2548 C   0  0  0  0  0  0  0  0  0  0  0  0
   27.5618  -15.9216  -15.3601 C   0  0  0  0  0  0  0  0  0  0  0  0
   28.2477  -14.7732  -15.6661 C   0  0  0  0  0  0  0  0  0  0  0  0
   28.8211  -14.6652  -16.9284 C   0  0  0  0  0  0  0  0  0  0  0  0
   28.6976  -15.6824  -17.8306 C   0  0  0  0  0  0  0  0  0  0  0  0
   27.9918  -16.8379  -17.4846 C   0  0  0  0  0  0  0  0  0  0  0  0
   26.5228  -20.0295  -14.3137 C   0  0  0  0  0  0  0  0  0  0  0  0
   26.2048  -21.1381  -14.8327 O   0  0  0  0  0  0  0  0  0  0  0  0
   26.6089  -20.3843   -8.8606 C   0  0  0  0  0  0  0  0  0  0  0  0
   26.4547  -20.8223  -10.2939 C   0  0  0  0  0  0  0  0  0  0  0  0
   25.1372  -20.5377  -10.9065 C   0  0  2  0  0  0  0  0  0  0  0  0
   24.0577  -21.4289  -10.2972 C   0  0  0  0  0  0  0  0  0  0  0  0
   25.0514  -20.6050  -12.3916 C   0  0  2  0  0  0  0  0  0  0  0  0
   25.9270  -19.7022  -13.0703 N   0  0  0  0  0  0  0  0  0  0  0  0
   23.6491  -20.5093  -12.8938 C   0  0  0  0  0  0  0  0  0  0  0  0
   23.0057  -19.4521  -12.8070 O   0  0  0  0  0  0  0  0  0  0  0  0
   19.9140  -22.7010  -15.2046 O   0  0  0  0  0  0  0  0  0  0  0  0
   21.2458  -22.7629  -14.8055 C   0  0  0  0  0  0  0  0  0  0  0  0
   21.6058  -21.5675  -13.9519 C   0  0  2  0  0  0  0  0  0  0  0  0
   22.9809  -21.6273  -13.4962 N   0  0  0  0  0  0  0  0  0  0  0  0
   20.7022  -21.5910  -12.7764 C   0  0  0  0  0  0  0  0  0  0  0  0
   21.0204  -22.2714  -11.7721 O   0  0  0  0  0  0  0  0  0  0  0  0
   19.5132  -20.8964  -12.7238 O   0  0  0  0  0  0  0  0  0  0  0  0
  2  1  1  6
  3  2  1  0
  4  5  2  0
  4  3  1  0
  6  5  1  0
  7  6  2  0
  8  7  1  0
  8  9  2  0
  9  4  1  0
 10 17  1  0
 10  2  1  0
 11 10  2  0
 13 12  1  0
 14 16  1  0
 14 13  1  0
 14 15  1  1
 16 17  1  6
 18 16  1  0
 19 18  2  0
 21 20  1  0
 22 21  1  6
 22 23  1  0
 23 18  1  0
 24 22  1  0
 25 24  2  0
 26 24  1  0
M  END
$$$$
