FIS.pdb
     RDKit          3D

 26 26  0  0  1  0  0  0  0  0999 V2000
   29.9749  -29.1372  -17.4283 N   0  0  0  0  0  0  0  0  0  0  0  0
   28.5616  -28.9874  -17.6505 C   0  0  1  0  0  0  0  0  0  0  0  0
   27.8166  -30.1529  -17.0375 C   0  0  0  0  0  0  0  0  0  0  0  0
   26.3702  -30.0967  -17.2484 C   0  0  0  0  0  0  0  0  0  0  0  0
   25.5768  -29.5811  -16.2282 C   0  0  0  0  0  0  0  0  0  0  0  0
   24.2113  -29.4831  -16.3218 C   0  0  0  0  0  0  0  0  0  0  0  0
   23.5985  -29.9202  -17.4911 C   0  0  0  0  0  0  0  0  0  0  0  0
   24.3472  -30.4315  -18.5118 C   0  0  0  0  0  0  0  0  0  0  0  0
   25.7360  -30.5163  -18.3817 C   0  0  0  0  0  0  0  0  0  0  0  0
   28.0816  -27.7591  -16.9593 C   0  0  0  0  0  0  0  0  0  0  0  0
   28.4593  -27.5056  -15.7792 O   0  0  0  0  0  0  0  0  0  0  0  0
   27.7194  -21.9005  -17.2447 C   0  0  0  0  0  0  0  0  0  0  0  0
   27.0234  -23.1339  -16.7305 C   0  0  0  0  0  0  0  0  0  0  0  0
   27.3532  -24.3912  -17.4393 C   0  0  2  0  0  0  0  0  0  0  0  0
   27.0177  -24.2746  -18.9242 C   0  0  0  0  0  0  0  0  0  0  0  0
   26.7660  -25.6483  -16.8987 C   0  0  2  0  0  0  0  0  0  0  0  0
   27.1996  -26.8331  -17.5698 N   0  0  0  0  0  0  0  0  0  0  0  0
   25.2797  -25.5855  -16.7770 C   0  0  0  0  0  0  0  0  0  0  0  0
   24.5433  -25.8839  -17.7299 O   0  0  0  0  0  0  0  0  0  0  0  0
   23.3864  -23.9194  -13.3884 O   0  0  0  0  0  0  0  0  0  0  0  0
   22.8058  -25.0616  -13.9316 C   0  0  0  0  0  0  0  0  0  0  0  0
   23.1961  -25.2227  -15.3838 C   0  0  2  0  0  0  0  0  0  0  0  0
   24.6343  -25.1790  -15.5615 N   0  0  0  0  0  0  0  0  0  0  0  0
   22.5800  -24.0941  -16.1222 C   0  0  0  0  0  0  0  0  0  0  0  0
   21.3365  -24.0728  -16.2832 O   0  0  0  0  0  0  0  0  0  0  0  0
   23.3080  -23.0499  -16.6502 O   0  0  0  0  0  0  0  0  0  0  0  0
  2  1  1  1
  3  2  1  0
  4  5  2  0
  4  3  1  0
  6  5  1  0
  7  6  2  0
  8  7  1  0
  8  9  2  0
  9  4  1  0
 10 17  1  0
 10  2  1  0
 11 10  2  0
 13 12  1  0
 14 16  1  0
 14 13  1  0
 14 15  1  6
 16 17  1  6
 18 16  1  0
 19 18  2  0
 21 20  1  0
 22 21  1  1
 22 23  1  0
 23 18  1  0
 24 22  1  0
 25 24  2  0
 26 24  1  0
M  END
$$$$
