PSS.pdb
     RDKit          3D

 20 20  0  0  1  0  0  0  0  0999 V2000
    7.5300  -15.0646   19.3247 N   0  0  0  0  0  0  0  0  0  0  0  0
    6.7394  -14.3921   18.3163 C   0  0  0  0  0  0  0  0  0  0  0  0
    7.3699  -13.0429   18.0848 C   0  0  0  0  0  0  0  0  0  0  0  0
    8.6078  -12.9885   18.9522 C   0  0  0  0  0  0  0  0  0  0  0  0
    8.8372  -14.4413   19.3060 C   0  0  1  0  0  0  0  0  0  0  0  0
    9.3703  -14.4812   20.6931 C   0  0  0  0  0  0  0  0  0  0  0  0
   10.5709  -14.1283   20.9514 O   0  0  0  0  0  0  0  0  0  0  0  0
    7.2348  -16.1541   23.9760 O   0  0  0  0  0  0  0  0  0  0  0  0
    7.9858  -15.0140   24.1713 C   0  0  0  0  0  0  0  0  0  0  0  0
    9.1148  -14.9438   23.1334 C   0  0  2  0  0  0  0  0  0  0  0  0
    8.5896  -14.9074   21.7979 N   0  0  0  0  0  0  0  0  0  0  0  0
    9.8996  -16.1903   23.2986 C   0  0  0  0  0  0  0  0  0  0  0  0
    9.5986  -17.1912   22.6324 O   0  0  0  0  0  0  0  0  0  0  0  0
   13.7541  -16.1881   24.7228 O   0  0  0  0  0  0  0  0  0  0  0  0
   13.2546  -17.2226   23.9623 C   0  0  0  0  0  0  0  0  0  0  0  0
   11.7870  -17.4870   24.2209 C   0  0  2  0  0  0  0  0  0  0  0  0
   10.9970  -16.2947   24.1975 N   0  0  0  0  0  0  0  0  0  0  0  0
   11.6888  -18.1032   25.5769 C   0  0  0  0  0  0  0  0  0  0  0  0
   12.4239  -19.2401   25.9072 O   0  0  0  0  0  0  0  0  0  0  0  0
   10.9503  -17.6258   26.4572 O   0  0  0  0  0  0  0  0  0  0  0  0
  1  2  1  0
  3  2  1  0
  4  3  1  0
  4  5  1  0
  5  1  1  0
  6 11  1  0
  5  6  1  1
  7  6  2  0
  8  9  1  0
 10  9  1  1
 10 11  1  0
 10 12  1  0
 12 17  1  0
 13 12  2  0
 14 15  1  0
 16 18  1  0
 16 15  1  1
 17 16  1  0
 18 19  1  0
 20 18  2  0
M  END
$$$$
