PSS.pdb
     RDKit          3D

 20 20  0  0  1  0  0  0  0  0999 V2000
    7.4015  -15.0622   20.1051 N   0  0  0  0  0  0  0  0  0  0  0  0
    6.4417  -14.3996   19.2483 C   0  0  0  0  0  0  0  0  0  0  0  0
    7.0502  -13.0847   18.8336 C   0  0  0  0  0  0  0  0  0  0  0  0
    8.4400  -13.0434   19.4291 C   0  0  0  0  0  0  0  0  0  0  0  0
    8.6948  -14.4892   19.7941 C   0  0  1  0  0  0  0  0  0  0  0  0
    9.4980  -14.4960   21.0449 C   0  0  0  0  0  0  0  0  0  0  0  0
   10.7158  -14.1093   21.0520 O   0  0  0  0  0  0  0  0  0  0  0  0
    8.0550  -16.1865   24.6006 O   0  0  0  0  0  0  0  0  0  0  0  0
    8.8571  -15.0724   24.7330 C   0  0  0  0  0  0  0  0  0  0  0  0
    9.7491  -14.9163   23.4934 C   0  0  2  0  0  0  0  0  0  0  0  0
    8.9686  -14.9260   22.2886 N   0  0  0  0  0  0  0  0  0  0  0  0
   10.6462  -16.0961   23.4845 C   0  0  0  0  0  0  0  0  0  0  0  0
   10.2650  -17.1460   22.9473 O   0  0  0  0  0  0  0  0  0  0  0  0
   14.6626  -15.8740   24.6151 O   0  0  0  0  0  0  0  0  0  0  0  0
   14.2402  -16.8856   23.7807 C   0  0  0  0  0  0  0  0  0  0  0  0
   12.7805  -17.2362   23.9738 C   0  0  2  0  0  0  0  0  0  0  0  0
   11.9420  -16.0813   24.0712 N   0  0  0  0  0  0  0  0  0  0  0  0
   12.6843  -18.0099   25.2466 C   0  0  0  0  0  0  0  0  0  0  0  0
   13.3652  -19.2145   25.4114 O   0  0  0  0  0  0  0  0  0  0  0  0
   11.9955  -17.6087   26.2021 O   0  0  0  0  0  0  0  0  0  0  0  0
  1  2  1  0
  3  2  1  0
  4  3  1  0
  4  5  1  0
  5  1  1  0
  6 11  1  0
  5  6  1  1
  7  6  2  0
  8  9  1  0
 10  9  1  1
 10 11  1  0
 10 12  1  0
 12 17  1  0
 13 12  2  0
 14 15  1  0
 16 18  1  0
 16 15  1  1
 17 16  1  0
 18 19  1  0
 20 18  2  0
M  END
$$$$
