PSS.pdb
     RDKit          3D

 20 20  0  0  1  0  0  0  0  0999 V2000
    8.1611  -13.2455   17.5460 N   0  0  0  0  0  0  0  0  0  0  0  0
    7.9359  -13.8175   16.2359 C   0  0  0  0  0  0  0  0  0  0  0  0
    7.6851  -15.2906   16.4318 C   0  0  0  0  0  0  0  0  0  0  0  0
    7.7020  -15.5384   17.9238 C   0  0  0  0  0  0  0  0  0  0  0  0
    7.5492  -14.1478   18.4995 C   0  0  1  0  0  0  0  0  0  0  0  0
    8.3562  -14.0930   19.7467 C   0  0  0  0  0  0  0  0  0  0  0  0
    9.5779  -13.7191   19.7290 O   0  0  0  0  0  0  0  0  0  0  0  0
    6.6874  -15.0760   23.4507 O   0  0  0  0  0  0  0  0  0  0  0  0
    7.6988  -14.1384   23.4423 C   0  0  0  0  0  0  0  0  0  0  0  0
    8.6012  -14.3494   22.2183 C   0  0  2  0  0  0  0  0  0  0  0  0
    7.8263  -14.4473   21.0138 N   0  0  0  0  0  0  0  0  0  0  0  0
    9.2950  -15.6402   22.4399 C   0  0  0  0  0  0  0  0  0  0  0  0
    8.8185  -16.6776   21.9570 O   0  0  0  0  0  0  0  0  0  0  0  0
   13.2685  -15.8879   23.6509 O   0  0  0  0  0  0  0  0  0  0  0  0
   12.6441  -16.9154   22.9782 C   0  0  0  0  0  0  0  0  0  0  0  0
   11.1658  -17.0089   23.2891 C   0  0  2  0  0  0  0  0  0  0  0  0
   10.4984  -15.7475   23.1907 N   0  0  0  0  0  0  0  0  0  0  0  0
   11.0474  -17.5083   24.6907 C   0  0  0  0  0  0  0  0  0  0  0  0
   10.3383  -16.7929   25.6536 O   0  0  0  0  0  0  0  0  0  0  0  0
   11.5754  -18.5769   25.0481 O   0  0  0  0  0  0  0  0  0  0  0  0
  1  2  1  0
  3  2  1  0
  4  3  1  0
  4  5  1  0
  5  1  1  0
  6 11  1  0
  5  6  1  1
  7  6  2  0
  8  9  1  0
 10  9  1  1
 10 11  1  0
 10 12  1  0
 12 17  1  0
 13 12  2  0
 14 15  1  0
 16 18  1  0
 16 15  1  1
 17 16  1  0
 18 19  1  0
 20 18  2  0
M  END
$$$$
