PSS.pdb
     RDKit          3D

 20 20  0  0  1  0  0  0  0  0999 V2000
    7.8051  -15.2613   19.7757 N   0  0  0  0  0  0  0  0  0  0  0  0
    7.6723  -14.5542   18.5200 C   0  0  0  0  0  0  0  0  0  0  0  0
    7.6907  -13.0808   18.8361 C   0  0  0  0  0  0  0  0  0  0  0  0
    7.9139  -12.9603   20.3273 C   0  0  0  0  0  0  0  0  0  0  0  0
    8.4171  -14.3356   20.7063 C   0  0  1  0  0  0  0  0  0  0  0  0
    7.8845  -14.6456   22.0591 C   0  0  0  0  0  0  0  0  0  0  0  0
    6.7036  -14.2978   22.4015 O   0  0  0  0  0  0  0  0  0  0  0  0
    8.5316  -17.8683   24.2673 O   0  0  0  0  0  0  0  0  0  0  0  0
    7.5921  -16.9125   24.5928 C   0  0  0  0  0  0  0  0  0  0  0  0
    8.1764  -15.5083   24.3839 C   0  0  2  0  0  0  0  0  0  0  0  0
    8.6441  -15.3365   23.0376 N   0  0  0  0  0  0  0  0  0  0  0  0
    9.3349  -15.4071   25.3029 C   0  0  0  0  0  0  0  0  0  0  0  0
   10.4594  -15.7417   24.9031 O   0  0  0  0  0  0  0  0  0  0  0  0
    9.0468  -13.5922   29.0333 O   0  0  0  0  0  0  0  0  0  0  0  0
   10.3000  -13.7269   28.4772 C   0  0  0  0  0  0  0  0  0  0  0  0
   10.3785  -14.8548   27.4709 C   0  0  2  0  0  0  0  0  0  0  0  0
    9.2167  -14.9379   26.6405 N   0  0  0  0  0  0  0  0  0  0  0  0
   10.5064  -16.1225   28.2483 C   0  0  0  0  0  0  0  0  0  0  0  0
   11.5918  -16.3435   29.0939 O   0  0  0  0  0  0  0  0  0  0  0  0
    9.6520  -17.0237   28.1697 O   0  0  0  0  0  0  0  0  0  0  0  0
  1  2  1  0
  3  2  1  0
  4  3  1  0
  4  5  1  0
  5  1  1  0
  6 11  1  0
  5  6  1  1
  7  6  2  0
  8  9  1  0
 10  9  1  6
 10 11  1  0
 10 12  1  0
 12 17  1  0
 13 12  2  0
 14 15  1  0
 16 18  1  0
 16 15  1  1
 17 16  1  0
 18 19  1  0
 20 18  2  0
M  END
$$$$
