PSS.pdb
     RDKit          3D

 20 20  0  0  1  0  0  0  0  0999 V2000
    7.1837  -14.9026   19.8640 N   0  0  0  0  0  0  0  0  0  0  0  0
    6.4580  -14.0938   18.9082 C   0  0  0  0  0  0  0  0  0  0  0  0
    7.3403  -12.9238   18.5562 C   0  0  0  0  0  0  0  0  0  0  0  0
    8.6442  -13.1264   19.2956 C   0  0  0  0  0  0  0  0  0  0  0  0
    8.5861  -14.5857   19.6901 C   0  0  1  0  0  0  0  0  0  0  0  0
    9.2401  -14.7123   21.0191 C   0  0  0  0  0  0  0  0  0  0  0  0
   10.5078  -14.6140   21.1453 O   0  0  0  0  0  0  0  0  0  0  0  0
    7.0145  -15.3704   24.5235 O   0  0  0  0  0  0  0  0  0  0  0  0
    8.1514  -14.5945   24.6101 C   0  0  0  0  0  0  0  0  0  0  0  0
    9.1379  -14.9814   23.4993 C   0  0  2  0  0  0  0  0  0  0  0  0
    8.5068  -14.9465   22.2104 N   0  0  0  0  0  0  0  0  0  0  0  0
    9.5495  -16.3761   23.7861 C   0  0  0  0  0  0  0  0  0  0  0  0
    8.8571  -17.3135   23.3641 O   0  0  0  0  0  0  0  0  0  0  0  0
   12.5504  -17.9659   22.8033 O   0  0  0  0  0  0  0  0  0  0  0  0
   12.4370  -18.3911   24.1088 C   0  0  0  0  0  0  0  0  0  0  0  0
   11.0914  -18.0632   24.7192 C   0  0  2  0  0  0  0  0  0  0  0  0
   10.7174  -16.6951   24.5328 N   0  0  0  0  0  0  0  0  0  0  0  0
   11.1995  -18.3379   26.1823 C   0  0  0  0  0  0  0  0  0  0  0  0
   11.5613  -19.5980   26.6546 O   0  0  0  0  0  0  0  0  0  0  0  0
   10.9715  -17.4552   27.0292 O   0  0  0  0  0  0  0  0  0  0  0  0
  1  2  1  0
  3  2  1  0
  4  3  1  0
  4  5  1  0
  5  1  1  0
  6 11  1  0
  5  6  1  1
  7  6  2  0
  8  9  1  0
 10  9  1  1
 10 11  1  0
 10 12  1  0
 12 17  1  0
 13 12  2  0
 14 15  1  0
 16 18  1  0
 16 15  1  6
 17 16  1  0
 18 19  1  0
 20 18  2  0
M  END
$$$$
