PSS.pdb
     RDKit          3D

 20 20  0  0  1  0  0  0  0  0999 V2000
    8.5990  -17.0384   18.8432 N   0  0  0  0  0  0  0  0  0  0  0  0
    8.4039  -18.0148   17.7930 C   0  0  0  0  0  0  0  0  0  0  0  0
    7.9729  -19.2984   18.4548 C   0  0  0  0  0  0  0  0  0  0  0  0
    7.8547  -19.0049   19.9339 C   0  0  0  0  0  0  0  0  0  0  0  0
    7.8214  -17.4932   19.9773 C   0  0  1  0  0  0  0  0  0  0  0  0
    8.5382  -17.0688   21.2085 C   0  0  0  0  0  0  0  0  0  0  0  0
    9.7855  -16.7925   21.1866 O   0  0  0  0  0  0  0  0  0  0  0  0
    6.5113  -16.7317   24.8054 O   0  0  0  0  0  0  0  0  0  0  0  0
    7.6504  -15.9619   24.6962 C   0  0  0  0  0  0  0  0  0  0  0  0
    8.5993  -16.5716   23.6547 C   0  0  2  0  0  0  0  0  0  0  0  0
    7.8900  -16.9468   22.4642 N   0  0  0  0  0  0  0  0  0  0  0  0
    9.1575  -17.7952   24.2774 C   0  0  0  0  0  0  0  0  0  0  0  0
    8.6177  -18.8894   24.0589 O   0  0  0  0  0  0  0  0  0  0  0  0
   12.9003  -20.2900   25.7395 O   0  0  0  0  0  0  0  0  0  0  0  0
   12.3494  -19.1087   25.2933 C   0  0  0  0  0  0  0  0  0  0  0  0
   10.8678  -19.0040   25.5843 C   0  0  2  0  0  0  0  0  0  0  0  0
   10.2990  -17.7741   25.1258 N   0  0  0  0  0  0  0  0  0  0  0  0
   10.7094  -19.0848   27.0663 C   0  0  0  0  0  0  0  0  0  0  0  0
   11.0221  -20.2508   27.7624 O   0  0  0  0  0  0  0  0  0  0  0  0
   10.2943  -18.1179   27.7305 O   0  0  0  0  0  0  0  0  0  0  0  0
  1  2  1  0
  3  2  1  0
  4  3  1  0
  4  5  1  0
  5  1  1  0
  6 11  1  0
  5  6  1  1
  7  6  2  0
  8  9  1  0
 10  9  1  1
 10 11  1  0
 10 12  1  0
 12 17  1  0
 13 12  2  0
 14 15  1  0
 16 18  1  0
 16 15  1  1
 17 16  1  0
 18 19  1  0
 20 18  2  0
M  END
$$$$
