PSS.pdb
     RDKit          3D

 20 20  0  0  1  0  0  0  0  0999 V2000
    7.3883  -15.0027   19.3787 N   0  0  0  0  0  0  0  0  0  0  0  0
    6.6526  -14.3236   18.3338 C   0  0  0  0  0  0  0  0  0  0  0  0
    7.4023  -13.0557   18.0151 C   0  0  0  0  0  0  0  0  0  0  0  0
    8.6491  -13.0625   18.8714 C   0  0  0  0  0  0  0  0  0  0  0  0
    8.7472  -14.5056   19.3146 C   0  0  1  0  0  0  0  0  0  0  0  0
    9.2890  -14.5086   20.6989 C   0  0  0  0  0  0  0  0  0  0  0  0
   10.5204  -14.2567   20.9285 O   0  0  0  0  0  0  0  0  0  0  0  0
    6.9823  -15.6478   24.0926 O   0  0  0  0  0  0  0  0  0  0  0  0
    7.9248  -14.6484   24.2152 C   0  0  0  0  0  0  0  0  0  0  0  0
    9.0255  -14.8314   23.1608 C   0  0  2  0  0  0  0  0  0  0  0  0
    8.4831  -14.7874   21.8324 N   0  0  0  0  0  0  0  0  0  0  0  0
    9.5946  -16.1799   23.3942 C   0  0  0  0  0  0  0  0  0  0  0  0
    9.0786  -17.1619   22.8412 O   0  0  0  0  0  0  0  0  0  0  0  0
   13.5000  -16.8856   24.2143 O   0  0  0  0  0  0  0  0  0  0  0  0
   12.6351  -17.8718   23.7931 C   0  0  0  0  0  0  0  0  0  0  0  0
   11.2474  -17.7266   24.3794 C   0  0  2  0  0  0  0  0  0  0  0  0
   10.7204  -16.4047   24.2341 N   0  0  0  0  0  0  0  0  0  0  0  0
   11.3547  -18.0450   25.8337 C   0  0  0  0  0  0  0  0  0  0  0  0
   10.9055  -17.1501   26.8029 O   0  0  0  0  0  0  0  0  0  0  0  0
   11.8471  -19.1164   26.2311 O   0  0  0  0  0  0  0  0  0  0  0  0
  1  2  1  0
  3  2  1  0
  4  3  1  0
  4  5  1  0
  5  1  1  0
  6 11  1  0
  5  6  1  1
  7  6  2  0
  8  9  1  0
 10  9  1  1
 10 11  1  0
 10 12  1  0
 12 17  1  0
 13 12  2  0
 14 15  1  0
 16 18  1  0
 16 15  1  1
 17 16  1  0
 18 19  1  0
 20 18  2  0
M  END
$$$$
