PSS.pdb
     RDKit          3D

 20 20  0  0  1  0  0  0  0  0999 V2000
    8.3941  -14.9747   19.1129 N   0  0  0  0  0  0  0  0  0  0  0  0
    8.0732  -14.4509   17.8026 C   0  0  0  0  0  0  0  0  0  0  0  0
    7.4824  -13.0794   18.0052 C   0  0  0  0  0  0  0  0  0  0  0  0
    7.5408  -12.7974   19.4901 C   0  0  0  0  0  0  0  0  0  0  0  0
    8.5243  -13.8314   19.9923 C   0  0  1  0  0  0  0  0  0  0  0  0
    8.0718  -14.2543   21.3437 C   0  0  0  0  0  0  0  0  0  0  0  0
    8.0927  -13.4451   22.3324 O   0  0  0  0  0  0  0  0  0  0  0  0
    6.9546  -18.2575   22.3059 O   0  0  0  0  0  0  0  0  0  0  0  0
    6.2492  -17.2011   22.8429 C   0  0  0  0  0  0  0  0  0  0  0  0
    7.1437  -15.9557   22.9181 C   0  0  2  0  0  0  0  0  0  0  0  0
    7.5964  -15.5631   21.6135 N   0  0  0  0  0  0  0  0  0  0  0  0
    8.3212  -16.3468   23.7288 C   0  0  0  0  0  0  0  0  0  0  0  0
    9.3852  -16.6292   23.1591 O   0  0  0  0  0  0  0  0  0  0  0  0
   10.5762  -16.6920   28.0061 O   0  0  0  0  0  0  0  0  0  0  0  0
    9.4614  -16.2968   27.2996 C   0  0  0  0  0  0  0  0  0  0  0  0
    9.4635  -16.7960   25.8707 C   0  0  2  0  0  0  0  0  0  0  0  0
    8.2886  -16.4147   25.1493 N   0  0  0  0  0  0  0  0  0  0  0  0
    9.5292  -18.2859   25.9311 C   0  0  0  0  0  0  0  0  0  0  0  0
    8.4380  -19.0713   25.5644 O   0  0  0  0  0  0  0  0  0  0  0  0
   10.5564  -18.8777   26.3094 O   0  0  0  0  0  0  0  0  0  0  0  0
  1  2  1  0
  3  2  1  0
  4  3  1  0
  4  5  1  0
  5  1  1  0
  6 11  1  0
  5  6  1  1
  7  6  2  0
  8  9  1  0
 10  9  1  6
 10 11  1  0
 10 12  1  0
 12 17  1  0
 13 12  2  0
 14 15  1  0
 16 18  1  0
 16 15  1  1
 17 16  1  0
 18 19  1  0
 20 18  2  0
M  END
$$$$
