PSS.pdb
     RDKit          3D

 20 20  0  0  1  0  0  0  0  0999 V2000
    8.2018  -13.3645   21.0437 N   0  0  0  0  0  0  0  0  0  0  0  0
    8.1936  -12.4770   19.9007 C   0  0  0  0  0  0  0  0  0  0  0  0
    7.9610  -13.3285   18.6791 C   0  0  0  0  0  0  0  0  0  0  0  0
    7.7609  -14.7451   19.1700 C   0  0  0  0  0  0  0  0  0  0  0  0
    7.4812  -14.5558   20.6447 C   0  0  1  0  0  0  0  0  0  0  0  0
    8.0895  -15.7065   21.3628 C   0  0  0  0  0  0  0  0  0  0  0  0
    7.6997  -16.9037   21.1451 O   0  0  0  0  0  0  0  0  0  0  0  0
   11.6834  -15.6728   23.9059 O   0  0  0  0  0  0  0  0  0  0  0  0
   11.2373  -16.5973   22.9849 C   0  0  0  0  0  0  0  0  0  0  0  0
    9.7038  -16.6654   23.0087 C   0  0  2  0  0  0  0  0  0  0  0  0
    9.1245  -15.5473   22.3194 N   0  0  0  0  0  0  0  0  0  0  0  0
    9.3139  -16.5934   24.4368 C   0  0  0  0  0  0  0  0  0  0  0  0
    9.2600  -15.4894   24.9977 O   0  0  0  0  0  0  0  0  0  0  0  0
    7.0118  -19.3519   26.3709 O   0  0  0  0  0  0  0  0  0  0  0  0
    7.2713  -18.1119   26.9122 C   0  0  0  0  0  0  0  0  0  0  0  0
    8.6621  -17.6092   26.5904 C   0  0  2  0  0  0  0  0  0  0  0  0
    8.9939  -17.7466   25.2057 N   0  0  0  0  0  0  0  0  0  0  0  0
    9.6165  -18.4251   27.3975 C   0  0  0  0  0  0  0  0  0  0  0  0
    9.5482  -18.4475   28.7892 O   0  0  0  0  0  0  0  0  0  0  0  0
   10.5035  -19.1117   26.8589 O   0  0  0  0  0  0  0  0  0  0  0  0
  1  2  1  0
  3  2  1  0
  4  3  1  0
  4  5  1  0
  5  1  1  0
  6 11  1  0
  5  6  1  1
  7  6  2  0
  8  9  1  0
 10  9  1  1
 10 11  1  0
 10 12  1  0
 12 17  1  0
 13 12  2  0
 14 15  1  0
 16 18  1  0
 16 15  1  6
 17 16  1  0
 18 19  1  0
 20 18  2  0
M  END
$$$$
