IVE.pdb
     RDKit          3D

 25 24  0  0  1  0  0  0  0  0999 V2000
    5.7280  -10.9512   26.2183 C   0  0  0  0  0  0  0  0  0  0  0  0
    6.2904  -11.9236   27.2165 C   0  0  0  0  0  0  0  0  0  0  0  0
    7.2040  -12.9444   26.5333 C   0  0  2  0  0  0  0  0  0  0  0  0
    8.1460  -12.1523   25.6605 C   0  0  0  0  0  0  0  0  0  0  0  0
    6.3535  -13.8520   25.6496 C   0  0  2  0  0  0  0  0  0  0  0  0
    5.5266  -14.6304   26.5483 N   0  0  0  0  0  0  0  0  0  0  0  0
    7.1958  -14.7685   24.8504 C   0  0  0  0  0  0  0  0  0  0  0  0
    7.6569  -15.7884   25.4136 O   0  0  0  0  0  0  0  0  0  0  0  0
    6.9670  -14.6730   20.7091 C   0  0  0  0  0  0  0  0  0  0  0  0
    8.3323  -14.8966   21.2630 C   0  0  2  0  0  0  0  0  0  0  0  0
    9.0164  -15.9475   20.4085 C   0  0  0  0  0  0  0  0  0  0  0  0
    8.3171  -15.4225   22.6836 C   0  0  2  0  0  0  0  0  0  0  0  0
    7.5108  -14.5626   23.4914 N   0  0  0  0  0  0  0  0  0  0  0  0
    9.6511  -15.6864   23.2144 C   0  0  0  0  0  0  0  0  0  0  0  0
   10.4061  -14.7285   23.5133 O   0  0  0  0  0  0  0  0  0  0  0  0
   10.1685  -16.9917   23.4218 N   0  0  0  0  0  0  0  0  0  0  0  0
   11.4792  -17.2118   24.0594 C   0  0  1  0  0  0  0  0  0  0  0  0
   11.3437  -18.4626   24.8590 C   0  0  0  0  0  0  0  0  0  0  0  0
   12.5922  -18.9220   25.5473 C   0  0  0  0  0  0  0  0  0  0  0  0
   12.2982  -20.1558   26.3012 C   0  0  0  0  0  0  0  0  0  0  0  0
   11.4441  -20.1414   27.2076 O   0  0  0  0  0  0  0  0  0  0  0  0
   12.5210  -17.3092   23.0315 C   0  0  0  0  0  0  0  0  0  0  0  0
   12.2539  -17.7732   21.7599 O   0  0  0  0  0  0  0  0  0  0  0  0
   12.9613  -21.3279   26.0116 O   0  0  0  0  0  0  0  0  0  0  0  0
   13.7349  -16.9735   23.2459 O   0  0  0  0  0  0  0  0  0  0  0  0
  1  2  1  0
  2  3  1  0
  3  5  1  0
  3  4  1  6
  5  6  1  1
  7  5  1  0
  7  8  2  0
 10  9  1  6
 10 12  1  0
 11 10  1  0
 12 13  1  1
 13  7  1  0
 14 12  1  0
 15 14  2  0
 16 14  1  0
 17 18  1  6
 17 16  1  0
 18 19  1  0
 20 21  2  0
 20 19  1  0
 22 17  1  0
 23 22  1  0
 24 20  1  0
 25 22  2  0
M  END
$$$$
