IVE.pdb
     RDKit          3D

 25 24  0  0  1  0  0  0  0  0999 V2000
    6.4461  -17.7551   19.4778 C   0  0  0  0  0  0  0  0  0  0  0  0
    6.6047  -16.2901   19.7729 C   0  0  0  0  0  0  0  0  0  0  0  0
    7.2747  -16.0736   21.1322 C   0  0  2  0  0  0  0  0  0  0  0  0
    6.4568  -16.8484   22.1358 C   0  0  0  0  0  0  0  0  0  0  0  0
    7.2120  -14.5895   21.4808 C   0  0  2  0  0  0  0  0  0  0  0  0
    7.8884  -13.8936   20.4059 N   0  0  0  0  0  0  0  0  0  0  0  0
    7.9080  -14.3057   22.7549 C   0  0  0  0  0  0  0  0  0  0  0  0
    9.1600  -14.3551   22.7672 O   0  0  0  0  0  0  0  0  0  0  0  0
    6.6838  -11.6149   25.5052 C   0  0  0  0  0  0  0  0  0  0  0  0
    6.9788  -12.9473   26.1041 C   0  0  2  0  0  0  0  0  0  0  0  0
    7.7219  -12.7192   27.4072 C   0  0  0  0  0  0  0  0  0  0  0  0
    7.8701  -13.8060   25.2306 C   0  0  2  0  0  0  0  0  0  0  0  0
    7.2459  -13.9827   23.9573 N   0  0  0  0  0  0  0  0  0  0  0  0
    8.2947  -15.0423   25.8802 C   0  0  0  0  0  0  0  0  0  0  0  0
    7.4365  -15.8814   26.2497 O   0  0  0  0  0  0  0  0  0  0  0  0
    9.6527  -15.3704   26.1303 N   0  0  0  0  0  0  0  0  0  0  0  0
   10.0376  -16.6526   26.7474 C   0  0  1  0  0  0  0  0  0  0  0  0
   11.3340  -17.0387   26.1209 C   0  0  0  0  0  0  0  0  0  0  0  0
   11.2910  -17.2549   24.6394 C   0  0  0  0  0  0  0  0  0  0  0  0
   12.6580  -17.5240   24.1538 C   0  0  0  0  0  0  0  0  0  0  0  0
   13.0873  -18.6929   24.1225 O   0  0  0  0  0  0  0  0  0  0  0  0
   10.1391  -16.4928   28.2019 C   0  0  0  0  0  0  0  0  0  0  0  0
   10.1606  -17.5749   29.0576 O   0  0  0  0  0  0  0  0  0  0  0  0
   13.4674  -16.4919   23.7332 O   0  0  0  0  0  0  0  0  0  0  0  0
   10.2130  -15.3492   28.7665 O   0  0  0  0  0  0  0  0  0  0  0  0
  1  2  1  0
  2  3  1  0
  3  5  1  0
  3  4  1  1
  5  6  1  6
  7  5  1  0
  7  8  2  0
 10  9  1  6
 10 12  1  0
 11 10  1  0
 12 13  1  6
 13  7  1  0
 14 12  1  0
 15 14  2  0
 16 14  1  0
 17 18  1  6
 17 16  1  0
 18 19  1  0
 20 21  2  0
 20 19  1  0
 22 17  1  0
 23 22  1  0
 24 20  1  0
 25 22  2  0
M  END
$$$$
