IVE.pdb
     RDKit          3D

 25 24  0  0  1  0  0  0  0  0999 V2000
    6.8625  -11.7650   27.9850 C   0  0  0  0  0  0  0  0  0  0  0  0
    6.0770  -12.6952   27.1040 C   0  0  0  0  0  0  0  0  0  0  0  0
    7.0086  -13.5717   26.2630 C   0  0  2  0  0  0  0  0  0  0  0  0
    7.8824  -12.6268   25.4754 C   0  0  0  0  0  0  0  0  0  0  0  0
    6.1666  -14.3944   25.2923 C   0  0  2  0  0  0  0  0  0  0  0  0
    5.2988  -15.2177   26.1087 N   0  0  0  0  0  0  0  0  0  0  0  0
    7.0137  -15.2688   24.4520 C   0  0  0  0  0  0  0  0  0  0  0  0
    7.4153  -16.3496   24.9426 O   0  0  0  0  0  0  0  0  0  0  0  0
    6.8675  -15.1841   20.3474 C   0  0  0  0  0  0  0  0  0  0  0  0
    8.2502  -15.2033   20.9031 C   0  0  2  0  0  0  0  0  0  0  0  0
    9.0791  -16.1540   20.0595 C   0  0  0  0  0  0  0  0  0  0  0  0
    8.3093  -15.7106   22.3292 C   0  0  2  0  0  0  0  0  0  0  0  0
    7.3966  -14.9580   23.1309 N   0  0  0  0  0  0  0  0  0  0  0  0
    9.6679  -15.7868   22.8576 C   0  0  0  0  0  0  0  0  0  0  0  0
   10.3213  -14.7331   23.0576 O   0  0  0  0  0  0  0  0  0  0  0  0
   10.3205  -17.0078   23.1702 N   0  0  0  0  0  0  0  0  0  0  0  0
   11.6968  -17.0364   23.6974 C   0  0  1  0  0  0  0  0  0  0  0  0
   11.7124  -18.0900   24.7519 C   0  0  0  0  0  0  0  0  0  0  0  0
   13.0725  -18.5153   25.2131 C   0  0  0  0  0  0  0  0  0  0  0  0
   12.9240  -19.5397   26.2646 C   0  0  0  0  0  0  0  0  0  0  0  0
   13.9345  -20.0118   26.8190 O   0  0  0  0  0  0  0  0  0  0  0  0
   12.6396  -17.3136   22.6086 C   0  0  0  0  0  0  0  0  0  0  0  0
   13.9315  -16.8293   22.6177 O   0  0  0  0  0  0  0  0  0  0  0  0
   11.6746  -19.9809   26.6407 O   0  0  0  0  0  0  0  0  0  0  0  0
   12.3275  -18.0160   21.5882 O   0  0  0  0  0  0  0  0  0  0  0  0
  1  2  1  0
  2  3  1  0
  3  5  1  0
  3  4  1  6
  5  6  1  1
  7  5  1  0
  7  8  2  0
 10  9  1  6
 10 12  1  0
 11 10  1  0
 12 13  1  1
 13  7  1  0
 14 12  1  0
 15 14  2  0
 16 14  1  0
 17 18  1  1
 17 16  1  0
 18 19  1  0
 20 21  2  0
 20 19  1  0
 22 17  1  0
 23 22  1  0
 24 20  1  0
 25 22  2  0
M  END
$$$$
