IVE.pdb
     RDKit          3D

 25 24  0  0  1  0  0  0  0  0999 V2000
    7.5857  -12.1692   28.2452 C   0  0  0  0  0  0  0  0  0  0  0  0
    6.6299  -12.6553   27.1922 C   0  0  0  0  0  0  0  0  0  0  0  0
    7.3094  -13.6568   26.2548 C   0  0  2  0  0  0  0  0  0  0  0  0
    8.4877  -12.9363   25.6474 C   0  0  0  0  0  0  0  0  0  0  0  0
    6.3321  -14.0332   25.1451 C   0  0  2  0  0  0  0  0  0  0  0  0
    5.2015  -14.6594   25.7985 N   0  0  0  0  0  0  0  0  0  0  0  0
    6.9373  -14.9945   24.1977 C   0  0  0  0  0  0  0  0  0  0  0  0
    7.0325  -16.1924   24.5526 O   0  0  0  0  0  0  0  0  0  0  0  0
    9.5668  -13.9204   20.9325 C   0  0  0  0  0  0  0  0  0  0  0  0
    8.3608  -14.7692   20.7181 C   0  0  2  0  0  0  0  0  0  0  0  0
    7.2015  -13.8537   20.3708 C   0  0  0  0  0  0  0  0  0  0  0  0
    7.9558  -15.5471   21.9533 C   0  0  2  0  0  0  0  0  0  0  0  0
    7.4138  -14.6428   22.9180 N   0  0  0  0  0  0  0  0  0  0  0  0
    9.0132  -16.4178   22.4579 C   0  0  0  0  0  0  0  0  0  0  0  0
    9.3786  -17.4129   21.7846 O   0  0  0  0  0  0  0  0  0  0  0  0
    9.6764  -16.2099   23.6954 N   0  0  0  0  0  0  0  0  0  0  0  0
   10.7761  -17.0851   24.1401 C   0  0  1  0  0  0  0  0  0  0  0  0
   11.8536  -16.9440   23.1195 C   0  0  0  0  0  0  0  0  0  0  0  0
   12.7798  -15.7843   23.3213 C   0  0  0  0  0  0  0  0  0  0  0  0
   14.0640  -16.0745   22.6552 C   0  0  0  0  0  0  0  0  0  0  0  0
   14.7649  -17.0274   23.0455 O   0  0  0  0  0  0  0  0  0  0  0  0
   11.2146  -16.6880   25.4823 C   0  0  0  0  0  0  0  0  0  0  0  0
   12.1606  -17.4051   26.1854 O   0  0  0  0  0  0  0  0  0  0  0  0
   14.4974  -15.2994   21.6022 O   0  0  0  0  0  0  0  0  0  0  0  0
   10.7517  -15.6600   26.0830 O   0  0  0  0  0  0  0  0  0  0  0  0
  1  2  1  0
  2  3  1  0
  3  5  1  0
  3  4  1  6
  5  6  1  1
  7  5  1  0
  7  8  2  0
 10  9  1  1
 10 12  1  0
 11 10  1  0
 12 13  1  1
 13  7  1  0
 14 12  1  0
 15 14  2  0
 16 14  1  0
 17 18  1  6
 17 16  1  0
 18 19  1  0
 20 21  2  0
 20 19  1  0
 22 17  1  0
 23 22  1  0
 24 20  1  0
 25 22  2  0
M  END
$$$$
