IVE.pdb
     RDKit          3D

 25 24  0  0  1  0  0  0  0  0999 V2000
    6.9053  -11.8981   28.1802 C   0  0  0  0  0  0  0  0  0  0  0  0
    6.1368  -12.8547   27.3126 C   0  0  0  0  0  0  0  0  0  0  0  0
    7.0792  -13.6550   26.4099 C   0  0  2  0  0  0  0  0  0  0  0  0
    7.8618  -12.6423   25.6108 C   0  0  0  0  0  0  0  0  0  0  0  0
    6.2440  -14.5025   25.4547 C   0  0  2  0  0  0  0  0  0  0  0  0
    5.4985  -15.4275   26.2829 N   0  0  0  0  0  0  0  0  0  0  0  0
    7.1015  -15.2685   24.5241 C   0  0  0  0  0  0  0  0  0  0  0  0
    7.5986  -16.3447   24.9300 O   0  0  0  0  0  0  0  0  0  0  0  0
    6.7467  -14.8232   20.4761 C   0  0  0  0  0  0  0  0  0  0  0  0
    8.1624  -14.8996   20.9353 C   0  0  2  0  0  0  0  0  0  0  0  0
    8.9164  -15.8012   19.9756 C   0  0  0  0  0  0  0  0  0  0  0  0
    8.3061  -15.5048   22.3166 C   0  0  2  0  0  0  0  0  0  0  0  0
    7.3931  -14.8593   23.2066 N   0  0  0  0  0  0  0  0  0  0  0  0
    9.6879  -15.5496   22.7849 C   0  0  0  0  0  0  0  0  0  0  0  0
   10.0263  -14.8912   23.7993 O   0  0  0  0  0  0  0  0  0  0  0  0
   10.7059  -16.3099   22.1524 N   0  0  0  0  0  0  0  0  0  0  0  0
   11.8852  -16.7917   22.8942 C   0  0  1  0  0  0  0  0  0  0  0  0
   11.3568  -17.6206   24.0149 C   0  0  0  0  0  0  0  0  0  0  0  0
   11.4913  -17.0157   25.3785 C   0  0  0  0  0  0  0  0  0  0  0  0
   11.3824  -18.0842   26.3902 C   0  0  0  0  0  0  0  0  0  0  0  0
   11.3007  -17.7902   27.5979 O   0  0  0  0  0  0  0  0  0  0  0  0
   12.7611  -17.5506   21.9951 C   0  0  0  0  0  0  0  0  0  0  0  0
   14.1361  -17.4597   22.0634 O   0  0  0  0  0  0  0  0  0  0  0  0
   11.3703  -19.4084   26.0114 O   0  0  0  0  0  0  0  0  0  0  0  0
   12.3104  -18.3389   21.0965 O   0  0  0  0  0  0  0  0  0  0  0  0
  1  2  1  0
  2  3  1  0
  3  5  1  0
  3  4  1  6
  5  6  1  1
  7  5  1  0
  7  8  2  0
 10  9  1  6
 10 12  1  0
 11 10  1  0
 12 13  1  1
 13  7  1  0
 14 12  1  0
 15 14  2  0
 16 14  1  0
 17 18  1  1
 17 16  1  0
 18 19  1  0
 20 21  2  0
 20 19  1  0
 22 17  1  0
 23 22  1  0
 24 20  1  0
 25 22  2  0
M  END
$$$$
