IVE.pdb
     RDKit          3D

 25 24  0  0  1  0  0  0  0  0999 V2000
    6.6165  -11.5968   27.9431 C   0  0  0  0  0  0  0  0  0  0  0  0
    5.9928  -12.6860   27.1166 C   0  0  0  0  0  0  0  0  0  0  0  0
    7.0522  -13.4288   26.2984 C   0  0  2  0  0  0  0  0  0  0  0  0
    7.7601  -12.3827   25.4731 C   0  0  0  0  0  0  0  0  0  0  0  0
    6.3525  -14.4097   25.3623 C   0  0  2  0  0  0  0  0  0  0  0  0
    5.6606  -15.3556   26.2130 N   0  0  0  0  0  0  0  0  0  0  0  0
    7.3262  -15.1380   24.5199 C   0  0  0  0  0  0  0  0  0  0  0  0
    7.9779  -16.0711   25.0437 O   0  0  0  0  0  0  0  0  0  0  0  0
    8.8128  -13.5641   20.7660 C   0  0  0  0  0  0  0  0  0  0  0  0
    8.3692  -14.9799   20.9061 C   0  0  2  0  0  0  0  0  0  0  0  0
    6.8950  -15.0443   20.5526 C   0  0  0  0  0  0  0  0  0  0  0  0
    8.5091  -15.5081   22.3190 C   0  0  2  0  0  0  0  0  0  0  0  0
    7.5647  -14.8443   23.1615 N   0  0  0  0  0  0  0  0  0  0  0  0
    9.8844  -15.4882   22.8079 C   0  0  0  0  0  0  0  0  0  0  0  0
   10.2263  -14.6512   23.6795 O   0  0  0  0  0  0  0  0  0  0  0  0
   10.8919  -16.3774   22.3513 N   0  0  0  0  0  0  0  0  0  0  0  0
   11.9940  -16.8133   23.2279 C   0  0  1  0  0  0  0  0  0  0  0  0
   11.3511  -17.4547   24.4102 C   0  0  0  0  0  0  0  0  0  0  0  0
   12.2951  -18.0518   25.4080 C   0  0  0  0  0  0  0  0  0  0  0  0
   11.5164  -18.6183   26.5259 C   0  0  0  0  0  0  0  0  0  0  0  0
   11.4312  -17.9962   27.6017 O   0  0  0  0  0  0  0  0  0  0  0  0
   12.8756  -17.7306   22.4981 C   0  0  0  0  0  0  0  0  0  0  0  0
   14.2288  -17.8061   22.7561 O   0  0  0  0  0  0  0  0  0  0  0  0
   10.8804  -19.8326   26.3916 O   0  0  0  0  0  0  0  0  0  0  0  0
   12.4503  -18.5131   21.5821 O   0  0  0  0  0  0  0  0  0  0  0  0
  1  2  1  0
  2  3  1  0
  3  5  1  0
  3  4  1  6
  5  6  1  1
  7  5  1  0
  7  8  2  0
 10  9  1  1
 10 12  1  0
 11 10  1  0
 12 13  1  1
 13  7  1  0
 14 12  1  0
 15 14  2  0
 16 14  1  0
 17 18  1  1
 17 16  1  0
 18 19  1  0
 20 21  2  0
 20 19  1  0
 22 17  1  0
 23 22  1  0
 24 20  1  0
 25 22  2  0
M  END
$$$$
