IVE.pdb
     RDKit          3D

 25 24  0  0  1  0  0  0  0  0999 V2000
    7.2306  -18.8130   20.2665 C   0  0  0  0  0  0  0  0  0  0  0  0
    7.0785  -17.3233   20.3936 C   0  0  0  0  0  0  0  0  0  0  0  0
    7.6578  -16.8238   21.7197 C   0  0  2  0  0  0  0  0  0  0  0  0
    6.8847  -17.5240   22.8100 C   0  0  0  0  0  0  0  0  0  0  0  0
    7.4165  -15.3210   21.8270 C   0  0  2  0  0  0  0  0  0  0  0  0
    8.0617  -14.7256   20.6753 N   0  0  0  0  0  0  0  0  0  0  0  0
    8.0171  -14.7658   23.0595 C   0  0  0  0  0  0  0  0  0  0  0  0
    9.2658  -14.6816   23.1214 O   0  0  0  0  0  0  0  0  0  0  0  0
    6.3852  -11.7961   25.2359 C   0  0  0  0  0  0  0  0  0  0  0  0
    6.7909  -12.9555   26.0798 C   0  0  2  0  0  0  0  0  0  0  0  0
    7.4438  -12.4119   27.3371 C   0  0  0  0  0  0  0  0  0  0  0  0
    7.8081  -13.8529   25.4054 C   0  0  2  0  0  0  0  0  0  0  0  0
    7.2676  -14.3255   24.1698 N   0  0  0  0  0  0  0  0  0  0  0  0
    8.3281  -14.8962   26.2840 C   0  0  0  0  0  0  0  0  0  0  0  0
    7.5496  -15.7595   26.7589 O   0  0  0  0  0  0  0  0  0  0  0  0
    9.6954  -15.0043   26.6492 N   0  0  0  0  0  0  0  0  0  0  0  0
   10.1762  -16.0786   27.5368 C   0  0  1  0  0  0  0  0  0  0  0  0
   11.5049  -16.4916   27.0016 C   0  0  0  0  0  0  0  0  0  0  0  0
   11.4884  -17.0671   25.6189 C   0  0  0  0  0  0  0  0  0  0  0  0
   12.8539  -17.4972   25.2619 C   0  0  0  0  0  0  0  0  0  0  0  0
   13.7715  -17.4105   26.0997 O   0  0  0  0  0  0  0  0  0  0  0  0
   10.2518  -15.5859   28.9163 C   0  0  0  0  0  0  0  0  0  0  0  0
   10.4727  -16.4309   29.9844 O   0  0  0  0  0  0  0  0  0  0  0  0
   13.1252  -17.9954   24.0067 O   0  0  0  0  0  0  0  0  0  0  0  0
   10.1182  -14.3513   29.2159 O   0  0  0  0  0  0  0  0  0  0  0  0
  1  2  1  0
  2  3  1  0
  3  5  1  0
  3  4  1  1
  5  6  1  6
  7  5  1  0
  7  8  2  0
 10  9  1  6
 10 12  1  0
 11 10  1  0
 12 13  1  6
 13  7  1  0
 14 12  1  0
 15 14  2  0
 16 14  1  0
 17 18  1  6
 17 16  1  0
 18 19  1  0
 20 21  2  0
 20 19  1  0
 22 17  1  0
 23 22  1  0
 24 20  1  0
 25 22  2  0
M  END
$$$$
