IVE.pdb
     RDKit          3D

 25 24  0  0  1  0  0  0  0  0999 V2000
    6.7895  -17.5452   20.7184 C   0  0  0  0  0  0  0  0  0  0  0  0
    7.4875  -16.2428   20.9918 C   0  0  0  0  0  0  0  0  0  0  0  0
    6.4861  -15.0867   21.0572 C   0  0  2  0  0  0  0  0  0  0  0  0
    5.8717  -14.9804   19.6832 C   0  0  0  0  0  0  0  0  0  0  0  0
    7.2423  -13.7975   21.3638 C   0  0  2  0  0  0  0  0  0  0  0  0
    8.2866  -13.6952   20.3657 N   0  0  0  0  0  0  0  0  0  0  0  0
    7.8593  -13.8415   22.7075 C   0  0  0  0  0  0  0  0  0  0  0  0
    9.0701  -14.1532   22.7910 O   0  0  0  0  0  0  0  0  0  0  0  0
    6.7053  -11.4333   25.8055 C   0  0  0  0  0  0  0  0  0  0  0  0
    6.8245  -12.8721   26.1750 C   0  0  2  0  0  0  0  0  0  0  0  0
    7.4762  -12.9503   27.5431 C   0  0  0  0  0  0  0  0  0  0  0  0
    7.7007  -13.6586   25.2218 C   0  0  2  0  0  0  0  0  0  0  0  0
    7.1655  -13.5535   23.9009 N   0  0  0  0  0  0  0  0  0  0  0  0
    7.9589  -15.0236   25.6700 C   0  0  0  0  0  0  0  0  0  0  0  0
    7.0045  -15.8283   25.8066 O   0  0  0  0  0  0  0  0  0  0  0  0
    9.2548  -15.5181   25.9712 N   0  0  0  0  0  0  0  0  0  0  0  0
    9.4651  -16.8979   26.4456 C   0  0  1  0  0  0  0  0  0  0  0  0
   10.3679  -17.5429   25.4499 C   0  0  0  0  0  0  0  0  0  0  0  0
   11.6433  -16.8088   25.1709 C   0  0  0  0  0  0  0  0  0  0  0  0
   12.4151  -17.5555   24.1591 C   0  0  0  0  0  0  0  0  0  0  0  0
   13.2497  -18.4074   24.5185 O   0  0  0  0  0  0  0  0  0  0  0  0
   10.0375  -16.8766   27.7958 C   0  0  0  0  0  0  0  0  0  0  0  0
   10.2276  -18.0300   28.5288 O   0  0  0  0  0  0  0  0  0  0  0  0
   12.2214  -17.3192   22.8160 O   0  0  0  0  0  0  0  0  0  0  0  0
   10.3941  -15.7961   28.3767 O   0  0  0  0  0  0  0  0  0  0  0  0
  1  2  1  0
  2  3  1  0
  3  5  1  0
  3  4  1  6
  5  6  1  6
  7  5  1  0
  7  8  2  0
 10  9  1  6
 10 12  1  0
 11 10  1  0
 12 13  1  6
 13  7  1  0
 14 12  1  0
 15 14  2  0
 16 14  1  0
 17 18  1  6
 17 16  1  0
 18 19  1  0
 20 21  2  0
 20 19  1  0
 22 17  1  0
 23 22  1  0
 24 20  1  0
 25 22  2  0
M  END
$$$$
