MIG.pdb
     RDKit          3D

 21 20  0  0  1  0  0  0  0  0999 V2000
    5.3659  -21.3037   20.8094 C   0  0  0  0  0  0  0  0  0  0  0  0
    5.6839  -20.1282   22.1487 S   0  0  0  0  0  0  0  0  0  0  0  0
    6.2856  -18.5647   21.4928 C   0  0  0  0  0  0  0  0  0  0  0  0
    6.5726  -17.5547   22.5596 C   0  0  0  0  0  0  0  0  0  0  0  0
    6.9746  -16.2045   22.0692 C   0  0  2  0  0  0  0  0  0  0  0  0
    7.6219  -16.2716   20.7869 N   0  0  0  0  0  0  0  0  0  0  0  0
    7.7084  -15.4032   23.0645 C   0  0  0  0  0  0  0  0  0  0  0  0
    8.9721  -15.2942   22.9424 O   0  0  0  0  0  0  0  0  0  0  0  0
    6.6338  -11.3819   27.5849 C   0  0  0  0  0  0  0  0  0  0  0  0
    7.6664  -11.9186   26.6080 C   0  0  0  0  0  0  0  0  0  0  0  0
    7.0559  -12.9127   25.6633 C   0  0  2  0  0  0  0  0  0  0  0  0
    5.7538  -13.4763   26.1816 C   0  0  0  0  0  0  0  0  0  0  0  0
    7.9862  -13.9295   25.0941 C   0  0  2  0  0  0  0  0  0  0  0  0
    7.1456  -14.7259   24.1683 N   0  0  0  0  0  0  0  0  0  0  0  0
    8.5931  -14.8597   26.0502 C   0  0  0  0  0  0  0  0  0  0  0  0
    9.3777  -14.3951   26.9312 O   0  0  0  0  0  0  0  0  0  0  0  0
    8.3767  -16.2505   26.0794 N   0  0  0  0  0  0  0  0  0  0  0  0
    8.8794  -17.0150   27.1980 C   0  0  0  0  0  0  0  0  0  0  0  0
   10.2594  -17.5036   26.9649 C   0  0  0  0  0  0  0  0  0  0  0  0
   10.8907  -17.1000   25.7975 O   0  0  0  0  0  0  0  0  0  0  0  0
   10.8829  -18.2528   27.7534 O   0  0  0  0  0  0  0  0  0  0  0  0
  2  1  1  0
  3  2  1  0
  4  3  1  0
  5  4  1  0
  5  6  1  6
  7  5  1  0
  7 14  1  0
  8  7  2  0
  9 10  1  0
 11 10  1  0
 11 12  1  1
 13 15  1  0
 13 14  1  6
 13 11  1  0
 15 16  2  0
 17 18  1  0
 17 15  1  0
 19 18  1  0
 20 19  1  0
 21 19  2  0
M  END
$$$$
