MIG.pdb
     RDKit          3D

 21 20  0  0  1  0  0  0  0  0999 V2000
    8.0697  -20.2480   28.3554 C   0  0  0  0  0  0  0  0  0  0  0  0
    6.6172  -21.0847   27.6720 S   0  0  0  0  0  0  0  0  0  0  0  0
    6.0231  -20.2303   26.2045 C   0  0  0  0  0  0  0  0  0  0  0  0
    6.6317  -18.8737   26.0311 C   0  0  0  0  0  0  0  0  0  0  0  0
    6.1701  -18.1152   24.8324 C   0  0  2  0  0  0  0  0  0  0  0  0
    6.0614  -18.9598   23.6737 N   0  0  0  0  0  0  0  0  0  0  0  0
    6.9181  -16.8688   24.5916 C   0  0  0  0  0  0  0  0  0  0  0  0
    7.6146  -16.7756   23.5287 O   0  0  0  0  0  0  0  0  0  0  0  0
    5.3315  -12.0771   26.6940 C   0  0  0  0  0  0  0  0  0  0  0  0
    5.9398  -12.9139   25.5812 C   0  0  0  0  0  0  0  0  0  0  0  0
    7.2713  -13.4745   25.9885 C   0  0  2  0  0  0  0  0  0  0  0  0
    8.2729  -12.3950   26.3252 C   0  0  0  0  0  0  0  0  0  0  0  0
    7.8086  -14.5702   25.1316 C   0  0  2  0  0  0  0  0  0  0  0  0
    6.9463  -15.7372   25.4358 N   0  0  0  0  0  0  0  0  0  0  0  0
    9.1961  -14.9688   25.3839 C   0  0  0  0  0  0  0  0  0  0  0  0
   10.1269  -14.2774   24.8709 O   0  0  0  0  0  0  0  0  0  0  0  0
    9.5956  -16.0720   26.1621 N   0  0  0  0  0  0  0  0  0  0  0  0
   11.0060  -16.3425   26.3231 C   0  0  0  0  0  0  0  0  0  0  0  0
   11.2532  -17.5199   27.1893 C   0  0  0  0  0  0  0  0  0  0  0  0
   12.5716  -17.8154   27.5037 O   0  0  0  0  0  0  0  0  0  0  0  0
   10.3493  -18.2567   27.6495 O   0  0  0  0  0  0  0  0  0  0  0  0
  2  1  1  0
  3  2  1  0
  4  3  1  0
  5  4  1  0
  5  6  1  6
  7  5  1  0
  7 14  1  0
  8  7  2  0
  9 10  1  0
 11 10  1  0
 11 12  1  6
 13 15  1  0
 13 14  1  1
 13 11  1  0
 15 16  2  0
 17 18  1  0
 17 15  1  0
 19 18  1  0
 20 19  1  0
 21 19  2  0
M  END
$$$$
