MIG.pdb
     RDKit          3D

 21 20  0  0  1  0  0  0  0  0999 V2000
    4.1660  -19.2347   22.6779 C   0  0  0  0  0  0  0  0  0  0  0  0
    5.0536  -19.1644   21.1018 S   0  0  0  0  0  0  0  0  0  0  0  0
    5.6102  -17.4881   20.7599 C   0  0  0  0  0  0  0  0  0  0  0  0
    6.2060  -16.8142   21.9564 C   0  0  0  0  0  0  0  0  0  0  0  0
    6.6802  -15.4177   21.7326 C   0  0  2  0  0  0  0  0  0  0  0  0
    7.2567  -15.2511   20.4259 N   0  0  0  0  0  0  0  0  0  0  0  0
    7.5184  -14.8911   22.8239 C   0  0  0  0  0  0  0  0  0  0  0  0
    8.7657  -14.7398   22.6112 O   0  0  0  0  0  0  0  0  0  0  0  0
    5.5977  -11.2434   26.3188 C   0  0  0  0  0  0  0  0  0  0  0  0
    6.5323  -11.9624   25.3607 C   0  0  0  0  0  0  0  0  0  0  0  0
    7.1763  -13.1488   26.0172 C   0  0  2  0  0  0  0  0  0  0  0  0
    7.8132  -12.7997   27.3417 C   0  0  0  0  0  0  0  0  0  0  0  0
    8.0171  -14.0075   25.1345 C   0  0  2  0  0  0  0  0  0  0  0  0
    7.0753  -14.5271   24.1143 N   0  0  0  0  0  0  0  0  0  0  0  0
    8.6576  -15.1610   25.7723 C   0  0  0  0  0  0  0  0  0  0  0  0
    9.5050  -14.9507   26.6918 O   0  0  0  0  0  0  0  0  0  0  0  0
    8.4095  -16.5089   25.4500 N   0  0  0  0  0  0  0  0  0  0  0  0
    8.9377  -17.5440   26.3092 C   0  0  0  0  0  0  0  0  0  0  0  0
   10.3855  -17.7701   26.0856 C   0  0  0  0  0  0  0  0  0  0  0  0
   10.9943  -18.7796   26.8168 O   0  0  0  0  0  0  0  0  0  0  0  0
   11.0849  -17.1088   25.2822 O   0  0  0  0  0  0  0  0  0  0  0  0
  2  1  1  0
  3  2  1  0
  4  3  1  0
  5  4  1  0
  5  6  1  6
  7  5  1  0
  7 14  1  0
  8  7  2  0
  9 10  1  0
 11 10  1  0
 11 12  1  1
 13 15  1  0
 13 14  1  6
 13 11  1  0
 15 16  2  0
 17 18  1  0
 17 15  1  0
 19 18  1  0
 20 19  1  0
 21 19  2  0
M  END
$$$$
