MIG.pdb
     RDKit          3D

 21 20  0  0  1  0  0  0  0  0999 V2000
    7.1062  -10.8572   26.6611 C   0  0  0  0  0  0  0  0  0  0  0  0
    6.6687  -12.1976   27.7964 S   0  0  0  0  0  0  0  0  0  0  0  0
    6.0221  -13.6116   26.8915 C   0  0  0  0  0  0  0  0  0  0  0  0
    7.0368  -14.2427   25.9900 C   0  0  0  0  0  0  0  0  0  0  0  0
    6.5504  -15.4109   25.2000 C   0  0  2  0  0  0  0  0  0  0  0  0
    6.1870  -16.5153   26.0461 N   0  0  0  0  0  0  0  0  0  0  0  0
    7.4349  -15.7840   24.0822 C   0  0  0  0  0  0  0  0  0  0  0  0
    7.9277  -16.9590   24.0654 O   0  0  0  0  0  0  0  0  0  0  0  0
    7.0108  -12.8620   19.6053 C   0  0  0  0  0  0  0  0  0  0  0  0
    7.0804  -14.1397   20.4244 C   0  0  0  0  0  0  0  0  0  0  0  0
    8.4955  -14.4644   20.8060 C   0  0  2  0  0  0  0  0  0  0  0  0
    9.3770  -14.7023   19.6026 C   0  0  0  0  0  0  0  0  0  0  0  0
    8.6643  -15.4610   21.9022 C   0  0  2  0  0  0  0  0  0  0  0  0
    7.8046  -14.9563   22.9995 N   0  0  0  0  0  0  0  0  0  0  0  0
   10.0202  -15.6119   22.4374 C   0  0  0  0  0  0  0  0  0  0  0  0
   10.4549  -14.7322   23.2405 O   0  0  0  0  0  0  0  0  0  0  0  0
   10.8999  -16.6687   22.1349 N   0  0  0  0  0  0  0  0  0  0  0  0
   12.2119  -16.6842   22.7408 C   0  0  0  0  0  0  0  0  0  0  0  0
   13.0603  -17.7763   22.2071 C   0  0  0  0  0  0  0  0  0  0  0  0
   14.4031  -17.4974   21.9985 O   0  0  0  0  0  0  0  0  0  0  0  0
   12.6392  -18.9256   21.9359 O   0  0  0  0  0  0  0  0  0  0  0  0
  2  1  1  0
  3  2  1  0
  4  3  1  0
  5  4  1  0
  5  6  1  1
  7  5  1  0
  7 14  1  0
  8  7  2  0
  9 10  1  0
 11 10  1  0
 11 12  1  6
 13 15  1  0
 13 14  1  1
 13 11  1  0
 15 16  2  0
 17 18  1  0
 17 15  1  0
 19 18  1  0
 20 19  1  0
 21 19  2  0
M  END
$$$$
