MIG.pdb
     RDKit          3D

 21 20  0  0  1  0  0  0  0  0999 V2000
    7.1958  -12.3080   17.0470 C   0  0  0  0  0  0  0  0  0  0  0  0
    8.2115  -12.5379   18.5276 S   0  0  0  0  0  0  0  0  0  0  0  0
    7.6049  -13.9201   19.5064 C   0  0  0  0  0  0  0  0  0  0  0  0
    8.3821  -14.1285   20.7687 C   0  0  0  0  0  0  0  0  0  0  0  0
    7.8882  -15.2271   21.6487 C   0  0  2  0  0  0  0  0  0  0  0  0
    6.4716  -15.4301   21.5077 N   0  0  0  0  0  0  0  0  0  0  0  0
    8.3367  -15.1169   23.0479 C   0  0  0  0  0  0  0  0  0  0  0  0
    9.5877  -15.0443   23.2794 O   0  0  0  0  0  0  0  0  0  0  0  0
    5.9314  -11.7715   25.9644 C   0  0  0  0  0  0  0  0  0  0  0  0
    6.9976  -12.6564   25.3409 C   0  0  0  0  0  0  0  0  0  0  0  0
    7.2628  -13.8671   26.1878 C   0  0  2  0  0  0  0  0  0  0  0  0
    7.6909  -13.5067   27.5909 C   0  0  0  0  0  0  0  0  0  0  0  0
    8.0742  -14.9443   25.5518 C   0  0  2  0  0  0  0  0  0  0  0  0
    7.5062  -15.0827   24.1894 N   0  0  0  0  0  0  0  0  0  0  0  0
    8.0159  -16.2621   26.1904 C   0  0  0  0  0  0  0  0  0  0  0  0
    6.8927  -16.8443   26.2747 O   0  0  0  0  0  0  0  0  0  0  0  0
    9.1182  -16.9538   26.7276 N   0  0  0  0  0  0  0  0  0  0  0  0
    8.9090  -18.2567   27.3170 C   0  0  0  0  0  0  0  0  0  0  0  0
    9.9141  -18.5643   28.3622 C   0  0  0  0  0  0  0  0  0  0  0  0
    9.7707  -19.7583   29.0538 O   0  0  0  0  0  0  0  0  0  0  0  0
   10.8763  -17.8159   28.6548 O   0  0  0  0  0  0  0  0  0  0  0  0
  2  1  1  0
  3  2  1  0
  4  3  1  0
  5  4  1  0
  5  6  1  1
  7  5  1  0
  7 14  1  0
  8  7  2  0
  9 10  1  0
 11 10  1  0
 11 12  1  1
 13 15  1  0
 13 14  1  6
 13 11  1  0
 15 16  2  0
 17 18  1  0
 17 15  1  0
 19 18  1  0
 20 19  1  0
 21 19  2  0
M  END
$$$$
