MIG.pdb
     RDKit          3D

 21 20  0  0  1  0  0  0  0  0999 V2000
    8.9957  -18.7265   29.5116 C   0  0  0  0  0  0  0  0  0  0  0  0
    7.9818  -20.1641   29.0846 S   0  0  0  0  0  0  0  0  0  0  0  0
    6.8044  -19.7494   27.7891 C   0  0  0  0  0  0  0  0  0  0  0  0
    7.3266  -18.7254   26.8302 C   0  0  0  0  0  0  0  0  0  0  0  0
    6.3681  -18.2944   25.7715 C   0  0  2  0  0  0  0  0  0  0  0  0
    5.9414  -19.3979   24.9544 N   0  0  0  0  0  0  0  0  0  0  0  0
    6.8195  -17.1229   25.0002 C   0  0  0  0  0  0  0  0  0  0  0  0
    7.1605  -17.2926   23.7842 O   0  0  0  0  0  0  0  0  0  0  0  0
    7.1944  -11.7554   27.0455 C   0  0  0  0  0  0  0  0  0  0  0  0
    7.2508  -13.2372   26.7144 C   0  0  0  0  0  0  0  0  0  0  0  0
    7.1360  -13.4686   25.2357 C   0  0  2  0  0  0  0  0  0  0  0  0
    5.7696  -13.1106   24.7004 C   0  0  0  0  0  0  0  0  0  0  0  0
    7.6763  -14.7644   24.7332 C   0  0  2  0  0  0  0  0  0  0  0  0
    6.9174  -15.7976   25.4777 N   0  0  0  0  0  0  0  0  0  0  0  0
    9.1019  -15.0073   24.9701 C   0  0  0  0  0  0  0  0  0  0  0  0
    9.5424  -14.9158   26.1556 O   0  0  0  0  0  0  0  0  0  0  0  0
   10.0445  -15.3419   23.9792 N   0  0  0  0  0  0  0  0  0  0  0  0
   11.4468  -15.3737   24.3275 C   0  0  0  0  0  0  0  0  0  0  0  0
   12.3054  -15.6795   23.1585 C   0  0  0  0  0  0  0  0  0  0  0  0
   13.6769  -15.7096   23.3645 O   0  0  0  0  0  0  0  0  0  0  0  0
   11.8687  -15.9103   22.0062 O   0  0  0  0  0  0  0  0  0  0  0  0
  2  1  1  0
  3  2  1  0
  4  3  1  0
  5  4  1  0
  5  6  1  6
  7  5  1  0
  7 14  1  0
  8  7  2  0
  9 10  1  0
 11 10  1  0
 11 12  1  1
 13 15  1  0
 13 14  1  1
 13 11  1  0
 15 16  2  0
 17 18  1  0
 17 15  1  0
 19 18  1  0
 20 19  1  0
 21 19  2  0
M  END
$$$$
