MIG.pdb
     RDKit          3D

 21 20  0  0  1  0  0  0  0  0999 V2000
   10.6364  -14.6799   30.4845 C   0  0  0  0  0  0  0  0  0  0  0  0
   11.1276  -16.4203   30.4039 S   0  0  0  0  0  0  0  0  0  0  0  0
    9.8800  -17.3940   29.5483 C   0  0  0  0  0  0  0  0  0  0  0  0
    9.1884  -16.6326   28.4607 C   0  0  0  0  0  0  0  0  0  0  0  0
    8.1046  -17.3734   27.7523 C   0  0  2  0  0  0  0  0  0  0  0  0
    8.4148  -18.7704   27.6115 N   0  0  0  0  0  0  0  0  0  0  0  0
    7.6650  -16.7328   26.5004 C   0  0  0  0  0  0  0  0  0  0  0  0
    7.0578  -17.4451   25.6357 O   0  0  0  0  0  0  0  0  0  0  0  0
    6.3673  -11.5637   26.6236 C   0  0  0  0  0  0  0  0  0  0  0  0
    6.0889  -12.9329   26.0265 C   0  0  0  0  0  0  0  0  0  0  0  0
    7.2020  -13.3659   25.1171 C   0  0  2  0  0  0  0  0  0  0  0  0
    7.2903  -12.5183   23.8699 C   0  0  0  0  0  0  0  0  0  0  0  0
    7.3157  -14.8330   24.8765 C   0  0  2  0  0  0  0  0  0  0  0  0
    7.8502  -15.3782   26.1473 N   0  0  0  0  0  0  0  0  0  0  0  0
    8.2241  -15.2449   23.8028 C   0  0  0  0  0  0  0  0  0  0  0  0
    7.8930  -15.0007   22.6034 O   0  0  0  0  0  0  0  0  0  0  0  0
    9.4570  -15.8990   23.9881 N   0  0  0  0  0  0  0  0  0  0  0  0
   10.2375  -16.2656   22.8284 C   0  0  0  0  0  0  0  0  0  0  0  0
   11.6279  -15.7576   22.9081 C   0  0  0  0  0  0  0  0  0  0  0  0
   12.3797  -15.7700   21.7424 O   0  0  0  0  0  0  0  0  0  0  0  0
   12.1585  -15.3220   23.9571 O   0  0  0  0  0  0  0  0  0  0  0  0
  2  1  1  0
  3  2  1  0
  4  3  1  0
  5  4  1  0
  5  6  1  6
  7  5  1  0
  7 14  1  0
  8  7  2  0
  9 10  1  0
 11 10  1  0
 11 12  1  6
 13 15  1  0
 13 14  1  1
 13 11  1  0
 15 16  2  0
 17 18  1  0
 17 15  1  0
 19 18  1  0
 20 19  1  0
 21 19  2  0
M  END
$$$$
