HMS.pdb
     RDKit          3D

 25 25  0  0  1  0  0  0  0  0999 V2000
   10.4956  -13.6016   20.7876 N   0  0  0  0  0  0  0  0  0  0  0  0
    9.1620  -13.8998   21.2790 C   0  0  1  0  0  0  0  0  0  0  0  0
    8.5766  -15.0497   20.4776 C   0  0  0  0  0  0  0  0  0  0  0  0
    8.3465  -14.6094   19.0593 C   0  0  0  0  0  0  0  0  0  0  0  0
    8.7614  -13.4022   18.5605 C   0  0  0  0  0  0  0  0  0  0  0  0
    8.3670  -13.3905   17.2717 N   0  0  0  0  0  0  0  0  0  0  0  0
    7.7393  -14.5423   17.0010 C   0  0  0  0  0  0  0  0  0  0  0  0
    7.7160  -15.3208   18.1098 N   0  0  0  0  0  0  0  0  0  0  0  0
    9.1863  -14.2975   22.6955 C   0  0  0  0  0  0  0  0  0  0  0  0
   10.2871  -14.4669   23.2667 O   0  0  0  0  0  0  0  0  0  0  0  0
    7.8523  -11.1269   27.2320 C   0  0  0  0  0  0  0  0  0  0  0  0
    6.5119  -12.3484   27.1420 S   0  0  0  0  0  0  0  0  0  0  0  0
    6.3076  -12.9080   25.4059 C   0  0  0  0  0  0  0  0  0  0  0  0
    6.5712  -14.3872   25.3130 C   0  0  0  0  0  0  0  0  0  0  0  0
    7.9355  -14.7463   24.8288 C   0  0  2  0  0  0  0  0  0  0  0  0
    7.9793  -14.4822   23.3908 N   0  0  0  0  0  0  0  0  0  0  0  0
    8.3312  -16.1478   25.0387 C   0  0  0  0  0  0  0  0  0  0  0  0
    8.3109  -16.5948   26.2149 O   0  0  0  0  0  0  0  0  0  0  0  0
    9.8180  -18.4103   22.0009 O   0  0  0  0  0  0  0  0  0  0  0  0
    9.0982  -19.1480   22.9422 C   0  0  0  0  0  0  0  0  0  0  0  0
    9.1493  -18.3257   24.2366 C   0  0  2  0  0  0  0  0  0  0  0  0
    8.7214  -16.9694   23.9636 N   0  0  0  0  0  0  0  0  0  0  0  0
   10.5183  -18.3791   24.7794 C   0  0  0  0  0  0  0  0  0  0  0  0
   11.1808  -17.3285   24.8843 O   0  0  0  0  0  0  0  0  0  0  0  0
   11.0707  -19.5677   25.1696 O   0  0  0  0  0  0  0  0  0  0  0  0
  2  1  1  6
  3  2  1  0
  4  3  1  0
  5  4  2  0
  6  5  1  0
  7  6  1  0
  7  8  2  0
  8  4  1  0
  9  2  1  0
  9 10  2  0
 12 11  1  0
 12 13  1  0
 13 14  1  0
 15 14  1  6
 15 17  1  0
 16 15  1  0
 16  9  1  0
 17 22  1  0
 18 17  2  0
 20 19  1  0
 21 22  1  0
 21 20  1  6
 23 21  1  0
 24 23  2  0
 25 23  1  0
M  END
$$$$
