HMS.pdb
     RDKit          3D

 25 25  0  0  1  0  0  0  0  0999 V2000
   10.7650  -14.6658   19.9601 N   0  0  0  0  0  0  0  0  0  0  0  0
    9.4401  -14.5507   20.5434 C   0  0  1  0  0  0  0  0  0  0  0  0
    8.4919  -15.4969   19.8273 C   0  0  0  0  0  0  0  0  0  0  0  0
    8.0470  -14.8790   18.5316 C   0  0  0  0  0  0  0  0  0  0  0  0
    8.5074  -13.6755   18.0650 C   0  0  0  0  0  0  0  0  0  0  0  0
    7.8734  -13.4777   16.8922 N   0  0  0  0  0  0  0  0  0  0  0  0
    7.0628  -14.5179   16.6580 C   0  0  0  0  0  0  0  0  0  0  0  0
    7.1573  -15.4081   17.6751 N   0  0  0  0  0  0  0  0  0  0  0  0
    9.4473  -14.9071   21.9711 C   0  0  0  0  0  0  0  0  0  0  0  0
   10.3493  -15.6540   22.4128 O   0  0  0  0  0  0  0  0  0  0  0  0
    6.4630  -12.0047   28.7196 C   0  0  0  0  0  0  0  0  0  0  0  0
    6.5042  -12.0395   26.9045 S   0  0  0  0  0  0  0  0  0  0  0  0
    7.4582  -13.5026   26.3407 C   0  0  0  0  0  0  0  0  0  0  0  0
    7.5553  -13.4994   24.8384 C   0  0  0  0  0  0  0  0  0  0  0  0
    8.5675  -14.4413   24.2789 C   0  0  2  0  0  0  0  0  0  0  0  0
    8.4465  -14.4075   22.8216 N   0  0  0  0  0  0  0  0  0  0  0  0
    8.4306  -15.8423   24.7070 C   0  0  0  0  0  0  0  0  0  0  0  0
    7.3864  -16.4600   24.3732 O   0  0  0  0  0  0  0  0  0  0  0  0
   11.3876  -18.2608   25.1728 O   0  0  0  0  0  0  0  0  0  0  0  0
   10.0990  -18.7925   25.1005 C   0  0  0  0  0  0  0  0  0  0  0  0
    9.2137  -17.8390   25.9137 C   0  0  2  0  0  0  0  0  0  0  0  0
    9.4314  -16.4790   25.4662 N   0  0  0  0  0  0  0  0  0  0  0  0
    9.5209  -18.0102   27.3448 C   0  0  0  0  0  0  0  0  0  0  0  0
    9.9535  -17.0433   28.0019 O   0  0  0  0  0  0  0  0  0  0  0  0
    9.3369  -19.2171   27.9607 O   0  0  0  0  0  0  0  0  0  0  0  0
  2  1  1  6
  3  2  1  0
  4  3  1  0
  5  4  2  0
  6  5  1  0
  7  6  1  0
  7  8  2  0
  8  4  1  0
  9  2  1  0
  9 10  2  0
 12 11  1  0
 12 13  1  0
 13 14  1  0
 15 14  1  1
 15 17  1  0
 16 15  1  0
 16  9  1  0
 17 22  1  0
 18 17  2  0
 20 19  1  0
 21 22  1  0
 21 20  1  6
 23 21  1  0
 24 23  2  0
 25 23  1  0
M  END
$$$$
