HMS.pdb
     RDKit          3D

 25 25  0  0  1  0  0  0  0  0999 V2000
    8.4865  -12.9058   19.8713 N   0  0  0  0  0  0  0  0  0  0  0  0
    8.0946  -14.1107   20.5809 C   0  0  1  0  0  0  0  0  0  0  0  0
    8.7837  -15.3100   19.9531 C   0  0  0  0  0  0  0  0  0  0  0  0
    8.2448  -15.5327   18.5681 C   0  0  0  0  0  0  0  0  0  0  0  0
    7.4012  -14.6608   17.9306 C   0  0  0  0  0  0  0  0  0  0  0  0
    7.1518  -15.2157   16.7279 N   0  0  0  0  0  0  0  0  0  0  0  0
    7.8164  -16.3752   16.6404 C   0  0  0  0  0  0  0  0  0  0  0  0
    8.5084  -16.5921   17.7849 N   0  0  0  0  0  0  0  0  0  0  0  0
    8.4843  -14.0517   21.9985 C   0  0  0  0  0  0  0  0  0  0  0  0
    9.6452  -13.6955   22.3018 O   0  0  0  0  0  0  0  0  0  0  0  0
    7.5372  -12.2332   27.5154 C   0  0  0  0  0  0  0  0  0  0  0  0
    6.1564  -11.6740   26.4771 S   0  0  0  0  0  0  0  0  0  0  0  0
    6.1317  -12.6402   24.9169 C   0  0  0  0  0  0  0  0  0  0  0  0
    6.6490  -14.0310   25.1706 C   0  0  0  0  0  0  0  0  0  0  0  0
    7.8886  -14.3802   24.4181 C   0  0  2  0  0  0  0  0  0  0  0  0
    7.5537  -14.3939   22.9943 N   0  0  0  0  0  0  0  0  0  0  0  0
    8.4827  -15.6845   24.7508 C   0  0  0  0  0  0  0  0  0  0  0  0
    7.8200  -16.7191   24.4789 O   0  0  0  0  0  0  0  0  0  0  0  0
   12.2334  -18.4045   25.3679 O   0  0  0  0  0  0  0  0  0  0  0  0
   11.8073  -17.0816   25.2386 C   0  0  0  0  0  0  0  0  0  0  0  0
   10.3153  -17.0926   25.5963 C   0  0  2  0  0  0  0  0  0  0  0  0
    9.7514  -15.7808   25.3542 N   0  0  0  0  0  0  0  0  0  0  0  0
   10.1669  -17.5117   27.0014 C   0  0  0  0  0  0  0  0  0  0  0  0
    9.6280  -16.7417   27.8202 O   0  0  0  0  0  0  0  0  0  0  0  0
   10.6133  -18.7354   27.4177 O   0  0  0  0  0  0  0  0  0  0  0  0
  2  1  1  6
  3  2  1  0
  4  3  1  0
  5  4  2  0
  6  5  1  0
  7  6  1  0
  7  8  2  0
  8  4  1  0
  9  2  1  0
  9 10  2  0
 12 11  1  0
 12 13  1  0
 13 14  1  0
 15 14  1  1
 15 17  1  0
 16 15  1  0
 16  9  1  0
 17 22  1  0
 18 17  2  0
 20 19  1  0
 21 22  1  0
 21 20  1  1
 23 21  1  0
 24 23  2  0
 25 23  1  0
M  END
$$$$
