HMS.pdb
     RDKit          3D

 25 25  0  0  1  0  0  0  0  0999 V2000
   10.1129  -13.6224   20.2667 N   0  0  0  0  0  0  0  0  0  0  0  0
    8.8605  -14.1493   20.7794 C   0  0  1  0  0  0  0  0  0  0  0  0
    8.3538  -15.2365   19.8474 C   0  0  0  0  0  0  0  0  0  0  0  0
    8.0561  -14.6450   18.4984 C   0  0  0  0  0  0  0  0  0  0  0  0
    8.6465  -15.0667   17.3356 C   0  0  0  0  0  0  0  0  0  0  0  0
    8.1201  -14.2947   16.3642 N   0  0  0  0  0  0  0  0  0  0  0  0
    7.2474  -13.4411   16.9152 C   0  0  0  0  0  0  0  0  0  0  0  0
    7.1929  -13.6450   18.2537 N   0  0  0  0  0  0  0  0  0  0  0  0
    9.0313  -14.7388   22.1167 C   0  0  0  0  0  0  0  0  0  0  0  0
   10.0924  -15.3437   22.3900 O   0  0  0  0  0  0  0  0  0  0  0  0
    7.0135  -11.6997   27.9853 C   0  0  0  0  0  0  0  0  0  0  0  0
    6.1109  -11.8557   26.4174 S   0  0  0  0  0  0  0  0  0  0  0  0
    7.2108  -12.5950   25.1476 C   0  0  0  0  0  0  0  0  0  0  0  0
    7.1530  -14.0968   25.2354 C   0  0  0  0  0  0  0  0  0  0  0  0
    8.2419  -14.8047   24.5020 C   0  0  2  0  0  0  0  0  0  0  0  0
    8.0066  -14.6174   23.0705 N   0  0  0  0  0  0  0  0  0  0  0  0
    8.3363  -16.2511   24.7546 C   0  0  0  0  0  0  0  0  0  0  0  0
    7.3029  -16.9475   24.5793 O   0  0  0  0  0  0  0  0  0  0  0  0
   11.8485  -18.0600   25.2386 O   0  0  0  0  0  0  0  0  0  0  0  0
   10.7885  -18.9254   24.9629 C   0  0  0  0  0  0  0  0  0  0  0  0
    9.5409  -18.2467   25.5436 C   0  0  2  0  0  0  0  0  0  0  0  0
    9.5405  -16.8451   25.1792 N   0  0  0  0  0  0  0  0  0  0  0  0
    9.5303  -18.4423   27.0042 C   0  0  0  0  0  0  0  0  0  0  0  0
    9.5529  -17.4504   27.7586 O   0  0  0  0  0  0  0  0  0  0  0  0
    9.4960  -19.6991   27.5419 O   0  0  0  0  0  0  0  0  0  0  0  0
  2  1  1  6
  3  2  1  0
  4  3  1  0
  5  4  2  0
  6  5  1  0
  7  6  1  0
  7  8  2  0
  8  4  1  0
  9  2  1  0
  9 10  2  0
 12 11  1  0
 12 13  1  0
 13 14  1  0
 15 14  1  1
 15 17  1  0
 16 15  1  0
 16  9  1  0
 17 22  1  0
 18 17  2  0
 20 19  1  0
 21 22  1  0
 21 20  1  1
 23 21  1  0
 24 23  2  0
 25 23  1  0
M  END
$$$$
