HMS.pdb
     RDKit          3D

 25 25  0  0  1  0  0  0  0  0999 V2000
    7.6614  -15.5856   20.8472 N   0  0  0  0  0  0  0  0  0  0  0  0
    9.0897  -15.5017   21.0959 C   0  0  1  0  0  0  0  0  0  0  0  0
    9.6843  -14.3956   20.2413 C   0  0  0  0  0  0  0  0  0  0  0  0
    8.8573  -14.2191   18.9990 C   0  0  0  0  0  0  0  0  0  0  0  0
    7.9176  -13.2337   18.8442 C   0  0  0  0  0  0  0  0  0  0  0  0
    7.4045  -13.4161   17.6112 N   0  0  0  0  0  0  0  0  0  0  0  0
    8.0081  -14.4679   17.0429 C   0  0  0  0  0  0  0  0  0  0  0  0
    8.9231  -14.9858   17.8976 N   0  0  0  0  0  0  0  0  0  0  0  0
    9.3737  -15.1907   22.5058 C   0  0  0  0  0  0  0  0  0  0  0  0
   10.5418  -14.8969   22.8463 O   0  0  0  0  0  0  0  0  0  0  0  0
    6.0951  -12.5961   27.5957 C   0  0  0  0  0  0  0  0  0  0  0  0
    6.9637  -11.6841   26.2877 S   0  0  0  0  0  0  0  0  0  0  0  0
    7.3870  -12.8304   24.9181 C   0  0  0  0  0  0  0  0  0  0  0  0
    7.4537  -14.2419   25.4373 C   0  0  0  0  0  0  0  0  0  0  0  0
    8.5756  -15.0549   24.8852 C   0  0  2  0  0  0  0  0  0  0  0  0
    8.3358  -15.2259   23.4524 N   0  0  0  0  0  0  0  0  0  0  0  0
    8.7351  -16.3933   25.4751 C   0  0  0  0  0  0  0  0  0  0  0  0
    7.7639  -17.1897   25.3980 O   0  0  0  0  0  0  0  0  0  0  0  0
   12.1284  -18.1908   25.7144 O   0  0  0  0  0  0  0  0  0  0  0  0
   10.9817  -18.9664   25.8936 C   0  0  0  0  0  0  0  0  0  0  0  0
   10.0174  -18.0940   26.7079 C   0  0  2  0  0  0  0  0  0  0  0  0
    9.9328  -16.7787   26.1077 N   0  0  0  0  0  0  0  0  0  0  0  0
   10.4888  -18.0400   28.1031 C   0  0  0  0  0  0  0  0  0  0  0  0
   10.7999  -16.9428   28.6062 O   0  0  0  0  0  0  0  0  0  0  0  0
   10.5890  -19.1794   28.8527 O   0  0  0  0  0  0  0  0  0  0  0  0
  2  1  1  1
  3  2  1  0
  4  3  1  0
  5  4  2  0
  6  5  1  0
  7  6  1  0
  7  8  2  0
  8  4  1  0
  9  2  1  0
  9 10  2  0
 12 11  1  0
 12 13  1  0
 13 14  1  0
 15 14  1  1
 15 17  1  0
 16 15  1  0
 16  9  1  0
 17 22  1  0
 18 17  2  0
 20 19  1  0
 21 22  1  0
 21 20  1  6
 23 21  1  0
 24 23  2  0
 25 23  1  0
M  END
$$$$
