HMS.pdb
     RDKit          3D

 25 25  0  0  1  0  0  0  0  0999 V2000
   10.7651  -13.9989   20.5108 N   0  0  0  0  0  0  0  0  0  0  0  0
    9.4186  -14.1549   21.0320 C   0  0  1  0  0  0  0  0  0  0  0  0
    8.6899  -15.2197   20.2305 C   0  0  0  0  0  0  0  0  0  0  0  0
    8.3540  -14.6827   18.8678 C   0  0  0  0  0  0  0  0  0  0  0  0
    8.7642  -13.4576   18.4104 C   0  0  0  0  0  0  0  0  0  0  0  0
    8.2618  -13.3519   17.1642 N   0  0  0  0  0  0  0  0  0  0  0  0
    7.5760  -14.4663   16.8785 C   0  0  0  0  0  0  0  0  0  0  0  0
    7.6219  -15.3138   17.9346 N   0  0  0  0  0  0  0  0  0  0  0  0
    9.4321  -14.5755   22.4420 C   0  0  0  0  0  0  0  0  0  0  0  0
   10.4629  -15.1051   22.9148 O   0  0  0  0  0  0  0  0  0  0  0  0
    7.3330  -11.6663   27.9099 C   0  0  0  0  0  0  0  0  0  0  0  0
    6.1262  -11.7978   26.5595 S   0  0  0  0  0  0  0  0  0  0  0  0
    6.9367  -12.5236   25.0813 C   0  0  0  0  0  0  0  0  0  0  0  0
    7.0503  -14.0160   25.2437 C   0  0  0  0  0  0  0  0  0  0  0  0
    8.3002  -14.6086   24.6858 C   0  0  2  0  0  0  0  0  0  0  0  0
    8.2931  -14.3791   23.2412 N   0  0  0  0  0  0  0  0  0  0  0  0
    8.4679  -16.0533   24.9087 C   0  0  0  0  0  0  0  0  0  0  0  0
    7.5533  -16.8200   24.5097 O   0  0  0  0  0  0  0  0  0  0  0  0
   11.9365  -17.7570   25.3778 O   0  0  0  0  0  0  0  0  0  0  0  0
   10.8639  -18.6206   25.1495 C   0  0  0  0  0  0  0  0  0  0  0  0
    9.6629  -17.9827   25.8602 C   0  0  2  0  0  0  0  0  0  0  0  0
    9.6119  -16.5696   25.5472 N   0  0  0  0  0  0  0  0  0  0  0  0
    9.7828  -18.2282   27.3083 C   0  0  0  0  0  0  0  0  0  0  0  0
    9.8292  -17.2626   28.0951 O   0  0  0  0  0  0  0  0  0  0  0  0
    9.8436  -19.5030   27.7994 O   0  0  0  0  0  0  0  0  0  0  0  0
  2  1  1  6
  3  2  1  0
  4  3  1  0
  5  4  2  0
  6  5  1  0
  7  6  1  0
  7  8  2  0
  8  4  1  0
  9  2  1  0
  9 10  2  0
 12 11  1  0
 12 13  1  0
 13 14  1  0
 15 14  1  6
 15 17  1  0
 16 15  1  0
 16  9  1  0
 17 22  1  0
 18 17  2  0
 20 19  1  0
 21 22  1  0
 21 20  1  6
 23 21  1  0
 24 23  2  0
 25 23  1  0
M  END
$$$$
