HQC.pdb
     RDKit          3D

 26 26  0  0  1  0  0  0  0  0999 V2000
    9.1696  -17.0808   19.5416 N   0  0  0  0  0  0  0  0  0  0  0  0
    9.2160  -16.1734   20.6369 C   0  0  1  0  0  0  0  0  0  0  0  0
    7.9524  -15.3512   20.7092 C   0  0  0  0  0  0  0  0  0  0  0  0
    7.7843  -14.4416   19.5808 C   0  0  0  0  0  0  0  0  0  0  0  0
    8.6423  -14.3266   18.5130 C   0  0  0  0  0  0  0  0  0  0  0  0
    8.1800  -13.3998   17.6696 N   0  0  0  0  0  0  0  0  0  0  0  0
    7.0418  -12.9339   18.1989 C   0  0  0  0  0  0  0  0  0  0  0  0
    6.7913  -13.5673   19.3714 N   0  0  0  0  0  0  0  0  0  0  0  0
    9.3861  -16.8702   21.9504 C   0  0  0  0  0  0  0  0  0  0  0  0
    8.5326  -17.7174   22.3175 O   0  0  0  0  0  0  0  0  0  0  0  0
   13.6771  -20.2204   23.6828 N   0  0  0  0  0  0  0  0  0  0  0  0
   14.0429  -18.9374   23.2216 C   0  0  0  0  0  0  0  0  0  0  0  0
   15.2143  -18.8153   22.7450 O   0  0  0  0  0  0  0  0  0  0  0  0
   13.0968  -17.7924   23.2943 C   0  0  0  0  0  0  0  0  0  0  0  0
   11.8045  -18.2909   23.8331 C   0  0  0  0  0  0  0  0  0  0  0  0
   10.7530  -17.2339   24.0032 C   0  0  2  0  0  0  0  0  0  0  0  0
   10.5115  -16.5547   22.7506 N   0  0  0  0  0  0  0  0  0  0  0  0
   11.0406  -16.2548   25.0428 C   0  0  0  0  0  0  0  0  0  0  0  0
   11.9648  -15.3965   24.9838 O   0  0  0  0  0  0  0  0  0  0  0  0
   10.2419  -16.2407   26.2167 N   0  0  0  0  0  0  0  0  0  0  0  0
   10.5628  -15.3726   27.3258 C   0  0  1  0  0  0  0  0  0  0  0  0
    9.4226  -14.4242   27.6275 C   0  0  0  0  0  0  0  0  0  0  0  0
    8.9935  -13.5856   26.0806 S   0  0  0  0  0  0  0  0  0  0  0  0
   10.8510  -16.2077   28.5151 C   0  0  0  0  0  0  0  0  0  0  0  0
   10.7461  -17.4494   28.4476 O   0  0  0  0  0  0  0  0  0  0  0  0
   11.2421  -15.6533   29.7305 O   0  0  0  0  0  0  0  0  0  0  0  0
  2  1  1  6
  3  4  1  0
  3  2  1  0
  4  8  1  0
  5  6  1  0
  5  4  2  0
  6  7  1  0
  7  8  2  0
  9  2  1  0
  9 17  1  0
 10  9  2  0
 11 12  1  0
 12 14  1  0
 13 12  2  0
 15 14  1  0
 16 15  1  6
 16 18  1  0
 17 16  1  0
 18 19  2  0
 18 20  1  0
 20 21  1  0
 21 24  1  0
 22 23  1  0
 21 22  1  1
 24 25  2  0
 24 26  1  0
M  END
$$$$
