HQC.pdb
     RDKit          3D

 26 26  0  0  1  0  0  0  0  0999 V2000
    6.4647  -16.5094   19.7428 N   0  0  0  0  0  0  0  0  0  0  0  0
    7.3985  -15.8291   20.5738 C   0  0  1  0  0  0  0  0  0  0  0  0
    7.5897  -14.4041   20.1149 C   0  0  0  0  0  0  0  0  0  0  0  0
    8.2141  -14.2944   18.8008 C   0  0  0  0  0  0  0  0  0  0  0  0
    7.6592  -13.6835   17.7014 C   0  0  0  0  0  0  0  0  0  0  0  0
    8.5052  -13.7693   16.6714 N   0  0  0  0  0  0  0  0  0  0  0  0
    9.5834  -14.4276   17.1152 C   0  0  0  0  0  0  0  0  0  0  0  0
    9.4136  -14.7535   18.4204 N   0  0  0  0  0  0  0  0  0  0  0  0
    6.9707  -15.7963   22.0075 C   0  0  0  0  0  0  0  0  0  0  0  0
    5.9304  -15.1679   22.3295 O   0  0  0  0  0  0  0  0  0  0  0  0
    8.2287  -20.1841   26.0850 N   0  0  0  0  0  0  0  0  0  0  0  0
    7.6645  -19.2154   26.9429 C   0  0  0  0  0  0  0  0  0  0  0  0
    7.4459  -19.5738   28.1421 O   0  0  0  0  0  0  0  0  0  0  0  0
    7.3457  -17.8464   26.4574 C   0  0  0  0  0  0  0  0  0  0  0  0
    7.6416  -17.7889   25.0021 C   0  0  0  0  0  0  0  0  0  0  0  0
    7.4113  -16.4458   24.3738 C   0  0  2  0  0  0  0  0  0  0  0  0
    7.7544  -16.4787   22.9702 N   0  0  0  0  0  0  0  0  0  0  0  0
    8.1113  -15.3452   25.0225 C   0  0  0  0  0  0  0  0  0  0  0  0
    9.3413  -15.0959   24.8831 O   0  0  0  0  0  0  0  0  0  0  0  0
    7.3852  -14.4748   25.8776 N   0  0  0  0  0  0  0  0  0  0  0  0
    8.0485  -13.4106   26.5947 C   0  0  1  0  0  0  0  0  0  0  0  0
    7.1700  -12.1818   26.6882 C   0  0  0  0  0  0  0  0  0  0  0  0
    5.5728  -12.7091   27.3598 S   0  0  0  0  0  0  0  0  0  0  0  0
    8.3866  -13.8923   27.9543 C   0  0  0  0  0  0  0  0  0  0  0  0
    7.9707  -15.0017   28.3460 O   0  0  0  0  0  0  0  0  0  0  0  0
    9.1652  -13.1430   28.8318 O   0  0  0  0  0  0  0  0  0  0  0  0
  2  1  1  6
  3  4  1  0
  3  2  1  0
  4  8  1  0
  5  6  1  0
  5  4  2  0
  6  7  1  0
  7  8  2  0
  9  2  1  0
  9 17  1  0
 10  9  2  0
 11 12  1  0
 12 14  1  0
 13 12  2  0
 15 14  1  0
 16 15  1  1
 16 18  1  0
 17 16  1  0
 18 19  2  0
 18 20  1  0
 20 21  1  0
 21 24  1  0
 22 23  1  0
 21 22  1  1
 24 25  2  0
 24 26  1  0
M  END
$$$$
