HQC.pdb
     RDKit          3D

 26 26  0  0  1  0  0  0  0  0999 V2000
   12.1959  -22.0938   19.5236 N   0  0  0  0  0  0  0  0  0  0  0  0
   12.7266  -21.0821   20.3722 C   0  0  1  0  0  0  0  0  0  0  0  0
   12.0385  -19.7607   20.1305 C   0  0  0  0  0  0  0  0  0  0  0  0
   12.0910  -19.3226   18.7398 C   0  0  0  0  0  0  0  0  0  0  0  0
   13.2261  -18.9401   18.0653 C   0  0  0  0  0  0  0  0  0  0  0  0
   12.9060  -18.6021   16.8133 N   0  0  0  0  0  0  0  0  0  0  0  0
   11.5826  -18.7692   16.6979 C   0  0  0  0  0  0  0  0  0  0  0  0
   11.0743  -19.2110   17.8748 N   0  0  0  0  0  0  0  0  0  0  0  0
   12.5800  -21.4175   21.8233 C   0  0  0  0  0  0  0  0  0  0  0  0
   11.4334  -21.6114   22.3016 O   0  0  0  0  0  0  0  0  0  0  0  0
   16.9224  -24.4271   24.9363 N   0  0  0  0  0  0  0  0  0  0  0  0
   17.2160  -23.0597   24.7440 C   0  0  0  0  0  0  0  0  0  0  0  0
   18.4353  -22.7181   24.8485 O   0  0  0  0  0  0  0  0  0  0  0  0
   16.1442  -22.0763   24.4349 C   0  0  0  0  0  0  0  0  0  0  0  0
   14.8551  -22.8094   24.3368 C   0  0  0  0  0  0  0  0  0  0  0  0
   13.6740  -21.9472   23.9998 C   0  0  2  0  0  0  0  0  0  0  0  0
   13.7445  -21.5082   22.6247 N   0  0  0  0  0  0  0  0  0  0  0  0
   13.4965  -20.7945   24.8726 C   0  0  0  0  0  0  0  0  0  0  0  0
   13.7859  -19.6061   24.5590 O   0  0  0  0  0  0  0  0  0  0  0  0
   12.9624  -20.9904   26.1736 N   0  0  0  0  0  0  0  0  0  0  0  0
   12.7371  -19.8741   27.0624 C   0  0  1  0  0  0  0  0  0  0  0  0
   11.6009  -19.0031   26.5716 C   0  0  0  0  0  0  0  0  0  0  0  0
   10.0994  -20.0157   26.5839 S   0  0  0  0  0  0  0  0  0  0  0  0
   12.4234  -20.3974   28.4124 C   0  0  0  0  0  0  0  0  0  0  0  0
   12.2191  -21.6172   28.5784 O   0  0  0  0  0  0  0  0  0  0  0  0
   12.3452  -19.5675   29.5272 O   0  0  0  0  0  0  0  0  0  0  0  0
  2  1  1  6
  3  4  1  0
  3  2  1  0
  4  8  1  0
  5  6  1  0
  5  4  2  0
  6  7  1  0
  7  8  2  0
  9  2  1  0
  9 17  1  0
 10  9  2  0
 11 12  1  0
 12 14  1  0
 13 12  2  0
 15 14  1  0
 16 15  1  1
 16 18  1  0
 17 16  1  0
 18 19  2  0
 18 20  1  0
 20 21  1  0
 21 24  1  0
 22 23  1  0
 21 22  1  6
 24 25  2  0
 24 26  1  0
M  END
$$$$
