HQC.pdb
     RDKit          3D

 26 26  0  0  1  0  0  0  0  0999 V2000
    6.8010  -16.8537   19.7636 N   0  0  0  0  0  0  0  0  0  0  0  0
    7.7049  -16.0283   20.4895 C   0  0  1  0  0  0  0  0  0  0  0  0
    7.5563  -14.5816   20.0858 C   0  0  0  0  0  0  0  0  0  0  0  0
    7.9691  -14.3152   18.7119 C   0  0  0  0  0  0  0  0  0  0  0  0
    7.8673  -13.1051   18.0678 C   0  0  0  0  0  0  0  0  0  0  0  0
    8.3389  -13.2232   16.8237 N   0  0  0  0  0  0  0  0  0  0  0  0
    8.7346  -14.4945   16.6832 C   0  0  0  0  0  0  0  0  0  0  0  0
    8.5115  -15.1718   17.8365 N   0  0  0  0  0  0  0  0  0  0  0  0
    7.4975  -16.1157   21.9690 C   0  0  0  0  0  0  0  0  0  0  0  0
    6.3285  -16.1762   22.4283 O   0  0  0  0  0  0  0  0  0  0  0  0
   11.3215  -18.8859   25.7951 N   0  0  0  0  0  0  0  0  0  0  0  0
   10.5797  -18.1486   26.7432 C   0  0  0  0  0  0  0  0  0  0  0  0
   10.8571  -18.3508   27.9665 O   0  0  0  0  0  0  0  0  0  0  0  0
    9.5282  -17.1856   26.3207 C   0  0  0  0  0  0  0  0  0  0  0  0
    9.5301  -17.1174   24.8361 C   0  0  0  0  0  0  0  0  0  0  0  0
    8.4889  -16.2065   24.2546 C   0  0  2  0  0  0  0  0  0  0  0  0
    8.6310  -16.1281   22.8184 N   0  0  0  0  0  0  0  0  0  0  0  0
    8.4755  -14.8635   24.8186 C   0  0  0  0  0  0  0  0  0  0  0  0
    9.2446  -13.9278   24.4615 O   0  0  0  0  0  0  0  0  0  0  0  0
    7.5427  -14.5554   25.8438 N   0  0  0  0  0  0  0  0  0  0  0  0
    7.4509  -13.2218   26.3915 C   0  0  1  0  0  0  0  0  0  0  0  0
    6.0141  -12.7494   26.4464 C   0  0  0  0  0  0  0  0  0  0  0  0
    6.0035  -11.1487   27.2935 S   0  0  0  0  0  0  0  0  0  0  0  0
    8.0316  -13.2268   27.7544 C   0  0  0  0  0  0  0  0  0  0  0  0
    8.1092  -14.2936   28.3972 O   0  0  0  0  0  0  0  0  0  0  0  0
    8.5043  -12.0665   28.3608 O   0  0  0  0  0  0  0  0  0  0  0  0
  2  1  1  6
  3  4  1  0
  3  2  1  0
  4  8  1  0
  5  6  1  0
  5  4  2  0
  6  7  1  0
  7  8  2  0
  9  2  1  0
  9 17  1  0
 10  9  2  0
 11 12  1  0
 12 14  1  0
 13 12  2  0
 15 14  1  0
 16 15  1  1
 16 18  1  0
 17 16  1  0
 18 19  2  0
 18 20  1  0
 20 21  1  0
 21 24  1  0
 22 23  1  0
 21 22  1  1
 24 25  2  0
 24 26  1  0
M  END
$$$$
