HQC.pdb
     RDKit          3D

 26 26  0  0  1  0  0  0  0  0999 V2000
   10.4658  -22.4141   13.2278 N   0  0  0  0  0  0  0  0  0  0  0  0
   11.0456  -21.3241   13.9356 C   0  0  1  0  0  0  0  0  0  0  0  0
    9.9911  -20.3234   14.3415 C   0  0  0  0  0  0  0  0  0  0  0  0
    9.4450  -19.5660   13.2204 C   0  0  0  0  0  0  0  0  0  0  0  0
   10.0173  -19.4579   11.9752 C   0  0  0  0  0  0  0  0  0  0  0  0
    9.2485  -18.6903   11.1982 N   0  0  0  0  0  0  0  0  0  0  0  0
    8.2015  -18.3171   11.9445 C   0  0  0  0  0  0  0  0  0  0  0  0
    8.3137  -18.8496   13.1865 N   0  0  0  0  0  0  0  0  0  0  0  0
   11.7632  -21.7626   15.1735 C   0  0  0  0  0  0  0  0  0  0  0  0
   11.1792  -22.5146   15.9947 O   0  0  0  0  0  0  0  0  0  0  0  0
   17.2072  -24.0241   15.3266 N   0  0  0  0  0  0  0  0  0  0  0  0
   17.1292  -22.7059   14.8275 C   0  0  0  0  0  0  0  0  0  0  0  0
   18.0661  -22.3324   14.0549 O   0  0  0  0  0  0  0  0  0  0  0  0
   16.0024  -21.8074   15.1940 C   0  0  0  0  0  0  0  0  0  0  0  0
   15.0517  -22.5754   16.0395 C   0  0  0  0  0  0  0  0  0  0  0  0
   13.8654  -21.7879   16.5133 C   0  0  2  0  0  0  0  0  0  0  0  0
   13.0900  -21.3158   15.3886 N   0  0  0  0  0  0  0  0  0  0  0  0
   14.1907  -20.6687   17.3871 C   0  0  0  0  0  0  0  0  0  0  0  0
   14.2823  -19.4672   17.0097 O   0  0  0  0  0  0  0  0  0  0  0  0
   14.4268  -20.9158   18.7652 N   0  0  0  0  0  0  0  0  0  0  0  0
   14.6976  -19.8318   19.6808 C   0  0  1  0  0  0  0  0  0  0  0  0
   13.6065  -19.7084   20.7224 C   0  0  0  0  0  0  0  0  0  0  0  0
   13.5043  -21.2955   21.5889 S   0  0  0  0  0  0  0  0  0  0  0  0
   15.9991  -20.0825   20.3426 C   0  0  0  0  0  0  0  0  0  0  0  0
   16.5281  -19.1925   21.0393 O   0  0  0  0  0  0  0  0  0  0  0  0
   16.6709  -21.2951   20.2169 O   0  0  0  0  0  0  0  0  0  0  0  0
  2  1  1  1
  3  4  1  0
  3  2  1  0
  4  8  1  0
  5  6  1  0
  5  4  2  0
  6  7  1  0
  7  8  2  0
  9  2  1  0
  9 17  1  0
 10  9  2  0
 11 12  1  0
 12 14  1  0
 13 12  2  0
 15 14  1  0
 16 15  1  6
 16 18  1  0
 17 16  1  0
 18 19  2  0
 18 20  1  0
 20 21  1  0
 21 24  1  0
 22 23  1  0
 21 22  1  1
 24 25  2  0
 24 26  1  0
M  END
$$$$
