HQC.pdb
     RDKit          3D

 26 26  0  0  1  0  0  0  0  0999 V2000
    8.4279  -17.8262   19.8849 N   0  0  0  0  0  0  0  0  0  0  0  0
    8.8727  -16.7442   20.6952 C   0  0  1  0  0  0  0  0  0  0  0  0
    7.7610  -15.7491   20.9228 C   0  0  0  0  0  0  0  0  0  0  0  0
    7.7600  -14.6482   19.9653 C   0  0  0  0  0  0  0  0  0  0  0  0
    8.6866  -14.4560   18.9682 C   0  0  0  0  0  0  0  0  0  0  0  0
    8.3787  -13.3518   18.2826 N   0  0  0  0  0  0  0  0  0  0  0  0
    7.2692  -12.8515   18.8405 C   0  0  0  0  0  0  0  0  0  0  0  0
    6.8825  -13.6403   19.8734 N   0  0  0  0  0  0  0  0  0  0  0  0
    9.3651  -17.1967   22.0340 C   0  0  0  0  0  0  0  0  0  0  0  0
    8.8356  -18.1959   22.5836 O   0  0  0  0  0  0  0  0  0  0  0  0
   14.9658  -18.4741   23.6293 N   0  0  0  0  0  0  0  0  0  0  0  0
   13.9044  -19.3621   23.3504 C   0  0  0  0  0  0  0  0  0  0  0  0
   14.2203  -20.4961   22.8724 O   0  0  0  0  0  0  0  0  0  0  0  0
   12.4904  -18.9796   23.6070 C   0  0  0  0  0  0  0  0  0  0  0  0
   12.4025  -17.4960   23.6031 C   0  0  0  0  0  0  0  0  0  0  0  0
   11.0295  -16.9542   23.8740 C   0  0  2  0  0  0  0  0  0  0  0  0
   10.4216  -16.4825   22.6506 N   0  0  0  0  0  0  0  0  0  0  0  0
   10.9808  -15.9029   24.8811 C   0  0  0  0  0  0  0  0  0  0  0  0
   11.0667  -14.6677   24.6333 O   0  0  0  0  0  0  0  0  0  0  0  0
   10.8266  -16.2621   26.2462 N   0  0  0  0  0  0  0  0  0  0  0  0
   10.6038  -15.2579   27.2604 C   0  0  1  0  0  0  0  0  0  0  0  0
    9.3510  -14.4584   26.9744 C   0  0  0  0  0  0  0  0  0  0  0  0
    9.1323  -13.2892   28.3402 S   0  0  0  0  0  0  0  0  0  0  0  0
   10.4832  -15.9292   28.5755 C   0  0  0  0  0  0  0  0  0  0  0  0
   10.0371  -17.0927   28.6452 O   0  0  0  0  0  0  0  0  0  0  0  0
   10.8545  -15.3032   29.7620 O   0  0  0  0  0  0  0  0  0  0  0  0
  2  1  1  6
  3  4  1  0
  3  2  1  0
  4  8  1  0
  5  6  1  0
  5  4  2  0
  6  7  1  0
  7  8  2  0
  9  2  1  0
  9 17  1  0
 10  9  2  0
 11 12  1  0
 12 14  1  0
 13 12  2  0
 15 14  1  0
 16 15  1  6
 16 18  1  0
 17 16  1  0
 18 19  2  0
 18 20  1  0
 20 21  1  0
 21 24  1  0
 22 23  1  0
 21 22  1  6
 24 25  2  0
 24 26  1  0
M  END
$$$$
