HQC.pdb
     RDKit          3D

 26 26  0  0  1  0  0  0  0  0999 V2000
    8.8113  -17.1343   19.2327 N   0  0  0  0  0  0  0  0  0  0  0  0
    8.6330  -15.9434   19.9910 C   0  0  1  0  0  0  0  0  0  0  0  0
    7.4837  -15.1277   19.4508 C   0  0  0  0  0  0  0  0  0  0  0  0
    7.7647  -14.5100   18.1592 C   0  0  0  0  0  0  0  0  0  0  0  0
    8.9352  -14.6387   17.4501 C   0  0  0  0  0  0  0  0  0  0  0  0
    8.8457  -13.9408   16.3148 N   0  0  0  0  0  0  0  0  0  0  0  0
    7.6314  -13.3769   16.3065 C   0  0  0  0  0  0  0  0  0  0  0  0
    6.9612  -13.7206   17.4341 N   0  0  0  0  0  0  0  0  0  0  0  0
    8.3599  -16.2206   21.4361 C   0  0  0  0  0  0  0  0  0  0  0  0
    7.3519  -16.9002   21.7569 O   0  0  0  0  0  0  0  0  0  0  0  0
   12.0829  -18.7138   25.1496 N   0  0  0  0  0  0  0  0  0  0  0  0
   11.0918  -19.2646   24.3087 C   0  0  0  0  0  0  0  0  0  0  0  0
   11.1797  -20.5079   24.0623 O   0  0  0  0  0  0  0  0  0  0  0  0
   10.0035  -18.4229   23.7444 C   0  0  0  0  0  0  0  0  0  0  0  0
   10.2163  -17.0234   24.1970 C   0  0  0  0  0  0  0  0  0  0  0  0
    9.1257  -16.0705   23.8038 C   0  0  2  0  0  0  0  0  0  0  0  0
    9.2503  -15.7067   22.4106 N   0  0  0  0  0  0  0  0  0  0  0  0
    9.0508  -14.8656   24.6189 C   0  0  0  0  0  0  0  0  0  0  0  0
    9.8529  -13.8937   24.5378 O   0  0  0  0  0  0  0  0  0  0  0  0
    8.0133  -14.7473   25.5810 N   0  0  0  0  0  0  0  0  0  0  0  0
    8.0117  -13.6732   26.5470 C   0  0  1  0  0  0  0  0  0  0  0  0
    6.6130  -13.1414   26.7733 C   0  0  0  0  0  0  0  0  0  0  0  0
    6.1762  -12.1377   25.3304 S   0  0  0  0  0  0  0  0  0  0  0  0
    8.5700  -14.1801   27.8222 C   0  0  0  0  0  0  0  0  0  0  0  0
    8.8337  -15.3931   27.9511 O   0  0  0  0  0  0  0  0  0  0  0  0
    8.8179  -13.3422   28.9056 O   0  0  0  0  0  0  0  0  0  0  0  0
  2  1  1  6
  3  4  1  0
  3  2  1  0
  4  8  1  0
  5  6  1  0
  5  4  2  0
  6  7  1  0
  7  8  2  0
  9  2  1  0
  9 17  1  0
 10  9  2  0
 11 12  1  0
 12 14  1  0
 13 12  2  0
 15 14  1  0
 16 15  1  1
 16 18  1  0
 17 16  1  0
 18 19  2  0
 18 20  1  0
 20 21  1  0
 21 24  1  0
 22 23  1  0
 21 22  1  1
 24 25  2  0
 24 26  1  0
M  END
$$$$
