HTC.pdb
     RDKit          3D

 24 24  0  0  1  0  0  0  0  0999 V2000
   11.7780  -15.6625   17.9911 N   0  0  0  0  0  0  0  0  0  0  0  0
   12.0962  -15.3899   19.3581 C   0  0  1  0  0  0  0  0  0  0  0  0
   12.8095  -14.0559   19.4365 C   0  0  0  0  0  0  0  0  0  0  0  0
   14.2228  -14.2828   19.0042 C   0  0  0  0  0  0  0  0  0  0  0  0
   15.2754  -14.6706   19.8338 C   0  0  0  0  0  0  0  0  0  0  0  0
   16.3952  -14.7760   19.1001 N   0  0  0  0  0  0  0  0  0  0  0  0
   16.0591  -14.4629   17.8385 C   0  0  0  0  0  0  0  0  0  0  0  0
   14.7413  -14.1639   17.7816 N   0  0  0  0  0  0  0  0  0  0  0  0
   10.8787  -15.3686   20.2266 C   0  0  0  0  0  0  0  0  0  0  0  0
    9.8596  -14.7419   19.8382 O   0  0  0  0  0  0  0  0  0  0  0  0
    8.3614  -17.8085   20.9904 C   0  0  0  0  0  0  0  0  0  0  0  0
    8.9979  -17.4485   22.2964 C   0  0  1  0  0  0  0  0  0  0  0  0
    9.9697  -18.3494   22.7047 O   0  0  0  0  0  0  0  0  0  0  0  0
    9.6383  -16.0655   22.2723 C   0  0  2  0  0  0  0  0  0  0  0  0
   10.8286  -16.0338   21.4826 N   0  0  0  0  0  0  0  0  0  0  0  0
    9.8831  -15.6996   23.6957 C   0  0  0  0  0  0  0  0  0  0  0  0
   11.0352  -15.8454   24.1770 O   0  0  0  0  0  0  0  0  0  0  0  0
    8.8638  -15.1851   24.5529 N   0  0  0  0  0  0  0  0  0  0  0  0
    9.0691  -14.9395   25.9567 C   0  0  1  0  0  0  0  0  0  0  0  0
    7.8719  -14.2477   26.5897 C   0  0  0  0  0  0  0  0  0  0  0  0
    8.0367  -12.4765   26.2325 S   0  0  0  0  0  0  0  0  0  0  0  0
    9.2882  -16.2253   26.6584 C   0  0  0  0  0  0  0  0  0  0  0  0
    9.9518  -16.2210   27.8643 O   0  0  0  0  0  0  0  0  0  0  0  0
    8.8867  -17.3130   26.1846 O   0  0  0  0  0  0  0  0  0  0  0  0
  2  3  1  0
  2  1  1  6
  4  3  1  0
  5  4  2  0
  6  7  1  0
  6  5  1  0
  7  8  2  0
  8  4  1  0
  9 10  2  0
  9  2  1  0
 12 11  1  6
 12 14  1  0
 13 12  1  0
 14 15  1  6
 15  9  1  0
 16 14  1  0
 17 16  2  0
 18 16  1  0
 19 18  1  0
 20 21  1  0
 19 20  1  1
 22 23  1  0
 22 19  1  0
 24 22  2  0
M  END
$$$$
