HTC.pdb
     RDKit          3D

 24 24  0  0  1  0  0  0  0  0999 V2000
   13.7365  -19.5233   16.8895 N   0  0  0  0  0  0  0  0  0  0  0  0
   13.9752  -18.1141   16.9272 C   0  0  1  0  0  0  0  0  0  0  0  0
   13.9219  -17.5720   15.5138 C   0  0  0  0  0  0  0  0  0  0  0  0
   15.1734  -18.0111   14.8232 C   0  0  0  0  0  0  0  0  0  0  0  0
   16.4727  -17.6643   15.1951 C   0  0  0  0  0  0  0  0  0  0  0  0
   17.3395  -18.2410   14.3469 N   0  0  0  0  0  0  0  0  0  0  0  0
   16.6069  -18.9347   13.4611 C   0  0  0  0  0  0  0  0  0  0  0  0
   15.2932  -18.7945   13.7510 N   0  0  0  0  0  0  0  0  0  0  0  0
   12.9821  -17.3972   17.7858 C   0  0  0  0  0  0  0  0  0  0  0  0
   13.0325  -16.1429   17.8645 O   0  0  0  0  0  0  0  0  0  0  0  0
    9.0291  -17.7528   18.1703 C   0  0  0  0  0  0  0  0  0  0  0  0
    9.7237  -17.9523   19.4810 C   0  0  1  0  0  0  0  0  0  0  0  0
    9.7827  -19.2792   19.8791 O   0  0  0  0  0  0  0  0  0  0  0  0
   11.1496  -17.4136   19.4741 C   0  0  2  0  0  0  0  0  0  0  0  0
   11.9768  -18.0836   18.5211 N   0  0  0  0  0  0  0  0  0  0  0  0
   11.6506  -17.5552   20.8701 C   0  0  0  0  0  0  0  0  0  0  0  0
   12.6675  -18.2613   21.0881 O   0  0  0  0  0  0  0  0  0  0  0  0
   11.0277  -16.9222   21.9881 N   0  0  0  0  0  0  0  0  0  0  0  0
   11.4882  -17.0901   23.3420 C   0  0  1  0  0  0  0  0  0  0  0  0
   10.7627  -16.1624   24.3039 C   0  0  0  0  0  0  0  0  0  0  0  0
   11.4444  -16.4775   25.9556 S   0  0  0  0  0  0  0  0  0  0  0  0
   11.2535  -18.4866   23.7760 C   0  0  0  0  0  0  0  0  0  0  0  0
   12.2432  -19.1425   24.4722 O   0  0  0  0  0  0  0  0  0  0  0  0
   10.1813  -19.0843   23.5270 O   0  0  0  0  0  0  0  0  0  0  0  0
  2  3  1  0
  2  1  1  6
  4  3  1  0
  5  4  2  0
  6  7  1  0
  6  5  1  0
  7  8  2  0
  8  4  1  0
  9 10  2  0
  9  2  1  0
 12 11  1  6
 12 14  1  0
 13 12  1  0
 14 15  1  6
 15  9  1  0
 16 14  1  0
 17 16  2  0
 18 16  1  0
 19 18  1  0
 20 21  1  0
 19 20  1  1
 22 23  1  0
 22 19  1  0
 24 22  2  0
M  END
$$$$
