HTC.pdb
     RDKit          3D

 24 24  0  0  1  0  0  0  0  0999 V2000
   11.3886  -15.0372   18.2706 N   0  0  0  0  0  0  0  0  0  0  0  0
   11.8553  -15.1668   19.6159 C   0  0  1  0  0  0  0  0  0  0  0  0
   12.8397  -14.0514   19.9006 C   0  0  0  0  0  0  0  0  0  0  0  0
   14.1366  -14.4305   19.2602 C   0  0  0  0  0  0  0  0  0  0  0  0
   14.6218  -15.7302   19.1119 C   0  0  0  0  0  0  0  0  0  0  0  0
   15.8127  -15.6851   18.4928 N   0  0  0  0  0  0  0  0  0  0  0  0
   16.0738  -14.3896   18.2556 C   0  0  0  0  0  0  0  0  0  0  0  0
   15.0565  -13.6297   18.7215 N   0  0  0  0  0  0  0  0  0  0  0  0
   10.7360  -15.1241   20.6072 C   0  0  0  0  0  0  0  0  0  0  0  0
    9.8014  -14.2989   20.4412 O   0  0  0  0  0  0  0  0  0  0  0  0
    7.8664  -17.1609   21.4824 C   0  0  0  0  0  0  0  0  0  0  0  0
    8.7317  -17.1076   22.7024 C   0  0  1  0  0  0  0  0  0  0  0  0
    9.5284  -18.2308   22.8648 O   0  0  0  0  0  0  0  0  0  0  0  0
    9.6497  -15.8908   22.7145 C   0  0  2  0  0  0  0  0  0  0  0  0
   10.6877  -15.9861   21.7373 N   0  0  0  0  0  0  0  0  0  0  0  0
   10.1767  -15.7856   24.1042 C   0  0  0  0  0  0  0  0  0  0  0  0
   11.3101  -16.2609   24.3679 O   0  0  0  0  0  0  0  0  0  0  0  0
    9.4517  -15.1649   25.1661 N   0  0  0  0  0  0  0  0  0  0  0  0
    9.9029  -15.1719   26.5334 C   0  0  1  0  0  0  0  0  0  0  0  0
    9.0896  -14.2240   27.4010 C   0  0  0  0  0  0  0  0  0  0  0  0
    9.2156  -12.5790   26.6459 S   0  0  0  0  0  0  0  0  0  0  0  0
    9.7751  -16.5382   27.0908 C   0  0  0  0  0  0  0  0  0  0  0  0
   10.3129  -16.8048   28.3294 O   0  0  0  0  0  0  0  0  0  0  0  0
    9.1923  -17.4544   26.4665 O   0  0  0  0  0  0  0  0  0  0  0  0
  2  3  1  0
  2  1  1  6
  4  3  1  0
  5  4  2  0
  6  7  1  0
  6  5  1  0
  7  8  2  0
  8  4  1  0
  9 10  2  0
  9  2  1  0
 12 11  1  6
 12 14  1  0
 13 12  1  0
 14 15  1  6
 15  9  1  0
 16 14  1  0
 17 16  2  0
 18 16  1  0
 19 18  1  0
 20 21  1  0
 19 20  1  1
 22 23  1  0
 22 19  1  0
 24 22  2  0
M  END
$$$$
