HTC.pdb
     RDKit          3D

 24 24  0  0  1  0  0  0  0  0999 V2000
    9.3035  -15.6522   15.0100 N   0  0  0  0  0  0  0  0  0  0  0  0
    8.8865  -16.3207   16.2031 C   0  0  1  0  0  0  0  0  0  0  0  0
    9.3869  -17.7498   16.1621 C   0  0  0  0  0  0  0  0  0  0  0  0
    8.5925  -18.4679   15.1183 C   0  0  0  0  0  0  0  0  0  0  0  0
    7.2879  -18.9389   15.2693 C   0  0  0  0  0  0  0  0  0  0  0  0
    6.9007  -19.5295   14.1270 N   0  0  0  0  0  0  0  0  0  0  0  0
    7.9344  -19.4343   13.2754 C   0  0  0  0  0  0  0  0  0  0  0  0
    8.9599  -18.7901   13.8778 N   0  0  0  0  0  0  0  0  0  0  0  0
    9.3900  -15.6397   17.4359 C   0  0  0  0  0  0  0  0  0  0  0  0
   10.5653  -15.1921   17.4523 O   0  0  0  0  0  0  0  0  0  0  0  0
    7.5503  -12.7627   19.5747 C   0  0  0  0  0  0  0  0  0  0  0  0
    7.9536  -13.9425   20.4027 C   0  0  1  0  0  0  0  0  0  0  0  0
    6.9037  -14.8019   20.6889 O   0  0  0  0  0  0  0  0  0  0  0  0
    9.0538  -14.7681   19.7459 C   0  0  2  0  0  0  0  0  0  0  0  0
    8.5857  -15.4777   18.5976 N   0  0  0  0  0  0  0  0  0  0  0  0
    9.5788  -15.6735   20.8065 C   0  0  0  0  0  0  0  0  0  0  0  0
    9.2279  -16.8805   20.8112 O   0  0  0  0  0  0  0  0  0  0  0  0
   10.4714  -15.2357   21.8312 N   0  0  0  0  0  0  0  0  0  0  0  0
   11.0080  -16.1183   22.8343 C   0  0  1  0  0  0  0  0  0  0  0  0
   12.1128  -15.4523   23.6394 C   0  0  0  0  0  0  0  0  0  0  0  0
   12.7008  -16.6772   24.8418 S   0  0  0  0  0  0  0  0  0  0  0  0
    9.9308  -16.5217   23.7674 C   0  0  0  0  0  0  0  0  0  0  0  0
    9.9786  -17.7733   24.3381 O   0  0  0  0  0  0  0  0  0  0  0  0
    8.9805  -15.7562   24.0497 O   0  0  0  0  0  0  0  0  0  0  0  0
  2  3  1  0
  2  1  1  6
  4  3  1  0
  5  4  2  0
  6  7  1  0
  6  5  1  0
  7  8  2  0
  8  4  1  0
  9 10  2  0
  9  2  1  0
 12 11  1  6
 12 14  1  0
 13 12  1  0
 14 15  1  6
 15  9  1  0
 16 14  1  0
 17 16  2  0
 18 16  1  0
 19 18  1  0
 20 21  1  0
 19 20  1  1
 22 23  1  0
 22 19  1  0
 24 22  2  0
M  END
$$$$
