HTC.pdb
     RDKit          3D

 24 24  0  0  1  0  0  0  0  0999 V2000
   11.7707  -14.7531   17.5751 N   0  0  0  0  0  0  0  0  0  0  0  0
   12.0211  -14.8924   18.9759 C   0  0  1  0  0  0  0  0  0  0  0  0
   13.3401  -14.2242   19.3047 C   0  0  0  0  0  0  0  0  0  0  0  0
   14.4281  -15.1597   18.8838 C   0  0  0  0  0  0  0  0  0  0  0  0
   14.2581  -16.4980   18.5278 C   0  0  0  0  0  0  0  0  0  0  0  0
   15.4530  -17.0213   18.2088 N   0  0  0  0  0  0  0  0  0  0  0  0
   16.3556  -16.0388   18.3593 C   0  0  0  0  0  0  0  0  0  0  0  0
   15.7327  -14.9101   18.7688 N   0  0  0  0  0  0  0  0  0  0  0  0
   10.9278  -14.2978   19.8056 C   0  0  0  0  0  0  0  0  0  0  0  0
   10.5773  -13.1082   19.5961 O   0  0  0  0  0  0  0  0  0  0  0  0
    7.2994  -14.5065   20.1025 C   0  0  0  0  0  0  0  0  0  0  0  0
    7.8786  -14.9968   21.3925 C   0  0  1  0  0  0  0  0  0  0  0  0
    7.9692  -16.3784   21.4682 O   0  0  0  0  0  0  0  0  0  0  0  0
    9.2691  -14.4325   21.6601 C   0  0  2  0  0  0  0  0  0  0  0  0
   10.2653  -15.0305   20.8287 N   0  0  0  0  0  0  0  0  0  0  0  0
    9.5283  -14.6458   23.1118 C   0  0  0  0  0  0  0  0  0  0  0  0
   10.3176  -15.5577   23.4662 O   0  0  0  0  0  0  0  0  0  0  0  0
    8.9189  -13.8581   24.1348 N   0  0  0  0  0  0  0  0  0  0  0  0
    9.1881  -14.0477   25.5365 C   0  0  1  0  0  0  0  0  0  0  0  0
    8.3136  -13.1568   26.4047 C   0  0  0  0  0  0  0  0  0  0  0  0
    8.8454  -13.4075   28.1212 S   0  0  0  0  0  0  0  0  0  0  0  0
    8.9266  -15.4581   25.9053 C   0  0  0  0  0  0  0  0  0  0  0  0
    9.8356  -16.1177   26.7010 O   0  0  0  0  0  0  0  0  0  0  0  0
    7.9031  -16.0645   25.5133 O   0  0  0  0  0  0  0  0  0  0  0  0
  2  3  1  0
  2  1  1  6
  4  3  1  0
  5  4  2  0
  6  7  1  0
  6  5  1  0
  7  8  2  0
  8  4  1  0
  9 10  2  0
  9  2  1  0
 12 11  1  6
 12 14  1  0
 13 12  1  0
 14 15  1  6
 15  9  1  0
 16 14  1  0
 17 16  2  0
 18 16  1  0
 19 18  1  0
 20 21  1  0
 19 20  1  1
 22 23  1  0
 22 19  1  0
 24 22  2  0
M  END
$$$$
