HTC.pdb
     RDKit          3D

 24 24  0  0  1  0  0  0  0  0999 V2000
   13.0490  -17.6019   20.1633 N   0  0  0  0  0  0  0  0  0  0  0  0
   13.3240  -17.6851   21.5640 C   0  0  1  0  0  0  0  0  0  0  0  0
   14.7430  -17.2166   21.8115 C   0  0  0  0  0  0  0  0  0  0  0  0
   15.6541  -18.3358   21.4197 C   0  0  0  0  0  0  0  0  0  0  0  0
   15.4902  -19.6775   21.7654 C   0  0  0  0  0  0  0  0  0  0  0  0
   16.4981  -20.3916   21.2385 N   0  0  0  0  0  0  0  0  0  0  0  0
   17.2795  -19.5234   20.5766 C   0  0  0  0  0  0  0  0  0  0  0  0
   16.7665  -18.2767   20.6872 N   0  0  0  0  0  0  0  0  0  0  0  0
   12.3689  -16.8685   22.3752 C   0  0  0  0  0  0  0  0  0  0  0  0
   12.0701  -15.7100   21.9872 O   0  0  0  0  0  0  0  0  0  0  0  0
    8.8149  -17.0096   22.8519 C   0  0  0  0  0  0  0  0  0  0  0  0
    9.4188  -17.1853   24.2101 C   0  0  1  0  0  0  0  0  0  0  0  0
    9.4992  -18.5099   24.6123 O   0  0  0  0  0  0  0  0  0  0  0  0
   10.8198  -16.5927   24.3073 C   0  0  2  0  0  0  0  0  0  0  0  0
   11.7819  -17.3547   23.5758 N   0  0  0  0  0  0  0  0  0  0  0  0
   11.1342  -16.5140   25.7616 C   0  0  0  0  0  0  0  0  0  0  0  0
   11.9585  -17.3245   26.2555 O   0  0  0  0  0  0  0  0  0  0  0  0
   10.5403  -15.5533   26.6350 N   0  0  0  0  0  0  0  0  0  0  0  0
   10.8524  -15.4697   28.0381 C   0  0  1  0  0  0  0  0  0  0  0  0
   10.1141  -14.3245   28.7132 C   0  0  0  0  0  0  0  0  0  0  0  0
   10.1127  -12.9364   27.5448 S   0  0  0  0  0  0  0  0  0  0  0  0
   10.4651  -16.7324   28.7084 C   0  0  0  0  0  0  0  0  0  0  0  0
   10.9068  -16.9681   29.9906 O   0  0  0  0  0  0  0  0  0  0  0  0
    9.7485  -17.5887   28.1409 O   0  0  0  0  0  0  0  0  0  0  0  0
  2  3  1  0
  2  1  1  6
  4  3  1  0
  5  4  2  0
  6  7  1  0
  6  5  1  0
  7  8  2  0
  8  4  1  0
  9 10  2  0
  9  2  1  0
 12 11  1  6
 12 14  1  0
 13 12  1  0
 14 15  1  6
 15  9  1  0
 16 14  1  0
 17 16  2  0
 18 16  1  0
 19 18  1  0
 20 21  1  0
 19 20  1  1
 22 23  1  0
 22 19  1  0
 24 22  2  0
M  END
$$$$
