HTC.pdb
     RDKit          3D

 24 24  0  0  1  0  0  0  0  0999 V2000
   11.4168  -17.3932   18.9497 N   0  0  0  0  0  0  0  0  0  0  0  0
   10.3468  -17.5596   19.8834 C   0  0  1  0  0  0  0  0  0  0  0  0
   10.6985  -18.6861   20.8331 C   0  0  0  0  0  0  0  0  0  0  0  0
   10.4715  -19.9701   20.1011 C   0  0  0  0  0  0  0  0  0  0  0  0
    9.9862  -20.0895   18.7985 C   0  0  0  0  0  0  0  0  0  0  0  0
    9.9137  -21.3911   18.4759 N   0  0  0  0  0  0  0  0  0  0  0  0
   10.3425  -22.0772   19.5474 C   0  0  0  0  0  0  0  0  0  0  0  0
   10.6805  -21.2142   20.5325 N   0  0  0  0  0  0  0  0  0  0  0  0
   10.0734  -16.3084   20.6560 C   0  0  0  0  0  0  0  0  0  0  0  0
   11.0079  -15.4879   20.8446 O   0  0  0  0  0  0  0  0  0  0  0  0
    7.2444  -13.4576   20.3825 C   0  0  0  0  0  0  0  0  0  0  0  0
    7.2278  -14.1853   21.6902 C   0  0  1  0  0  0  0  0  0  0  0  0
    6.2437  -15.1590   21.7686 O   0  0  0  0  0  0  0  0  0  0  0  0
    8.5603  -14.8565   22.0019 C   0  0  2  0  0  0  0  0  0  0  0  0
    8.7894  -16.0089   21.1888 N   0  0  0  0  0  0  0  0  0  0  0  0
    8.5306  -15.1764   23.4568 C   0  0  0  0  0  0  0  0  0  0  0  0
    8.6510  -16.3725   23.8243 O   0  0  0  0  0  0  0  0  0  0  0  0
    8.3702  -14.1821   24.4688 N   0  0  0  0  0  0  0  0  0  0  0  0
    8.2008  -14.5011   25.8626 C   0  0  1  0  0  0  0  0  0  0  0  0
    7.9151  -13.2608   26.6948 C   0  0  0  0  0  0  0  0  0  0  0  0
    6.4239  -12.4933   26.0024 S   0  0  0  0  0  0  0  0  0  0  0  0
    7.0665  -15.4400   26.0222 C   0  0  0  0  0  0  0  0  0  0  0  0
    6.9890  -16.2021   27.1657 O   0  0  0  0  0  0  0  0  0  0  0  0
    6.1788  -15.5582   25.1465 O   0  0  0  0  0  0  0  0  0  0  0  0
  2  3  1  0
  2  1  1  6
  4  3  1  0
  5  4  2  0
  6  7  1  0
  6  5  1  0
  7  8  2  0
  8  4  1  0
  9 10  2  0
  9  2  1  0
 12 11  1  6
 12 14  1  0
 13 12  1  0
 14 15  1  6
 15  9  1  0
 16 14  1  0
 17 16  2  0
 18 16  1  0
 19 18  1  0
 20 21  1  0
 19 20  1  1
 22 23  1  0
 22 19  1  0
 24 22  2  0
M  END
$$$$
