HTC.pdb
     RDKit          3D

 24 24  0  0  1  0  0  0  0  0999 V2000
    6.6013  -21.0548   22.2759 N   0  0  0  0  0  0  0  0  0  0  0  0
    6.3638  -20.3128   23.4748 C   0  0  1  0  0  0  0  0  0  0  0  0
    6.5285  -21.2384   24.6624 C   0  0  0  0  0  0  0  0  0  0  0  0
    5.3592  -22.1705   24.6635 C   0  0  0  0  0  0  0  0  0  0  0  0
    4.2833  -22.1274   23.7762 C   0  0  0  0  0  0  0  0  0  0  0  0
    3.4266  -23.1163   24.0787 N   0  0  0  0  0  0  0  0  0  0  0  0
    3.9476  -23.7681   25.1305 C   0  0  0  0  0  0  0  0  0  0  0  0
    5.1198  -23.1935   25.4843 N   0  0  0  0  0  0  0  0  0  0  0  0
    7.2886  -19.1447   23.6070 C   0  0  0  0  0  0  0  0  0  0  0  0
    8.5268  -19.3257   23.4798 O   0  0  0  0  0  0  0  0  0  0  0  0
    7.5791  -16.1463   21.5000 C   0  0  0  0  0  0  0  0  0  0  0  0
    7.3846  -15.6503   22.8987 C   0  0  1  0  0  0  0  0  0  0  0  0
    6.0991  -15.1952   23.1502 O   0  0  0  0  0  0  0  0  0  0  0  0
    7.7062  -16.7115   23.9446 C   0  0  2  0  0  0  0  0  0  0  0  0
    6.8188  -17.8289   23.8727 N   0  0  0  0  0  0  0  0  0  0  0  0
    7.6539  -16.0199   25.2633 C   0  0  0  0  0  0  0  0  0  0  0  0
    6.5385  -15.8218   25.8080 O   0  0  0  0  0  0  0  0  0  0  0  0
    8.8201  -15.5645   25.9496 N   0  0  0  0  0  0  0  0  0  0  0  0
    8.7661  -14.8327   27.1885 C   0  0  1  0  0  0  0  0  0  0  0  0
    8.5733  -15.7558   28.3814 C   0  0  0  0  0  0  0  0  0  0  0  0
    9.9045  -16.9868   28.3161 S   0  0  0  0  0  0  0  0  0  0  0  0
   10.0304  -14.0849   27.3782 C   0  0  0  0  0  0  0  0  0  0  0  0
   10.1400  -13.2225   28.4454 O   0  0  0  0  0  0  0  0  0  0  0  0
   10.9994  -14.2164   26.5956 O   0  0  0  0  0  0  0  0  0  0  0  0
  2  3  1  0
  2  1  1  6
  4  3  1  0
  5  4  2  0
  6  7  1  0
  6  5  1  0
  7  8  2  0
  8  4  1  0
  9 10  2  0
  9  2  1  0
 12 11  1  6
 12 14  1  0
 13 12  1  0
 14 15  1  1
 15  9  1  0
 16 14  1  0
 17 16  2  0
 18 16  1  0
 19 18  1  0
 20 21  1  0
 19 20  1  1
 22 23  1  0
 22 19  1  0
 24 22  2  0
M  END
$$$$
