HTC.pdb
     RDKit          3D

 24 24  0  0  1  0  0  0  0  0999 V2000
   13.0113  -16.2332   12.2059 N   0  0  0  0  0  0  0  0  0  0  0  0
   12.8044  -17.1940   13.2444 C   0  0  1  0  0  0  0  0  0  0  0  0
   14.1356  -17.8234   13.5993 C   0  0  0  0  0  0  0  0  0  0  0  0
   14.4913  -18.7627   12.4915 C   0  0  0  0  0  0  0  0  0  0  0  0
   14.1300  -20.1084   12.4180 C   0  0  0  0  0  0  0  0  0  0  0  0
   14.6244  -20.6332   11.2850 N   0  0  0  0  0  0  0  0  0  0  0  0
   15.2816  -19.6444   10.6581 C   0  0  0  0  0  0  0  0  0  0  0  0
   15.2002  -18.5104   11.3909 N   0  0  0  0  0  0  0  0  0  0  0  0
   12.1887  -16.5829   14.4628 C   0  0  0  0  0  0  0  0  0  0  0  0
   12.6628  -15.5099   14.9167 O   0  0  0  0  0  0  0  0  0  0  0  0
    8.6534  -15.4209   14.9392 C   0  0  0  0  0  0  0  0  0  0  0  0
    8.9666  -16.3531   16.0674 C   0  0  1  0  0  0  0  0  0  0  0  0
    8.3969  -17.6089   15.9215 O   0  0  0  0  0  0  0  0  0  0  0  0
   10.4653  -16.5513   16.2623 C   0  0  2  0  0  0  0  0  0  0  0  0
   11.0808  -17.1721   15.1321 N   0  0  0  0  0  0  0  0  0  0  0  0
   10.6167  -17.3509   17.5104 C   0  0  0  0  0  0  0  0  0  0  0  0
   10.8807  -18.5770   17.4250 O   0  0  0  0  0  0  0  0  0  0  0  0
   10.4757  -16.7897   18.8156 N   0  0  0  0  0  0  0  0  0  0  0  0
   10.5416  -17.5767   20.0196 C   0  0  1  0  0  0  0  0  0  0  0  0
   10.4167  -16.7138   21.2654 C   0  0  0  0  0  0  0  0  0  0  0  0
   11.8596  -15.6141   21.2921 S   0  0  0  0  0  0  0  0  0  0  0  0
    9.4393  -18.5660   20.0263 C   0  0  0  0  0  0  0  0  0  0  0  0
    9.3901  -19.5009   21.0353 O   0  0  0  0  0  0  0  0  0  0  0  0
    8.5536  -18.5741   19.1407 O   0  0  0  0  0  0  0  0  0  0  0  0
  2  3  1  0
  2  1  1  6
  4  3  1  0
  5  4  2  0
  6  7  1  0
  6  5  1  0
  7  8  2  0
  8  4  1  0
  9 10  2  0
  9  2  1  0
 12 11  1  6
 12 14  1  0
 13 12  1  0
 14 15  1  6
 15  9  1  0
 16 14  1  0
 17 16  2  0
 18 16  1  0
 19 18  1  0
 20 21  1  0
 19 20  1  1
 22 23  1  0
 22 19  1  0
 24 22  2  0
M  END
$$$$
