HTC.pdb
     RDKit          3D

 24 24  0  0  1  0  0  0  0  0999 V2000
   15.5880  -18.5363   17.0609 N   0  0  0  0  0  0  0  0  0  0  0  0
   15.0796  -19.3881   18.0907 C   0  0  1  0  0  0  0  0  0  0  0  0
   16.2455  -20.0407   18.8042 C   0  0  0  0  0  0  0  0  0  0  0  0
   16.9288  -20.9301   17.8152 C   0  0  0  0  0  0  0  0  0  0  0  0
   16.4103  -22.1151   17.2921 C   0  0  0  0  0  0  0  0  0  0  0  0
   17.3006  -22.6423   16.4360 N   0  0  0  0  0  0  0  0  0  0  0  0
   18.3553  -21.8116   16.4183 C   0  0  0  0  0  0  0  0  0  0  0  0
   18.1285  -20.7735   17.2552 N   0  0  0  0  0  0  0  0  0  0  0  0
   14.2342  -18.6415   19.0731 C   0  0  0  0  0  0  0  0  0  0  0  0
   14.5784  -17.4833   19.4224 O   0  0  0  0  0  0  0  0  0  0  0  0
   10.4397  -18.1271   18.6502 C   0  0  0  0  0  0  0  0  0  0  0  0
   10.7080  -18.5918   20.0474 C   0  0  1  0  0  0  0  0  0  0  0  0
   10.3696  -19.9191   20.2632 O   0  0  0  0  0  0  0  0  0  0  0  0
   12.1685  -18.4216   20.4491 C   0  0  2  0  0  0  0  0  0  0  0  0
   13.0486  -19.1945   19.6310 N   0  0  0  0  0  0  0  0  0  0  0  0
   12.2462  -18.7952   21.8894 C   0  0  0  0  0  0  0  0  0  0  0  0
   12.7913  -19.8808   22.2127 O   0  0  0  0  0  0  0  0  0  0  0  0
   11.7271  -17.9736   22.9353 N   0  0  0  0  0  0  0  0  0  0  0  0
   11.7714  -18.3500   24.3244 C   0  0  1  0  0  0  0  0  0  0  0  0
   11.1986  -17.2643   25.2219 C   0  0  0  0  0  0  0  0  0  0  0  0
   12.2487  -15.7994   25.0136 S   0  0  0  0  0  0  0  0  0  0  0  0
   10.9825  -19.5867   24.5284 C   0  0  0  0  0  0  0  0  0  0  0  0
   11.2854  -20.4010   25.5960 O   0  0  0  0  0  0  0  0  0  0  0  0
   10.0499  -19.9101   23.7574 O   0  0  0  0  0  0  0  0  0  0  0  0
  2  3  1  0
  2  1  1  6
  4  3  1  0
  5  4  2  0
  6  7  1  0
  6  5  1  0
  7  8  2  0
  8  4  1  0
  9 10  2  0
  9  2  1  0
 12 11  1  6
 12 14  1  0
 13 12  1  0
 14 15  1  6
 15  9  1  0
 16 14  1  0
 17 16  2  0
 18 16  1  0
 19 18  1  0
 20 21  1  0
 19 20  1  1
 22 23  1  0
 22 19  1  0
 24 22  2  0
M  END
$$$$
