HTC.pdb
     RDKit          3D

 24 24  0  0  1  0  0  0  0  0999 V2000
   11.1455  -19.2753   19.9203 N   0  0  0  0  0  0  0  0  0  0  0  0
   11.3907  -17.9657   20.4391 C   0  0  1  0  0  0  0  0  0  0  0  0
   11.4096  -16.9806   19.2887 C   0  0  0  0  0  0  0  0  0  0  0  0
   12.6616  -17.2318   18.5105 C   0  0  0  0  0  0  0  0  0  0  0  0
   13.9612  -17.0028   18.9636 C   0  0  0  0  0  0  0  0  0  0  0  0
   14.8284  -17.3431   17.9963 N   0  0  0  0  0  0  0  0  0  0  0  0
   14.0956  -17.7765   16.9581 C   0  0  0  0  0  0  0  0  0  0  0  0
   12.7815  -17.7085   17.2712 N   0  0  0  0  0  0  0  0  0  0  0  0
   10.3613  -17.5559   21.4440 C   0  0  0  0  0  0  0  0  0  0  0  0
    9.1455  -17.5870   21.1236 O   0  0  0  0  0  0  0  0  0  0  0  0
    8.2479  -18.8796   23.2754 C   0  0  0  0  0  0  0  0  0  0  0  0
    9.1150  -18.1971   24.2866 C   0  0  1  0  0  0  0  0  0  0  0  0
   10.1615  -18.9857   24.7399 O   0  0  0  0  0  0  0  0  0  0  0  0
    9.7161  -16.8993   23.7595 C   0  0  2  0  0  0  0  0  0  0  0  0
   10.7068  -17.1298   22.7561 N   0  0  0  0  0  0  0  0  0  0  0  0
   10.2580  -16.1831   24.9484 C   0  0  0  0  0  0  0  0  0  0  0  0
   11.4741  -16.3111   25.2397 O   0  0  0  0  0  0  0  0  0  0  0  0
    9.4574  -15.3479   25.7851 N   0  0  0  0  0  0  0  0  0  0  0  0
    9.9854  -14.6383   26.9212 C   0  0  1  0  0  0  0  0  0  0  0  0
    8.9841  -13.6378   27.4769 C   0  0  0  0  0  0  0  0  0  0  0  0
    9.7539  -12.8738   28.9314 S   0  0  0  0  0  0  0  0  0  0  0  0
   10.3247  -15.6017   27.9937 C   0  0  0  0  0  0  0  0  0  0  0  0
    9.5204  -16.7034   28.1778 O   0  0  0  0  0  0  0  0  0  0  0  0
   11.3212  -15.4407   28.7353 O   0  0  0  0  0  0  0  0  0  0  0  0
  2  3  1  0
  2  1  1  6
  4  3  1  0
  5  4  2  0
  6  7  1  0
  6  5  1  0
  7  8  2  0
  8  4  1  0
  9 10  2  0
  9  2  1  0
 12 11  1  6
 12 14  1  0
 13 12  1  0
 14 15  1  6
 15  9  1  0
 16 14  1  0
 17 16  2  0
 18 16  1  0
 19 18  1  0
 20 21  1  0
 19 20  1  1
 22 23  1  0
 22 19  1  0
 24 22  2  0
M  END
$$$$
