HTC.pdb
     RDKit          3D

 24 24  0  0  1  0  0  0  0  0999 V2000
   15.2374  -12.1781   11.1333 N   0  0  0  0  0  0  0  0  0  0  0  0
   15.5890  -13.1102   12.1590 C   0  0  1  0  0  0  0  0  0  0  0  0
   16.2367  -12.3567   13.3021 C   0  0  0  0  0  0  0  0  0  0  0  0
   17.5506  -11.8429   12.8063 C   0  0  0  0  0  0  0  0  0  0  0  0
   18.6906  -12.6131   12.5746 C   0  0  0  0  0  0  0  0  0  0  0  0
   19.6767  -11.8145   12.1351 N   0  0  0  0  0  0  0  0  0  0  0  0
   19.1730  -10.5708   12.0901 C   0  0  0  0  0  0  0  0  0  0  0  0
   17.8833  -10.5893   12.4975 N   0  0  0  0  0  0  0  0  0  0  0  0
   14.4029  -13.8725   12.6583 C   0  0  0  0  0  0  0  0  0  0  0  0
   13.3155  -13.2662   12.8370 O   0  0  0  0  0  0  0  0  0  0  0  0
   12.9454  -17.1222   11.1949 C   0  0  0  0  0  0  0  0  0  0  0  0
   13.1274  -17.3077   12.6688 C   0  0  1  0  0  0  0  0  0  0  0  0
   14.2018  -18.1214   12.9952 O   0  0  0  0  0  0  0  0  0  0  0  0
   13.3150  -15.9863   13.4049 C   0  0  2  0  0  0  0  0  0  0  0  0
   14.4578  -15.2653   12.9405 N   0  0  0  0  0  0  0  0  0  0  0  0
   13.4010  -16.3291   14.8524 C   0  0  0  0  0  0  0  0  0  0  0  0
   14.5205  -16.3020   15.4235 O   0  0  0  0  0  0  0  0  0  0  0  0
   12.2631  -16.6915   15.6349 N   0  0  0  0  0  0  0  0  0  0  0  0
   12.3521  -17.0680   17.0218 C   0  0  1  0  0  0  0  0  0  0  0  0
   10.9788  -17.1828   17.6646 C   0  0  0  0  0  0  0  0  0  0  0  0
   10.0009  -18.3015   16.6234 S   0  0  0  0  0  0  0  0  0  0  0  0
   13.0309  -18.3794   17.1371 C   0  0  0  0  0  0  0  0  0  0  0  0
   13.4829  -18.7888   18.3710 O   0  0  0  0  0  0  0  0  0  0  0  0
   13.2039  -19.1232   16.1443 O   0  0  0  0  0  0  0  0  0  0  0  0
  2  3  1  0
  2  1  1  6
  4  3  1  0
  5  4  2  0
  6  7  1  0
  6  5  1  0
  7  8  2  0
  8  4  1  0
  9 10  2  0
  9  2  1  0
 12 11  1  6
 12 14  1  0
 13 12  1  0
 14 15  1  6
 15  9  1  0
 16 14  1  0
 17 16  2  0
 18 16  1  0
 19 18  1  0
 20 21  1  0
 19 20  1  6
 22 23  1  0
 22 19  1  0
 24 22  2  0
M  END
$$$$
