YWC.pdb
     RDKit          3D

 33 35  0  0  1  0  0  0  0  0999 V2000
    6.6250  -13.5243   16.4912 O   0  0  0  0  0  0  0  0  0  0  0  0
    7.7490  -13.8229   17.2604 C   0  0  0  0  0  0  0  0  0  0  0  0
    7.8895  -15.0288   17.9100 C   0  0  0  0  0  0  0  0  0  0  0  0
    9.0284  -15.2376   18.6446 C   0  0  0  0  0  0  0  0  0  0  0  0
   10.0412  -14.2933   18.7626 C   0  0  0  0  0  0  0  0  0  0  0  0
   11.2622  -14.5849   19.5816 C   0  0  0  0  0  0  0  0  0  0  0  0
   11.0827  -15.9604   20.1914 C   0  0  2  0  0  0  0  0  0  0  0  0
   10.3016  -16.7606   19.3294 N   0  0  0  0  0  0  0  0  0  0  0  0
   10.5709  -15.7866   21.5525 C   0  0  0  0  0  0  0  0  0  0  0  0
   11.3721  -15.3402   22.4167 O   0  0  0  0  0  0  0  0  0  0  0  0
    9.8693  -13.0969   18.1002 C   0  0  0  0  0  0  0  0  0  0  0  0
    8.7235  -12.8442   17.3408 C   0  0  0  0  0  0  0  0  0  0  0  0
    9.2561  -16.0762   21.9801 N   0  0  0  0  0  0  0  0  0  0  0  0
    8.8230  -15.8327   23.3389 C   0  0  1  0  0  0  0  0  0  0  0  0
    7.3084  -15.7101   23.3924 C   0  0  0  0  0  0  0  0  0  0  0  0
    6.9194  -15.2345   24.7453 C   0  0  0  0  0  0  0  0  0  0  0  0
    6.3302  -15.9799   25.7300 C   0  0  0  0  0  0  0  0  0  0  0  0
    6.1442  -15.1817   26.7928 N   0  0  0  0  0  0  0  0  0  0  0  0
    6.6005  -13.9515   26.5054 C   0  0  0  0  0  0  0  0  0  0  0  0
    6.6458  -12.7823   27.2384 C   0  0  0  0  0  0  0  0  0  0  0  0
    7.1721  -11.6161   26.7229 C   0  0  0  0  0  0  0  0  0  0  0  0
    7.6690  -11.6405   25.4174 C   0  0  0  0  0  0  0  0  0  0  0  0
    7.6295  -12.8024   24.6746 C   0  0  0  0  0  0  0  0  0  0  0  0
    7.0897  -13.9626   25.2295 C   0  0  0  0  0  0  0  0  0  0  0  0
    9.2453  -17.0370   24.1479 C   0  0  0  0  0  0  0  0  0  0  0  0
    9.4395  -18.1457   23.5920 O   0  0  0  0  0  0  0  0  0  0  0  0
    9.4309  -16.9416   25.5477 N   0  0  0  0  0  0  0  0  0  0  0  0
   10.3149  -17.7570   26.3429 C   0  0  1  0  0  0  0  0  0  0  0  0
   11.7097  -17.7586   25.7936 C   0  0  0  0  0  0  0  0  0  0  0  0
   12.6706  -19.1786   26.2998 S   0  0  0  0  0  0  0  0  0  0  0  0
   10.2581  -17.4532   27.8027 C   0  0  0  0  0  0  0  0  0  0  0  0
   10.5073  -18.4100   28.7585 O   0  0  0  0  0  0  0  0  0  0  0  0
    9.9799  -16.2975   28.2116 O   0  0  0  0  0  0  0  0  0  0  0  0
  2  1  1  0
  3  2  2  0
  4  3  1  0
  5  4  2  0
  5 11  1  0
  6  5  1  0
  7  6  1  0
  7  8  1  6
  9  7  1  0
  9 10  2  0
 11 12  2  0
 12  2  1  0
 13  9  1  0
 14 13  1  0
 14 15  1  6
 16 15  1  0
 16 17  2  0
 18 17  1  0
 19 18  1  0
 20 19  2  0
 21 20  1  0
 22 21  2  0
 22 23  1  0
 23 24  2  0
 24 19  1  0
 24 16  1  0
 25 14  1  0
 26 25  2  0
 27 25  1  0
 28 27  1  0
 28 29  1  6
 29 30  1  0
 31 28  1  0
 31 32  1  0
 33 31  2  0
M  END
$$$$
