YWC.pdb
     RDKit          3D

 33 35  0  0  1  0  0  0  0  0999 V2000
   12.5339  -20.4469   16.5701 O   0  0  0  0  0  0  0  0  0  0  0  0
   12.4582  -19.7814   17.7932 C   0  0  0  0  0  0  0  0  0  0  0  0
   13.2448  -18.6881   18.0790 C   0  0  0  0  0  0  0  0  0  0  0  0
   13.1040  -18.0948   19.3072 C   0  0  0  0  0  0  0  0  0  0  0  0
   12.2090  -18.5440   20.2708 C   0  0  0  0  0  0  0  0  0  0  0  0
   12.1038  -17.8494   21.5948 C   0  0  0  0  0  0  0  0  0  0  0  0
   11.0311  -16.7868   21.4667 C   0  0  2  0  0  0  0  0  0  0  0  0
   11.4286  -15.8278   20.5096 N   0  0  0  0  0  0  0  0  0  0  0  0
   10.7384  -16.2781   22.8084 C   0  0  0  0  0  0  0  0  0  0  0  0
   11.3810  -15.2647   23.1934 O   0  0  0  0  0  0  0  0  0  0  0  0
   11.4368  -19.6406   19.9530 C   0  0  0  0  0  0  0  0  0  0  0  0
   11.5493  -20.2743   18.7123 C   0  0  0  0  0  0  0  0  0  0  0  0
    9.7974  -16.8258   23.7086 N   0  0  0  0  0  0  0  0  0  0  0  0
    9.4902  -16.1924   24.9726 C   0  0  1  0  0  0  0  0  0  0  0  0
    8.0067  -16.3248   25.2784 C   0  0  0  0  0  0  0  0  0  0  0  0
    7.3024  -15.1371   24.7295 C   0  0  0  0  0  0  0  0  0  0  0  0
    6.7278  -15.0336   23.4919 C   0  0  0  0  0  0  0  0  0  0  0  0
    6.1983  -13.8048   23.3871 N   0  0  0  0  0  0  0  0  0  0  0  0
    6.4233  -13.1292   24.5260 C   0  0  0  0  0  0  0  0  0  0  0  0
    6.0931  -11.8505   24.9288 C   0  0  0  0  0  0  0  0  0  0  0  0
    6.4379  -11.3638   26.1726 C   0  0  0  0  0  0  0  0  0  0  0  0
    7.1424  -12.2069   27.0357 C   0  0  0  0  0  0  0  0  0  0  0  0
    7.4782  -13.4867   26.6451 C   0  0  0  0  0  0  0  0  0  0  0  0
    7.1125  -13.9442   25.3793 C   0  0  0  0  0  0  0  0  0  0  0  0
   10.2756  -16.9350   26.0285 C   0  0  0  0  0  0  0  0  0  0  0  0
   10.7221  -18.0863   25.8030 O   0  0  0  0  0  0  0  0  0  0  0  0
   10.5247  -16.3496   27.2928 N   0  0  0  0  0  0  0  0  0  0  0  0
   11.2861  -16.9404   28.3650 C   0  0  1  0  0  0  0  0  0  0  0  0
   11.5029  -15.9719   29.4885 C   0  0  0  0  0  0  0  0  0  0  0  0
   10.8249  -14.3491   29.1679 S   0  0  0  0  0  0  0  0  0  0  0  0
   10.7562  -18.2592   28.8194 C   0  0  0  0  0  0  0  0  0  0  0  0
   11.4503  -19.0644   29.6917 O   0  0  0  0  0  0  0  0  0  0  0  0
    9.6427  -18.6812   28.4168 O   0  0  0  0  0  0  0  0  0  0  0  0
  2  1  1  0
  3  2  2  0
  4  3  1  0
  5  4  2  0
  5 11  1  0
  6  5  1  0
  7  6  1  0
  7  8  1  6
  9  7  1  0
  9 10  2  0
 11 12  2  0
 12  2  1  0
 13  9  1  0
 14 13  1  0
 14 15  1  1
 16 15  1  0
 16 17  2  0
 18 17  1  0
 19 18  1  0
 20 19  2  0
 21 20  1  0
 22 21  2  0
 22 23  1  0
 23 24  2  0
 24 19  1  0
 24 16  1  0
 25 14  1  0
 26 25  2  0
 27 25  1  0
 28 27  1  0
 28 29  1  1
 29 30  1  0
 31 28  1  0
 31 32  1  0
 33 31  2  0
M  END
$$$$
