YWC.pdb
     RDKit          3D

 33 35  0  0  1  0  0  0  0  0999 V2000
    9.2723  -22.1214   16.6508 O   0  0  0  0  0  0  0  0  0  0  0  0
    9.6821  -21.4282   17.7892 C   0  0  0  0  0  0  0  0  0  0  0  0
   10.9630  -20.9421   17.9260 C   0  0  0  0  0  0  0  0  0  0  0  0
   11.2793  -20.2716   19.0796 C   0  0  0  0  0  0  0  0  0  0  0  0
   10.3714  -20.0615   20.1106 C   0  0  0  0  0  0  0  0  0  0  0  0
   10.7814  -19.3192   21.3466 C   0  0  0  0  0  0  0  0  0  0  0  0
   10.1847  -17.9291   21.2609 C   0  0  2  0  0  0  0  0  0  0  0  0
   10.8689  -17.1814   20.2778 N   0  0  0  0  0  0  0  0  0  0  0  0
   10.1699  -17.3612   22.6108 C   0  0  0  0  0  0  0  0  0  0  0  0
   11.1637  -16.6669   22.9548 O   0  0  0  0  0  0  0  0  0  0  0  0
    9.0979  -20.5610   19.9420 C   0  0  0  0  0  0  0  0  0  0  0  0
    8.7347  -21.2501   18.7816 C   0  0  0  0  0  0  0  0  0  0  0  0
    9.1372  -17.5249   23.5607 N   0  0  0  0  0  0  0  0  0  0  0  0
    9.1622  -16.8512   24.8408 C   0  0  1  0  0  0  0  0  0  0  0  0
    7.7493  -16.4894   25.2705 C   0  0  0  0  0  0  0  0  0  0  0  0
    7.3851  -15.1881   24.6524 C   0  0  0  0  0  0  0  0  0  0  0  0
    7.0383  -14.9785   23.3454 C   0  0  0  0  0  0  0  0  0  0  0  0
    6.7836  -13.6695   23.1936 N   0  0  0  0  0  0  0  0  0  0  0  0
    6.9605  -13.0466   24.3704 C   0  0  0  0  0  0  0  0  0  0  0  0
    6.8311  -11.7259   24.7515 C   0  0  0  0  0  0  0  0  0  0  0  0
    7.0707  -11.3113   26.0452 C   0  0  0  0  0  0  0  0  0  0  0  0
    7.4549  -12.2733   26.9826 C   0  0  0  0  0  0  0  0  0  0  0  0
    7.5877  -13.5962   26.6144 C   0  0  0  0  0  0  0  0  0  0  0  0
    7.3369  -13.9781   25.2966 C   0  0  0  0  0  0  0  0  0  0  0  0
    9.7390  -17.8337   25.8333 C   0  0  0  0  0  0  0  0  0  0  0  0
    9.2843  -19.0008   25.9171 O   0  0  0  0  0  0  0  0  0  0  0  0
   10.8029  -17.4604   26.6889 N   0  0  0  0  0  0  0  0  0  0  0  0
   11.4366  -18.3043   27.6711 C   0  0  1  0  0  0  0  0  0  0  0  0
   12.9311  -18.2175   27.5933 C   0  0  0  0  0  0  0  0  0  0  0  0
   13.5307  -17.7189   25.9846 S   0  0  0  0  0  0  0  0  0  0  0  0
   10.9076  -18.1152   29.0534 C   0  0  0  0  0  0  0  0  0  0  0  0
   11.3550  -18.8647   30.1160 O   0  0  0  0  0  0  0  0  0  0  0  0
   10.0267  -17.2518   29.2954 O   0  0  0  0  0  0  0  0  0  0  0  0
  2  1  1  0
  3  2  2  0
  4  3  1  0
  5  4  2  0
  5 11  1  0
  6  5  1  0
  7  6  1  0
  7  8  1  6
  9  7  1  0
  9 10  2  0
 11 12  2  0
 12  2  1  0
 13  9  1  0
 14 13  1  0
 14 15  1  1
 16 15  1  0
 16 17  2  0
 18 17  1  0
 19 18  1  0
 20 19  2  0
 21 20  1  0
 22 21  2  0
 22 23  1  0
 23 24  2  0
 24 19  1  0
 24 16  1  0
 25 14  1  0
 26 25  2  0
 27 25  1  0
 28 27  1  0
 28 29  1  1
 29 30  1  0
 31 28  1  0
 31 32  1  0
 33 31  2  0
M  END
$$$$
