YWC.pdb
     RDKit          3D

 33 35  0  0  1  0  0  0  0  0999 V2000
   12.6900  -20.2322   14.8319 O   0  0  0  0  0  0  0  0  0  0  0  0
   12.4135  -19.6802   16.0822 C   0  0  0  0  0  0  0  0  0  0  0  0
   11.6083  -20.3175   16.9995 C   0  0  0  0  0  0  0  0  0  0  0  0
   11.3904  -19.7017   18.2051 C   0  0  0  0  0  0  0  0  0  0  0  0
   11.9419  -18.4713   18.5415 C   0  0  0  0  0  0  0  0  0  0  0  0
   11.6642  -17.8523   19.8780 C   0  0  0  0  0  0  0  0  0  0  0  0
   10.3713  -17.0712   19.7575 C   0  0  2  0  0  0  0  0  0  0  0  0
   10.4812  -16.1361   18.7053 N   0  0  0  0  0  0  0  0  0  0  0  0
   10.0507  -16.5241   21.0775 C   0  0  0  0  0  0  0  0  0  0  0  0
   11.0181  -16.2286   21.8293 O   0  0  0  0  0  0  0  0  0  0  0  0
   12.7429  -17.8601   17.6009 C   0  0  0  0  0  0  0  0  0  0  0  0
   12.9904  -18.4539   16.3601 C   0  0  0  0  0  0  0  0  0  0  0  0
    8.7502  -16.2990   21.5809 N   0  0  0  0  0  0  0  0  0  0  0  0
    8.5253  -15.7690   22.9082 C   0  0  1  0  0  0  0  0  0  0  0  0
    7.0435  -15.5043   23.1229 C   0  0  0  0  0  0  0  0  0  0  0  0
    6.8404  -15.0600   24.5262 C   0  0  0  0  0  0  0  0  0  0  0  0
    6.3922  -15.8297   25.5651 C   0  0  0  0  0  0  0  0  0  0  0  0
    6.3500  -15.0555   26.6606 N   0  0  0  0  0  0  0  0  0  0  0  0
    6.7597  -13.8168   26.3411 C   0  0  0  0  0  0  0  0  0  0  0  0
    6.9009  -12.6635   27.0868 C   0  0  0  0  0  0  0  0  0  0  0  0
    7.3492  -11.4834   26.5305 C   0  0  0  0  0  0  0  0  0  0  0  0
    7.6645  -11.4771   25.1694 C   0  0  0  0  0  0  0  0  0  0  0  0
    7.5277  -12.6229   24.4134 C   0  0  0  0  0  0  0  0  0  0  0  0
    7.0714  -13.7978   25.0107 C   0  0  0  0  0  0  0  0  0  0  0  0
    8.9778  -16.8343   23.8797 C   0  0  0  0  0  0  0  0  0  0  0  0
    8.7470  -18.0472   23.6530 O   0  0  0  0  0  0  0  0  0  0  0  0
    9.6705  -16.4884   25.0644 N   0  0  0  0  0  0  0  0  0  0  0  0
   10.2931  -17.4101   25.9818 C   0  0  1  0  0  0  0  0  0  0  0  0
   11.6555  -17.8226   25.5119 C   0  0  0  0  0  0  0  0  0  0  0  0
   12.2944  -19.2602   26.3610 S   0  0  0  0  0  0  0  0  0  0  0  0
   10.2755  -16.9466   27.4000 C   0  0  0  0  0  0  0  0  0  0  0  0
   10.7325  -17.7328   28.4316 O   0  0  0  0  0  0  0  0  0  0  0  0
    9.8395  -15.8068   27.7016 O   0  0  0  0  0  0  0  0  0  0  0  0
  2  1  1  0
  3  2  2  0
  4  3  1  0
  5  4  2  0
  5 11  1  0
  6  5  1  0
  7  6  1  0
  7  8  1  6
  9  7  1  0
  9 10  2  0
 11 12  2  0
 12  2  1  0
 13  9  1  0
 14 13  1  0
 14 15  1  1
 16 15  1  0
 16 17  2  0
 18 17  1  0
 19 18  1  0
 20 19  2  0
 21 20  1  0
 22 21  2  0
 22 23  1  0
 23 24  2  0
 24 19  1  0
 24 16  1  0
 25 14  1  0
 26 25  2  0
 27 25  1  0
 28 27  1  0
 28 29  1  6
 29 30  1  0
 31 28  1  0
 31 32  1  0
 33 31  2  0
M  END
$$$$
