YWC.pdb
     RDKit          3D

 33 35  0  0  1  0  0  0  0  0999 V2000
    8.0456  -20.4488   16.3455 O   0  0  0  0  0  0  0  0  0  0  0  0
    8.7237  -19.6685   17.2814 C   0  0  0  0  0  0  0  0  0  0  0  0
    9.6044  -18.6791   16.9058 C   0  0  0  0  0  0  0  0  0  0  0  0
   10.2272  -17.9601   17.8935 C   0  0  0  0  0  0  0  0  0  0  0  0
   10.0113  -18.1832   19.2480 C   0  0  0  0  0  0  0  0  0  0  0  0
   10.7245  -17.3606   20.2782 C   0  0  0  0  0  0  0  0  0  0  0  0
    9.8199  -16.1996   20.6389 C   0  0  2  0  0  0  0  0  0  0  0  0
    9.4353  -15.5182   19.4636 N   0  0  0  0  0  0  0  0  0  0  0  0
   10.5008  -15.3976   21.6576 C   0  0  0  0  0  0  0  0  0  0  0  0
   11.1012  -14.3603   21.2681 O   0  0  0  0  0  0  0  0  0  0  0  0
    9.1240  -19.1809   19.5901 C   0  0  0  0  0  0  0  0  0  0  0  0
    8.4682  -19.9368   18.6143 C   0  0  0  0  0  0  0  0  0  0  0  0
   10.5425  -15.6868   23.0397 N   0  0  0  0  0  0  0  0  0  0  0  0
    9.6357  -15.0631   23.9790 C   0  0  1  0  0  0  0  0  0  0  0  0
    8.1951  -15.3396   23.5793 C   0  0  0  0  0  0  0  0  0  0  0  0
    7.2979  -14.7676   24.6166 C   0  0  0  0  0  0  0  0  0  0  0  0
    6.3435  -15.4433   25.3273 C   0  0  0  0  0  0  0  0  0  0  0  0
    5.7565  -14.5692   26.1595 N   0  0  0  0  0  0  0  0  0  0  0  0
    6.3148  -13.3590   25.9932 C   0  0  0  0  0  0  0  0  0  0  0  0
    6.0808  -12.1373   26.5923 C   0  0  0  0  0  0  0  0  0  0  0  0
    6.7949  -11.0072   26.2518 C   0  0  0  0  0  0  0  0  0  0  0  0
    7.7802  -11.1244   25.2684 C   0  0  0  0  0  0  0  0  0  0  0  0
    8.0237  -12.3396   24.6622 C   0  0  0  0  0  0  0  0  0  0  0  0
    7.2815  -13.4607   25.0327 C   0  0  0  0  0  0  0  0  0  0  0  0
    9.9018  -15.7009   25.3227 C   0  0  0  0  0  0  0  0  0  0  0  0
    9.1436  -15.4788   26.2983 O   0  0  0  0  0  0  0  0  0  0  0  0
   11.0098  -16.5613   25.5106 N   0  0  0  0  0  0  0  0  0  0  0  0
   11.0044  -17.8019   26.2450 C   0  0  1  0  0  0  0  0  0  0  0  0
    9.8121  -18.6430   25.9013 C   0  0  0  0  0  0  0  0  0  0  0  0
    8.6588  -18.8268   27.2548 S   0  0  0  0  0  0  0  0  0  0  0  0
   12.2936  -18.5492   26.1669 C   0  0  0  0  0  0  0  0  0  0  0  0
   12.5312  -19.6769   26.9172 O   0  0  0  0  0  0  0  0  0  0  0  0
   13.2150  -18.1692   25.4010 O   0  0  0  0  0  0  0  0  0  0  0  0
  2  1  1  0
  3  2  2  0
  4  3  1  0
  5  4  2  0
  5 11  1  0
  6  5  1  0
  7  6  1  0
  7  8  1  6
  9  7  1  0
  9 10  2  0
 11 12  2  0
 12  2  1  0
 13  9  1  0
 14 13  1  0
 14 15  1  6
 16 15  1  0
 16 17  2  0
 18 17  1  0
 19 18  1  0
 20 19  2  0
 21 20  1  0
 22 21  2  0
 22 23  1  0
 23 24  2  0
 24 19  1  0
 24 16  1  0
 25 14  1  0
 26 25  2  0
 27 25  1  0
 28 27  1  0
 28 29  1  6
 29 30  1  0
 31 28  1  0
 31 32  1  0
 33 31  2  0
M  END
$$$$
