YWC.pdb
     RDKit          3D

 33 35  0  0  1  0  0  0  0  0999 V2000
   14.5998  -23.4913   19.3099 O   0  0  0  0  0  0  0  0  0  0  0  0
   14.0352  -22.2781   19.7020 C   0  0  0  0  0  0  0  0  0  0  0  0
   14.5094  -21.5675   20.7818 C   0  0  0  0  0  0  0  0  0  0  0  0
   13.8939  -20.3832   21.0960 C   0  0  0  0  0  0  0  0  0  0  0  0
   12.8197  -19.8705   20.3786 C   0  0  0  0  0  0  0  0  0  0  0  0
   12.1917  -18.5684   20.7748 C   0  0  0  0  0  0  0  0  0  0  0  0
   11.6149  -18.7462   22.1646 C   0  0  2  0  0  0  0  0  0  0  0  0
   10.6434  -19.7706   22.1450 N   0  0  0  0  0  0  0  0  0  0  0  0
   11.1625  -17.4354   22.6357 C   0  0  0  0  0  0  0  0  0  0  0  0
   11.9597  -16.4685   22.5022 O   0  0  0  0  0  0  0  0  0  0  0  0
   12.3694  -20.6064   19.3038 C   0  0  0  0  0  0  0  0  0  0  0  0
   12.9689  -21.8184   18.9499 C   0  0  0  0  0  0  0  0  0  0  0  0
    9.9092  -17.1614   23.2269 N   0  0  0  0  0  0  0  0  0  0  0  0
    9.5139  -15.8188   23.5935 C   0  0  1  0  0  0  0  0  0  0  0  0
    8.0168  -15.7656   23.8534 C   0  0  0  0  0  0  0  0  0  0  0  0
    7.6092  -14.3426   23.9837 C   0  0  0  0  0  0  0  0  0  0  0  0
    7.5133  -13.4291   22.9693 C   0  0  0  0  0  0  0  0  0  0  0  0
    7.1146  -12.2640   23.5031 N   0  0  0  0  0  0  0  0  0  0  0  0
    6.9562  -12.4174   24.8280 C   0  0  0  0  0  0  0  0  0  0  0  0
    6.5673  -11.5446   25.8246 C   0  0  0  0  0  0  0  0  0  0  0  0
    6.4746  -11.9360   27.1442 C   0  0  0  0  0  0  0  0  0  0  0  0
    6.7883  -13.2603   27.4600 C   0  0  0  0  0  0  0  0  0  0  0  0
    7.1781  -14.1422   26.4733 C   0  0  0  0  0  0  0  0  0  0  0  0
    7.2603  -13.7102   25.1497 C   0  0  0  0  0  0  0  0  0  0  0  0
   10.2449  -15.4892   24.8743 C   0  0  0  0  0  0  0  0  0  0  0  0
   10.7577  -14.3563   25.0455 O   0  0  0  0  0  0  0  0  0  0  0  0
   10.3673  -16.4491   25.9071 N   0  0  0  0  0  0  0  0  0  0  0  0
   11.0775  -16.2717   27.1492 C   0  0  1  0  0  0  0  0  0  0  0  0
   10.3616  -15.3257   28.0655 C   0  0  0  0  0  0  0  0  0  0  0  0
    9.2636  -16.1444   29.2145 S   0  0  0  0  0  0  0  0  0  0  0  0
   11.4587  -17.5545   27.8091 C   0  0  0  0  0  0  0  0  0  0  0  0
   12.3971  -17.6093   28.8129 O   0  0  0  0  0  0  0  0  0  0  0  0
   10.9257  -18.6403   27.4668 O   0  0  0  0  0  0  0  0  0  0  0  0
  2  1  1  0
  3  2  2  0
  4  3  1  0
  5  4  2  0
  5 11  1  0
  6  5  1  0
  7  6  1  0
  7  8  1  6
  9  7  1  0
  9 10  2  0
 11 12  2  0
 12  2  1  0
 13  9  1  0
 14 13  1  0
 14 15  1  1
 16 15  1  0
 16 17  2  0
 18 17  1  0
 19 18  1  0
 20 19  2  0
 21 20  1  0
 22 21  2  0
 22 23  1  0
 23 24  2  0
 24 19  1  0
 24 16  1  0
 25 14  1  0
 26 25  2  0
 27 25  1  0
 28 27  1  0
 28 29  1  1
 29 30  1  0
 31 28  1  0
 31 32  1  0
 33 31  2  0
M  END
$$$$
