YWC.pdb
     RDKit          3D

 33 35  0  0  1  0  0  0  0  0999 V2000
    7.4720  -13.5171   15.9847 O   0  0  0  0  0  0  0  0  0  0  0  0
    7.6392  -13.6872   17.3586 C   0  0  0  0  0  0  0  0  0  0  0  0
    8.4623  -12.8697   18.1003 C   0  0  0  0  0  0  0  0  0  0  0  0
    8.5671  -13.1093   19.4464 C   0  0  0  0  0  0  0  0  0  0  0  0
    7.8847  -14.1332   20.0922 C   0  0  0  0  0  0  0  0  0  0  0  0
    8.0430  -14.3411   21.5681 C   0  0  0  0  0  0  0  0  0  0  0  0
    9.0908  -15.4178   21.7657 C   0  0  2  0  0  0  0  0  0  0  0  0
    8.6831  -16.5993   21.1089 N   0  0  0  0  0  0  0  0  0  0  0  0
    9.3521  -15.5340   23.2020 C   0  0  0  0  0  0  0  0  0  0  0  0
    9.9137  -14.5572   23.7664 O   0  0  0  0  0  0  0  0  0  0  0  0
    7.0694  -14.9333   19.3208 C   0  0  0  0  0  0  0  0  0  0  0  0
    6.9345  -14.7229   17.9457 C   0  0  0  0  0  0  0  0  0  0  0  0
    9.0286  -16.6471   24.0094 N   0  0  0  0  0  0  0  0  0  0  0  0
    9.4104  -16.7172   25.4032 C   0  0  1  0  0  0  0  0  0  0  0  0
    8.1742  -16.8406   26.2798 C   0  0  0  0  0  0  0  0  0  0  0  0
    7.3240  -15.6400   26.0709 C   0  0  0  0  0  0  0  0  0  0  0  0
    6.0906  -15.6112   25.4788 C   0  0  0  0  0  0  0  0  0  0  0  0
    5.6617  -14.3395   25.4864 N   0  0  0  0  0  0  0  0  0  0  0  0
    6.5917  -13.5640   26.0677 C   0  0  0  0  0  0  0  0  0  0  0  0
    6.6440  -12.2081   26.3225 C   0  0  0  0  0  0  0  0  0  0  0  0
    7.7265  -11.6224   26.9455 C   0  0  0  0  0  0  0  0  0  0  0  0
    8.7916  -12.4445   27.3220 C   0  0  0  0  0  0  0  0  0  0  0  0
    8.7514  -13.8008   27.0731 C   0  0  0  0  0  0  0  0  0  0  0  0
    7.6398  -14.3575   26.4409 C   0  0  0  0  0  0  0  0  0  0  0  0
   10.2469  -17.9660   25.5583 C   0  0  0  0  0  0  0  0  0  0  0  0
   10.0787  -18.9482   24.7949 O   0  0  0  0  0  0  0  0  0  0  0  0
   11.2367  -18.0555   26.5660 N   0  0  0  0  0  0  0  0  0  0  0  0
   12.0713  -19.1999   26.8349 C   0  0  1  0  0  0  0  0  0  0  0  0
   13.4393  -19.0381   26.2437 C   0  0  0  0  0  0  0  0  0  0  0  0
   14.2789  -17.5578   26.7912 S   0  0  0  0  0  0  0  0  0  0  0  0
   12.0952  -19.5986   28.2726 C   0  0  0  0  0  0  0  0  0  0  0  0
   12.7772  -20.7091   28.7117 O   0  0  0  0  0  0  0  0  0  0  0  0
   11.4876  -18.9222   29.1406 O   0  0  0  0  0  0  0  0  0  0  0  0
  2  1  1  0
  3  2  2  0
  4  3  1  0
  5  4  2  0
  5 11  1  0
  6  5  1  0
  7  6  1  0
  7  8  1  1
  9  7  1  0
  9 10  2  0
 11 12  2  0
 12  2  1  0
 13  9  1  0
 14 13  1  0
 14 15  1  1
 16 15  1  0
 16 17  2  0
 18 17  1  0
 19 18  1  0
 20 19  2  0
 21 20  1  0
 22 21  2  0
 22 23  1  0
 23 24  2  0
 24 19  1  0
 24 16  1  0
 25 14  1  0
 26 25  2  0
 27 25  1  0
 28 27  1  0
 28 29  1  1
 29 30  1  0
 31 28  1  0
 31 32  1  0
 33 31  2  0
M  END
$$$$
