YHY.pdb
     RDKit          3D

 35 37  0  0  1  0  0  0  0  0999 V2000
   23.0987  -14.7568  -24.1410 O   0  0  0  0  0  0  0  0  0  0  0  0
   22.5978  -13.6925  -23.4114 C   0  0  0  0  0  0  0  0  0  0  0  0
   23.2853  -13.1331  -22.3553 C   0  0  0  0  0  0  0  0  0  0  0  0
   22.7672  -12.0659  -21.6335 C   0  0  0  0  0  0  0  0  0  0  0  0
   21.5414  -11.5146  -21.9389 C   0  0  0  0  0  0  0  0  0  0  0  0
   20.9466  -10.3806  -21.1829 C   0  0  0  0  0  0  0  0  0  0  0  0
   20.1075  -10.9128  -20.0277 C   0  0  2  0  0  0  0  0  0  0  0  0
   18.8880  -11.4436  -20.6615 N   0  0  0  0  0  0  0  0  0  0  0  0
   19.7227   -9.7430  -19.1933 C   0  0  0  0  0  0  0  0  0  0  0  0
   18.7557   -8.9859  -19.5628 O   0  0  0  0  0  0  0  0  0  0  0  0
   20.8446  -12.0770  -23.0045 C   0  0  0  0  0  0  0  0  0  0  0  0
   21.3645  -13.1383  -23.7182 C   0  0  0  0  0  0  0  0  0  0  0  0
   20.3534   -9.3771  -17.9792 N   0  0  0  0  0  0  0  0  0  0  0  0
   19.8640   -8.2339  -17.1955 C   0  0  1  0  0  0  0  0  0  0  0  0
   18.3889   -8.4056  -16.9031 C   0  0  0  0  0  0  0  0  0  0  0  0
   18.1992   -9.5993  -16.0515 C   0  0  0  0  0  0  0  0  0  0  0  0
   18.5614  -10.8902  -16.3648 C   0  0  0  0  0  0  0  0  0  0  0  0
   18.2038  -11.6873  -15.3431 N   0  0  0  0  0  0  0  0  0  0  0  0
   17.6251  -10.9257  -14.3976 C   0  0  0  0  0  0  0  0  0  0  0  0
   17.6173   -9.6524  -14.8182 N   0  0  0  0  0  0  0  0  0  0  0  0
   20.7003   -7.9939  -16.0180 C   0  0  0  0  0  0  0  0  0  0  0  0
   21.3371   -8.9252  -15.4654 O   0  0  0  0  0  0  0  0  0  0  0  0
   22.1741   -1.1255  -17.8404 O   0  0  0  0  0  0  0  0  0  0  0  0
   22.4070   -2.2874  -17.1075 C   0  0  0  0  0  0  0  0  0  0  0  0
   22.4163   -3.5151  -17.7280 C   0  0  0  0  0  0  0  0  0  0  0  0
   22.6432   -4.6776  -17.0355 C   0  0  0  0  0  0  0  0  0  0  0  0
   22.8702   -4.6410  -15.6819 C   0  0  0  0  0  0  0  0  0  0  0  0
   23.0946   -5.8726  -14.9461 C   0  0  0  0  0  0  0  0  0  0  0  0
   21.8347   -6.4991  -14.3522 C   0  0  2  0  0  0  0  0  0  0  0  0
   20.8492   -6.7037  -15.4235 N   0  0  0  0  0  0  0  0  0  0  0  0
   21.2407   -5.5949  -13.3485 C   0  0  0  0  0  0  0  0  0  0  0  0
   20.1409   -5.0527  -13.5912 O   0  0  0  0  0  0  0  0  0  0  0  0
   22.8660   -3.4279  -15.0375 C   0  0  0  0  0  0  0  0  0  0  0  0
   22.6362   -2.2697  -15.7495 C   0  0  0  0  0  0  0  0  0  0  0  0
   21.8623   -5.3131  -12.1209 O   0  0  0  0  0  0  0  0  0  0  0  0
  1  2  1  0
  2  3  2  0
  3  4  1  0
  5  6  1  0
  5  4  2  0
  6  7  1  0
  7  8  1  6
  9 13  1  0
  9  7  1  0
 10  9  2  0
 11  5  1  0
 12 11  2  0
 12  2  1  0
 14 13  1  0
 14 21  1  0
 14 15  1  1
 16 17  2  0
 16 15  1  0
 18 17  1  0
 19 20  2  0
 19 18  1  0
 20 16  1  0
 21 22  2  0
 23 24  1  0
 24 25  2  0
 24 34  1  0
 25 26  1  0
 26 27  2  0
 27 28  1  0
 29 31  1  0
 29 28  1  6
 30 21  1  0
 30 29  1  0
 31 35  1  0
 32 31  2  0
 33 27  1  0
 34 33  2  0
M  END
$$$$
