YHY.pdb
     RDKit          3D

 35 37  0  0  1  0  0  0  0  0999 V2000
   18.0522  -16.5684  -20.1648 O   0  0  0  0  0  0  0  0  0  0  0  0
   18.9050  -15.5543  -19.7645 C   0  0  0  0  0  0  0  0  0  0  0  0
   18.9208  -14.3188  -20.3761 C   0  0  0  0  0  0  0  0  0  0  0  0
   19.7839  -13.3129  -19.9620 C   0  0  0  0  0  0  0  0  0  0  0  0
   20.6654  -13.5015  -18.9193 C   0  0  0  0  0  0  0  0  0  0  0  0
   21.6138  -12.4547  -18.4543 C   0  0  0  0  0  0  0  0  0  0  0  0
   22.7429  -12.2942  -19.4647 C   0  0  2  0  0  0  0  0  0  0  0  0
   23.5954  -13.4796  -19.2680 N   0  0  0  0  0  0  0  0  0  0  0  0
   23.5219  -11.0931  -19.0608 C   0  0  0  0  0  0  0  0  0  0  0  0
   24.8032  -11.1170  -19.1100 O   0  0  0  0  0  0  0  0  0  0  0  0
   20.6523  -14.7477  -18.2996 C   0  0  0  0  0  0  0  0  0  0  0  0
   19.7921  -15.7442  -18.7161 C   0  0  0  0  0  0  0  0  0  0  0  0
   22.9520   -9.8774  -18.6098 N   0  0  0  0  0  0  0  0  0  0  0  0
   23.7588   -8.6505  -18.5446 C   0  0  1  0  0  0  0  0  0  0  0  0
   24.4980   -8.4520  -19.8504 C   0  0  0  0  0  0  0  0  0  0  0  0
   25.3939   -7.2822  -19.7273 C   0  0  0  0  0  0  0  0  0  0  0  0
   25.9180   -6.7760  -18.5591 C   0  0  0  0  0  0  0  0  0  0  0  0
   26.6648   -5.7006  -18.8641 N   0  0  0  0  0  0  0  0  0  0  0  0
   26.6196   -5.5209  -20.1963 C   0  0  0  0  0  0  0  0  0  0  0  0
   25.8489   -6.4786  -20.7322 N   0  0  0  0  0  0  0  0  0  0  0  0
   22.9573   -7.5044  -18.1115 C   0  0  0  0  0  0  0  0  0  0  0  0
   21.9369   -7.1402  -18.7474 O   0  0  0  0  0  0  0  0  0  0  0  0
   19.5762   -0.9386  -13.2039 O   0  0  0  0  0  0  0  0  0  0  0  0
   20.3135   -2.0278  -13.6637 C   0  0  0  0  0  0  0  0  0  0  0  0
   21.5850   -1.8525  -14.1584 C   0  0  0  0  0  0  0  0  0  0  0  0
   22.3374   -2.9038  -14.6180 C   0  0  0  0  0  0  0  0  0  0  0  0
   21.8282   -4.1787  -14.5941 C   0  0  0  0  0  0  0  0  0  0  0  0
   22.6181   -5.2893  -15.0952 C   0  0  0  0  0  0  0  0  0  0  0  0
   22.4287   -5.5875  -16.5810 C   0  0  2  0  0  0  0  0  0  0  0  0
   23.2740   -6.7312  -16.9530 N   0  0  0  0  0  0  0  0  0  0  0  0
   22.8452   -4.4262  -17.3908 C   0  0  0  0  0  0  0  0  0  0  0  0
   21.9944   -3.8314  -18.0870 O   0  0  0  0  0  0  0  0  0  0  0  0
   20.5606   -4.3816  -14.1054 C   0  0  0  0  0  0  0  0  0  0  0  0
   19.8189   -3.3132  -13.6476 C   0  0  0  0  0  0  0  0  0  0  0  0
   24.1682   -3.9551  -17.4149 O   0  0  0  0  0  0  0  0  0  0  0  0
  1  2  1  0
  2  3  2  0
  3  4  1  0
  5  6  1  0
  5  4  2  0
  6  7  1  0
  7  8  1  1
  9 13  1  0
  9  7  1  0
 10  9  2  0
 11  5  1  0
 12 11  2  0
 12  2  1  0
 14 13  1  0
 14 21  1  0
 14 15  1  6
 16 17  2  0
 16 15  1  0
 18 17  1  0
 19 20  2  0
 19 18  1  0
 20 16  1  0
 21 22  2  0
 23 24  1  0
 24 25  2  0
 24 34  1  0
 25 26  1  0
 26 27  2  0
 27 28  1  0
 29 31  1  0
 29 28  1  1
 30 21  1  0
 30 29  1  0
 31 35  1  0
 32 31  2  0
 33 27  1  0
 34 33  2  0
M  END
$$$$
