YHY.pdb
     RDKit          3D

 35 37  0  0  1  0  0  0  0  0999 V2000
   22.3620   -5.1886  -18.3314 O   0  0  0  0  0  0  0  0  0  0  0  0
   21.5505   -5.9831  -17.5400 C   0  0  0  0  0  0  0  0  0  0  0  0
   21.7987   -7.3247  -17.3415 C   0  0  0  0  0  0  0  0  0  0  0  0
   20.9735   -8.1072  -16.5448 C   0  0  0  0  0  0  0  0  0  0  0  0
   19.8672   -7.5799  -15.9140 C   0  0  0  0  0  0  0  0  0  0  0  0
   18.9521   -8.3866  -15.0636 C   0  0  0  0  0  0  0  0  0  0  0  0
   19.1122   -7.9822  -13.6033 C   0  0  2  0  0  0  0  0  0  0  0  0
   20.3527   -8.6442  -13.1633 N   0  0  0  0  0  0  0  0  0  0  0  0
   17.9764   -8.5862  -12.8565 C   0  0  0  0  0  0  0  0  0  0  0  0
   18.0478   -9.8043  -12.4617 O   0  0  0  0  0  0  0  0  0  0  0  0
   19.6135   -6.2258  -16.1123 C   0  0  0  0  0  0  0  0  0  0  0  0
   20.4374   -5.4528  -16.9060 C   0  0  0  0  0  0  0  0  0  0  0  0
   16.7764   -7.9089  -12.5293 N   0  0  0  0  0  0  0  0  0  0  0  0
   15.7034   -8.5969  -11.7972 C   0  0  1  0  0  0  0  0  0  0  0  0
   14.9012   -7.5926  -10.9981 C   0  0  0  0  0  0  0  0  0  0  0  0
   13.8399   -8.3028  -10.2527 C   0  0  0  0  0  0  0  0  0  0  0  0
   13.5285   -9.6402  -10.3531 C   0  0  0  0  0  0  0  0  0  0  0  0
   12.4952   -9.8945   -9.5317 N   0  0  0  0  0  0  0  0  0  0  0  0
   12.1515   -8.7470   -8.9199 C   0  0  0  0  0  0  0  0  0  0  0  0
   12.9640   -7.7712   -9.3512 N   0  0  0  0  0  0  0  0  0  0  0  0
   14.9111   -9.4504  -12.6845 C   0  0  0  0  0  0  0  0  0  0  0  0
   14.6100   -9.0855  -13.8483 O   0  0  0  0  0  0  0  0  0  0  0  0
   12.2334  -12.3026  -19.4588 O   0  0  0  0  0  0  0  0  0  0  0  0
   12.8424  -12.2135  -18.2088 C   0  0  0  0  0  0  0  0  0  0  0  0
   12.5460  -13.1232  -17.2204 C   0  0  0  0  0  0  0  0  0  0  0  0
   13.1287  -13.0638  -15.9796 C   0  0  0  0  0  0  0  0  0  0  0  0
   14.0378  -12.0763  -15.6911 C   0  0  0  0  0  0  0  0  0  0  0  0
   14.6426  -12.0037  -14.3730 C   0  0  0  0  0  0  0  0  0  0  0  0
   13.6932  -11.5677  -13.2589 C   0  0  2  0  0  0  0  0  0  0  0  0
   14.4317  -10.7385  -12.2956 N   0  0  0  0  0  0  0  0  0  0  0  0
   13.1714  -12.7482  -12.5432 C   0  0  0  0  0  0  0  0  0  0  0  0
   13.5087  -12.9393  -11.3549 O   0  0  0  0  0  0  0  0  0  0  0  0
   14.3515  -11.1547  -16.6603 C   0  0  0  0  0  0  0  0  0  0  0  0
   13.7562  -11.2298  -17.9017 C   0  0  0  0  0  0  0  0  0  0  0  0
   12.3048  -13.6760  -13.1438 O   0  0  0  0  0  0  0  0  0  0  0  0
  1  2  1  0
  2  3  2  0
  3  4  1  0
  5  6  1  0
  5  4  2  0
  6  7  1  0
  7  8  1  1
  9 13  1  0
  9  7  1  0
 10  9  2  0
 11  5  1  0
 12 11  2  0
 12  2  1  0
 14 13  1  0
 14 21  1  0
 14 15  1  6
 16 17  2  0
 16 15  1  0
 18 17  1  0
 19 20  2  0
 19 18  1  0
 20 16  1  0
 21 22  2  0
 23 24  1  0
 24 25  2  0
 24 34  1  0
 25 26  1  0
 26 27  2  0
 27 28  1  0
 29 31  1  0
 29 28  1  6
 30 21  1  0
 30 29  1  0
 31 35  1  0
 32 31  2  0
 33 27  1  0
 34 33  2  0
M  END
$$$$
