YHY.pdb
     RDKit          3D

 35 37  0  0  1  0  0  0  0  0999 V2000
   29.7846  -18.3693  -18.2207 O   0  0  0  0  0  0  0  0  0  0  0  0
   28.5222  -18.8514  -17.9210 C   0  0  0  0  0  0  0  0  0  0  0  0
   27.4172  -18.0303  -17.8459 C   0  0  0  0  0  0  0  0  0  0  0  0
   26.1579  -18.5310  -17.5431 C   0  0  0  0  0  0  0  0  0  0  0  0
   25.9525  -19.8727  -17.3037 C   0  0  0  0  0  0  0  0  0  0  0  0
   24.6231  -20.4459  -16.9641 C   0  0  0  0  0  0  0  0  0  0  0  0
   24.2603  -21.5378  -17.9629 C   0  0  2  0  0  0  0  0  0  0  0  0
   24.2017  -20.8521  -19.2656 N   0  0  0  0  0  0  0  0  0  0  0  0
   22.8883  -22.0014  -17.6230 C   0  0  0  0  0  0  0  0  0  0  0  0
   21.8713  -21.3202  -18.0055 O   0  0  0  0  0  0  0  0  0  0  0  0
   27.0659  -20.7046  -17.3785 C   0  0  0  0  0  0  0  0  0  0  0  0
   28.3157  -20.2010  -17.6796 C   0  0  0  0  0  0  0  0  0  0  0  0
   22.5938  -23.1745  -16.8861 N   0  0  0  0  0  0  0  0  0  0  0  0
   21.2020  -23.5974  -16.6756 C   0  0  1  0  0  0  0  0  0  0  0  0
   21.0747  -25.0855  -16.9212 C   0  0  0  0  0  0  0  0  0  0  0  0
   21.4067  -25.3740  -18.3329 C   0  0  0  0  0  0  0  0  0  0  0  0
   20.9343  -24.6989  -19.4359 C   0  0  0  0  0  0  0  0  0  0  0  0
   21.4517  -25.2745  -20.5350 N   0  0  0  0  0  0  0  0  0  0  0  0
   22.2365  -26.2952  -20.1460 C   0  0  0  0  0  0  0  0  0  0  0  0
   22.2168  -26.3648  -18.8069 N   0  0  0  0  0  0  0  0  0  0  0  0
   20.6936  -23.1424  -15.3802 C   0  0  0  0  0  0  0  0  0  0  0  0
   19.5362  -23.4367  -14.9901 O   0  0  0  0  0  0  0  0  0  0  0  0
   27.0766  -20.1707  -12.7350 O   0  0  0  0  0  0  0  0  0  0  0  0
   25.8057  -20.7230  -12.5892 C   0  0  0  0  0  0  0  0  0  0  0  0
   24.8574  -20.0990  -11.8123 C   0  0  0  0  0  0  0  0  0  0  0  0
   23.5970  -20.6159  -11.6489 C   0  0  0  0  0  0  0  0  0  0  0  0
   23.2474  -21.7900  -12.2688 C   0  0  0  0  0  0  0  0  0  0  0  0
   21.9187  -22.3457  -12.0832 C   0  0  0  0  0  0  0  0  0  0  0  0
   20.9139  -21.9728  -13.1712 C   0  0  2  0  0  0  0  0  0  0  0  0
   21.4657  -22.3439  -14.4822 N   0  0  0  0  0  0  0  0  0  0  0  0
   20.6771  -20.5161  -13.1684 C   0  0  0  0  0  0  0  0  0  0  0  0
   21.0669  -19.8331  -14.1399 O   0  0  0  0  0  0  0  0  0  0  0  0
   24.1758  -22.4339  -13.0501 C   0  0  0  0  0  0  0  0  0  0  0  0
   25.4377  -21.8997  -13.2031 C   0  0  0  0  0  0  0  0  0  0  0  0
   20.0275  -19.8565  -12.1122 O   0  0  0  0  0  0  0  0  0  0  0  0
  1  2  1  0
  2  3  2  0
  3  4  1  0
  5  6  1  0
  5  4  2  0
  6  7  1  0
  7  8  1  6
  9 13  1  0
  9  7  1  0
 10  9  2  0
 11  5  1  0
 12 11  2  0
 12  2  1  0
 14 13  1  0
 14 21  1  0
 14 15  1  1
 16 17  2  0
 16 15  1  0
 18 17  1  0
 19 20  2  0
 19 18  1  0
 20 16  1  0
 21 22  2  0
 23 24  1  0
 24 25  2  0
 24 34  1  0
 25 26  1  0
 26 27  2  0
 27 28  1  0
 29 31  1  0
 29 28  1  1
 30 21  1  0
 30 29  1  0
 31 35  1  0
 32 31  2  0
 33 27  1  0
 34 33  2  0
M  END
$$$$
