YHY.pdb
     RDKit          3D

 35 37  0  0  1  0  0  0  0  0999 V2000
   27.0375  -12.4217  -22.1313 O   0  0  0  0  0  0  0  0  0  0  0  0
   26.1600  -11.6941  -21.3461 C   0  0  0  0  0  0  0  0  0  0  0  0
   25.9582  -11.9740  -20.0113 C   0  0  0  0  0  0  0  0  0  0  0  0
   25.0730  -11.2340  -19.2385 C   0  0  0  0  0  0  0  0  0  0  0  0
   24.3545  -10.1841  -19.7689 C   0  0  0  0  0  0  0  0  0  0  0  0
   23.3882   -9.3761  -18.9785 C   0  0  0  0  0  0  0  0  0  0  0  0
   22.3483  -10.2901  -18.3424 C   0  0  2  0  0  0  0  0  0  0  0  0
   21.5565  -10.8041  -19.4736 N   0  0  0  0  0  0  0  0  0  0  0  0
   21.4627   -9.4311  -17.5114 C   0  0  0  0  0  0  0  0  0  0  0  0
   20.5333   -8.7451  -18.0684 O   0  0  0  0  0  0  0  0  0  0  0  0
   24.5557   -9.8988  -21.1163 C   0  0  0  0  0  0  0  0  0  0  0  0
   25.4368  -10.6384  -21.8798 C   0  0  0  0  0  0  0  0  0  0  0  0
   21.5581   -9.2989  -16.1045 N   0  0  0  0  0  0  0  0  0  0  0  0
   20.5603   -8.5215  -15.3557 C   0  0  1  0  0  0  0  0  0  0  0  0
   20.0515   -9.3328  -14.1835 C   0  0  0  0  0  0  0  0  0  0  0  0
   19.0359  -10.2941  -14.6638 C   0  0  0  0  0  0  0  0  0  0  0  0
   18.5409  -10.3850  -15.9454 C   0  0  0  0  0  0  0  0  0  0  0  0
   17.6240  -11.3676  -15.9736 N   0  0  0  0  0  0  0  0  0  0  0  0
   17.5324  -11.8935  -14.7391 C   0  0  0  0  0  0  0  0  0  0  0  0
   18.3880  -11.2478  -13.9334 N   0  0  0  0  0  0  0  0  0  0  0  0
   21.0662   -7.1919  -15.0098 C   0  0  0  0  0  0  0  0  0  0  0  0
   22.0894   -7.0451  -14.2958 O   0  0  0  0  0  0  0  0  0  0  0  0
   26.4686   -5.7900  -18.1037 O   0  0  0  0  0  0  0  0  0  0  0  0
   25.2300   -5.3351  -17.6560 C   0  0  0  0  0  0  0  0  0  0  0  0
   25.1372   -4.5648  -16.5201 C   0  0  0  0  0  0  0  0  0  0  0  0
   23.9335   -4.1004  -16.0533 C   0  0  0  0  0  0  0  0  0  0  0  0
   22.7725   -4.4000  -16.7220 C   0  0  0  0  0  0  0  0  0  0  0  0
   21.4967   -3.9221  -16.2193 C   0  0  0  0  0  0  0  0  0  0  0  0
   20.9620   -4.6848  -15.0091 C   0  0  2  0  0  0  0  0  0  0  0  0
   20.4418   -5.9861  -15.4530 N   0  0  0  0  0  0  0  0  0  0  0  0
   19.8542   -3.9366  -14.3841 C   0  0  0  0  0  0  0  0  0  0  0  0
   18.6951   -4.4008  -14.4427 O   0  0  0  0  0  0  0  0  0  0  0  0
   22.8369   -5.1679  -17.8592 C   0  0  0  0  0  0  0  0  0  0  0  0
   24.0554   -5.6259  -18.3138 C   0  0  0  0  0  0  0  0  0  0  0  0
   20.0458   -2.7137  -13.7204 O   0  0  0  0  0  0  0  0  0  0  0  0
  1  2  1  0
  2  3  2  0
  3  4  1  0
  5  6  1  0
  5  4  2  0
  6  7  1  0
  7  8  1  6
  9 13  1  0
  9  7  1  0
 10  9  2  0
 11  5  1  0
 12 11  2  0
 12  2  1  0
 14 13  1  0
 14 21  1  0
 14 15  1  1
 16 17  2  0
 16 15  1  0
 18 17  1  0
 19 20  2  0
 19 18  1  0
 20 16  1  0
 21 22  2  0
 23 24  1  0
 24 25  2  0
 24 34  1  0
 25 26  1  0
 26 27  2  0
 27 28  1  0
 29 31  1  0
 29 28  1  6
 30 21  1  0
 30 29  1  0
 31 35  1  0
 32 31  2  0
 33 27  1  0
 34 33  2  0
M  END
$$$$
