YHY.pdb
     RDKit          3D

 35 37  0  0  1  0  0  0  0  0999 V2000
   31.1497  -29.8445  -18.9537 O   0  0  0  0  0  0  0  0  0  0  0  0
   30.5238  -28.6261  -18.7545 C   0  0  0  0  0  0  0  0  0  0  0  0
   30.6812  -27.5652  -19.6208 C   0  0  0  0  0  0  0  0  0  0  0  0
   30.0462  -26.3493  -19.4050 C   0  0  0  0  0  0  0  0  0  0  0  0
   29.2279  -26.1452  -18.3148 C   0  0  0  0  0  0  0  0  0  0  0  0
   28.5407  -24.8551  -18.0417 C   0  0  0  0  0  0  0  0  0  0  0  0
   29.5725  -23.7629  -17.7887 C   0  0  2  0  0  0  0  0  0  0  0  0
   30.1091  -24.0552  -16.4481 N   0  0  0  0  0  0  0  0  0  0  0  0
   28.8344  -22.4733  -17.7197 C   0  0  0  0  0  0  0  0  0  0  0  0
   28.2266  -22.1427  -16.6399 O   0  0  0  0  0  0  0  0  0  0  0  0
   29.0669  -27.2141  -17.4380 C   0  0  0  0  0  0  0  0  0  0  0  0
   29.7012  -28.4207  -17.6575 C   0  0  0  0  0  0  0  0  0  0  0  0
   28.7401  -21.5412  -18.7818 N   0  0  0  0  0  0  0  0  0  0  0  0
   28.0259  -20.2692  -18.6012 C   0  0  1  0  0  0  0  0  0  0  0  0
   28.6309  -19.2091  -19.4963 C   0  0  0  0  0  0  0  0  0  0  0  0
   29.9566  -18.8254  -18.9657 C   0  0  0  0  0  0  0  0  0  0  0  0
   30.5552  -19.3227  -17.8299 C   0  0  0  0  0  0  0  0  0  0  0  0
   31.7420  -18.7100  -17.6771 N   0  0  0  0  0  0  0  0  0  0  0  0
   31.9000  -17.8397  -18.6903 C   0  0  0  0  0  0  0  0  0  0  0  0
   30.8190  -17.9019  -19.4814 N   0  0  0  0  0  0  0  0  0  0  0  0
   26.5791  -20.4419  -18.7438 C   0  0  0  0  0  0  0  0  0  0  0  0
   26.0941  -21.4103  -19.3805 O   0  0  0  0  0  0  0  0  0  0  0  0
   18.3174  -22.3231  -17.7440 O   0  0  0  0  0  0  0  0  0  0  0  0
   19.6728  -22.0033  -17.6976 C   0  0  0  0  0  0  0  0  0  0  0  0
   20.4742  -22.1949  -18.7990 C   0  0  0  0  0  0  0  0  0  0  0  0
   21.8118  -21.8895  -18.7865 C   0  0  0  0  0  0  0  0  0  0  0  0
   22.3914  -21.3763  -17.6526 C   0  0  0  0  0  0  0  0  0  0  0  0
   23.8103  -21.0680  -17.6339 C   0  0  0  0  0  0  0  0  0  0  0  0
   24.1917  -19.7758  -18.3531 C   0  0  2  0  0  0  0  0  0  0  0  0
   25.6313  -19.5355  -18.1779 N   0  0  0  0  0  0  0  0  0  0  0  0
   23.4613  -18.6337  -17.7701 C   0  0  0  0  0  0  0  0  0  0  0  0
   22.2131  -18.6122  -17.8319 O   0  0  0  0  0  0  0  0  0  0  0  0
   21.6136  -21.1755  -16.5383 C   0  0  0  0  0  0  0  0  0  0  0  0
   20.2711  -21.4880  -16.5691 C   0  0  0  0  0  0  0  0  0  0  0  0
   24.1126  -17.5588  -17.1431 O   0  0  0  0  0  0  0  0  0  0  0  0
  1  2  1  0
  2  3  2  0
  3  4  1  0
  5  6  1  0
  5  4  2  0
  6  7  1  0
  7  8  1  1
  9 13  1  0
  9  7  1  0
 10  9  2  0
 11  5  1  0
 12 11  2  0
 12  2  1  0
 14 13  1  0
 14 21  1  0
 14 15  1  6
 16 17  2  0
 16 15  1  0
 18 17  1  0
 19 20  2  0
 19 18  1  0
 20 16  1  0
 21 22  2  0
 23 24  1  0
 24 25  2  0
 24 34  1  0
 25 26  1  0
 26 27  2  0
 27 28  1  0
 29 31  1  0
 29 28  1  1
 30 21  1  0
 30 29  1  0
 31 35  1  0
 32 31  2  0
 33 27  1  0
 34 33  2  0
M  END
$$$$
