YHY.pdb
     RDKit          3D

 35 37  0  0  1  0  0  0  0  0999 V2000
   39.4823  -15.3386  -21.2178 O   0  0  0  0  0  0  0  0  0  0  0  0
   38.4369  -14.6714  -20.6031 C   0  0  0  0  0  0  0  0  0  0  0  0
   38.5121  -13.3381  -20.2603 C   0  0  0  0  0  0  0  0  0  0  0  0
   37.4536  -12.6847  -19.6432 C   0  0  0  0  0  0  0  0  0  0  0  0
   36.2771  -13.3377  -19.3444 C   0  0  0  0  0  0  0  0  0  0  0  0
   35.1262  -12.6774  -18.6731 C   0  0  0  0  0  0  0  0  0  0  0  0
   33.8583  -12.8916  -19.4906 C   0  0  2  0  0  0  0  0  0  0  0  0
   34.0697  -12.1137  -20.7238 N   0  0  0  0  0  0  0  0  0  0  0  0
   32.7411  -12.2646  -18.7348 C   0  0  0  0  0  0  0  0  0  0  0  0
   32.4011  -12.7347  -17.5911 O   0  0  0  0  0  0  0  0  0  0  0  0
   36.1977  -14.6839  -19.6890 C   0  0  0  0  0  0  0  0  0  0  0  0
   37.2537  -15.3285  -20.3021 C   0  0  0  0  0  0  0  0  0  0  0  0
   31.9905  -11.1503  -19.1832 N   0  0  0  0  0  0  0  0  0  0  0  0
   30.9603  -10.5469  -18.3259 C   0  0  1  0  0  0  0  0  0  0  0  0
   31.2452   -9.0718  -18.1415 C   0  0  0  0  0  0  0  0  0  0  0  0
   32.4450   -8.9123  -17.2920 C   0  0  0  0  0  0  0  0  0  0  0  0
   33.2240   -9.9268  -16.7826 C   0  0  0  0  0  0  0  0  0  0  0  0
   34.2050   -9.3754  -16.0473 N   0  0  0  0  0  0  0  0  0  0  0  0
   34.0577   -8.0389  -16.0835 C   0  0  0  0  0  0  0  0  0  0  0  0
   32.9893   -7.7457  -16.8390 N   0  0  0  0  0  0  0  0  0  0  0  0
   29.6130  -10.8574  -18.8073 C   0  0  0  0  0  0  0  0  0  0  0  0
   28.5910  -10.4146  -18.2262 O   0  0  0  0  0  0  0  0  0  0  0  0
   21.9452  -14.1390  -20.2534 O   0  0  0  0  0  0  0  0  0  0  0  0
   23.2749  -13.8096  -19.9986 C   0  0  0  0  0  0  0  0  0  0  0  0
   23.5974  -12.6064  -19.4152 C   0  0  0  0  0  0  0  0  0  0  0  0
   24.8963  -12.2522  -19.1503 C   0  0  0  0  0  0  0  0  0  0  0  0
   25.9227  -13.1069  -19.4679 C   0  0  0  0  0  0  0  0  0  0  0  0
   27.2984  -12.7255  -19.2024 C   0  0  0  0  0  0  0  0  0  0  0  0
   27.9889  -11.9897  -20.3488 C   0  0  2  0  0  0  0  0  0  0  0  0
   29.3691  -11.6730  -19.9542 N   0  0  0  0  0  0  0  0  0  0  0  0
   27.2905  -10.7213  -20.6339 C   0  0  0  0  0  0  0  0  0  0  0  0
   27.6304   -9.6866  -20.0204 O   0  0  0  0  0  0  0  0  0  0  0  0
   25.6282  -14.3149  -20.0519 C   0  0  0  0  0  0  0  0  0  0  0  0
   24.3171  -14.6542  -20.3107 C   0  0  0  0  0  0  0  0  0  0  0  0
   26.2502  -10.6239  -21.5726 O   0  0  0  0  0  0  0  0  0  0  0  0
  1  2  1  0
  2  3  2  0
  3  4  1  0
  5  6  1  0
  5  4  2  0
  6  7  1  0
  7  8  1  6
  9 13  1  0
  9  7  1  0
 10  9  2  0
 11  5  1  0
 12 11  2  0
 12  2  1  0
 14 13  1  0
 14 21  1  0
 14 15  1  6
 16 17  2  0
 16 15  1  0
 18 17  1  0
 19 20  2  0
 19 18  1  0
 20 16  1  0
 21 22  2  0
 23 24  1  0
 24 25  2  0
 24 34  1  0
 25 26  1  0
 26 27  2  0
 27 28  1  0
 29 31  1  0
 29 28  1  1
 30 21  1  0
 30 29  1  0
 31 35  1  0
 32 31  2  0
 33 27  1  0
 34 33  2  0
M  END
$$$$
