YNT.pdb
     RDKit          3D

 28 28  0  0  1  0  0  0  0  0999 V2000
   15.2263  -24.5121  -12.8503 O   0  0  0  0  0  0  0  0  0  0  0  0
   16.4671  -23.9627  -13.1353 C   0  0  0  0  0  0  0  0  0  0  0  0
   17.5130  -24.2221  -12.2489 C   0  0  0  0  0  0  0  0  0  0  0  0
   18.7755  -23.6972  -12.4854 C   0  0  0  0  0  0  0  0  0  0  0  0
   18.9685  -22.9278  -13.5959 C   0  0  0  0  0  0  0  0  0  0  0  0
   20.2999  -22.3429  -13.8971 C   0  0  0  0  0  0  0  0  0  0  0  0
   20.6594  -21.2712  -12.8897 C   0  0  2  0  0  0  0  0  0  0  0  0
   19.7814  -20.1318  -12.9946 N   0  0  0  0  0  0  0  0  0  0  0  0
   22.0705  -20.8799  -13.0732 C   0  0  0  0  0  0  0  0  0  0  0  0
   22.3583  -19.8511  -13.7694 O   0  0  0  0  0  0  0  0  0  0  0  0
   17.9261  -22.6670  -14.4832 C   0  0  0  0  0  0  0  0  0  0  0  0
   16.6842  -23.1811  -14.2540 C   0  0  0  0  0  0  0  0  0  0  0  0
   27.7150  -21.0835  -10.8201 N   0  0  0  0  0  0  0  0  0  0  0  0
   26.9021  -21.4891  -11.9131 C   0  0  0  0  0  0  0  0  0  0  0  0
   27.4838  -21.5656  -13.0516 O   0  0  0  0  0  0  0  0  0  0  0  0
   25.4712  -21.8052  -11.7545 C   0  0  0  0  0  0  0  0  0  0  0  0
   24.5653  -21.1988  -12.7681 C   0  0  2  0  0  0  0  0  0  0  0  0
   23.1717  -21.5856  -12.5150 N   0  0  0  0  0  0  0  0  0  0  0  0
   24.9227  -21.4075  -14.1775 C   0  0  0  0  0  0  0  0  0  0  0  0
   24.7656  -22.5803  -14.6532 O   0  0  0  0  0  0  0  0  0  0  0  0
   25.7479  -19.9307  -18.8164 C   0  0  0  0  0  0  0  0  0  0  0  0
   25.3552  -19.6347  -17.3884 C   0  0  1  0  0  0  0  0  0  0  0  0
   24.0060  -19.3835  -17.3294 O   0  0  0  0  0  0  0  0  0  0  0  0
   25.7777  -20.7488  -16.4507 C   0  0  2  0  0  0  0  0  0  0  0  0
   25.4204  -20.4571  -15.0803 N   0  0  0  0  0  0  0  0  0  0  0  0
   27.1929  -21.0075  -16.6846 C   0  0  0  0  0  0  0  0  0  0  0  0
   28.0152  -20.7734  -15.7718 O   0  0  0  0  0  0  0  0  0  0  0  0
   27.6180  -21.5044  -17.8974 O   0  0  0  0  0  0  0  0  0  0  0  0
  1  2  1  0
  2 12  2  0
  3  4  2  0
  3  2  1  0
  4  5  1  0
  5  6  1  0
  5 11  2  0
  7  8  1  6
  7  6  1  0
  9  7  1  0
  9 10  2  0
 12 11  1  0
 13 14  1  0
 14 16  1  0
 14 15  2  0
 17 16  1  1
 17 18  1  0
 17 19  1  0
 18  9  1  0
 19 20  2  0
 19 25  1  0
 22 21  1  6
 22 23  1  0
 24 22  1  0
 24 25  1  1
 26 28  1  0
 26 24  1  0
 27 26  2  0
M  END
$$$$
