YNT.pdb
     RDKit          3D

 28 28  0  0  1  0  0  0  0  0999 V2000
   31.2514  -12.2572  -16.1766 O   0  0  0  0  0  0  0  0  0  0  0  0
   29.9907  -12.8210  -16.3010 C   0  0  0  0  0  0  0  0  0  0  0  0
   28.9390  -12.2241  -15.6050 C   0  0  0  0  0  0  0  0  0  0  0  0
   27.6568  -12.7472  -15.6935 C   0  0  0  0  0  0  0  0  0  0  0  0
   27.4504  -13.8499  -16.4707 C   0  0  0  0  0  0  0  0  0  0  0  0
   26.0979  -14.4490  -16.6015 C   0  0  0  0  0  0  0  0  0  0  0  0
   25.5891  -14.3288  -18.0225 C   0  0  2  0  0  0  0  0  0  0  0  0
   25.3566  -12.9525  -18.3857 N   0  0  0  0  0  0  0  0  0  0  0  0
   24.3644  -15.1380  -18.1745 C   0  0  0  0  0  0  0  0  0  0  0  0
   23.2257  -14.6172  -17.9335 O   0  0  0  0  0  0  0  0  0  0  0  0
   28.4986  -14.4483  -17.1672 C   0  0  0  0  0  0  0  0  0  0  0  0
   29.7599  -13.9370  -17.0826 C   0  0  0  0  0  0  0  0  0  0  0  0
   21.2013  -19.0252  -21.2249 N   0  0  0  0  0  0  0  0  0  0  0  0
   22.0375  -19.0829  -20.0772 C   0  0  0  0  0  0  0  0  0  0  0  0
   21.7338  -19.9665  -19.2011 O   0  0  0  0  0  0  0  0  0  0  0  0
   23.1899  -18.1817  -19.8973 C   0  0  0  0  0  0  0  0  0  0  0  0
   23.1148  -17.2734  -18.7204 C   0  0  2  0  0  0  0  0  0  0  0  0
   24.3555  -16.5003  -18.5824 N   0  0  0  0  0  0  0  0  0  0  0  0
   22.7298  -17.8850  -17.4416 C   0  0  0  0  0  0  0  0  0  0  0  0
   23.6677  -18.1878  -16.6323 O   0  0  0  0  0  0  0  0  0  0  0  0
   19.9533  -18.5209  -13.5279 C   0  0  0  0  0  0  0  0  0  0  0  0
   20.4103  -17.8336  -14.7927 C   0  0  1  0  0  0  0  0  0  0  0  0
   21.1741  -16.7395  -14.4664 O   0  0  0  0  0  0  0  0  0  0  0  0
   21.1363  -18.7909  -15.7176 C   0  0  2  0  0  0  0  0  0  0  0  0
   21.4341  -18.1781  -16.9929 N   0  0  0  0  0  0  0  0  0  0  0  0
   20.3528  -20.0182  -15.7831 C   0  0  0  0  0  0  0  0  0  0  0  0
   19.8301  -20.3513  -16.8695 O   0  0  0  0  0  0  0  0  0  0  0  0
   20.1912  -20.8012  -14.6609 O   0  0  0  0  0  0  0  0  0  0  0  0
  1  2  1  0
  2 12  2  0
  3  4  2  0
  3  2  1  0
  4  5  1  0
  5  6  1  0
  5 11  2  0
  7  8  1  1
  7  6  1  0
  9  7  1  0
  9 10  2  0
 12 11  1  0
 13 14  1  0
 14 16  1  0
 14 15  2  0
 17 16  1  6
 17 18  1  0
 17 19  1  0
 18  9  1  0
 19 20  2  0
 19 25  1  0
 22 21  1  1
 22 23  1  0
 24 22  1  0
 24 25  1  6
 26 28  1  0
 26 24  1  0
 27 26  2  0
M  END
$$$$
