YNT.pdb
     RDKit          3D

 28 28  0  0  1  0  0  0  0  0999 V2000
   28.2766  -18.9922   -4.4437 O   0  0  0  0  0  0  0  0  0  0  0  0
   28.2248  -19.2085   -5.8124 C   0  0  0  0  0  0  0  0  0  0  0  0
   29.4002  -19.0349   -6.5438 C   0  0  0  0  0  0  0  0  0  0  0  0
   29.4052  -19.2379   -7.9165 C   0  0  0  0  0  0  0  0  0  0  0  0
   28.2432  -19.6081   -8.5290 C   0  0  0  0  0  0  0  0  0  0  0  0
   28.1935  -19.8397   -9.9951 C   0  0  0  0  0  0  0  0  0  0  0  0
   27.9710  -21.3054  -10.3030 C   0  0  2  0  0  0  0  0  0  0  0  0
   29.2197  -22.0214  -10.3946 N   0  0  0  0  0  0  0  0  0  0  0  0
   27.1880  -21.4311  -11.5476 C   0  0  0  0  0  0  0  0  0  0  0  0
   27.7869  -21.6136  -12.6584 O   0  0  0  0  0  0  0  0  0  0  0  0
   27.0676  -19.7825   -7.8013 C   0  0  0  0  0  0  0  0  0  0  0  0
   27.0590  -19.5839   -6.4523 C   0  0  0  0  0  0  0  0  0  0  0  0
   24.0566  -24.4955  -14.7269 N   0  0  0  0  0  0  0  0  0  0  0  0
   23.5851  -23.4898  -13.8402 C   0  0  0  0  0  0  0  0  0  0  0  0
   22.4351  -22.9941  -14.1087 O   0  0  0  0  0  0  0  0  0  0  0  0
   24.3680  -23.0373  -12.6761 C   0  0  0  0  0  0  0  0  0  0  0  0
   25.0125  -21.7031  -12.8175 C   0  0  2  0  0  0  0  0  0  0  0  0
   25.7688  -21.3619  -11.6061 N   0  0  0  0  0  0  0  0  0  0  0  0
   24.1419  -20.5926  -13.2257 C   0  0  0  0  0  0  0  0  0  0  0  0
   23.5061  -19.9795  -12.3060 O   0  0  0  0  0  0  0  0  0  0  0  0
   24.8270  -17.3449  -15.4250 C   0  0  0  0  0  0  0  0  0  0  0  0
   23.6367  -18.1255  -15.9298 C   0  0  1  0  0  0  0  0  0  0  0  0
   23.9990  -18.8370  -17.0475 O   0  0  0  0  0  0  0  0  0  0  0  0
   23.0484  -19.0091  -14.8472 C   0  0  2  0  0  0  0  0  0  0  0  0
   23.9241  -20.1138  -14.5255 N   0  0  0  0  0  0  0  0  0  0  0  0
   21.7030  -19.3815  -15.2664 C   0  0  0  0  0  0  0  0  0  0  0  0
   21.4454  -20.5841  -15.4937 O   0  0  0  0  0  0  0  0  0  0  0  0
   20.7276  -18.4188  -15.4096 O   0  0  0  0  0  0  0  0  0  0  0  0
  1  2  1  0
  2 12  2  0
  3  4  2  0
  3  2  1  0
  4  5  1  0
  5  6  1  0
  5 11  2  0
  7  8  1  6
  7  6  1  0
  9  7  1  0
  9 10  2  0
 12 11  1  0
 13 14  1  0
 14 16  1  0
 14 15  2  0
 17 16  1  1
 17 18  1  0
 17 19  1  0
 18  9  1  0
 19 20  2  0
 19 25  1  0
 22 21  1  1
 22 23  1  0
 24 22  1  0
 24 25  1  6
 26 28  1  0
 26 24  1  0
 27 26  2  0
M  END
$$$$
