YNT.pdb
     RDKit          3D

 28 28  0  0  1  0  0  0  0  0999 V2000
   23.3780  -21.7611   -7.2746 O   0  0  0  0  0  0  0  0  0  0  0  0
   23.9133  -21.2846   -8.4617 C   0  0  0  0  0  0  0  0  0  0  0  0
   25.3018  -21.1834   -8.5553 C   0  0  0  0  0  0  0  0  0  0  0  0
   25.8908  -20.7126   -9.7202 C   0  0  0  0  0  0  0  0  0  0  0  0
   25.0869  -20.3539  -10.7631 C   0  0  0  0  0  0  0  0  0  0  0  0
   25.6655  -19.8454  -12.0328 C   0  0  0  0  0  0  0  0  0  0  0  0
   25.4965  -20.8570  -13.1466 C   0  0  2  0  0  0  0  0  0  0  0  0
   26.2786  -22.0445  -12.9049 N   0  0  0  0  0  0  0  0  0  0  0  0
   25.8544  -20.2319  -14.4347 C   0  0  0  0  0  0  0  0  0  0  0  0
   26.9642  -20.5192  -14.9928 O   0  0  0  0  0  0  0  0  0  0  0  0
   23.6999  -20.4539  -10.6728 C   0  0  0  0  0  0  0  0  0  0  0  0
   23.1177  -20.9161   -9.5297 C   0  0  0  0  0  0  0  0  0  0  0  0
   27.0812  -19.8506  -19.4459 N   0  0  0  0  0  0  0  0  0  0  0  0
   25.8653  -19.4861  -18.8065 C   0  0  0  0  0  0  0  0  0  0  0  0
   25.0525  -18.7793  -19.4995 O   0  0  0  0  0  0  0  0  0  0  0  0
   25.5497  -19.8938  -17.4256 C   0  0  0  0  0  0  0  0  0  0  0  0
   25.3713  -18.7802  -16.4542 C   0  0  2  0  0  0  0  0  0  0  0  0
   25.0293  -19.3018  -15.1249 N   0  0  0  0  0  0  0  0  0  0  0  0
   24.4540  -17.7033  -16.8500 C   0  0  0  0  0  0  0  0  0  0  0  0
   23.2280  -18.0115  -17.0171 O   0  0  0  0  0  0  0  0  0  0  0  0
   25.3178  -13.6807  -16.0787 C   0  0  0  0  0  0  0  0  0  0  0  0
   23.9224  -14.2570  -16.1187 C   0  0  1  0  0  0  0  0  0  0  0  0
   23.0118  -13.2373  -16.2527 O   0  0  0  0  0  0  0  0  0  0  0  0
   23.7818  -15.3046  -17.2058 C   0  0  2  0  0  0  0  0  0  0  0  0
   24.7670  -16.3537  -17.0664 N   0  0  0  0  0  0  0  0  0  0  0  0
   23.7862  -14.6113  -18.4879 C   0  0  0  0  0  0  0  0  0  0  0  0
   22.8633  -13.8092  -18.7511 O   0  0  0  0  0  0  0  0  0  0  0  0
   24.7959  -14.8377  -19.3977 O   0  0  0  0  0  0  0  0  0  0  0  0
  1  2  1  0
  2 12  2  0
  3  4  2  0
  3  2  1  0
  4  5  1  0
  5  6  1  0
  5 11  2  0
  7  8  1  1
  7  6  1  0
  9  7  1  0
  9 10  2  0
 12 11  1  0
 13 14  1  0
 14 16  1  0
 14 15  2  0
 17 16  1  6
 17 18  1  0
 17 19  1  0
 18  9  1  0
 19 20  2  0
 19 25  1  0
 22 21  1  6
 22 23  1  0
 24 22  1  0
 24 25  1  6
 26 28  1  0
 26 24  1  0
 27 26  2  0
M  END
$$$$
