YNT.pdb
     RDKit          3D

 28 28  0  0  1  0  0  0  0  0999 V2000
   31.5866  -26.3356  -16.6743 O   0  0  0  0  0  0  0  0  0  0  0  0
   30.6934  -25.2991  -16.4492 C   0  0  0  0  0  0  0  0  0  0  0  0
   29.4292  -25.3910  -17.0324 C   0  0  0  0  0  0  0  0  0  0  0  0
   28.4963  -24.3820  -16.8402 C   0  0  0  0  0  0  0  0  0  0  0  0
   28.8415  -23.3068  -16.0739 C   0  0  0  0  0  0  0  0  0  0  0  0
   27.8806  -22.2000  -15.8350 C   0  0  0  0  0  0  0  0  0  0  0  0
   27.6238  -21.4233  -17.1091 C   0  0  2  0  0  0  0  0  0  0  0  0
   28.8118  -20.7416  -17.5608 N   0  0  0  0  0  0  0  0  0  0  0  0
   26.5126  -20.4770  -16.8905 C   0  0  0  0  0  0  0  0  0  0  0  0
   26.6918  -19.4449  -16.1635 O   0  0  0  0  0  0  0  0  0  0  0  0
   30.1033  -23.2120  -15.4900 C   0  0  0  0  0  0  0  0  0  0  0  0
   31.0225  -24.2017  -15.6767 C   0  0  0  0  0  0  0  0  0  0  0  0
   22.0059  -17.7631  -16.9081 N   0  0  0  0  0  0  0  0  0  0  0  0
   22.5831  -18.0188  -18.1815 C   0  0  0  0  0  0  0  0  0  0  0  0
   22.0830  -17.3733  -19.1682 O   0  0  0  0  0  0  0  0  0  0  0  0
   23.6936  -18.9706  -18.3650 C   0  0  0  0  0  0  0  0  0  0  0  0
   24.1108  -19.7112  -17.1431 C   0  0  2  0  0  0  0  0  0  0  0  0
   25.2130  -20.6325  -17.4465 N   0  0  0  0  0  0  0  0  0  0  0  0
   23.0474  -20.3908  -16.3913 C   0  0  0  0  0  0  0  0  0  0  0  0
   23.0952  -21.6637  -16.3318 O   0  0  0  0  0  0  0  0  0  0  0  0
   22.4743  -20.0904  -12.8222 C   0  0  0  0  0  0  0  0  0  0  0  0
   21.7937  -21.1384  -13.6704 C   0  0  1  0  0  0  0  0  0  0  0  0
   20.9640  -21.8960  -12.8802 O   0  0  0  0  0  0  0  0  0  0  0  0
   21.0650  -20.5181  -14.8466 C   0  0  2  0  0  0  0  0  0  0  0  0
   21.9698  -19.7999  -15.7162 N   0  0  0  0  0  0  0  0  0  0  0  0
   19.9578  -19.7340  -14.3140 C   0  0  0  0  0  0  0  0  0  0  0  0
   19.9469  -18.4958  -14.4894 O   0  0  0  0  0  0  0  0  0  0  0  0
   18.9359  -20.3513  -13.6259 O   0  0  0  0  0  0  0  0  0  0  0  0
  1  2  1  0
  2 12  2  0
  3  4  2  0
  3  2  1  0
  4  5  1  0
  5  6  1  0
  5 11  2  0
  7  8  1  1
  7  6  1  0
  9  7  1  0
  9 10  2  0
 12 11  1  0
 13 14  1  0
 14 16  1  0
 14 15  2  0
 17 16  1  6
 17 18  1  0
 17 19  1  0
 18  9  1  0
 19 20  2  0
 19 25  1  0
 22 21  1  1
 22 23  1  0
 24 22  1  0
 24 25  1  1
 26 28  1  0
 26 24  1  0
 27 26  2  0
M  END
$$$$
