YNT.pdb
     RDKit          3D

 28 28  0  0  1  0  0  0  0  0999 V2000
   28.1334  -19.9241   -5.1630 O   0  0  0  0  0  0  0  0  0  0  0  0
   27.8641  -19.9319   -6.5232 C   0  0  0  0  0  0  0  0  0  0  0  0
   26.5278  -19.9793   -6.9220 C   0  0  0  0  0  0  0  0  0  0  0  0
   26.2012  -19.9894   -8.2706 C   0  0  0  0  0  0  0  0  0  0  0  0
   27.2092  -19.9523   -9.1899 C   0  0  0  0  0  0  0  0  0  0  0  0
   26.9152  -19.9595  -10.6455 C   0  0  0  0  0  0  0  0  0  0  0  0
   26.6007  -21.3606  -11.1259 C   0  0  2  0  0  0  0  0  0  0  0  0
   27.8035  -22.1208  -11.3611 N   0  0  0  0  0  0  0  0  0  0  0  0
   25.7668  -21.2861  -12.3413 C   0  0  0  0  0  0  0  0  0  0  0  0
   26.2893  -20.9294  -13.4484 O   0  0  0  0  0  0  0  0  0  0  0  0
   28.5448  -19.9047   -8.7949 C   0  0  0  0  0  0  0  0  0  0  0  0
   28.8694  -19.8947   -7.4705 C   0  0  0  0  0  0  0  0  0  0  0  0
   24.6620  -25.0235  -13.8517 N   0  0  0  0  0  0  0  0  0  0  0  0
   24.2910  -23.8155  -14.5021 C   0  0  0  0  0  0  0  0  0  0  0  0
   24.9601  -23.5100  -15.5506 O   0  0  0  0  0  0  0  0  0  0  0  0
   23.2002  -22.9575  -14.0054 C   0  0  0  0  0  0  0  0  0  0  0  0
   23.5978  -21.5763  -13.6180 C   0  0  2  0  0  0  0  0  0  0  0  0
   24.3783  -21.5913  -12.3744 N   0  0  0  0  0  0  0  0  0  0  0  0
   22.5233  -20.5767  -13.5540 C   0  0  0  0  0  0  0  0  0  0  0  0
   21.9562  -20.3992  -12.4257 O   0  0  0  0  0  0  0  0  0  0  0  0
   19.6690  -16.9794  -15.5391 C   0  0  0  0  0  0  0  0  0  0  0  0
   20.7614  -18.0075  -15.7140 C   0  0  1  0  0  0  0  0  0  0  0  0
   21.9282  -17.3767  -16.0710 O   0  0  0  0  0  0  0  0  0  0  0  0
   20.9239  -18.8662  -14.4749 C   0  0  2  0  0  0  0  0  0  0  0  0
   22.0397  -19.7773  -14.5995 N   0  0  0  0  0  0  0  0  0  0  0  0
   19.6359  -19.4913  -14.2011 C   0  0  0  0  0  0  0  0  0  0  0  0
   18.8156  -18.9013  -13.4640 O   0  0  0  0  0  0  0  0  0  0  0  0
   19.3273  -20.7173  -14.7490 O   0  0  0  0  0  0  0  0  0  0  0  0
  1  2  1  0
  2 12  2  0
  3  4  2  0
  3  2  1  0
  4  5  1  0
  5  6  1  0
  5 11  2  0
  7  8  1  6
  7  6  1  0
  9  7  1  0
  9 10  2  0
 12 11  1  0
 13 14  1  0
 14 16  1  0
 14 15  2  0
 17 16  1  1
 17 18  1  0
 17 19  1  0
 18  9  1  0
 19 20  2  0
 19 25  1  0
 22 21  1  1
 22 23  1  0
 24 22  1  0
 24 25  1  6
 26 28  1  0
 26 24  1  0
 27 26  2  0
M  END
$$$$
