YNT.pdb
     RDKit          3D

 28 28  0  0  1  0  0  0  0  0999 V2000
   29.7222  -18.9614   -4.6633 O   0  0  0  0  0  0  0  0  0  0  0  0
   28.8630  -19.5010   -5.6086 C   0  0  0  0  0  0  0  0  0  0  0  0
   29.4106  -20.3303   -6.5879 C   0  0  0  0  0  0  0  0  0  0  0  0
   28.5966  -20.8969   -7.5585 C   0  0  0  0  0  0  0  0  0  0  0  0
   27.2593  -20.6260   -7.5328 C   0  0  0  0  0  0  0  0  0  0  0  0
   26.3433  -21.2075   -8.5468 C   0  0  0  0  0  0  0  0  0  0  0  0
   25.8925  -20.1529   -9.5353 C   0  0  2  0  0  0  0  0  0  0  0  0
   25.4235  -18.9657   -8.8639 N   0  0  0  0  0  0  0  0  0  0  0  0
   24.8511  -20.7189  -10.4146 C   0  0  0  0  0  0  0  0  0  0  0  0
   23.6827  -20.9392   -9.9540 O   0  0  0  0  0  0  0  0  0  0  0  0
   26.7092  -19.7982   -6.5559 C   0  0  0  0  0  0  0  0  0  0  0  0
   27.5061  -19.2398   -5.6007 C   0  0  0  0  0  0  0  0  0  0  0  0
   21.5496  -21.5232  -14.2919 N   0  0  0  0  0  0  0  0  0  0  0  0
   21.6362  -20.5148  -13.2941 C   0  0  0  0  0  0  0  0  0  0  0  0
   20.5867  -19.8017  -13.1193 O   0  0  0  0  0  0  0  0  0  0  0  0
   22.8593  -20.2953  -12.5015 C   0  0  0  0  0  0  0  0  0  0  0  0
   23.9450  -21.2920  -12.7101 C   0  0  2  0  0  0  0  0  0  0  0  0
   25.0569  -21.0491  -11.7823 N   0  0  0  0  0  0  0  0  0  0  0  0
   24.4326  -21.4544  -14.0863 C   0  0  0  0  0  0  0  0  0  0  0  0
   25.5164  -20.8583  -14.3968 O   0  0  0  0  0  0  0  0  0  0  0  0
   24.8854  -24.9597  -14.6721 C   0  0  0  0  0  0  0  0  0  0  0  0
   25.5810  -23.8909  -15.4813 C   0  0  1  0  0  0  0  0  0  0  0  0
   26.4028  -24.4837  -16.4087 O   0  0  0  0  0  0  0  0  0  0  0  0
   24.5886  -22.9353  -16.1147 C   0  0  2  0  0  0  0  0  0  0  0  0
   23.8434  -22.2008  -15.1166 N   0  0  0  0  0  0  0  0  0  0  0  0
   23.7820  -23.7002  -17.0575 C   0  0  0  0  0  0  0  0  0  0  0  0
   22.5605  -23.8499  -16.8347 O   0  0  0  0  0  0  0  0  0  0  0  0
   24.3600  -24.2508  -18.1807 O   0  0  0  0  0  0  0  0  0  0  0  0
  1  2  1  0
  2 12  2  0
  3  4  2  0
  3  2  1  0
  4  5  1  0
  5  6  1  0
  5 11  2  0
  7  8  1  1
  7  6  1  0
  9  7  1  0
  9 10  2  0
 12 11  1  0
 13 14  1  0
 14 16  1  0
 14 15  2  0
 17 16  1  6
 17 18  1  0
 17 19  1  0
 18  9  1  0
 19 20  2  0
 19 25  1  0
 22 21  1  6
 22 23  1  0
 24 22  1  0
 24 25  1  1
 26 28  1  0
 26 24  1  0
 27 26  2  0
M  END
$$$$
