YNT.pdb
     RDKit          3D

 28 28  0  0  1  0  0  0  0  0999 V2000
   27.7167  -19.7665   -5.7603 O   0  0  0  0  0  0  0  0  0  0  0  0
   27.5797  -19.8721   -7.1361 C   0  0  0  0  0  0  0  0  0  0  0  0
   28.7260  -20.1378   -7.8859 C   0  0  0  0  0  0  0  0  0  0  0  0
   28.6464  -20.2535   -9.2664 C   0  0  0  0  0  0  0  0  0  0  0  0
   27.4309  -20.1024   -9.8683 C   0  0  0  0  0  0  0  0  0  0  0  0
   27.2896  -20.2178  -11.3421 C   0  0  0  0  0  0  0  0  0  0  0  0
   26.7535  -21.5802  -11.7282 C   0  0  2  0  0  0  0  0  0  0  0  0
   27.7284  -22.3402  -12.4713 N   0  0  0  0  0  0  0  0  0  0  0  0
   25.5035  -21.4155  -12.4952 C   0  0  0  0  0  0  0  0  0  0  0  0
   25.5159  -21.5434  -13.7638 O   0  0  0  0  0  0  0  0  0  0  0  0
   26.2842  -19.8371   -9.1223 C   0  0  0  0  0  0  0  0  0  0  0  0
   26.3587  -19.7228   -7.7656 C   0  0  0  0  0  0  0  0  0  0  0  0
   20.1859  -23.0417  -13.0288 N   0  0  0  0  0  0  0  0  0  0  0  0
   20.5622  -21.8536  -12.3457 C   0  0  0  0  0  0  0  0  0  0  0  0
   19.6811  -20.9251  -12.3002 O   0  0  0  0  0  0  0  0  0  0  0  0
   21.8880  -21.6908  -11.7225 C   0  0  0  0  0  0  0  0  0  0  0  0
   22.9787  -21.2626  -12.6404 C   0  0  2  0  0  0  0  0  0  0  0  0
   24.2433  -21.1146  -11.9091 N   0  0  0  0  0  0  0  0  0  0  0  0
   22.7109  -20.0835  -13.4745 C   0  0  0  0  0  0  0  0  0  0  0  0
   22.7873  -18.9408  -12.9134 O   0  0  0  0  0  0  0  0  0  0  0  0
   22.7157  -17.5275  -17.6314 C   0  0  0  0  0  0  0  0  0  0  0  0
   22.9330  -18.8164  -16.8748 C   0  0  1  0  0  0  0  0  0  0  0  0
   24.2772  -18.9954  -16.6559 O   0  0  0  0  0  0  0  0  0  0  0  0
   22.1279  -18.8525  -15.5904 C   0  0  2  0  0  0  0  0  0  0  0  0
   22.3796  -20.0606  -14.8367 N   0  0  0  0  0  0  0  0  0  0  0  0
   20.7329  -18.6141  -15.9390 C   0  0  0  0  0  0  0  0  0  0  0  0
   20.0626  -19.5420  -16.4430 O   0  0  0  0  0  0  0  0  0  0  0  0
   20.1609  -17.3808  -15.7148 O   0  0  0  0  0  0  0  0  0  0  0  0
  1  2  1  0
  2 12  2  0
  3  4  2  0
  3  2  1  0
  4  5  1  0
  5  6  1  0
  5 11  2  0
  7  8  1  6
  7  6  1  0
  9  7  1  0
  9 10  2  0
 12 11  1  0
 13 14  1  0
 14 16  1  0
 14 15  2  0
 17 16  1  1
 17 18  1  0
 17 19  1  0
 18  9  1  0
 19 20  2  0
 19 25  1  0
 22 21  1  1
 22 23  1  0
 24 22  1  0
 24 25  1  6
 26 28  1  0
 26 24  1  0
 27 26  2  0
M  END
$$$$
