YNT.pdb
     RDKit          3D

 28 28  0  0  1  0  0  0  0  0999 V2000
   26.3300  -20.7889   -6.1521 O   0  0  0  0  0  0  0  0  0  0  0  0
   26.2096  -20.4860   -7.4999 C   0  0  0  0  0  0  0  0  0  0  0  0
   27.2312  -19.7444   -8.0943 C   0  0  0  0  0  0  0  0  0  0  0  0
   27.1618  -19.4129   -9.4399 C   0  0  0  0  0  0  0  0  0  0  0  0
   26.0799  -19.8259  -10.1622 C   0  0  0  0  0  0  0  0  0  0  0  0
   25.9566  -19.4998  -11.6057 C   0  0  0  0  0  0  0  0  0  0  0  0
   25.9874  -20.7576  -12.4480 C   0  0  2  0  0  0  0  0  0  0  0  0
   27.2690  -21.4146  -12.3697 N   0  0  0  0  0  0  0  0  0  0  0  0
   25.6410  -20.4219  -13.8428 C   0  0  0  0  0  0  0  0  0  0  0  0
   26.5640  -20.2993  -14.7139 O   0  0  0  0  0  0  0  0  0  0  0  0
   25.0580  -20.5668   -9.5716 C   0  0  0  0  0  0  0  0  0  0  0  0
   25.1230  -20.8942   -8.2495 C   0  0  0  0  0  0  0  0  0  0  0  0
   25.2782  -20.4450  -18.8729 N   0  0  0  0  0  0  0  0  0  0  0  0
   24.3220  -21.0279  -17.9979 C   0  0  0  0  0  0  0  0  0  0  0  0
   23.2454  -21.4572  -18.5431 O   0  0  0  0  0  0  0  0  0  0  0  0
   24.5479  -21.1363  -16.5454 C   0  0  0  0  0  0  0  0  0  0  0  0
   23.9942  -20.0234  -15.7264 C   0  0  2  0  0  0  0  0  0  0  0  0
   24.3123  -20.2171  -14.3062 N   0  0  0  0  0  0  0  0  0  0  0  0
   22.5692  -19.7178  -15.9107 C   0  0  0  0  0  0  0  0  0  0  0  0
   21.8542  -19.6083  -14.8605 O   0  0  0  0  0  0  0  0  0  0  0  0
   20.8473  -17.6087  -15.1198 C   0  0  0  0  0  0  0  0  0  0  0  0
   20.5284  -17.5545  -16.5951 C   0  0  1  0  0  0  0  0  0  0  0  0
   21.3753  -16.6664  -17.2121 O   0  0  0  0  0  0  0  0  0  0  0  0
   20.5740  -18.9319  -17.2273 C   0  0  2  0  0  0  0  0  0  0  0  0
   21.8887  -19.5245  -17.1213 N   0  0  0  0  0  0  0  0  0  0  0  0
   20.0518  -18.8111  -18.5828 C   0  0  0  0  0  0  0  0  0  0  0  0
   20.8218  -18.9917  -19.5517 O   0  0  0  0  0  0  0  0  0  0  0  0
   18.7255  -18.5020  -18.7923 O   0  0  0  0  0  0  0  0  0  0  0  0
  1  2  1  0
  2 12  2  0
  3  4  2  0
  3  2  1  0
  4  5  1  0
  5  6  1  0
  5 11  2  0
  7  8  1  6
  7  6  1  0
  9  7  1  0
  9 10  2  0
 12 11  1  0
 13 14  1  0
 14 16  1  0
 14 15  2  0
 17 16  1  6
 17 18  1  0
 17 19  1  0
 18  9  1  0
 19 20  2  0
 19 25  1  0
 22 21  1  1
 22 23  1  0
 24 22  1  0
 24 25  1  6
 26 28  1  0
 26 24  1  0
 27 26  2  0
M  END
$$$$
