YNT.pdb
     RDKit          3D

 28 28  0  0  1  0  0  0  0  0999 V2000
   16.7819  -15.7357  -19.2919 O   0  0  0  0  0  0  0  0  0  0  0  0
   17.6961  -14.9370  -18.6219 C   0  0  0  0  0  0  0  0  0  0  0  0
   17.9066  -13.6442  -19.1029 C   0  0  0  0  0  0  0  0  0  0  0  0
   18.8105  -12.8023  -18.4708 C   0  0  0  0  0  0  0  0  0  0  0  0
   19.4831  -13.2645  -17.3770 C   0  0  0  0  0  0  0  0  0  0  0  0
   20.4603  -12.4044  -16.6623 C   0  0  0  0  0  0  0  0  0  0  0  0
   21.8018  -12.4126  -17.3645 C   0  0  2  0  0  0  0  0  0  0  0  0
   22.3743  -13.7361  -17.3943 N   0  0  0  0  0  0  0  0  0  0  0  0
   22.7063  -11.4515  -16.7041 C   0  0  0  0  0  0  0  0  0  0  0  0
   23.8009  -11.8589  -16.1925 O   0  0  0  0  0  0  0  0  0  0  0  0
   19.2751  -14.5550  -16.8940 C   0  0  0  0  0  0  0  0  0  0  0  0
   18.3876  -15.3851  -17.5126 C   0  0  0  0  0  0  0  0  0  0  0  0
   25.4013  -10.3888  -14.3622 N   0  0  0  0  0  0  0  0  0  0  0  0
   25.7229  -10.0242  -15.6977 C   0  0  0  0  0  0  0  0  0  0  0  0
   26.8997  -10.3313  -16.0992 O   0  0  0  0  0  0  0  0  0  0  0  0
   24.7634   -9.3323  -16.5771 C   0  0  0  0  0  0  0  0  0  0  0  0
   23.4066   -9.1198  -16.0029 C   0  0  2  0  0  0  0  0  0  0  0  0
   22.4425  -10.0588  -16.5899 N   0  0  0  0  0  0  0  0  0  0  0  0
   22.8886   -7.7456  -16.0317 C   0  0  0  0  0  0  0  0  0  0  0  0
   22.8081   -7.1748  -17.1692 O   0  0  0  0  0  0  0  0  0  0  0  0
   19.7911   -4.3008  -14.6700 C   0  0  0  0  0  0  0  0  0  0  0  0
   20.4371   -5.6574  -14.5168 C   0  0  1  0  0  0  0  0  0  0  0  0
   19.6413   -6.6102  -15.1046 O   0  0  0  0  0  0  0  0  0  0  0  0
   21.8514   -5.6674  -15.0634 C   0  0  2  0  0  0  0  0  0  0  0  0
   22.4609   -6.9730  -14.9425 N   0  0  0  0  0  0  0  0  0  0  0  0
   22.5780   -4.5781  -14.4231 C   0  0  0  0  0  0  0  0  0  0  0  0
   23.1588   -4.7882  -13.3356 O   0  0  0  0  0  0  0  0  0  0  0  0
   22.6239   -3.3326  -15.0106 O   0  0  0  0  0  0  0  0  0  0  0  0
  1  2  1  0
  2 12  2  0
  3  4  2  0
  3  2  1  0
  4  5  1  0
  5  6  1  0
  5 11  2  0
  7  8  1  1
  7  6  1  0
  9  7  1  0
  9 10  2  0
 12 11  1  0
 13 14  1  0
 14 16  1  0
 14 15  2  0
 17 16  1  6
 17 18  1  0
 17 19  1  0
 18  9  1  0
 19 20  2  0
 19 25  1  0
 22 21  1  6
 22 23  1  0
 24 22  1  0
 24 25  1  1
 26 28  1  0
 26 24  1  0
 27 26  2  0
M  END
$$$$
