LNF.pdb
     RDKit          3D

 28 28  0  0  1  0  0  0  0  0999 V2000
    9.3478  -12.6861   18.8166 C   0  0  0  0  0  0  0  0  0  0  0  0
    8.0961  -13.1773   19.5629 C   0  0  1  0  0  0  0  0  0  0  0  0
    6.9276  -12.5305   18.8645 C   0  0  0  0  0  0  0  0  0  0  0  0
    8.1325  -14.6658   19.4781 C   0  0  0  0  0  0  0  0  0  0  0  0
    8.9983  -15.3519   20.4889 C   0  0  2  0  0  0  0  0  0  0  0  0
    9.7866  -16.4303   20.0079 N   0  0  0  0  0  0  0  0  0  0  0  0
    8.2212  -15.6979   21.7248 C   0  0  0  0  0  0  0  0  0  0  0  0
    7.5899  -14.8328   22.3737 O   0  0  0  0  0  0  0  0  0  0  0  0
    5.4642  -19.6288   24.5730 N   0  0  0  0  0  0  0  0  0  0  0  0
    6.8614  -19.4645   24.7155 C   0  0  0  0  0  0  0  0  0  0  0  0
    7.3748  -19.7568   25.8472 O   0  0  0  0  0  0  0  0  0  0  0  0
    7.6463  -18.9763   23.5740 C   0  0  0  0  0  0  0  0  0  0  0  0
    7.4500  -17.5301   23.2995 C   0  0  2  0  0  0  0  0  0  0  0  0
    8.2024  -17.0390   22.1650 N   0  0  0  0  0  0  0  0  0  0  0  0
    7.8213  -16.7277   24.4831 C   0  0  0  0  0  0  0  0  0  0  0  0
    7.0615  -15.7762   24.8757 O   0  0  0  0  0  0  0  0  0  0  0  0
    8.9870  -16.9156   25.2634 N   0  0  0  0  0  0  0  0  0  0  0  0
    9.1931  -16.1808   26.5217 C   0  0  1  0  0  0  0  0  0  0  0  0
    7.8107  -15.8279   27.0179 C   0  0  0  0  0  0  0  0  0  0  0  0
    7.5065  -14.4240   26.7601 C   0  0  0  0  0  0  0  0  0  0  0  0
    6.2270  -14.0382   26.4419 C   0  0  0  0  0  0  0  0  0  0  0  0
    5.9425  -12.7275   26.1934 C   0  0  0  0  0  0  0  0  0  0  0  0
    6.9264  -11.7727   26.2560 C   0  0  0  0  0  0  0  0  0  0  0  0
    8.2223  -12.1487   26.5760 C   0  0  0  0  0  0  0  0  0  0  0  0
    8.5017  -13.4802   26.8266 C   0  0  0  0  0  0  0  0  0  0  0  0
    9.8746  -17.0143   27.5220 C   0  0  0  0  0  0  0  0  0  0  0  0
   10.3339  -16.4708   28.7044 O   0  0  0  0  0  0  0  0  0  0  0  0
   10.0716  -18.2577   27.3474 O   0  0  0  0  0  0  0  0  0  0  0  0
  2  1  1  6
  2  4  1  0
  3  2  1  0
  5  7  1  0
  5  4  1  0
  5  6  1  6
  7  8  2  0
  9 10  1  0
 10 12  1  0
 11 10  2  0
 13 12  1  1
 14 13  1  0
 14  7  1  0
 15 16  2  0
 15 13  1  0
 17 15  1  0
 18 26  1  0
 18 17  1  0
 18 19  1  1
 20 19  1  0
 21 20  2  0
 22 21  1  0
 23 22  2  0
 23 24  1  0
 24 25  2  0
 25 20  1  0
 26 27  1  0
 28 26  2  0
M  END
$$$$
