LNF.pdb
     RDKit          3D

 28 28  0  0  1  0  0  0  0  0999 V2000
   15.3427  -13.6673   18.2809 C   0  0  0  0  0  0  0  0  0  0  0  0
   14.7601  -14.9187   18.9586 C   0  0  1  0  0  0  0  0  0  0  0  0
   15.8386  -15.4171   19.8859 C   0  0  0  0  0  0  0  0  0  0  0  0
   13.5098  -14.4675   19.6351 C   0  0  0  0  0  0  0  0  0  0  0  0
   12.7859  -15.5140   20.4244 C   0  0  2  0  0  0  0  0  0  0  0  0
   12.4547  -16.7055   19.7271 N   0  0  0  0  0  0  0  0  0  0  0  0
   11.6230  -14.9262   21.1683 C   0  0  0  0  0  0  0  0  0  0  0  0
   11.7371  -13.8917   21.8644 O   0  0  0  0  0  0  0  0  0  0  0  0
    8.5568  -13.5700   19.4595 N   0  0  0  0  0  0  0  0  0  0  0  0
    7.6928  -14.6540   19.7385 C   0  0  0  0  0  0  0  0  0  0  0  0
    6.7548  -14.8873   18.9046 O   0  0  0  0  0  0  0  0  0  0  0  0
    7.9112  -15.4511   20.9528 C   0  0  0  0  0  0  0  0  0  0  0  0
    9.1456  -15.0770   21.6889 C   0  0  2  0  0  0  0  0  0  0  0  0
   10.3649  -15.5599   21.0769 N   0  0  0  0  0  0  0  0  0  0  0  0
    9.0909  -15.5853   23.0749 C   0  0  0  0  0  0  0  0  0  0  0  0
    9.9716  -16.4166   23.4874 O   0  0  0  0  0  0  0  0  0  0  0  0
    8.1171  -15.2273   24.0376 N   0  0  0  0  0  0  0  0  0  0  0  0
    8.1155  -15.8227   25.3834 C   0  0  1  0  0  0  0  0  0  0  0  0
    6.9311  -15.2137   26.0963 C   0  0  0  0  0  0  0  0  0  0  0  0
    7.1331  -13.7854   26.3172 C   0  0  0  0  0  0  0  0  0  0  0  0
    6.0893  -12.9053   26.1659 C   0  0  0  0  0  0  0  0  0  0  0  0
    6.2782  -11.5690   26.3647 C   0  0  0  0  0  0  0  0  0  0  0  0
    7.5111  -11.0805   26.7183 C   0  0  0  0  0  0  0  0  0  0  0  0
    8.5734  -11.9581   26.8742 C   0  0  0  0  0  0  0  0  0  0  0  0
    8.3726  -13.3116   26.6705 C   0  0  0  0  0  0  0  0  0  0  0  0
    7.9531  -17.2820   25.3221 C   0  0  0  0  0  0  0  0  0  0  0  0
    7.3495  -17.8838   24.2367 O   0  0  0  0  0  0  0  0  0  0  0  0
    8.3541  -18.0483   26.2534 O   0  0  0  0  0  0  0  0  0  0  0  0
  2  1  1  1
  2  4  1  0
  3  2  1  0
  5  7  1  0
  5  4  1  0
  5  6  1  6
  7  8  2  0
  9 10  1  0
 10 12  1  0
 11 10  2  0
 13 12  1  6
 14 13  1  0
 14  7  1  0
 15 16  2  0
 15 13  1  0
 17 15  1  0
 18 26  1  0
 18 17  1  0
 18 19  1  1
 20 19  1  0
 21 20  2  0
 22 21  1  0
 23 22  2  0
 23 24  1  0
 24 25  2  0
 25 20  1  0
 26 27  1  0
 28 26  2  0
M  END
$$$$
