LNF.pdb
     RDKit          3D

 28 28  0  0  1  0  0  0  0  0999 V2000
    6.7452  -12.9836   18.4857 C   0  0  0  0  0  0  0  0  0  0  0  0
    8.0937  -13.6887   18.7073 C   0  0  1  0  0  0  0  0  0  0  0  0
    9.1350  -12.6008   18.6463 C   0  0  0  0  0  0  0  0  0  0  0  0
    7.9796  -14.3751   20.0264 C   0  0  0  0  0  0  0  0  0  0  0  0
    9.2365  -15.0068   20.5395 C   0  0  2  0  0  0  0  0  0  0  0  0
    9.9788  -15.7730   19.6026 N   0  0  0  0  0  0  0  0  0  0  0  0
    8.9927  -15.7324   21.8299 C   0  0  0  0  0  0  0  0  0  0  0  0
    8.1024  -15.3728   22.6336 O   0  0  0  0  0  0  0  0  0  0  0  0
    8.5295  -19.3096   21.5743 N   0  0  0  0  0  0  0  0  0  0  0  0
    9.6181  -19.8299   22.3115 C   0  0  0  0  0  0  0  0  0  0  0  0
    9.9579  -21.0390   22.0832 O   0  0  0  0  0  0  0  0  0  0  0  0
   10.2996  -18.9698   23.2879 C   0  0  0  0  0  0  0  0  0  0  0  0
    9.7195  -17.6055   23.3772 C   0  0  2  0  0  0  0  0  0  0  0  0
    9.7911  -16.8536   22.1428 N   0  0  0  0  0  0  0  0  0  0  0  0
   10.3986  -16.8269   24.4332 C   0  0  0  0  0  0  0  0  0  0  0  0
   11.6107  -16.4505   24.2721 O   0  0  0  0  0  0  0  0  0  0  0  0
    9.8153  -16.4366   25.6622 N   0  0  0  0  0  0  0  0  0  0  0  0
   10.5981  -15.7376   26.6938 C   0  0  1  0  0  0  0  0  0  0  0  0
   10.4115  -14.2642   26.4176 C   0  0  0  0  0  0  0  0  0  0  0  0
    9.0031  -13.8917   26.5033 C   0  0  0  0  0  0  0  0  0  0  0  0
    8.1286  -14.2499   25.5063 C   0  0  0  0  0  0  0  0  0  0  0  0
    6.8133  -13.8961   25.5812 C   0  0  0  0  0  0  0  0  0  0  0  0
    6.3407  -13.1774   26.6507 C   0  0  0  0  0  0  0  0  0  0  0  0
    7.2129  -12.8093   27.6640 C   0  0  0  0  0  0  0  0  0  0  0  0
    8.5451  -13.1725   27.5797 C   0  0  0  0  0  0  0  0  0  0  0  0
   10.1044  -16.0496   28.0424 C   0  0  0  0  0  0  0  0  0  0  0  0
   10.7211  -15.5289   29.1618 O   0  0  0  0  0  0  0  0  0  0  0  0
    9.1008  -16.8041   28.2390 O   0  0  0  0  0  0  0  0  0  0  0  0
  2  1  1  1
  2  4  1  0
  3  2  1  0
  5  7  1  0
  5  4  1  0
  5  6  1  6
  7  8  2  0
  9 10  1  0
 10 12  1  0
 11 10  2  0
 13 12  1  6
 14 13  1  0
 14  7  1  0
 15 16  2  0
 15 13  1  0
 17 15  1  0
 18 26  1  0
 18 17  1  0
 18 19  1  6
 20 19  1  0
 21 20  2  0
 22 21  1  0
 23 22  2  0
 23 24  1  0
 24 25  2  0
 25 20  1  0
 26 27  1  0
 28 26  2  0
M  END
$$$$
