LNF.pdb
     RDKit          3D

 28 28  0  0  1  0  0  0  0  0999 V2000
    7.7516  -11.7534   21.0874 C   0  0  0  0  0  0  0  0  0  0  0  0
    7.5917  -13.0993   20.3609 C   0  0  1  0  0  0  0  0  0  0  0  0
    8.3331  -12.9472   19.0575 C   0  0  0  0  0  0  0  0  0  0  0  0
    8.1517  -14.1271   21.2852 C   0  0  0  0  0  0  0  0  0  0  0  0
    8.1002  -15.5399   20.7916 C   0  0  2  0  0  0  0  0  0  0  0  0
    6.8454  -15.9844   20.2980 N   0  0  0  0  0  0  0  0  0  0  0  0
    8.7089  -16.4852   21.7850 C   0  0  0  0  0  0  0  0  0  0  0  0
    8.0263  -17.3496   22.3806 O   0  0  0  0  0  0  0  0  0  0  0  0
   13.3410  -17.8139   20.5664 N   0  0  0  0  0  0  0  0  0  0  0  0
   12.5023  -18.2544   21.6161 C   0  0  0  0  0  0  0  0  0  0  0  0
   12.0083  -19.4276   21.5205 O   0  0  0  0  0  0  0  0  0  0  0  0
   12.2441  -17.3590   22.7516 C   0  0  0  0  0  0  0  0  0  0  0  0
   10.7990  -17.1787   23.0428 C   0  0  2  0  0  0  0  0  0  0  0  0
   10.0922  -16.3956   22.0521 N   0  0  0  0  0  0  0  0  0  0  0  0
   10.6171  -16.5328   24.3590 C   0  0  0  0  0  0  0  0  0  0  0  0
   11.3951  -15.5832   24.7192 O   0  0  0  0  0  0  0  0  0  0  0  0
    9.6215  -16.8744   25.3051 N   0  0  0  0  0  0  0  0  0  0  0  0
    9.5368  -16.1941   26.6072 C   0  0  1  0  0  0  0  0  0  0  0  0
    8.0698  -15.9031   26.8196 C   0  0  0  0  0  0  0  0  0  0  0  0
    7.7192  -14.5845   26.3018 C   0  0  0  0  0  0  0  0  0  0  0  0
    6.5893  -14.4164   25.5388 C   0  0  0  0  0  0  0  0  0  0  0  0
    6.2642  -13.1859   25.0478 C   0  0  0  0  0  0  0  0  0  0  0  0
    7.0578  -12.0963   25.3060 C   0  0  0  0  0  0  0  0  0  0  0  0
    8.2014  -12.2521   26.0748 C   0  0  0  0  0  0  0  0  0  0  0  0
    8.5233  -13.5037   26.5686 C   0  0  0  0  0  0  0  0  0  0  0  0
   10.0277  -17.0546   27.6928 C   0  0  0  0  0  0  0  0  0  0  0  0
   10.3966  -18.3620   27.4502 O   0  0  0  0  0  0  0  0  0  0  0  0
   10.1332  -16.6414   28.8901 O   0  0  0  0  0  0  0  0  0  0  0  0
  2  1  1  1
  2  4  1  0
  3  2  1  0
  5  7  1  0
  5  4  1  0
  5  6  1  1
  7  8  2  0
  9 10  1  0
 10 12  1  0
 11 10  2  0
 13 12  1  6
 14 13  1  0
 14  7  1  0
 15 16  2  0
 15 13  1  0
 17 15  1  0
 18 26  1  0
 18 17  1  0
 18 19  1  1
 20 19  1  0
 21 20  2  0
 22 21  1  0
 23 22  2  0
 23 24  1  0
 24 25  2  0
 25 20  1  0
 26 27  1  0
 28 26  2  0
M  END
$$$$
