LNF.pdb
     RDKit          3D

 28 28  0  0  1  0  0  0  0  0999 V2000
    6.6121  -12.8528   18.9395 C   0  0  0  0  0  0  0  0  0  0  0  0
    8.0707  -12.9253   19.4213 C   0  0  1  0  0  0  0  0  0  0  0  0
    8.5294  -11.4947   19.5423 C   0  0  0  0  0  0  0  0  0  0  0  0
    8.0356  -13.6839   20.7049 C   0  0  0  0  0  0  0  0  0  0  0  0
    9.1354  -14.6815   20.8987 C   0  0  2  0  0  0  0  0  0  0  0  0
    9.5469  -15.3914   19.7401 N   0  0  0  0  0  0  0  0  0  0  0  0
    8.8559  -15.5781   22.0687 C   0  0  0  0  0  0  0  0  0  0  0  0
    7.8420  -15.4306   22.7886 O   0  0  0  0  0  0  0  0  0  0  0  0
   10.8454  -19.9071   21.0384 N   0  0  0  0  0  0  0  0  0  0  0  0
    9.9548  -19.6556   22.1075 C   0  0  0  0  0  0  0  0  0  0  0  0
    8.7900  -20.1731   22.0359 O   0  0  0  0  0  0  0  0  0  0  0  0
   10.4030  -18.8272   23.2345 C   0  0  0  0  0  0  0  0  0  0  0  0
    9.5952  -17.5945   23.4175 C   0  0  2  0  0  0  0  0  0  0  0  0
    9.7638  -16.6184   22.3624 N   0  0  0  0  0  0  0  0  0  0  0  0
    9.9286  -16.9482   24.7033 C   0  0  0  0  0  0  0  0  0  0  0  0
   11.0465  -16.3421   24.8445 O   0  0  0  0  0  0  0  0  0  0  0  0
    9.0962  -16.9303   25.8478 N   0  0  0  0  0  0  0  0  0  0  0  0
    9.5663  -16.3781   27.1283 C   0  0  1  0  0  0  0  0  0  0  0  0
    8.3349  -15.8340   27.8135 C   0  0  0  0  0  0  0  0  0  0  0  0
    7.8583  -14.6260   27.1477 C   0  0  0  0  0  0  0  0  0  0  0  0
    6.6825  -14.6428   26.4376 C   0  0  0  0  0  0  0  0  0  0  0  0
    6.2394  -13.5165   25.8084 C   0  0  0  0  0  0  0  0  0  0  0  0
    6.9581  -12.3490   25.8729 C   0  0  0  0  0  0  0  0  0  0  0  0
    8.1469  -12.3183   26.5864 C   0  0  0  0  0  0  0  0  0  0  0  0
    8.5885  -13.4653   27.2212 C   0  0  0  0  0  0  0  0  0  0  0  0
   10.1746  -17.4193   27.9683 C   0  0  0  0  0  0  0  0  0  0  0  0
   10.8823  -17.0894   29.1062 O   0  0  0  0  0  0  0  0  0  0  0  0
   10.0800  -18.6559   27.6900 O   0  0  0  0  0  0  0  0  0  0  0  0
  2  1  1  1
  2  4  1  0
  3  2  1  0
  5  7  1  0
  5  4  1  0
  5  6  1  6
  7  8  2  0
  9 10  1  0
 10 12  1  0
 11 10  2  0
 13 12  1  6
 14 13  1  0
 14  7  1  0
 15 16  2  0
 15 13  1  0
 17 15  1  0
 18 26  1  0
 18 17  1  0
 18 19  1  1
 20 19  1  0
 21 20  2  0
 22 21  1  0
 23 22  2  0
 23 24  1  0
 24 25  2  0
 25 20  1  0
 26 27  1  0
 28 26  2  0
M  END
$$$$
