LNF.pdb
     RDKit          3D

 28 28  0  0  1  0  0  0  0  0999 V2000
    7.1149  -12.4923   18.3686 C   0  0  0  0  0  0  0  0  0  0  0  0
    7.7745  -13.8739   18.5141 C   0  0  1  0  0  0  0  0  0  0  0  0
    9.2315  -13.6637   18.1908 C   0  0  0  0  0  0  0  0  0  0  0  0
    7.4985  -14.3088   19.9137 C   0  0  0  0  0  0  0  0  0  0  0  0
    8.2041  -15.5528   20.3572 C   0  0  2  0  0  0  0  0  0  0  0  0
    8.0091  -16.7039   19.5493 N   0  0  0  0  0  0  0  0  0  0  0  0
    7.9783  -15.8147   21.8171 C   0  0  0  0  0  0  0  0  0  0  0  0
    7.9640  -14.8899   22.6612 O   0  0  0  0  0  0  0  0  0  0  0  0
    5.6429  -19.7053   25.6220 N   0  0  0  0  0  0  0  0  0  0  0  0
    6.9368  -19.3961   25.1429 C   0  0  0  0  0  0  0  0  0  0  0  0
    7.9086  -19.5044   25.9637 O   0  0  0  0  0  0  0  0  0  0  0  0
    7.1026  -18.9744   23.7457 C   0  0  0  0  0  0  0  0  0  0  0  0
    7.4454  -17.5367   23.6010 C   0  0  2  0  0  0  0  0  0  0  0  0
    7.7748  -17.1435   22.2477 N   0  0  0  0  0  0  0  0  0  0  0  0
    8.5857  -17.1903   24.4740 C   0  0  0  0  0  0  0  0  0  0  0  0
    9.7740  -17.5248   24.1381 O   0  0  0  0  0  0  0  0  0  0  0  0
    8.4912  -16.4921   25.7014 N   0  0  0  0  0  0  0  0  0  0  0  0
    9.6926  -16.1207   26.4658 C   0  0  1  0  0  0  0  0  0  0  0  0
    9.7717  -14.6140   26.3930 C   0  0  0  0  0  0  0  0  0  0  0  0
    8.5327  -14.0032   26.8640 C   0  0  0  0  0  0  0  0  0  0  0  0
    8.4455  -13.5075   28.1422 C   0  0  0  0  0  0  0  0  0  0  0  0
    7.2858  -12.9430   28.5865 C   0  0  0  0  0  0  0  0  0  0  0  0
    6.1878  -12.8604   27.7672 C   0  0  0  0  0  0  0  0  0  0  0  0
    6.2623  -13.3572   26.4746 C   0  0  0  0  0  0  0  0  0  0  0  0
    7.4425  -13.9279   26.0325 C   0  0  0  0  0  0  0  0  0  0  0  0
    9.5827  -16.5382   27.8706 C   0  0  0  0  0  0  0  0  0  0  0  0
    8.4878  -17.2508   28.3153 O   0  0  0  0  0  0  0  0  0  0  0  0
   10.4777  -16.2655   28.7308 O   0  0  0  0  0  0  0  0  0  0  0  0
  2  1  1  1
  2  4  1  0
  3  2  1  0
  5  7  1  0
  5  4  1  0
  5  6  1  6
  7  8  2  0
  9 10  1  0
 10 12  1  0
 11 10  2  0
 13 12  1  6
 14 13  1  0
 14  7  1  0
 15 16  2  0
 15 13  1  0
 17 15  1  0
 18 26  1  0
 18 17  1  0
 18 19  1  1
 20 19  1  0
 21 20  2  0
 22 21  1  0
 23 22  2  0
 23 24  1  0
 24 25  2  0
 25 20  1  0
 26 27  1  0
 28 26  2  0
M  END
$$$$
