LNF.pdb
     RDKit          3D

 28 28  0  0  1  0  0  0  0  0999 V2000
    6.9538  -12.2756   18.7401 C   0  0  0  0  0  0  0  0  0  0  0  0
    7.9807  -13.3652   19.0911 C   0  0  1  0  0  0  0  0  0  0  0  0
    9.2739  -12.6355   19.3495 C   0  0  0  0  0  0  0  0  0  0  0  0
    7.4197  -14.0851   20.2707 C   0  0  0  0  0  0  0  0  0  0  0  0
    8.3197  -15.1058   20.8955 C   0  0  2  0  0  0  0  0  0  0  0  0
    8.7707  -16.1474   20.0426 N   0  0  0  0  0  0  0  0  0  0  0  0
    7.7532  -15.6104   22.1899 C   0  0  0  0  0  0  0  0  0  0  0  0
    7.0532  -14.8857   22.9334 O   0  0  0  0  0  0  0  0  0  0  0  0
    6.4078  -19.6987   21.5954 N   0  0  0  0  0  0  0  0  0  0  0  0
    7.5795  -19.5725   22.3766 C   0  0  0  0  0  0  0  0  0  0  0  0
    8.6824  -19.9323   21.8437 O   0  0  0  0  0  0  0  0  0  0  0  0
    7.4777  -19.0394   23.7415 C   0  0  0  0  0  0  0  0  0  0  0  0
    7.5569  -17.5577   23.8026 C   0  0  2  0  0  0  0  0  0  0  0  0
    8.0179  -16.9419   22.5768 N   0  0  0  0  0  0  0  0  0  0  0  0
    8.4541  -17.1362   24.8980 C   0  0  0  0  0  0  0  0  0  0  0  0
    9.7148  -17.0528   24.6968 O   0  0  0  0  0  0  0  0  0  0  0  0
    8.0395  -16.7986   26.2084 N   0  0  0  0  0  0  0  0  0  0  0  0
    9.0048  -16.3549   27.2267 C   0  0  1  0  0  0  0  0  0  0  0  0
    8.2476  -15.3956   28.1145 C   0  0  0  0  0  0  0  0  0  0  0  0
    7.7347  -14.2667   27.3449 C   0  0  0  0  0  0  0  0  0  0  0  0
    6.4350  -14.2632   26.9002 C   0  0  0  0  0  0  0  0  0  0  0  0
    5.9561  -13.2121   26.1743 C   0  0  0  0  0  0  0  0  0  0  0  0
    6.7617  -12.1419   25.8756 C   0  0  0  0  0  0  0  0  0  0  0  0
    8.0759  -12.1328   26.3184 C   0  0  0  0  0  0  0  0  0  0  0  0
    8.5529  -13.2029   27.0539 C   0  0  0  0  0  0  0  0  0  0  0  0
    9.4920  -17.4851   28.0299 C   0  0  0  0  0  0  0  0  0  0  0  0
   10.5583  -17.3347   28.8929 O   0  0  0  0  0  0  0  0  0  0  0  0
    8.9625  -18.6388   27.9677 O   0  0  0  0  0  0  0  0  0  0  0  0
  2  1  1  1
  2  4  1  0
  3  2  1  0
  5  7  1  0
  5  4  1  0
  5  6  1  6
  7  8  2  0
  9 10  1  0
 10 12  1  0
 11 10  2  0
 13 12  1  6
 14 13  1  0
 14  7  1  0
 15 16  2  0
 15 13  1  0
 17 15  1  0
 18 26  1  0
 18 17  1  0
 18 19  1  1
 20 19  1  0
 21 20  2  0
 22 21  1  0
 23 22  2  0
 23 24  1  0
 24 25  2  0
 25 20  1  0
 26 27  1  0
 28 26  2  0
M  END
$$$$
