ILC.pdb
     RDKit          3D

 23 22  0  0  1  0  0  0  0  0999 V2000
    7.1690  -12.3973   19.8288 C   0  0  0  0  0  0  0  0  0  0  0  0
    7.3916  -13.4867   20.8420 C   0  0  0  0  0  0  0  0  0  0  0  0
    8.4960  -14.4156   20.4175 C   0  0  2  0  0  0  0  0  0  0  0  0
    8.1296  -15.0579   19.0867 C   0  0  0  0  0  0  0  0  0  0  0  0
    8.8620  -15.4642   21.4387 C   0  0  2  0  0  0  0  0  0  0  0  0
    7.6076  -16.2430   21.6388 N   0  0  0  0  0  0  0  0  0  0  0  0
    9.1674  -14.9242   22.7822 C   0  0  0  0  0  0  0  0  0  0  0  0
   10.2494  -14.2678   23.0034 O   0  0  0  0  0  0  0  0  0  0  0  0
    5.5097  -12.8491   26.3771 C   0  0  0  0  0  0  0  0  0  0  0  0
    6.8189  -13.0667   25.6351 C   0  0  1  0  0  0  0  0  0  0  0  0
    7.7844  -11.9401   25.8970 C   0  0  0  0  0  0  0  0  0  0  0  0
    7.4382  -14.3960   26.0086 C   0  0  0  0  0  0  0  0  0  0  0  0
    8.6982  -14.6187   25.2395 C   0  0  2  0  0  0  0  0  0  0  0  0
    8.3397  -15.0669   23.9023 N   0  0  0  0  0  0  0  0  0  0  0  0
    9.5740  -15.6455   25.8459 C   0  0  0  0  0  0  0  0  0  0  0  0
    9.5383  -16.8072   25.3873 O   0  0  0  0  0  0  0  0  0  0  0  0
   10.4533  -15.3611   26.9289 N   0  0  0  0  0  0  0  0  0  0  0  0
   11.2044  -16.4211   27.5707 C   0  0  1  0  0  0  0  0  0  0  0  0
   12.0418  -15.8551   28.7222 C   0  0  0  0  0  0  0  0  0  0  0  0
   10.9765  -14.7797   29.7158 S   0  0  0  0  0  0  0  0  0  0  0  0
   10.2441  -17.4250   28.1263 C   0  0  0  0  0  0  0  0  0  0  0  0
   10.7076  -18.6113   28.6753 O   0  0  0  0  0  0  0  0  0  0  0  0
    9.0004  -17.2289   28.1141 O   0  0  0  0  0  0  0  0  0  0  0  0
  2  1  1  0
  2  3  1  0
  3  4  1  6
  5  3  1  0
  5  6  1  1
  7  5  1  0
  8  7  2  0
 10  9  1  1
 11 10  1  0
 12 10  1  0
 13 12  1  1
 13 14  1  0
 14  7  1  0
 15 17  1  0
 15 13  1  0
 16 15  2  0
 18 17  1  0
 18 21  1  0
 18 19  1  1
 20 19  1  0
 21 22  1  0
 23 21  2  0
M  END
$$$$
