ILC.pdb
     RDKit          3D

 23 22  0  0  1  0  0  0  0  0999 V2000
    6.7829  -12.7693   18.9311 C   0  0  0  0  0  0  0  0  0  0  0  0
    7.5669  -13.9317   19.4765 C   0  0  0  0  0  0  0  0  0  0  0  0
    8.0111  -13.6802   20.8914 C   0  0  2  0  0  0  0  0  0  0  0  0
    8.9525  -12.4839   20.9182 C   0  0  0  0  0  0  0  0  0  0  0  0
    8.6351  -14.8717   21.5749 C   0  0  2  0  0  0  0  0  0  0  0  0
    7.5725  -15.9159   21.5469 N   0  0  0  0  0  0  0  0  0  0  0  0
    8.9054  -14.6734   23.0163 C   0  0  0  0  0  0  0  0  0  0  0  0
    9.5776  -13.6605   23.4322 O   0  0  0  0  0  0  0  0  0  0  0  0
    7.5077  -11.7024   25.1359 C   0  0  0  0  0  0  0  0  0  0  0  0
    7.0801  -12.8903   25.9830 C   0  0  1  0  0  0  0  0  0  0  0  0
    5.8250  -12.5809   26.7567 C   0  0  0  0  0  0  0  0  0  0  0  0
    6.8874  -14.1237   25.1275 C   0  0  0  0  0  0  0  0  0  0  0  0
    8.0111  -15.0841   25.3364 C   0  0  2  0  0  0  0  0  0  0  0  0
    8.4712  -15.5342   24.0314 N   0  0  0  0  0  0  0  0  0  0  0  0
    7.6168  -16.2768   26.1181 C   0  0  0  0  0  0  0  0  0  0  0  0
    7.0799  -16.1089   27.2337 O   0  0  0  0  0  0  0  0  0  0  0  0
    7.8253  -17.6048   25.6487 N   0  0  0  0  0  0  0  0  0  0  0  0
    7.7073  -18.7348   26.5480 C   0  0  1  0  0  0  0  0  0  0  0  0
    7.2405  -19.9762   25.7808 C   0  0  0  0  0  0  0  0  0  0  0  0
    6.0463  -19.4458   24.5274 S   0  0  0  0  0  0  0  0  0  0  0  0
    9.0495  -19.0185   27.1453 C   0  0  0  0  0  0  0  0  0  0  0  0
   10.1593  -18.2805   26.7614 O   0  0  0  0  0  0  0  0  0  0  0  0
    9.2138  -19.9241   28.0045 O   0  0  0  0  0  0  0  0  0  0  0  0
  2  1  1  0
  2  3  1  0
  3  4  1  6
  5  3  1  0
  5  6  1  1
  7  5  1  0
  8  7  2  0
 10  9  1  6
 11 10  1  0
 12 10  1  0
 13 12  1  6
 13 14  1  0
 14  7  1  0
 15 17  1  0
 15 13  1  0
 16 15  2  0
 18 17  1  0
 18 21  1  0
 18 19  1  6
 20 19  1  0
 21 22  1  0
 23 21  2  0
M  END
$$$$
