ILC.pdb
     RDKit          3D

 23 22  0  0  1  0  0  0  0  0999 V2000
    7.4160  -12.2942   20.0510 C   0  0  0  0  0  0  0  0  0  0  0  0
    7.4319  -13.3473   21.1251 C   0  0  0  0  0  0  0  0  0  0  0  0
    8.4283  -14.4315   20.8179 C   0  0  2  0  0  0  0  0  0  0  0  0
    8.1139  -15.0323   19.4548 C   0  0  0  0  0  0  0  0  0  0  0  0
    8.5296  -15.5079   21.8702 C   0  0  2  0  0  0  0  0  0  0  0  0
    7.1625  -16.0974   21.9329 N   0  0  0  0  0  0  0  0  0  0  0  0
    8.7643  -14.9993   23.2399 C   0  0  0  0  0  0  0  0  0  0  0  0
    9.9102  -14.5338   23.5877 O   0  0  0  0  0  0  0  0  0  0  0  0
    5.5711  -11.8482   26.3649 C   0  0  0  0  0  0  0  0  0  0  0  0
    6.8083  -12.5238   25.7953 C   0  0  1  0  0  0  0  0  0  0  0  0
    8.0616  -11.7960   26.2068 C   0  0  0  0  0  0  0  0  0  0  0  0
    6.8739  -13.9761   26.2156 C   0  0  0  0  0  0  0  0  0  0  0  0
    8.0848  -14.6317   25.6388 C   0  0  2  0  0  0  0  0  0  0  0  0
    7.7989  -14.9731   24.2535 N   0  0  0  0  0  0  0  0  0  0  0  0
    8.4641  -15.8744   26.3466 C   0  0  0  0  0  0  0  0  0  0  0  0
    8.3203  -15.9229   27.5868 O   0  0  0  0  0  0  0  0  0  0  0  0
    8.9851  -17.0138   25.6702 N   0  0  0  0  0  0  0  0  0  0  0  0
    9.2421  -18.2467   26.3868 C   0  0  1  0  0  0  0  0  0  0  0  0
    7.9217  -18.9027   26.8036 C   0  0  0  0  0  0  0  0  0  0  0  0
    6.9246  -19.1544   25.3133 S   0  0  0  0  0  0  0  0  0  0  0  0
    9.9782  -19.1855   25.4838 C   0  0  0  0  0  0  0  0  0  0  0  0
   10.3888  -20.4272   25.9456 O   0  0  0  0  0  0  0  0  0  0  0  0
   10.2457  -18.8836   24.2910 O   0  0  0  0  0  0  0  0  0  0  0  0
  2  1  1  0
  2  3  1  0
  3  4  1  6
  5  3  1  0
  5  6  1  1
  7  5  1  0
  8  7  2  0
 10  9  1  1
 11 10  1  0
 12 10  1  0
 13 12  1  1
 13 14  1  0
 14  7  1  0
 15 17  1  0
 15 13  1  0
 16 15  2  0
 18 17  1  0
 18 21  1  0
 18 19  1  6
 20 19  1  0
 21 22  1  0
 23 21  2  0
M  END
$$$$
