ILC.pdb
     RDKit          3D

 23 22  0  0  1  0  0  0  0  0999 V2000
    7.1564  -18.2515   18.9691 C   0  0  0  0  0  0  0  0  0  0  0  0
    6.9435  -16.8420   19.4498 C   0  0  0  0  0  0  0  0  0  0  0  0
    7.5937  -16.6125   20.7867 C   0  0  2  0  0  0  0  0  0  0  0  0
    7.2199  -17.7480   21.7295 C   0  0  0  0  0  0  0  0  0  0  0  0
    7.2906  -15.2728   21.4108 C   0  0  2  0  0  0  0  0  0  0  0  0
    7.8592  -14.2800   20.4562 N   0  0  0  0  0  0  0  0  0  0  0  0
    8.0160  -15.0123   22.6740 C   0  0  0  0  0  0  0  0  0  0  0  0
    9.2883  -14.8341   22.6841 O   0  0  0  0  0  0  0  0  0  0  0  0
    5.7957  -12.0933   26.6541 C   0  0  0  0  0  0  0  0  0  0  0  0
    6.8343  -12.6945   25.7206 C   0  0  1  0  0  0  0  0  0  0  0  0
    8.0568  -11.8183   25.6332 C   0  0  0  0  0  0  0  0  0  0  0  0
    7.2120  -14.0926   26.1597 C   0  0  0  0  0  0  0  0  0  0  0  0
    8.1439  -14.7151   25.1734 C   0  0  2  0  0  0  0  0  0  0  0  0
    7.4124  -14.9348   23.9348 N   0  0  0  0  0  0  0  0  0  0  0  0
    8.6799  -16.0182   25.6245 C   0  0  0  0  0  0  0  0  0  0  0  0
    7.8832  -16.9661   25.7914 O   0  0  0  0  0  0  0  0  0  0  0  0
   10.0650  -16.2326   25.8750 N   0  0  0  0  0  0  0  0  0  0  0  0
   10.5481  -17.5308   26.3004 C   0  0  1  0  0  0  0  0  0  0  0  0
   11.9911  -17.7397   25.8296 C   0  0  0  0  0  0  0  0  0  0  0  0
   12.0382  -17.4927   24.0364 S   0  0  0  0  0  0  0  0  0  0  0  0
   10.5196  -17.5903   27.7952 C   0  0  0  0  0  0  0  0  0  0  0  0
   11.0042  -18.7051   28.4630 O   0  0  0  0  0  0  0  0  0  0  0  0
   10.0609  -16.6435   28.4869 O   0  0  0  0  0  0  0  0  0  0  0  0
  2  1  1  0
  2  3  1  0
  3  4  1  1
  5  3  1  0
  5  6  1  6
  7  5  1  0
  8  7  2  0
 10  9  1  1
 11 10  1  0
 12 10  1  0
 13 12  1  1
 13 14  1  0
 14  7  1  0
 15 17  1  0
 15 13  1  0
 16 15  2  0
 18 17  1  0
 18 21  1  0
 18 19  1  1
 20 19  1  0
 21 22  1  0
 23 21  2  0
M  END
$$$$
