CVV.pdb
     RDKit          3D

 21 20  0  0  1  0  0  0  0  0999 V2000
    8.2514  -17.8431   16.5476 N   0  0  0  0  0  0  0  0  0  0  0  0
    7.5510  -17.7192   17.8051 C   0  0  1  0  0  0  0  0  0  0  0  0
    7.2276  -19.0811   18.3869 C   0  0  0  0  0  0  0  0  0  0  0  0
    6.2520  -18.9324   19.9056 S   0  0  0  0  0  0  0  0  0  0  0  0
    8.2524  -16.8548   18.7608 C   0  0  0  0  0  0  0  0  0  0  0  0
    9.4823  -16.9647   18.9961 O   0  0  0  0  0  0  0  0  0  0  0  0
    7.1484  -12.9320   19.6019 C   0  0  0  0  0  0  0  0  0  0  0  0
    7.4995  -13.7432   20.8035 C   0  0  2  0  0  0  0  0  0  0  0  0
    8.3042  -12.9447   21.8225 C   0  0  0  0  0  0  0  0  0  0  0  0
    8.2705  -15.0013   20.4754 C   0  0  2  0  0  0  0  0  0  0  0  0
    7.5756  -15.8160   19.4985 N   0  0  0  0  0  0  0  0  0  0  0  0
    8.5070  -15.7726   21.7403 C   0  0  0  0  0  0  0  0  0  0  0  0
    7.5200  -16.1647   22.4131 O   0  0  0  0  0  0  0  0  0  0  0  0
   12.4302  -17.1521   22.6971 C   0  0  0  0  0  0  0  0  0  0  0  0
   11.1881  -17.8101   23.2665 C   0  0  2  0  0  0  0  0  0  0  0  0
   10.7207  -18.8165   22.2206 C   0  0  0  0  0  0  0  0  0  0  0  0
   10.0606  -16.8111   23.4407 C   0  0  2  0  0  0  0  0  0  0  0  0
    9.7971  -16.0840   22.2190 N   0  0  0  0  0  0  0  0  0  0  0  0
   10.4893  -15.8512   24.4798 C   0  0  0  0  0  0  0  0  0  0  0  0
   10.8547  -14.5425   24.1870 O   0  0  0  0  0  0  0  0  0  0  0  0
   10.5275  -16.2249   25.6751 O   0  0  0  0  0  0  0  0  0  0  0  0
  2  1  1  6
  2  3  1  0
  4  3  1  0
  5 11  1  0
  5  2  1  0
  6  5  2  0
  8  7  1  6
  8 10  1  0
  9  8  1  0
 10 11  1  6
 10 12  1  0
 12 18  1  0
 13 12  2  0
 15 14  1  6
 15 16  1  0
 17 19  1  0
 17 15  1  0
 17 18  1  6
 19 20  1  0
 21 19  2  0
M  END
$$$$
