CVV.pdb
     RDKit          3D

 21 20  0  0  1  0  0  0  0  0999 V2000
    7.7576  -13.5298   20.2671 N   0  0  0  0  0  0  0  0  0  0  0  0
    7.0969  -14.1223   21.4072 C   0  0  1  0  0  0  0  0  0  0  0  0
    6.7001  -15.5576   21.1237 C   0  0  0  0  0  0  0  0  0  0  0  0
    6.1817  -15.7684   19.4012 S   0  0  0  0  0  0  0  0  0  0  0  0
    7.8754  -13.9910   22.6438 C   0  0  0  0  0  0  0  0  0  0  0  0
    9.1317  -13.9507   22.6512 O   0  0  0  0  0  0  0  0  0  0  0  0
    6.0093  -13.4230   26.5793 C   0  0  0  0  0  0  0  0  0  0  0  0
    7.3963  -13.0089   26.2190 C   0  0  2  0  0  0  0  0  0  0  0  0
    7.4597  -11.5633   25.7395 C   0  0  0  0  0  0  0  0  0  0  0  0
    8.0297  -13.8842   25.1618 C   0  0  2  0  0  0  0  0  0  0  0  0
    7.2495  -13.8988   23.9404 N   0  0  0  0  0  0  0  0  0  0  0  0
    8.1889  -15.2721   25.7086 C   0  0  0  0  0  0  0  0  0  0  0  0
    7.1716  -15.9984   25.8437 O   0  0  0  0  0  0  0  0  0  0  0  0
   11.9977  -17.1028   25.7026 C   0  0  0  0  0  0  0  0  0  0  0  0
   10.6982  -17.8841   25.7323 C   0  0  2  0  0  0  0  0  0  0  0  0
   10.1926  -17.9260   24.2943 C   0  0  0  0  0  0  0  0  0  0  0  0
    9.6371  -17.1665   26.5439 C   0  0  2  0  0  0  0  0  0  0  0  0
    9.4380  -15.8104   26.0834 N   0  0  0  0  0  0  0  0  0  0  0  0
   10.1149  -17.1265   27.9421 C   0  0  0  0  0  0  0  0  0  0  0  0
   10.2688  -18.2713   28.7152 O   0  0  0  0  0  0  0  0  0  0  0  0
   10.3945  -16.0196   28.4583 O   0  0  0  0  0  0  0  0  0  0  0  0
  2  1  1  6
  2  3  1  0
  4  3  1  0
  5 11  1  0
  5  2  1  0
  6  5  2  0
  8  7  1  6
  8 10  1  0
  9  8  1  0
 10 11  1  6
 10 12  1  0
 12 18  1  0
 13 12  2  0
 15 14  1  6
 15 16  1  0
 17 19  1  0
 17 15  1  0
 17 18  1  6
 19 20  1  0
 21 19  2  0
M  END
$$$$
