CVV.pdb
     RDKit          3D

 21 20  0  0  1  0  0  0  0  0999 V2000
    8.8433  -17.5360   16.1460 N   0  0  0  0  0  0  0  0  0  0  0  0
    7.9990  -17.5234   17.3182 C   0  0  1  0  0  0  0  0  0  0  0  0
    7.5906  -18.9291   17.7126 C   0  0  0  0  0  0  0  0  0  0  0  0
    6.4510  -18.9121   19.1201 S   0  0  0  0  0  0  0  0  0  0  0  0
    8.5919  -16.7791   18.4348 C   0  0  0  0  0  0  0  0  0  0  0  0
    9.8220  -16.8104   18.6913 O   0  0  0  0  0  0  0  0  0  0  0  0
    7.0947  -13.0917   19.7616 C   0  0  0  0  0  0  0  0  0  0  0  0
    7.4784  -14.0575   20.8317 C   0  0  2  0  0  0  0  0  0  0  0  0
    8.1281  -13.3667   22.0252 C   0  0  0  0  0  0  0  0  0  0  0  0
    8.4107  -15.1467   20.3527 C   0  0  2  0  0  0  0  0  0  0  0  0
    7.8002  -15.9575   19.3179 N   0  0  0  0  0  0  0  0  0  0  0  0
    8.8147  -15.9932   21.5235 C   0  0  0  0  0  0  0  0  0  0  0  0
    7.9555  -16.7265   22.0755 O   0  0  0  0  0  0  0  0  0  0  0  0
   12.5019  -17.7665   21.7385 C   0  0  0  0  0  0  0  0  0  0  0  0
   12.0796  -17.1073   23.0373 C   0  0  2  0  0  0  0  0  0  0  0  0
   12.4203  -18.0952   24.1478 C   0  0  0  0  0  0  0  0  0  0  0  0
   10.5788  -16.8962   23.0907 C   0  0  2  0  0  0  0  0  0  0  0  0
   10.1263  -16.0084   22.0429 N   0  0  0  0  0  0  0  0  0  0  0  0
   10.2747  -16.2787   24.3988 C   0  0  0  0  0  0  0  0  0  0  0  0
   10.0859  -14.9107   24.5565 O   0  0  0  0  0  0  0  0  0  0  0  0
   10.1818  -17.0114   25.4109 O   0  0  0  0  0  0  0  0  0  0  0  0
  2  1  1  6
  2  3  1  0
  4  3  1  0
  5 11  1  0
  5  2  1  0
  6  5  2  0
  8  7  1  6
  8 10  1  0
  9  8  1  0
 10 11  1  6
 10 12  1  0
 12 18  1  0
 13 12  2  0
 15 14  1  6
 15 16  1  0
 17 19  1  0
 17 15  1  0
 17 18  1  6
 19 20  1  0
 21 19  2  0
M  END
$$$$
