CVV.pdb
     RDKit          3D

 21 20  0  0  1  0  0  0  0  0999 V2000
    8.8559  -17.3966   15.8743 N   0  0  0  0  0  0  0  0  0  0  0  0
    8.0514  -17.4352   17.0736 C   0  0  1  0  0  0  0  0  0  0  0  0
    7.7502  -18.8631   17.4839 C   0  0  0  0  0  0  0  0  0  0  0  0
    6.6366  -18.9161   18.9112 S   0  0  0  0  0  0  0  0  0  0  0  0
    8.6299  -16.6487   18.1687 C   0  0  0  0  0  0  0  0  0  0  0  0
    9.8572  -16.6662   18.4393 O   0  0  0  0  0  0  0  0  0  0  0  0
    7.1851  -12.9313   19.5249 C   0  0  0  0  0  0  0  0  0  0  0  0
    7.4859  -13.9439   20.5782 C   0  0  2  0  0  0  0  0  0  0  0  0
    8.0968  -13.3143   21.8248 C   0  0  0  0  0  0  0  0  0  0  0  0
    8.4070  -15.0460   20.1071 C   0  0  2  0  0  0  0  0  0  0  0  0
    7.8262  -15.7985   19.0129 N   0  0  0  0  0  0  0  0  0  0  0  0
    8.7221  -15.9468   21.2647 C   0  0  0  0  0  0  0  0  0  0  0  0
    7.8152  -16.6779   21.7374 O   0  0  0  0  0  0  0  0  0  0  0  0
   11.7301  -18.4392   21.4241 C   0  0  0  0  0  0  0  0  0  0  0  0
   11.7312  -17.5573   22.6579 C   0  0  2  0  0  0  0  0  0  0  0  0
   12.0146  -18.4778   23.8401 C   0  0  0  0  0  0  0  0  0  0  0  0
   10.3660  -16.9443   22.9037 C   0  0  2  0  0  0  0  0  0  0  0  0
   10.0007  -16.0159   21.8571 N   0  0  0  0  0  0  0  0  0  0  0  0
   10.4459  -16.2082   24.1830 C   0  0  0  0  0  0  0  0  0  0  0  0
   10.1276  -16.7905   25.4043 O   0  0  0  0  0  0  0  0  0  0  0  0
   10.8145  -15.0108   24.1743 O   0  0  0  0  0  0  0  0  0  0  0  0
  2  1  1  6
  2  3  1  0
  4  3  1  0
  5 11  1  0
  5  2  1  0
  6  5  2  0
  8  7  1  6
  8 10  1  0
  9  8  1  0
 10 11  1  6
 10 12  1  0
 12 18  1  0
 13 12  2  0
 15 14  1  6
 15 16  1  0
 17 19  1  0
 17 15  1  0
 17 18  1  6
 19 20  1  0
 21 19  2  0
M  END
$$$$
