CVV.pdb
     RDKit          3D

 21 20  0  0  1  0  0  0  0  0999 V2000
    5.1449  -19.3989   24.8447 N   0  0  0  0  0  0  0  0  0  0  0  0
    5.7403  -18.4964   25.8029 C   0  0  1  0  0  0  0  0  0  0  0  0
    6.7944  -19.2001   26.6346 C   0  0  0  0  0  0  0  0  0  0  0  0
    6.1593  -20.7479   27.3282 S   0  0  0  0  0  0  0  0  0  0  0  0
    6.2458  -17.2662   25.1836 C   0  0  0  0  0  0  0  0  0  0  0  0
    6.4895  -17.1788   23.9536 O   0  0  0  0  0  0  0  0  0  0  0  0
    5.8315  -13.2022   26.3580 C   0  0  0  0  0  0  0  0  0  0  0  0
    7.2170  -13.7488   26.2759 C   0  0  2  0  0  0  0  0  0  0  0  0
    8.2098  -12.7237   25.7401 C   0  0  0  0  0  0  0  0  0  0  0  0
    7.3224  -14.9953   25.4273 C   0  0  2  0  0  0  0  0  0  0  0  0
    6.4985  -16.0685   25.9472 N   0  0  0  0  0  0  0  0  0  0  0  0
    8.7607  -15.4157   25.3542 C   0  0  0  0  0  0  0  0  0  0  0  0
    9.3256  -15.8515   26.3894 O   0  0  0  0  0  0  0  0  0  0  0  0
   12.0546  -17.1599   22.0069 C   0  0  0  0  0  0  0  0  0  0  0  0
   10.8901  -16.2491   22.3453 C   0  0  2  0  0  0  0  0  0  0  0  0
   11.3386  -14.8347   21.9939 C   0  0  0  0  0  0  0  0  0  0  0  0
   10.5959  -16.2533   23.8330 C   0  0  2  0  0  0  0  0  0  0  0  0
    9.5209  -15.3460   24.1678 N   0  0  0  0  0  0  0  0  0  0  0  0
   11.8258  -15.8039   24.5188 C   0  0  0  0  0  0  0  0  0  0  0  0
   12.9219  -16.6358   24.7145 O   0  0  0  0  0  0  0  0  0  0  0  0
   11.8903  -14.6270   24.9438 O   0  0  0  0  0  0  0  0  0  0  0  0
  2  1  1  6
  2  3  1  0
  4  3  1  0
  5 11  1  0
  5  2  1  0
  6  5  2  0
  8  7  1  6
  8 10  1  0
  9  8  1  0
 10 11  1  1
 10 12  1  0
 12 18  1  0
 13 12  2  0
 15 14  1  1
 15 16  1  0
 17 19  1  0
 17 15  1  0
 17 18  1  6
 19 20  1  0
 21 19  2  0
M  END
$$$$
