CVV.pdb
     RDKit          3D

 21 20  0  0  1  0  0  0  0  0999 V2000
    9.1153  -16.6829   19.4554 N   0  0  0  0  0  0  0  0  0  0  0  0
   10.0018  -16.6535   20.5957 C   0  0  1  0  0  0  0  0  0  0  0  0
   11.0126  -15.5304   20.4732 C   0  0  0  0  0  0  0  0  0  0  0  0
   12.2395  -15.6021   21.8035 S   0  0  0  0  0  0  0  0  0  0  0  0
    9.2804  -16.6199   21.8728 C   0  0  0  0  0  0  0  0  0  0  0  0
    8.2578  -15.9118   22.0537 O   0  0  0  0  0  0  0  0  0  0  0  0
    7.4827  -19.3562   23.6102 C   0  0  0  0  0  0  0  0  0  0  0  0
    8.4560  -18.8006   24.5947 C   0  0  2  0  0  0  0  0  0  0  0  0
    7.8888  -18.7666   26.0091 C   0  0  0  0  0  0  0  0  0  0  0  0
    8.9368  -17.4105   24.2461 C   0  0  2  0  0  0  0  0  0  0  0  0
    9.6974  -17.4005   23.0123 N   0  0  0  0  0  0  0  0  0  0  0  0
    9.7590  -16.8791   25.3828 C   0  0  0  0  0  0  0  0  0  0  0  0
   10.9406  -17.2839   25.5267 O   0  0  0  0  0  0  0  0  0  0  0  0
    9.0578  -13.1255   27.1577 C   0  0  0  0  0  0  0  0  0  0  0  0
    9.3040  -14.2763   28.1142 C   0  0  2  0  0  0  0  0  0  0  0  0
   10.2500  -13.7455   29.1859 C   0  0  0  0  0  0  0  0  0  0  0  0
   10.0238  -15.4226   27.4303 C   0  0  2  0  0  0  0  0  0  0  0  0
    9.2674  -15.9365   26.3102 N   0  0  0  0  0  0  0  0  0  0  0  0
   10.1752  -16.4983   28.4327 C   0  0  0  0  0  0  0  0  0  0  0  0
   11.3223  -16.6495   29.2030 O   0  0  0  0  0  0  0  0  0  0  0  0
    9.2361  -17.3105   28.6006 O   0  0  0  0  0  0  0  0  0  0  0  0
  2  1  1  6
  2  3  1  0
  4  3  1  0
  5 11  1  0
  5  2  1  0
  6  5  2  0
  8  7  1  6
  8 10  1  0
  9  8  1  0
 10 11  1  6
 10 12  1  0
 12 18  1  0
 13 12  2  0
 15 14  1  6
 15 16  1  0
 17 19  1  0
 17 15  1  0
 17 18  1  6
 19 20  1  0
 21 19  2  0
M  END
$$$$
