CVV.pdb
     RDKit          3D

 21 20  0  0  1  0  0  0  0  0999 V2000
    7.8718  -13.3911   20.1104 N   0  0  0  0  0  0  0  0  0  0  0  0
    7.1676  -14.1435   21.1230 C   0  0  1  0  0  0  0  0  0  0  0  0
    6.8919  -15.5599   20.6584 C   0  0  0  0  0  0  0  0  0  0  0  0
    6.0263  -16.5129   21.9323 S   0  0  0  0  0  0  0  0  0  0  0  0
    7.8386  -14.1032   22.4270 C   0  0  0  0  0  0  0  0  0  0  0  0
    9.0800  -14.2533   22.5540 O   0  0  0  0  0  0  0  0  0  0  0  0
    6.6319  -11.6984   25.5480 C   0  0  0  0  0  0  0  0  0  0  0  0
    6.9851  -13.0852   25.9690 C   0  0  2  0  0  0  0  0  0  0  0  0
    7.7531  -13.1096   27.2855 C   0  0  0  0  0  0  0  0  0  0  0  0
    7.7934  -13.8393   24.9378 C   0  0  2  0  0  0  0  0  0  0  0  0
    7.1162  -13.8876   23.6572 N   0  0  0  0  0  0  0  0  0  0  0  0
    8.0664  -15.2232   25.4484 C   0  0  0  0  0  0  0  0  0  0  0  0
    7.1110  -16.0313   25.5710 O   0  0  0  0  0  0  0  0  0  0  0  0
   12.0714  -16.6816   25.5467 C   0  0  0  0  0  0  0  0  0  0  0  0
   10.8520  -17.5729   25.4095 C   0  0  2  0  0  0  0  0  0  0  0  0
   10.4558  -17.5303   23.9376 C   0  0  0  0  0  0  0  0  0  0  0  0
    9.6734  -17.0258   26.1914 C   0  0  2  0  0  0  0  0  0  0  0  0
    9.3571  -15.6695   25.8024 N   0  0  0  0  0  0  0  0  0  0  0  0
   10.0602  -17.0313   27.6180 C   0  0  0  0  0  0  0  0  0  0  0  0
   10.1983  -18.2029   28.3530 O   0  0  0  0  0  0  0  0  0  0  0  0
   10.2740  -15.9399   28.1949 O   0  0  0  0  0  0  0  0  0  0  0  0
  2  1  1  6
  2  3  1  0
  4  3  1  0
  5 11  1  0
  5  2  1  0
  6  5  2  0
  8  7  1  6
  8 10  1  0
  9  8  1  0
 10 11  1  6
 10 12  1  0
 12 18  1  0
 13 12  2  0
 15 14  1  6
 15 16  1  0
 17 19  1  0
 17 15  1  0
 17 18  1  6
 19 20  1  0
 21 19  2  0
M  END
$$$$
