CVV.pdb
     RDKit          3D

 21 20  0  0  1  0  0  0  0  0999 V2000
    7.0887  -18.1423   17.2171 N   0  0  0  0  0  0  0  0  0  0  0  0
    6.5531  -17.7800   18.5091 C   0  0  1  0  0  0  0  0  0  0  0  0
    6.1008  -19.0066   19.2765 C   0  0  0  0  0  0  0  0  0  0  0  0
    5.3104  -18.5490   20.8406 S   0  0  0  0  0  0  0  0  0  0  0  0
    7.4709  -16.9404   19.2869 C   0  0  0  0  0  0  0  0  0  0  0  0
    8.7009  -17.1838   19.3743 O   0  0  0  0  0  0  0  0  0  0  0  0
    7.1915  -12.8280   19.7908 C   0  0  0  0  0  0  0  0  0  0  0  0
    7.4068  -13.5916   21.0541 C   0  0  2  0  0  0  0  0  0  0  0  0
    8.3624  -12.8775   22.0030 C   0  0  0  0  0  0  0  0  0  0  0  0
    7.9262  -14.9931   20.8285 C   0  0  2  0  0  0  0  0  0  0  0  0
    7.0222  -15.7737   20.0074 N   0  0  0  0  0  0  0  0  0  0  0  0
    8.1424  -15.6533   22.1582 C   0  0  0  0  0  0  0  0  0  0  0  0
    7.1643  -15.8061   22.9332 O   0  0  0  0  0  0  0  0  0  0  0  0
   11.3560  -18.2381   22.7995 C   0  0  0  0  0  0  0  0  0  0  0  0
   10.1432  -18.1696   23.7075 C   0  0  2  0  0  0  0  0  0  0  0  0
    9.0342  -18.9379   22.9968 C   0  0  0  0  0  0  0  0  0  0  0  0
    9.6491  -16.7448   23.8676 C   0  0  2  0  0  0  0  0  0  0  0  0
    9.4034  -16.1172   22.5883 N   0  0  0  0  0  0  0  0  0  0  0  0
   10.7128  -15.9937   24.5670 C   0  0  0  0  0  0  0  0  0  0  0  0
   11.4684  -15.0075   23.9437 O   0  0  0  0  0  0  0  0  0  0  0  0
   10.9489  -16.2507   25.7704 O   0  0  0  0  0  0  0  0  0  0  0  0
  2  1  1  6
  2  3  1  0
  4  3  1  0
  5 11  1  0
  5  2  1  0
  6  5  2  0
  8  7  1  6
  8 10  1  0
  9  8  1  0
 10 11  1  6
 10 12  1  0
 12 18  1  0
 13 12  2  0
 15 14  1  6
 15 16  1  0
 17 19  1  0
 17 15  1  0
 17 18  1  6
 19 20  1  0
 21 19  2  0
M  END
$$$$
