CVV.pdb
     RDKit          3D

 21 20  0  0  1  0  0  0  0  0999 V2000
    5.5920  -15.8570   21.0348 N   0  0  0  0  0  0  0  0  0  0  0  0
    5.6709  -16.2593   22.4201 C   0  0  1  0  0  0  0  0  0  0  0  0
    5.8642  -17.7578   22.5437 C   0  0  0  0  0  0  0  0  0  0  0  0
    5.9567  -18.2679   24.2790 S   0  0  0  0  0  0  0  0  0  0  0  0
    6.6764  -15.5016   23.1732 C   0  0  0  0  0  0  0  0  0  0  0  0
    7.8124  -15.2349   22.7060 O   0  0  0  0  0  0  0  0  0  0  0  0
    6.2611  -12.3456   25.7713 C   0  0  0  0  0  0  0  0  0  0  0  0
    6.9791  -13.5104   26.3655 C   0  0  2  0  0  0  0  0  0  0  0  0
    8.1490  -13.0796   27.2426 C   0  0  0  0  0  0  0  0  0  0  0  0
    7.4974  -14.4869   25.3347 C   0  0  2  0  0  0  0  0  0  0  0  0
    6.4287  -15.0092   24.5065 N   0  0  0  0  0  0  0  0  0  0  0  0
    8.2197  -15.5992   26.0359 C   0  0  0  0  0  0  0  0  0  0  0  0
    7.6342  -16.2277   26.9541 O   0  0  0  0  0  0  0  0  0  0  0  0
   12.0852  -18.7878   25.8310 C   0  0  0  0  0  0  0  0  0  0  0  0
   11.3931  -17.5372   25.3240 C   0  0  2  0  0  0  0  0  0  0  0  0
   12.3755  -16.3903   25.5354 C   0  0  0  0  0  0  0  0  0  0  0  0
   10.1623  -17.2109   26.1477 C   0  0  2  0  0  0  0  0  0  0  0  0
    9.5391  -15.9805   25.7133 N   0  0  0  0  0  0  0  0  0  0  0  0
   10.6090  -17.0470   27.5472 C   0  0  0  0  0  0  0  0  0  0  0  0
   10.8791  -18.1269   28.3795 O   0  0  0  0  0  0  0  0  0  0  0  0
   10.7522  -15.8911   28.0090 O   0  0  0  0  0  0  0  0  0  0  0  0
  2  1  1  6
  2  3  1  0
  4  3  1  0
  5 11  1  0
  5  2  1  0
  6  5  2  0
  8  7  1  6
  8 10  1  0
  9  8  1  0
 10 11  1  1
 10 12  1  0
 12 18  1  0
 13 12  2  0
 15 14  1  1
 15 16  1  0
 17 19  1  0
 17 15  1  0
 17 18  1  6
 19 20  1  0
 21 19  2  0
M  END
$$$$
