CVV.pdb
     RDKit          3D

 21 20  0  0  1  0  0  0  0  0999 V2000
    7.3209  -15.3438   18.7475 N   0  0  0  0  0  0  0  0  0  0  0  0
    8.0218  -14.6024   19.7704 C   0  0  1  0  0  0  0  0  0  0  0  0
    7.6280  -13.1386   19.7510 C   0  0  0  0  0  0  0  0  0  0  0  0
    8.1117  -12.3483   18.1948 S   0  0  0  0  0  0  0  0  0  0  0  0
    7.8799  -15.2022   21.1017 C   0  0  0  0  0  0  0  0  0  0  0  0
    6.7824  -15.6353   21.5351 O   0  0  0  0  0  0  0  0  0  0  0  0
    9.4998  -18.2157   22.4449 C   0  0  0  0  0  0  0  0  0  0  0  0
    9.7446  -17.1568   23.4666 C   0  0  2  0  0  0  0  0  0  0  0  0
    9.5928  -17.6829   24.8892 C   0  0  0  0  0  0  0  0  0  0  0  0
    8.8451  -15.9519   23.3112 C   0  0  2  0  0  0  0  0  0  0  0  0
    8.9948  -15.3363   22.0076 N   0  0  0  0  0  0  0  0  0  0  0  0
    9.1526  -14.9694   24.4025 C   0  0  0  0  0  0  0  0  0  0  0  0
   10.2971  -14.4519   24.4572 O   0  0  0  0  0  0  0  0  0  0  0  0
    5.9922  -13.4045   26.7347 C   0  0  0  0  0  0  0  0  0  0  0  0
    7.3162  -12.6739   26.6208 C   0  0  2  0  0  0  0  0  0  0  0  0
    7.2381  -11.8457   25.3429 C   0  0  0  0  0  0  0  0  0  0  0  0
    8.4704  -13.6409   26.4405 C   0  0  2  0  0  0  0  0  0  0  0  0
    8.2107  -14.5919   25.3827 N   0  0  0  0  0  0  0  0  0  0  0  0
    8.6209  -14.3776   27.7131 C   0  0  0  0  0  0  0  0  0  0  0  0
    9.1428  -13.7928   28.8609 O   0  0  0  0  0  0  0  0  0  0  0  0
    8.2658  -15.5780   27.7672 O   0  0  0  0  0  0  0  0  0  0  0  0
  2  1  1  6
  2  3  1  0
  4  3  1  0
  5 11  1  0
  5  2  1  0
  6  5  2  0
  8  7  1  6
  8 10  1  0
  9  8  1  0
 10 11  1  6
 10 12  1  0
 12 18  1  0
 13 12  2  0
 15 14  1  6
 15 16  1  0
 17 19  1  0
 17 15  1  0
 17 18  1  6
 19 20  1  0
 21 19  2  0
M  END
$$$$
