CSL.pdb
     RDKit          3D

 21 20  0  0  1  0  0  0  0  0999 V2000
   25.7942  -33.7002   -9.3421 N   0  0  0  0  0  0  0  0  0  0  0  0
   25.9788  -32.9365   -8.1272 C   0  0  1  0  0  0  0  0  0  0  0  0
   24.5768  -32.5007   -7.6832 C   0  0  0  0  0  0  0  0  0  0  0  0
   24.1328  -30.8914   -8.3373 S   0  0  0  0  0  0  0  0  0  0  0  0
   26.5139  -33.7973   -7.0723 C   0  0  0  0  0  0  0  0  0  0  0  0
   26.1551  -35.0249   -7.0666 O   0  0  0  0  0  0  0  0  0  0  0  0
   28.4447  -32.4157   -3.7430 O   0  0  0  0  0  0  0  0  0  0  0  0
   28.9330  -33.6129   -4.2558 C   0  0  0  0  0  0  0  0  0  0  0  0
   27.9213  -34.3024   -5.1507 C   0  0  2  0  0  0  0  0  0  0  0  0
   27.4064  -33.3479   -6.0575 N   0  0  0  0  0  0  0  0  0  0  0  0
   26.9158  -34.9518   -4.2837 C   0  0  0  0  0  0  0  0  0  0  0  0
   25.7756  -34.4456   -4.2674 O   0  0  0  0  0  0  0  0  0  0  0  0
   26.9352  -40.4550   -2.9038 C   0  0  0  0  0  0  0  0  0  0  0  0
   26.6361  -39.0395   -3.4277 C   0  0  1  0  0  0  0  0  0  0  0  0
   25.2258  -39.1872   -4.0686 C   0  0  0  0  0  0  0  0  0  0  0  0
   26.5697  -38.1626   -2.2389 C   0  0  0  0  0  0  0  0  0  0  0  0
   26.3104  -36.6950   -2.5158 C   0  0  2  0  0  0  0  0  0  0  0  0
   27.1657  -36.0908   -3.4874 N   0  0  0  0  0  0  0  0  0  0  0  0
   26.1893  -36.0041   -1.2357 C   0  0  0  0  0  0  0  0  0  0  0  0
   26.8975  -34.9970   -0.9887 O   0  0  0  0  0  0  0  0  0  0  0  0
   25.3036  -36.4250   -0.2598 O   0  0  0  0  0  0  0  0  0  0  0  0
  2  1  1  6
  2  3  1  0
  3  4  1  0
  5  6  2  0
  5  2  1  0
  7  8  1  0
  9  8  1  1
  9 10  1  0
 10  5  1  0
 11  9  1  0
 11 12  2  0
 14 15  1  1
 14 13  1  0
 16 14  1  0
 17 18  1  0
 17 16  1  1
 18 11  1  0
 19 17  1  0
 20 19  2  0
 21 19  1  0
M  END
$$$$
