CSL.pdb
     RDKit          3D

 21 20  0  0  1  0  0  0  0  0999 V2000
   15.6854  -12.2923  -14.6108 N   0  0  0  0  0  0  0  0  0  0  0  0
   16.1664  -11.5695  -15.7682 C   0  0  1  0  0  0  0  0  0  0  0  0
   14.9262  -11.2439  -16.6101 C   0  0  0  0  0  0  0  0  0  0  0  0
   14.3782  -12.6521  -17.5751 S   0  0  0  0  0  0  0  0  0  0  0  0
   16.7499  -10.2937  -15.3539 C   0  0  0  0  0  0  0  0  0  0  0  0
   16.2230   -9.6950  -14.3540 O   0  0  0  0  0  0  0  0  0  0  0  0
   19.7086   -8.2219  -17.4644 O   0  0  0  0  0  0  0  0  0  0  0  0
   19.7061   -8.1842  -16.0739 C   0  0  0  0  0  0  0  0  0  0  0  0
   18.3262   -8.4438  -15.5010 C   0  0  2  0  0  0  0  0  0  0  0  0
   17.8647   -9.6845  -15.9973 N   0  0  0  0  0  0  0  0  0  0  0  0
   17.4734   -7.2810  -15.8252 C   0  0  0  0  0  0  0  0  0  0  0  0
   16.5584   -7.4672  -16.6526 O   0  0  0  0  0  0  0  0  0  0  0  0
   15.2349   -2.4574  -14.5441 C   0  0  0  0  0  0  0  0  0  0  0  0
   14.7011   -3.5584  -15.4771 C   0  0  1  0  0  0  0  0  0  0  0  0
   15.0966   -3.0482  -16.8932 C   0  0  0  0  0  0  0  0  0  0  0  0
   15.4562   -4.7856  -15.1451 C   0  0  0  0  0  0  0  0  0  0  0  0
   16.9104   -4.8011  -15.5727 C   0  0  2  0  0  0  0  0  0  0  0  0
   17.6310   -5.9951  -15.2634 N   0  0  0  0  0  0  0  0  0  0  0  0
   17.5224   -3.5442  -15.1527 C   0  0  0  0  0  0  0  0  0  0  0  0
   17.6560   -2.5995  -15.9691 O   0  0  0  0  0  0  0  0  0  0  0  0
   17.9721   -3.3475  -13.8592 O   0  0  0  0  0  0  0  0  0  0  0  0
  2  1  1  1
  2  3  1  0
  3  4  1  0
  5  6  2  0
  5  2  1  0
  7  8  1  0
  9  8  1  6
  9 10  1  0
 10  5  1  0
 11  9  1  0
 11 12  2  0
 14 15  1  6
 14 13  1  0
 16 14  1  0
 17 18  1  0
 17 16  1  1
 18 11  1  0
 19 17  1  0
 20 19  2  0
 21 19  1  0
M  END
$$$$
