CSL.pdb
     RDKit          3D

 21 20  0  0  1  0  0  0  0  0999 V2000
   18.3697  -12.6925  -17.0148 N   0  0  0  0  0  0  0  0  0  0  0  0
   18.2992  -11.2595  -17.2019 C   0  0  1  0  0  0  0  0  0  0  0  0
   16.9098  -10.8356  -16.7094 C   0  0  0  0  0  0  0  0  0  0  0  0
   15.6645  -10.9916  -17.9899 S   0  0  0  0  0  0  0  0  0  0  0  0
   19.2793  -10.5945  -16.3432 C   0  0  0  0  0  0  0  0  0  0  0  0
   19.4046  -11.0193  -15.1434 O   0  0  0  0  0  0  0  0  0  0  0  0
   22.0132   -7.5645  -17.5373 O   0  0  0  0  0  0  0  0  0  0  0  0
   22.2789   -8.5779  -16.6224 C   0  0  0  0  0  0  0  0  0  0  0  0
   21.0391   -8.9857  -15.8503 C   0  0  2  0  0  0  0  0  0  0  0  0
   20.0966   -9.5076  -16.7657 N   0  0  0  0  0  0  0  0  0  0  0  0
   20.5801   -7.8136  -15.0757 C   0  0  0  0  0  0  0  0  0  0  0  0
   19.8098   -7.0220  -15.6559 O   0  0  0  0  0  0  0  0  0  0  0  0
   19.1556   -4.8973  -10.7691 C   0  0  0  0  0  0  0  0  0  0  0  0
   20.6530   -5.2461  -10.7084 C   0  0  1  0  0  0  0  0  0  0  0  0
   20.8945   -5.5187   -9.1954 C   0  0  0  0  0  0  0  0  0  0  0  0
   20.8206   -6.4921  -11.4868 C   0  0  0  0  0  0  0  0  0  0  0  0
   20.7552   -6.3420  -12.9938 C   0  0  2  0  0  0  0  0  0  0  0  0
   20.9558   -7.5423  -13.7418 N   0  0  0  0  0  0  0  0  0  0  0  0
   21.5730   -5.1940  -13.3734 C   0  0  0  0  0  0  0  0  0  0  0  0
   21.0435   -4.0701  -13.5550 O   0  0  0  0  0  0  0  0  0  0  0  0
   22.9419   -5.2977  -13.5453 O   0  0  0  0  0  0  0  0  0  0  0  0
  2  1  1  1
  2  3  1  0
  3  4  1  0
  5  6  2  0
  5  2  1  0
  7  8  1  0
  9  8  1  6
  9 10  1  0
 10  5  1  0
 11  9  1  0
 11 12  2  0
 14 15  1  1
 14 13  1  0
 16 14  1  0
 17 18  1  0
 17 16  1  1
 18 11  1  0
 19 17  1  0
 20 19  2  0
 21 19  1  0
M  END
$$$$
