CSL.pdb
     RDKit          3D

 21 20  0  0  1  0  0  0  0  0999 V2000
   17.1183  -15.2062  -16.9948 N   0  0  0  0  0  0  0  0  0  0  0  0
   17.0739  -14.2625  -15.8990 C   0  0  1  0  0  0  0  0  0  0  0  0
   17.8909  -14.8922  -14.7638 C   0  0  0  0  0  0  0  0  0  0  0  0
   16.9567  -16.1345  -13.8701 S   0  0  0  0  0  0  0  0  0  0  0  0
   17.7524  -13.0234  -16.2787 C   0  0  0  0  0  0  0  0  0  0  0  0
   18.8975  -13.1199  -16.8402 O   0  0  0  0  0  0  0  0  0  0  0  0
   16.2069   -9.8448  -17.9327 O   0  0  0  0  0  0  0  0  0  0  0  0
   17.0144   -9.4935  -16.8560 C   0  0  0  0  0  0  0  0  0  0  0  0
   17.9721  -10.6066  -16.4771 C   0  0  2  0  0  0  0  0  0  0  0  0
   17.2130  -11.7238  -16.0598 N   0  0  0  0  0  0  0  0  0  0  0  0
   18.9122  -10.0738  -15.4689 C   0  0  0  0  0  0  0  0  0  0  0  0
   18.5035  -10.0194  -14.2913 O   0  0  0  0  0  0  0  0  0  0  0  0
   24.3961  -11.1230  -15.4304 C   0  0  0  0  0  0  0  0  0  0  0  0
   22.8864  -10.9615  -15.1812 C   0  0  1  0  0  0  0  0  0  0  0  0
   22.6866  -11.6008  -13.7765 C   0  0  0  0  0  0  0  0  0  0  0  0
   22.6287   -9.5066  -15.1235 C   0  0  0  0  0  0  0  0  0  0  0  0
   21.1935   -9.1014  -14.8515 C   0  0  2  0  0  0  0  0  0  0  0  0
   20.2221   -9.6306  -15.7552 N   0  0  0  0  0  0  0  0  0  0  0  0
   21.1609   -7.6586  -14.6325 C   0  0  0  0  0  0  0  0  0  0  0  0
   20.7278   -6.8907  -15.5265 O   0  0  0  0  0  0  0  0  0  0  0  0
   21.5991   -7.0896  -13.4500 O   0  0  0  0  0  0  0  0  0  0  0  0
  2  1  1  6
  2  3  1  0
  3  4  1  0
  5  6  2  0
  5  2  1  0
  7  8  1  0
  9  8  1  1
  9 10  1  0
 10  5  1  0
 11  9  1  0
 11 12  2  0
 14 15  1  1
 14 13  1  0
 16 14  1  0
 17 18  1  0
 17 16  1  6
 18 11  1  0
 19 17  1  0
 20 19  2  0
 21 19  1  0
M  END
$$$$
