CSL.pdb
     RDKit          3D

 21 20  0  0  1  0  0  0  0  0999 V2000
   22.7249  -12.0242  -17.9963 N   0  0  0  0  0  0  0  0  0  0  0  0
   22.3749  -11.2414  -19.1616 C   0  0  1  0  0  0  0  0  0  0  0  0
   21.5594  -12.1720  -20.0682 C   0  0  0  0  0  0  0  0  0  0  0  0
   22.5749  -13.4504  -20.8093 S   0  0  0  0  0  0  0  0  0  0  0  0
   21.4943  -10.1384  -18.7769 C   0  0  0  0  0  0  0  0  0  0  0  0
   20.4355   -9.9527  -19.4700 O   0  0  0  0  0  0  0  0  0  0  0  0
   21.8067   -8.0726  -15.2011 O   0  0  0  0  0  0  0  0  0  0  0  0
   20.5985   -8.2447  -15.8686 C   0  0  0  0  0  0  0  0  0  0  0  0
   20.7810   -8.2809  -17.3736 C   0  0  2  0  0  0  0  0  0  0  0  0
   21.7480   -9.2654  -17.6808 N   0  0  0  0  0  0  0  0  0  0  0  0
   21.1121   -6.9129  -17.8243 C   0  0  0  0  0  0  0  0  0  0  0  0
   22.3181   -6.5937  -17.8156 O   0  0  0  0  0  0  0  0  0  0  0  0
   20.2249   -2.7141  -21.0088 C   0  0  0  0  0  0  0  0  0  0  0  0
   19.4294   -2.5152  -19.7067 C   0  0  1  0  0  0  0  0  0  0  0  0
   18.1028   -1.8647  -20.1953 C   0  0  0  0  0  0  0  0  0  0  0  0
   19.1693   -3.8677  -19.1687 C   0  0  0  0  0  0  0  0  0  0  0  0
   20.3714   -4.5919  -18.5957 C   0  0  2  0  0  0  0  0  0  0  0  0
   20.1604   -5.9633  -18.2563 N   0  0  0  0  0  0  0  0  0  0  0  0
   20.9609   -3.7483  -17.5604 C   0  0  0  0  0  0  0  0  0  0  0  0
   21.5260   -2.6696  -17.8666 O   0  0  0  0  0  0  0  0  0  0  0  0
   20.9206   -4.0985  -16.2226 O   0  0  0  0  0  0  0  0  0  0  0  0
  2  1  1  1
  2  3  1  0
  3  4  1  0
  5  6  2  0
  5  2  1  0
  7  8  1  0
  9  8  1  1
  9 10  1  0
 10  5  1  0
 11  9  1  0
 11 12  2  0
 14 15  1  6
 14 13  1  0
 16 14  1  0
 17 18  1  0
 17 16  1  1
 18 11  1  0
 19 17  1  0
 20 19  2  0
 21 19  1  0
M  END
$$$$
