CSL.pdb
     RDKit          3D

 21 20  0  0  1  0  0  0  0  0999 V2000
   15.0573  -20.4217    2.5187 N   0  0  0  0  0  0  0  0  0  0  0  0
   16.0729  -20.7497    3.4957 C   0  0  1  0  0  0  0  0  0  0  0  0
   17.3196  -21.1456    2.6946 C   0  0  0  0  0  0  0  0  0  0  0  0
   18.6609  -21.6813    3.7569 S   0  0  0  0  0  0  0  0  0  0  0  0
   16.4224  -19.5600    4.2719 C   0  0  0  0  0  0  0  0  0  0  0  0
   16.3607  -18.4261    3.6835 O   0  0  0  0  0  0  0  0  0  0  0  0
   15.9394  -19.1532    8.2801 O   0  0  0  0  0  0  0  0  0  0  0  0
   15.9557  -18.1518    7.3148 C   0  0  0  0  0  0  0  0  0  0  0  0
   17.0580  -18.3637    6.2951 C   0  0  2  0  0  0  0  0  0  0  0  0
   16.8251  -19.5933    5.6375 N   0  0  0  0  0  0  0  0  0  0  0  0
   18.3537  -18.2631    6.9989 C   0  0  0  0  0  0  0  0  0  0  0  0
   18.9309  -19.3350    7.2715 O   0  0  0  0  0  0  0  0  0  0  0  0
   22.9306  -15.9490    8.5961 C   0  0  0  0  0  0  0  0  0  0  0  0
   21.7433  -15.2133    9.2415 C   0  0  1  0  0  0  0  0  0  0  0  0
   22.1874  -13.7222    9.2087 C   0  0  0  0  0  0  0  0  0  0  0  0
   20.5872  -15.4237    8.3438 C   0  0  0  0  0  0  0  0  0  0  0  0
   20.0877  -16.8507    8.2355 C   0  0  2  0  0  0  0  0  0  0  0  0
   18.9653  -17.0468    7.3739 N   0  0  0  0  0  0  0  0  0  0  0  0
   19.9767  -17.3984    9.5840 C   0  0  0  0  0  0  0  0  0  0  0  0
   20.9735  -17.9214   10.1404 O   0  0  0  0  0  0  0  0  0  0  0  0
   18.7879  -17.3634   10.2907 O   0  0  0  0  0  0  0  0  0  0  0  0
  2  1  1  6
  2  3  1  0
  3  4  1  0
  5  6  2  0
  5  2  1  0
  7  8  1  0
  9  8  1  1
  9 10  1  0
 10  5  1  0
 11  9  1  0
 11 12  2  0
 14 15  1  6
 14 13  1  0
 16 14  1  0
 17 18  1  0
 17 16  1  1
 18 11  1  0
 19 17  1  0
 20 19  2  0
 21 19  1  0
M  END
$$$$
