CSL.pdb
     RDKit          3D

 21 20  0  0  1  0  0  0  0  0999 V2000
   27.2014  -17.8511  -18.6149 N   0  0  0  0  0  0  0  0  0  0  0  0
   27.4850  -16.5752  -17.9945 C   0  0  1  0  0  0  0  0  0  0  0  0
   28.3296  -15.7903  -19.0061 C   0  0  0  0  0  0  0  0  0  0  0  0
   29.9355  -16.5426  -19.2707 S   0  0  0  0  0  0  0  0  0  0  0  0
   26.2432  -15.8265  -17.8011 C   0  0  0  0  0  0  0  0  0  0  0  0
   25.4321  -15.7540  -18.7874 O   0  0  0  0  0  0  0  0  0  0  0  0
   23.1063  -13.5722  -14.9259 O   0  0  0  0  0  0  0  0  0  0  0  0
   24.3657  -14.1417  -15.0826 C   0  0  0  0  0  0  0  0  0  0  0  0
   24.6583  -14.4839  -16.5307 C   0  0  2  0  0  0  0  0  0  0  0  0
   25.8887  -15.1780  -16.5838 N   0  0  0  0  0  0  0  0  0  0  0  0
   24.6095  -13.2307  -17.3126 C   0  0  0  0  0  0  0  0  0  0  0  0
   25.6794  -12.6003  -17.4329 O   0  0  0  0  0  0  0  0  0  0  0  0
   24.7922  -12.4000  -22.1922 C   0  0  0  0  0  0  0  0  0  0  0  0
   24.8786  -12.0830  -20.6890 C   0  0  1  0  0  0  0  0  0  0  0  0
   25.7241  -10.7771  -20.6481 C   0  0  0  0  0  0  0  0  0  0  0  0
   23.4954  -11.8122  -20.2419 C   0  0  0  0  0  0  0  0  0  0  0  0
   23.3191  -11.5636  -18.7570 C   0  0  2  0  0  0  0  0  0  0  0  0
   23.4441  -12.7147  -17.9205 N   0  0  0  0  0  0  0  0  0  0  0  0
   22.1217  -10.7499  -18.5701 C   0  0  0  0  0  0  0  0  0  0  0  0
   21.1407  -11.2023  -17.9301 O   0  0  0  0  0  0  0  0  0  0  0  0
   22.0224   -9.4687  -19.0825 O   0  0  0  0  0  0  0  0  0  0  0  0
  2  1  1  6
  2  3  1  0
  3  4  1  0
  5  6  2  0
  5  2  1  0
  7  8  1  0
  9  8  1  1
  9 10  1  0
 10  5  1  0
 11  9  1  0
 11 12  2  0
 14 15  1  6
 14 13  1  0
 16 14  1  0
 17 18  1  0
 17 16  1  6
 18 11  1  0
 19 17  1  0
 20 19  2  0
 21 19  1  0
M  END
$$$$
