NTF.pdb
     RDKit          3D

 27 27  0  0  1  0  0  0  0  0999 V2000
    6.7569  -13.7096   15.8376 N   0  0  0  0  0  0  0  0  0  0  0  0
    7.8873  -13.6514   16.6985 C   0  0  0  0  0  0  0  0  0  0  0  0
    8.9920  -14.0164   16.2199 O   0  0  0  0  0  0  0  0  0  0  0  0
    7.8581  -13.2003   18.0927 C   0  0  0  0  0  0  0  0  0  0  0  0
    8.9244  -13.8319   18.9479 C   0  0  2  0  0  0  0  0  0  0  0  0
    9.6397  -14.8770   18.3108 N   0  0  0  0  0  0  0  0  0  0  0  0
    8.2893  -14.2881   20.2021 C   0  0  0  0  0  0  0  0  0  0  0  0
    7.6321  -13.4666   20.9104 O   0  0  0  0  0  0  0  0  0  0  0  0
    6.2685  -17.5026   20.8411 C   0  0  0  0  0  0  0  0  0  0  0  0
    7.3565  -17.4364   21.9123 C   0  0  1  0  0  0  0  0  0  0  0  0
    8.4244  -18.2526   21.5521 O   0  0  0  0  0  0  0  0  0  0  0  0
    7.8426  -15.9927   21.9695 C   0  0  2  0  0  0  0  0  0  0  0  0
    8.3623  -15.6208   20.6891 N   0  0  0  0  0  0  0  0  0  0  0  0
    8.8485  -15.8841   23.0606 C   0  0  0  0  0  0  0  0  0  0  0  0
   10.0454  -15.6058   22.8646 O   0  0  0  0  0  0  0  0  0  0  0  0
    8.4061  -16.1120   24.3853 N   0  0  0  0  0  0  0  0  0  0  0  0
    9.3040  -15.9325   25.5252 C   0  0  1  0  0  0  0  0  0  0  0  0
    9.6557  -14.5014   25.7008 C   0  0  0  0  0  0  0  0  0  0  0  0
    8.5071  -13.6297   25.9049 C   0  0  0  0  0  0  0  0  0  0  0  0
    8.1066  -13.2720   27.1850 C   0  0  0  0  0  0  0  0  0  0  0  0
    7.0458  -12.4403   27.3851 C   0  0  0  0  0  0  0  0  0  0  0  0
    6.3172  -11.9119   26.3382 C   0  0  0  0  0  0  0  0  0  0  0  0
    6.7049  -12.2601   25.0479 C   0  0  0  0  0  0  0  0  0  0  0  0
    7.7785  -13.1016   24.8493 C   0  0  0  0  0  0  0  0  0  0  0  0
    8.7305  -16.4901   26.7602 C   0  0  0  0  0  0  0  0  0  0  0  0
    7.4919  -17.0794   26.8065 O   0  0  0  0  0  0  0  0  0  0  0  0
    9.4480  -16.4013   27.8199 O   0  0  0  0  0  0  0  0  0  0  0  0
  2  1  1  0
  3  2  2  0
  4  2  1  0
  5  6  1  6
  5  4  1  0
  7  5  1  0
  7  8  2  0
 10  9  1  6
 10 12  1  0
 11 10  1  0
 12 13  1  6
 12 14  1  0
 13  7  1  0
 14 16  1  0
 15 14  2  0
 16 17  1  0
 17 25  1  0
 18 19  1  0
 17 18  1  1
 19 24  2  0
 20 21  2  0
 20 19  1  0
 21 22  1  0
 22 23  2  0
 24 23  1  0
 25 27  2  0
 25 26  1  0
M  END
$$$$
