NTF.pdb
     RDKit          3D

 27 27  0  0  1  0  0  0  0  0999 V2000
   10.9569  -13.0940   17.8047 N   0  0  0  0  0  0  0  0  0  0  0  0
    9.8772  -12.5410   18.5469 C   0  0  0  0  0  0  0  0  0  0  0  0
    9.8069  -11.2864   18.6086 O   0  0  0  0  0  0  0  0  0  0  0  0
    8.8483  -13.3215   19.2399 C   0  0  0  0  0  0  0  0  0  0  0  0
    9.0316  -14.8095   19.1004 C   0  0  2  0  0  0  0  0  0  0  0  0
    8.6238  -15.3323   17.8473 N   0  0  0  0  0  0  0  0  0  0  0  0
    8.3238  -15.4613   20.2224 C   0  0  0  0  0  0  0  0  0  0  0  0
    7.0618  -15.3703   20.3089 O   0  0  0  0  0  0  0  0  0  0  0  0
    7.4270  -18.5729   20.9092 C   0  0  0  0  0  0  0  0  0  0  0  0
    8.2000  -18.2804   22.1948 C   0  0  1  0  0  0  0  0  0  0  0  0
    9.4994  -18.7661   22.0857 O   0  0  0  0  0  0  0  0  0  0  0  0
    8.2562  -16.7649   22.3496 C   0  0  2  0  0  0  0  0  0  0  0  0
    8.9724  -16.2060   21.2438 N   0  0  0  0  0  0  0  0  0  0  0  0
    8.8801  -16.4551   23.6644 C   0  0  0  0  0  0  0  0  0  0  0  0
   10.0672  -16.1053   23.7947 O   0  0  0  0  0  0  0  0  0  0  0  0
    8.0687  -16.5686   24.8181 N   0  0  0  0  0  0  0  0  0  0  0  0
    8.6070  -16.3046   26.1517 C   0  0  1  0  0  0  0  0  0  0  0  0
    7.5854  -15.6642   27.0170 C   0  0  0  0  0  0  0  0  0  0  0  0
    7.3805  -14.2486   26.7437 C   0  0  0  0  0  0  0  0  0  0  0  0
    6.1102  -13.7530   26.4831 C   0  0  0  0  0  0  0  0  0  0  0  0
    5.9059  -12.4266   26.2468 C   0  0  0  0  0  0  0  0  0  0  0  0
    6.9385  -11.5103   26.2529 C   0  0  0  0  0  0  0  0  0  0  0  0
    8.2188  -11.9898   26.5124 C   0  0  0  0  0  0  0  0  0  0  0  0
    8.4218  -13.3323   26.7511 C   0  0  0  0  0  0  0  0  0  0  0  0
    9.1343  -17.5285   26.7756 C   0  0  0  0  0  0  0  0  0  0  0  0
    9.9237  -17.5118   27.8982 O   0  0  0  0  0  0  0  0  0  0  0  0
    8.8230  -18.6403   26.2166 O   0  0  0  0  0  0  0  0  0  0  0  0
  2  1  1  0
  3  2  2  0
  4  2  1  0
  5  6  1  6
  5  4  1  0
  7  5  1  0
  7  8  2  0
 10  9  1  6
 10 12  1  0
 11 10  1  0
 12 13  1  6
 12 14  1  0
 13  7  1  0
 14 16  1  0
 15 14  2  0
 16 17  1  0
 17 25  1  0
 18 19  1  0
 17 18  1  1
 19 24  2  0
 20 21  2  0
 20 19  1  0
 21 22  1  0
 22 23  2  0
 24 23  1  0
 25 27  2  0
 25 26  1  0
M  END
$$$$
