NTF.pdb
     RDKit          3D

 27 27  0  0  1  0  0  0  0  0999 V2000
    7.4540  -15.8387   13.8810 N   0  0  0  0  0  0  0  0  0  0  0  0
    8.2818  -15.0943   14.7658 C   0  0  0  0  0  0  0  0  0  0  0  0
    9.2553  -14.4792   14.2592 O   0  0  0  0  0  0  0  0  0  0  0  0
    8.0840  -14.9929   16.2145 C   0  0  0  0  0  0  0  0  0  0  0  0
    9.1080  -15.7556   17.0126 C   0  0  2  0  0  0  0  0  0  0  0  0
    9.6756  -16.8603   16.3288 N   0  0  0  0  0  0  0  0  0  0  0  0
    8.4787  -16.1641   18.2860 C   0  0  0  0  0  0  0  0  0  0  0  0
    7.2150  -16.1649   18.3924 O   0  0  0  0  0  0  0  0  0  0  0  0
    8.6609  -19.3111   19.8886 C   0  0  0  0  0  0  0  0  0  0  0  0
    9.0440  -18.3692   21.0295 C   0  0  1  0  0  0  0  0  0  0  0  0
   10.4280  -18.3346   21.1692 O   0  0  0  0  0  0  0  0  0  0  0  0
    8.5570  -16.9768   20.6445 C   0  0  2  0  0  0  0  0  0  0  0  0
    9.2072  -16.5689   19.4367 N   0  0  0  0  0  0  0  0  0  0  0  0
    8.8207  -16.0602   21.7865 C   0  0  0  0  0  0  0  0  0  0  0  0
    9.7405  -15.2222   21.7948 O   0  0  0  0  0  0  0  0  0  0  0  0
    7.9729  -16.1582   22.9152 N   0  0  0  0  0  0  0  0  0  0  0  0
    8.0472  -15.1863   24.0050 C   0  0  1  0  0  0  0  0  0  0  0  0
    6.9572  -14.1851   23.8957 C   0  0  0  0  0  0  0  0  0  0  0  0
    6.9490  -13.1987   24.9670 C   0  0  0  0  0  0  0  0  0  0  0  0
    7.5599  -11.9636   24.7986 C   0  0  0  0  0  0  0  0  0  0  0  0
    7.5395  -11.0265   25.7878 C   0  0  0  0  0  0  0  0  0  0  0  0
    6.9173  -11.2492   26.9999 C   0  0  0  0  0  0  0  0  0  0  0  0
    6.2997  -12.4822   27.1858 C   0  0  0  0  0  0  0  0  0  0  0  0
    6.3223  -13.4278   26.1830 C   0  0  0  0  0  0  0  0  0  0  0  0
    8.0284  -15.8447   25.3209 C   0  0  0  0  0  0  0  0  0  0  0  0
    8.8731  -15.4906   26.3430 O   0  0  0  0  0  0  0  0  0  0  0  0
    7.1733  -16.7873   25.4814 O   0  0  0  0  0  0  0  0  0  0  0  0
  2  1  1  0
  3  2  2  0
  4  2  1  0
  5  6  1  6
  5  4  1  0
  7  5  1  0
  7  8  2  0
 10  9  1  6
 10 12  1  0
 11 10  1  0
 12 13  1  6
 12 14  1  0
 13  7  1  0
 14 16  1  0
 15 14  2  0
 16 17  1  0
 17 25  1  0
 18 19  1  0
 17 18  1  1
 19 24  2  0
 20 21  2  0
 20 19  1  0
 21 22  1  0
 22 23  2  0
 24 23  1  0
 25 27  2  0
 25 26  1  0
M  END
$$$$
