NTF.pdb
     RDKit          3D

 27 27  0  0  1  0  0  0  0  0999 V2000
   11.2649  -20.2171   18.6520 N   0  0  0  0  0  0  0  0  0  0  0  0
   10.7390  -19.0731   17.9909 C   0  0  0  0  0  0  0  0  0  0  0  0
   10.4975  -19.1820   16.7610 O   0  0  0  0  0  0  0  0  0  0  0  0
   10.4603  -17.7861   18.6344 C   0  0  0  0  0  0  0  0  0  0  0  0
   10.1330  -17.9085   20.0990 C   0  0  2  0  0  0  0  0  0  0  0  0
    9.0011  -18.7152   20.3782 N   0  0  0  0  0  0  0  0  0  0  0  0
    9.9814  -16.5438   20.6459 C   0  0  0  0  0  0  0  0  0  0  0  0
   10.9156  -15.6989   20.4989 O   0  0  0  0  0  0  0  0  0  0  0  0
    7.2843  -13.8483   20.1601 C   0  0  0  0  0  0  0  0  0  0  0  0
    7.3518  -14.2144   21.6424 C   0  0  1  0  0  0  0  0  0  0  0  0
    6.4117  -15.1994   21.9291 O   0  0  0  0  0  0  0  0  0  0  0  0
    8.7443  -14.7776   21.9025 C   0  0  2  0  0  0  0  0  0  0  0  0
    8.8303  -16.0934   21.3464 N   0  0  0  0  0  0  0  0  0  0  0  0
    8.9909  -14.7476   23.3696 C   0  0  0  0  0  0  0  0  0  0  0  0
    9.3160  -13.7187   23.9893 O   0  0  0  0  0  0  0  0  0  0  0  0
    8.8442  -15.9602   24.0840 N   0  0  0  0  0  0  0  0  0  0  0  0
    9.0181  -16.0104   25.5349 C   0  0  1  0  0  0  0  0  0  0  0  0
    7.7206  -15.8201   26.2297 C   0  0  0  0  0  0  0  0  0  0  0  0
    7.3719  -14.4255   26.4624 C   0  0  0  0  0  0  0  0  0  0  0  0
    6.0952  -13.9575   26.1835 C   0  0  0  0  0  0  0  0  0  0  0  0
    5.7536  -12.6592   26.4174 C   0  0  0  0  0  0  0  0  0  0  0  0
    6.6475  -11.7456   26.9392 C   0  0  0  0  0  0  0  0  0  0  0  0
    7.9322  -12.1977   27.2249 C   0  0  0  0  0  0  0  0  0  0  0  0
    8.2741  -13.5118   26.9870 C   0  0  0  0  0  0  0  0  0  0  0  0
    9.6658  -17.2612   25.9604 C   0  0  0  0  0  0  0  0  0  0  0  0
    9.9965  -17.5219   27.2667 O   0  0  0  0  0  0  0  0  0  0  0  0
    9.9186  -18.1206   25.0422 O   0  0  0  0  0  0  0  0  0  0  0  0
  2  1  1  0
  3  2  2  0
  4  2  1  0
  5  6  1  6
  5  4  1  0
  7  5  1  0
  7  8  2  0
 10  9  1  6
 10 12  1  0
 11 10  1  0
 12 13  1  1
 12 14  1  0
 13  7  1  0
 14 16  1  0
 15 14  2  0
 16 17  1  0
 17 25  1  0
 18 19  1  0
 17 18  1  1
 19 24  2  0
 20 21  2  0
 20 19  1  0
 21 22  1  0
 22 23  2  0
 24 23  1  0
 25 27  2  0
 25 26  1  0
M  END
$$$$
