NTF.pdb
     RDKit          3D

 27 27  0  0  1  0  0  0  0  0999 V2000
    9.5002  -21.5573   19.6356 N   0  0  0  0  0  0  0  0  0  0  0  0
   10.4741  -20.6160   19.2023 C   0  0  0  0  0  0  0  0  0  0  0  0
   11.2519  -20.9781   18.2822 O   0  0  0  0  0  0  0  0  0  0  0  0
   10.6358  -19.2648   19.7464 C   0  0  0  0  0  0  0  0  0  0  0  0
   10.0708  -18.1901   18.8558 C   0  0  2  0  0  0  0  0  0  0  0  0
   10.8334  -17.9410   17.6869 N   0  0  0  0  0  0  0  0  0  0  0  0
    9.9013  -16.9683   19.6700 C   0  0  0  0  0  0  0  0  0  0  0  0
   10.7585  -16.0367   19.5940 O   0  0  0  0  0  0  0  0  0  0  0  0
    7.5249  -14.2648   20.0200 C   0  0  0  0  0  0  0  0  0  0  0  0
    7.5330  -14.8987   21.4107 C   0  0  1  0  0  0  0  0  0  0  0  0
    6.4541  -15.7679   21.5400 O   0  0  0  0  0  0  0  0  0  0  0  0
    8.8238  -15.7009   21.5306 C   0  0  2  0  0  0  0  0  0  0  0  0
    8.8151  -16.7527   20.5601 N   0  0  0  0  0  0  0  0  0  0  0  0
    8.9331  -16.1988   22.9285 C   0  0  0  0  0  0  0  0  0  0  0  0
    8.3621  -17.2261   23.3371 O   0  0  0  0  0  0  0  0  0  0  0  0
    9.7316  -15.4545   23.8290 N   0  0  0  0  0  0  0  0  0  0  0  0
    9.1508  -14.8248   25.0138 C   0  0  1  0  0  0  0  0  0  0  0  0
    8.2220  -13.7326   24.6304 C   0  0  0  0  0  0  0  0  0  0  0  0
    7.6392  -13.0258   25.7624 C   0  0  0  0  0  0  0  0  0  0  0  0
    8.4291  -12.2419   26.5922 C   0  0  0  0  0  0  0  0  0  0  0  0
    7.8892  -11.5603   27.6414 C   0  0  0  0  0  0  0  0  0  0  0  0
    6.5413  -11.6096   27.9357 C   0  0  0  0  0  0  0  0  0  0  0  0
    5.7344  -12.3907   27.1140 C   0  0  0  0  0  0  0  0  0  0  0  0
    6.2840  -13.0789   26.0535 C   0  0  0  0  0  0  0  0  0  0  0  0
    8.4795  -15.8093   25.8771 C   0  0  0  0  0  0  0  0  0  0  0  0
    7.4364  -16.5899   25.4454 O   0  0  0  0  0  0  0  0  0  0  0  0
    8.9144  -15.9128   27.0795 O   0  0  0  0  0  0  0  0  0  0  0  0
  2  1  1  0
  3  2  2  0
  4  2  1  0
  5  6  1  6
  5  4  1  0
  7  5  1  0
  7  8  2  0
 10  9  1  6
 10 12  1  0
 11 10  1  0
 12 13  1  6
 12 14  1  0
 13  7  1  0
 14 16  1  0
 15 14  2  0
 16 17  1  0
 17 25  1  0
 18 19  1  0
 17 18  1  6
 19 24  2  0
 20 21  2  0
 20 19  1  0
 21 22  1  0
 22 23  2  0
 24 23  1  0
 25 27  2  0
 25 26  1  0
M  END
$$$$
