NTF.pdb
     RDKit          3D

 27 27  0  0  1  0  0  0  0  0999 V2000
   10.6455  -15.9621   15.3889 N   0  0  0  0  0  0  0  0  0  0  0  0
    9.3650  -16.4917   15.7084 C   0  0  0  0  0  0  0  0  0  0  0  0
    8.8107  -17.2147   14.8409 O   0  0  0  0  0  0  0  0  0  0  0  0
    8.6500  -16.2576   16.9663 C   0  0  0  0  0  0  0  0  0  0  0  0
    9.2574  -16.9762   18.1419 C   0  0  2  0  0  0  0  0  0  0  0  0
    9.2938  -18.3870   18.0076 N   0  0  0  0  0  0  0  0  0  0  0  0
    8.5246  -16.5602   19.3562 C   0  0  0  0  0  0  0  0  0  0  0  0
    7.3442  -16.1076   19.2555 O   0  0  0  0  0  0  0  0  0  0  0  0
    6.3630  -17.1920   20.4962 C   0  0  0  0  0  0  0  0  0  0  0  0
    7.0808  -17.3557   21.8355 C   0  0  1  0  0  0  0  0  0  0  0  0
    7.5656  -18.6544   21.9561 O   0  0  0  0  0  0  0  0  0  0  0  0
    8.2618  -16.3917   21.8324 C   0  0  2  0  0  0  0  0  0  0  0  0
    9.0611  -16.6318   20.6698 N   0  0  0  0  0  0  0  0  0  0  0  0
    9.0131  -16.5735   23.1038 C   0  0  0  0  0  0  0  0  0  0  0  0
   10.0795  -17.2095   23.1852 O   0  0  0  0  0  0  0  0  0  0  0  0
    8.4744  -15.9866   24.2733 N   0  0  0  0  0  0  0  0  0  0  0  0
    9.1541  -16.1053   25.5624 C   0  0  1  0  0  0  0  0  0  0  0  0
    9.5334  -14.7691   26.0850 C   0  0  0  0  0  0  0  0  0  0  0  0
    8.4536  -13.7924   26.0542 C   0  0  0  0  0  0  0  0  0  0  0  0
    7.6966  -13.5357   27.1891 C   0  0  0  0  0  0  0  0  0  0  0  0
    6.6979  -12.6087   27.1754 C   0  0  0  0  0  0  0  0  0  0  0  0
    6.3854  -11.8802   26.0451 C   0  0  0  0  0  0  0  0  0  0  0  0
    7.1343  -12.1247   24.8981 C   0  0  0  0  0  0  0  0  0  0  0  0
    8.1439  -13.0632   24.9156 C   0  0  0  0  0  0  0  0  0  0  0  0
    8.3374  -16.8417   26.5402 C   0  0  0  0  0  0  0  0  0  0  0  0
    8.8174  -17.2384   27.7632 O   0  0  0  0  0  0  0  0  0  0  0  0
    7.1300  -17.1079   26.1984 O   0  0  0  0  0  0  0  0  0  0  0  0
  2  1  1  0
  3  2  2  0
  4  2  1  0
  5  6  1  6
  5  4  1  0
  7  5  1  0
  7  8  2  0
 10  9  1  6
 10 12  1  0
 11 10  1  0
 12 13  1  6
 12 14  1  0
 13  7  1  0
 14 16  1  0
 15 14  2  0
 16 17  1  0
 17 25  1  0
 18 19  1  0
 17 18  1  1
 19 24  2  0
 20 21  2  0
 20 19  1  0
 21 22  1  0
 22 23  2  0
 24 23  1  0
 25 27  2  0
 25 26  1  0
M  END
$$$$
