NTF.pdb
     RDKit          3D

 27 27  0  0  1  0  0  0  0  0999 V2000
   14.2192  -18.4143   18.1293 N   0  0  0  0  0  0  0  0  0  0  0  0
   13.1602  -17.4729   18.0090 C   0  0  0  0  0  0  0  0  0  0  0  0
   12.6922  -17.2802   16.8573 O   0  0  0  0  0  0  0  0  0  0  0  0
   12.5791  -16.7167   19.1220 C   0  0  0  0  0  0  0  0  0  0  0  0
   11.2807  -17.2920   19.6223 C   0  0  2  0  0  0  0  0  0  0  0  0
   10.3805  -17.6779   18.5974 N   0  0  0  0  0  0  0  0  0  0  0  0
   10.6733  -16.3084   20.5433 C   0  0  0  0  0  0  0  0  0  0  0  0
   11.4097  -15.6576   21.3448 O   0  0  0  0  0  0  0  0  0  0  0  0
    7.3637  -14.0067   20.0647 C   0  0  0  0  0  0  0  0  0  0  0  0
    7.2720  -14.9000   21.3014 C   0  0  1  0  0  0  0  0  0  0  0  0
    6.5568  -16.0545   20.9983 O   0  0  0  0  0  0  0  0  0  0  0  0
    8.6962  -15.2923   21.6780 C   0  0  2  0  0  0  0  0  0  0  0  0
    9.2815  -16.0287   20.5994 N   0  0  0  0  0  0  0  0  0  0  0  0
    8.6448  -16.0631   22.9496 C   0  0  0  0  0  0  0  0  0  0  0  0
    8.9966  -17.2529   23.0450 O   0  0  0  0  0  0  0  0  0  0  0  0
    8.1688  -15.3950   24.1026 N   0  0  0  0  0  0  0  0  0  0  0  0
    8.1801  -16.0437   25.4129 C   0  0  1  0  0  0  0  0  0  0  0  0
    8.7584  -15.1450   26.4427 C   0  0  0  0  0  0  0  0  0  0  0  0
    7.9985  -13.9211   26.6553 C   0  0  0  0  0  0  0  0  0  0  0  0
    8.2699  -13.0967   27.7388 C   0  0  0  0  0  0  0  0  0  0  0  0
    7.5781  -11.9391   27.9343 C   0  0  0  0  0  0  0  0  0  0  0  0
    6.5793  -11.5246   27.0761 C   0  0  0  0  0  0  0  0  0  0  0  0
    6.2940  -12.3390   25.9844 C   0  0  0  0  0  0  0  0  0  0  0  0
    6.9959  -13.5094   25.7897 C   0  0  0  0  0  0  0  0  0  0  0  0
    6.8366  -16.4986   25.8043 C   0  0  0  0  0  0  0  0  0  0  0  0
    6.6116  -17.3128   26.8861 O   0  0  0  0  0  0  0  0  0  0  0  0
    5.8582  -16.0980   25.0779 O   0  0  0  0  0  0  0  0  0  0  0  0
  2  1  1  0
  3  2  2  0
  4  2  1  0
  5  6  1  6
  5  4  1  0
  7  5  1  0
  7  8  2  0
 10  9  1  6
 10 12  1  0
 11 10  1  0
 12 13  1  6
 12 14  1  0
 13  7  1  0
 14 16  1  0
 15 14  2  0
 16 17  1  0
 17 25  1  0
 18 19  1  0
 17 18  1  1
 19 24  2  0
 20 21  2  0
 20 19  1  0
 21 22  1  0
 22 23  2  0
 24 23  1  0
 25 27  2  0
 25 26  1  0
M  END
$$$$
