QVS.pdb
     RDKit          3D

 23 22  0  0  1  0  0  0  0  0999 V2000
   13.2313  -18.8551   17.9175 N   0  0  0  0  0  0  0  0  0  0  0  0
   12.1373  -19.3956   17.1882 C   0  0  0  0  0  0  0  0  0  0  0  0
   12.3275  -20.3896   16.4597 O   0  0  0  0  0  0  0  0  0  0  0  0
   10.8076  -18.7850   17.2916 C   0  0  0  0  0  0  0  0  0  0  0  0
   10.7466  -17.5896   18.1931 C   0  0  0  0  0  0  0  0  0  0  0  0
    9.5369  -17.5975   19.0600 C   0  0  2  0  0  0  0  0  0  0  0  0
    8.2769  -17.4295   18.4071 N   0  0  0  0  0  0  0  0  0  0  0  0
    9.7109  -16.6952   20.2526 C   0  0  0  0  0  0  0  0  0  0  0  0
   10.8624  -16.5230   20.7499 O   0  0  0  0  0  0  0  0  0  0  0  0
    7.9750  -13.2886   23.4511 C   0  0  0  0  0  0  0  0  0  0  0  0
    7.8481  -14.0998   22.2041 C   0  0  1  0  0  0  0  0  0  0  0  0
    8.0674  -13.1909   21.0034 C   0  0  0  0  0  0  0  0  0  0  0  0
    8.8772  -15.2085   22.1028 C   0  0  2  0  0  0  0  0  0  0  0  0
    8.6520  -16.0017   20.8829 N   0  0  0  0  0  0  0  0  0  0  0  0
    8.8548  -16.0997   23.2943 C   0  0  0  0  0  0  0  0  0  0  0  0
    7.8360  -16.7419   23.6376 O   0  0  0  0  0  0  0  0  0  0  0  0
   12.1035  -17.9238   24.5594 O   0  0  0  0  0  0  0  0  0  0  0  0
   10.8657  -18.3757   24.9616 C   0  0  0  0  0  0  0  0  0  0  0  0
    9.9979  -17.1525   25.2837 C   0  0  2  0  0  0  0  0  0  0  0  0
   10.0208  -16.2715   24.1252 N   0  0  0  0  0  0  0  0  0  0  0  0
   10.4657  -16.4966   26.5035 C   0  0  0  0  0  0  0  0  0  0  0  0
   10.4083  -17.1591   27.7091 O   0  0  0  0  0  0  0  0  0  0  0  0
   10.9201  -15.3367   26.4713 O   0  0  0  0  0  0  0  0  0  0  0  0
  2  1  1  0
  3  2  2  0
  4  2  1  0
  5  4  1  0
  6  5  1  0
  6  8  1  0
  6  7  1  6
  8  9  2  0
 11 10  1  1
 11 12  1  0
 13 11  1  0
 14  8  1  0
 13 14  1  6
 15 13  1  0
 15 20  1  0
 16 15  2  0
 17 18  1  0
 19 21  1  0
 19 20  1  0
 19 18  1  6
 21 22  1  0
 23 21  2  0
M  END
$$$$
