QVS.pdb
     RDKit          3D

 23 22  0  0  1  0  0  0  0  0999 V2000
   11.1246  -20.8188   16.6880 N   0  0  0  0  0  0  0  0  0  0  0  0
   10.9440  -19.9782   15.5559 C   0  0  0  0  0  0  0  0  0  0  0  0
   11.4394  -20.3193   14.4636 O   0  0  0  0  0  0  0  0  0  0  0  0
   10.1891  -18.7266   15.6788 C   0  0  0  0  0  0  0  0  0  0  0  0
    9.5563  -18.5176   17.0209 C   0  0  0  0  0  0  0  0  0  0  0  0
    8.7163  -17.2897   17.0639 C   0  0  2  0  0  0  0  0  0  0  0  0
    8.5302  -16.5945   15.8293 N   0  0  0  0  0  0  0  0  0  0  0  0
    9.1236  -16.3860   18.1970 C   0  0  0  0  0  0  0  0  0  0  0  0
   10.3507  -16.2205   18.4614 O   0  0  0  0  0  0  0  0  0  0  0  0
    7.9761  -12.9952   21.6887 C   0  0  0  0  0  0  0  0  0  0  0  0
    7.5907  -13.8610   20.5350 C   0  0  1  0  0  0  0  0  0  0  0  0
    7.3238  -12.9765   19.3258 C   0  0  0  0  0  0  0  0  0  0  0  0
    8.6778  -14.8362   20.1278 C   0  0  2  0  0  0  0  0  0  0  0  0
    8.2112  -15.6837   19.0178 N   0  0  0  0  0  0  0  0  0  0  0  0
    9.1138  -15.6909   21.2652 C   0  0  0  0  0  0  0  0  0  0  0  0
    8.4450  -16.6696   21.6690 O   0  0  0  0  0  0  0  0  0  0  0  0
   12.7217  -16.8520   24.2910 O   0  0  0  0  0  0  0  0  0  0  0  0
   12.2888  -16.0236   23.2788 C   0  0  0  0  0  0  0  0  0  0  0  0
   10.8008  -16.3087   23.0387 C   0  0  2  0  0  0  0  0  0  0  0  0
   10.3453  -15.4322   21.9696 N   0  0  0  0  0  0  0  0  0  0  0  0
   10.0385  -16.1385   24.2743 C   0  0  0  0  0  0  0  0  0  0  0  0
   10.0503  -17.1255   25.2342 O   0  0  0  0  0  0  0  0  0  0  0  0
    9.3713  -15.1056   24.4764 O   0  0  0  0  0  0  0  0  0  0  0  0
  2  1  1  0
  3  2  2  0
  4  2  1  0
  5  4  1  0
  6  5  1  0
  6  8  1  0
  6  7  1  6
  8  9  2  0
 11 10  1  1
 11 12  1  0
 13 11  1  0
 14  8  1  0
 13 14  1  6
 15 13  1  0
 15 20  1  0
 16 15  2  0
 17 18  1  0
 19 21  1  0
 19 20  1  0
 19 18  1  1
 21 22  1  0
 23 21  2  0
M  END
$$$$
