QVS.pdb
     RDKit          3D

 23 22  0  0  1  0  0  0  0  0999 V2000
    8.5417  -21.4067   15.7238 N   0  0  0  0  0  0  0  0  0  0  0  0
    8.3376  -20.8113   16.9985 C   0  0  0  0  0  0  0  0  0  0  0  0
    7.8175  -21.4890   17.9068 O   0  0  0  0  0  0  0  0  0  0  0  0
    8.7309  -19.4179   17.2337 C   0  0  0  0  0  0  0  0  0  0  0  0
    7.6423  -18.5571   17.7989 C   0  0  0  0  0  0  0  0  0  0  0  0
    7.7449  -17.1445   17.3416 C   0  0  2  0  0  0  0  0  0  0  0  0
    8.1109  -16.9357   15.9762 N   0  0  0  0  0  0  0  0  0  0  0  0
    8.5505  -16.3135   18.3045 C   0  0  0  0  0  0  0  0  0  0  0  0
    9.8070  -16.2349   18.1709 O   0  0  0  0  0  0  0  0  0  0  0  0
    7.4238  -12.7519   19.9978 C   0  0  0  0  0  0  0  0  0  0  0  0
    8.0270  -13.7161   20.9650 C   0  0  1  0  0  0  0  0  0  0  0  0
    6.9080  -14.4145   21.7238 C   0  0  0  0  0  0  0  0  0  0  0  0
    8.8431  -14.8049   20.2962 C   0  0  2  0  0  0  0  0  0  0  0  0
    7.9942  -15.5893   19.3841 N   0  0  0  0  0  0  0  0  0  0  0  0
    9.4853  -15.7087   21.2888 C   0  0  0  0  0  0  0  0  0  0  0  0
    8.9708  -16.7931   21.6460 O   0  0  0  0  0  0  0  0  0  0  0  0
   13.4742  -16.6988   23.8640 O   0  0  0  0  0  0  0  0  0  0  0  0
   12.8231  -15.7773   23.0736 C   0  0  0  0  0  0  0  0  0  0  0  0
   11.3941  -16.2828   22.8379 C   0  0  2  0  0  0  0  0  0  0  0  0
   10.7497  -15.3773   21.8979 N   0  0  0  0  0  0  0  0  0  0  0  0
   10.6719  -16.3928   24.1041 C   0  0  0  0  0  0  0  0  0  0  0  0
    9.7641  -15.4235   24.4675 O   0  0  0  0  0  0  0  0  0  0  0  0
   10.8652  -17.3580   24.8682 O   0  0  0  0  0  0  0  0  0  0  0  0
  2  1  1  0
  3  2  2  0
  4  2  1  0
  5  4  1  0
  6  5  1  0
  6  8  1  0
  6  7  1  6
  8  9  2  0
 11 10  1  6
 11 12  1  0
 13 11  1  0
 14  8  1  0
 13 14  1  6
 15 13  1  0
 15 20  1  0
 16 15  2  0
 17 18  1  0
 19 21  1  0
 19 20  1  0
 19 18  1  1
 21 22  1  0
 23 21  2  0
M  END
$$$$
