QVS.pdb
     RDKit          3D

 23 22  0  0  1  0  0  0  0  0999 V2000
    8.0250  -17.6698   13.0165 N   0  0  0  0  0  0  0  0  0  0  0  0
    7.5481  -16.6276   13.8577 C   0  0  0  0  0  0  0  0  0  0  0  0
    7.4257  -15.4790   13.3881 O   0  0  0  0  0  0  0  0  0  0  0  0
    7.2116  -16.9051   15.2582 C   0  0  0  0  0  0  0  0  0  0  0  0
    8.2787  -17.6351   16.0156 C   0  0  0  0  0  0  0  0  0  0  0  0
    7.8882  -17.9002   17.4271 C   0  0  2  0  0  0  0  0  0  0  0  0
    6.4982  -18.1146   17.6801 N   0  0  0  0  0  0  0  0  0  0  0  0
    8.5142  -16.9034   18.3659 C   0  0  0  0  0  0  0  0  0  0  0  0
    9.7645  -16.7068   18.3342 O   0  0  0  0  0  0  0  0  0  0  0  0
    8.1543  -13.2131   21.6994 C   0  0  0  0  0  0  0  0  0  0  0  0
    7.5474  -14.1291   20.6885 C   0  0  1  0  0  0  0  0  0  0  0  0
    7.2224  -13.3297   19.4351 C   0  0  0  0  0  0  0  0  0  0  0  0
    8.4755  -15.2489   20.2605 C   0  0  2  0  0  0  0  0  0  0  0  0
    7.7899  -16.1439   19.3135 N   0  0  0  0  0  0  0  0  0  0  0  0
    8.9752  -16.0328   21.4225 C   0  0  0  0  0  0  0  0  0  0  0  0
    8.2243  -16.7397   22.1328 O   0  0  0  0  0  0  0  0  0  0  0  0
   12.9702  -16.6698   21.8600 O   0  0  0  0  0  0  0  0  0  0  0  0
   12.1015  -17.5852   22.4125 C   0  0  0  0  0  0  0  0  0  0  0  0
   10.8619  -16.8250   22.9009 C   0  0  2  0  0  0  0  0  0  0  0  0
   10.3684  -16.0181   21.7945 N   0  0  0  0  0  0  0  0  0  0  0  0
   11.1800  -16.0287   24.0849 C   0  0  0  0  0  0  0  0  0  0  0  0
   11.5176  -16.6517   25.2654 O   0  0  0  0  0  0  0  0  0  0  0  0
   11.1509  -14.7836   24.0443 O   0  0  0  0  0  0  0  0  0  0  0  0
  2  1  1  0
  3  2  2  0
  4  2  1  0
  5  4  1  0
  6  5  1  0
  6  8  1  0
  6  7  1  6
  8  9  2  0
 11 10  1  1
 11 12  1  0
 13 11  1  0
 14  8  1  0
 13 14  1  6
 15 13  1  0
 15 20  1  0
 16 15  2  0
 17 18  1  0
 19 21  1  0
 19 20  1  0
 19 18  1  6
 21 22  1  0
 23 21  2  0
M  END
$$$$
