QVS.pdb
     RDKit          3D

 23 22  0  0  1  0  0  0  0  0999 V2000
    6.1684  -21.0269   25.0898 N   0  0  0  0  0  0  0  0  0  0  0  0
    5.5099  -20.8260   23.8460 C   0  0  0  0  0  0  0  0  0  0  0  0
    4.8896  -21.7762   23.3292 O   0  0  0  0  0  0  0  0  0  0  0  0
    5.5673  -19.5187   23.1832 C   0  0  0  0  0  0  0  0  0  0  0  0
    6.3797  -18.4927   23.9130 C   0  0  0  0  0  0  0  0  0  0  0  0
    6.2806  -17.1455   23.2882 C   0  0  2  0  0  0  0  0  0  0  0  0
    6.3909  -17.0872   21.8647 N   0  0  0  0  0  0  0  0  0  0  0  0
    7.1623  -16.1484   23.9918 C   0  0  0  0  0  0  0  0  0  0  0  0
    8.3353  -15.9338   23.5665 O   0  0  0  0  0  0  0  0  0  0  0  0
    7.9154  -12.5432   27.3430 C   0  0  0  0  0  0  0  0  0  0  0  0
    6.9995  -13.4773   26.6236 C   0  0  1  0  0  0  0  0  0  0  0  0
    6.2038  -12.6879   25.5942 C   0  0  0  0  0  0  0  0  0  0  0  0
    7.7301  -14.5674   25.8644 C   0  0  2  0  0  0  0  0  0  0  0  0
    6.7694  -15.4078   25.1305 N   0  0  0  0  0  0  0  0  0  0  0  0
    8.5559  -15.4160   26.7656 C   0  0  0  0  0  0  0  0  0  0  0  0
    8.0688  -16.0487   27.7304 O   0  0  0  0  0  0  0  0  0  0  0  0
   12.6553  -15.3814   26.4307 O   0  0  0  0  0  0  0  0  0  0  0  0
   12.1422  -16.6086   26.7893 C   0  0  0  0  0  0  0  0  0  0  0  0
   10.7846  -16.3743   27.4639 C   0  0  2  0  0  0  0  0  0  0  0  0
    9.9780  -15.5550   26.5712 N   0  0  0  0  0  0  0  0  0  0  0  0
   10.9630  -15.7684   28.7823 C   0  0  0  0  0  0  0  0  0  0  0  0
   11.6575  -16.4408   29.7627 O   0  0  0  0  0  0  0  0  0  0  0  0
   10.4930  -14.6428   29.0372 O   0  0  0  0  0  0  0  0  0  0  0  0
  2  1  1  0
  3  2  2  0
  4  2  1  0
  5  4  1  0
  6  5  1  0
  6  8  1  0
  6  7  1  6
  8  9  2  0
 11 10  1  6
 11 12  1  0
 13 11  1  0
 14  8  1  0
 13 14  1  1
 15 13  1  0
 15 20  1  0
 16 15  2  0
 17 18  1  0
 19 21  1  0
 19 20  1  0
 19 18  1  6
 21 22  1  0
 23 21  2  0
M  END
$$$$
