QVS.pdb
     RDKit          3D

 23 22  0  0  1  0  0  0  0  0999 V2000
    9.3952  -17.5455   19.2055 N   0  0  0  0  0  0  0  0  0  0  0  0
    8.5365  -17.7647   20.3171 C   0  0  0  0  0  0  0  0  0  0  0  0
    8.8599  -18.6106   21.1742 O   0  0  0  0  0  0  0  0  0  0  0  0
    7.2872  -17.0068   20.4453 C   0  0  0  0  0  0  0  0  0  0  0  0
    7.0459  -16.4428   21.8125 C   0  0  0  0  0  0  0  0  0  0  0  0
    7.1713  -14.9601   21.8416 C   0  0  2  0  0  0  0  0  0  0  0  0
    7.5765  -14.3251   20.6273 N   0  0  0  0  0  0  0  0  0  0  0  0
    7.9558  -14.4995   23.0412 C   0  0  0  0  0  0  0  0  0  0  0  0
    9.2188  -14.4351   22.9816 O   0  0  0  0  0  0  0  0  0  0  0  0
    7.3331  -11.4035   25.4562 C   0  0  0  0  0  0  0  0  0  0  0  0
    7.5356  -12.6612   26.2349 C   0  0  1  0  0  0  0  0  0  0  0  0
    6.1771  -13.1968   26.6633 C   0  0  0  0  0  0  0  0  0  0  0  0
    8.2029  -13.7617   25.4336 C   0  0  2  0  0  0  0  0  0  0  0  0
    7.3720  -14.1208   24.2722 N   0  0  0  0  0  0  0  0  0  0  0  0
    8.4641  -14.9718   26.2593 C   0  0  0  0  0  0  0  0  0  0  0  0
    7.5570  -15.7654   26.5994 O   0  0  0  0  0  0  0  0  0  0  0  0
   12.1351  -16.5660   26.4888 O   0  0  0  0  0  0  0  0  0  0  0  0
   11.0595  -17.3510   26.8418 C   0  0  0  0  0  0  0  0  0  0  0  0
   10.0379  -16.4584   27.5578 C   0  0  2  0  0  0  0  0  0  0  0  0
    9.7928  -15.2965   26.7159 N   0  0  0  0  0  0  0  0  0  0  0  0
   10.5139  -16.1002   28.8928 C   0  0  0  0  0  0  0  0  0  0  0  0
   10.7760  -17.0844   29.8193 O   0  0  0  0  0  0  0  0  0  0  0  0
   10.6886  -14.9080   29.2104 O   0  0  0  0  0  0  0  0  0  0  0  0
  2  1  1  0
  3  2  2  0
  4  2  1  0
  5  4  1  0
  6  5  1  0
  6  8  1  0
  6  7  1  6
  8  9  2  0
 11 10  1  6
 11 12  1  0
 13 11  1  0
 14  8  1  0
 13 14  1  6
 15 13  1  0
 15 20  1  0
 16 15  2  0
 17 18  1  0
 19 21  1  0
 19 20  1  0
 19 18  1  6
 21 22  1  0
 23 21  2  0
M  END
$$$$
