QVS.pdb
     RDKit          3D

 23 22  0  0  1  0  0  0  0  0999 V2000
    8.6554  -19.8160   21.0491 N   0  0  0  0  0  0  0  0  0  0  0  0
    7.3521  -19.2645   20.9146 C   0  0  0  0  0  0  0  0  0  0  0  0
    6.3746  -20.0344   20.8329 O   0  0  0  0  0  0  0  0  0  0  0  0
    7.1672  -17.8101   20.8681 C   0  0  0  0  0  0  0  0  0  0  0  0
    7.7088  -17.0815   22.0602 C   0  0  0  0  0  0  0  0  0  0  0  0
    7.4560  -15.6165   21.9893 C   0  0  2  0  0  0  0  0  0  0  0  0
    7.7078  -14.9807   20.7346 N   0  0  0  0  0  0  0  0  0  0  0  0
    8.0794  -14.8953   23.1545 C   0  0  0  0  0  0  0  0  0  0  0  0
    9.2954  -14.5466   23.1024 O   0  0  0  0  0  0  0  0  0  0  0  0
    7.7032  -12.4731   27.4951 C   0  0  0  0  0  0  0  0  0  0  0  0
    7.0980  -13.0838   26.2745 C   0  0  1  0  0  0  0  0  0  0  0  0
    6.6188  -11.9700   25.3550 C   0  0  0  0  0  0  0  0  0  0  0  0
    8.0778  -13.9174   25.4723 C   0  0  2  0  0  0  0  0  0  0  0  0
    7.3893  -14.5661   24.3439 N   0  0  0  0  0  0  0  0  0  0  0  0
    8.7504  -14.9465   26.3107 C   0  0  0  0  0  0  0  0  0  0  0  0
    8.1340  -15.9105   26.8197 O   0  0  0  0  0  0  0  0  0  0  0  0
   12.9733  -16.8562   27.7148 O   0  0  0  0  0  0  0  0  0  0  0  0
   12.3393  -15.8390   27.0357 C   0  0  0  0  0  0  0  0  0  0  0  0
   10.8364  -15.9425   27.3252 C   0  0  2  0  0  0  0  0  0  0  0  0
   10.1651  -14.8854   26.5833 N   0  0  0  0  0  0  0  0  0  0  0  0
   10.5837  -15.8735   28.7634 C   0  0  0  0  0  0  0  0  0  0  0  0
   10.6610  -17.0124   29.5332 O   0  0  0  0  0  0  0  0  0  0  0  0
   10.2966  -14.7914   29.3106 O   0  0  0  0  0  0  0  0  0  0  0  0
  2  1  1  0
  3  2  2  0
  4  2  1  0
  5  4  1  0
  6  5  1  0
  6  8  1  0
  6  7  1  6
  8  9  2  0
 11 10  1  1
 11 12  1  0
 13 11  1  0
 14  8  1  0
 13 14  1  6
 15 13  1  0
 15 20  1  0
 16 15  2  0
 17 18  1  0
 19 21  1  0
 19 20  1  0
 19 18  1  1
 21 22  1  0
 23 21  2  0
M  END
$$$$
