QVS.pdb
     RDKit          3D

 23 22  0  0  1  0  0  0  0  0999 V2000
    5.7480  -18.4910   23.5490 N   0  0  0  0  0  0  0  0  0  0  0  0
    5.2144  -18.1632   22.2727 C   0  0  0  0  0  0  0  0  0  0  0  0
    4.0900  -18.5996   21.9565 O   0  0  0  0  0  0  0  0  0  0  0  0
    5.9829  -17.3274   21.3440 C   0  0  0  0  0  0  0  0  0  0  0  0
    7.2409  -16.7568   21.9248 C   0  0  0  0  0  0  0  0  0  0  0  0
    7.2458  -15.2686   21.9086 C   0  0  2  0  0  0  0  0  0  0  0  0
    7.6983  -14.6402   20.7076 N   0  0  0  0  0  0  0  0  0  0  0  0
    7.8897  -14.7087   23.1489 C   0  0  0  0  0  0  0  0  0  0  0  0
    9.1471  -14.5693   23.1983 O   0  0  0  0  0  0  0  0  0  0  0  0
    7.5577  -12.6308   27.6853 C   0  0  0  0  0  0  0  0  0  0  0  0
    6.9352  -13.0658   26.3998 C   0  0  1  0  0  0  0  0  0  0  0  0
    6.5386  -11.8306   25.6043 C   0  0  0  0  0  0  0  0  0  0  0  0
    7.8748  -13.8658   25.5192 C   0  0  2  0  0  0  0  0  0  0  0  0
    7.1752  -14.3133   24.3033 N   0  0  0  0  0  0  0  0  0  0  0  0
    8.4434  -15.0405   26.2342 C   0  0  0  0  0  0  0  0  0  0  0  0
    7.7388  -16.0007   26.6215 O   0  0  0  0  0  0  0  0  0  0  0  0
   12.4151  -17.5672   27.2716 O   0  0  0  0  0  0  0  0  0  0  0  0
   11.8505  -16.4918   26.6214 C   0  0  0  0  0  0  0  0  0  0  0  0
   10.4187  -16.3218   27.1449 C   0  0  2  0  0  0  0  0  0  0  0  0
    9.8535  -15.1342   26.5213 N   0  0  0  0  0  0  0  0  0  0  0  0
   10.4095  -16.2536   28.6051 C   0  0  0  0  0  0  0  0  0  0  0  0
   10.4806  -17.4090   29.3506 O   0  0  0  0  0  0  0  0  0  0  0  0
   10.3378  -15.1573   29.1932 O   0  0  0  0  0  0  0  0  0  0  0  0
  2  1  1  0
  3  2  2  0
  4  2  1  0
  5  4  1  0
  6  5  1  0
  6  8  1  0
  6  7  1  6
  8  9  2  0
 11 10  1  1
 11 12  1  0
 13 11  1  0
 14  8  1  0
 13 14  1  6
 15 13  1  0
 15 20  1  0
 16 15  2  0
 17 18  1  0
 19 21  1  0
 19 20  1  0
 19 18  1  6
 21 22  1  0
 23 21  2  0
M  END
$$$$
