QVS.pdb
     RDKit          3D

 23 22  0  0  1  0  0  0  0  0999 V2000
    7.2326  -13.2978   18.6219 N   0  0  0  0  0  0  0  0  0  0  0  0
    8.2657  -14.2475   18.3947 C   0  0  0  0  0  0  0  0  0  0  0  0
    9.1542  -13.9871   17.5594 O   0  0  0  0  0  0  0  0  0  0  0  0
    8.2777  -15.5157   19.1317 C   0  0  0  0  0  0  0  0  0  0  0  0
    9.0177  -15.4649   20.4337 C   0  0  0  0  0  0  0  0  0  0  0  0
    8.2430  -16.0770   21.5475 C   0  0  2  0  0  0  0  0  0  0  0  0
    6.8246  -16.1398   21.3855 N   0  0  0  0  0  0  0  0  0  0  0  0
    8.6627  -15.5165   22.8803 C   0  0  0  0  0  0  0  0  0  0  0  0
    9.8818  -15.2530   23.0976 O   0  0  0  0  0  0  0  0  0  0  0  0
    7.7988  -13.0786   27.0540 C   0  0  0  0  0  0  0  0  0  0  0  0
    7.2931  -13.7417   25.8156 C   0  0  1  0  0  0  0  0  0  0  0  0
    7.0938  -12.6843   24.7396 C   0  0  0  0  0  0  0  0  0  0  0  0
    8.2574  -14.7637   25.2462 C   0  0  2  0  0  0  0  0  0  0  0  0
    7.7709  -15.2529   23.9455 N   0  0  0  0  0  0  0  0  0  0  0  0
    8.4627  -15.9113   26.1711 C   0  0  0  0  0  0  0  0  0  0  0  0
    7.5315  -16.6732   26.5183 O   0  0  0  0  0  0  0  0  0  0  0  0
   11.8931  -17.8487   26.3457 O   0  0  0  0  0  0  0  0  0  0  0  0
   10.7321  -18.4199   26.8189 C   0  0  0  0  0  0  0  0  0  0  0  0
    9.9643  -17.3486   27.6037 C   0  0  2  0  0  0  0  0  0  0  0  0
    9.7620  -16.2084   26.7218 N   0  0  0  0  0  0  0  0  0  0  0  0
   10.6796  -16.9970   28.8291 C   0  0  0  0  0  0  0  0  0  0  0  0
   10.9110  -17.9535   29.7920 O   0  0  0  0  0  0  0  0  0  0  0  0
   11.0879  -15.8351   29.0197 O   0  0  0  0  0  0  0  0  0  0  0  0
  2  1  1  0
  3  2  2  0
  4  2  1  0
  5  4  1  0
  6  5  1  0
  6  8  1  0
  6  7  1  6
  8  9  2  0
 11 10  1  1
 11 12  1  0
 13 11  1  0
 14  8  1  0
 13 14  1  6
 15 13  1  0
 15 20  1  0
 16 15  2  0
 17 18  1  0
 19 21  1  0
 19 20  1  0
 19 18  1  6
 21 22  1  0
 23 21  2  0
M  END
$$$$
