QVS.pdb
     RDKit          3D

 23 22  0  0  1  0  0  0  0  0999 V2000
    7.4011  -12.4446   19.8477 N   0  0  0  0  0  0  0  0  0  0  0  0
    6.9138  -13.5698   19.1283 C   0  0  0  0  0  0  0  0  0  0  0  0
    6.6656  -13.4495   17.9123 O   0  0  0  0  0  0  0  0  0  0  0  0
    6.7035  -14.8494   19.8137 C   0  0  0  0  0  0  0  0  0  0  0  0
    6.9946  -14.8168   21.2832 C   0  0  0  0  0  0  0  0  0  0  0  0
    8.4504  -14.6959   21.5678 C   0  0  2  0  0  0  0  0  0  0  0  0
    9.3309  -15.4777   20.7580 N   0  0  0  0  0  0  0  0  0  0  0  0
    8.7335  -14.8207   23.0412 C   0  0  0  0  0  0  0  0  0  0  0  0
    9.7333  -15.4893   23.4365 O   0  0  0  0  0  0  0  0  0  0  0  0
    7.7345  -11.9351   25.9053 C   0  0  0  0  0  0  0  0  0  0  0  0
    7.5100  -13.3567   26.3026 C   0  0  1  0  0  0  0  0  0  0  0  0
    6.0423  -13.6988   26.0921 C   0  0  0  0  0  0  0  0  0  0  0  0
    8.3088  -14.3440   25.4745 C   0  0  2  0  0  0  0  0  0  0  0  0
    7.9421  -14.2297   24.0531 N   0  0  0  0  0  0  0  0  0  0  0  0
    8.1108  -15.7453   25.9346 C   0  0  0  0  0  0  0  0  0  0  0  0
    7.0180  -16.3457   25.8183 O   0  0  0  0  0  0  0  0  0  0  0  0
    9.3551  -18.5991   24.8026 O   0  0  0  0  0  0  0  0  0  0  0  0
    9.7901  -18.7884   26.0960 C   0  0  0  0  0  0  0  0  0  0  0  0
    8.9797  -17.8585   27.0079 C   0  0  2  0  0  0  0  0  0  0  0  0
    9.1816  -16.4931   26.5458 N   0  0  0  0  0  0  0  0  0  0  0  0
    9.3638  -18.0460   28.4059 C   0  0  0  0  0  0  0  0  0  0  0  0
    9.1627  -19.2619   29.0199 O   0  0  0  0  0  0  0  0  0  0  0  0
    9.8752  -17.1157   29.0584 O   0  0  0  0  0  0  0  0  0  0  0  0
  2  1  1  0
  3  2  2  0
  4  2  1  0
  5  4  1  0
  6  5  1  0
  6  8  1  0
  6  7  1  6
  8  9  2  0
 11 10  1  6
 11 12  1  0
 13 11  1  0
 14  8  1  0
 13 14  1  6
 15 13  1  0
 15 20  1  0
 16 15  2  0
 17 18  1  0
 19 21  1  0
 19 20  1  0
 19 18  1  6
 21 22  1  0
 23 21  2  0
M  END
$$$$
