YTF.pdb
     RDKit          3D

 31 32  0  0  1  0  0  0  0  0999 V2000
    8.1014  -12.0712   16.5431 O   0  0  0  0  0  0  0  0  0  0  0  0
    7.9433  -12.7773   17.7199 C   0  0  0  0  0  0  0  0  0  0  0  0
    6.9627  -13.7349   17.8804 C   0  0  0  0  0  0  0  0  0  0  0  0
    6.7841  -14.4496   19.0366 C   0  0  0  0  0  0  0  0  0  0  0  0
    7.6225  -14.2025   20.0916 C   0  0  0  0  0  0  0  0  0  0  0  0
    7.4643  -14.9543   21.3636 C   0  0  0  0  0  0  0  0  0  0  0  0
    8.3525  -16.1709   21.2879 C   0  0  2  0  0  0  0  0  0  0  0  0
    7.7972  -17.0870   20.3137 N   0  0  0  0  0  0  0  0  0  0  0  0
    8.3099  -16.8340   22.6398 C   0  0  0  0  0  0  0  0  0  0  0  0
    7.6536  -17.8915   22.8218 O   0  0  0  0  0  0  0  0  0  0  0  0
    8.6148  -13.2552   19.9747 C   0  0  0  0  0  0  0  0  0  0  0  0
    8.7828  -12.5376   18.7924 C   0  0  0  0  0  0  0  0  0  0  0  0
    9.3611  -19.2089   23.7081 C   0  0  0  0  0  0  0  0  0  0  0  0
   10.1053  -18.2742   24.6591 C   0  0  1  0  0  0  0  0  0  0  0  0
   11.2948  -17.9353   24.0695 O   0  0  0  0  0  0  0  0  0  0  0  0
    9.2184  -17.0620   24.9770 C   0  0  2  0  0  0  0  0  0  0  0  0
    9.0015  -16.3015   23.7598 N   0  0  0  0  0  0  0  0  0  0  0  0
    9.9527  -16.2619   25.9910 C   0  0  0  0  0  0  0  0  0  0  0  0
   10.9287  -15.5595   25.5919 O   0  0  0  0  0  0  0  0  0  0  0  0
    9.6493  -16.2223   27.3604 N   0  0  0  0  0  0  0  0  0  0  0  0
   10.4137  -15.4325   28.3310 C   0  0  1  0  0  0  0  0  0  0  0  0
    9.3625  -14.5964   29.0747 C   0  0  0  0  0  0  0  0  0  0  0  0
    8.4675  -13.9087   28.1258 C   0  0  0  0  0  0  0  0  0  0  0  0
    7.2656  -14.4415   27.7410 C   0  0  0  0  0  0  0  0  0  0  0  0
    6.4625  -13.7629   26.8514 C   0  0  0  0  0  0  0  0  0  0  0  0
    6.8139  -12.5376   26.3100 C   0  0  0  0  0  0  0  0  0  0  0  0
    8.0336  -12.0216   26.7155 C   0  0  0  0  0  0  0  0  0  0  0  0
    8.8525  -12.6848   27.6051 C   0  0  0  0  0  0  0  0  0  0  0  0
   11.1663  -16.2862   29.2492 C   0  0  0  0  0  0  0  0  0  0  0  0
   11.9480  -15.7882   30.0951 O   0  0  0  0  0  0  0  0  0  0  0  0
   11.0463  -17.6669   29.2209 O   0  0  0  0  0  0  0  0  0  0  0  0
  2  1  1  0
  3  2  2  0
  4  3  1  0
  5  4  2  0
  5 11  1  0
  6  5  1  0
  7  6  1  0
  7  8  1  6
  9  7  1  0
  9 17  1  0
 10  9  2  0
 11 12  2  0
 12  2  1  0
 14 13  1  6
 14 16  1  0
 15 14  1  0
 16 17  1  6
 16 18  1  0
 18 20  1  0
 19 18  2  0
 20 21  1  0
 21 29  1  0
 21 22  1  1
 23 22  1  0
 24 23  2  0
 25 24  1  0
 26 25  2  0
 26 27  1  0
 27 28  2  0
 28 23  1  0
 29 30  2  0
 29 31  1  0
M  END
$$$$
