YTF.pdb
     RDKit          3D

 31 32  0  0  1  0  0  0  0  0999 V2000
    4.9947  -10.6208   26.7528 O   0  0  0  0  0  0  0  0  0  0  0  0
    5.6814  -11.7736   26.4246 C   0  0  0  0  0  0  0  0  0  0  0  0
    5.9403  -12.1319   25.1174 C   0  0  0  0  0  0  0  0  0  0  0  0
    6.6190  -13.2695   24.7642 C   0  0  0  0  0  0  0  0  0  0  0  0
    7.0658  -14.0975   25.7600 C   0  0  0  0  0  0  0  0  0  0  0  0
    7.8058  -15.3410   25.4219 C   0  0  0  0  0  0  0  0  0  0  0  0
    7.0269  -16.0576   24.3473 C   0  0  2  0  0  0  0  0  0  0  0  0
    6.1694  -17.0397   24.9772 N   0  0  0  0  0  0  0  0  0  0  0  0
    8.0270  -16.7844   23.4867 C   0  0  0  0  0  0  0  0  0  0  0  0
    8.2282  -18.0179   23.6289 O   0  0  0  0  0  0  0  0  0  0  0  0
    6.8293  -13.7782   27.0783 C   0  0  0  0  0  0  0  0  0  0  0  0
    6.1378  -12.6181   27.4201 C   0  0  0  0  0  0  0  0  0  0  0  0
    8.4616  -16.2113   19.5982 C   0  0  0  0  0  0  0  0  0  0  0  0
    9.8211  -16.1085   20.2860 C   0  0  1  0  0  0  0  0  0  0  0  0
   10.1501  -14.7810   20.3696 O   0  0  0  0  0  0  0  0  0  0  0  0
    9.7525  -16.8039   21.6530 C   0  0  2  0  0  0  0  0  0  0  0  0
    8.7814  -16.1176   22.4854 N   0  0  0  0  0  0  0  0  0  0  0  0
   11.1177  -16.7200   22.2332 C   0  0  0  0  0  0  0  0  0  0  0  0
   11.9374  -15.9180   21.6946 O   0  0  0  0  0  0  0  0  0  0  0  0
   11.5723  -17.4609   23.3346 N   0  0  0  0  0  0  0  0  0  0  0  0
   11.7893  -16.8774   24.6622 C   0  0  1  0  0  0  0  0  0  0  0  0
   10.4326  -16.2760   25.0555 C   0  0  0  0  0  0  0  0  0  0  0  0
   10.4840  -15.7003   26.4120 C   0  0  0  0  0  0  0  0  0  0  0  0
   10.5353  -14.3485   26.6283 C   0  0  0  0  0  0  0  0  0  0  0  0
   10.5826  -13.8561   27.9137 C   0  0  0  0  0  0  0  0  0  0  0  0
   10.5811  -14.6760   29.0298 C   0  0  0  0  0  0  0  0  0  0  0  0
   10.5286  -16.0379   28.7831 C   0  0  0  0  0  0  0  0  0  0  0  0
   10.4807  -16.5514   27.5041 C   0  0  0  0  0  0  0  0  0  0  0  0
   12.2298  -17.8825   25.6287 C   0  0  0  0  0  0  0  0  0  0  0  0
   13.2857  -17.7215   26.2875 O   0  0  0  0  0  0  0  0  0  0  0  0
   11.5042  -19.0423   25.8527 O   0  0  0  0  0  0  0  0  0  0  0  0
  2  1  1  0
  3  2  2  0
  4  3  1  0
  5  4  2  0
  5 11  1  0
  6  5  1  0
  7  6  1  0
  7  8  1  1
  9  7  1  0
  9 17  1  0
 10  9  2  0
 11 12  2  0
 12  2  1  0
 14 13  1  1
 14 16  1  0
 15 14  1  0
 16 17  1  1
 16 18  1  0
 18 20  1  0
 19 18  2  0
 20 21  1  0
 21 29  1  0
 21 22  1  1
 23 22  1  0
 24 23  2  0
 25 24  1  0
 26 25  2  0
 26 27  1  0
 27 28  2  0
 28 23  1  0
 29 30  2  0
 29 31  1  0
M  END
$$$$
