YTF.pdb
     RDKit          3D

 31 32  0  0  1  0  0  0  0  0999 V2000
    7.4804  -12.0701   16.4233 O   0  0  0  0  0  0  0  0  0  0  0  0
    7.4560  -12.8259   17.5793 C   0  0  0  0  0  0  0  0  0  0  0  0
    6.6914  -13.9685   17.6985 C   0  0  0  0  0  0  0  0  0  0  0  0
    6.6489  -14.7363   18.8335 C   0  0  0  0  0  0  0  0  0  0  0  0
    7.4050  -14.3515   19.9093 C   0  0  0  0  0  0  0  0  0  0  0  0
    7.3887  -15.1547   21.1594 C   0  0  0  0  0  0  0  0  0  0  0  0
    8.5341  -16.1334   21.0879 C   0  0  2  0  0  0  0  0  0  0  0  0
    8.2395  -17.1133   20.0634 N   0  0  0  0  0  0  0  0  0  0  0  0
    8.5946  -16.8408   22.4165 C   0  0  0  0  0  0  0  0  0  0  0  0
    8.0082  -17.9396   22.5923 O   0  0  0  0  0  0  0  0  0  0  0  0
    8.1827  -13.2179   19.8336 C   0  0  0  0  0  0  0  0  0  0  0  0
    8.2145  -12.4487   18.6725 C   0  0  0  0  0  0  0  0  0  0  0  0
    9.7972  -19.1768   23.4179 C   0  0  0  0  0  0  0  0  0  0  0  0
   10.4920  -18.2396   24.4031 C   0  0  1  0  0  0  0  0  0  0  0  0
   11.6793  -17.8470   23.8431 O   0  0  0  0  0  0  0  0  0  0  0  0
    9.5586  -17.0658   24.7317 C   0  0  2  0  0  0  0  0  0  0  0  0
    9.3091  -16.3055   23.5206 N   0  0  0  0  0  0  0  0  0  0  0  0
   10.2627  -16.2449   25.7504 C   0  0  0  0  0  0  0  0  0  0  0  0
   10.4968  -15.0320   25.4690 O   0  0  0  0  0  0  0  0  0  0  0  0
   10.6899  -16.7082   27.0040 N   0  0  0  0  0  0  0  0  0  0  0  0
   10.5459  -15.9326   28.2400 C   0  0  1  0  0  0  0  0  0  0  0  0
    9.0359  -15.6948   28.3830 C   0  0  0  0  0  0  0  0  0  0  0  0
    8.6154  -14.5025   27.6241 C   0  0  0  0  0  0  0  0  0  0  0  0
    9.2116  -13.2813   27.7966 C   0  0  0  0  0  0  0  0  0  0  0  0
    8.7848  -12.1950   27.0655 C   0  0  0  0  0  0  0  0  0  0  0  0
    7.7575  -12.2725   26.1400 C   0  0  0  0  0  0  0  0  0  0  0  0
    7.1721  -13.5181   25.9851 C   0  0  0  0  0  0  0  0  0  0  0  0
    7.5844  -14.6184   26.7072 C   0  0  0  0  0  0  0  0  0  0  0  0
   11.0866  -16.6497   29.3940 C   0  0  0  0  0  0  0  0  0  0  0  0
   11.3269  -16.0490   30.4692 O   0  0  0  0  0  0  0  0  0  0  0  0
   11.3523  -18.0094   29.3453 O   0  0  0  0  0  0  0  0  0  0  0  0
  2  1  1  0
  3  2  2  0
  4  3  1  0
  5  4  2  0
  5 11  1  0
  6  5  1  0
  7  6  1  0
  7  8  1  6
  9  7  1  0
  9 17  1  0
 10  9  2  0
 11 12  2  0
 12  2  1  0
 14 13  1  6
 14 16  1  0
 15 14  1  0
 16 17  1  6
 16 18  1  0
 18 20  1  0
 19 18  2  0
 20 21  1  0
 21 29  1  0
 21 22  1  1
 23 22  1  0
 24 23  2  0
 25 24  1  0
 26 25  2  0
 26 27  1  0
 27 28  2  0
 28 23  1  0
 29 30  2  0
 29 31  1  0
M  END
$$$$
