YTF.pdb
     RDKit          3D

 31 32  0  0  1  0  0  0  0  0999 V2000
    9.2452  -24.9380   19.9886 O   0  0  0  0  0  0  0  0  0  0  0  0
    9.4908  -23.6086   20.2727 C   0  0  0  0  0  0  0  0  0  0  0  0
   10.4417  -22.8724   19.5960 C   0  0  0  0  0  0  0  0  0  0  0  0
   10.7053  -21.5528   19.8577 C   0  0  0  0  0  0  0  0  0  0  0  0
    9.9879  -20.9280   20.8436 C   0  0  0  0  0  0  0  0  0  0  0  0
   10.2412  -19.4984   21.1602 C   0  0  0  0  0  0  0  0  0  0  0  0
    9.3408  -18.6694   20.2788 C   0  0  2  0  0  0  0  0  0  0  0  0
    9.7496  -18.8513   18.9017 N   0  0  0  0  0  0  0  0  0  0  0  0
    9.5629  -17.2270   20.6521 C   0  0  0  0  0  0  0  0  0  0  0  0
   10.5122  -16.5683   20.1552 O   0  0  0  0  0  0  0  0  0  0  0  0
    9.0292  -21.6251   21.5440 C   0  0  0  0  0  0  0  0  0  0  0  0
    8.7737  -22.9660   21.2654 C   0  0  0  0  0  0  0  0  0  0  0  0
    7.3612  -14.2077   20.0458 C   0  0  0  0  0  0  0  0  0  0  0  0
    7.4887  -14.4527   21.5477 C   0  0  1  0  0  0  0  0  0  0  0  0
    6.4106  -15.1997   21.9442 O   0  0  0  0  0  0  0  0  0  0  0  0
    8.8358  -15.1289   21.8393 C   0  0  2  0  0  0  0  0  0  0  0  0
    8.7195  -16.5511   21.5730 N   0  0  0  0  0  0  0  0  0  0  0  0
    9.1319  -14.8693   23.2719 C   0  0  0  0  0  0  0  0  0  0  0  0
    9.0919  -13.6680   23.6724 O   0  0  0  0  0  0  0  0  0  0  0  0
    9.4530  -15.8528   24.2197 N   0  0  0  0  0  0  0  0  0  0  0  0
    9.1464  -15.7242   25.6478 C   0  0  1  0  0  0  0  0  0  0  0  0
    7.6276  -15.5085   25.7075 C   0  0  0  0  0  0  0  0  0  0  0  0
    7.3056  -14.1575   26.2029 C   0  0  0  0  0  0  0  0  0  0  0  0
    6.0144  -13.7268   26.3576 C   0  0  0  0  0  0  0  0  0  0  0  0
    5.7616  -12.4556   26.8234 C   0  0  0  0  0  0  0  0  0  0  0  0
    6.7696  -11.5649   27.1528 C   0  0  0  0  0  0  0  0  0  0  0  0
    8.0653  -12.0254   26.9871 C   0  0  0  0  0  0  0  0  0  0  0  0
    8.3400  -13.2943   26.5222 C   0  0  0  0  0  0  0  0  0  0  0  0
    9.5480  -16.9147   26.3960 C   0  0  0  0  0  0  0  0  0  0  0  0
    9.5647  -18.0432   25.8476 O   0  0  0  0  0  0  0  0  0  0  0  0
    9.9225  -16.8432   27.7288 O   0  0  0  0  0  0  0  0  0  0  0  0
  2  1  1  0
  3  2  2  0
  4  3  1  0
  5  4  2  0
  5 11  1  0
  6  5  1  0
  7  6  1  0
  7  8  1  6
  9  7  1  0
  9 17  1  0
 10  9  2  0
 11 12  2  0
 12  2  1  0
 14 13  1  6
 14 16  1  0
 15 14  1  0
 16 17  1  1
 16 18  1  0
 18 20  1  0
 19 18  2  0
 20 21  1  0
 21 29  1  0
 21 22  1  6
 23 22  1  0
 24 23  2  0
 25 24  1  0
 26 25  2  0
 26 27  1  0
 27 28  2  0
 28 23  1  0
 29 30  2  0
 29 31  1  0
M  END
$$$$
