YTF.pdb
     RDKit          3D

 31 32  0  0  1  0  0  0  0  0999 V2000
    7.8731  -12.0353   16.3979 O   0  0  0  0  0  0  0  0  0  0  0  0
    7.8208  -12.7383   17.5859 C   0  0  0  0  0  0  0  0  0  0  0  0
    6.8798  -13.7194   17.8225 C   0  0  0  0  0  0  0  0  0  0  0  0
    6.8057  -14.4316   18.9916 C   0  0  0  0  0  0  0  0  0  0  0  0
    7.7132  -14.1571   19.9805 C   0  0  0  0  0  0  0  0  0  0  0  0
    7.6691  -14.9051   21.2637 C   0  0  0  0  0  0  0  0  0  0  0  0
    8.4769  -16.1662   21.0847 C   0  0  2  0  0  0  0  0  0  0  0  0
    7.7624  -17.0473   20.1849 N   0  0  0  0  0  0  0  0  0  0  0  0
    8.5605  -16.8326   22.4330 C   0  0  0  0  0  0  0  0  0  0  0  0
    7.5316  -17.2883   22.9950 O   0  0  0  0  0  0  0  0  0  0  0  0
    8.6695  -13.1857   19.7866 C   0  0  0  0  0  0  0  0  0  0  0  0
    8.7310  -12.4710   18.5923 C   0  0  0  0  0  0  0  0  0  0  0  0
   10.1676  -19.8792   23.5203 C   0  0  0  0  0  0  0  0  0  0  0  0
   10.8139  -18.7938   24.3782 C   0  0  1  0  0  0  0  0  0  0  0  0
   12.0409  -18.5079   23.8395 O   0  0  0  0  0  0  0  0  0  0  0  0
    9.8813  -17.5760   24.4438 C   0  0  2  0  0  0  0  0  0  0  0  0
    9.7921  -16.9760   23.1251 N   0  0  0  0  0  0  0  0  0  0  0  0
   10.4869  -16.6387   25.4247 C   0  0  0  0  0  0  0  0  0  0  0  0
   11.4214  -15.8855   25.0190 O   0  0  0  0  0  0  0  0  0  0  0  0
   10.1040  -16.5209   26.7694 N   0  0  0  0  0  0  0  0  0  0  0  0
   10.8916  -15.7927   27.7692 C   0  0  1  0  0  0  0  0  0  0  0  0
   10.8039  -14.3200   27.3444 C   0  0  0  0  0  0  0  0  0  0  0  0
    9.4004  -13.9061   27.1622 C   0  0  0  0  0  0  0  0  0  0  0  0
    8.5338  -14.6016   26.3611 C   0  0  0  0  0  0  0  0  0  0  0  0
    7.2312  -14.1770   26.2206 C   0  0  0  0  0  0  0  0  0  0  0  0
    6.7366  -13.0542   26.8630 C   0  0  0  0  0  0  0  0  0  0  0  0
    7.6332  -12.3696   27.6665 C   0  0  0  0  0  0  0  0  0  0  0  0
    8.9414  -12.7779   27.8207 C   0  0  0  0  0  0  0  0  0  0  0  0
   10.3678  -15.9926   29.1198 C   0  0  0  0  0  0  0  0  0  0  0  0
   10.8370  -15.3532   30.0923 O   0  0  0  0  0  0  0  0  0  0  0  0
    9.3414  -16.8885   29.3758 O   0  0  0  0  0  0  0  0  0  0  0  0
  2  1  1  0
  3  2  2  0
  4  3  1  0
  5  4  2  0
  5 11  1  0
  6  5  1  0
  7  6  1  0
  7  8  1  6
  9  7  1  0
  9 17  1  0
 10  9  2  0
 11 12  2  0
 12  2  1  0
 14 13  1  6
 14 16  1  0
 15 14  1  0
 16 17  1  6
 16 18  1  0
 18 20  1  0
 19 18  2  0
 20 21  1  0
 21 29  1  0
 21 22  1  6
 23 22  1  0
 24 23  2  0
 25 24  1  0
 26 25  2  0
 26 27  1  0
 27 28  2  0
 28 23  1  0
 29 30  2  0
 29 31  1  0
M  END
$$$$
