YTF.pdb
     RDKit          3D

 31 32  0  0  1  0  0  0  0  0999 V2000
   17.4208  -14.1496   17.9746 O   0  0  0  0  0  0  0  0  0  0  0  0
   16.0730  -14.1339   18.2769 C   0  0  0  0  0  0  0  0  0  0  0  0
   15.0973  -14.1315   17.3011 C   0  0  0  0  0  0  0  0  0  0  0  0
   13.7538  -14.1161   17.5734 C   0  0  0  0  0  0  0  0  0  0  0  0
   13.3547  -14.1022   18.8839 C   0  0  0  0  0  0  0  0  0  0  0  0
   11.9082  -14.0852   19.2242 C   0  0  0  0  0  0  0  0  0  0  0  0
   11.5080  -15.4939   19.5853 C   0  0  2  0  0  0  0  0  0  0  0  0
   11.6481  -16.3282   18.4102 N   0  0  0  0  0  0  0  0  0  0  0  0
   10.0514  -15.4552   19.9677 C   0  0  0  0  0  0  0  0  0  0  0  0
    9.3072  -14.5147   19.5885 O   0  0  0  0  0  0  0  0  0  0  0  0
   14.2949  -14.1040   19.8897 C   0  0  0  0  0  0  0  0  0  0  0  0
   15.6566  -14.1198   19.5956 C   0  0  0  0  0  0  0  0  0  0  0  0
    7.4362  -18.4098   19.5891 C   0  0  0  0  0  0  0  0  0  0  0  0
    7.5415  -17.9427   21.0391 C   0  0  1  0  0  0  0  0  0  0  0  0
    8.3684  -18.8119   21.7012 O   0  0  0  0  0  0  0  0  0  0  0  0
    8.0380  -16.4903   21.0699 C   0  0  2  0  0  0  0  0  0  0  0  0
    9.4572  -16.4682   20.7658 N   0  0  0  0  0  0  0  0  0  0  0  0
    7.7710  -15.9867   22.4419 C   0  0  0  0  0  0  0  0  0  0  0  0
    6.5614  -15.8476   22.7924 O   0  0  0  0  0  0  0  0  0  0  0  0
    8.7559  -15.6522   23.3837 N   0  0  0  0  0  0  0  0  0  0  0  0
    8.4474  -15.1439   24.7241 C   0  0  1  0  0  0  0  0  0  0  0  0
    7.7029  -13.8230   24.4836 C   0  0  0  0  0  0  0  0  0  0  0  0
    7.3841  -13.1571   25.7601 C   0  0  0  0  0  0  0  0  0  0  0  0
    8.3223  -12.4551   26.4698 C   0  0  0  0  0  0  0  0  0  0  0  0
    7.9786  -11.8496   27.6581 C   0  0  0  0  0  0  0  0  0  0  0  0
    6.7011  -11.9138   28.1889 C   0  0  0  0  0  0  0  0  0  0  0  0
    5.7722  -12.6295   27.4517 C   0  0  0  0  0  0  0  0  0  0  0  0
    6.0957  -13.2431   26.2597 C   0  0  0  0  0  0  0  0  0  0  0  0
    7.6305  -16.0882   25.4852 C   0  0  0  0  0  0  0  0  0  0  0  0
    6.5630  -16.5443   25.0085 O   0  0  0  0  0  0  0  0  0  0  0  0
    8.0005  -16.5124   26.7520 O   0  0  0  0  0  0  0  0  0  0  0  0
  2  1  1  0
  3  2  2  0
  4  3  1  0
  5  4  2  0
  5 11  1  0
  6  5  1  0
  7  6  1  0
  7  8  1  6
  9  7  1  0
  9 17  1  0
 10  9  2  0
 11 12  2  0
 12  2  1  0
 14 13  1  6
 14 16  1  0
 15 14  1  0
 16 17  1  1
 16 18  1  0
 18 20  1  0
 19 18  2  0
 20 21  1  0
 21 29  1  0
 21 22  1  6
 23 22  1  0
 24 23  2  0
 25 24  1  0
 26 25  2  0
 26 27  1  0
 27 28  2  0
 28 23  1  0
 29 30  2  0
 29 31  1  0
M  END
$$$$
