YTF.pdb
     RDKit          3D

 31 32  0  0  1  0  0  0  0  0999 V2000
    8.2613  -11.8504   16.8511 O   0  0  0  0  0  0  0  0  0  0  0  0
    7.9764  -12.6620   17.9321 C   0  0  0  0  0  0  0  0  0  0  0  0
    7.0670  -13.6973   17.8587 C   0  0  0  0  0  0  0  0  0  0  0  0
    6.7659  -14.5171   18.9154 C   0  0  0  0  0  0  0  0  0  0  0  0
    7.4001  -14.2999   20.1102 C   0  0  0  0  0  0  0  0  0  0  0  0
    7.1036  -15.1649   21.2815 C   0  0  0  0  0  0  0  0  0  0  0  0
    7.9712  -16.3937   21.1724 C   0  0  2  0  0  0  0  0  0  0  0  0
    7.3983  -17.2754   20.1769 N   0  0  0  0  0  0  0  0  0  0  0  0
    7.9209  -17.0903   22.5071 C   0  0  0  0  0  0  0  0  0  0  0  0
    7.1615  -18.0752   22.6952 O   0  0  0  0  0  0  0  0  0  0  0  0
    8.3149  -13.2777   20.2277 C   0  0  0  0  0  0  0  0  0  0  0  0
    8.6095  -12.4535   19.1438 C   0  0  0  0  0  0  0  0  0  0  0  0
    8.6268  -19.5971   23.6043 C   0  0  0  0  0  0  0  0  0  0  0  0
    9.5026  -18.7735   24.5460 C   0  0  1  0  0  0  0  0  0  0  0  0
   10.7338  -18.6351   23.9607 O   0  0  0  0  0  0  0  0  0  0  0  0
    8.8144  -17.4322   24.8362 C   0  0  2  0  0  0  0  0  0  0  0  0
    8.7201  -16.6716   23.6035 N   0  0  0  0  0  0  0  0  0  0  0  0
    9.6624  -16.7360   25.8379 C   0  0  0  0  0  0  0  0  0  0  0  0
   10.7337  -16.1972   25.4289 O   0  0  0  0  0  0  0  0  0  0  0  0
    9.3694  -16.6271   27.2058 N   0  0  0  0  0  0  0  0  0  0  0  0
   10.2254  -15.9116   28.1573 C   0  0  1  0  0  0  0  0  0  0  0  0
    9.3154  -14.8442   28.7814 C   0  0  0  0  0  0  0  0  0  0  0  0
    8.7709  -13.9449   27.7474 C   0  0  0  0  0  0  0  0  0  0  0  0
    7.5879  -14.2032   27.1067 C   0  0  0  0  0  0  0  0  0  0  0  0
    7.1185  -13.3344   26.1467 C   0  0  0  0  0  0  0  0  0  0  0  0
    7.7960  -12.1823   25.7842 C   0  0  0  0  0  0  0  0  0  0  0  0
    8.9888  -11.9450   26.4471 C   0  0  0  0  0  0  0  0  0  0  0  0
    9.4764  -12.8020   27.4112 C   0  0  0  0  0  0  0  0  0  0  0  0
   10.7722  -16.8098   29.1735 C   0  0  0  0  0  0  0  0  0  0  0  0
   10.3451  -17.9839   29.2905 O   0  0  0  0  0  0  0  0  0  0  0  0
   11.7750  -16.4023   30.0396 O   0  0  0  0  0  0  0  0  0  0  0  0
  2  1  1  0
  3  2  2  0
  4  3  1  0
  5  4  2  0
  5 11  1  0
  6  5  1  0
  7  6  1  0
  7  8  1  6
  9  7  1  0
  9 17  1  0
 10  9  2  0
 11 12  2  0
 12  2  1  0
 14 13  1  6
 14 16  1  0
 15 14  1  0
 16 17  1  6
 16 18  1  0
 18 20  1  0
 19 18  2  0
 20 21  1  0
 21 29  1  0
 21 22  1  1
 23 22  1  0
 24 23  2  0
 25 24  1  0
 26 25  2  0
 26 27  1  0
 27 28  2  0
 28 23  1  0
 29 30  2  0
 29 31  1  0
M  END
$$$$
