NGC.pdb
     RDKit          3D

 19 18  0  0  1  0  0  0  0  0999 V2000
    7.0759  -20.1923   19.9137 N   0  0  0  0  0  0  0  0  0  0  0  0
    6.3721  -19.1487   19.2848 C   0  0  0  0  0  0  0  0  0  0  0  0
    5.6967  -19.4796   18.2469 O   0  0  0  0  0  0  0  0  0  0  0  0
    6.4060  -17.7563   19.7858 C   0  0  0  0  0  0  0  0  0  0  0  0
    7.3644  -17.6193   20.9444 C   0  0  2  0  0  0  0  0  0  0  0  0
    6.9713  -18.4331   22.0599 N   0  0  0  0  0  0  0  0  0  0  0  0
    7.5327  -16.1897   21.2782 C   0  0  0  0  0  0  0  0  0  0  0  0
    8.3200  -15.4798   20.6481 O   0  0  0  0  0  0  0  0  0  0  0  0
    6.7913  -15.5716   22.3473 N   0  0  0  0  0  0  0  0  0  0  0  0
    6.9789  -14.1966   22.6977 C   0  0  0  0  0  0  0  0  0  0  0  0
    7.7938  -13.9200   23.8690 C   0  0  0  0  0  0  0  0  0  0  0  0
    9.0556  -13.8281   23.7461 O   0  0  0  0  0  0  0  0  0  0  0  0
    7.3216  -13.7319   25.2113 N   0  0  0  0  0  0  0  0  0  0  0  0
    8.2202  -13.3842   26.2884 C   0  0  1  0  0  0  0  0  0  0  0  0
    7.4773  -12.4980   27.2582 C   0  0  0  0  0  0  0  0  0  0  0  0
    6.3250  -11.3858   26.4168 S   0  0  0  0  0  0  0  0  0  0  0  0
    8.8624  -14.5246   26.9256 C   0  0  0  0  0  0  0  0  0  0  0  0
    8.4878  -15.6978   26.6096 O   0  0  0  0  0  0  0  0  0  0  0  0
    9.8554  -14.3978   27.8502 O   0  0  0  0  0  0  0  0  0  0  0  0
  1  2  1  0
  2  3  2  0
  4  2  1  0
  4  5  1  0
  5  6  1  1
  7  5  1  0
  7  8  2  0
  9  7  1  0
 10  9  1  0
 10 11  1  0
 11 13  1  0
 12 11  2  0
 13 14  1  0
 14 17  1  0
 14 15  1  1
 16 15  1  0
 17 18  2  0
 17 19  1  0
M  END
$$$$
