NGC.pdb
     RDKit          3D

 19 18  0  0  1  0  0  0  0  0999 V2000
    8.2611  -12.4254   18.9385 N   0  0  0  0  0  0  0  0  0  0  0  0
    8.2857  -13.8270   19.0603 C   0  0  0  0  0  0  0  0  0  0  0  0
    9.4148  -14.3862   18.8246 O   0  0  0  0  0  0  0  0  0  0  0  0
    7.0875  -14.6103   19.4366 C   0  0  0  0  0  0  0  0  0  0  0  0
    6.9276  -14.6710   20.9367 C   0  0  2  0  0  0  0  0  0  0  0  0
    6.8163  -13.3613   21.5140 N   0  0  0  0  0  0  0  0  0  0  0  0
    8.0144  -15.4881   21.5154 C   0  0  0  0  0  0  0  0  0  0  0  0
    8.2198  -16.6392   21.1235 O   0  0  0  0  0  0  0  0  0  0  0  0
    8.8708  -14.9782   22.5553 N   0  0  0  0  0  0  0  0  0  0  0  0
    9.9071  -15.7759   23.1368 C   0  0  0  0  0  0  0  0  0  0  0  0
   10.0808  -15.6833   24.5769 C   0  0  0  0  0  0  0  0  0  0  0  0
   11.1030  -16.2093   25.1191 O   0  0  0  0  0  0  0  0  0  0  0  0
    9.1926  -15.0409   25.5033 N   0  0  0  0  0  0  0  0  0  0  0  0
    9.5859  -14.7734   26.8680 C   0  0  1  0  0  0  0  0  0  0  0  0
    8.6311  -13.7575   27.4461 C   0  0  0  0  0  0  0  0  0  0  0  0
    8.4417  -12.3145   26.3717 S   0  0  0  0  0  0  0  0  0  0  0  0
    9.7315  -15.9629   27.6944 C   0  0  0  0  0  0  0  0  0  0  0  0
    9.2860  -17.0720   27.2608 O   0  0  0  0  0  0  0  0  0  0  0  0
   10.3287  -15.9487   28.9192 O   0  0  0  0  0  0  0  0  0  0  0  0
  1  2  1  0
  2  3  2  0
  4  2  1  0
  4  5  1  0
  5  6  1  1
  7  5  1  0
  7  8  2  0
  9  7  1  0
 10  9  1  0
 10 11  1  0
 11 13  1  0
 12 11  2  0
 13 14  1  0
 14 17  1  0
 14 15  1  1
 16 15  1  0
 17 18  2  0
 17 19  1  0
M  END
$$$$
