NGC.pdb
     RDKit          3D

 19 18  0  0  1  0  0  0  0  0999 V2000
    9.0099  -12.7236   17.4281 N   0  0  0  0  0  0  0  0  0  0  0  0
    8.0633  -13.7647   17.4277 C   0  0  0  0  0  0  0  0  0  0  0  0
    7.8634  -14.3344   16.2970 O   0  0  0  0  0  0  0  0  0  0  0  0
    7.3420  -14.1796   18.6518 C   0  0  0  0  0  0  0  0  0  0  0  0
    8.2607  -14.9089   19.6024 C   0  0  2  0  0  0  0  0  0  0  0  0
    8.8366  -16.0761   18.9965 N   0  0  0  0  0  0  0  0  0  0  0  0
    7.5452  -15.1835   20.8659 C   0  0  0  0  0  0  0  0  0  0  0  0
    6.5191  -15.8675   20.8777 O   0  0  0  0  0  0  0  0  0  0  0  0
    8.0119  -14.6651   22.1260 N   0  0  0  0  0  0  0  0  0  0  0  0
    7.3738  -15.0016   23.3621 C   0  0  0  0  0  0  0  0  0  0  0  0
    7.9832  -14.4913   24.5791 C   0  0  0  0  0  0  0  0  0  0  0  0
    9.2416  -14.5809   24.7339 O   0  0  0  0  0  0  0  0  0  0  0  0
    7.3010  -13.8716   25.6793 N   0  0  0  0  0  0  0  0  0  0  0  0
    8.0099  -13.4343   26.8603 C   0  0  1  0  0  0  0  0  0  0  0  0
    7.0777  -12.5792   27.6834 C   0  0  0  0  0  0  0  0  0  0  0  0
    5.7750  -11.8304   26.6761 S   0  0  0  0  0  0  0  0  0  0  0  0
    8.6281  -14.5101   27.6215 C   0  0  0  0  0  0  0  0  0  0  0  0
    9.4354  -14.2160   28.5587 O   0  0  0  0  0  0  0  0  0  0  0  0
    8.3815  -15.8285   27.3804 O   0  0  0  0  0  0  0  0  0  0  0  0
  1  2  1  0
  2  3  2  0
  4  2  1  0
  4  5  1  0
  5  6  1  6
  7  5  1  0
  7  8  2  0
  9  7  1  0
 10  9  1  0
 10 11  1  0
 11 13  1  0
 12 11  2  0
 13 14  1  0
 14 17  1  0
 14 15  1  1
 16 15  1  0
 17 18  2  0
 17 19  1  0
M  END
$$$$
