NGC.pdb
     RDKit          3D

 19 18  0  0  1  0  0  0  0  0999 V2000
    7.4243  -22.5959   27.5033 N   0  0  0  0  0  0  0  0  0  0  0  0
    6.9590  -22.2361   26.2251 C   0  0  0  0  0  0  0  0  0  0  0  0
    6.8529  -23.1951   25.3813 O   0  0  0  0  0  0  0  0  0  0  0  0
    6.6124  -20.8410   25.8722 C   0  0  0  0  0  0  0  0  0  0  0  0
    7.5704  -20.2867   24.8453 C   0  0  2  0  0  0  0  0  0  0  0  0
    8.8441  -19.9648   25.4240 N   0  0  0  0  0  0  0  0  0  0  0  0
    6.9338  -19.1568   24.1369 C   0  0  0  0  0  0  0  0  0  0  0  0
    6.1512  -19.3532   23.2042 O   0  0  0  0  0  0  0  0  0  0  0  0
    7.2012  -17.7895   24.5023 N   0  0  0  0  0  0  0  0  0  0  0  0
    6.5961  -16.6924   23.8105 C   0  0  0  0  0  0  0  0  0  0  0  0
    6.8090  -15.3655   24.3645 C   0  0  0  0  0  0  0  0  0  0  0  0
    6.3800  -14.3482   23.7347 O   0  0  0  0  0  0  0  0  0  0  0  0
    7.4795  -15.0525   25.5942 N   0  0  0  0  0  0  0  0  0  0  0  0
    8.0763  -13.7562   25.8226 C   0  0  1  0  0  0  0  0  0  0  0  0
    6.9976  -12.7084   25.6944 C   0  0  0  0  0  0  0  0  0  0  0  0
    5.7458  -12.8597   26.9916 S   0  0  0  0  0  0  0  0  0  0  0  0
    8.8341  -13.6546   27.0613 C   0  0  0  0  0  0  0  0  0  0  0  0
    9.4640  -12.5788   27.3110 O   0  0  0  0  0  0  0  0  0  0  0  0
    8.9013  -14.6619   27.9765 O   0  0  0  0  0  0  0  0  0  0  0  0
  1  2  1  0
  2  3  2  0
  4  2  1  0
  4  5  1  0
  5  6  1  1
  7  5  1  0
  7  8  2  0
  9  7  1  0
 10  9  1  0
 10 11  1  0
 11 13  1  0
 12 11  2  0
 13 14  1  0
 14 17  1  0
 14 15  1  1
 16 15  1  0
 17 18  2  0
 17 19  1  0
M  END
$$$$
