NGC.pdb
     RDKit          3D

 19 18  0  0  1  0  0  0  0  0999 V2000
   12.3232  -17.6816   18.2502 N   0  0  0  0  0  0  0  0  0  0  0  0
   11.1202  -18.1086   18.8422 C   0  0  0  0  0  0  0  0  0  0  0  0
   10.9613  -19.3777   18.9263 O   0  0  0  0  0  0  0  0  0  0  0  0
   10.1002  -17.1574   19.3380 C   0  0  0  0  0  0  0  0  0  0  0  0
    9.9428  -17.2622   20.8360 C   0  0  2  0  0  0  0  0  0  0  0  0
    9.2657  -18.4693   21.2173 N   0  0  0  0  0  0  0  0  0  0  0  0
    9.3064  -16.0323   21.3518 C   0  0  0  0  0  0  0  0  0  0  0  0
    9.8820  -14.9438   21.2830 O   0  0  0  0  0  0  0  0  0  0  0  0
    7.9982  -16.0545   21.9540 N   0  0  0  0  0  0  0  0  0  0  0  0
    7.4265  -14.8894   22.5574 C   0  0  0  0  0  0  0  0  0  0  0  0
    7.9573  -14.4885   23.8498 C   0  0  0  0  0  0  0  0  0  0  0  0
    8.9944  -15.0643   24.3064 O   0  0  0  0  0  0  0  0  0  0  0  0
    7.4235  -13.4739   24.7133 N   0  0  0  0  0  0  0  0  0  0  0  0
    8.1003  -13.0805   25.9281 C   0  0  1  0  0  0  0  0  0  0  0  0
    7.4268  -11.8417   26.4662 C   0  0  0  0  0  0  0  0  0  0  0  0
    5.6275  -12.0187   26.5275 S   0  0  0  0  0  0  0  0  0  0  0  0
    8.2265  -14.1427   26.9154 C   0  0  0  0  0  0  0  0  0  0  0  0
    7.4951  -15.1767   26.8040 O   0  0  0  0  0  0  0  0  0  0  0  0
    9.0985  -14.0861   27.9610 O   0  0  0  0  0  0  0  0  0  0  0  0
  1  2  1  0
  2  3  2  0
  4  2  1  0
  4  5  1  0
  5  6  1  6
  7  5  1  0
  7  8  2  0
  9  7  1  0
 10  9  1  0
 10 11  1  0
 11 13  1  0
 12 11  2  0
 13 14  1  0
 14 17  1  0
 14 15  1  1
 16 15  1  0
 17 18  2  0
 17 19  1  0
M  END
$$$$
