NGC.pdb
     RDKit          3D

 19 18  0  0  1  0  0  0  0  0999 V2000
   10.8782  -20.1594   21.5934 N   0  0  0  0  0  0  0  0  0  0  0  0
   11.0234  -18.9283   20.9278 C   0  0  0  0  0  0  0  0  0  0  0  0
   12.1721  -18.7123   20.4018 O   0  0  0  0  0  0  0  0  0  0  0  0
    9.9231  -17.9423   20.8375 C   0  0  0  0  0  0  0  0  0  0  0  0
    9.4856  -17.4898   22.2100 C   0  0  2  0  0  0  0  0  0  0  0  0
    8.4970  -18.3672   22.7701 N   0  0  0  0  0  0  0  0  0  0  0  0
    9.0634  -16.0749   22.1510 C   0  0  0  0  0  0  0  0  0  0  0  0
    9.8960  -15.1658   22.1141 O   0  0  0  0  0  0  0  0  0  0  0  0
    7.6723  -15.7019   22.1368 N   0  0  0  0  0  0  0  0  0  0  0  0
    7.2593  -14.3363   22.0230 C   0  0  0  0  0  0  0  0  0  0  0  0
    7.5076  -13.4749   23.1671 C   0  0  0  0  0  0  0  0  0  0  0  0
    7.6791  -12.2285   22.9866 O   0  0  0  0  0  0  0  0  0  0  0  0
    7.5886  -13.8837   24.5405 N   0  0  0  0  0  0  0  0  0  0  0  0
    7.8476  -12.9345   25.5991 C   0  0  1  0  0  0  0  0  0  0  0  0
    6.6640  -12.0035   25.7012 C   0  0  0  0  0  0  0  0  0  0  0  0
    5.7370  -12.2486   27.2352 S   0  0  0  0  0  0  0  0  0  0  0  0
    8.2159  -13.5398   26.8707 C   0  0  0  0  0  0  0  0  0  0  0  0
    7.9590  -14.7698   27.0642 O   0  0  0  0  0  0  0  0  0  0  0  0
    8.8300  -12.8496   27.8724 O   0  0  0  0  0  0  0  0  0  0  0  0
  1  2  1  0
  2  3  2  0
  4  2  1  0
  4  5  1  0
  5  6  1  6
  7  5  1  0
  7  8  2  0
  9  7  1  0
 10  9  1  0
 10 11  1  0
 11 13  1  0
 12 11  2  0
 13 14  1  0
 14 17  1  0
 14 15  1  1
 16 15  1  0
 17 18  2  0
 17 19  1  0
M  END
$$$$
