NGC.pdb
     RDKit          3D

 19 18  0  0  1  0  0  0  0  0999 V2000
   13.3701  -17.9392   18.5613 N   0  0  0  0  0  0  0  0  0  0  0  0
   12.8560  -17.7663   19.8596 C   0  0  0  0  0  0  0  0  0  0  0  0
   13.6768  -17.9931   20.8177 O   0  0  0  0  0  0  0  0  0  0  0  0
   11.4579  -17.3490   20.1087 C   0  0  0  0  0  0  0  0  0  0  0  0
   10.8261  -18.1877   21.1936 C   0  0  2  0  0  0  0  0  0  0  0  0
   10.1205  -19.3149   20.6526 N   0  0  0  0  0  0  0  0  0  0  0  0
    9.9980  -17.3263   22.0630 C   0  0  0  0  0  0  0  0  0  0  0  0
    8.8837  -16.9426   21.6993 O   0  0  0  0  0  0  0  0  0  0  0  0
   10.4558  -16.9002   23.3605 N   0  0  0  0  0  0  0  0  0  0  0  0
    9.6029  -16.1916   24.2653 C   0  0  0  0  0  0  0  0  0  0  0  0
   10.1930  -15.7489   25.5177 C   0  0  0  0  0  0  0  0  0  0  0  0
   11.4069  -16.0281   25.7708 O   0  0  0  0  0  0  0  0  0  0  0  0
    9.5368  -15.0011   26.5521 N   0  0  0  0  0  0  0  0  0  0  0  0
   10.2407  -14.5722   27.7392 C   0  0  1  0  0  0  0  0  0  0  0  0
    9.4025  -13.5285   28.4364 C   0  0  0  0  0  0  0  0  0  0  0  0
    8.6029  -12.4055   27.2650 S   0  0  0  0  0  0  0  0  0  0  0  0
   10.6555  -15.6579   28.6157 C   0  0  0  0  0  0  0  0  0  0  0  0
   10.0890  -16.7905   28.5032 O   0  0  0  0  0  0  0  0  0  0  0  0
   11.6308  -15.5216   29.5577 O   0  0  0  0  0  0  0  0  0  0  0  0
  1  2  1  0
  2  3  2  0
  4  2  1  0
  4  5  1  0
  5  6  1  6
  7  5  1  0
  7  8  2  0
  9  7  1  0
 10  9  1  0
 10 11  1  0
 11 13  1  0
 12 11  2  0
 13 14  1  0
 14 17  1  0
 14 15  1  1
 16 15  1  0
 17 18  2  0
 17 19  1  0
M  END
$$$$
