CLI.pdb
     RDKit          3D

 23 22  0  0  1  0  0  0  0  0999 V2000
   27.6573  -20.1500  -15.7581 N   0  0  0  0  0  0  0  0  0  0  0  0
   27.4862  -21.0587  -14.6694 C   0  0  1  0  0  0  0  0  0  0  0  0
   28.8494  -21.5487  -14.2280 C   0  0  0  0  0  0  0  0  0  0  0  0
   29.6222  -22.5721  -15.4787 S   0  0  0  0  0  0  0  0  0  0  0  0
   26.8129  -20.4140  -13.5035 C   0  0  0  0  0  0  0  0  0  0  0  0
   27.1988  -19.3071  -13.0509 O   0  0  0  0  0  0  0  0  0  0  0  0
   23.4029  -18.8632  -13.3108 C   0  0  0  0  0  0  0  0  0  0  0  0
   23.1096  -20.3784  -13.2775 C   0  0  2  0  0  0  0  0  0  0  0  0
   21.6386  -20.5628  -13.5750 C   0  0  0  0  0  0  0  0  0  0  0  0
   23.4709  -20.8934  -11.9049 C   0  0  0  0  0  0  0  0  0  0  0  0
   24.9939  -20.7624  -11.7588 C   0  0  2  0  0  0  0  0  0  0  0  0
   25.7224  -21.1014  -12.9296 N   0  0  0  0  0  0  0  0  0  0  0  0
   25.5052  -21.2770  -10.5032 C   0  0  0  0  0  0  0  0  0  0  0  0
   25.9767  -22.4627  -10.3769 O   0  0  0  0  0  0  0  0  0  0  0  0
   28.5541  -18.6488   -6.9956 C   0  0  0  0  0  0  0  0  0  0  0  0
   27.8548  -19.7364   -7.8092 C   0  0  0  0  0  0  0  0  0  0  0  0
   26.4982  -19.9794   -7.2266 C   0  0  2  0  0  0  0  0  0  0  0  0
   26.6198  -20.4250   -5.7783 C   0  0  0  0  0  0  0  0  0  0  0  0
   25.7133  -20.9992   -8.0054 C   0  0  2  0  0  0  0  0  0  0  0  0
   25.5024  -20.4637   -9.3398 N   0  0  0  0  0  0  0  0  0  0  0  0
   24.4880  -21.4246   -7.3518 C   0  0  0  0  0  0  0  0  0  0  0  0
   24.4855  -22.4890   -6.4759 O   0  0  0  0  0  0  0  0  0  0  0  0
   23.4110  -20.8312   -7.5725 O   0  0  0  0  0  0  0  0  0  0  0  0
  2  3  1  0
  2  1  1  6
  3  4  1  0
  5  2  1  0
  6  5  2  0
  8  7  1  1
  8 10  1  0
  9  8  1  0
 11 10  1  6
 11 12  1  0
 12  5  1  0
 13 11  1  0
 13 20  1  0
 14 13  2  0
 15 16  1  0
 16 17  1  0
 17 19  1  0
 17 18  1  1
 19 20  1  6
 19 21  1  0
 21 22  1  0
 23 21  2  0
M  END
$$$$
