CLI.pdb
     RDKit          3D

 23 22  0  0  1  0  0  0  0  0999 V2000
   30.9437  -22.5424  -10.8221 N   0  0  0  0  0  0  0  0  0  0  0  0
   30.5421  -21.3968  -10.0693 C   0  0  1  0  0  0  0  0  0  0  0  0
   30.5285  -20.1932  -10.9882 C   0  0  0  0  0  0  0  0  0  0  0  0
   29.6678  -20.5396  -12.5205 S   0  0  0  0  0  0  0  0  0  0  0  0
   29.1792  -21.5624   -9.4833 C   0  0  0  0  0  0  0  0  0  0  0  0
   28.3989  -22.4647   -9.8783 O   0  0  0  0  0  0  0  0  0  0  0  0
   28.1673  -21.3030   -5.0981 C   0  0  0  0  0  0  0  0  0  0  0  0
   28.6145  -20.0191   -5.8293 C   0  0  2  0  0  0  0  0  0  0  0  0
   28.9753  -18.9980   -4.7741 C   0  0  0  0  0  0  0  0  0  0  0  0
   27.4675  -19.5499   -6.6918 C   0  0  0  0  0  0  0  0  0  0  0  0
   27.4974  -20.3868   -7.9790 C   0  0  2  0  0  0  0  0  0  0  0  0
   28.8031  -20.6612   -8.4648 N   0  0  0  0  0  0  0  0  0  0  0  0
   26.5103  -19.9811   -8.9608 C   0  0  0  0  0  0  0  0  0  0  0  0
   26.4339  -18.7858   -9.4185 O   0  0  0  0  0  0  0  0  0  0  0  0
   26.2270  -21.6925  -13.6053 C   0  0  0  0  0  0  0  0  0  0  0  0
   26.0013  -20.8270  -12.3669 C   0  0  0  0  0  0  0  0  0  0  0  0
   24.7566  -21.2871  -11.6754 C   0  0  2  0  0  0  0  0  0  0  0  0
   23.5554  -21.1274  -12.5932 C   0  0  0  0  0  0  0  0  0  0  0  0
   24.5102  -20.5512  -10.3869 C   0  0  2  0  0  0  0  0  0  0  0  0
   25.5703  -20.9184   -9.4632 N   0  0  0  0  0  0  0  0  0  0  0  0
   23.1768  -20.7434   -9.8441 C   0  0  0  0  0  0  0  0  0  0  0  0
   22.0976  -20.0563  -10.3573 O   0  0  0  0  0  0  0  0  0  0  0  0
   22.9838  -21.5376   -8.8993 O   0  0  0  0  0  0  0  0  0  0  0  0
  2  3  1  0
  2  1  1  6
  3  4  1  0
  5  2  1  0
  6  5  2  0
  8  7  1  1
  8 10  1  0
  9  8  1  0
 11 10  1  1
 11 12  1  0
 12  5  1  0
 13 11  1  0
 13 20  1  0
 14 13  2  0
 15 16  1  0
 16 17  1  0
 17 19  1  0
 17 18  1  6
 19 20  1  1
 19 21  1  0
 21 22  1  0
 23 21  2  0
M  END
$$$$
