CLI.pdb
     RDKit          3D

 23 22  0  0  1  0  0  0  0  0999 V2000
   20.2306  -22.9948  -15.5358 N   0  0  0  0  0  0  0  0  0  0  0  0
   20.7490  -21.8791  -14.8100 C   0  0  1  0  0  0  0  0  0  0  0  0
   21.0739  -22.3265  -13.4002 C   0  0  0  0  0  0  0  0  0  0  0  0
   19.5982  -22.7852  -12.4943 S   0  0  0  0  0  0  0  0  0  0  0  0
   21.9912  -21.3347  -15.4336 C   0  0  0  0  0  0  0  0  0  0  0  0
   22.7162  -22.0402  -16.1791 O   0  0  0  0  0  0  0  0  0  0  0  0
   20.8196  -17.2025  -14.9812 C   0  0  0  0  0  0  0  0  0  0  0  0
   22.3572  -17.1447  -14.8573 C   0  0  2  0  0  0  0  0  0  0  0  0
   22.7487  -15.6891  -14.7376 C   0  0  0  0  0  0  0  0  0  0  0  0
   22.9489  -17.7829  -16.0912 C   0  0  0  0  0  0  0  0  0  0  0  0
   23.3645  -19.2104  -15.7074 C   0  0  2  0  0  0  0  0  0  0  0  0
   22.3178  -19.9916  -15.1502 N   0  0  0  0  0  0  0  0  0  0  0  0
   24.6533  -19.2844  -15.0469 C   0  0  0  0  0  0  0  0  0  0  0  0
   25.6399  -18.5269  -15.3583 O   0  0  0  0  0  0  0  0  0  0  0  0
   25.0274  -20.8904   -9.8727 C   0  0  0  0  0  0  0  0  0  0  0  0
   25.2297  -20.1998  -11.2203 C   0  0  0  0  0  0  0  0  0  0  0  0
   26.0277  -21.1000  -12.1102 C   0  0  2  0  0  0  0  0  0  0  0  0
   27.3926  -21.3698  -11.4977 C   0  0  0  0  0  0  0  0  0  0  0  0
   26.1969  -20.5359  -13.4943 C   0  0  2  0  0  0  0  0  0  0  0  0
   24.8727  -20.2222  -14.0041 N   0  0  0  0  0  0  0  0  0  0  0  0
   26.9748  -21.3804  -14.3838 C   0  0  0  0  0  0  0  0  0  0  0  0
   28.3368  -21.2097  -14.5107 O   0  0  0  0  0  0  0  0  0  0  0  0
   26.4214  -22.2793  -15.0519 O   0  0  0  0  0  0  0  0  0  0  0  0
  2  3  1  0
  2  1  1  6
  3  4  1  0
  5  2  1  0
  6  5  2  0
  8  7  1  6
  8 10  1  0
  9  8  1  0
 11 10  1  1
 11 12  1  0
 12  5  1  0
 13 11  1  0
 13 20  1  0
 14 13  2  0
 15 16  1  0
 16 17  1  0
 17 19  1  0
 17 18  1  1
 19 20  1  6
 19 21  1  0
 21 22  1  0
 23 21  2  0
M  END
$$$$
