CLI.pdb
     RDKit          3D

 23 22  0  0  1  0  0  0  0  0999 V2000
   18.8956  -12.2187  -18.7554 N   0  0  0  0  0  0  0  0  0  0  0  0
   19.9060  -11.2289  -18.9550 C   0  0  1  0  0  0  0  0  0  0  0  0
   19.3629  -10.1616  -19.8819 C   0  0  0  0  0  0  0  0  0  0  0  0
   19.0395  -10.8094  -21.5204 S   0  0  0  0  0  0  0  0  0  0  0  0
   20.3155  -10.5816  -17.6738 C   0  0  0  0  0  0  0  0  0  0  0  0
   19.4734  -10.0508  -16.9067 O   0  0  0  0  0  0  0  0  0  0  0  0
   22.2855  -12.4338  -14.5450 C   0  0  0  0  0  0  0  0  0  0  0  0
   23.2812  -12.2433  -15.7092 C   0  0  2  0  0  0  0  0  0  0  0  0
   24.5046  -13.0769  -15.4013 C   0  0  0  0  0  0  0  0  0  0  0  0
   23.6152  -10.7737  -15.8016 C   0  0  0  0  0  0  0  0  0  0  0  0
   22.3298  -10.0427  -16.2157 C   0  0  2  0  0  0  0  0  0  0  0  0
   21.6910  -10.5908  -17.3593 N   0  0  0  0  0  0  0  0  0  0  0  0
   22.4381   -8.5977  -16.1615 C   0  0  0  0  0  0  0  0  0  0  0  0
   23.1139   -7.9176  -17.0128 O   0  0  0  0  0  0  0  0  0  0  0  0
   21.8881   -3.8746  -16.6471 C   0  0  0  0  0  0  0  0  0  0  0  0
   20.7238   -4.3376  -15.7729 C   0  0  0  0  0  0  0  0  0  0  0  0
   20.6967   -5.8336  -15.7559 C   0  0  2  0  0  0  0  0  0  0  0  0
   19.4029   -6.3290  -15.1302 C   0  0  0  0  0  0  0  0  0  0  0  0
   21.8710   -6.4207  -15.0218 C   0  0  2  0  0  0  0  0  0  0  0  0
   21.7811   -7.8666  -15.1374 N   0  0  0  0  0  0  0  0  0  0  0  0
   22.0017   -5.9563  -13.6519 C   0  0  0  0  0  0  0  0  0  0  0  0
   21.6550   -6.7679  -12.5930 O   0  0  0  0  0  0  0  0  0  0  0  0
   22.4321   -4.8091  -13.4081 O   0  0  0  0  0  0  0  0  0  0  0  0
  2  3  1  0
  2  1  1  1
  3  4  1  0
  5  2  1  0
  6  5  2  0
  8  7  1  1
  8 10  1  0
  9  8  1  0
 11 10  1  6
 11 12  1  0
 12  5  1  0
 13 11  1  0
 13 20  1  0
 14 13  2  0
 15 16  1  0
 16 17  1  0
 17 19  1  0
 17 18  1  1
 19 20  1  1
 19 21  1  0
 21 22  1  0
 23 21  2  0
M  END
$$$$
