CLI.pdb
     RDKit          3D

 23 22  0  0  1  0  0  0  0  0999 V2000
   31.0076  -20.9278  -14.4953 N   0  0  0  0  0  0  0  0  0  0  0  0
   30.2174  -21.4510  -13.4265 C   0  0  1  0  0  0  0  0  0  0  0  0
   31.0396  -21.4196  -12.1552 C   0  0  0  0  0  0  0  0  0  0  0  0
   32.4588  -22.5078  -12.2573 S   0  0  0  0  0  0  0  0  0  0  0  0
   28.9743  -20.6539  -13.2080 C   0  0  0  0  0  0  0  0  0  0  0  0
   28.9919  -19.3974  -13.2001 O   0  0  0  0  0  0  0  0  0  0  0  0
   23.0647  -20.9100  -14.0085 C   0  0  0  0  0  0  0  0  0  0  0  0
   24.2742  -20.1180  -13.4675 C   0  0  2  0  0  0  0  0  0  0  0  0
   24.1864  -18.7163  -14.0277 C   0  0  0  0  0  0  0  0  0  0  0  0
   25.5318  -20.8219  -13.9177 C   0  0  0  0  0  0  0  0  0  0  0  0
   26.4863  -20.8564  -12.7153 C   0  0  2  0  0  0  0  0  0  0  0  0
   27.7760  -21.3722  -13.0104 N   0  0  0  0  0  0  0  0  0  0  0  0
   25.8645  -21.3220  -11.4909 C   0  0  0  0  0  0  0  0  0  0  0  0
   25.4930  -22.5368  -11.3168 O   0  0  0  0  0  0  0  0  0  0  0  0
   27.6394  -19.2596   -6.9340 C   0  0  0  0  0  0  0  0  0  0  0  0
   27.0709  -20.2460   -7.9527 C   0  0  0  0  0  0  0  0  0  0  0  0
   25.5939  -20.0321   -8.0610 C   0  0  2  0  0  0  0  0  0  0  0  0
   24.9131  -20.3897   -6.7497 C   0  0  0  0  0  0  0  0  0  0  0  0
   24.9798  -20.8244   -9.1824 C   0  0  2  0  0  0  0  0  0  0  0  0
   25.6405  -20.4252  -10.4136 N   0  0  0  0  0  0  0  0  0  0  0  0
   23.5317  -20.7312   -9.2458 C   0  0  0  0  0  0  0  0  0  0  0  0
   22.9168  -19.8128  -10.0695 O   0  0  0  0  0  0  0  0  0  0  0  0
   22.8155  -21.4842   -8.5525 O   0  0  0  0  0  0  0  0  0  0  0  0
  2  3  1  0
  2  1  1  6
  3  4  1  0
  5  2  1  0
  6  5  2  0
  8  7  1  6
  8 10  1  0
  9  8  1  0
 11 10  1  6
 11 12  1  0
 12  5  1  0
 13 11  1  0
 13 20  1  0
 14 13  2  0
 15 16  1  0
 16 17  1  0
 17 19  1  0
 17 18  1  1
 19 20  1  6
 19 21  1  0
 21 22  1  0
 23 21  2  0
M  END
$$$$
