CLI.pdb
     RDKit          3D

 23 22  0  0  1  0  0  0  0  0999 V2000
   20.9492  -16.0704  -18.2847 N   0  0  0  0  0  0  0  0  0  0  0  0
   21.3716  -14.7706  -18.7000 C   0  0  1  0  0  0  0  0  0  0  0  0
   20.3235  -14.1938  -19.6284 C   0  0  0  0  0  0  0  0  0  0  0  0
   20.8094  -12.5898  -20.2607 S   0  0  0  0  0  0  0  0  0  0  0  0
   21.5440  -13.8426  -17.5435 C   0  0  0  0  0  0  0  0  0  0  0  0
   20.6192  -13.6443  -16.7161 O   0  0  0  0  0  0  0  0  0  0  0  0
   24.3820  -14.1484  -14.6145 C   0  0  0  0  0  0  0  0  0  0  0  0
   25.0625  -13.6504  -15.9075 C   0  0  2  0  0  0  0  0  0  0  0  0
   26.5558  -13.7956  -15.7195 C   0  0  0  0  0  0  0  0  0  0  0  0
   24.6635  -12.2097  -16.1195 C   0  0  0  0  0  0  0  0  0  0  0  0
   23.1704  -12.2016  -16.4777 C   0  0  2  0  0  0  0  0  0  0  0  0
   22.7919  -13.1960  -17.4181 N   0  0  0  0  0  0  0  0  0  0  0  0
   22.6275  -10.8727  -16.6828 C   0  0  0  0  0  0  0  0  0  0  0  0
   22.8046  -10.2075  -17.7645 O   0  0  0  0  0  0  0  0  0  0  0  0
   17.8037   -9.7813  -16.9659 C   0  0  0  0  0  0  0  0  0  0  0  0
   19.3242   -9.6654  -17.0572 C   0  0  0  0  0  0  0  0  0  0  0  0
   19.8335   -8.9964  -15.8194 C   0  0  2  0  0  0  0  0  0  0  0  0
   19.2276   -7.6088  -15.6842 C   0  0  0  0  0  0  0  0  0  0  0  0
   21.3343   -8.8976  -15.7963 C   0  0  2  0  0  0  0  0  0  0  0  0
   21.8600  -10.2461  -15.6664 N   0  0  0  0  0  0  0  0  0  0  0  0
   21.8490   -7.9767  -14.7980 C   0  0  0  0  0  0  0  0  0  0  0  0
   22.0578   -6.6483  -15.1010 O   0  0  0  0  0  0  0  0  0  0  0  0
   22.1124   -8.3737  -13.6431 O   0  0  0  0  0  0  0  0  0  0  0  0
  2  3  1  0
  2  1  1  1
  3  4  1  0
  5  2  1  0
  6  5  2  0
  8  7  1  1
  8 10  1  0
  9  8  1  0
 11 10  1  6
 11 12  1  0
 12  5  1  0
 13 11  1  0
 13 20  1  0
 14 13  2  0
 15 16  1  0
 16 17  1  0
 17 19  1  0
 17 18  1  6
 19 20  1  1
 19 21  1  0
 21 22  1  0
 23 21  2  0
M  END
$$$$
