PMT.pdb
     RDKit          3D

 23 23  0  0  1  0  0  0  0  0999 V2000
   24.5027  -12.3492  -16.0587 N   0  0  0  0  0  0  0  0  0  0  0  0
   24.4655  -13.7671  -16.2116 C   0  0  0  0  0  0  0  0  0  0  0  0
   23.8028  -14.0959  -17.5131 C   0  0  0  0  0  0  0  0  0  0  0  0
   23.5329  -12.7691  -18.1662 C   0  0  0  0  0  0  0  0  0  0  0  0
   24.1550  -11.7202  -17.2901 C   0  0  1  0  0  0  0  0  0  0  0  0
   23.1369  -10.6342  -17.0974 C   0  0  0  0  0  0  0  0  0  0  0  0
   22.7940   -9.9336  -18.0762 O   0  0  0  0  0  0  0  0  0  0  0  0
   16.5435  -11.5975  -16.2598 C   0  0  0  0  0  0  0  0  0  0  0  0
   17.8199  -11.1508  -15.0357 S   0  0  0  0  0  0  0  0  0  0  0  0
   19.2203  -10.3835  -15.9141 C   0  0  0  0  0  0  0  0  0  0  0  0
   20.3328  -10.0807  -14.9578 C   0  0  0  0  0  0  0  0  0  0  0  0
   21.5099   -9.4126  -15.5854 C   0  0  2  0  0  0  0  0  0  0  0  0
   22.5627  -10.3931  -15.8305 N   0  0  0  0  0  0  0  0  0  0  0  0
   22.0297   -8.2620  -14.8546 C   0  0  0  0  0  0  0  0  0  0  0  0
   22.7259   -8.3550  -13.8190 O   0  0  0  0  0  0  0  0  0  0  0  0
   24.1366   -5.4043  -16.4090 C   0  0  0  0  0  0  0  0  0  0  0  0
   22.9043   -4.8376  -15.7852 C   0  0  1  0  0  0  0  0  0  0  0  0
   21.8989   -4.6030  -16.7327 O   0  0  0  0  0  0  0  0  0  0  0  0
   22.3079   -5.7618  -14.7432 C   0  0  2  0  0  0  0  0  0  0  0  0
   21.7332   -6.9445  -15.3392 N   0  0  0  0  0  0  0  0  0  0  0  0
   21.2566   -5.0821  -13.9541 C   0  0  0  0  0  0  0  0  0  0  0  0
   21.5646   -4.0206  -13.1186 O   0  0  0  0  0  0  0  0  0  0  0  0
   20.0375   -5.4344  -14.0039 O   0  0  0  0  0  0  0  0  0  0  0  0
  2  3  1  0
  2  1  1  0
  4  3  1  0
  5  4  1  0
  5  6  1  1
  5  1  1  0
  6  7  2  0
  8  9  1  0
  9 10  1  0
 10 11  1  0
 12 11  1  1
 12 14  1  0
 13 12  1  0
 13  6  1  0
 14 15  2  0
 17 16  1  6
 17 19  1  0
 18 17  1  0
 19 21  1  0
 20 14  1  0
 19 20  1  6
 21 23  2  0
 21 22  1  0
M  END
$$$$
