PMT.pdb
     RDKit          3D

 23 23  0  0  1  0  0  0  0  0999 V2000
   31.1274  -21.1127  -10.0176 N   0  0  0  0  0  0  0  0  0  0  0  0
   32.5018  -21.2093   -9.6475 C   0  0  0  0  0  0  0  0  0  0  0  0
   32.6981  -22.4528   -8.8373 C   0  0  0  0  0  0  0  0  0  0  0  0
   31.3596  -23.1371   -8.8317 C   0  0  0  0  0  0  0  0  0  0  0  0
   30.4628  -22.3424   -9.7366 C   0  0  1  0  0  0  0  0  0  0  0  0
   29.1677  -22.1265   -9.0091 C   0  0  0  0  0  0  0  0  0  0  0  0
   28.4943  -23.1176   -8.6475 O   0  0  0  0  0  0  0  0  0  0  0  0
   28.3458  -20.0605   -3.1785 C   0  0  0  0  0  0  0  0  0  0  0  0
   28.9852  -19.0964   -4.5888 S   0  0  0  0  0  0  0  0  0  0  0  0
   28.8457  -20.1131   -6.0950 C   0  0  0  0  0  0  0  0  0  0  0  0
   27.6145  -19.7413   -6.8629 C   0  0  0  0  0  0  0  0  0  0  0  0
   27.4109  -20.5365   -8.1087 C   0  0  2  0  0  0  0  0  0  0  0  0
   28.7005  -20.8244   -8.7281 N   0  0  0  0  0  0  0  0  0  0  0  0
   26.4892  -19.9475   -9.0741 C   0  0  0  0  0  0  0  0  0  0  0  0
   26.2808  -18.7176   -9.1726 O   0  0  0  0  0  0  0  0  0  0  0  0
   27.0650  -20.5452  -12.6650 C   0  0  0  0  0  0  0  0  0  0  0  0
   25.6462  -20.9341  -12.4110 C   0  0  1  0  0  0  0  0  0  0  0  0
   25.5001  -22.3214  -12.2775 O   0  0  0  0  0  0  0  0  0  0  0  0
   25.0980  -20.3183  -11.1399 C   0  0  2  0  0  0  0  0  0  0  0  0
   25.7753  -20.8156   -9.9659 N   0  0  0  0  0  0  0  0  0  0  0  0
   23.6504  -20.5857  -10.9887 C   0  0  0  0  0  0  0  0  0  0  0  0
   23.1585  -21.2458   -9.8743 O   0  0  0  0  0  0  0  0  0  0  0  0
   22.8004  -20.2279  -11.8618 O   0  0  0  0  0  0  0  0  0  0  0  0
  2  3  1  0
  2  1  1  0
  4  3  1  0
  5  4  1  0
  5  6  1  1
  5  1  1  0
  6  7  2  0
  8  9  1  0
  9 10  1  0
 10 11  1  0
 12 11  1  1
 12 14  1  0
 13 12  1  0
 13  6  1  0
 14 15  2  0
 17 16  1  1
 17 19  1  0
 18 17  1  0
 19 21  1  0
 20 14  1  0
 19 20  1  1
 21 23  2  0
 21 22  1  0
M  END
$$$$
