PMT.pdb
     RDKit          3D

 23 23  0  0  1  0  0  0  0  0999 V2000
   22.1277  -14.0235  -19.4734 N   0  0  0  0  0  0  0  0  0  0  0  0
   22.2939  -15.4356  -19.5896 C   0  0  0  0  0  0  0  0  0  0  0  0
   21.4130  -16.1105  -18.5847 C   0  0  0  0  0  0  0  0  0  0  0  0
   20.6411  -15.0010  -17.9265 C   0  0  0  0  0  0  0  0  0  0  0  0
   21.0007  -13.7349  -18.6491 C   0  0  1  0  0  0  0  0  0  0  0  0
   21.3164  -12.6987  -17.6100 C   0  0  0  0  0  0  0  0  0  0  0  0
   20.4928  -12.4774  -16.6939 O   0  0  0  0  0  0  0  0  0  0  0  0
   27.1890  -14.0492  -15.0476 C   0  0  0  0  0  0  0  0  0  0  0  0
   26.6868  -12.4477  -15.7618 S   0  0  0  0  0  0  0  0  0  0  0  0
   24.8675  -12.4034  -15.8601 C   0  0  0  0  0  0  0  0  0  0  0  0
   24.4073  -11.0924  -16.4199 C   0  0  0  0  0  0  0  0  0  0  0  0
   22.9337  -11.0069  -16.6367 C   0  0  2  0  0  0  0  0  0  0  0  0
   22.5262  -11.9725  -17.6522 N   0  0  0  0  0  0  0  0  0  0  0  0
   22.4322   -9.6742  -16.9543 C   0  0  0  0  0  0  0  0  0  0  0  0
   22.6983   -9.0680  -18.0161 O   0  0  0  0  0  0  0  0  0  0  0  0
   19.0142   -8.5176  -17.5389 C   0  0  0  0  0  0  0  0  0  0  0  0
   19.4978   -7.7710  -16.3400 C   0  0  1  0  0  0  0  0  0  0  0  0
   19.0638   -8.3618  -15.1457 O   0  0  0  0  0  0  0  0  0  0  0  0
   21.0101   -7.7128  -16.2678 C   0  0  2  0  0  0  0  0  0  0  0  0
   21.5861   -9.0102  -16.0046 N   0  0  0  0  0  0  0  0  0  0  0  0
   21.4668   -6.7798  -15.2140 C   0  0  0  0  0  0  0  0  0  0  0  0
   21.1841   -5.4254  -15.2877 O   0  0  0  0  0  0  0  0  0  0  0  0
   22.1313   -7.1703  -14.2046 O   0  0  0  0  0  0  0  0  0  0  0  0
  2  3  1  0
  2  1  1  0
  4  3  1  0
  5  4  1  0
  5  6  1  1
  5  1  1  0
  6  7  2  0
  8  9  1  0
  9 10  1  0
 10 11  1  0
 12 11  1  6
 12 14  1  0
 13 12  1  0
 13  6  1  0
 14 15  2  0
 17 16  1  6
 17 19  1  0
 18 17  1  0
 19 21  1  0
 20 14  1  0
 19 20  1  1
 21 23  2  0
 21 22  1  0
M  END
$$$$
