PMT.pdb
     RDKit          3D

 23 23  0  0  1  0  0  0  0  0999 V2000
   27.2777  -18.9134  -16.0988 N   0  0  0  0  0  0  0  0  0  0  0  0
   28.5746  -18.3416  -16.2614 C   0  0  0  0  0  0  0  0  0  0  0  0
   29.6000  -19.4250  -16.1353 C   0  0  0  0  0  0  0  0  0  0  0  0
   28.8145  -20.6973  -15.9795 C   0  0  0  0  0  0  0  0  0  0  0  0
   27.3666  -20.3357  -16.1445 C   0  0  1  0  0  0  0  0  0  0  0  0
   26.6112  -20.9813  -15.0193 C   0  0  0  0  0  0  0  0  0  0  0  0
   26.5333  -22.2294  -14.9690 O   0  0  0  0  0  0  0  0  0  0  0  0
   24.8828  -21.0811   -7.4897 C   0  0  0  0  0  0  0  0  0  0  0  0
   25.8803  -20.4784   -8.8929 S   0  0  0  0  0  0  0  0  0  0  0  0
   25.0415  -20.9463  -10.4419 C   0  0  0  0  0  0  0  0  0  0  0  0
   25.8155  -20.4501  -11.6244 C   0  0  0  0  0  0  0  0  0  0  0  0
   25.1802  -20.7555  -12.9393 C   0  0  2  0  0  0  0  0  0  0  0  0
   25.9894  -20.2017  -14.0202 N   0  0  0  0  0  0  0  0  0  0  0  0
   23.7879  -20.3382  -13.0646 C   0  0  0  0  0  0  0  0  0  0  0  0
   23.4016  -19.1576  -12.9142 O   0  0  0  0  0  0  0  0  0  0  0  0
   21.7286  -20.6952  -16.1388 C   0  0  0  0  0  0  0  0  0  0  0  0
   21.0127  -21.4322  -15.0556 C   0  0  1  0  0  0  0  0  0  0  0  0
   21.2603  -22.8104  -15.1089 O   0  0  0  0  0  0  0  0  0  0  0  0
   21.4282  -20.9724  -13.6731 C   0  0  2  0  0  0  0  0  0  0  0  0
   22.7961  -21.3268  -13.3770 N   0  0  0  0  0  0  0  0  0  0  0  0
   20.5607  -21.5544  -12.6250 C   0  0  0  0  0  0  0  0  0  0  0  0
   19.2250  -21.2000  -12.5252 O   0  0  0  0  0  0  0  0  0  0  0  0
   20.9930  -22.3957  -11.7775 O   0  0  0  0  0  0  0  0  0  0  0  0
  2  3  1  0
  2  1  1  0
  4  3  1  0
  5  4  1  0
  5  6  1  1
  5  1  1  0
  6  7  2  0
  8  9  1  0
  9 10  1  0
 10 11  1  0
 12 11  1  1
 12 14  1  0
 13 12  1  0
 13  6  1  0
 14 15  2  0
 17 16  1  6
 17 19  1  0
 18 17  1  0
 19 21  1  0
 20 14  1  0
 19 20  1  1
 21 23  2  0
 21 22  1  0
M  END
$$$$
