PMT.pdb
     RDKit          3D

 23 23  0  0  1  0  0  0  0  0999 V2000
   27.2634  -18.8886  -15.5416 N   0  0  0  0  0  0  0  0  0  0  0  0
   28.5479  -18.3562  -15.8607 C   0  0  0  0  0  0  0  0  0  0  0  0
   29.5475  -19.4706  -15.8579 C   0  0  0  0  0  0  0  0  0  0  0  0
   28.7483  -20.7187  -15.6063 C   0  0  0  0  0  0  0  0  0  0  0  0
   27.3027  -20.3128  -15.5955 C   0  0  1  0  0  0  0  0  0  0  0  0
   26.6696  -20.9376  -14.3863 C   0  0  0  0  0  0  0  0  0  0  0  0
   26.5469  -22.1820  -14.3316 O   0  0  0  0  0  0  0  0  0  0  0  0
   27.6718  -20.6744   -7.9867 C   0  0  0  0  0  0  0  0  0  0  0  0
   26.0021  -19.9672   -8.1849 S   0  0  0  0  0  0  0  0  0  0  0  0
   25.2570  -20.6587   -9.6975 C   0  0  0  0  0  0  0  0  0  0  0  0
   25.9550  -20.1283  -10.9121 C   0  0  0  0  0  0  0  0  0  0  0  0
   25.4172  -20.6532  -12.2009 C   0  0  2  0  0  0  0  0  0  0  0  0
   26.2122  -20.1427  -13.3132 N   0  0  0  0  0  0  0  0  0  0  0  0
   23.9958  -20.4104  -12.4221 C   0  0  0  0  0  0  0  0  0  0  0  0
   23.4569  -19.2877  -12.3005 O   0  0  0  0  0  0  0  0  0  0  0  0
   21.3336  -23.7768  -13.4046 C   0  0  0  0  0  0  0  0  0  0  0  0
   21.2934  -22.4494  -14.0866 C   0  0  1  0  0  0  0  0  0  0  0  0
   19.9950  -22.1059  -14.4864 O   0  0  0  0  0  0  0  0  0  0  0  0
   21.7809  -21.3269  -13.1933 C   0  0  2  0  0  0  0  0  0  0  0  0
   23.1576  -21.5119  -12.8001 N   0  0  0  0  0  0  0  0  0  0  0  0
   20.9593  -21.2140  -11.9677 C   0  0  0  0  0  0  0  0  0  0  0  0
   21.5249  -21.3664  -10.7121 O   0  0  0  0  0  0  0  0  0  0  0  0
   19.7126  -20.9753  -12.0071 O   0  0  0  0  0  0  0  0  0  0  0  0
  2  3  1  0
  2  1  1  0
  4  3  1  0
  5  4  1  0
  5  6  1  1
  5  1  1  0
  6  7  2  0
  8  9  1  0
  9 10  1  0
 10 11  1  0
 12 11  1  1
 12 14  1  0
 13 12  1  0
 13  6  1  0
 14 15  2  0
 17 16  1  1
 17 19  1  0
 18 17  1  0
 19 21  1  0
 20 14  1  0
 19 20  1  1
 21 23  2  0
 21 22  1  0
M  END
$$$$
