PMT.pdb
     RDKit          3D

 23 23  0  0  1  0  0  0  0  0999 V2000
   28.5823  -19.9560  -16.0743 N   0  0  0  0  0  0  0  0  0  0  0  0
   28.6047  -19.0327  -17.1617 C   0  0  0  0  0  0  0  0  0  0  0  0
   27.8578  -17.7980  -16.7631 C   0  0  0  0  0  0  0  0  0  0  0  0
   27.4701  -18.0161  -15.3271 C   0  0  0  0  0  0  0  0  0  0  0  0
   28.1064  -19.3066  -14.8976 C   0  0  1  0  0  0  0  0  0  0  0  0
   27.0534  -20.1155  -14.1975 C   0  0  0  0  0  0  0  0  0  0  0  0
   26.4570  -21.0202  -14.8239 O   0  0  0  0  0  0  0  0  0  0  0  0
   26.8489  -20.0704   -7.8859 C   0  0  0  0  0  0  0  0  0  0  0  0
   25.2316  -20.8990   -8.0429 S   0  0  0  0  0  0  0  0  0  0  0  0
   24.8800  -21.1505   -9.8134 C   0  0  0  0  0  0  0  0  0  0  0  0
   25.8640  -20.3949  -10.6529 C   0  0  0  0  0  0  0  0  0  0  0  0
   25.6706  -20.5686  -12.1219 C   0  0  2  0  0  0  0  0  0  0  0  0
   26.7277  -19.8700  -12.8461 N   0  0  0  0  0  0  0  0  0  0  0  0
   24.3551  -20.1841  -12.6218 C   0  0  0  0  0  0  0  0  0  0  0  0
   23.9809  -18.9967  -12.7476 O   0  0  0  0  0  0  0  0  0  0  0  0
   22.9406  -20.9459  -15.9399 C   0  0  0  0  0  0  0  0  0  0  0  0
   21.9858  -21.5263  -14.9498 C   0  0  1  0  0  0  0  0  0  0  0  0
   22.1666  -22.9075  -14.7965 O   0  0  0  0  0  0  0  0  0  0  0  0
   22.1409  -20.9153  -13.5721 C   0  0  2  0  0  0  0  0  0  0  0  0
   23.4288  -21.2151  -12.9928 N   0  0  0  0  0  0  0  0  0  0  0  0
   21.0920  -21.3954  -12.6452 C   0  0  0  0  0  0  0  0  0  0  0  0
   19.7595  -21.0726  -12.8454 O   0  0  0  0  0  0  0  0  0  0  0  0
   21.3590  -22.1169  -11.6348 O   0  0  0  0  0  0  0  0  0  0  0  0
  2  3  1  0
  2  1  1  0
  4  3  1  0
  5  4  1  0
  5  6  1  6
  5  1  1  0
  6  7  2  0
  8  9  1  0
  9 10  1  0
 10 11  1  0
 12 11  1  1
 12 14  1  0
 13 12  1  0
 13  6  1  0
 14 15  2  0
 17 16  1  6
 17 19  1  0
 18 17  1  0
 19 21  1  0
 20 14  1  0
 19 20  1  1
 21 23  2  0
 21 22  1  0
M  END
$$$$
