PMT.pdb
     RDKit          3D

 23 23  0  0  1  0  0  0  0  0999 V2000
   18.1857  -10.6050  -17.3399 N   0  0  0  0  0  0  0  0  0  0  0  0
   17.8063  -11.9477  -17.6374 C   0  0  0  0  0  0  0  0  0  0  0  0
   17.5328  -12.6685  -16.3541 C   0  0  0  0  0  0  0  0  0  0  0  0
   17.6862  -11.6311  -15.2769 C   0  0  0  0  0  0  0  0  0  0  0  0
   17.9189  -10.3190  -15.9688 C   0  0  1  0  0  0  0  0  0  0  0  0
   19.0864   -9.6573  -15.2963 C   0  0  0  0  0  0  0  0  0  0  0  0
   19.0124   -9.3702  -14.0804 O   0  0  0  0  0  0  0  0  0  0  0  0
   25.4073  -11.4709  -14.5266 C   0  0  0  0  0  0  0  0  0  0  0  0
   25.3390  -10.0759  -15.6998 S   0  0  0  0  0  0  0  0  0  0  0  0
   23.9416   -9.0005  -15.2389 C   0  0  0  0  0  0  0  0  0  0  0  0
   22.6605   -9.5441  -15.7929 C   0  0  0  0  0  0  0  0  0  0  0  0
   21.4517   -8.7540  -15.4184 C   0  0  2  0  0  0  0  0  0  0  0  0
   20.2633   -9.3552  -16.0150 N   0  0  0  0  0  0  0  0  0  0  0  0
   21.5249   -7.3297  -15.7256 C   0  0  0  0  0  0  0  0  0  0  0  0
   21.7883   -6.8781  -16.8624 O   0  0  0  0  0  0  0  0  0  0  0  0
   18.9999   -4.7620  -15.7650 C   0  0  0  0  0  0  0  0  0  0  0  0
   19.9779   -4.3096  -14.7317 C   0  0  1  0  0  0  0  0  0  0  0  0
   19.5473   -4.6168  -13.4340 O   0  0  0  0  0  0  0  0  0  0  0  0
   21.3367   -4.9582  -14.9002 C   0  0  2  0  0  0  0  0  0  0  0  0
   21.2841   -6.3832  -14.6745 N   0  0  0  0  0  0  0  0  0  0  0  0
   22.3329   -4.3779  -13.9726 C   0  0  0  0  0  0  0  0  0  0  0  0
   22.9975   -5.1706  -13.0509 O   0  0  0  0  0  0  0  0  0  0  0  0
   22.6229   -3.1414  -13.9764 O   0  0  0  0  0  0  0  0  0  0  0  0
  2  3  1  0
  2  1  1  0
  4  3  1  0
  5  4  1  0
  5  6  1  1
  5  1  1  0
  6  7  2  0
  8  9  1  0
  9 10  1  0
 10 11  1  0
 12 11  1  6
 12 14  1  0
 13 12  1  0
 13  6  1  0
 14 15  2  0
 17 16  1  6
 17 19  1  0
 18 17  1  0
 19 21  1  0
 20 14  1  0
 19 20  1  1
 21 23  2  0
 21 22  1  0
M  END
$$$$
