AQM.pdb
     RDKit          3D

 23 22  0  0  1  0  0  0  0  0999 V2000
    8.5478  -12.3647   19.0936 C   0  0  0  0  0  0  0  0  0  0  0  0
    8.6372  -13.7942   18.5489 C   0  0  2  0  0  0  0  0  0  0  0  0
    7.7806  -13.9803   17.4321 N   0  0  0  0  0  0  0  0  0  0  0  0
    8.3672  -14.6940   19.6845 C   0  0  0  0  0  0  0  0  0  0  0  0
    7.1904  -14.7860   20.1034 O   0  0  0  0  0  0  0  0  0  0  0  0
    7.3346  -19.1342   19.2835 N   0  0  0  0  0  0  0  0  0  0  0  0
    8.3449  -19.1794   20.2702 C   0  0  0  0  0  0  0  0  0  0  0  0
    8.1639  -19.8539   21.2939 O   0  0  0  0  0  0  0  0  0  0  0  0
    9.5934  -18.3896   20.0027 C   0  0  0  0  0  0  0  0  0  0  0  0
   10.0229  -17.6087   21.1841 C   0  0  0  0  0  0  0  0  0  0  0  0
    9.1168  -16.4135   21.3992 C   0  0  2  0  0  0  0  0  0  0  0  0
    9.3869  -15.4479   20.3076 N   0  0  0  0  0  0  0  0  0  0  0  0
    9.3291  -15.7010   22.6699 C   0  0  0  0  0  0  0  0  0  0  0  0
   10.3603  -14.9665   22.8111 O   0  0  0  0  0  0  0  0  0  0  0  0
    5.8952  -11.4048   28.0300 C   0  0  0  0  0  0  0  0  0  0  0  0
    5.8513  -12.4917   26.5799 S   0  0  0  0  0  0  0  0  0  0  0  0
    7.4520  -13.3488   26.4778 C   0  0  0  0  0  0  0  0  0  0  0  0
    7.4765  -14.1316   25.2031 C   0  0  0  0  0  0  0  0  0  0  0  0
    8.7224  -14.9617   25.0029 C   0  0  2  0  0  0  0  0  0  0  0  0
    8.4671  -15.7480   23.7875 N   0  0  0  0  0  0  0  0  0  0  0  0
    9.0432  -15.8598   26.1098 C   0  0  0  0  0  0  0  0  0  0  0  0
    8.6101  -17.0562   26.0722 O   0  0  0  0  0  0  0  0  0  0  0  0
    9.8100  -15.4670   27.2192 O   0  0  0  0  0  0  0  0  0  0  0  0
  2  1  1  1
  2  3  1  0
  4  2  1  0
  5  4  2  0
  6  7  1  0
  7  8  2  0
  9  7  1  0
  9 10  1  0
 11 10  1  6
 11 13  1  0
 11 12  1  0
 12  4  1  0
 13 20  1  0
 14 13  2  0
 16 17  1  0
 16 15  1  0
 19 18  1  1
 18 17  1  0
 20 19  1  0
 21 23  1  0
 21 19  1  0
 22 21  2  0
M  END
$$$$
