AQM.pdb
     RDKit          3D

 23 22  0  0  1  0  0  0  0  0999 V2000
    7.5627  -14.1804   19.1932 C   0  0  0  0  0  0  0  0  0  0  0  0
    7.7465  -15.6670   19.5162 C   0  0  2  0  0  0  0  0  0  0  0  0
    7.0903  -16.4916   18.5647 N   0  0  0  0  0  0  0  0  0  0  0  0
    7.2922  -15.8542   20.9057 C   0  0  0  0  0  0  0  0  0  0  0  0
    6.1740  -15.3940   21.2326 O   0  0  0  0  0  0  0  0  0  0  0  0
    7.7204  -20.6916   24.4687 N   0  0  0  0  0  0  0  0  0  0  0  0
    7.3399  -19.7638   25.4641 C   0  0  0  0  0  0  0  0  0  0  0  0
    7.0499  -20.1738   26.5971 O   0  0  0  0  0  0  0  0  0  0  0  0
    7.3135  -18.3153   25.0701 C   0  0  0  0  0  0  0  0  0  0  0  0
    7.6888  -18.1163   23.6525 C   0  0  0  0  0  0  0  0  0  0  0  0
    7.6705  -16.6449   23.2911 C   0  0  2  0  0  0  0  0  0  0  0  0
    8.0733  -16.5306   21.8693 N   0  0  0  0  0  0  0  0  0  0  0  0
    8.5961  -15.8078   24.0720 C   0  0  0  0  0  0  0  0  0  0  0  0
    9.5816  -16.3524   24.6678 O   0  0  0  0  0  0  0  0  0  0  0  0
    7.0460  -10.4593   28.1887 C   0  0  0  0  0  0  0  0  0  0  0  0
    6.4329  -11.0586   26.5915 S   0  0  0  0  0  0  0  0  0  0  0  0
    6.1823  -12.8545   26.7296 C   0  0  0  0  0  0  0  0  0  0  0  0
    6.7186  -13.4928   25.4875 C   0  0  0  0  0  0  0  0  0  0  0  0
    8.2001  -13.7849   25.5240 C   0  0  2  0  0  0  0  0  0  0  0  0
    8.4996  -14.4075   24.2266 N   0  0  0  0  0  0  0  0  0  0  0  0
    8.6215  -14.6743   26.6039 C   0  0  0  0  0  0  0  0  0  0  0  0
    9.3659  -14.2079   27.5253 O   0  0  0  0  0  0  0  0  0  0  0  0
    8.2442  -16.0253   26.6769 O   0  0  0  0  0  0  0  0  0  0  0  0
  2  1  1  6
  2  3  1  0
  4  2  1  0
  5  4  2  0
  6  7  1  0
  7  8  2  0
  9  7  1  0
  9 10  1  0
 11 10  1  1
 11 13  1  0
 11 12  1  0
 12  4  1  0
 13 20  1  0
 14 13  2  0
 16 17  1  0
 16 15  1  0
 19 18  1  6
 18 17  1  0
 20 19  1  0
 21 23  1  0
 21 19  1  0
 22 21  2  0
M  END
$$$$
