AQM.pdb
     RDKit          3D

 23 22  0  0  1  0  0  0  0  0999 V2000
    8.7350  -12.8196   18.8852 C   0  0  0  0  0  0  0  0  0  0  0  0
    8.5149  -14.3225   18.6832 C   0  0  2  0  0  0  0  0  0  0  0  0
    7.6955  -14.5815   17.5531 N   0  0  0  0  0  0  0  0  0  0  0  0
    7.9858  -14.8444   19.9559 C   0  0  0  0  0  0  0  0  0  0  0  0
    6.8465  -14.4745   20.3223 O   0  0  0  0  0  0  0  0  0  0  0  0
    9.5556  -20.3533   22.2432 N   0  0  0  0  0  0  0  0  0  0  0  0
    8.6608  -19.9455   23.2579 C   0  0  0  0  0  0  0  0  0  0  0  0
    8.3583  -20.7430   24.1569 O   0  0  0  0  0  0  0  0  0  0  0  0
    8.1284  -18.5443   23.1731 C   0  0  0  0  0  0  0  0  0  0  0  0
    8.6248  -17.8309   21.9754 C   0  0  0  0  0  0  0  0  0  0  0  0
    8.1403  -16.3953   21.9632 C   0  0  2  0  0  0  0  0  0  0  0  0
    8.7187  -15.7403   20.7660 N   0  0  0  0  0  0  0  0  0  0  0  0
    8.5477  -15.5983   23.1321 C   0  0  0  0  0  0  0  0  0  0  0  0
    9.7555  -15.2059   23.2321 O   0  0  0  0  0  0  0  0  0  0  0  0
    6.1774  -10.5971   28.6484 C   0  0  0  0  0  0  0  0  0  0  0  0
    5.8573  -11.5949   27.1692 S   0  0  0  0  0  0  0  0  0  0  0  0
    7.1742  -12.8428   27.0436 C   0  0  0  0  0  0  0  0  0  0  0  0
    6.9731  -13.6002   25.7693 C   0  0  0  0  0  0  0  0  0  0  0  0
    8.1788  -14.3870   25.3125 C   0  0  2  0  0  0  0  0  0  0  0  0
    7.6987  -15.2057   24.1900 N   0  0  0  0  0  0  0  0  0  0  0  0
    8.7678  -15.2508   26.3331 C   0  0  0  0  0  0  0  0  0  0  0  0
    8.4587  -16.4856   26.3422 O   0  0  0  0  0  0  0  0  0  0  0  0
    9.6631  -14.7845   27.3098 O   0  0  0  0  0  0  0  0  0  0  0  0
  2  1  1  1
  2  3  1  0
  4  2  1  0
  5  4  2  0
  6  7  1  0
  7  8  2  0
  9  7  1  0
  9 10  1  0
 11 10  1  1
 11 13  1  0
 11 12  1  0
 12  4  1  0
 13 20  1  0
 14 13  2  0
 16 17  1  0
 16 15  1  0
 19 18  1  1
 18 17  1  0
 20 19  1  0
 21 23  1  0
 21 19  1  0
 22 21  2  0
M  END
$$$$
