AQM.pdb
     RDKit          3D

 23 22  0  0  1  0  0  0  0  0999 V2000
    7.8239  -12.4946   19.1320 C   0  0  0  0  0  0  0  0  0  0  0  0
    8.5119  -13.8203   18.7895 C   0  0  2  0  0  0  0  0  0  0  0  0
    7.9641  -14.4034   17.6166 N   0  0  0  0  0  0  0  0  0  0  0  0
    8.4197  -14.6648   19.9938 C   0  0  0  0  0  0  0  0  0  0  0  0
    7.4314  -14.5173   20.7491 O   0  0  0  0  0  0  0  0  0  0  0  0
   12.0104  -20.1237   23.3054 N   0  0  0  0  0  0  0  0  0  0  0  0
   11.1869  -19.7653   22.2145 C   0  0  0  0  0  0  0  0  0  0  0  0
   11.2639  -20.4093   21.1586 O   0  0  0  0  0  0  0  0  0  0  0  0
   10.2567  -18.6042   22.4165 C   0  0  0  0  0  0  0  0  0  0  0  0
   10.2869  -17.6610   21.2766 C   0  0  0  0  0  0  0  0  0  0  0  0
    9.2718  -16.5522   21.4669 C   0  0  2  0  0  0  0  0  0  0  0  0
    9.4035  -15.6259   20.3174 N   0  0  0  0  0  0  0  0  0  0  0  0
    9.4550  -15.7534   22.6900 C   0  0  0  0  0  0  0  0  0  0  0  0
   10.4177  -14.9217   22.7561 O   0  0  0  0  0  0  0  0  0  0  0  0
    6.3412  -10.8843   27.5440 C   0  0  0  0  0  0  0  0  0  0  0  0
    6.1545  -12.2271   26.3407 S   0  0  0  0  0  0  0  0  0  0  0  0
    7.6894  -13.2024   26.3520 C   0  0  0  0  0  0  0  0  0  0  0  0
    7.6698  -14.1087   25.1618 C   0  0  0  0  0  0  0  0  0  0  0  0
    8.8904  -14.9877   25.0250 C   0  0  2  0  0  0  0  0  0  0  0  0
    8.6347  -15.8157   23.8376 N   0  0  0  0  0  0  0  0  0  0  0  0
    9.1561  -15.8485   26.1753 C   0  0  0  0  0  0  0  0  0  0  0  0
    8.8923  -17.0904   26.0840 O   0  0  0  0  0  0  0  0  0  0  0  0
    9.6912  -15.3716   27.3833 O   0  0  0  0  0  0  0  0  0  0  0  0
  2  1  1  1
  2  3  1  0
  4  2  1  0
  5  4  2  0
  6  7  1  0
  7  8  2  0
  9  7  1  0
  9 10  1  0
 11 10  1  6
 11 13  1  0
 11 12  1  0
 12  4  1  0
 13 20  1  0
 14 13  2  0
 16 17  1  0
 16 15  1  0
 19 18  1  1
 18 17  1  0
 20 19  1  0
 21 23  1  0
 21 19  1  0
 22 21  2  0
M  END
$$$$
