AQM.pdb
     RDKit          3D

 23 22  0  0  1  0  0  0  0  0999 V2000
    5.3538  -20.0455   21.9550 C   0  0  0  0  0  0  0  0  0  0  0  0
    5.7030  -18.9597   22.9783 C   0  0  2  0  0  0  0  0  0  0  0  0
    4.6048  -18.0905   23.2105 N   0  0  0  0  0  0  0  0  0  0  0  0
    6.9193  -18.2910   22.4826 C   0  0  0  0  0  0  0  0  0  0  0  0
    7.9843  -18.9490   22.4406 O   0  0  0  0  0  0  0  0  0  0  0  0
    7.3591  -12.6734   18.9182 N   0  0  0  0  0  0  0  0  0  0  0  0
    8.1875  -12.8750   20.0449 C   0  0  0  0  0  0  0  0  0  0  0  0
    9.2417  -12.2314   20.1463 O   0  0  0  0  0  0  0  0  0  0  0  0
    7.7218  -13.8766   21.0618 C   0  0  0  0  0  0  0  0  0  0  0  0
    7.7367  -15.2579   20.5310 C   0  0  0  0  0  0  0  0  0  0  0  0
    8.1449  -16.2445   21.6061 C   0  0  2  0  0  0  0  0  0  0  0  0
    6.9185  -16.9434   22.0580 N   0  0  0  0  0  0  0  0  0  0  0  0
    8.7608  -15.6368   22.7973 C   0  0  0  0  0  0  0  0  0  0  0  0
    9.2375  -14.4579   22.7231 O   0  0  0  0  0  0  0  0  0  0  0  0
    6.4133  -12.3809   25.3596 C   0  0  0  0  0  0  0  0  0  0  0  0
    7.6928  -12.0774   26.6073 S   0  0  0  0  0  0  0  0  0  0  0  0
    8.8159  -13.5078   26.6124 C   0  0  0  0  0  0  0  0  0  0  0  0
    8.5194  -14.3324   25.3999 C   0  0  0  0  0  0  0  0  0  0  0  0
    9.4109  -15.5400   25.2315 C   0  0  2  0  0  0  0  0  0  0  0  0
    8.8739  -16.2523   24.0632 N   0  0  0  0  0  0  0  0  0  0  0  0
    9.4449  -16.4401   26.3819 C   0  0  0  0  0  0  0  0  0  0  0  0
    8.8630  -17.5687   26.2931 O   0  0  0  0  0  0  0  0  0  0  0  0
   10.0914  -16.1208   27.5874 O   0  0  0  0  0  0  0  0  0  0  0  0
  2  1  1  6
  2  3  1  0
  4  2  1  0
  5  4  2  0
  6  7  1  0
  7  8  2  0
  9  7  1  0
  9 10  1  0
 11 10  1  6
 11 13  1  0
 11 12  1  0
 12  4  1  0
 13 20  1  0
 14 13  2  0
 16 17  1  0
 16 15  1  0
 19 18  1  1
 18 17  1  0
 20 19  1  0
 21 23  1  0
 21 19  1  0
 22 21  2  0
M  END
$$$$
