AQM.pdb
     RDKit          3D

 23 22  0  0  1  0  0  0  0  0999 V2000
    8.4131  -12.1166   19.5357 C   0  0  0  0  0  0  0  0  0  0  0  0
    8.2632  -13.4989   18.8916 C   0  0  2  0  0  0  0  0  0  0  0  0
    7.1937  -13.5252   17.9582 N   0  0  0  0  0  0  0  0  0  0  0  0
    8.1357  -14.4657   19.9966 C   0  0  0  0  0  0  0  0  0  0  0  0
    6.9989  -14.6658   20.4832 O   0  0  0  0  0  0  0  0  0  0  0  0
    8.9547  -20.6510   21.3617 N   0  0  0  0  0  0  0  0  0  0  0  0
   10.1072  -19.8465   21.5060 C   0  0  0  0  0  0  0  0  0  0  0  0
   11.2052  -20.2871   21.1370 O   0  0  0  0  0  0  0  0  0  0  0  0
    9.9159  -18.4851   22.1095 C   0  0  0  0  0  0  0  0  0  0  0  0
    9.9215  -17.4161   21.0862 C   0  0  0  0  0  0  0  0  0  0  0  0
    9.1176  -16.2191   21.5522 C   0  0  2  0  0  0  0  0  0  0  0  0
    9.2469  -15.1658   20.5175 N   0  0  0  0  0  0  0  0  0  0  0  0
    9.5682  -15.6330   22.8254 C   0  0  0  0  0  0  0  0  0  0  0  0
   10.3415  -14.6208   22.8096 O   0  0  0  0  0  0  0  0  0  0  0  0
    5.7082  -12.2477   27.8676 C   0  0  0  0  0  0  0  0  0  0  0  0
    7.0315  -12.3591   26.6337 S   0  0  0  0  0  0  0  0  0  0  0  0
    7.0866  -14.0736   26.0296 C   0  0  0  0  0  0  0  0  0  0  0  0
    8.1676  -14.1661   24.9996 C   0  0  0  0  0  0  0  0  0  0  0  0
    9.2170  -15.2138   25.2868 C   0  0  2  0  0  0  0  0  0  0  0  0
    9.2095  -16.0954   24.1105 N   0  0  0  0  0  0  0  0  0  0  0  0
    8.9790  -16.0032   26.4930 C   0  0  0  0  0  0  0  0  0  0  0  0
    8.3060  -17.0794   26.3969 O   0  0  0  0  0  0  0  0  0  0  0  0
    9.4583  -15.6321   27.7601 O   0  0  0  0  0  0  0  0  0  0  0  0
  2  1  1  1
  2  3  1  0
  4  2  1  0
  5  4  2  0
  6  7  1  0
  7  8  2  0
  9  7  1  0
  9 10  1  0
 11 10  1  6
 11 13  1  0
 11 12  1  0
 12  4  1  0
 13 20  1  0
 14 13  2  0
 16 17  1  0
 16 15  1  0
 19 18  1  6
 18 17  1  0
 20 19  1  0
 21 23  1  0
 21 19  1  0
 22 21  2  0
M  END
$$$$
