AQM.pdb
     RDKit          3D

 23 22  0  0  1  0  0  0  0  0999 V2000
    6.9975  -13.0483   18.5355 C   0  0  0  0  0  0  0  0  0  0  0  0
    8.3675  -13.2851   19.1798 C   0  0  2  0  0  0  0  0  0  0  0  0
    9.3436  -13.6405   18.2121 N   0  0  0  0  0  0  0  0  0  0  0  0
    8.1647  -14.2867   20.2418 C   0  0  0  0  0  0  0  0  0  0  0  0
    7.2838  -14.0680   21.1049 O   0  0  0  0  0  0  0  0  0  0  0  0
   10.9941  -19.0268   19.1526 N   0  0  0  0  0  0  0  0  0  0  0  0
    9.6090  -19.0784   18.8780 C   0  0  0  0  0  0  0  0  0  0  0  0
    9.2112  -19.6881   17.8751 O   0  0  0  0  0  0  0  0  0  0  0  0
    8.6974  -18.3754   19.8418 C   0  0  0  0  0  0  0  0  0  0  0  0
    9.4418  -17.7467   20.9556 C   0  0  0  0  0  0  0  0  0  0  0  0
    8.7650  -16.4666   21.4021 C   0  0  2  0  0  0  0  0  0  0  0  0
    8.9273  -15.4740   20.3134 N   0  0  0  0  0  0  0  0  0  0  0  0
    9.3278  -15.8663   22.6229 C   0  0  0  0  0  0  0  0  0  0  0  0
    9.9647  -14.7660   22.5432 O   0  0  0  0  0  0  0  0  0  0  0  0
    6.2685  -11.5467   27.2654 C   0  0  0  0  0  0  0  0  0  0  0  0
    6.5650  -12.5655   25.7956 S   0  0  0  0  0  0  0  0  0  0  0  0
    7.8464  -13.7864   26.2136 C   0  0  0  0  0  0  0  0  0  0  0  0
    8.1088  -14.6160   24.9967 C   0  0  0  0  0  0  0  0  0  0  0  0
    9.2785  -15.5628   25.1255 C   0  0  2  0  0  0  0  0  0  0  0  0
    9.2221  -16.4067   23.9232 N   0  0  0  0  0  0  0  0  0  0  0  0
    9.2541  -16.4061   26.3184 C   0  0  0  0  0  0  0  0  0  0  0  0
    8.8530  -17.6093   26.2090 O   0  0  0  0  0  0  0  0  0  0  0  0
    9.6535  -15.9534   27.5866 O   0  0  0  0  0  0  0  0  0  0  0  0
  2  1  1  6
  2  3  1  0
  4  2  1  0
  5  4  2  0
  6  7  1  0
  7  8  2  0
  9  7  1  0
  9 10  1  0
 11 10  1  6
 11 13  1  0
 11 12  1  0
 12  4  1  0
 13 20  1  0
 14 13  2  0
 16 17  1  0
 16 15  1  0
 19 18  1  1
 18 17  1  0
 20 19  1  0
 21 23  1  0
 21 19  1  0
 22 21  2  0
M  END
$$$$
