AQM.pdb
     RDKit          3D

 23 22  0  0  1  0  0  0  0  0999 V2000
   11.4626  -17.6042   19.1388 C   0  0  0  0  0  0  0  0  0  0  0  0
   11.3279  -18.1780   20.5532 C   0  0  2  0  0  0  0  0  0  0  0  0
   10.5452  -19.3625   20.5623 N   0  0  0  0  0  0  0  0  0  0  0  0
   10.8038  -17.0910   21.3993 C   0  0  0  0  0  0  0  0  0  0  0  0
   11.5654  -16.1375   21.6816 O   0  0  0  0  0  0  0  0  0  0  0  0
    6.1712  -14.7797   26.2708 N   0  0  0  0  0  0  0  0  0  0  0  0
    6.5425  -15.7829   25.3476 C   0  0  0  0  0  0  0  0  0  0  0  0
    6.5532  -16.9677   25.7103 O   0  0  0  0  0  0  0  0  0  0  0  0
    6.9057  -15.3322   23.9622 C   0  0  0  0  0  0  0  0  0  0  0  0
    7.5489  -16.4088   23.1766 C   0  0  0  0  0  0  0  0  0  0  0  0
    8.9322  -15.9911   22.7207 C   0  0  2  0  0  0  0  0  0  0  0  0
    9.4811  -17.0936   21.8960 N   0  0  0  0  0  0  0  0  0  0  0  0
    9.8916  -15.7465   23.8103 C   0  0  0  0  0  0  0  0  0  0  0  0
   10.5696  -14.6680   23.8171 O   0  0  0  0  0  0  0  0  0  0  0  0
    8.6656  -11.9917   27.2665 C   0  0  0  0  0  0  0  0  0  0  0  0
   10.1007  -12.8658   27.9468 S   0  0  0  0  0  0  0  0  0  0  0  0
    9.6854  -14.6341   28.0345 C   0  0  0  0  0  0  0  0  0  0  0  0
    9.5263  -15.1413   26.6361 C   0  0  0  0  0  0  0  0  0  0  0  0
   10.5857  -16.1275   26.2042 C   0  0  2  0  0  0  0  0  0  0  0  0
   10.1393  -16.6189   24.8927 N   0  0  0  0  0  0  0  0  0  0  0  0
   10.7768  -17.2563   27.1120 C   0  0  0  0  0  0  0  0  0  0  0  0
   11.3577  -17.0537   28.2263 O   0  0  0  0  0  0  0  0  0  0  0  0
   10.3490  -18.5608   26.8151 O   0  0  0  0  0  0  0  0  0  0  0  0
  2  1  1  6
  2  3  1  0
  4  2  1  0
  5  4  2  0
  6  7  1  0
  7  8  2  0
  9  7  1  0
  9 10  1  0
 11 10  1  1
 11 13  1  0
 11 12  1  0
 12  4  1  0
 13 20  1  0
 14 13  2  0
 16 17  1  0
 16 15  1  0
 19 18  1  1
 18 17  1  0
 20 19  1  0
 21 23  1  0
 21 19  1  0
 22 21  2  0
M  END
$$$$
