AQM.pdb
     RDKit          3D

 23 22  0  0  1  0  0  0  0  0999 V2000
    5.1119  -20.1857   21.5793 C   0  0  0  0  0  0  0  0  0  0  0  0
    4.9868  -18.8340   22.2901 C   0  0  2  0  0  0  0  0  0  0  0  0
    3.7822  -18.1702   21.9381 N   0  0  0  0  0  0  0  0  0  0  0  0
    6.2147  -18.0806   21.9790 C   0  0  0  0  0  0  0  0  0  0  0  0
    7.3193  -18.6102   22.2402 O   0  0  0  0  0  0  0  0  0  0  0  0
    8.3480  -12.3199   18.1196 N   0  0  0  0  0  0  0  0  0  0  0  0
    8.2475  -13.7253   18.2256 C   0  0  0  0  0  0  0  0  0  0  0  0
    8.0953  -14.4022   17.1987 O   0  0  0  0  0  0  0  0  0  0  0  0
    8.3340  -14.3118   19.6050 C   0  0  0  0  0  0  0  0  0  0  0  0
    7.1405  -15.1186   19.9435 C   0  0  0  0  0  0  0  0  0  0  0  0
    7.4059  -15.9937   21.1517 C   0  0  2  0  0  0  0  0  0  0  0  0
    6.1821  -16.7919   21.4008 N   0  0  0  0  0  0  0  0  0  0  0  0
    7.7025  -15.2574   22.3916 C   0  0  0  0  0  0  0  0  0  0  0  0
    7.1668  -14.1182   22.5866 O   0  0  0  0  0  0  0  0  0  0  0  0
    6.3753  -11.7521   28.2303 C   0  0  0  0  0  0  0  0  0  0  0  0
    6.1578  -12.9302   26.8698 S   0  0  0  0  0  0  0  0  0  0  0  0
    7.8063  -13.5105   26.3668 C   0  0  0  0  0  0  0  0  0  0  0  0
    7.6521  -14.3075   25.1102 C   0  0  0  0  0  0  0  0  0  0  0  0
    8.9475  -14.8392   24.5440 C   0  0  2  0  0  0  0  0  0  0  0  0
    8.5490  -15.7088   23.4279 N   0  0  0  0  0  0  0  0  0  0  0  0
    9.7627  -15.5977   25.4900 C   0  0  0  0  0  0  0  0  0  0  0  0
    9.6984  -16.8689   25.4710 O   0  0  0  0  0  0  0  0  0  0  0  0
   10.6185  -14.9912   26.4242 O   0  0  0  0  0  0  0  0  0  0  0  0
  2  1  1  6
  2  3  1  0
  4  2  1  0
  5  4  2  0
  6  7  1  0
  7  8  2  0
  9  7  1  0
  9 10  1  0
 11 10  1  6
 11 13  1  0
 11 12  1  0
 12  4  1  0
 13 20  1  0
 14 13  2  0
 16 17  1  0
 16 15  1  0
 19 18  1  1
 18 17  1  0
 20 19  1  0
 21 23  1  0
 21 19  1  0
 22 21  2  0
M  END
$$$$
