AQM.pdb
     RDKit          3D

 23 22  0  0  1  0  0  0  0  0999 V2000
    9.5993  -16.6733   18.5951 C   0  0  0  0  0  0  0  0  0  0  0  0
    9.7074  -17.5615   19.8391 C   0  0  2  0  0  0  0  0  0  0  0  0
    8.5916  -18.4315   19.9563 N   0  0  0  0  0  0  0  0  0  0  0  0
    9.9014  -16.6563   20.9859 C   0  0  0  0  0  0  0  0  0  0  0  0
   10.6742  -15.6802   20.8487 O   0  0  0  0  0  0  0  0  0  0  0  0
    5.5050  -15.0256   24.8991 N   0  0  0  0  0  0  0  0  0  0  0  0
    6.5535  -14.1621   25.2885 C   0  0  0  0  0  0  0  0  0  0  0  0
    6.2918  -13.1533   25.9590 O   0  0  0  0  0  0  0  0  0  0  0  0
    7.9407  -14.5363   24.8528 C   0  0  0  0  0  0  0  0  0  0  0  0
    7.9314  -15.5205   23.7477 C   0  0  0  0  0  0  0  0  0  0  0  0
    9.3439  -15.8926   23.3448 C   0  0  2  0  0  0  0  0  0  0  0  0
    9.2477  -16.8559   22.2225 N   0  0  0  0  0  0  0  0  0  0  0  0
   10.1359  -16.5394   24.4040 C   0  0  0  0  0  0  0  0  0  0  0  0
    9.7399  -17.6466   24.8940 O   0  0  0  0  0  0  0  0  0  0  0  0
    9.6845  -12.5979   28.1836 C   0  0  0  0  0  0  0  0  0  0  0  0
    9.5133  -14.0874   29.2025 S   0  0  0  0  0  0  0  0  0  0  0  0
   10.6620  -15.3399   28.5551 C   0  0  0  0  0  0  0  0  0  0  0  0
   10.7094  -15.1980   27.0666 C   0  0  0  0  0  0  0  0  0  0  0  0
   11.6567  -16.1513   26.3773 C   0  0  2  0  0  0  0  0  0  0  0  0
   11.3395  -16.0383   24.9464 N   0  0  0  0  0  0  0  0  0  0  0  0
   11.5351  -17.5452   26.7982 C   0  0  0  0  0  0  0  0  0  0  0  0
   12.3691  -18.0040   27.6434 O   0  0  0  0  0  0  0  0  0  0  0  0
   10.5386  -18.4088   26.3145 O   0  0  0  0  0  0  0  0  0  0  0  0
  2  1  1  6
  2  3  1  0
  4  2  1  0
  5  4  2  0
  6  7  1  0
  7  8  2  0
  9  7  1  0
  9 10  1  0
 11 10  1  1
 11 13  1  0
 11 12  1  0
 12  4  1  0
 13 20  1  0
 14 13  2  0
 16 17  1  0
 16 15  1  0
 19 18  1  1
 18 17  1  0
 20 19  1  0
 21 23  1  0
 21 19  1  0
 22 21  2  0
M  END
$$$$
