AQM.pdb
     RDKit          3D

 23 22  0  0  1  0  0  0  0  0999 V2000
    6.3268  -19.2338   24.0618 C   0  0  0  0  0  0  0  0  0  0  0  0
    6.6622  -19.3965   22.5755 C   0  0  2  0  0  0  0  0  0  0  0  0
    7.0580  -20.7261   22.2735 N   0  0  0  0  0  0  0  0  0  0  0  0
    7.6709  -18.3700   22.2576 C   0  0  0  0  0  0  0  0  0  0  0  0
    8.8794  -18.6508   22.4298 O   0  0  0  0  0  0  0  0  0  0  0  0
    8.0184  -11.8111   19.2131 N   0  0  0  0  0  0  0  0  0  0  0  0
    8.0701  -13.1918   18.9170 C   0  0  0  0  0  0  0  0  0  0  0  0
    7.6454  -13.5946   17.8248 O   0  0  0  0  0  0  0  0  0  0  0  0
    8.6486  -14.0925   19.9697 C   0  0  0  0  0  0  0  0  0  0  0  0
    7.7034  -15.1573   20.3730 C   0  0  0  0  0  0  0  0  0  0  0  0
    8.3238  -16.0618   21.4184 C   0  0  2  0  0  0  0  0  0  0  0  0
    7.3177  -17.0920   21.7695 N   0  0  0  0  0  0  0  0  0  0  0  0
    8.7054  -15.3853   22.6692 C   0  0  0  0  0  0  0  0  0  0  0  0
    9.6049  -14.4835   22.6439 O   0  0  0  0  0  0  0  0  0  0  0  0
    6.0758  -11.0164   26.6471 C   0  0  0  0  0  0  0  0  0  0  0  0
    7.7598  -11.6859   26.6958 S   0  0  0  0  0  0  0  0  0  0  0  0
    7.6376  -13.4819   26.9544 C   0  0  0  0  0  0  0  0  0  0  0  0
    7.4470  -14.1291   25.6192 C   0  0  0  0  0  0  0  0  0  0  0  0
    8.6204  -14.9578   25.1526 C   0  0  2  0  0  0  0  0  0  0  0  0
    8.1477  -15.6425   23.9408 N   0  0  0  0  0  0  0  0  0  0  0  0
    9.0953  -15.9445   26.1199 C   0  0  0  0  0  0  0  0  0  0  0  0
    8.8643  -17.1769   25.9003 O   0  0  0  0  0  0  0  0  0  0  0  0
    9.7979  -15.5994   27.2862 O   0  0  0  0  0  0  0  0  0  0  0  0
  2  1  1  1
  2  3  1  0
  4  2  1  0
  5  4  2  0
  6  7  1  0
  7  8  2  0
  9  7  1  0
  9 10  1  0
 11 10  1  6
 11 13  1  0
 11 12  1  0
 12  4  1  0
 13 20  1  0
 14 13  2  0
 16 17  1  0
 16 15  1  0
 19 18  1  1
 18 17  1  0
 20 19  1  0
 21 23  1  0
 21 19  1  0
 22 21  2  0
M  END
$$$$
