IYM.pdb
     RDKit          3D

 29 29  0  0  1  0  0  0  0  0999 V2000
   29.7715  -17.8172  -19.5775 C   0  0  0  0  0  0  0  0  0  0  0  0
   28.5768  -18.2762  -18.8222 C   0  0  0  0  0  0  0  0  0  0  0  0
   28.0633  -19.6480  -19.1944 C   0  0  2  0  0  0  0  0  0  0  0  0
   27.9918  -19.7349  -20.7139 C   0  0  0  0  0  0  0  0  0  0  0  0
   26.7473  -19.9464  -18.5308 C   0  0  2  0  0  0  0  0  0  0  0  0
   26.0382  -18.6513  -18.4951 N   0  0  0  0  0  0  0  0  0  0  0  0
   26.8422  -20.4114  -17.1388 C   0  0  0  0  0  0  0  0  0  0  0  0
   27.2216  -21.6085  -16.9250 O   0  0  0  0  0  0  0  0  0  0  0  0
   28.0242  -20.5775   -8.3406 O   0  0  0  0  0  0  0  0  0  0  0  0
   27.8806  -20.2692   -9.6966 C   0  0  0  0  0  0  0  0  0  0  0  0
   28.6426  -20.9050  -10.6560 C   0  0  0  0  0  0  0  0  0  0  0  0
   28.4855  -20.5857  -11.9961 C   0  0  0  0  0  0  0  0  0  0  0  0
   27.5764  -19.6369  -12.4060 C   0  0  0  0  0  0  0  0  0  0  0  0
   27.4209  -19.2848  -13.8055 C   0  0  0  0  0  0  0  0  0  0  0  0
   26.5878  -20.2327  -14.6363 C   0  0  2  0  0  0  0  0  0  0  0  0
   26.5570  -19.6644  -15.9722 N   0  0  0  0  0  0  0  0  0  0  0  0
   25.2710  -20.3872  -14.0090 C   0  0  0  0  0  0  0  0  0  0  0  0
   24.5058  -19.3844  -14.0401 O   0  0  0  0  0  0  0  0  0  0  0  0
   26.8280  -19.0154  -11.4365 C   0  0  0  0  0  0  0  0  0  0  0  0
   26.9696  -19.3196  -10.0960 C   0  0  0  0  0  0  0  0  0  0  0  0
   25.0162  -21.4632   -8.0936 C   0  0  0  0  0  0  0  0  0  0  0  0
   23.5204  -20.5110   -8.4384 S   0  0  0  0  0  0  0  0  0  0  0  0
   22.9637  -20.9557  -10.1308 C   0  0  0  0  0  0  0  0  0  0  0  0
   24.1539  -21.0159  -11.0619 C   0  0  0  0  0  0  0  0  0  0  0  0
   23.7010  -21.4596  -12.4260 C   0  0  2  0  0  0  0  0  0  0  0  0
   24.7969  -21.5418  -13.3816 N   0  0  0  0  0  0  0  0  0  0  0  0
   22.6792  -20.4687  -12.9650 C   0  0  0  0  0  0  0  0  0  0  0  0
   22.9627  -19.2551  -13.1144 O   0  0  0  0  0  0  0  0  0  0  0  0
   21.3977  -20.8715  -13.3104 O   0  0  0  0  0  0  0  0  0  0  0  0
  2  1  1  0
  3  2  1  0
  3  4  1  6
  5  6  1  1
  5  3  1  0
  7  5  1  0
  7  8  2  0
  9 10  1  0
 10 11  2  0
 11 12  1  0
 13 12  2  0
 13 14  1  0
 15 14  1  1
 15 16  1  0
 15 17  1  0
 16  7  1  0
 17 26  1  0
 18 17  2  0
 19 13  1  0
 20 10  1  0
 20 19  2  0
 21 22  1  0
 22 23  1  0
 23 24  1  0
 25 24  1  1
 25 27  1  0
 26 25  1  0
 27 28  2  0
 27 29  1  0
M  END
$$$$
