IYM.pdb
     RDKit          3D

 29 29  0  0  1  0  0  0  0  0999 V2000
   30.3600  -17.2178  -18.6604 C   0  0  0  0  0  0  0  0  0  0  0  0
   29.6726  -18.4856  -18.3019 C   0  0  0  0  0  0  0  0  0  0  0  0
   28.6233  -18.3697  -17.2205 C   0  0  2  0  0  0  0  0  0  0  0  0
   29.2858  -17.8023  -15.9713 C   0  0  0  0  0  0  0  0  0  0  0  0
   27.9370  -19.6843  -16.9706 C   0  0  2  0  0  0  0  0  0  0  0  0
   27.2996  -20.0300  -18.2573 N   0  0  0  0  0  0  0  0  0  0  0  0
   26.8627  -19.6458  -15.9669 C   0  0  0  0  0  0  0  0  0  0  0  0
   25.9397  -18.7783  -16.1011 O   0  0  0  0  0  0  0  0  0  0  0  0
   19.6660  -21.0970  -11.5210 O   0  0  0  0  0  0  0  0  0  0  0  0
   20.8679  -21.1141  -12.2348 C   0  0  0  0  0  0  0  0  0  0  0  0
   21.2663  -20.0261  -12.9850 C   0  0  0  0  0  0  0  0  0  0  0  0
   22.4621  -20.0621  -13.6859 C   0  0  0  0  0  0  0  0  0  0  0  0
   23.2785  -21.1698  -13.6557 C   0  0  0  0  0  0  0  0  0  0  0  0
   24.5221  -21.2206  -14.4026 C   0  0  0  0  0  0  0  0  0  0  0  0
   25.6440  -20.3559  -13.8766 C   0  0  2  0  0  0  0  0  0  0  0  0
   26.7256  -20.4851  -14.8368 N   0  0  0  0  0  0  0  0  0  0  0  0
   25.9821  -20.7868  -12.5159 C   0  0  0  0  0  0  0  0  0  0  0  0
   26.4000  -21.9697  -12.3820 O   0  0  0  0  0  0  0  0  0  0  0  0
   22.8647  -22.2422  -12.9040 C   0  0  0  0  0  0  0  0  0  0  0  0
   21.6767  -22.2258  -12.1984 C   0  0  0  0  0  0  0  0  0  0  0  0
   30.0074  -19.6340   -6.8516 C   0  0  0  0  0  0  0  0  0  0  0  0
   28.3050  -19.1314   -7.1868 S   0  0  0  0  0  0  0  0  0  0  0  0
   27.6564  -20.2323   -8.5055 C   0  0  0  0  0  0  0  0  0  0  0  0
   26.2918  -19.7531   -8.9473 C   0  0  0  0  0  0  0  0  0  0  0  0
   25.7847  -20.6362  -10.0544 C   0  0  2  0  0  0  0  0  0  0  0  0
   25.8781  -20.0046  -11.3632 N   0  0  0  0  0  0  0  0  0  0  0  0
   24.3233  -20.9763   -9.7986 C   0  0  0  0  0  0  0  0  0  0  0  0
   23.3970  -20.3199  -10.3340 O   0  0  0  0  0  0  0  0  0  0  0  0
   23.9629  -22.0242   -8.9645 O   0  0  0  0  0  0  0  0  0  0  0  0
  2  1  1  0
  3  2  1  0
  3  4  1  1
  5  6  1  6
  5  3  1  0
  7  5  1  0
  7  8  2  0
  9 10  1  0
 10 11  2  0
 11 12  1  0
 13 12  2  0
 13 14  1  0
 15 14  1  6
 15 16  1  0
 15 17  1  0
 16  7  1  0
 17 26  1  0
 18 17  2  0
 19 13  1  0
 20 10  1  0
 20 19  2  0
 21 22  1  0
 22 23  1  0
 23 24  1  0
 25 24  1  1
 25 27  1  0
 26 25  1  0
 27 28  2  0
 27 29  1  0
M  END
$$$$
