IYM.pdb
     RDKit          3D

 29 29  0  0  1  0  0  0  0  0999 V2000
   29.7534  -19.2199  -15.8693 C   0  0  0  0  0  0  0  0  0  0  0  0
   29.9884  -19.4629  -14.4221 C   0  0  0  0  0  0  0  0  0  0  0  0
   28.7953  -19.9773  -13.6502 C   0  0  2  0  0  0  0  0  0  0  0  0
   27.6401  -19.0047  -13.8527 C   0  0  0  0  0  0  0  0  0  0  0  0
   29.1259  -20.1959  -12.1995 C   0  0  2  0  0  0  0  0  0  0  0  0
   30.1400  -21.2696  -12.1991 N   0  0  0  0  0  0  0  0  0  0  0  0
   28.0087  -20.6734  -11.3706 C   0  0  0  0  0  0  0  0  0  0  0  0
   27.6911  -21.9053  -11.4344 O   0  0  0  0  0  0  0  0  0  0  0  0
   29.0823  -20.3443   -4.1724 O   0  0  0  0  0  0  0  0  0  0  0  0
   28.2541  -20.1471   -5.2812 C   0  0  0  0  0  0  0  0  0  0  0  0
   27.5098  -21.1836   -5.8076 C   0  0  0  0  0  0  0  0  0  0  0  0
   26.6939  -20.9681   -6.9077 C   0  0  0  0  0  0  0  0  0  0  0  0
   26.6020  -19.7298   -7.5016 C   0  0  0  0  0  0  0  0  0  0  0  0
   25.7643  -19.5027   -8.6650 C   0  0  0  0  0  0  0  0  0  0  0  0
   26.0166  -20.4089   -9.8473 C   0  0  2  0  0  0  0  0  0  0  0  0
   27.2223  -19.9053  -10.4807 N   0  0  0  0  0  0  0  0  0  0  0  0
   24.8302  -20.4110  -10.7099 C   0  0  0  0  0  0  0  0  0  0  0  0
   24.6654  -19.4037  -11.4516 O   0  0  0  0  0  0  0  0  0  0  0  0
   27.3503  -18.7115   -6.9635 C   0  0  0  0  0  0  0  0  0  0  0  0
   28.1693  -18.9060   -5.8676 C   0  0  0  0  0  0  0  0  0  0  0  0
   22.7246  -25.1350  -14.4810 C   0  0  0  0  0  0  0  0  0  0  0  0
   21.1379  -24.3603  -14.0998 S   0  0  0  0  0  0  0  0  0  0  0  0
   21.4902  -22.6908  -13.4213 C   0  0  0  0  0  0  0  0  0  0  0  0
   22.5798  -22.7822  -12.3767 C   0  0  0  0  0  0  0  0  0  0  0  0
   22.8613  -21.4115  -11.8248 C   0  0  2  0  0  0  0  0  0  0  0  0
   23.8723  -21.4255  -10.7767 N   0  0  0  0  0  0  0  0  0  0  0  0
   21.5821  -20.8319  -11.2378 C   0  0  0  0  0  0  0  0  0  0  0  0
   21.3648  -20.8494  -10.0017 O   0  0  0  0  0  0  0  0  0  0  0  0
   20.6106  -20.2635  -12.0482 O   0  0  0  0  0  0  0  0  0  0  0  0
  2  1  1  0
  3  2  1  0
  3  4  1  1
  5  6  1  6
  5  3  1  0
  7  5  1  0
  7  8  2  0
  9 10  1  0
 10 11  2  0
 11 12  1  0
 13 12  2  0
 13 14  1  0
 15 14  1  1
 15 16  1  0
 15 17  1  0
 16  7  1  0
 17 26  1  0
 18 17  2  0
 19 13  1  0
 20 10  1  0
 20 19  2  0
 21 22  1  0
 22 23  1  0
 23 24  1  0
 25 24  1  1
 25 27  1  0
 26 25  1  0
 27 28  2  0
 27 29  1  0
M  END
$$$$
