IYM.pdb
     RDKit          3D

 29 29  0  0  1  0  0  0  0  0999 V2000
   29.6413  -18.2416  -17.7184 C   0  0  0  0  0  0  0  0  0  0  0  0
   28.1758  -18.0128  -17.8097 C   0  0  0  0  0  0  0  0  0  0  0  0
   27.4842  -17.7156  -16.4993 C   0  0  2  0  0  0  0  0  0  0  0  0
   27.9459  -16.3467  -16.0153 C   0  0  0  0  0  0  0  0  0  0  0  0
   27.7223  -18.8025  -15.4876 C   0  0  2  0  0  0  0  0  0  0  0  0
   27.4954  -20.0625  -16.2240 N   0  0  0  0  0  0  0  0  0  0  0  0
   26.7922  -18.8087  -14.3484 C   0  0  0  0  0  0  0  0  0  0  0  0
   26.7988  -17.8113  -13.5562 O   0  0  0  0  0  0  0  0  0  0  0  0
   19.4216  -20.1326   -9.6310 O   0  0  0  0  0  0  0  0  0  0  0  0
   20.4916  -20.2439  -10.5238 C   0  0  0  0  0  0  0  0  0  0  0  0
   21.3596  -21.3156  -10.4651 C   0  0  0  0  0  0  0  0  0  0  0  0
   22.4149  -21.4085  -11.3596 C   0  0  0  0  0  0  0  0  0  0  0  0
   22.6271  -20.4472  -12.3216 C   0  0  0  0  0  0  0  0  0  0  0  0
   23.7411  -20.5293  -13.2484 C   0  0  0  0  0  0  0  0  0  0  0  0
   24.9735  -19.7407  -12.8710 C   0  0  2  0  0  0  0  0  0  0  0  0
   25.8596  -19.8196  -14.0186 N   0  0  0  0  0  0  0  0  0  0  0  0
   25.5316  -20.2903  -11.6309 C   0  0  0  0  0  0  0  0  0  0  0  0
   26.1690  -21.3750  -11.7266 O   0  0  0  0  0  0  0  0  0  0  0  0
   21.7529  -19.3887  -12.3637 C   0  0  0  0  0  0  0  0  0  0  0  0
   20.6952  -19.2781  -11.4814 C   0  0  0  0  0  0  0  0  0  0  0  0
   28.8039  -20.1095   -4.6139 C   0  0  0  0  0  0  0  0  0  0  0  0
   28.2571  -19.1379   -6.0353 S   0  0  0  0  0  0  0  0  0  0  0  0
   27.2585  -20.2455   -7.1067 C   0  0  0  0  0  0  0  0  0  0  0  0
   26.7885  -19.4884   -8.3286 C   0  0  0  0  0  0  0  0  0  0  0  0
   25.9671  -20.4006   -9.1981 C   0  0  2  0  0  0  0  0  0  0  0  0
   25.4151  -19.7198  -10.3611 N   0  0  0  0  0  0  0  0  0  0  0  0
   24.8082  -20.9618   -8.3866 C   0  0  0  0  0  0  0  0  0  0  0  0
   25.0021  -21.7605   -7.4378 O   0  0  0  0  0  0  0  0  0  0  0  0
   23.4960  -20.6106   -8.6665 O   0  0  0  0  0  0  0  0  0  0  0  0
  2  1  1  0
  3  2  1  0
  3  4  1  1
  5  6  1  6
  5  3  1  0
  7  5  1  0
  7  8  2  0
  9 10  1  0
 10 11  2  0
 11 12  1  0
 13 12  2  0
 13 14  1  0
 15 14  1  6
 15 16  1  0
 15 17  1  0
 16  7  1  0
 17 26  1  0
 18 17  2  0
 19 13  1  0
 20 10  1  0
 20 19  2  0
 21 22  1  0
 22 23  1  0
 23 24  1  0
 25 24  1  1
 25 27  1  0
 26 25  1  0
 27 28  2  0
 27 29  1  0
M  END
$$$$
