IYM.pdb
     RDKit          3D

 29 29  0  0  1  0  0  0  0  0999 V2000
   28.9606  -19.6558  -20.2221 C   0  0  0  0  0  0  0  0  0  0  0  0
   27.5159  -19.9192  -19.9943 C   0  0  0  0  0  0  0  0  0  0  0  0
   27.1870  -20.6689  -18.7240 C   0  0  2  0  0  0  0  0  0  0  0  0
   26.7765  -22.0874  -19.0994 C   0  0  0  0  0  0  0  0  0  0  0  0
   26.1411  -19.9544  -17.9134 C   0  0  2  0  0  0  0  0  0  0  0  0
   26.7072  -18.6139  -17.6609 N   0  0  0  0  0  0  0  0  0  0  0  0
   25.8607  -20.5465  -16.5967 C   0  0  0  0  0  0  0  0  0  0  0  0
   25.1196  -21.5812  -16.5437 O   0  0  0  0  0  0  0  0  0  0  0  0
   25.2996  -20.7805   -7.6322 O   0  0  0  0  0  0  0  0  0  0  0  0
   25.6761  -20.6408   -8.9713 C   0  0  0  0  0  0  0  0  0  0  0  0
   26.0538  -21.7353   -9.7228 C   0  0  0  0  0  0  0  0  0  0  0  0
   26.4237  -21.5765  -11.0496 C   0  0  0  0  0  0  0  0  0  0  0  0
   26.4256  -20.3383  -11.6509 C   0  0  0  0  0  0  0  0  0  0  0  0
   26.8300  -20.1632  -13.0339 C   0  0  0  0  0  0  0  0  0  0  0  0
   25.8174  -20.5786  -14.0755 C   0  0  2  0  0  0  0  0  0  0  0  0
   26.3326  -20.0924  -15.3431 N   0  0  0  0  0  0  0  0  0  0  0  0
   24.5033  -20.0420  -13.7056 C   0  0  0  0  0  0  0  0  0  0  0  0
   24.4128  -18.7886  -13.5928 O   0  0  0  0  0  0  0  0  0  0  0  0
   26.0469  -19.2618  -10.8866 C   0  0  0  0  0  0  0  0  0  0  0  0
   25.6749  -19.3993   -9.5629 C   0  0  0  0  0  0  0  0  0  0  0  0
   22.3481  -19.1314  -17.2451 C   0  0  0  0  0  0  0  0  0  0  0  0
   20.7574  -19.8158  -16.7309 S   0  0  0  0  0  0  0  0  0  0  0  0
   21.0039  -20.6091  -15.0933 C   0  0  0  0  0  0  0  0  0  0  0  0
   21.3075  -19.5537  -14.0537 C   0  0  0  0  0  0  0  0  0  0  0  0
   22.1471  -20.1548  -12.9598 C   0  0  2  0  0  0  0  0  0  0  0  0
   23.3523  -20.7965  -13.4661 N   0  0  0  0  0  0  0  0  0  0  0  0
   21.3316  -21.2033  -12.2168 C   0  0  0  0  0  0  0  0  0  0  0  0
   21.6297  -22.4214  -12.2714 O   0  0  0  0  0  0  0  0  0  0  0  0
   20.2294  -20.8502  -11.4524 O   0  0  0  0  0  0  0  0  0  0  0  0
  2  1  1  0
  3  2  1  0
  3  4  1  6
  5  6  1  1
  5  3  1  0
  7  5  1  0
  7  8  2  0
  9 10  1  0
 10 11  2  0
 11 12  1  0
 13 12  2  0
 13 14  1  0
 15 14  1  1
 15 16  1  0
 15 17  1  0
 16  7  1  0
 17 26  1  0
 18 17  2  0
 19 13  1  0
 20 10  1  0
 20 19  2  0
 21 22  1  0
 22 23  1  0
 23 24  1  0
 25 24  1  6
 25 27  1  0
 26 25  1  0
 27 28  2  0
 27 29  1  0
M  END
$$$$
