IYM.pdb
     RDKit          3D

 29 29  0  0  1  0  0  0  0  0999 V2000
   22.0135  -18.4663  -18.2583 C   0  0  0  0  0  0  0  0  0  0  0  0
   21.1487  -18.7704  -17.0886 C   0  0  0  0  0  0  0  0  0  0  0  0
   20.7731  -20.2247  -16.9221 C   0  0  2  0  0  0  0  0  0  0  0  0
   20.0865  -20.6899  -18.2002 C   0  0  0  0  0  0  0  0  0  0  0  0
   19.9312  -20.4430  -15.6953 C   0  0  2  0  0  0  0  0  0  0  0  0
   18.7707  -19.5458  -15.8671 N   0  0  0  0  0  0  0  0  0  0  0  0
   20.5698  -20.0649  -14.4255 C   0  0  0  0  0  0  0  0  0  0  0  0
   20.6912  -18.8263  -14.1543 O   0  0  0  0  0  0  0  0  0  0  0  0
   15.7209  -22.4061  -11.8389 O   0  0  0  0  0  0  0  0  0  0  0  0
   17.0608  -22.0599  -11.6405 C   0  0  0  0  0  0  0  0  0  0  0  0
   17.4059  -20.8895  -10.9952 C   0  0  0  0  0  0  0  0  0  0  0  0
   18.7405  -20.5636  -10.8076 C   0  0  0  0  0  0  0  0  0  0  0  0
   19.7497  -21.3866  -11.2535 C   0  0  0  0  0  0  0  0  0  0  0  0
   21.1485  -21.0417  -11.0770 C   0  0  0  0  0  0  0  0  0  0  0  0
   21.8499  -20.4848  -12.2939 C   0  0  2  0  0  0  0  0  0  0  0  0
   21.0783  -20.9393  -13.4370 N   0  0  0  0  0  0  0  0  0  0  0  0
   23.2474  -20.9303  -12.2859 C   0  0  0  0  0  0  0  0  0  0  0  0
   23.5138  -21.9769  -12.9382 O   0  0  0  0  0  0  0  0  0  0  0  0
   19.3861  -22.5462  -11.8933 C   0  0  0  0  0  0  0  0  0  0  0  0
   18.0619  -22.8888  -12.0899 C   0  0  0  0  0  0  0  0  0  0  0  0
   28.1717  -19.4650  -15.3256 C   0  0  0  0  0  0  0  0  0  0  0  0
   29.0072  -19.5676  -13.7273 S   0  0  0  0  0  0  0  0  0  0  0  0
   27.9363  -20.5553  -12.6096 C   0  0  0  0  0  0  0  0  0  0  0  0
   26.5337  -19.9901  -12.6129 C   0  0  0  0  0  0  0  0  0  0  0  0
   25.6544  -20.8260  -11.7235 C   0  0  2  0  0  0  0  0  0  0  0  0
   24.3005  -20.2998  -11.6189 N   0  0  0  0  0  0  0  0  0  0  0  0
   26.2514  -20.8722  -10.3242 C   0  0  0  0  0  0  0  0  0  0  0  0
   25.7834  -20.1745   -9.3915 O   0  0  0  0  0  0  0  0  0  0  0  0
   27.3342  -21.6873  -10.0296 O   0  0  0  0  0  0  0  0  0  0  0  0
  2  1  1  0
  3  2  1  0
  3  4  1  6
  5  6  1  6
  5  3  1  0
  7  5  1  0
  7  8  2  0
  9 10  1  0
 10 11  2  0
 11 12  1  0
 13 12  2  0
 13 14  1  0
 15 14  1  1
 15 16  1  0
 15 17  1  0
 16  7  1  0
 17 26  1  0
 18 17  2  0
 19 13  1  0
 20 10  1  0
 20 19  2  0
 21 22  1  0
 22 23  1  0
 23 24  1  0
 25 24  1  6
 25 27  1  0
 26 25  1  0
 27 28  2  0
 27 29  1  0
M  END
$$$$
