VAE.pdb
     RDKit          3D

 22 21  0  0  1  0  0  0  0  0999 V2000
   25.7496  -10.8341  -16.1050 C   0  0  0  0  0  0  0  0  0  0  0  0
   24.8395  -11.7635  -15.3687 C   0  0  2  0  0  0  0  0  0  0  0  0
   25.6253  -13.0404  -15.1024 C   0  0  0  0  0  0  0  0  0  0  0  0
   23.5669  -12.0477  -16.0895 C   0  0  2  0  0  0  0  0  0  0  0  0
   23.8819  -12.6671  -17.3925 N   0  0  0  0  0  0  0  0  0  0  0  0
   22.7846  -10.8501  -16.3652 C   0  0  0  0  0  0  0  0  0  0  0  0
   23.0297  -10.1593  -17.3982 O   0  0  0  0  0  0  0  0  0  0  0  0
   19.5817   -9.3105  -15.3279 C   0  0  0  0  0  0  0  0  0  0  0  0
   21.0042   -9.2190  -15.8747 C   0  0  2  0  0  0  0  0  0  0  0  0
   21.7441  -10.4344  -15.5045 N   0  0  0  0  0  0  0  0  0  0  0  0
   21.6682   -8.0702  -15.2368 C   0  0  0  0  0  0  0  0  0  0  0  0
   22.4300   -8.2395  -14.2629 O   0  0  0  0  0  0  0  0  0  0  0  0
   21.4356   -6.7737  -15.7367 N   0  0  0  0  0  0  0  0  0  0  0  0
   22.1780   -5.6358  -15.1503 C   0  0  1  0  0  0  0  0  0  0  0  0
   22.1284   -4.4694  -16.0736 C   0  0  0  0  0  0  0  0  0  0  0  0
   22.7978   -3.2529  -15.5327 C   0  0  0  0  0  0  0  0  0  0  0  0
   22.6580   -2.1243  -16.4761 C   0  0  0  0  0  0  0  0  0  0  0  0
   22.7552   -0.9304  -16.0514 O   0  0  0  0  0  0  0  0  0  0  0  0
   21.5400   -5.3740  -13.8288 C   0  0  0  0  0  0  0  0  0  0  0  0
   22.3244   -4.9498  -12.7858 O   0  0  0  0  0  0  0  0  0  0  0  0
   22.4205   -2.3785  -17.8110 O   0  0  0  0  0  0  0  0  0  0  0  0
   20.2965   -5.5378  -13.6546 O   0  0  0  0  0  0  0  0  0  0  0  0
  2  3  1  6
  2  1  1  0
  4  6  1  0
  4  2  1  0
  4  5  1  6
  6 10  1  0
  7  6  2  0
  9  8  1  1
  9 11  1  0
 10  9  1  0
 11 13  1  0
 11 12  2  0
 13 14  1  0
 14 15  1  6
 14 19  1  0
 16 17  1  0
 16 15  1  0
 17 21  1  0
 18 17  2  0
 19 20  1  0
 22 19  2  0
M  END
$$$$
