VAE.pdb
     RDKit          3D

 22 21  0  0  1  0  0  0  0  0999 V2000
   23.5237  -22.3223  -13.5385 C   0  0  0  0  0  0  0  0  0  0  0  0
   24.9420  -22.7714  -13.6835 C   0  0  2  0  0  0  0  0  0  0  0  0
   25.0814  -24.0703  -12.9006 C   0  0  0  0  0  0  0  0  0  0  0  0
   25.9375  -21.7570  -13.2367 C   0  0  2  0  0  0  0  0  0  0  0  0
   25.6455  -21.3819  -11.8386 N   0  0  0  0  0  0  0  0  0  0  0  0
   25.8993  -20.5314  -14.0233 C   0  0  0  0  0  0  0  0  0  0  0  0
   25.2608  -19.5251  -13.5944 O   0  0  0  0  0  0  0  0  0  0  0  0
   27.4735  -19.1368  -17.1284 C   0  0  0  0  0  0  0  0  0  0  0  0
   26.4537  -19.1581  -15.9924 C   0  0  2  0  0  0  0  0  0  0  0  0
   26.5664  -20.4307  -15.2648 N   0  0  0  0  0  0  0  0  0  0  0  0
   25.1069  -19.0897  -16.5833 C   0  0  0  0  0  0  0  0  0  0  0  0
   24.4785  -20.1343  -16.8502 O   0  0  0  0  0  0  0  0  0  0  0  0
   24.5317  -17.8307  -16.8459 N   0  0  0  0  0  0  0  0  0  0  0  0
   23.1566  -17.7706  -17.3895 C   0  0  1  0  0  0  0  0  0  0  0  0
   22.2331  -17.2044  -16.3688 C   0  0  0  0  0  0  0  0  0  0  0  0
   20.8345  -17.0409  -16.8565 C   0  0  0  0  0  0  0  0  0  0  0  0
   19.8869  -17.7075  -15.9395 C   0  0  0  0  0  0  0  0  0  0  0  0
   19.4510  -17.0856  -14.9204 O   0  0  0  0  0  0  0  0  0  0  0  0
   23.2470  -16.9479  -18.6293 C   0  0  0  0  0  0  0  0  0  0  0  0
   22.1917  -16.9516  -19.5063 O   0  0  0  0  0  0  0  0  0  0  0  0
   19.4859  -19.0019  -16.1981 O   0  0  0  0  0  0  0  0  0  0  0  0
   24.2747  -16.2535  -18.8845 O   0  0  0  0  0  0  0  0  0  0  0  0
  2  3  1  1
  2  1  1  0
  4  6  1  0
  4  2  1  0
  4  5  1  1
  6 10  1  0
  7  6  2  0
  9  8  1  6
  9 11  1  0
 10  9  1  0
 11 13  1  0
 11 12  2  0
 13 14  1  0
 14 15  1  1
 14 19  1  0
 16 17  1  0
 16 15  1  0
 17 21  1  0
 18 17  2  0
 19 20  1  0
 22 19  2  0
M  END
$$$$
