VAE.pdb
     RDKit          3D

 22 21  0  0  1  0  0  0  0  0999 V2000
   16.8226  -11.3053  -18.3993 C   0  0  0  0  0  0  0  0  0  0  0  0
   17.6224  -10.5903  -17.3584 C   0  0  2  0  0  0  0  0  0  0  0  0
   18.1133   -9.2924  -17.9857 C   0  0  0  0  0  0  0  0  0  0  0  0
   18.7533  -11.3955  -16.8177 C   0  0  2  0  0  0  0  0  0  0  0  0
   18.2135  -12.6152  -16.1838 N   0  0  0  0  0  0  0  0  0  0  0  0
   19.5230  -10.6918  -15.8005 C   0  0  0  0  0  0  0  0  0  0  0  0
   18.9628  -10.3256  -14.7251 O   0  0  0  0  0  0  0  0  0  0  0  0
   23.0770   -9.8607  -15.0249 C   0  0  0  0  0  0  0  0  0  0  0  0
   21.5701   -9.6371  -14.9243 C   0  0  2  0  0  0  0  0  0  0  0  0
   20.8951  -10.4065  -15.9798 N   0  0  0  0  0  0  0  0  0  0  0  0
   21.3013   -8.2088  -15.1599 C   0  0  0  0  0  0  0  0  0  0  0  0
   21.1335   -7.7787  -16.3193 O   0  0  0  0  0  0  0  0  0  0  0  0
   21.2349   -7.3288  -14.0618 N   0  0  0  0  0  0  0  0  0  0  0  0
   21.0741   -5.8794  -14.3137 C   0  0  1  0  0  0  0  0  0  0  0  0
   19.7104   -5.4431  -13.9070 C   0  0  0  0  0  0  0  0  0  0  0  0
   19.5234   -3.9652  -13.9402 C   0  0  0  0  0  0  0  0  0  0  0  0
   18.8777   -3.5549  -15.2043 C   0  0  0  0  0  0  0  0  0  0  0  0
   18.5184   -4.4374  -16.0453 O   0  0  0  0  0  0  0  0  0  0  0  0
   22.1641   -5.2117  -13.5468 C   0  0  0  0  0  0  0  0  0  0  0  0
   22.5707   -3.9575  -13.9271 O   0  0  0  0  0  0  0  0  0  0  0  0
   18.6730   -2.2149  -15.4604 O   0  0  0  0  0  0  0  0  0  0  0  0
   22.7173   -5.7801  -12.5597 O   0  0  0  0  0  0  0  0  0  0  0  0
  2  3  1  6
  2  1  1  0
  4  6  1  0
  4  2  1  0
  4  5  1  1
  6 10  1  0
  7  6  2  0
  9  8  1  6
  9 11  1  0
 10  9  1  0
 11 13  1  0
 11 12  2  0
 13 14  1  0
 14 15  1  1
 14 19  1  0
 16 17  1  0
 16 15  1  0
 17 21  1  0
 18 17  2  0
 19 20  1  0
 22 19  2  0
M  END
$$$$
