VAE.pdb
     RDKit          3D

 22 21  0  0  1  0  0  0  0  0999 V2000
   16.5387  -16.1048  -14.7291 C   0  0  0  0  0  0  0  0  0  0  0  0
   16.8192  -14.7460  -15.2853 C   0  0  2  0  0  0  0  0  0  0  0  0
   17.7821  -14.0603  -14.3252 C   0  0  0  0  0  0  0  0  0  0  0  0
   15.5942  -13.9270  -15.5052 C   0  0  2  0  0  0  0  0  0  0  0  0
   14.7148  -14.6271  -16.4630 N   0  0  0  0  0  0  0  0  0  0  0  0
   15.8765  -12.6133  -16.0680 C   0  0  0  0  0  0  0  0  0  0  0  0
   16.4211  -12.5179  -17.2076 O   0  0  0  0  0  0  0  0  0  0  0  0
   14.4011   -9.5903  -16.4993 C   0  0  0  0  0  0  0  0  0  0  0  0
   15.7557  -10.1524  -16.0750 C   0  0  2  0  0  0  0  0  0  0  0  0
   15.5519  -11.4273  -15.3719 N   0  0  0  0  0  0  0  0  0  0  0  0
   16.3702   -9.2050  -15.1302 C   0  0  0  0  0  0  0  0  0  0  0  0
   16.0464   -9.2124  -13.9251 O   0  0  0  0  0  0  0  0  0  0  0  0
   17.3301   -8.2868  -15.5998 N   0  0  0  0  0  0  0  0  0  0  0  0
   17.9081   -7.3075  -14.6529 C   0  0  1  0  0  0  0  0  0  0  0  0
   19.3286   -7.0386  -15.0071 C   0  0  0  0  0  0  0  0  0  0  0  0
   20.2478   -8.1643  -14.6778 C   0  0  0  0  0  0  0  0  0  0  0  0
   21.6401   -7.8123  -15.0255 C   0  0  0  0  0  0  0  0  0  0  0  0
   21.8775   -6.7525  -15.6857 O   0  0  0  0  0  0  0  0  0  0  0  0
   17.0371   -6.1007  -14.7364 C   0  0  0  0  0  0  0  0  0  0  0  0
   16.9793   -5.2486  -13.6624 O   0  0  0  0  0  0  0  0  0  0  0  0
   22.6703   -8.6407  -14.6313 O   0  0  0  0  0  0  0  0  0  0  0  0
   16.3538   -5.8532  -15.7734 O   0  0  0  0  0  0  0  0  0  0  0  0
  2  3  1  1
  2  1  1  0
  4  6  1  0
  4  2  1  0
  4  5  1  6
  6 10  1  0
  7  6  2  0
  9  8  1  1
  9 11  1  0
 10  9  1  0
 11 13  1  0
 11 12  2  0
 13 14  1  0
 14 15  1  6
 14 19  1  0
 16 17  1  0
 16 15  1  0
 17 21  1  0
 18 17  2  0
 19 20  1  0
 22 19  2  0
M  END
$$$$
