VAE.pdb
     RDKit          3D

 22 21  0  0  1  0  0  0  0  0999 V2000
   24.2264  -13.4698  -15.8935 C   0  0  0  0  0  0  0  0  0  0  0  0
   23.2421  -12.3504  -16.0046 C   0  0  2  0  0  0  0  0  0  0  0  0
   22.8662  -11.9437  -14.5861 C   0  0  0  0  0  0  0  0  0  0  0  0
   22.0367  -12.6938  -16.8101 C   0  0  2  0  0  0  0  0  0  0  0  0
   22.4650  -13.1090  -18.1610 N   0  0  0  0  0  0  0  0  0  0  0  0
   21.1219  -11.5727  -16.9791 C   0  0  0  0  0  0  0  0  0  0  0  0
   21.5184  -10.5144  -17.5512 O   0  0  0  0  0  0  0  0  0  0  0  0
   17.4726  -10.8846  -16.7498 C   0  0  0  0  0  0  0  0  0  0  0  0
   18.9378  -10.4559  -16.7481 C   0  0  2  0  0  0  0  0  0  0  0  0
   19.7867  -11.6347  -16.5212 N   0  0  0  0  0  0  0  0  0  0  0  0
   19.1425   -9.5252  -15.6257 C   0  0  0  0  0  0  0  0  0  0  0  0
   19.3734   -9.9579  -14.4782 O   0  0  0  0  0  0  0  0  0  0  0  0
   19.0750   -8.1375  -15.8589 N   0  0  0  0  0  0  0  0  0  0  0  0
   19.2958   -7.2093  -14.7277 C   0  0  1  0  0  0  0  0  0  0  0  0
   20.5767   -6.4753  -14.9178 C   0  0  0  0  0  0  0  0  0  0  0  0
   20.8389   -5.4529  -13.8659 C   0  0  0  0  0  0  0  0  0  0  0  0
   22.0478   -4.6703  -14.1967 C   0  0  0  0  0  0  0  0  0  0  0  0
   22.7490   -4.9887  -15.2078 O   0  0  0  0  0  0  0  0  0  0  0  0
   18.1008   -6.3188  -14.6954 C   0  0  0  0  0  0  0  0  0  0  0  0
   17.8298   -5.6134  -13.5500 O   0  0  0  0  0  0  0  0  0  0  0  0
   22.4051   -3.6011  -13.4017 O   0  0  0  0  0  0  0  0  0  0  0  0
   17.3373   -6.2059  -15.6993 O   0  0  0  0  0  0  0  0  0  0  0  0
  2  3  1  1
  2  1  1  0
  4  6  1  0
  4  2  1  0
  4  5  1  6
  6 10  1  0
  7  6  2  0
  9  8  1  1
  9 11  1  0
 10  9  1  0
 11 13  1  0
 11 12  2  0
 13 14  1  0
 14 15  1  6
 14 19  1  0
 16 17  1  0
 16 15  1  0
 17 21  1  0
 18 17  2  0
 19 20  1  0
 22 19  2  0
M  END
$$$$
