VAE.pdb
     RDKit          3D

 22 21  0  0  1  0  0  0  0  0999 V2000
   15.5031  -14.8394  -14.7658 C   0  0  0  0  0  0  0  0  0  0  0  0
   16.3973  -13.6554  -14.9473 C   0  0  2  0  0  0  0  0  0  0  0  0
   15.5049  -12.4217  -14.9743 C   0  0  0  0  0  0  0  0  0  0  0  0
   17.2529  -13.7352  -16.1643 C   0  0  2  0  0  0  0  0  0  0  0  0
   18.1086  -14.9352  -16.0711 N   0  0  0  0  0  0  0  0  0  0  0  0
   18.1405  -12.5901  -16.3170 C   0  0  0  0  0  0  0  0  0  0  0  0
   19.2199  -12.5349  -15.6565 O   0  0  0  0  0  0  0  0  0  0  0  0
   18.6508   -9.8540  -18.7745 C   0  0  0  0  0  0  0  0  0  0  0  0
   18.8606  -10.5016  -17.4079 C   0  0  2  0  0  0  0  0  0  0  0  0
   17.8296  -11.5279  -17.1954 N   0  0  0  0  0  0  0  0  0  0  0  0
   18.6892   -9.4643  -16.3772 C   0  0  0  0  0  0  0  0  0  0  0  0
   17.6055   -9.3483  -15.7693 O   0  0  0  0  0  0  0  0  0  0  0  0
   19.7625   -8.6008  -16.0820 N   0  0  0  0  0  0  0  0  0  0  0  0
   19.5560   -7.5093  -15.1042 C   0  0  1  0  0  0  0  0  0  0  0  0
   20.8689   -6.9358  -14.7009 C   0  0  0  0  0  0  0  0  0  0  0  0
   20.7556   -5.8241  -13.7151 C   0  0  0  0  0  0  0  0  0  0  0  0
   22.0871   -5.2518  -13.4274 C   0  0  0  0  0  0  0  0  0  0  0  0
   23.1328   -5.8527  -13.8281 O   0  0  0  0  0  0  0  0  0  0  0  0
   18.6608   -6.5261  -15.7780 C   0  0  0  0  0  0  0  0  0  0  0  0
   17.8320   -5.7481  -15.0093 O   0  0  0  0  0  0  0  0  0  0  0  0
   22.1819   -4.0694  -12.7231 O   0  0  0  0  0  0  0  0  0  0  0  0
   18.6518   -6.4005  -17.0380 O   0  0  0  0  0  0  0  0  0  0  0  0
  2  3  1  6
  2  1  1  0
  4  6  1  0
  4  2  1  0
  4  5  1  1
  6 10  1  0
  7  6  2  0
  9  8  1  6
  9 11  1  0
 10  9  1  0
 11 13  1  0
 11 12  2  0
 13 14  1  0
 14 15  1  6
 14 19  1  0
 16 17  1  0
 16 15  1  0
 17 21  1  0
 18 17  2  0
 19 20  1  0
 22 19  2  0
M  END
$$$$
