VAE.pdb
     RDKit          3D

 22 21  0  0  1  0  0  0  0  0999 V2000
   18.1110  -11.4850  -17.9334 C   0  0  0  0  0  0  0  0  0  0  0  0
   19.1895  -12.3568  -18.4912 C   0  0  2  0  0  0  0  0  0  0  0  0
   18.5355  -13.2786  -19.5119 C   0  0  0  0  0  0  0  0  0  0  0  0
   19.9277  -13.1302  -17.4535 C   0  0  2  0  0  0  0  0  0  0  0  0
   18.9873  -14.0490  -16.7809 N   0  0  0  0  0  0  0  0  0  0  0  0
   20.5131  -12.2877  -16.4192 C   0  0  0  0  0  0  0  0  0  0  0  0
   19.7976  -11.8791  -15.4573 O   0  0  0  0  0  0  0  0  0  0  0  0
   23.8611  -11.0017  -15.3635 C   0  0  0  0  0  0  0  0  0  0  0  0
   22.3380  -10.9442  -15.4521 C   0  0  2  0  0  0  0  0  0  0  0  0
   21.8748  -11.9125  -16.4568 N   0  0  0  0  0  0  0  0  0  0  0  0
   21.9553   -9.5975  -15.9078 C   0  0  0  0  0  0  0  0  0  0  0  0
   21.6325   -9.3991  -17.0969 O   0  0  0  0  0  0  0  0  0  0  0  0
   21.9567   -8.5311  -14.9872 N   0  0  0  0  0  0  0  0  0  0  0  0
   21.5306   -7.1896  -15.4441 C   0  0  1  0  0  0  0  0  0  0  0  0
   20.0989   -7.2239  -15.8495 C   0  0  0  0  0  0  0  0  0  0  0  0
   19.5594   -5.8919  -16.2435 C   0  0  0  0  0  0  0  0  0  0  0  0
   18.1157   -5.9878  -16.5431 C   0  0  0  0  0  0  0  0  0  0  0  0
   17.5368   -7.1186  -16.5058 O   0  0  0  0  0  0  0  0  0  0  0  0
   21.8026   -6.2684  -14.3042 C   0  0  0  0  0  0  0  0  0  0  0  0
   21.9134   -4.9229  -14.5504 O   0  0  0  0  0  0  0  0  0  0  0  0
   17.4097   -4.8467  -16.8632 O   0  0  0  0  0  0  0  0  0  0  0  0
   21.9342   -6.7046  -13.1228 O   0  0  0  0  0  0  0  0  0  0  0  0
  2  3  1  6
  2  1  1  0
  4  6  1  0
  4  2  1  0
  4  5  1  1
  6 10  1  0
  7  6  2  0
  9  8  1  6
  9 11  1  0
 10  9  1  0
 11 13  1  0
 11 12  2  0
 13 14  1  0
 14 15  1  1
 14 19  1  0
 16 17  1  0
 16 15  1  0
 17 21  1  0
 18 17  2  0
 19 20  1  0
 22 19  2  0
M  END
$$$$
