VAE.pdb
     RDKit          3D

 22 21  0  0  1  0  0  0  0  0999 V2000
   24.7601  -14.1259  -18.2303 C   0  0  0  0  0  0  0  0  0  0  0  0
   25.3144  -13.5949  -16.9478 C   0  0  2  0  0  0  0  0  0  0  0  0
   26.1322  -14.7141  -16.3172 C   0  0  0  0  0  0  0  0  0  0  0  0
   24.2718  -13.0886  -16.0116 C   0  0  2  0  0  0  0  0  0  0  0  0
   23.2969  -14.1669  -15.7512 N   0  0  0  0  0  0  0  0  0  0  0  0
   23.5238  -11.9577  -16.5443 C   0  0  0  0  0  0  0  0  0  0  0  0
   24.1197  -10.8690  -16.7976 O   0  0  0  0  0  0  0  0  0  0  0  0
   20.0689  -11.1616  -17.7536 C   0  0  0  0  0  0  0  0  0  0  0  0
   21.4410  -10.8079  -17.1851 C   0  0  2  0  0  0  0  0  0  0  0  0
   22.1357  -12.0432  -16.7937 N   0  0  0  0  0  0  0  0  0  0  0  0
   21.2404   -9.9955  -15.9738 C   0  0  0  0  0  0  0  0  0  0  0  0
   21.1350  -10.5402  -14.8559 O   0  0  0  0  0  0  0  0  0  0  0  0
   21.1680   -8.5931  -16.0875 N   0  0  0  0  0  0  0  0  0  0  0  0
   21.0459   -7.7798  -14.8573 C   0  0  1  0  0  0  0  0  0  0  0  0
   21.7056   -6.4603  -15.0553 C   0  0  0  0  0  0  0  0  0  0  0  0
   21.5362   -5.5309  -13.9028 C   0  0  0  0  0  0  0  0  0  0  0  0
   22.1256   -4.2119  -14.2126 C   0  0  0  0  0  0  0  0  0  0  0  0
   23.1375   -4.1363  -14.9778 O   0  0  0  0  0  0  0  0  0  0  0  0
   19.5843   -7.6772  -14.5831 C   0  0  0  0  0  0  0  0  0  0  0  0
   19.1616   -7.5256  -13.2865 O   0  0  0  0  0  0  0  0  0  0  0  0
   21.5716   -3.0733  -13.6649 O   0  0  0  0  0  0  0  0  0  0  0  0
   18.7340   -7.7296  -15.5199 O   0  0  0  0  0  0  0  0  0  0  0  0
  2  3  1  1
  2  1  1  0
  4  6  1  0
  4  2  1  0
  4  5  1  6
  6 10  1  0
  7  6  2  0
  9  8  1  1
  9 11  1  0
 10  9  1  0
 11 13  1  0
 11 12  2  0
 13 14  1  0
 14 15  1  6
 14 19  1  0
 16 17  1  0
 16 15  1  0
 17 21  1  0
 18 17  2  0
 19 20  1  0
 22 19  2  0
M  END
$$$$
