VAE.pdb
     RDKit          3D

 22 21  0  0  1  0  0  0  0  0999 V2000
   25.8716  -20.5969   -6.7102 C   0  0  0  0  0  0  0  0  0  0  0  0
   25.5708  -20.4735   -8.1692 C   0  0  2  0  0  0  0  0  0  0  0  0
   24.9391  -21.7879   -8.6078 C   0  0  0  0  0  0  0  0  0  0  0  0
   26.7630  -20.1392   -8.9978 C   0  0  2  0  0  0  0  0  0  0  0  0
   27.2827  -18.8214   -8.5805 N   0  0  0  0  0  0  0  0  0  0  0  0
   26.4646  -20.0482  -10.4208 C   0  0  0  0  0  0  0  0  0  0  0  0
   25.7328  -19.1096  -10.8541 O   0  0  0  0  0  0  0  0  0  0  0  0
   27.5487  -21.6499  -13.6251 C   0  0  0  0  0  0  0  0  0  0  0  0
   26.6065  -20.8204  -12.7563 C   0  0  2  0  0  0  0  0  0  0  0  0
   26.9787  -20.9865  -11.3437 N   0  0  0  0  0  0  0  0  0  0  0  0
   25.2412  -21.3428  -12.9314 C   0  0  0  0  0  0  0  0  0  0  0  0
   24.8274  -22.2837  -12.2237 O   0  0  0  0  0  0  0  0  0  0  0  0
   24.4030  -20.7698  -13.9081 N   0  0  0  0  0  0  0  0  0  0  0  0
   22.9936  -21.2129  -13.9920 C   0  0  1  0  0  0  0  0  0  0  0  0
   22.0923  -20.1261  -13.5207 C   0  0  0  0  0  0  0  0  0  0  0  0
   20.6455  -20.4705  -13.6125 C   0  0  0  0  0  0  0  0  0  0  0  0
   19.8665  -19.3060  -14.0821 C   0  0  0  0  0  0  0  0  0  0  0  0
   20.2059  -18.1341  -13.7260 O   0  0  0  0  0  0  0  0  0  0  0  0
   22.7722  -21.5913  -15.4167 C   0  0  0  0  0  0  0  0  0  0  0  0
   21.8706  -22.5841  -15.7071 O   0  0  0  0  0  0  0  0  0  0  0  0
   18.7750  -19.5033  -14.9022 O   0  0  0  0  0  0  0  0  0  0  0  0
   23.3996  -21.0171  -16.3549 O   0  0  0  0  0  0  0  0  0  0  0  0
  2  3  1  6
  2  1  1  0
  4  6  1  0
  4  2  1  0
  4  5  1  1
  6 10  1  0
  7  6  2  0
  9  8  1  6
  9 11  1  0
 10  9  1  0
 11 13  1  0
 11 12  2  0
 13 14  1  0
 14 15  1  6
 14 19  1  0
 16 17  1  0
 16 15  1  0
 17 21  1  0
 18 17  2  0
 19 20  1  0
 22 19  2  0
M  END
$$$$
