DRH.pdb
     RDKit          3D

 30 30  0  0  1  0  0  0  0  0999 V2000
   12.3790  -18.9617   19.1006 N   0  0  0  0  0  0  0  0  0  0  0  0
   13.4949  -18.0502   19.1656 C   0  0  1  0  0  0  0  0  0  0  0  0
   13.6539  -17.3969   17.8076 C   0  0  0  0  0  0  0  0  0  0  0  0
   15.0695  -17.5810   17.3979 C   0  0  0  0  0  0  0  0  0  0  0  0
   15.9057  -18.0263   18.2120 O   0  0  0  0  0  0  0  0  0  0  0  0
   13.2570  -17.0526   20.2425 C   0  0  0  0  0  0  0  0  0  0  0  0
   14.2367  -16.3995   20.7300 O   0  0  0  0  0  0  0  0  0  0  0  0
   15.4532  -17.2597   16.1222 O   0  0  0  0  0  0  0  0  0  0  0  0
    7.1637  -12.8770   20.2578 N   0  0  0  0  0  0  0  0  0  0  0  0
    7.6652  -13.6185   19.1402 C   0  0  0  0  0  0  0  0  0  0  0  0
    7.7937  -13.0886   17.9940 N   0  0  0  0  0  0  0  0  0  0  0  0
    8.0274  -14.9828   19.3231 N   0  0  0  0  0  0  0  0  0  0  0  0
    7.8565  -15.5956   20.6148 C   0  0  0  0  0  0  0  0  0  0  0  0
    9.1021  -16.3567   21.0270 C   0  0  0  0  0  0  0  0  0  0  0  0
   10.1093  -15.3633   21.4960 C   0  0  0  0  0  0  0  0  0  0  0  0
   11.5067  -15.9224   21.6870 C   0  0  2  0  0  0  0  0  0  0  0  0
   11.9442  -16.8474   20.7064 N   0  0  0  0  0  0  0  0  0  0  0  0
   11.6473  -16.3863   23.0701 C   0  0  0  0  0  0  0  0  0  0  0  0
   10.8786  -15.9291   23.9989 O   0  0  0  0  0  0  0  0  0  0  0  0
    8.1016  -13.5889   17.1555 N   0  0  0  0  0  0  0  0  0  0  0  0
   12.6082  -17.3379   23.4554 C   0  0  1  0  0  0  0  0  0  0  0  0
   12.6351  -17.8140   24.8540 C   0  0  0  0  0  0  0  0  0  0  0  0
   11.4288  -18.6640   25.0606 C   0  0  0  0  0  0  0  0  0  0  0  0
   11.1251  -18.9650   26.4544 C   0  0  0  0  0  0  0  0  0  0  0  0
   11.7801  -18.4193   27.5580 N   0  0  0  0  0  0  0  0  0  0  0  0
   11.2321  -18.9259   28.6680 C   0  0  0  0  0  0  0  0  0  0  0  0
   10.2587  -19.7688   28.3233 N   0  0  0  0  0  0  0  0  0  0  0  0
   10.2096  -19.7787   26.9793 C   0  0  0  0  0  0  0  0  0  0  0  0
   13.8608  -18.6427   24.9916 O   0  0  0  0  0  0  0  0  0  0  0  0
   14.5358  -18.9015   23.9565 O   0  0  0  0  0  0  0  0  0  0  0  0
  2  3  1  0
  2  1  1  6
  4  5  2  0
  4  3  1  0
  6  2  1  0
  7  6  2  0
  8  4  1  0
 10  9  1  0
 10 11  2  0
 12 10  1  0
 13 12  1  0
 13 14  1  0
 14 15  1  0
 16 15  1  6
 16 17  1  0
 17  6  1  0
 18 16  1  0
 18 19  2  0
 20 18  1  0
 21 20  1  0
 21 22  1  1
 23 22  1  0
 24 23  2  0
 25 24  1  0
 25 26  1  0
 26 27  2  0
 27 23  1  0
 28 21  1  0
 29 28  2  0
 30 28  1  0
M  END
$$$$
