DRH.pdb
     RDKit          3D

 30 30  0  0  1  0  0  0  0  0999 V2000
    8.1832  -13.3419   18.6017 N   0  0  0  0  0  0  0  0  0  0  0  0
    9.0936  -14.3660   19.0521 C   0  0  1  0  0  0  0  0  0  0  0  0
   10.5092  -13.8623   18.8561 C   0  0  0  0  0  0  0  0  0  0  0  0
   10.8536  -14.0738   17.4269 C   0  0  0  0  0  0  0  0  0  0  0  0
    9.9761  -14.4419   16.6177 O   0  0  0  0  0  0  0  0  0  0  0  0
    8.8072  -14.6919   20.4746 C   0  0  0  0  0  0  0  0  0  0  0  0
    8.8448  -13.7724   21.3560 O   0  0  0  0  0  0  0  0  0  0  0  0
   12.1388  -13.8629   17.0009 O   0  0  0  0  0  0  0  0  0  0  0  0
    5.8977  -22.4771   23.8024 N   0  0  0  0  0  0  0  0  0  0  0  0
    5.9290  -21.5953   24.9302 C   0  0  0  0  0  0  0  0  0  0  0  0
    5.3809  -21.9053   26.0323 N   0  0  0  0  0  0  0  0  0  0  0  0
    6.5918  -20.3415   24.8085 N   0  0  0  0  0  0  0  0  0  0  0  0
    6.8682  -19.8088   23.4997 C   0  0  0  0  0  0  0  0  0  0  0  0
    7.5552  -18.4598   23.5933 C   0  0  0  0  0  0  0  0  0  0  0  0
    7.7298  -17.9396   22.2075 C   0  0  0  0  0  0  0  0  0  0  0  0
    8.3712  -16.5673   22.1239 C   0  0  2  0  0  0  0  0  0  0  0  0
    8.4977  -16.0199   20.8227 N   0  0  0  0  0  0  0  0  0  0  0  0
    9.6100  -16.5741   22.9068 C   0  0  0  0  0  0  0  0  0  0  0  0
   10.6689  -15.9834   22.4683 O   0  0  0  0  0  0  0  0  0  0  0  0
    5.3856  -21.3141   26.8683 N   0  0  0  0  0  0  0  0  0  0  0  0
    9.7124  -17.2112   24.1562 C   0  0  2  0  0  0  0  0  0  0  0  0
   10.2107  -16.4480   25.3193 C   0  0  0  0  0  0  0  0  0  0  0  0
    9.2279  -15.3627   25.5966 C   0  0  0  0  0  0  0  0  0  0  0  0
    9.5251  -14.5556   26.7738 C   0  0  0  0  0  0  0  0  0  0  0  0
   10.6085  -14.7483   27.6305 N   0  0  0  0  0  0  0  0  0  0  0  0
   10.5563  -13.8212   28.5932 C   0  0  0  0  0  0  0  0  0  0  0  0
    9.4904  -13.0470   28.3900 N   0  0  0  0  0  0  0  0  0  0  0  0
    8.8793  -13.5076   27.2840 C   0  0  0  0  0  0  0  0  0  0  0  0
   10.2431  -17.3976   26.4617 O   0  0  0  0  0  0  0  0  0  0  0  0
   10.8039  -17.0362   27.5336 O   0  0  0  0  0  0  0  0  0  0  0  0
  2  3  1  0
  2  1  1  1
  4  5  2  0
  4  3  1  0
  6  2  1  0
  7  6  2  0
  8  4  1  0
 10  9  1  0
 10 11  2  0
 12 10  1  0
 13 12  1  0
 13 14  1  0
 14 15  1  0
 16 15  1  6
 16 17  1  0
 17  6  1  0
 18 16  1  0
 18 19  2  0
 20 18  1  0
 21 20  1  0
 21 22  1  6
 23 22  1  0
 24 23  2  0
 25 24  1  0
 25 26  1  0
 26 27  2  0
 27 23  1  0
 28 21  1  0
 29 28  2  0
 30 28  1  0
M  END
$$$$
