DRH.pdb
     RDKit          3D

 30 30  0  0  1  0  0  0  0  0999 V2000
   12.1761  -19.9463   13.1202 N   0  0  0  0  0  0  0  0  0  0  0  0
   12.9610  -19.3106   14.1499 C   0  0  1  0  0  0  0  0  0  0  0  0
   13.3260  -17.9181   13.6768 C   0  0  0  0  0  0  0  0  0  0  0  0
   14.2467  -18.0768   12.5223 C   0  0  0  0  0  0  0  0  0  0  0  0
   15.0105  -19.0632   12.4596 O   0  0  0  0  0  0  0  0  0  0  0  0
   12.1856  -19.2857   15.4187 C   0  0  0  0  0  0  0  0  0  0  0  0
   10.9127  -19.3363   15.3853 O   0  0  0  0  0  0  0  0  0  0  0  0
   14.2537  -17.1355   11.5264 O   0  0  0  0  0  0  0  0  0  0  0  0
   12.3080  -23.3368   20.9559 N   0  0  0  0  0  0  0  0  0  0  0  0
   13.6228  -23.8039   20.6342 C   0  0  0  0  0  0  0  0  0  0  0  0
   13.9205  -25.0369   20.6801 N   0  0  0  0  0  0  0  0  0  0  0  0
   14.6174  -22.8593   20.2539 N   0  0  0  0  0  0  0  0  0  0  0  0
   14.2970  -21.4556   20.2453 C   0  0  0  0  0  0  0  0  0  0  0  0
   13.3837  -21.1113   19.0843 C   0  0  0  0  0  0  0  0  0  0  0  0
   13.1993  -19.6323   19.0719 C   0  0  0  0  0  0  0  0  0  0  0  0
   12.3272  -19.1137   17.9441 C   0  0  2  0  0  0  0  0  0  0  0  0
   12.8778  -19.2061   16.6414 N   0  0  0  0  0  0  0  0  0  0  0  0
   11.8282  -17.7834   18.3034 C   0  0  0  0  0  0  0  0  0  0  0  0
   12.5979  -16.7513   18.2355 O   0  0  0  0  0  0  0  0  0  0  0  0
   14.8691  -25.4082   20.5777 N   0  0  0  0  0  0  0  0  0  0  0  0
   10.5079  -17.5609   18.7331 C   0  0  2  0  0  0  0  0  0  0  0  0
   10.0676  -16.1830   19.0353 C   0  0  0  0  0  0  0  0  0  0  0  0
    8.5877  -16.1390   18.8664 C   0  0  0  0  0  0  0  0  0  0  0  0
    7.9571  -14.9066   19.3236 C   0  0  0  0  0  0  0  0  0  0  0  0
    8.0758  -13.6627   18.7044 N   0  0  0  0  0  0  0  0  0  0  0  0
    7.3620  -12.7729   19.4027 C   0  0  0  0  0  0  0  0  0  0  0  0
    6.7941  -13.3916   20.4379 N   0  0  0  0  0  0  0  0  0  0  0  0
    7.1663  -14.6824   20.3725 C   0  0  0  0  0  0  0  0  0  0  0  0
   10.4165  -15.9336   20.4580 O   0  0  0  0  0  0  0  0  0  0  0  0
   10.6949  -16.9202   21.1948 O   0  0  0  0  0  0  0  0  0  0  0  0
  2  3  1  0
  2  1  1  6
  4  5  2  0
  4  3  1  0
  6  2  1  0
  7  6  2  0
  8  4  1  0
 10  9  1  0
 10 11  2  0
 12 10  1  0
 13 12  1  0
 13 14  1  0
 14 15  1  0
 16 15  1  1
 16 17  1  0
 17  6  1  0
 18 16  1  0
 18 19  2  0
 20 18  1  0
 21 20  1  0
 21 22  1  6
 23 22  1  0
 24 23  2  0
 25 24  1  0
 25 26  1  0
 26 27  2  0
 27 23  1  0
 28 21  1  0
 29 28  2  0
 30 28  1  0
M  END
$$$$
