DRH.pdb
     RDKit          3D

 30 30  0  0  1  0  0  0  0  0999 V2000
    7.5593  -21.2648   24.2842 N   0  0  0  0  0  0  0  0  0  0  0  0
    7.3610  -19.9059   24.7253 C   0  0  1  0  0  0  0  0  0  0  0  0
    7.3339  -19.8978   26.2403 C   0  0  0  0  0  0  0  0  0  0  0  0
    6.2345  -20.8029   26.6619 C   0  0  0  0  0  0  0  0  0  0  0  0
    5.5795  -21.4355   25.8068 O   0  0  0  0  0  0  0  0  0  0  0  0
    8.4446  -19.0456   24.1799 C   0  0  0  0  0  0  0  0  0  0  0  0
    9.6412  -19.4820   24.1394 O   0  0  0  0  0  0  0  0  0  0  0  0
    5.9427  -20.9404   27.9937 O   0  0  0  0  0  0  0  0  0  0  0  0
    7.3334  -12.0683   19.9725 N   0  0  0  0  0  0  0  0  0  0  0  0
    7.9665  -13.1955   19.3568 C   0  0  0  0  0  0  0  0  0  0  0  0
    8.6770  -13.0711   18.3124 N   0  0  0  0  0  0  0  0  0  0  0  0
    7.7925  -14.4854   19.9331 N   0  0  0  0  0  0  0  0  0  0  0  0
    6.8927  -14.6506   21.0450 C   0  0  0  0  0  0  0  0  0  0  0  0
    7.6565  -14.8452   22.3409 C   0  0  0  0  0  0  0  0  0  0  0  0
    8.6620  -15.9230   22.1204 C   0  0  0  0  0  0  0  0  0  0  0  0
    9.0211  -16.7159   23.3630 C   0  0  2  0  0  0  0  0  0  0  0  0
    8.1253  -17.7561   23.7155 N   0  0  0  0  0  0  0  0  0  0  0  0
    9.3303  -15.7818   24.4491 C   0  0  0  0  0  0  0  0  0  0  0  0
    8.7968  -14.6084   24.4797 O   0  0  0  0  0  0  0  0  0  0  0  0
    9.1308  -13.8483   17.8242 N   0  0  0  0  0  0  0  0  0  0  0  0
   10.2077  -16.1056   25.4991 C   0  0  1  0  0  0  0  0  0  0  0  0
    9.8175  -15.7954   26.8902 C   0  0  0  0  0  0  0  0  0  0  0  0
    8.3291  -15.8252   26.9546 C   0  0  0  0  0  0  0  0  0  0  0  0
    7.6855  -14.5243   26.8161 C   0  0  0  0  0  0  0  0  0  0  0  0
    8.3508  -13.3038   26.7046 N   0  0  0  0  0  0  0  0  0  0  0  0
    7.4374  -12.3329   26.5941 C   0  0  0  0  0  0  0  0  0  0  0  0
    6.2214  -12.8778   26.6299 N   0  0  0  0  0  0  0  0  0  0  0  0
    6.3928  -14.2049   26.7647 C   0  0  0  0  0  0  0  0  0  0  0  0
   10.3767  -16.8822   27.7351 O   0  0  0  0  0  0  0  0  0  0  0  0
   10.7427  -17.9545   27.1781 O   0  0  0  0  0  0  0  0  0  0  0  0
  2  3  1  0
  2  1  1  1
  4  5  2  0
  4  3  1  0
  6  2  1  0
  7  6  2  0
  8  4  1  0
 10  9  1  0
 10 11  2  0
 12 10  1  0
 13 12  1  0
 13 14  1  0
 14 15  1  0
 16 15  1  6
 16 17  1  0
 17  6  1  0
 18 16  1  0
 18 19  2  0
 20 18  1  0
 21 20  1  0
 21 22  1  1
 23 22  1  0
 24 23  2  0
 25 24  1  0
 25 26  1  0
 26 27  2  0
 27 23  1  0
 28 21  1  0
 29 28  2  0
 30 28  1  0
M  END
$$$$
