DRH.pdb
     RDKit          3D

 30 30  0  0  1  0  0  0  0  0999 V2000
   10.2524  -18.9559   21.6637 N   0  0  0  0  0  0  0  0  0  0  0  0
   11.2860  -18.1019   21.1319 C   0  0  1  0  0  0  0  0  0  0  0  0
   11.2329  -18.1777   19.6195 C   0  0  0  0  0  0  0  0  0  0  0  0
   12.4759  -17.5466   19.1071 C   0  0  0  0  0  0  0  0  0  0  0  0
   13.5260  -17.5895   19.7823 O   0  0  0  0  0  0  0  0  0  0  0  0
   11.0870  -16.7149   21.6304 C   0  0  0  0  0  0  0  0  0  0  0  0
   12.0783  -16.0563   22.0860 O   0  0  0  0  0  0  0  0  0  0  0  0
   12.4646  -16.9173   17.8898 O   0  0  0  0  0  0  0  0  0  0  0  0
    8.4217  -12.6352   17.0934 N   0  0  0  0  0  0  0  0  0  0  0  0
    7.7984  -13.8385   17.5559 C   0  0  0  0  0  0  0  0  0  0  0  0
    7.2054  -14.6290   16.7594 N   0  0  0  0  0  0  0  0  0  0  0  0
    7.8471  -14.1523   18.9434 N   0  0  0  0  0  0  0  0  0  0  0  0
    6.9171  -15.1070   19.4884 C   0  0  0  0  0  0  0  0  0  0  0  0
    7.1486  -15.3078   20.9739 C   0  0  0  0  0  0  0  0  0  0  0  0
    8.1482  -14.2965   21.4206 C   0  0  0  0  0  0  0  0  0  0  0  0
    9.3927  -14.8793   22.0634 C   0  0  2  0  0  0  0  0  0  0  0  0
    9.7978  -16.1521   21.5893 N   0  0  0  0  0  0  0  0  0  0  0  0
    9.2642  -14.7826   23.5200 C   0  0  0  0  0  0  0  0  0  0  0  0
    8.9598  -13.6623   24.0809 O   0  0  0  0  0  0  0  0  0  0  0  0
    6.7024  -15.4729   17.0479 N   0  0  0  0  0  0  0  0  0  0  0  0
    9.4604  -15.8840   24.3721 C   0  0  2  0  0  0  0  0  0  0  0  0
    9.2390  -15.7241   25.8243 C   0  0  0  0  0  0  0  0  0  0  0  0
    7.7844  -15.4752   26.0305 C   0  0  0  0  0  0  0  0  0  0  0  0
    7.4454  -14.1068   26.4020 C   0  0  0  0  0  0  0  0  0  0  0  0
    8.3647  -13.1011   26.6991 N   0  0  0  0  0  0  0  0  0  0  0  0
    7.6896  -11.9845   26.9931 C   0  0  0  0  0  0  0  0  0  0  0  0
    6.3832  -12.2317   26.8973 N   0  0  0  0  0  0  0  0  0  0  0  0
    6.2560  -13.5217   26.5385 C   0  0  0  0  0  0  0  0  0  0  0  0
    9.6194  -17.0164   26.4515 O   0  0  0  0  0  0  0  0  0  0  0  0
    9.9363  -17.9824   25.7029 O   0  0  0  0  0  0  0  0  0  0  0  0
  2  3  1  0
  2  1  1  1
  4  5  2  0
  4  3  1  0
  6  2  1  0
  7  6  2  0
  8  4  1  0
 10  9  1  0
 10 11  2  0
 12 10  1  0
 13 12  1  0
 13 14  1  0
 14 15  1  0
 16 15  1  6
 16 17  1  0
 17  6  1  0
 18 16  1  0
 18 19  2  0
 20 18  1  0
 21 20  1  0
 21 22  1  6
 23 22  1  0
 24 23  2  0
 25 24  1  0
 25 26  1  0
 26 27  2  0
 27 23  1  0
 28 21  1  0
 29 28  2  0
 30 28  1  0
M  END
$$$$
