DRH.pdb
     RDKit          3D

 30 30  0  0  1  0  0  0  0  0999 V2000
    9.9452  -18.1936   18.3279 N   0  0  0  0  0  0  0  0  0  0  0  0
   11.3152  -17.9258   18.6908 C   0  0  1  0  0  0  0  0  0  0  0  0
   11.8958  -16.9627   17.6751 C   0  0  0  0  0  0  0  0  0  0  0  0
   12.0791  -17.7201   16.4108 C   0  0  0  0  0  0  0  0  0  0  0  0
   12.1256  -17.1160   15.3184 O   0  0  0  0  0  0  0  0  0  0  0  0
   11.3631  -17.3784   20.0727 C   0  0  0  0  0  0  0  0  0  0  0  0
   12.4736  -17.3244   20.6955 O   0  0  0  0  0  0  0  0  0  0  0  0
   12.1971  -19.0848   16.4491 O   0  0  0  0  0  0  0  0  0  0  0  0
    8.1553  -11.9189   19.5015 N   0  0  0  0  0  0  0  0  0  0  0  0
    7.9131  -13.1278   18.7733 C   0  0  0  0  0  0  0  0  0  0  0  0
    8.1411  -13.2109   17.5274 N   0  0  0  0  0  0  0  0  0  0  0  0
    7.4043  -14.2618   19.4670 N   0  0  0  0  0  0  0  0  0  0  0  0
    7.2734  -14.2172   20.9002 C   0  0  0  0  0  0  0  0  0  0  0  0
    8.6276  -14.3212   21.5756 C   0  0  0  0  0  0  0  0  0  0  0  0
    8.7084  -15.6568   22.2322 C   0  0  0  0  0  0  0  0  0  0  0  0
   10.0018  -16.4081   21.9787 C   0  0  2  0  0  0  0  0  0  0  0  0
   10.1719  -16.9269   20.6708 N   0  0  0  0  0  0  0  0  0  0  0  0
   10.2022  -17.3839   23.0537 C   0  0  0  0  0  0  0  0  0  0  0  0
    9.5408  -18.4906   23.0696 O   0  0  0  0  0  0  0  0  0  0  0  0
    7.9977  -14.0558   16.9671 N   0  0  0  0  0  0  0  0  0  0  0  0
   11.1095  -17.1738   24.1073 C   0  0  1  0  0  0  0  0  0  0  0  0
   11.2656  -18.2131   25.1461 C   0  0  0  0  0  0  0  0  0  0  0  0
   12.7025  -18.2396   25.5401 C   0  0  0  0  0  0  0  0  0  0  0  0
   13.5918  -18.8601   24.5656 C   0  0  0  0  0  0  0  0  0  0  0  0
   13.1998  -19.3760   23.3307 N   0  0  0  0  0  0  0  0  0  0  0  0
   14.2821  -19.8610   22.7123 C   0  0  0  0  0  0  0  0  0  0  0  0
   15.3452  -19.6783   23.4954 N   0  0  0  0  0  0  0  0  0  0  0  0
   14.9067  -19.0711   24.6125 C   0  0  0  0  0  0  0  0  0  0  0  0
   10.4379  -17.7792   26.3014 O   0  0  0  0  0  0  0  0  0  0  0  0
    9.8223  -16.6795   26.2258 O   0  0  0  0  0  0  0  0  0  0  0  0
  2  3  1  0
  2  1  1  6
  4  5  2  0
  4  3  1  0
  6  2  1  0
  7  6  2  0
  8  4  1  0
 10  9  1  0
 10 11  2  0
 12 10  1  0
 13 12  1  0
 13 14  1  0
 14 15  1  0
 16 15  1  6
 16 17  1  0
 17  6  1  0
 18 16  1  0
 18 19  2  0
 20 18  1  0
 21 20  1  0
 21 22  1  6
 23 22  1  0
 24 23  2  0
 25 24  1  0
 25 26  1  0
 26 27  2  0
 27 23  1  0
 28 21  1  0
 29 28  2  0
 30 28  1  0
M  END
$$$$
