FRC.pdb
     RDKit          3D

 29 29  0  0  1  0  0  0  0  0999 V2000
    6.3944  -17.1581   25.9528 N   0  0  0  0  0  0  0  0  0  0  0  0
    6.7562  -15.9225   25.2904 C   0  0  1  0  0  0  0  0  0  0  0  0
    7.8193  -15.2570   26.1320 C   0  0  0  0  0  0  0  0  0  0  0  0
    7.3202  -13.9163   26.5435 C   0  0  0  0  0  0  0  0  0  0  0  0
    6.3405  -13.2627   25.8131 C   0  0  0  0  0  0  0  0  0  0  0  0
    5.8842  -12.0211   26.2018 C   0  0  0  0  0  0  0  0  0  0  0  0
    6.3965  -11.4102   27.3244 C   0  0  0  0  0  0  0  0  0  0  0  0
    7.3660  -12.0366   28.0631 C   0  0  0  0  0  0  0  0  0  0  0  0
    7.8218  -13.2838   27.6694 C   0  0  0  0  0  0  0  0  0  0  0  0
    7.1948  -16.2154   23.9279 C   0  0  0  0  0  0  0  0  0  0  0  0
    7.5960  -17.3754   23.6416 O   0  0  0  0  0  0  0  0  0  0  0  0
    7.7150  -15.3754   15.0422 N   0  0  0  0  0  0  0  0  0  0  0  0
    8.1102  -14.4620   16.0569 C   0  0  0  0  0  0  0  0  0  0  0  0
    8.7621  -13.3919   15.7224 N   0  0  0  0  0  0  0  0  0  0  0  0
    7.8352  -14.6463   17.4251 N   0  0  0  0  0  0  0  0  0  0  0  0
    8.3375  -13.7367   18.4066 C   0  0  0  0  0  0  0  0  0  0  0  0
    8.9462  -14.4406   19.6010 C   0  0  0  0  0  0  0  0  0  0  0  0
    7.9839  -14.2954   20.7461 C   0  0  0  0  0  0  0  0  0  0  0  0
    8.1362  -15.3821   21.7875 C   0  0  2  0  0  0  0  0  0  0  0  0
    7.2050  -15.2674   22.8687 N   0  0  0  0  0  0  0  0  0  0  0  0
    9.5568  -15.4151   22.2794 C   0  0  0  0  0  0  0  0  0  0  0  0
   10.0833  -14.3819   22.7340 O   0  0  0  0  0  0  0  0  0  0  0  0
    9.1108  -12.6986   16.4021 N   0  0  0  0  0  0  0  0  0  0  0  0
   10.3027  -16.6182   22.2288 C   0  0  1  0  0  0  0  0  0  0  0  0
   11.7008  -16.7294   22.5616 C   0  0  0  0  0  0  0  0  0  0  0  0
   11.9785  -17.8239   23.5471 S   0  0  0  0  0  0  0  0  0  0  0  0
   10.9533  -17.7492   25.0099 C   0  0  0  0  0  0  0  0  0  0  0  0
   12.5774  -16.8493   21.3491 O   0  0  0  0  0  0  0  0  0  0  0  0
   12.1183  -16.9637   20.0596 O   0  0  0  0  0  0  0  0  0  0  0  0
  2  3  1  0
  2  1  1  1
  3  4  1  0
  4  9  2  0
  5  4  1  0
  5  6  2  0
  6  7  1  0
  7  8  2  0
  9  8  1  0
 10 20  1  0
 10  2  1  0
 11 10  2  0
 13 12  1  0
 14 13  2  0
 15 13  1  0
 16 15  1  0
 17 18  1  0
 17 16  1  0
 19 18  1  6
 19 20  1  0
 21 19  1  0
 21 22  2  0
 23 24  1  0
 23 21  1  0
 24 25  1  6
 26 25  1  0
 27 24  1  0
 28 27  1  0
 29 27  2  0
M  END
$$$$
