FRC.pdb
     RDKit          3D

 29 29  0  0  1  0  0  0  0  0999 V2000
    6.2829  -17.9626   26.2492 N   0  0  0  0  0  0  0  0  0  0  0  0
    6.5328  -16.5864   25.8751 C   0  0  1  0  0  0  0  0  0  0  0  0
    7.3802  -15.9723   26.9643 C   0  0  0  0  0  0  0  0  0  0  0  0
    7.1953  -14.4958   26.9258 C   0  0  0  0  0  0  0  0  0  0  0  0
    7.3087  -13.7916   25.7377 C   0  0  0  0  0  0  0  0  0  0  0  0
    7.1358  -12.4239   25.7114 C   0  0  0  0  0  0  0  0  0  0  0  0
    6.8470  -11.7356   26.8685 C   0  0  0  0  0  0  0  0  0  0  0  0
    6.7298  -12.4099   28.0557 C   0  0  0  0  0  0  0  0  0  0  0  0
    6.9043  -13.7837   28.0779 C   0  0  0  0  0  0  0  0  0  0  0  0
    7.1658  -16.5509   24.5589 C   0  0  0  0  0  0  0  0  0  0  0  0
    8.0784  -17.3769   24.2873 O   0  0  0  0  0  0  0  0  0  0  0  0
    8.9710  -15.5258   17.2944 N   0  0  0  0  0  0  0  0  0  0  0  0
    8.4902  -14.1883   17.2867 C   0  0  0  0  0  0  0  0  0  0  0  0
    9.1490  -13.2856   16.6285 N   0  0  0  0  0  0  0  0  0  0  0  0
    7.3254  -13.7722   17.9588 N   0  0  0  0  0  0  0  0  0  0  0  0
    7.3872  -13.2585   19.2911 C   0  0  0  0  0  0  0  0  0  0  0  0
    8.0831  -14.2005   20.2509 C   0  0  0  0  0  0  0  0  0  0  0  0
    7.1607  -14.4146   21.4178 C   0  0  0  0  0  0  0  0  0  0  0  0
    7.6579  -15.4728   22.3777 C   0  0  2  0  0  0  0  0  0  0  0  0
    6.8237  -15.6313   23.5303 N   0  0  0  0  0  0  0  0  0  0  0  0
    9.0825  -15.1798   22.7594 C   0  0  0  0  0  0  0  0  0  0  0  0
    9.3482  -14.1840   23.4589 O   0  0  0  0  0  0  0  0  0  0  0  0
    8.9306  -12.2780   16.6645 N   0  0  0  0  0  0  0  0  0  0  0  0
   10.1279  -16.0320   22.3269 C   0  0  2  0  0  0  0  0  0  0  0  0
   11.5121  -15.8847   22.7010 C   0  0  0  0  0  0  0  0  0  0  0  0
   11.8585  -16.6315   23.9535 S   0  0  0  0  0  0  0  0  0  0  0  0
   13.5966  -16.5703   24.3677 C   0  0  0  0  0  0  0  0  0  0  0  0
   12.4540  -16.2247   21.5829 O   0  0  0  0  0  0  0  0  0  0  0  0
   13.7734  -15.8465   21.5286 O   0  0  0  0  0  0  0  0  0  0  0  0
  2  3  1  0
  2  1  1  1
  3  4  1  0
  4  9  2  0
  5  4  1  0
  5  6  2  0
  6  7  1  0
  7  8  2  0
  9  8  1  0
 10 20  1  0
 10  2  1  0
 11 10  2  0
 13 12  1  0
 14 13  2  0
 15 13  1  0
 16 15  1  0
 17 18  1  0
 17 16  1  0
 19 18  1  6
 19 20  1  0
 21 19  1  0
 21 22  2  0
 23 24  1  0
 23 21  1  0
 24 25  1  6
 26 25  1  0
 27 24  1  0
 28 27  1  0
 29 27  2  0
M  END
$$$$
