FRC.pdb
     RDKit          3D

 29 29  0  0  1  0  0  0  0  0999 V2000
    6.0355  -16.7508   25.8979 N   0  0  0  0  0  0  0  0  0  0  0  0
    6.9513  -15.8788   25.1927 C   0  0  1  0  0  0  0  0  0  0  0  0
    7.6982  -15.0774   26.2326 C   0  0  0  0  0  0  0  0  0  0  0  0
    7.0796  -13.7261   26.3164 C   0  0  0  0  0  0  0  0  0  0  0  0
    7.5810  -12.6632   25.5820 C   0  0  0  0  0  0  0  0  0  0  0  0
    7.0016  -11.4149   25.6658 C   0  0  0  0  0  0  0  0  0  0  0  0
    5.9131  -11.2051   26.4827 C   0  0  0  0  0  0  0  0  0  0  0  0
    5.3992  -12.2406   27.2187 C   0  0  0  0  0  0  0  0  0  0  0  0
    5.9841  -13.4930   27.1317 C   0  0  0  0  0  0  0  0  0  0  0  0
    7.8259  -16.6829   24.3425 C   0  0  0  0  0  0  0  0  0  0  0  0
    7.9111  -17.9250   24.5394 O   0  0  0  0  0  0  0  0  0  0  0  0
    8.7490  -13.9620   17.3693 N   0  0  0  0  0  0  0  0  0  0  0  0
    8.1375  -13.3483   18.4962 C   0  0  0  0  0  0  0  0  0  0  0  0
    8.2866  -12.0728   18.6773 N   0  0  0  0  0  0  0  0  0  0  0  0
    7.3672  -14.0470   19.4449 N   0  0  0  0  0  0  0  0  0  0  0  0
    7.7607  -15.3422   19.9037 C   0  0  0  0  0  0  0  0  0  0  0  0
    9.0480  -15.3158   20.7004 C   0  0  0  0  0  0  0  0  0  0  0  0
    9.4054  -16.7392   21.0234 C   0  0  0  0  0  0  0  0  0  0  0  0
    9.4686  -17.0100   22.5104 C   0  0  2  0  0  0  0  0  0  0  0  0
    8.6115  -16.1597   23.2796 N   0  0  0  0  0  0  0  0  0  0  0  0
   10.8954  -16.9300   22.9785 C   0  0  0  0  0  0  0  0  0  0  0  0
   11.5802  -15.9218   22.7214 O   0  0  0  0  0  0  0  0  0  0  0  0
    7.9072  -11.5621   19.4894 N   0  0  0  0  0  0  0  0  0  0  0  0
   11.4675  -17.9977   23.7125 C   0  0  1  0  0  0  0  0  0  0  0  0
   12.7898  -17.9811   24.2861 C   0  0  0  0  0  0  0  0  0  0  0  0
   12.8717  -18.7329   25.5801 S   0  0  0  0  0  0  0  0  0  0  0  0
   11.6039  -18.2778   26.7557 C   0  0  0  0  0  0  0  0  0  0  0  0
   13.8459  -18.4356   23.3213 O   0  0  0  0  0  0  0  0  0  0  0  0
   13.6007  -18.8814   22.0453 O   0  0  0  0  0  0  0  0  0  0  0  0
  2  3  1  0
  2  1  1  1
  3  4  1  0
  4  9  2  0
  5  4  1  0
  5  6  2  0
  6  7  1  0
  7  8  2  0
  9  8  1  0
 10 20  1  0
 10  2  1  0
 11 10  2  0
 13 12  1  0
 14 13  2  0
 15 13  1  0
 16 15  1  0
 17 18  1  0
 17 16  1  0
 19 18  1  6
 19 20  1  0
 21 19  1  0
 21 22  2  0
 23 24  1  0
 23 21  1  0
 24 25  1  1
 26 25  1  0
 27 24  1  0
 28 27  1  0
 29 27  2  0
M  END
$$$$
