FRC.pdb
     RDKit          3D

 29 29  0  0  1  0  0  0  0  0999 V2000
    6.3506  -17.8982   26.5637 N   0  0  0  0  0  0  0  0  0  0  0  0
    6.5703  -16.5348   26.1286 C   0  0  1  0  0  0  0  0  0  0  0  0
    7.3126  -15.8247   27.2359 C   0  0  0  0  0  0  0  0  0  0  0  0
    7.2125  -14.3581   27.0018 C   0  0  0  0  0  0  0  0  0  0  0  0
    5.9938  -13.7029   27.0794 C   0  0  0  0  0  0  0  0  0  0  0  0
    5.9106  -12.3441   26.8610 C   0  0  0  0  0  0  0  0  0  0  0  0
    7.0401  -11.6157   26.5619 C   0  0  0  0  0  0  0  0  0  0  0  0
    8.2568  -12.2411   26.4796 C   0  0  0  0  0  0  0  0  0  0  0  0
    8.3362  -13.6062   26.6996 C   0  0  0  0  0  0  0  0  0  0  0  0
    7.2934  -16.5436   24.8591 C   0  0  0  0  0  0  0  0  0  0  0  0
    8.2252  -17.3737   24.6821 O   0  0  0  0  0  0  0  0  0  0  0  0
    9.7531  -12.3656   17.5069 N   0  0  0  0  0  0  0  0  0  0  0  0
    8.6006  -13.1917   17.4093 C   0  0  0  0  0  0  0  0  0  0  0  0
    8.4263  -13.9066   16.3413 N   0  0  0  0  0  0  0  0  0  0  0  0
    7.6189  -13.2861   18.4138 N   0  0  0  0  0  0  0  0  0  0  0  0
    7.3699  -14.5224   19.0866 C   0  0  0  0  0  0  0  0  0  0  0  0
    8.2384  -14.7076   20.3130 C   0  0  0  0  0  0  0  0  0  0  0  0
    7.3253  -14.7661   21.5051 C   0  0  0  0  0  0  0  0  0  0  0  0
    7.8582  -15.6448   22.6153 C   0  0  2  0  0  0  0  0  0  0  0  0
    7.0209  -15.6640   23.7762 N   0  0  0  0  0  0  0  0  0  0  0  0
    9.2654  -15.2355   22.9523 C   0  0  0  0  0  0  0  0  0  0  0  0
    9.5069  -14.0654   23.3042 O   0  0  0  0  0  0  0  0  0  0  0  0
    7.6674  -14.5968   16.2325 N   0  0  0  0  0  0  0  0  0  0  0  0
   10.3217  -16.1757   22.8719 C   0  0  2  0  0  0  0  0  0  0  0  0
   11.7071  -15.8751   23.1330 C   0  0  0  0  0  0  0  0  0  0  0  0
   12.3784  -16.9154   23.9777 S   0  0  0  0  0  0  0  0  0  0  0  0
   11.4624  -17.3428   25.4524 C   0  0  0  0  0  0  0  0  0  0  0  0
   12.4868  -15.6008   21.8802 O   0  0  0  0  0  0  0  0  0  0  0  0
   13.7923  -15.1748   21.8483 O   0  0  0  0  0  0  0  0  0  0  0  0
  2  3  1  0
  2  1  1  1
  3  4  1  0
  4  9  2  0
  5  4  1  0
  5  6  2  0
  6  7  1  0
  7  8  2  0
  9  8  1  0
 10 20  1  0
 10  2  1  0
 11 10  2  0
 13 12  1  0
 14 13  2  0
 15 13  1  0
 16 15  1  0
 17 18  1  0
 17 16  1  0
 19 18  1  6
 19 20  1  0
 21 19  1  0
 21 22  2  0
 23 24  1  0
 23 21  1  0
 24 25  1  1
 26 25  1  0
 27 24  1  0
 28 27  1  0
 29 27  2  0
M  END
$$$$
