FRC.pdb
     RDKit          3D

 29 29  0  0  1  0  0  0  0  0999 V2000
    6.4538  -18.1120   26.1767 N   0  0  0  0  0  0  0  0  0  0  0  0
    6.5780  -16.7233   25.7862 C   0  0  1  0  0  0  0  0  0  0  0  0
    7.2534  -15.9959   26.9248 C   0  0  0  0  0  0  0  0  0  0  0  0
    7.0310  -14.5351   26.7453 C   0  0  0  0  0  0  0  0  0  0  0  0
    5.7511  -14.0041   26.7218 C   0  0  0  0  0  0  0  0  0  0  0  0
    5.5546  -12.6496   26.5551 C   0  0  0  0  0  0  0  0  0  0  0  0
    6.6298  -11.8020   26.4091 C   0  0  0  0  0  0  0  0  0  0  0  0
    7.9051  -12.3034   26.4291 C   0  0  0  0  0  0  0  0  0  0  0  0
    8.0983  -13.6645   26.5967 C   0  0  0  0  0  0  0  0  0  0  0  0
    7.3143  -16.6395   24.5272 C   0  0  0  0  0  0  0  0  0  0  0  0
    8.2381  -17.4645   24.2931 O   0  0  0  0  0  0  0  0  0  0  0  0
    9.5098  -14.8968   16.9944 N   0  0  0  0  0  0  0  0  0  0  0  0
    8.5233  -13.9099   17.2650 C   0  0  0  0  0  0  0  0  0  0  0  0
    8.6446  -12.7345   16.7306 N   0  0  0  0  0  0  0  0  0  0  0  0
    7.4037  -14.1291   18.0897 N   0  0  0  0  0  0  0  0  0  0  0  0
    7.2247  -13.3909   19.3005 C   0  0  0  0  0  0  0  0  0  0  0  0
    8.0106  -13.9666   20.4596 C   0  0  0  0  0  0  0  0  0  0  0  0
    7.1170  -14.9480   21.1644 C   0  0  0  0  0  0  0  0  0  0  0  0
    7.8120  -15.6737   22.2953 C   0  0  2  0  0  0  0  0  0  0  0  0
    7.0638  -15.6727   23.5157 N   0  0  0  0  0  0  0  0  0  0  0  0
    9.1907  -15.1053   22.4888 C   0  0  0  0  0  0  0  0  0  0  0  0
    9.3333  -13.9681   22.9766 O   0  0  0  0  0  0  0  0  0  0  0  0
    8.0355  -11.9349   16.9628 N   0  0  0  0  0  0  0  0  0  0  0  0
   10.3322  -15.8576   22.1185 C   0  0  1  0  0  0  0  0  0  0  0  0
   11.5007  -16.0327   22.9441 C   0  0  0  0  0  0  0  0  0  0  0  0
   11.1730  -16.5436   24.3145 S   0  0  0  0  0  0  0  0  0  0  0  0
   11.5979  -15.4045   25.6254 C   0  0  0  0  0  0  0  0  0  0  0  0
   12.5558  -16.8723   22.2848 O   0  0  0  0  0  0  0  0  0  0  0  0
   12.3415  -17.6912   21.2029 O   0  0  0  0  0  0  0  0  0  0  0  0
  2  3  1  0
  2  1  1  1
  3  4  1  0
  4  9  2  0
  5  4  1  0
  5  6  2  0
  6  7  1  0
  7  8  2  0
  9  8  1  0
 10 20  1  0
 10  2  1  0
 11 10  2  0
 13 12  1  0
 14 13  2  0
 15 13  1  0
 16 15  1  0
 17 18  1  0
 17 16  1  0
 19 18  1  6
 19 20  1  0
 21 19  1  0
 21 22  2  0
 23 24  1  0
 23 21  1  0
 24 25  1  6
 26 25  1  0
 27 24  1  0
 28 27  1  0
 29 27  2  0
M  END
$$$$
