FRC.pdb
     RDKit          3D

 29 29  0  0  1  0  0  0  0  0999 V2000
    6.7414  -16.4426   25.9038 N   0  0  0  0  0  0  0  0  0  0  0  0
    6.9463  -15.4392   24.8803 C   0  0  1  0  0  0  0  0  0  0  0  0
    7.9550  -14.4510   25.4164 C   0  0  0  0  0  0  0  0  0  0  0  0
    7.2326  -13.4457   26.2430 C   0  0  0  0  0  0  0  0  0  0  0  0
    7.6988  -13.0823   27.4965 C   0  0  0  0  0  0  0  0  0  0  0  0
    7.0232  -12.1501   28.2552 C   0  0  0  0  0  0  0  0  0  0  0  0
    5.8721  -11.5648   27.7776 C   0  0  0  0  0  0  0  0  0  0  0  0
    5.3912  -11.9078   26.5410 C   0  0  0  0  0  0  0  0  0  0  0  0
    6.0728  -12.8445   25.7819 C   0  0  0  0  0  0  0  0  0  0  0  0
    7.3736  -16.0904   23.6442 C   0  0  0  0  0  0  0  0  0  0  0  0
    7.9927  -17.1867   23.7029 O   0  0  0  0  0  0  0  0  0  0  0  0
    9.2403  -14.7064   15.2390 N   0  0  0  0  0  0  0  0  0  0  0  0
    8.2879  -14.2720   16.2006 C   0  0  0  0  0  0  0  0  0  0  0  0
    7.9776  -13.0139   16.2565 N   0  0  0  0  0  0  0  0  0  0  0  0
    7.6483  -15.1333   17.1120 N   0  0  0  0  0  0  0  0  0  0  0  0
    8.3786  -15.7639   18.1664 C   0  0  0  0  0  0  0  0  0  0  0  0
    8.9907  -14.7705   19.1313 C   0  0  0  0  0  0  0  0  0  0  0  0
    8.0205  -14.5890   20.2644 C   0  0  0  0  0  0  0  0  0  0  0  0
    8.1377  -15.6653   21.3210 C   0  0  2  0  0  0  0  0  0  0  0  0
    7.1392  -15.5698   22.3424 N   0  0  0  0  0  0  0  0  0  0  0  0
    9.5258  -15.6571   21.8990 C   0  0  0  0  0  0  0  0  0  0  0  0
    9.9980  -14.6059   22.3717 O   0  0  0  0  0  0  0  0  0  0  0  0
    7.2207  -12.6371   16.8475 N   0  0  0  0  0  0  0  0  0  0  0  0
   10.3025  -16.8415   21.9092 C   0  0  1  0  0  0  0  0  0  0  0  0
   11.7128  -16.8933   22.2027 C   0  0  0  0  0  0  0  0  0  0  0  0
   12.0356  -17.8082   23.3452 S   0  0  0  0  0  0  0  0  0  0  0  0
   11.0057  -17.5504   24.7837 C   0  0  0  0  0  0  0  0  0  0  0  0
   12.5449  -17.2117   20.9948 O   0  0  0  0  0  0  0  0  0  0  0  0
   13.9182  -17.2334   20.9740 O   0  0  0  0  0  0  0  0  0  0  0  0
  2  3  1  0
  2  1  1  1
  3  4  1  0
  4  9  2  0
  5  4  1  0
  5  6  2  0
  6  7  1  0
  7  8  2  0
  9  8  1  0
 10 20  1  0
 10  2  1  0
 11 10  2  0
 13 12  1  0
 14 13  2  0
 15 13  1  0
 16 15  1  0
 17 18  1  0
 17 16  1  0
 19 18  1  6
 19 20  1  0
 21 19  1  0
 21 22  2  0
 23 24  1  0
 23 21  1  0
 24 25  1  6
 26 25  1  0
 27 24  1  0
 28 27  1  0
 29 27  2  0
M  END
$$$$
