FRC.pdb
     RDKit          3D

 29 29  0  0  1  0  0  0  0  0999 V2000
    6.8221  -14.6488   20.4827 N   0  0  0  0  0  0  0  0  0  0  0  0
    7.3339  -14.2037   21.7618 C   0  0  1  0  0  0  0  0  0  0  0  0
    6.1607  -13.6817   22.5573 C   0  0  0  0  0  0  0  0  0  0  0  0
    6.6519  -13.2675   23.9000 C   0  0  0  0  0  0  0  0  0  0  0  0
    6.2855  -13.9629   25.0414 C   0  0  0  0  0  0  0  0  0  0  0  0
    6.7454  -13.5720   26.2811 C   0  0  0  0  0  0  0  0  0  0  0  0
    7.5777  -12.4821   26.4040 C   0  0  0  0  0  0  0  0  0  0  0  0
    7.9540  -11.7784   25.2899 C   0  0  0  0  0  0  0  0  0  0  0  0
    7.4900  -12.1742   24.0464 C   0  0  0  0  0  0  0  0  0  0  0  0
    8.0306  -15.3095   22.4146 C   0  0  0  0  0  0  0  0  0  0  0  0
    7.3820  -16.3338   22.7593 O   0  0  0  0  0  0  0  0  0  0  0  0
   12.0789  -20.9726   22.8621 N   0  0  0  0  0  0  0  0  0  0  0  0
   12.7165  -20.7270   21.6157 C   0  0  0  0  0  0  0  0  0  0  0  0
   12.8434  -21.7019   20.7698 N   0  0  0  0  0  0  0  0  0  0  0  0
   13.2281  -19.4727   21.2330 N   0  0  0  0  0  0  0  0  0  0  0  0
   13.1382  -18.3433   22.1044 C   0  0  0  0  0  0  0  0  0  0  0  0
   11.7739  -18.2056   22.7466 C   0  0  0  0  0  0  0  0  0  0  0  0
   11.4316  -16.7424   22.7642 C   0  0  0  0  0  0  0  0  0  0  0  0
   10.0422  -16.4668   23.2955 C   0  0  2  0  0  0  0  0  0  0  0  0
    9.4231  -15.3216   22.7001 N   0  0  0  0  0  0  0  0  0  0  0  0
   10.0869  -16.3573   24.7945 C   0  0  0  0  0  0  0  0  0  0  0  0
   10.6094  -15.3623   25.3316 O   0  0  0  0  0  0  0  0  0  0  0  0
   13.3177  -21.6103   19.8583 N   0  0  0  0  0  0  0  0  0  0  0  0
    9.5367  -17.3823   25.6026 C   0  0  2  0  0  0  0  0  0  0  0  0
    9.5933  -17.4090   27.0427 C   0  0  0  0  0  0  0  0  0  0  0  0
    8.2464  -17.5925   27.6741 S   0  0  0  0  0  0  0  0  0  0  0  0
    6.8855  -17.1466   26.6038 C   0  0  0  0  0  0  0  0  0  0  0  0
   10.5836  -18.4085   27.5654 O   0  0  0  0  0  0  0  0  0  0  0  0
   10.9262  -18.5528   28.8877 O   0  0  0  0  0  0  0  0  0  0  0  0
  2  3  1  0
  2  1  1  6
  3  4  1  0
  4  9  2  0
  5  4  1  0
  5  6  2  0
  6  7  1  0
  7  8  2  0
  9  8  1  0
 10 20  1  0
 10  2  1  0
 11 10  2  0
 13 12  1  0
 14 13  2  0
 15 13  1  0
 16 15  1  0
 17 18  1  0
 17 16  1  0
 19 18  1  6
 19 20  1  0
 21 19  1  0
 21 22  2  0
 23 24  1  0
 23 21  1  0
 24 25  1  6
 26 25  1  0
 27 24  1  0
 28 27  1  0
 29 27  2  0
M  END
$$$$
