WSF.pdb
     RDKit          3D

 32 34  0  0  1  0  0  0  0  0999 V2000
    6.4877  -18.6177   23.8843 N   0  0  0  0  0  0  0  0  0  0  0  0
    7.3422  -17.4063   23.8751 C   0  0  1  0  0  0  0  0  0  0  0  0
    7.5221  -16.9570   25.2613 C   0  0  0  0  0  0  0  0  0  0  0  0
    6.7693  -15.7220   25.5505 C   0  0  0  0  0  0  0  0  0  0  0  0
    5.5918  -15.6158   26.2604 C   0  0  0  0  0  0  0  0  0  0  0  0
    5.1905  -14.3365   26.3058 N   0  0  0  0  0  0  0  0  0  0  0  0
    6.0823  -13.5879   25.6372 C   0  0  0  0  0  0  0  0  0  0  0  0
    6.1834  -12.2359   25.3611 C   0  0  0  0  0  0  0  0  0  0  0  0
    7.2357  -11.7218   24.6307 C   0  0  0  0  0  0  0  0  0  0  0  0
    8.2220  -12.5598   24.1545 C   0  0  0  0  0  0  0  0  0  0  0  0
    8.1151  -13.9035   24.4328 C   0  0  0  0  0  0  0  0  0  0  0  0
    7.0634  -14.4194   25.1632 C   0  0  0  0  0  0  0  0  0  0  0  0
    8.4949  -17.6853   23.0503 C   0  0  0  0  0  0  0  0  0  0  0  0
    9.0531  -18.8348   23.1728 O   0  0  0  0  0  0  0  0  0  0  0  0
   10.5360  -14.9842   20.5237 O   0  0  0  0  0  0  0  0  0  0  0  0
   10.6788  -16.3415   20.2954 C   0  0  0  0  0  0  0  0  0  0  0  0
   10.4648  -17.0796   21.5943 C   0  0  2  0  0  0  0  0  0  0  0  0
    9.1146  -16.8506   22.0970 N   0  0  0  0  0  0  0  0  0  0  0  0
   11.4811  -16.7451   22.6113 C   0  0  0  0  0  0  0  0  0  0  0  0
   12.2352  -15.7228   22.4305 O   0  0  0  0  0  0  0  0  0  0  0  0
   11.7030  -17.4680   23.7988 N   0  0  0  0  0  0  0  0  0  0  0  0
   11.7966  -16.8043   25.1092 C   0  0  1  0  0  0  0  0  0  0  0  0
   10.5457  -16.0541   25.4189 C   0  0  0  0  0  0  0  0  0  0  0  0
   10.5562  -15.5007   26.7906 C   0  0  0  0  0  0  0  0  0  0  0  0
   10.5088  -14.1369   27.0349 C   0  0  0  0  0  0  0  0  0  0  0  0
   10.4992  -13.6822   28.3200 C   0  0  0  0  0  0  0  0  0  0  0  0
   10.5340  -14.5001   29.4289 C   0  0  0  0  0  0  0  0  0  0  0  0
   10.5810  -15.8570   29.1877 C   0  0  0  0  0  0  0  0  0  0  0  0
   10.5912  -16.3374   27.8838 C   0  0  0  0  0  0  0  0  0  0  0  0
   12.0116  -17.8628   26.1120 C   0  0  0  0  0  0  0  0  0  0  0  0
   11.4730  -18.9946   26.0794 O   0  0  0  0  0  0  0  0  0  0  0  0
   12.8705  -17.6547   27.2108 O   0  0  0  0  0  0  0  0  0  0  0  0
  2  1  1  1
  2 13  1  0
  2  3  1  0
  3  4  1  0
  4  5  2  0
  5  6  1  0
  7  6  1  0
  8  7  2  0
  9  8  1  0
 10 11  1  0
 10  9  2  0
 11 12  2  0
 12  4  1  0
 12  7  1  0
 13 14  2  0
 16 15  1  0
 17 16  1  6
 18 13  1  0
 18 17  1  0
 19 20  2  0
 19 17  1  0
 21 19  1  0
 22 23  1  1
 22 21  1  0
 23 24  1  0
 24 29  1  0
 25 24  2  0
 26 25  1  0
 26 27  2  0
 27 28  1  0
 29 28  2  0
 30 22  1  0
 30 32  1  0
 31 30  2  0
M  END
$$$$
