WSF.pdb
     RDKit          3D

 32 34  0  0  1  0  0  0  0  0999 V2000
    8.4715  -18.1897   21.0903 N   0  0  0  0  0  0  0  0  0  0  0  0
    8.7012  -17.0972   22.0657 C   0  0  1  0  0  0  0  0  0  0  0  0
    7.4176  -16.4346   22.3284 C   0  0  0  0  0  0  0  0  0  0  0  0
    6.9703  -15.6115   21.1891 C   0  0  0  0  0  0  0  0  0  0  0  0
    5.9777  -15.9197   20.2828 C   0  0  0  0  0  0  0  0  0  0  0  0
    5.8593  -14.9411   19.3728 N   0  0  0  0  0  0  0  0  0  0  0  0
    6.7576  -13.9850   19.6583 C   0  0  0  0  0  0  0  0  0  0  0  0
    7.0836  -12.7719   19.0781 C   0  0  0  0  0  0  0  0  0  0  0  0
    8.0781  -11.9656   19.5936 C   0  0  0  0  0  0  0  0  0  0  0  0
    8.7770  -12.3604   20.7150 C   0  0  0  0  0  0  0  0  0  0  0  0
    8.4476  -13.5682   21.2871 C   0  0  0  0  0  0  0  0  0  0  0  0
    7.4532  -14.3758   20.7728 C   0  0  0  0  0  0  0  0  0  0  0  0
    9.4729  -17.6380   23.1606 C   0  0  0  0  0  0  0  0  0  0  0  0
    9.7420  -18.8930   23.1395 O   0  0  0  0  0  0  0  0  0  0  0  0
   12.4692  -15.9608   23.2692 O   0  0  0  0  0  0  0  0  0  0  0  0
   12.3622  -17.2433   23.7779 C   0  0  0  0  0  0  0  0  0  0  0  0
   11.3040  -17.2544   24.8539 C   0  0  2  0  0  0  0  0  0  0  0  0
    9.9925  -16.9636   24.2854 N   0  0  0  0  0  0  0  0  0  0  0  0
   11.6204  -16.3418   25.9704 C   0  0  0  0  0  0  0  0  0  0  0  0
   12.8362  -16.2342   26.3660 O   0  0  0  0  0  0  0  0  0  0  0  0
   10.6794  -15.5538   26.6599 N   0  0  0  0  0  0  0  0  0  0  0  0
   10.5225  -15.6281   28.1215 C   0  0  1  0  0  0  0  0  0  0  0  0
    9.1719  -15.1535   28.5388 C   0  0  0  0  0  0  0  0  0  0  0  0
    8.6391  -14.1217   27.6226 C   0  0  0  0  0  0  0  0  0  0  0  0
    9.2949  -12.9198   27.4056 C   0  0  0  0  0  0  0  0  0  0  0  0
    8.7698  -12.0132   26.5336 C   0  0  0  0  0  0  0  0  0  0  0  0
    7.6006  -12.2063   25.8296 C   0  0  0  0  0  0  0  0  0  0  0  0
    6.9470  -13.4014   26.0440 C   0  0  0  0  0  0  0  0  0  0  0  0
    7.4687  -14.3368   26.9294 C   0  0  0  0  0  0  0  0  0  0  0  0
   10.7002  -17.0411   28.5011 C   0  0  0  0  0  0  0  0  0  0  0  0
   10.8089  -17.9888   27.6873 O   0  0  0  0  0  0  0  0  0  0  0  0
   10.7606  -17.4239   29.8569 O   0  0  0  0  0  0  0  0  0  0  0  0
  2  1  1  6
  2 13  1  0
  2  3  1  0
  3  4  1  0
  4  5  2  0
  5  6  1  0
  7  6  1  0
  8  7  2  0
  9  8  1  0
 10 11  1  0
 10  9  2  0
 11 12  2  0
 12  4  1  0
 12  7  1  0
 13 14  2  0
 16 15  1  0
 17 16  1  6
 18 13  1  0
 18 17  1  0
 19 20  2  0
 19 17  1  0
 21 19  1  0
 22 23  1  6
 22 21  1  0
 23 24  1  0
 24 29  1  0
 25 24  2  0
 26 25  1  0
 26 27  2  0
 27 28  1  0
 29 28  2  0
 30 22  1  0
 30 32  1  0
 31 30  2  0
M  END
$$$$
