WSF.pdb
     RDKit          3D

 32 34  0  0  1  0  0  0  0  0999 V2000
    6.9895  -18.9740   25.4957 N   0  0  0  0  0  0  0  0  0  0  0  0
    7.1416  -17.9330   24.4513 C   0  0  1  0  0  0  0  0  0  0  0  0
    7.9114  -16.8186   25.0182 C   0  0  0  0  0  0  0  0  0  0  0  0
    7.0584  -15.8692   25.7574 C   0  0  0  0  0  0  0  0  0  0  0  0
    5.8159  -16.1203   26.3005 C   0  0  0  0  0  0  0  0  0  0  0  0
    5.3319  -15.0137   26.8844 N   0  0  0  0  0  0  0  0  0  0  0  0
    6.2324  -14.0285   26.7391 C   0  0  0  0  0  0  0  0  0  0  0  0
    6.2728  -12.7016   27.1292 C   0  0  0  0  0  0  0  0  0  0  0  0
    7.3534  -11.8933   26.8394 C   0  0  0  0  0  0  0  0  0  0  0  0
    8.4306  -12.4013   26.1442 C   0  0  0  0  0  0  0  0  0  0  0  0
    8.3838  -13.7220   25.7593 C   0  0  0  0  0  0  0  0  0  0  0  0
    7.3039  -14.5318   26.0482 C   0  0  0  0  0  0  0  0  0  0  0  0
    7.5934  -18.5827   23.2427 C   0  0  0  0  0  0  0  0  0  0  0  0
    8.3791  -19.5906   23.3641 O   0  0  0  0  0  0  0  0  0  0  0  0
    6.7375  -17.2268   19.4090 O   0  0  0  0  0  0  0  0  0  0  0  0
    7.5559  -18.3403   19.4817 C   0  0  0  0  0  0  0  0  0  0  0  0
    8.2549  -18.3452   20.8193 C   0  0  2  0  0  0  0  0  0  0  0  0
    7.2841  -18.2603   21.9048 N   0  0  0  0  0  0  0  0  0  0  0  0
    9.2779  -17.2865   20.9289 C   0  0  0  0  0  0  0  0  0  0  0  0
    9.8028  -16.8098   19.8595 O   0  0  0  0  0  0  0  0  0  0  0  0
    9.7422  -16.7351   22.1380 N   0  0  0  0  0  0  0  0  0  0  0  0
   10.8142  -15.7271   22.1739 C   0  0  1  0  0  0  0  0  0  0  0  0
   10.2623  -14.3695   22.4495 C   0  0  0  0  0  0  0  0  0  0  0  0
    9.2913  -13.9456   21.4173 C   0  0  0  0  0  0  0  0  0  0  0  0
    9.6930  -13.3917   20.2116 C   0  0  0  0  0  0  0  0  0  0  0  0
    8.7560  -13.0384   19.2867 C   0  0  0  0  0  0  0  0  0  0  0  0
    7.3981  -13.1948   19.4643 C   0  0  0  0  0  0  0  0  0  0  0  0
    6.9968  -13.7458   20.6630 C   0  0  0  0  0  0  0  0  0  0  0  0
    7.9389  -14.1118   21.6167 C   0  0  0  0  0  0  0  0  0  0  0  0
   11.7400  -16.1233   23.2501 C   0  0  0  0  0  0  0  0  0  0  0  0
   11.5185  -17.0371   24.0795 O   0  0  0  0  0  0  0  0  0  0  0  0
   12.9789  -15.4704   23.4154 O   0  0  0  0  0  0  0  0  0  0  0  0
  2  1  1  1
  2 13  1  0
  2  3  1  0
  3  4  1  0
  4  5  2  0
  5  6  1  0
  7  6  1  0
  8  7  2  0
  9  8  1  0
 10 11  1  0
 10  9  2  0
 11 12  2  0
 12  4  1  0
 12  7  1  0
 13 14  2  0
 16 15  1  0
 17 16  1  6
 18 13  1  0
 18 17  1  0
 19 20  2  0
 19 17  1  0
 21 19  1  0
 22 23  1  1
 22 21  1  0
 23 24  1  0
 24 29  1  0
 25 24  2  0
 26 25  1  0
 26 27  2  0
 27 28  1  0
 29 28  2  0
 30 22  1  0
 30 32  1  0
 31 30  2  0
M  END
$$$$
