WSF.pdb
     RDKit          3D

 32 34  0  0  1  0  0  0  0  0999 V2000
    8.2202  -19.1054   19.2640 N   0  0  0  0  0  0  0  0  0  0  0  0
    8.5947  -17.8072   19.8739 C   0  0  1  0  0  0  0  0  0  0  0  0
    7.4082  -16.9425   19.8852 C   0  0  0  0  0  0  0  0  0  0  0  0
    7.7344  -15.5420   19.5570 C   0  0  0  0  0  0  0  0  0  0  0  0
    7.9942  -15.0224   18.3063 C   0  0  0  0  0  0  0  0  0  0  0  0
    8.2690  -13.7123   18.3955 N   0  0  0  0  0  0  0  0  0  0  0  0
    8.1965  -13.3502   19.6863 C   0  0  0  0  0  0  0  0  0  0  0  0
    8.3781  -12.1543   20.3580 C   0  0  0  0  0  0  0  0  0  0  0  0
    8.2370  -12.0635   21.7280 C   0  0  0  0  0  0  0  0  0  0  0  0
    7.9070  -13.1814   22.4650 C   0  0  0  0  0  0  0  0  0  0  0  0
    7.7279  -14.3677   21.7905 C   0  0  0  0  0  0  0  0  0  0  0  0
    7.8686  -14.4603   20.4204 C   0  0  0  0  0  0  0  0  0  0  0  0
    9.2988  -18.0843   21.1045 C   0  0  0  0  0  0  0  0  0  0  0  0
    8.6773  -18.7451   22.0128 O   0  0  0  0  0  0  0  0  0  0  0  0
   13.3274  -17.2139   22.1920 O   0  0  0  0  0  0  0  0  0  0  0  0
   12.6521  -18.3268   22.6615 C   0  0  0  0  0  0  0  0  0  0  0  0
   11.1849  -17.9935   22.7784 C   0  0  2  0  0  0  0  0  0  0  0  0
   10.6146  -17.7238   21.4631 N   0  0  0  0  0  0  0  0  0  0  0  0
   10.9284  -16.8808   23.7140 C   0  0  0  0  0  0  0  0  0  0  0  0
   10.8635  -15.6827   23.2594 O   0  0  0  0  0  0  0  0  0  0  0  0
   10.7413  -17.0206   25.1023 N   0  0  0  0  0  0  0  0  0  0  0  0
   10.2644  -15.9084   25.9402 C   0  0  1  0  0  0  0  0  0  0  0  0
    8.8901  -15.4897   25.5410 C   0  0  0  0  0  0  0  0  0  0  0  0
    8.3425  -14.4525   26.4423 C   0  0  0  0  0  0  0  0  0  0  0  0
    9.1351  -13.4491   26.9777 C   0  0  0  0  0  0  0  0  0  0  0  0
    8.5739  -12.5057   27.7859 C   0  0  0  0  0  0  0  0  0  0  0  0
    7.2374  -12.4724   28.1216 C   0  0  0  0  0  0  0  0  0  0  0  0
    6.4475  -13.4697   27.5897 C   0  0  0  0  0  0  0  0  0  0  0  0
    7.0035  -14.4391   26.7638 C   0  0  0  0  0  0  0  0  0  0  0  0
   10.2602  -16.3913   27.3327 C   0  0  0  0  0  0  0  0  0  0  0  0
    9.8661  -17.5261   27.6917 O   0  0  0  0  0  0  0  0  0  0  0  0
   10.7180  -15.5709   28.3842 O   0  0  0  0  0  0  0  0  0  0  0  0
  2  1  1  1
  2 13  1  0
  2  3  1  0
  3  4  1  0
  4  5  2  0
  5  6  1  0
  7  6  1  0
  8  7  2  0
  9  8  1  0
 10 11  1  0
 10  9  2  0
 11 12  2  0
 12  4  1  0
 12  7  1  0
 13 14  2  0
 16 15  1  0
 17 16  1  6
 18 13  1  0
 18 17  1  0
 19 20  2  0
 19 17  1  0
 21 19  1  0
 22 23  1  6
 22 21  1  0
 23 24  1  0
 24 29  1  0
 25 24  2  0
 26 25  1  0
 26 27  2  0
 27 28  1  0
 29 28  2  0
 30 22  1  0
 30 32  1  0
 31 30  2  0
M  END
$$$$
