WSF.pdb
     RDKit          3D

 32 34  0  0  1  0  0  0  0  0999 V2000
    6.7552  -17.4586   24.5895 N   0  0  0  0  0  0  0  0  0  0  0  0
    7.8773  -16.5834   24.1743 C   0  0  1  0  0  0  0  0  0  0  0  0
    8.2803  -15.7698   25.3282 C   0  0  0  0  0  0  0  0  0  0  0  0
    7.2698  -14.7530   25.6752 C   0  0  0  0  0  0  0  0  0  0  0  0
    6.0836  -14.9586   26.3479 C   0  0  0  0  0  0  0  0  0  0  0  0
    5.4112  -13.8040   26.4675 N   0  0  0  0  0  0  0  0  0  0  0  0
    6.1305  -12.8315   25.8848 C   0  0  0  0  0  0  0  0  0  0  0  0
    5.9387  -11.4728   25.7070 C   0  0  0  0  0  0  0  0  0  0  0  0
    6.8671  -10.6891   25.0522 C   0  0  0  0  0  0  0  0  0  0  0  0
    8.0223  -11.2548   24.5549 C   0  0  0  0  0  0  0  0  0  0  0  0
    8.2067  -12.6068   24.7353 C   0  0  0  0  0  0  0  0  0  0  0  0
    7.2791  -13.3921   25.3899 C   0  0  0  0  0  0  0  0  0  0  0  0
    8.8510  -17.4062   23.4947 C   0  0  0  0  0  0  0  0  0  0  0  0
    8.9846  -18.6212   23.8871 O   0  0  0  0  0  0  0  0  0  0  0  0
   11.1956  -15.8694   20.6478 O   0  0  0  0  0  0  0  0  0  0  0  0
   11.6729  -17.1227   20.9891 C   0  0  0  0  0  0  0  0  0  0  0  0
   11.0793  -17.5256   22.3169 C   0  0  2  0  0  0  0  0  0  0  0  0
    9.7023  -17.0566   22.4257 N   0  0  0  0  0  0  0  0  0  0  0  0
   11.8932  -17.0740   23.4627 C   0  0  0  0  0  0  0  0  0  0  0  0
   12.3551  -15.8769   23.4697 O   0  0  0  0  0  0  0  0  0  0  0  0
   12.2166  -17.8622   24.5834 N   0  0  0  0  0  0  0  0  0  0  0  0
   12.9328  -17.3095   25.7444 C   0  0  1  0  0  0  0  0  0  0  0  0
   12.5187  -15.9013   26.0070 C   0  0  0  0  0  0  0  0  0  0  0  0
   11.3257  -15.8272   26.8783 C   0  0  0  0  0  0  0  0  0  0  0  0
   10.9151  -14.6405   27.4655 C   0  0  0  0  0  0  0  0  0  0  0  0
    9.7952  -14.6250   28.2425 C   0  0  0  0  0  0  0  0  0  0  0  0
    9.0161  -15.7333   28.4966 C   0  0  0  0  0  0  0  0  0  0  0  0
    9.4230  -16.9146   27.9131 C   0  0  0  0  0  0  0  0  0  0  0  0
   10.5621  -16.9479   27.1179 C   0  0  0  0  0  0  0  0  0  0  0  0
   12.5953  -18.1586   26.9010 C   0  0  0  0  0  0  0  0  0  0  0  0
   13.0611  -18.0076   28.0552 O   0  0  0  0  0  0  0  0  0  0  0  0
   11.6920  -19.2335   26.7702 O   0  0  0  0  0  0  0  0  0  0  0  0
  2  1  1  1
  2 13  1  0
  2  3  1  0
  3  4  1  0
  4  5  2  0
  5  6  1  0
  7  6  1  0
  8  7  2  0
  9  8  1  0
 10 11  1  0
 10  9  2  0
 11 12  2  0
 12  4  1  0
 12  7  1  0
 13 14  2  0
 16 15  1  0
 17 16  1  6
 18 13  1  0
 18 17  1  0
 19 20  2  0
 19 17  1  0
 21 19  1  0
 22 23  1  1
 22 21  1  0
 23 24  1  0
 24 29  1  0
 25 24  2  0
 26 25  1  0
 26 27  2  0
 27 28  1  0
 29 28  2  0
 30 22  1  0
 30 32  1  0
 31 30  2  0
M  END
$$$$
