WSF.pdb
     RDKit          3D

 32 34  0  0  1  0  0  0  0  0999 V2000
    7.2342  -17.5220   21.7626 N   0  0  0  0  0  0  0  0  0  0  0  0
    8.2539  -16.5710   22.2659 C   0  0  1  0  0  0  0  0  0  0  0  0
    7.5796  -15.3166   22.6233 C   0  0  0  0  0  0  0  0  0  0  0  0
    7.1817  -14.5381   21.4354 C   0  0  0  0  0  0  0  0  0  0  0  0
    5.9268  -14.4760   20.8670 C   0  0  0  0  0  0  0  0  0  0  0  0
    5.9449  -13.6805   19.7870 N   0  0  0  0  0  0  0  0  0  0  0  0
    7.1925  -13.2110   19.6263 C   0  0  0  0  0  0  0  0  0  0  0  0
    7.7883  -12.3683   18.7047 C   0  0  0  0  0  0  0  0  0  0  0  0
    9.1279  -12.0444   18.7786 C   0  0  0  0  0  0  0  0  0  0  0  0
    9.9104  -12.5629   19.7888 C   0  0  0  0  0  0  0  0  0  0  0  0
    9.3113  -13.4004   20.7021 C   0  0  0  0  0  0  0  0  0  0  0  0
    7.9717  -13.7255   20.6297 C   0  0  0  0  0  0  0  0  0  0  0  0
    9.0583  -17.2637   23.2457 C   0  0  0  0  0  0  0  0  0  0  0  0
    8.4492  -17.8544   24.2091 O   0  0  0  0  0  0  0  0  0  0  0  0
   13.1257  -17.5647   23.1901 O   0  0  0  0  0  0  0  0  0  0  0  0
   12.5207  -18.4549   24.0600 C   0  0  0  0  0  0  0  0  0  0  0  0
   11.1741  -17.9048   24.4621 C   0  0  2  0  0  0  0  0  0  0  0  0
   10.4622  -17.3910   23.2971 N   0  0  0  0  0  0  0  0  0  0  0  0
   11.2720  -16.8854   25.5253 C   0  0  0  0  0  0  0  0  0  0  0  0
   11.9326  -15.8085   25.3013 O   0  0  0  0  0  0  0  0  0  0  0  0
   10.6863  -16.9910   26.8011 N   0  0  0  0  0  0  0  0  0  0  0  0
   11.1746  -16.2110   27.9497 C   0  0  1  0  0  0  0  0  0  0  0  0
   10.9943  -14.7490   27.7183 C   0  0  0  0  0  0  0  0  0  0  0  0
    9.6518  -14.4335   27.1838 C   0  0  0  0  0  0  0  0  0  0  0  0
    8.9091  -15.3578   26.4656 C   0  0  0  0  0  0  0  0  0  0  0  0
    7.6677  -15.0209   26.0145 C   0  0  0  0  0  0  0  0  0  0  0  0
    7.0764  -13.7936   26.2245 C   0  0  0  0  0  0  0  0  0  0  0  0
    7.8136  -12.8730   26.9389 C   0  0  0  0  0  0  0  0  0  0  0  0
    9.0807  -13.2002   27.4062 C   0  0  0  0  0  0  0  0  0  0  0  0
   10.3899  -16.6367   29.1224 C   0  0  0  0  0  0  0  0  0  0  0  0
    9.5108  -17.5306   29.1047 O   0  0  0  0  0  0  0  0  0  0  0  0
   10.5911  -16.0385   30.3834 O   0  0  0  0  0  0  0  0  0  0  0  0
  2  1  1  1
  2 13  1  0
  2  3  1  0
  3  4  1  0
  4  5  2  0
  5  6  1  0
  7  6  1  0
  8  7  2  0
  9  8  1  0
 10 11  1  0
 10  9  2  0
 11 12  2  0
 12  4  1  0
 12  7  1  0
 13 14  2  0
 16 15  1  0
 17 16  1  6
 18 13  1  0
 18 17  1  0
 19 20  2  0
 19 17  1  0
 21 19  1  0
 22 23  1  6
 22 21  1  0
 23 24  1  0
 24 29  1  0
 25 24  2  0
 26 25  1  0
 26 27  2  0
 27 28  1  0
 29 28  2  0
 30 22  1  0
 30 32  1  0
 31 30  2  0
M  END
$$$$
