WSF.pdb
     RDKit          3D

 32 34  0  0  1  0  0  0  0  0999 V2000
    6.9184  -17.3316   21.2193 N   0  0  0  0  0  0  0  0  0  0  0  0
    7.7833  -16.3903   21.9699 C   0  0  1  0  0  0  0  0  0  0  0  0
    7.0799  -15.1065   22.0836 C   0  0  0  0  0  0  0  0  0  0  0  0
    7.0533  -14.3691   20.8065 C   0  0  0  0  0  0  0  0  0  0  0  0
    5.9624  -14.1694   19.9869 C   0  0  0  0  0  0  0  0  0  0  0  0
    6.3194  -13.4669   18.9012 N   0  0  0  0  0  0  0  0  0  0  0  0
    7.6316  -13.1950   18.9840 C   0  0  0  0  0  0  0  0  0  0  0  0
    8.5233  -12.5175   18.1715 C   0  0  0  0  0  0  0  0  0  0  0  0
    9.8550  -12.3851   18.5088 C   0  0  0  0  0  0  0  0  0  0  0  0
   10.3297  -12.9345   19.6813 C   0  0  0  0  0  0  0  0  0  0  0  0
    9.4373  -13.6071   20.4848 C   0  0  0  0  0  0  0  0  0  0  0  0
    8.1050  -13.7406   20.1489 C   0  0  0  0  0  0  0  0  0  0  0  0
    8.2465  -17.0684   23.1585 C   0  0  0  0  0  0  0  0  0  0  0  0
    7.3619  -17.5418   23.9593 O   0  0  0  0  0  0  0  0  0  0  0  0
   12.0330  -18.3377   23.9644 O   0  0  0  0  0  0  0  0  0  0  0  0
   11.0194  -18.8879   24.7293 C   0  0  0  0  0  0  0  0  0  0  0  0
    9.9123  -17.8726   24.8747 C   0  0  2  0  0  0  0  0  0  0  0  0
    9.5738  -17.2948   23.5788 N   0  0  0  0  0  0  0  0  0  0  0  0
   10.2299  -16.8243   25.8644 C   0  0  0  0  0  0  0  0  0  0  0  0
   10.9296  -15.8119   25.5014 O   0  0  0  0  0  0  0  0  0  0  0  0
    9.8202  -16.8351   27.2112 N   0  0  0  0  0  0  0  0  0  0  0  0
   10.3650  -15.8898   28.1990 C   0  0  1  0  0  0  0  0  0  0  0  0
    9.2734  -15.1144   28.8554 C   0  0  0  0  0  0  0  0  0  0  0  0
    8.5452  -14.2587   27.8934 C   0  0  0  0  0  0  0  0  0  0  0  0
    7.3258  -14.6333   27.3508 C   0  0  0  0  0  0  0  0  0  0  0  0
    6.6876  -13.7960   26.4849 C   0  0  0  0  0  0  0  0  0  0  0  0
    7.1772  -12.5676   26.0959 C   0  0  0  0  0  0  0  0  0  0  0  0
    8.3900  -12.1933   26.6348 C   0  0  0  0  0  0  0  0  0  0  0  0
    9.0539  -13.0349   27.5192 C   0  0  0  0  0  0  0  0  0  0  0  0
   11.0903  -16.6887   29.2030 C   0  0  0  0  0  0  0  0  0  0  0  0
   11.1072  -17.9419   29.2390 O   0  0  0  0  0  0  0  0  0  0  0  0
   11.8376  -16.0636   30.2224 O   0  0  0  0  0  0  0  0  0  0  0  0
  2  1  1  1
  2 13  1  0
  2  3  1  0
  3  4  1  0
  4  5  2  0
  5  6  1  0
  7  6  1  0
  8  7  2  0
  9  8  1  0
 10 11  1  0
 10  9  2  0
 11 12  2  0
 12  4  1  0
 12  7  1  0
 13 14  2  0
 16 15  1  0
 17 16  1  6
 18 13  1  0
 18 17  1  0
 19 20  2  0
 19 17  1  0
 21 19  1  0
 22 23  1  1
 22 21  1  0
 23 24  1  0
 24 29  1  0
 25 24  2  0
 26 25  1  0
 26 27  2  0
 27 28  1  0
 29 28  2  0
 30 22  1  0
 30 32  1  0
 31 30  2  0
M  END
$$$$
