WSF.pdb
     RDKit          3D

 32 34  0  0  1  0  0  0  0  0999 V2000
    6.5343  -18.2376   23.6052 N   0  0  0  0  0  0  0  0  0  0  0  0
    7.4942  -17.1342   23.8478 C   0  0  1  0  0  0  0  0  0  0  0  0
    7.5033  -16.8373   25.2856 C   0  0  0  0  0  0  0  0  0  0  0  0
    6.7333  -15.6218   25.6100 C   0  0  0  0  0  0  0  0  0  0  0  0
    5.4749  -15.5626   26.1708 C   0  0  0  0  0  0  0  0  0  0  0  0
    5.0856  -14.2858   26.3047 N   0  0  0  0  0  0  0  0  0  0  0  0
    6.0651  -13.4926   25.8418 C   0  0  0  0  0  0  0  0  0  0  0  0
    6.2165  -12.1217   25.7310 C   0  0  0  0  0  0  0  0  0  0  0  0
    7.3605  -11.5591   25.2020 C   0  0  0  0  0  0  0  0  0  0  0  0
    8.3907  -12.3659   24.7668 C   0  0  0  0  0  0  0  0  0  0  0  0
    8.2334  -13.7286   24.8800 C   0  0  0  0  0  0  0  0  0  0  0  0
    7.0900  -14.2930   25.4088 C   0  0  0  0  0  0  0  0  0  0  0  0
    8.7266  -17.4642   23.1700 C   0  0  0  0  0  0  0  0  0  0  0  0
    9.0338  -18.7057   23.0596 O   0  0  0  0  0  0  0  0  0  0  0  0
   11.3516  -14.8418   21.3382 O   0  0  0  0  0  0  0  0  0  0  0  0
   11.4527  -16.1741   20.9778 C   0  0  0  0  0  0  0  0  0  0  0  0
   10.9841  -17.0280   22.1306 C   0  0  2  0  0  0  0  0  0  0  0  0
    9.6709  -16.5907   22.5912 N   0  0  0  0  0  0  0  0  0  0  0  0
   11.9573  -17.0673   23.2400 C   0  0  0  0  0  0  0  0  0  0  0  0
   13.1719  -17.4012   22.9960 O   0  0  0  0  0  0  0  0  0  0  0  0
   11.6638  -16.7605   24.5822 N   0  0  0  0  0  0  0  0  0  0  0  0
   12.6542  -16.9374   25.6565 C   0  0  1  0  0  0  0  0  0  0  0  0
   11.9963  -16.9408   26.9947 C   0  0  0  0  0  0  0  0  0  0  0  0
   11.1619  -15.7378   27.2055 C   0  0  0  0  0  0  0  0  0  0  0  0
   10.0116  -15.7656   27.9787 C   0  0  0  0  0  0  0  0  0  0  0  0
    9.2916  -14.6220   28.1573 C   0  0  0  0  0  0  0  0  0  0  0  0
    9.6305  -13.4027   27.6110 C   0  0  0  0  0  0  0  0  0  0  0  0
   10.7746  -13.3732   26.8417 C   0  0  0  0  0  0  0  0  0  0  0  0
   11.5203  -14.5299   26.6497 C   0  0  0  0  0  0  0  0  0  0  0  0
   13.3196  -18.2308   25.4182 C   0  0  0  0  0  0  0  0  0  0  0  0
   12.9796  -19.0547   24.5363 O   0  0  0  0  0  0  0  0  0  0  0  0
   14.4219  -18.6323   26.2006 O   0  0  0  0  0  0  0  0  0  0  0  0
  2  1  1  1
  2 13  1  0
  2  3  1  0
  3  4  1  0
  4  5  2  0
  5  6  1  0
  7  6  1  0
  8  7  2  0
  9  8  1  0
 10 11  1  0
 10  9  2  0
 11 12  2  0
 12  4  1  0
 12  7  1  0
 13 14  2  0
 16 15  1  0
 17 16  1  6
 18 13  1  0
 18 17  1  0
 19 20  2  0
 19 17  1  0
 21 19  1  0
 22 23  1  1
 22 21  1  0
 23 24  1  0
 24 29  1  0
 25 24  2  0
 26 25  1  0
 26 27  2  0
 27 28  1  0
 29 28  2  0
 30 22  1  0
 30 32  1  0
 31 30  2  0
M  END
$$$$
